AV-unprocessed.smi:2557|AV-procd|sdf|10027|dock6
  -GOLD-   2272014 73D 1   1.00000     0.00000
 Structure written by MMmdl.
 38 40  0  0  0  0  0  0  0  0  2 V2000
  149.8324  135.3047  158.4307 O   0  5  0  0  0  0  0  0  0  0  0  0
  149.5865  136.4068  157.8856 C   0  0  0  0  0  0  0  0  0  0  0  0
  150.1745  137.6676  158.0131 C   0  0  0  0  0  0  0  0  0  0  0  0
  151.3251  137.8915  158.9032 C   0  0  0  0  0  0  0  0  0  0  0  0
  151.8635  137.0400  159.6095 O   0  0  0  0  0  0  0  0  0  0  0  0
  151.7863  139.1572  158.9052 N   0  0  0  0  0  0  0  0  0  0  0  0
  151.2369  140.1832  158.1335 C   0  0  0  0  0  0  0  0  0  0  0  0
  151.9690  141.5072  158.3582 C   0  0  0  0  0  0  0  0  0  0  0  0
  152.3474  141.7067  159.8437 C   0  0  0  0  0  0  0  0  0  0  0  0
  153.1231  143.0169  160.0606 C   0  0  0  0  0  0  0  0  0  0  0  0
  152.3394  144.2265  159.5287 C   0  0  0  0  0  0  0  0  0  0  0  0
  151.9722  144.0385  158.0491 C   0  0  0  0  0  0  0  0  0  0  0  0
  151.1861  142.7349  157.8351 C   0  0  0  0  0  0  0  0  0  0  0  0
  150.2208  140.0475  157.3361 N   0  0  0  0  0  0  0  0  0  0  0  0
  149.6969  138.7772  157.2797 N   0  0  0  0  0  0  0  0  0  0  0  0
  148.4093  136.2522  157.0090 C   0  0  0  0  0  0  0  0  0  0  0  0
  147.1790  135.7840  157.5205 C   0  0  0  0  0  0  0  0  0  0  0  0
  146.0875  135.6451  156.6409 C   0  0  0  0  0  0  0  0  0  0  0  0
  146.1539  135.9343  155.3237 N   0  0  0  0  0  0  0  0  0  0  0  0
  147.3337  136.3745  154.8361 C   0  0  0  0  0  0  0  0  0  0  0  0
  148.4843  136.5472  155.6300 C   0  0  0  0  0  0  0  0  0  0  0  0
  152.8992  141.4575  157.7889 H   0  0  0  0  0  0  0  0  0  0  0  0
  151.4446  141.7150  160.4567 H   0  0  0  0  0  0  0  0  0  0  0  0
  152.9527  140.8726  160.2008 H   0  0  0  0  0  0  0  0  0  0  0  0
  153.3377  143.1504  161.1212 H   0  0  0  0  0  0  0  0  0  0  0  0
  154.0880  142.9569  159.5557 H   0  0  0  0  0  0  0  0  0  0  0  0
  151.4303  144.3611  160.1162 H   0  0  0  0  0  0  0  0  0  0  0  0
  152.9270  145.1363  159.6547 H   0  0  0  0  0  0  0  0  0  0  0  0
  151.3843  144.8883  157.7010 H   0  0  0  0  0  0  0  0  0  0  0  0
  152.8804  144.0223  157.4451 H   0  0  0  0  0  0  0  0  0  0  0  0
  150.9656  142.6167  156.7732 H   0  0  0  0  0  0  0  0  0  0  0  0
  150.2249  142.8137  158.3456 H   0  0  0  0  0  0  0  0  0  0  0  0
  148.9058  138.6639  156.6553 H   0  0  0  0  0  0  0  0  0  0  0  0
  147.0764  135.5378  158.5671 H   0  0  0  0  0  0  0  0  0  0  0  0
  145.1345  135.2913  157.0055 H   0  0  0  0  0  0  0  0  0  0  0  0
  147.3619  136.5958  153.7796 H   0  0  0  0  0  0  0  0  0  0  0  0
  149.4060  136.9013  155.1922 H   0  0  0  0  0  0  0  0  0  0  0  0
  152.5740  139.3674  159.4999 H   0  0  0  0  0  0  0  0  0  0  0  0
  1  2  1  0  0  0  0
  2  3  2  0  0  0  0
  2 16  1  0  0  0  0
  3 15  1  0  0  0  0
  3  4  1  0  0  0  0
  4  5  2  0  0  0  0
  4  6  1  0  0  0  0
  6  7  1  0  0  0  0
  6 38  1  0  0  0  0
  7  8  1  0  0  0  0
  7 14  2  0  0  0  0
  8 13  1  0  0  0  0
  8  9  1  0  0  0  0
  8 22  1  0  0  0  0
  9 10  1  0  0  0  0
  9 23  1  0  0  0  0
  9 24  1  0  0  0  0
 10 11  1  0  0  0  0
 10 25  1  0  0  0  0
 10 26  1  0  0  0  0
 11 12  1  0  0  0  0
 11 27  1  0  0  0  0
 11 28  1  0  0  0  0
 12 13  1  0  0  0  0
 12 29  1  0  0  0  0
 12 30  1  0  0  0  0
 13 31  1  0  0  0  0
 13 32  1  0  0  0  0
 14 15  1  0  0  0  0
 15 33  1  0  0  0  0
 16 21  1  0  0  0  0
 16 17  2  0  0  0  0
 17 18  1  0  0  0  0
 17 34  1  0  0  0  0
 18 19  2  0  0  0  0
 18 35  1  0  0  0  0
 19 20  1  0  0  0  0
 20 21  2  0  0  0  0
 20 36  1  0  0  0  0
 21 37  1  0  0  0  0
M  CHG  1   1  -1
M  END
> <s_m_source_file>
AV-unprocessed.smi

> <i_m_source_file_index>
2557

> <i_lp_mmshare_version>
43012

> <i_f3d_flags>
0

> <s_epik_input>
W2NIXTFbY0hdbltjSF1bY0hdYzFDKD1PKUMyPUMoW09IXSlOPUMoW05IXVtOSF0yKVtDSF0zW0NIMl1bQ0gyXVtDSDJdW0NIMl1bQ0gyXTM=

> <s_epik_cmdline>
J2VwaWtfcHl0aG9uJywgJy1waCcsICc3LjAnLCAnLXRuJywgJzgnLCAnLW1hJywgJzIwMCcsICctbWV0YWxfYmluZGluZycsICctaW1hZScsICc8aW5maWxlLm1hZT4nLCAnLW9tYWUnLCAnPG91dGZpbGUubWFlPic=

> <r_epik_Ionization_Penalty>
0.0900605

> <r_epik_Ionization_Penalty_Charging>
0.000501436

> <r_epik_Ionization_Penalty_Neutral>
0.0895591

> <r_epik_State_Penalty>
0.142021

> <r_epik_Charging_Adjusted_Penalty>
0.142522

> <i_epik_Tot_Q>
-1

> <i_epik_Tot_abs_Q>
1

> <r_epik_Metal_State_Penalty>
0.0730028

> <b_epik_Metal_Only>
0

> <s_epik_Chemistry_Notes>
This compound has an imine and may undergo hydrolysis.

> <s_lp_Force_Field>
OPLS_2005

> <r_lp_Energy>
31.0156

> <b_lp_Chiralities_Consistent>
1

> <s_lp_Variant>
AV-unprocessed.smi:2557-1

> <Gold.Version>
5.8.1

> <Gold.Id.Protein>
6NUR|6NUR_protein|mol2

> <Gold.PLP.Fitness>
38.4674

> <Gold.PLP.PLP>
-29.4389

> <Gold.PLP.part.hbond>
-1.9438

> <Gold.PLP.part.metal>
0.0000

> <Gold.PLP.part.buried>
-4.7856

> <Gold.PLP.part.nonpolar>
-23.9140

> <Gold.PLP.part.repulsive>
0.2006

> <Gold.PLP.ligand.clash>
0.0000

> <Gold.PLP.ligand.torsion>
1.5559

> <Gold.PLP.Chemscore.Hbond>
2.3318

> <Gold.PLP.Chemscore.CHOScore>
1.0000

> <Gold.PLP.Chemscore.Metal>
0.0000

> <Gold.Chemscore.Hbonds>
donor molecule, donor type, donor heavy atom, donor atom, acceptor molecule, acceptor atom, score
      P1  H  6896  6908       L1     1  2.00
      P1  H  6896  6909       L1     5  0.55
      L1  C    20    36       P1  7948  1.00

> <Gold.PLP.Chemscore.Internal.Correction>
2.1450

> <Gold.Rescore>
     Score         DG    S(hbond)    S(metal)    S(lipo)     H(rot)  DE(clash)    DE(int)     intcor
     15.47     -17.29       1.60        0.00      77.03       1.00       0.03       1.79       ----

> <Gold.Chemscore.Fitness>
15.4737

> <Gold.Chemscore.DG>
-17.2865

> <Gold.Chemscore.ZeroCoef>
-5.4800

> <Gold.Chemscore.Hbond>
1.6030

> <Gold.Chemscore.Metal>
0.0000

> <Gold.Chemscore.Lipo>
77.0293

> <Gold.Chemscore.Internal_Hbond>
0.0000

> <Gold.Chemscore.DEClash>
0.0268

> <Gold.Chemscore.DEInternal>
1.7860

> <Gold.Chemscore.Rot>
1.0000

> <Gold.Chemscore.Internal.Correction>
   9.000000E+99

> <Gold.Chemscore.Hbonds>
donor molecule, donor type, donor heavy atom, donor atom, acceptor molecule, acceptor atom, score
      P1  H  6896  6908       L1     1  0.94
      P1  H  6896  6909       L1     5  0.55

> <Gold.Chemscore.Hbond.Weighted>
-5.3541

> <Gold.Chemscore.Metal.Weighted>
-0.0000

> <Gold.Chemscore.Lipo.Weighted>
-9.0124

> <Gold.Chemscore.Internal_Hbond.Weighted>
0.0000

> <Gold.Chemscore.DEClash.Weighted>
0.0268

> <Gold.Chemscore.DEInternal.Weighted>
1.7860

> <Gold.Chemscore.Rot.Weighted>
2.5600

> <Gold.Chemscore.Internal.Correction.Weighted>
   9.000000E+99

> <Gold.Protein.RotatedTorsions>
[ 6907 6896 6895 6894 ] final  155.77 input  -60.11 | X-H torsion
[ 7974 7965 7964 7962 ] final   43.68 input  175.53 | X-H torsion
[ 8008 7997 7996 7995 ] final  164.14 input   59.86 | X-H torsion
[ 10167 10162 10161 10158 ] final  122.42 input  -65.29 | X-H torsion
[ 10718 10713 10712 10709 ] final  -32.46 input   66.30 | X-H torsion
[ 10763 10752 10751 10750 ] final   64.74 input  -60.55 | X-H torsion
[ 11005 11000 10999 10996 ] final  164.12 input  -57.11 | X-H torsion

> <Gold.Protein.ActiveResidues>
 VAL166  LYS551  ARG553  GLY616  TRP617  ASP618  TYR619  PRO620  LYS621  CYS622 
 ASP623  PHE694  ASN695  SER759  ASP760  ASP761  ALA762  ILE779  LEU786  VAL792 
 PHE793  MET794  SER795  GLU796  ALA797  LYS798  CYS799  TRP800  GLU811  SER814 

> <Gold.Protein.RotatedAtoms>
  152.0394  133.3971  159.4330 H   0  0  0  0  0  0  0  0  0  0  0  0  # atno 6907 bound_to 6896
  150.6876  134.3432  159.4886 H   0  0  0  0  0  0  0  0  0  0  0  0  # atno 6908 bound_to 6896
  152.1228  134.9192  160.0613 H   0  0  0  0  0  0  0  0  0  0  0  0  # atno 6909 bound_to 6896
  146.0635  139.5160  142.9643 H   0  0  0  0  0  0  0  0  0  0  0  0  # atno 7974 bound_to 7965
  156.1903  140.1705  156.8105 H   0  0  0  0  0  0  0  0  0  0  0  0  # atno 8008 bound_to 7997
  154.5463  140.0726  156.8626 H   0  0  0  0  0  0  0  0  0  0  0  0  # atno 8009 bound_to 7997
  155.3115  140.3368  155.4246 H   0  0  0  0  0  0  0  0  0  0  0  0  # atno 8010 bound_to 7997
  139.5860  144.7006  151.3409 H   0  0  0  0  0  0  0  0  0  0  0  0  # atno 10167 bound_to 10162
  156.3746  130.4345  149.7517 H   0  0  0  0  0  0  0  0  0  0  0  0  # atno 10718 bound_to 10713
  153.0068  135.5382  154.6558 H   0  0  0  0  0  0  0  0  0  0  0  0  # atno 10763 bound_to 10752
  154.5779  135.2847  155.0764 H   0  0  0  0  0  0  0  0  0  0  0  0  # atno 10764 bound_to 10752
  154.1905  135.6501  153.5111 H   0  0  0  0  0  0  0  0  0  0  0  0  # atno 10765 bound_to 10752
  140.2427  134.8038  157.3426 H   0  0  0  0  0  0  0  0  0  0  0  0  # atno 11005 bound_to 11000
  145.6519  141.0261  143.1756 LP  0  0  0  0  0  0  0  0  0  0  0  0  # atno 17320 bound_to 7965
  144.7188  139.8101  143.7389 LP  0  0  0  0  0  0  0  0  0  0  0  0  # atno 17321 bound_to 7965
  140.7131  143.7337  150.7604 LP  0  0  0  0  0  0  0  0  0  0  0  0  # atno 17342 bound_to 10162
  140.0882  143.4903  152.2493 LP  0  0  0  0  0  0  0  0  0  0  0  0  # atno 17343 bound_to 10162
  156.4632  130.7961  151.2981 LP  0  0  0  0  0  0  0  0  0  0  0  0  # atno 17370 bound_to 10713
  157.7487  131.0059  150.3132 LP  0  0  0  0  0  0  0  0  0  0  0  0  # atno 17371 bound_to 10713
  140.1637  134.4696  155.7877 LP  0  0  0  0  0  0  0  0  0  0  0  0  # atno 17394 bound_to 11000
  141.2209  133.6912  156.7588 LP  0  0  0  0  0  0  0  0  0  0  0  0  # atno 17395 bound_to 11000

$$$$
