AV-unprocessed.smi:1099|AV-procd|sdf|4756|dock6
  -GOLD-   22720 3293D 1   1.00000     0.00000
 Structure written by MMmdl.
 41 43  0  0  0  0  0  0  0  0  1 V2000
  153.5746  141.7525  161.9861 C   0  0  0  0  0  0  0  0  0  0  0  0
  152.8301  143.0663  162.2449 C   0  0  0  0  0  0  0  0  0  0  0  0
  152.3386  143.7039  160.9884 C   0  0  0  0  0  0  0  0  0  0  0  0
  152.1273  143.0309  159.8542 N   0  0  0  0  0  0  0  0  0  0  0  0
  151.6385  143.8453  158.8277 C   0  0  0  0  0  0  0  0  0  0  0  0
  151.3614  143.2613  157.4760 C   0  0  0  0  0  0  0  0  0  0  0  0
  150.2280  142.2226  157.5153 C   0  0  0  0  0  0  0  0  0  0  0  0
  149.6769  141.9747  156.1882 N   0  0  0  0  0  0  0  0  0  0  0  0
  149.5644  140.7670  155.6142 C   0  0  0  0  0  0  0  0  0  0  0  0
  149.9387  139.7285  156.1606 O   0  0  0  0  0  0  0  0  0  0  0  0
  148.9576  140.7451  154.2002 C   0  0  1  0  0  0  0  0  0  0  0  0
  148.6080  139.3334  153.6671 C   0  0  0  0  0  0  0  0  0  0  0  0
  147.1326  139.4775  153.2487 C   0  0  1  0  0  0  0  0  0  0  0  0
  146.2457  139.5543  154.5056 C   0  0  0  0  0  0  0  0  0  0  0  0
  146.5261  140.9738  155.0322 C   0  0  0  0  0  0  0  0  0  0  0  0
  147.6047  141.4918  154.0550 C   0  0  2  0  0  0  0  0  0  0  0  0
  147.0901  140.9139  152.7399 C   0  0  0  0  0  0  0  0  0  0  0  0
  151.4681  145.1529  159.2086 C   0  0  0  0  0  0  0  0  0  0  0  0
  151.9136  145.4081  160.8732 S   0  0  0  0  0  0  0  0  0  0  0  0
  153.9165  141.3090  162.9214 H   0  0  0  0  0  0  0  0  0  0  0  0
  154.4482  141.9133  161.3538 H   0  0  0  0  0  0  0  0  0  0  0  0
  152.9299  141.0270  161.4893 H   0  0  0  0  0  0  0  0  0  0  0  0
  151.9783  142.8876  162.9017 H   0  0  0  0  0  0  0  0  0  0  0  0
  153.4834  143.7681  162.7649 H   0  0  0  0  0  0  0  0  0  0  0  0
  151.1031  144.0560  156.7749 H   0  0  0  0  0  0  0  0  0  0  0  0
  152.2685  142.8012  157.0821 H   0  0  0  0  0  0  0  0  0  0  0  0
  150.5818  141.2877  157.9531 H   0  0  0  0  0  0  0  0  0  0  0  0
  149.4195  142.5777  158.1551 H   0  0  0  0  0  0  0  0  0  0  0  0
  149.3521  142.7789  155.6709 H   0  0  0  0  0  0  0  0  0  0  0  0
  149.6775  141.1972  153.5150 H   0  0  0  0  0  0  0  0  0  0  0  0
  149.2275  139.0958  152.8012 H   0  0  0  0  0  0  0  0  0  0  0  0
  148.7476  138.5294  154.3912 H   0  0  0  0  0  0  0  0  0  0  0  0
  146.8079  138.7233  152.5312 H   0  0  0  0  0  0  0  0  0  0  0  0
  145.1915  139.4413  154.2499 H   0  0  0  0  0  0  0  0  0  0  0  0
  146.4987  138.7839  155.2349 H   0  0  0  0  0  0  0  0  0  0  0  0
  145.6259  141.5855  154.9561 H   0  0  0  0  0  0  0  0  0  0  0  0
  146.8299  140.9883  156.0781 H   0  0  0  0  0  0  0  0  0  0  0  0
  147.7074  142.5775  154.0553 H   0  0  0  0  0  0  0  0  0  0  0  0
  147.7565  141.0947  151.8945 H   0  0  0  0  0  0  0  0  0  0  0  0
  146.0852  141.2516  152.4795 H   0  0  0  0  0  0  0  0  0  0  0  0
  151.1073  145.9783  158.6126 H   0  0  0  0  0  0  0  0  0  0  0  0
  1  2  1  0  0  0  0
  1 20  1  0  0  0  0
  1 21  1  0  0  0  0
  1 22  1  0  0  0  0
  2  3  1  0  0  0  0
  2 23  1  0  0  0  0
  2 24  1  0  0  0  0
  3 19  1  0  0  0  0
  3  4  2  0  0  0  0
  4  5  1  0  0  0  0
  5  6  1  0  0  0  0
  5 18  2  0  0  0  0
  6  7  1  0  0  0  0
  6 25  1  0  0  0  0
  6 26  1  0  0  0  0
  7  8  1  0  0  0  0
  7 27  1  0  0  0  0
  7 28  1  0  0  0  0
  8  9  1  0  0  0  0
  8 29  1  0  0  0  0
  9 10  2  0  0  0  0
  9 11  1  0  0  0  0
 11 16  1  0  0  0  0
 11 12  1  0  0  0  0
 11 30  1  0  0  0  0
 12 13  1  0  0  0  0
 12 31  1  0  0  0  0
 12 32  1  0  0  0  0
 13 17  1  0  0  0  0
 13 14  1  0  0  0  0
 13 33  1  0  0  0  0
 14 15  1  0  0  0  0
 14 34  1  0  0  0  0
 14 35  1  0  0  0  0
 15 16  1  0  0  0  0
 15 36  1  0  0  0  0
 15 37  1  0  0  0  0
 16 17  1  0  0  0  0
 16 38  1  0  0  0  0
 17 39  1  0  0  0  0
 17 40  1  0  0  0  0
 18 19  1  0  0  0  0
 18 41  1  0  0  0  0
M  END
> <s_m_source_file>
AV-unprocessed.smi

> <i_m_source_file_index>
1099

> <i_lp_mmshare_version>
43012

> <i_f3d_flags>
0

> <s_epik_input>
W0NIM11bQ0gyXWMxbmMoW2NIXXMxKVtDSDJdW0NIMl1bTkhdQyg9TylbQ0BIXShbQ0gyXVtDQEBIXTIzKVtDQEBIXShbQ0gyXTMpW0NIMl1bQ0gyXTI=

> <s_epik_cmdline>
J2VwaWtfcHl0aG9uJywgJy1waCcsICc3LjAnLCAnLXRuJywgJzgnLCAnLW1hJywgJzIwMCcsICctbWV0YWxfYmluZGluZycsICctaW1hZScsICc8aW5maWxlLm1hZT4nLCAnLW9tYWUnLCAnPG91dGZpbGUubWFlPic=

> <r_epik_Ionization_Penalty>
0.00110131

> <r_epik_Ionization_Penalty_Charging>
0

> <r_epik_Ionization_Penalty_Neutral>
0.00110131

> <r_epik_State_Penalty>
0.00072257

> <r_epik_Charging_Adjusted_Penalty>
0.00072257

> <i_epik_Tot_Q>
0

> <i_epik_Tot_abs_Q>
0

> <r_epik_Metal_State_Penalty>
-0

> <b_epik_Metal_Only>
0

> <s_lp_Force_Field>
OPLS_2005

> <r_lp_Energy>
38.0082

> <b_lp_Chiralities_Consistent>
1

> <s_lp_Variant>
AV-unprocessed.smi:1099-2

> <Gold.Version>
5.8.1

> <Gold.Id.Protein>
6NUR|6NUR_protein|mol2

> <Gold.PLP.Fitness>
42.3117

> <Gold.PLP.PLP>
-40.4992

> <Gold.PLP.part.hbond>
-1.0000

> <Gold.PLP.part.metal>
0.0000

> <Gold.PLP.part.buried>
-0.9477

> <Gold.PLP.part.nonpolar>
-38.0646

> <Gold.PLP.part.repulsive>
0.0816

> <Gold.PLP.ligand.clash>
0.0000

> <Gold.PLP.ligand.torsion>
0.6046

> <Gold.PLP.Chemscore.Hbond>
1.0000

> <Gold.PLP.Chemscore.CHOScore>
0.0000

> <Gold.PLP.Chemscore.Metal>
0.0000

> <Gold.Chemscore.Hbonds>
donor molecule, donor type, donor heavy atom, donor atom, acceptor molecule, acceptor atom, score
      L1  H     8    29       P1  8028  0.98

> <Gold.PLP.Chemscore.Internal.Correction>
0.0217

> <Gold.Rescore>
     Score         DG    S(hbond)    S(metal)    S(lipo)     H(rot)  DE(clash)    DE(int)     intcor
     18.37     -20.28       0.96        0.00     130.19       1.42       1.73       0.17       ----

> <Gold.Chemscore.Fitness>
18.3731

> <Gold.Chemscore.DG>
-20.2795

> <Gold.Chemscore.ZeroCoef>
-5.4800

> <Gold.Chemscore.Hbond>
0.9560

> <Gold.Chemscore.Metal>
0.0000

> <Gold.Chemscore.Lipo>
130.1925

> <Gold.Chemscore.Internal_Hbond>
0.0000

> <Gold.Chemscore.DEClash>
1.7346

> <Gold.Chemscore.DEInternal>
0.1717

> <Gold.Chemscore.Rot>
1.4165

> <Gold.Chemscore.Internal.Correction>
   9.000000E+99

> <Gold.Chemscore.Hbonds>
donor molecule, donor type, donor heavy atom, donor atom, acceptor molecule, acceptor atom, score
      L1  H     8    29       P1  8028  0.90

> <Gold.Chemscore.Hbond.Weighted>
-3.1931

> <Gold.Chemscore.Metal.Weighted>
-0.0000

> <Gold.Chemscore.Lipo.Weighted>
-15.2325

> <Gold.Chemscore.Internal_Hbond.Weighted>
0.0000

> <Gold.Chemscore.DEClash.Weighted>
1.7346

> <Gold.Chemscore.DEInternal.Weighted>
0.1717

> <Gold.Chemscore.Rot.Weighted>
3.6262

> <Gold.Chemscore.Internal.Correction.Weighted>
   9.000000E+99

> <Gold.Protein.RotatedTorsions>
[ 6907 6896 6895 6894 ] final   44.78 input  -60.11 | X-H torsion
[ 7974 7965 7964 7962 ] final  129.73 input  175.53 | X-H torsion
[ 8008 7997 7996 7995 ] final  -71.27 input   59.86 | X-H torsion
[ 10167 10162 10161 10158 ] final  151.16 input  -65.29 | X-H torsion
[ 10718 10713 10712 10709 ] final  -13.87 input   66.30 | X-H torsion
[ 10763 10752 10751 10750 ] final   -2.81 input  -60.55 | X-H torsion
[ 11005 11000 10999 10996 ] final  146.39 input  -57.11 | X-H torsion

> <Gold.Protein.ActiveResidues>
 VAL166  LYS551  ARG553  GLY616  TRP617  ASP618  TYR619  PRO620  LYS621  CYS622 
 ASP623  PHE694  ASN695  SER759  ASP760  ASP761  ALA762  ILE779  LEU786  VAL792 
 PHE793  MET794  SER795  GLU796  ALA797  LYS798  CYS799  TRP800  GLU811  SER814 

> <Gold.Protein.RotatedAtoms>
  152.2366  134.8270  160.0466 H   0  0  0  0  0  0  0  0  0  0  0  0  # atno 6907 bound_to 6896
  151.9000  133.3530  159.3835 H   0  0  0  0  0  0  0  0  0  0  0  0  # atno 6908 bound_to 6896
  150.7041  134.4764  159.5494 H   0  0  0  0  0  0  0  0  0  0  0  0  # atno 6909 bound_to 6896
  145.0255  139.4093  143.5176 H   0  0  0  0  0  0  0  0  0  0  0  0  # atno 7974 bound_to 7965
  154.5075  140.0818  156.7924 H   0  0  0  0  0  0  0  0  0  0  0  0  # atno 8008 bound_to 7997
  155.3860  140.3430  155.4231 H   0  0  0  0  0  0  0  0  0  0  0  0  # atno 8009 bound_to 7997
  156.1533  140.1565  156.8721 H   0  0  0  0  0  0  0  0  0  0  0  0  # atno 8010 bound_to 7997
  139.4843  144.5464  151.7477 H   0  0  0  0  0  0  0  0  0  0  0  0  # atno 10167 bound_to 10162
  156.6241  130.4883  149.6153 H   0  0  0  0  0  0  0  0  0  0  0  0  # atno 10718 bound_to 10713
  153.3630  135.6991  153.6697 H   0  0  0  0  0  0  0  0  0  0  0  0  # atno 10763 bound_to 10752
  153.5378  135.3579  155.2705 H   0  0  0  0  0  0  0  0  0  0  0  0  # atno 10764 bound_to 10752
  154.8671  135.4196  154.2891 H   0  0  0  0  0  0  0  0  0  0  0  0  # atno 10765 bound_to 10752
  140.0789  134.9108  157.1468 H   0  0  0  0  0  0  0  0  0  0  0  0  # atno 11005 bound_to 11000
  146.3491  139.9776  142.8699 LP  0  0  0  0  0  0  0  0  0  0  0  0  # atno 17320 bound_to 7965
  145.1840  140.9780  143.4250 LP  0  0  0  0  0  0  0  0  0  0  0  0  # atno 17321 bound_to 7965
  140.5011  144.1168  150.5971 LP  0  0  0  0  0  0  0  0  0  0  0  0  # atno 17342 bound_to 10162
  140.4061  143.2679  151.9889 LP  0  0  0  0  0  0  0  0  0  0  0  0  # atno 17343 bound_to 10162
  156.2287  130.6781  151.1442 LP  0  0  0  0  0  0  0  0  0  0  0  0  # atno 17370 bound_to 10713
  157.7219  131.0676  150.6099 LP  0  0  0  0  0  0  0  0  0  0  0  0  # atno 17371 bound_to 10713
  140.3517  134.2592  155.7198 LP  0  0  0  0  0  0  0  0  0  0  0  0  # atno 17394 bound_to 11000
  141.2039  133.7899  157.0312 LP  0  0  0  0  0  0  0  0  0  0  0  0  # atno 17395 bound_to 11000

$$$$
