AV-unprocessed.smi:1943|AV-procd|sdf|7851|dock2
  -GOLD-   22720 9593D 1   1.00000     0.00000
 Structure written by MMmdl.
 48 49  0  0  0  0  0  0  0  0  2 V2000
  143.4788  132.9944  151.4201 C   0  0  0  0  0  0  0  0  0  0  0  0
  143.8075  133.6876  152.6942 N   0  3  0  0  0  0  0  0  0  0  0  0
  142.9080  134.8555  152.8854 C   0  0  0  0  0  0  0  0  0  0  0  0
  145.2753  133.9428  152.9310 C   0  0  0  0  0  0  0  0  0  0  0  0
  146.0912  132.6306  152.8172 C   0  0  0  0  0  0  0  0  0  0  0  0
  145.8397  134.9464  151.8898 C   0  0  0  0  0  0  0  0  0  0  0  0
  145.4432  134.5817  154.3435 C   0  0  0  0  0  0  0  0  0  0  0  0
  146.8251  134.9240  154.6774 N   0  0  0  0  0  0  0  0  0  0  0  0
  147.5985  134.2828  155.5694 C   0  0  0  0  0  0  0  0  0  0  0  0
  147.2165  133.3159  156.2292 O   0  0  0  0  0  0  0  0  0  0  0  0
  149.0055  134.8004  155.6736 C   0  0  0  0  0  0  0  0  0  0  0  0
  149.2984  135.9272  154.9814 N   0  0  0  0  0  0  0  0  0  0  0  0
  150.5333  136.4356  155.0782 C   0  0  0  0  0  0  0  0  0  0  0  0
  150.8165  137.5964  154.3480 N   0  0  0  0  0  0  0  0  0  0  0  0
  149.8088  138.6271  154.1015 C   0  0  0  0  0  0  0  0  0  0  0  0
  149.9360  139.7357  155.1619 C   0  0  0  0  0  0  0  0  0  0  0  0
  151.2556  140.2753  155.1269 O   0  0  0  0  0  0  0  0  0  0  0  0
  152.2576  139.2911  155.3766 C   0  0  0  0  0  0  0  0  0  0  0  0
  152.1588  138.1761  154.3193 C   0  0  0  0  0  0  0  0  0  0  0  0
  151.5197  135.9138  155.8167 N   0  0  0  0  0  0  0  0  0  0  0  0
  151.2533  134.7915  156.5163 C   0  0  0  0  0  0  0  0  0  0  0  0
  149.9875  134.1752  156.4834 C   0  0  0  0  0  0  0  0  0  0  0  0
  149.7139  132.7195  157.3782 Cl  0  0  0  0  0  0  0  0  0  0  0  0
  143.6228  133.6506  150.5610 H   0  0  0  0  0  0  0  0  0  0  0  0
  142.4328  132.6862  151.4208 H   0  0  0  0  0  0  0  0  0  0  0  0
  144.0667  132.0930  151.2612 H   0  0  0  0  0  0  0  0  0  0  0  0
  143.1891  135.6864  152.2378 H   0  0  0  0  0  0  0  0  0  0  0  0
  142.9048  135.2016  153.9186 H   0  0  0  0  0  0  0  0  0  0  0  0
  141.8761  134.5895  152.6536 H   0  0  0  0  0  0  0  0  0  0  0  0
  147.1639  132.8214  152.8616 H   0  0  0  0  0  0  0  0  0  0  0  0
  145.9042  132.1183  151.8735 H   0  0  0  0  0  0  0  0  0  0  0  0
  145.8628  131.9347  153.6247 H   0  0  0  0  0  0  0  0  0  0  0  0
  146.8802  135.2026  152.0905 H   0  0  0  0  0  0  0  0  0  0  0  0
  145.2739  135.8788  151.8861 H   0  0  0  0  0  0  0  0  0  0  0  0
  145.8292  134.5414  150.8775 H   0  0  0  0  0  0  0  0  0  0  0  0
  144.8620  135.5032  154.3969 H   0  0  0  0  0  0  0  0  0  0  0  0
  145.0414  133.9414  155.1273 H   0  0  0  0  0  0  0  0  0  0  0  0
  147.2343  135.7067  154.1869 H   0  0  0  0  0  0  0  0  0  0  0  0
  149.9781  139.0475  153.1094 H   0  0  0  0  0  0  0  0  0  0  0  0
  148.7961  138.2249  154.0836 H   0  0  0  0  0  0  0  0  0  0  0  0
  149.2211  140.5335  154.9606 H   0  0  0  0  0  0  0  0  0  0  0  0
  149.7144  139.3499  156.1584 H   0  0  0  0  0  0  0  0  0  0  0  0
  153.2381  139.7653  155.3340 H   0  0  0  0  0  0  0  0  0  0  0  0
  152.1416  138.8851  156.3829 H   0  0  0  0  0  0  0  0  0  0  0  0
  152.9419  137.4352  154.4768 H   0  0  0  0  0  0  0  0  0  0  0  0
  152.3371  138.5927  153.3273 H   0  0  0  0  0  0  0  0  0  0  0  0
  152.0608  134.3787  157.1027 H   0  0  0  0  0  0  0  0  0  0  0  0
  143.5396  133.0410  153.4226 H   0  0  0  0  0  0  0  0  0  0  0  0
  1  2  1  0  0  0  0
  1 24  1  0  0  0  0
  1 25  1  0  0  0  0
  1 26  1  0  0  0  0
  2  3  1  0  0  0  0
  2  4  1  0  0  0  0
  2 48  1  0  0  0  0
  3 27  1  0  0  0  0
  3 28  1  0  0  0  0
  3 29  1  0  0  0  0
  4  5  1  0  0  0  0
  4  6  1  0  0  0  0
  4  7  1  0  0  0  0
  5 30  1  0  0  0  0
  5 31  1  0  0  0  0
  5 32  1  0  0  0  0
  6 33  1  0  0  0  0
  6 34  1  0  0  0  0
  6 35  1  0  0  0  0
  7  8  1  0  0  0  0
  7 36  1  0  0  0  0
  7 37  1  0  0  0  0
  8  9  1  0  0  0  0
  8 38  1  0  0  0  0
  9 10  2  0  0  0  0
  9 11  1  0  0  0  0
 11 22  1  0  0  0  0
 11 12  2  0  0  0  0
 12 13  1  0  0  0  0
 13 14  1  0  0  0  0
 13 20  2  0  0  0  0
 14 19  1  0  0  0  0
 14 15  1  0  0  0  0
 15 16  1  0  0  0  0
 15 39  1  0  0  0  0
 15 40  1  0  0  0  0
 16 17  1  0  0  0  0
 16 41  1  0  0  0  0
 16 42  1  0  0  0  0
 17 18  1  0  0  0  0
 18 19  1  0  0  0  0
 18 43  1  0  0  0  0
 18 44  1  0  0  0  0
 19 45  1  0  0  0  0
 19 46  1  0  0  0  0
 20 21  1  0  0  0  0
 21 22  2  0  0  0  0
 21 47  1  0  0  0  0
 22 23  1  0  0  0  0
M  CHG  1   2   1
M  END
> <s_m_source_file>
AV-unprocessed.smi

> <i_m_source_file_index>
1943

> <i_lp_mmshare_version>
43012

> <i_f3d_flags>
0

> <s_epik_input>
W0NIM11OKFtDSDNdKUMoW0NIM10pKFtDSDNdKVtDSDJdW05IXUMoPU8pYzFuYyhuW2NIXWMxQ2wpTjJbQ0gyXVtDSDJdT1tDSDJdW0NIMl0y

> <s_epik_cmdline>
J2VwaWtfcHl0aG9uJywgJy1waCcsICc3LjAnLCAnLXRuJywgJzgnLCAnLW1hJywgJzIwMCcsICctbWV0YWxfYmluZGluZycsICctaW1hZScsICc8aW5maWxlLm1hZT4nLCAnLW9tYWUnLCAnPG91dGZpbGUubWFlPic=

> <r_lp_tautomer_probability>
1

> <r_epik_Ionization_Penalty>
0.00747112

> <r_epik_Ionization_Penalty_Charging>
0.00734137

> <r_epik_Ionization_Penalty_Neutral>
0.000129757

> <r_epik_State_Penalty>
0.00547931

> <r_epik_Charging_Adjusted_Penalty>
0.0128207

> <i_epik_Tot_Q>
1

> <i_epik_Tot_abs_Q>
1

> <r_epik_Metal_State_Penalty>
0.0979204

> <b_epik_Metal_Only>
0

> <s_lp_Force_Field>
OPLS_2005

> <r_lp_Energy>
30.7364

> <b_lp_Chiralities_Consistent>
1

> <s_lp_Variant>
AV-unprocessed.smi:1943-1

> <Gold.Version>
5.8.1

> <Gold.Id.Protein>
6NUR|6NUR_protein|mol2

> <Gold.PLP.Fitness>
44.2618

> <Gold.PLP.PLP>
-32.6839

> <Gold.PLP.part.hbond>
-2.9946

> <Gold.PLP.part.metal>
0.0000

> <Gold.PLP.part.buried>
-6.7155

> <Gold.PLP.part.nonpolar>
-25.0507

> <Gold.PLP.part.repulsive>
0.2307

> <Gold.PLP.ligand.clash>
0.0000

> <Gold.PLP.ligand.torsion>
0.3483

> <Gold.PLP.Chemscore.Hbond>
3.9825

> <Gold.PLP.Chemscore.CHOScore>
0.0000

> <Gold.PLP.Chemscore.Metal>
0.0000

> <Gold.Chemscore.Hbonds>
donor molecule, donor type, donor heavy atom, donor atom, acceptor molecule, acceptor atom, score
      L1  H     2    48       P1 10957  1.89
      P1  H  7989  7998       L1    17  1.00
      P1  H 10752 10763       L1    20  1.00

> <Gold.PLP.Chemscore.Internal.Correction>
0.3270

> <Gold.Rescore>
     Score         DG    S(hbond)    S(metal)    S(lipo)     H(rot)  DE(clash)    DE(int)     intcor
     15.90     -18.03       2.33        0.00      71.92       1.43       0.39       1.73       ----

> <Gold.Chemscore.Fitness>
15.9036

> <Gold.Chemscore.DG>
-18.0267

> <Gold.Chemscore.ZeroCoef>
-5.4800

> <Gold.Chemscore.Hbond>
2.3332

> <Gold.Chemscore.Metal>
0.0000

> <Gold.Chemscore.Lipo>
71.9165

> <Gold.Chemscore.Internal_Hbond>
0.0000

> <Gold.Chemscore.DEClash>
0.3919

> <Gold.Chemscore.DEInternal>
1.7313

> <Gold.Chemscore.Rot>
1.4298

> <Gold.Chemscore.Internal.Correction>
   9.000000E+99

> <Gold.Chemscore.Hbonds>
donor molecule, donor type, donor heavy atom, donor atom, acceptor molecule, acceptor atom, score
      L1  H     2    48       P1 10957  0.77
      P1  H  7989  7998       L1    17  0.34
      P1  H 10752 10763       L1    20  0.37

> <Gold.Chemscore.Hbond.Weighted>
-7.7929

> <Gold.Chemscore.Metal.Weighted>
-0.0000

> <Gold.Chemscore.Lipo.Weighted>
-8.4142

> <Gold.Chemscore.Internal_Hbond.Weighted>
0.0000

> <Gold.Chemscore.DEClash.Weighted>
0.3919

> <Gold.Chemscore.DEInternal.Weighted>
1.7313

> <Gold.Chemscore.Rot.Weighted>
3.6604

> <Gold.Chemscore.Internal.Correction.Weighted>
   9.000000E+99

> <Gold.Protein.RotatedTorsions>
[ 6907 6896 6895 6894 ] final   81.72 input  -60.11 | X-H torsion
[ 7974 7965 7964 7962 ] final   95.97 input  175.53 | X-H torsion
[ 8008 7997 7996 7995 ] final  178.14 input   59.86 | X-H torsion
[ 10167 10162 10161 10158 ] final  130.36 input  -65.29 | X-H torsion
[ 10718 10713 10712 10709 ] final  -33.41 input   66.30 | X-H torsion
[ 10763 10752 10751 10750 ] final   80.26 input  -60.55 | X-H torsion
[ 11005 11000 10999 10996 ] final   87.60 input  -57.11 | X-H torsion

> <Gold.Protein.ActiveResidues>
 VAL166  LYS551  ARG553  GLY616  TRP617  ASP618  TYR619  PRO620  LYS621  CYS622 
 ASP623  PHE694  ASN695  SER759  ASP760  ASP761  ALA762  ILE779  LEU786  VAL792 
 PHE793  MET794  SER795  GLU796  ALA797  LYS798  CYS799  TRP800  GLU811  SER814 

> <Gold.Protein.RotatedAtoms>
  152.5277  134.3160  159.9130 H   0  0  0  0  0  0  0  0  0  0  0  0  # atno 6907 bound_to 6896
  151.3110  133.4074  159.2654 H   0  0  0  0  0  0  0  0  0  0  0  0  # atno 6908 bound_to 6896
  151.0039  134.9360  159.8026 H   0  0  0  0  0  0  0  0  0  0  0  0  # atno 6909 bound_to 6896
  145.4451  139.2298  143.3070 H   0  0  0  0  0  0  0  0  0  0  0  0  # atno 7974 bound_to 7965
  156.0579  140.1341  156.9975 H   0  0  0  0  0  0  0  0  0  0  0  0  # atno 8008 bound_to 7997
  154.4467  140.0997  156.6544 H   0  0  0  0  0  0  0  0  0  0  0  0  # atno 8009 bound_to 7997
  155.5423  140.3461  155.4452 H   0  0  0  0  0  0  0  0  0  0  0  0  # atno 8010 bound_to 7997
  139.5434  144.6751  151.4552 H   0  0  0  0  0  0  0  0  0  0  0  0  # atno 10167 bound_to 10162
  156.3630  130.4327  149.7608 H   0  0  0  0  0  0  0  0  0  0  0  0  # atno 10718 bound_to 10713
  153.1019  135.4809  154.8881 H   0  0  0  0  0  0  0  0  0  0  0  0  # atno 10763 bound_to 10752
  154.7387  135.3077  154.8768 H   0  0  0  0  0  0  0  0  0  0  0  0  # atno 10764 bound_to 10752
  153.9382  135.6837  153.4798 H   0  0  0  0  0  0  0  0  0  0  0  0  # atno 10765 bound_to 10752
  139.8916  134.8433  156.2882 H   0  0  0  0  0  0  0  0  0  0  0  0  # atno 11005 bound_to 11000
  146.2535  140.5204  142.8883 LP  0  0  0  0  0  0  0  0  0  0  0  0  # atno 17320 bound_to 7965
  144.8097  140.6363  143.6423 LP  0  0  0  0  0  0  0  0  0  0  0  0  # atno 17321 bound_to 7965
  140.6673  143.8371  150.6956 LP  0  0  0  0  0  0  0  0  0  0  0  0  # atno 17342 bound_to 10162
  140.1784  143.4135  152.1951 LP  0  0  0  0  0  0  0  0  0  0  0  0  # atno 17343 bound_to 10162
  156.4764  130.8021  151.3037 LP  0  0  0  0  0  0  0  0  0  0  0  0  # atno 17370 bound_to 10713
  157.7475  131.0019  150.2982 LP  0  0  0  0  0  0  0  0  0  0  0  0  # atno 17371 bound_to 10713
  140.9993  133.7161  156.0936 LP  0  0  0  0  0  0  0  0  0  0  0  0  # atno 17394 bound_to 11000
  140.7519  134.4035  157.5540 LP  0  0  0  0  0  0  0  0  0  0  0  0  # atno 17395 bound_to 11000

$$$$
