AV-unprocessed.smi:121|AV-procd|sdf|1139|dock2
  -GOLD-   2262018273D 1   1.00000     0.00000
 Structure written by MMmdl.
 37 39  0  0  0  0  0  0  0  0  1 V2000
  151.5428  145.8162  159.3086 N   0  0  0  0  0  0  0  0  0  0  0  0
  151.8405  144.7172  159.5142 C   0  0  0  0  0  0  0  0  0  0  0  0
  152.2149  143.3367  159.7718 C   0  0  0  0  0  0  0  0  0  0  0  0
  153.4254  143.0438  160.4314 C   0  0  0  0  0  0  0  0  0  0  0  0
  153.7870  141.7051  160.6735 C   0  0  0  0  0  0  0  0  0  0  0  0
  152.9401  140.6594  160.2589 C   0  0  0  0  0  0  0  0  0  0  0  0
  151.7231  140.9415  159.6040 C   0  0  0  0  0  0  0  0  0  0  0  0
  150.8372  139.7784  159.1658 C   0  0  0  0  0  0  0  0  0  0  0  0
  150.6782  139.5986  157.7307 N   0  0  0  0  0  0  0  0  0  0  0  0
  151.8191  139.1919  156.9972 C   0  0  0  0  0  0  0  0  0  0  0  0
  152.9118  139.0080  157.5364 O   0  0  0  0  0  0  0  0  0  0  0  0
  151.5849  139.0011  155.5703 C   0  0  0  0  0  0  0  0  0  0  0  0
  152.6035  138.6363  154.7735 F   0  0  0  0  0  0  0  0  0  0  0  0
  150.3589  139.1825  155.0332 C   0  0  0  0  0  0  0  0  0  0  0  0
  149.2528  139.5529  155.7816 N   0  0  0  0  0  0  0  0  0  0  0  0
  147.8826  139.7299  155.1608 C   0  0  2  0  0  0  0  0  0  0  0  0
  147.9369  139.4660  153.6431 C   0  0  0  0  0  0  0  0  0  0  0  0
  147.2930  140.7088  153.0614 C   0  0  0  0  0  0  0  0  0  0  0  0
  147.6279  141.7588  154.1099 C   0  0  0  0  0  0  0  0  0  0  0  0
  147.4500  141.0501  155.3293 O   0  0  0  0  0  0  0  0  0  0  0  0
  149.3928  139.7837  157.1677 C   0  0  0  0  0  0  0  0  0  0  0  0
  148.4204  140.1129  157.8513 O   0  0  0  0  0  0  0  0  0  0  0  0
  151.3673  142.2885  159.3594 C   0  0  0  0  0  0  0  0  0  0  0  0
  154.0812  143.8406  160.7521 H   0  0  0  0  0  0  0  0  0  0  0  0
  154.7153  141.4797  161.1774 H   0  0  0  0  0  0  0  0  0  0  0  0
  153.2273  139.6354  160.4482 H   0  0  0  0  0  0  0  0  0  0  0  0
  151.2125  138.8471  159.5907 H   0  0  0  0  0  0  0  0  0  0  0  0
  149.8343  139.8818  159.5846 H   0  0  0  0  0  0  0  0  0  0  0  0
  150.2594  139.0252  153.9705 H   0  0  0  0  0  0  0  0  0  0  0  0
  147.2217  139.0563  155.7097 H   0  0  0  0  0  0  0  0  0  0  0  0
  148.9726  139.3829  153.3092 H   0  0  0  0  0  0  0  0  0  0  0  0
  147.4074  138.5481  153.3862 H   0  0  0  0  0  0  0  0  0  0  0  0
  147.6687  140.9608  152.0693 H   0  0  0  0  0  0  0  0  0  0  0  0
  146.2123  140.5766  152.9968 H   0  0  0  0  0  0  0  0  0  0  0  0
  148.6632  142.0887  154.0115 H   0  0  0  0  0  0  0  0  0  0  0  0
  146.9801  142.6338  154.0550 H   0  0  0  0  0  0  0  0  0  0  0  0
  150.4442  142.5279  158.8524 H   0  0  0  0  0  0  0  0  0  0  0  0
  1  2  3  0  0  0  0
  2  3  1  0  0  0  0
  3 23  1  0  0  0  0
  3  4  2  0  0  0  0
  4  5  1  0  0  0  0
  4 24  1  0  0  0  0
  5  6  2  0  0  0  0
  5 25  1  0  0  0  0
  6  7  1  0  0  0  0
  6 26  1  0  0  0  0
  7  8  1  0  0  0  0
  7 23  2  0  0  0  0
  8  9  1  0  0  0  0
  8 27  1  0  0  0  0
  8 28  1  0  0  0  0
  9 21  1  0  0  0  0
  9 10  1  0  0  0  0
 10 11  2  0  0  0  0
 10 12  1  0  0  0  0
 12 13  1  0  0  0  0
 12 14  2  0  0  0  0
 14 15  1  0  0  0  0
 14 29  1  0  0  0  0
 15 16  1  0  0  0  0
 15 21  1  0  0  0  0
 16 20  1  0  0  0  0
 16 17  1  0  0  0  0
 16 30  1  0  0  0  0
 17 18  1  0  0  0  0
 17 31  1  0  0  0  0
 17 32  1  0  0  0  0
 18 19  1  0  0  0  0
 18 33  1  0  0  0  0
 18 34  1  0  0  0  0
 19 20  1  0  0  0  0
 19 35  1  0  0  0  0
 19 36  1  0  0  0  0
 21 22  2  0  0  0  0
 23 37  1  0  0  0  0
M  END
> <s_m_source_file>
AV-unprocessed.smi

> <i_m_source_file_index>
121

> <i_lp_mmshare_version>
43012

> <i_f3d_flags>
0

> <s_epik_input>
TiNDYzFbY0hdW2NIXVtjSF1jKFtjSF0xKVtDSDJdbjJjKD1PKWMoRilbY0hdbihjMj1PKVtDQEBIXTNbQ0gyXVtDSDJdW0NIMl1PMw==

> <s_epik_cmdline>
J2VwaWtfcHl0aG9uJywgJy1waCcsICc3LjAnLCAnLXRuJywgJzgnLCAnLW1hJywgJzIwMCcsICctbWV0YWxfYmluZGluZycsICctaW1hZScsICc8aW5maWxlLm1hZT4nLCAnLW9tYWUnLCAnPG91dGZpbGUubWFlPic=

> <r_lp_tautomer_probability>
1

> <r_epik_Ionization_Penalty>
1.69864e-08

> <r_epik_Ionization_Penalty_Charging>
1.69802e-08

> <r_epik_Ionization_Penalty_Neutral>
6.20402e-12

> <r_epik_State_Penalty>
-0

> <r_epik_Charging_Adjusted_Penalty>
1.69802e-08

> <i_epik_Tot_Q>
0

> <i_epik_Tot_abs_Q>
0

> <r_epik_Metal_State_Penalty>
-0

> <b_epik_Metal_Only>
0

> <s_epik_Chemistry_Notes>
This compound contains an acetal/aminal-like group ( X-CH(R)-Y where X, Y are N, S, or O) that may be acid/base labile, releasing an aldehyde.

> <s_lp_Force_Field>
OPLS_2005

> <r_lp_Energy>
32.9852

> <b_lp_Chiralities_Consistent>
1

> <s_lp_Variant>
AV-unprocessed.smi:121-1

> <Gold.Version>
5.8.1

> <Gold.Id.Protein>
6NUR|6NUR_protein|mol2

> <Gold.PLP.Fitness>
47.1848

> <Gold.PLP.PLP>
-42.7251

> <Gold.PLP.part.hbond>
-2.0000

> <Gold.PLP.part.metal>
0.0000

> <Gold.PLP.part.buried>
-5.0509

> <Gold.PLP.part.nonpolar>
-34.7675

> <Gold.PLP.part.repulsive>
0.2054

> <Gold.PLP.ligand.clash>
0.0000

> <Gold.PLP.ligand.torsion>
0.0820

> <Gold.PLP.Chemscore.Hbond>
1.0000

> <Gold.PLP.Chemscore.CHOScore>
0.5379

> <Gold.PLP.Chemscore.Metal>
0.0000

> <Gold.Chemscore.Hbonds>
donor molecule, donor type, donor heavy atom, donor atom, acceptor molecule, acceptor atom, score
      P1  H  7997  8009       L1    11  1.00

> <Gold.PLP.Chemscore.Internal.Correction>
0.0099

> <Gold.Rescore>
     Score         DG    S(hbond)    S(metal)    S(lipo)     H(rot)  DE(clash)    DE(int)     intcor
     14.07     -15.79       1.00        0.00      94.38       1.59       0.33       1.39       ----

> <Gold.Chemscore.Fitness>
14.0721

> <Gold.Chemscore.DG>
-15.7869

> <Gold.Chemscore.ZeroCoef>
-5.4800

> <Gold.Chemscore.Hbond>
0.9969

> <Gold.Chemscore.Metal>
0.0000

> <Gold.Chemscore.Lipo>
94.3848

> <Gold.Chemscore.Internal_Hbond>
0.0000

> <Gold.Chemscore.DEClash>
0.3258

> <Gold.Chemscore.DEInternal>
1.3890

> <Gold.Chemscore.Rot>
1.5882

> <Gold.Chemscore.Internal.Correction>
   9.000000E+99

> <Gold.Chemscore.Hbonds>
donor molecule, donor type, donor heavy atom, donor atom, acceptor molecule, acceptor atom, score
      P1  H  7997  8009       L1    11  0.90

> <Gold.Chemscore.Hbond.Weighted>
-3.3297

> <Gold.Chemscore.Metal.Weighted>
-0.0000

> <Gold.Chemscore.Lipo.Weighted>
-11.0430

> <Gold.Chemscore.Internal_Hbond.Weighted>
0.0000

> <Gold.Chemscore.DEClash.Weighted>
0.3258

> <Gold.Chemscore.DEInternal.Weighted>
1.3890

> <Gold.Chemscore.Rot.Weighted>
4.0657

> <Gold.Chemscore.Internal.Correction.Weighted>
   9.000000E+99

> <Gold.Protein.RotatedTorsions>
[ 6907 6896 6895 6894 ] final -104.62 input  -60.11 | X-H torsion
[ 7974 7965 7964 7962 ] final  -24.72 input  175.53 | X-H torsion
[ 8008 7997 7996 7995 ] final  170.42 input   59.86 | X-H torsion
[ 10167 10162 10161 10158 ] final   -5.95 input  -65.29 | X-H torsion
[ 10718 10713 10712 10709 ] final  135.87 input   66.30 | X-H torsion
[ 10763 10752 10751 10750 ] final   55.58 input  -60.55 | X-H torsion
[ 11005 11000 10999 10996 ] final   91.21 input  -57.11 | X-H torsion

> <Gold.Protein.ActiveResidues>
 VAL166  LYS551  ARG553  GLY616  TRP617  ASP618  TYR619  PRO620  LYS621  CYS622 
 ASP623  PHE694  ASN695  SER759  ASP760  ASP761  ALA762  ILE779  LEU786  VAL792 
 PHE793  MET794  SER795  GLU796  ALA797  LYS798  CYS799  TRP800  GLU811  SER814 

> <Gold.Protein.RotatedAtoms>
  150.7296  134.0250  159.3713 H   0  0  0  0  0  0  0  0  0  0  0  0  # atno 6907 bound_to 6896
  151.8217  135.0647  160.0435 H   0  0  0  0  0  0  0  0  0  0  0  0  # atno 6908 bound_to 6896
  152.2999  133.5609  159.5648 H   0  0  0  0  0  0  0  0  0  0  0  0  # atno 6909 bound_to 6896
  146.1537  140.4789  142.8600 H   0  0  0  0  0  0  0  0  0  0  0  0  # atno 7974 bound_to 7965
  156.1367  140.1538  156.8983 H   0  0  0  0  0  0  0  0  0  0  0  0  # atno 8008 bound_to 7997
  154.4953  140.0840  156.7722 H   0  0  0  0  0  0  0  0  0  0  0  0  # atno 8009 bound_to 7997
  155.4155  140.3421  155.4269 H   0  0  0  0  0  0  0  0  0  0  0  0  # atno 8010 bound_to 7997
  140.6981  143.6249  150.8577 H   0  0  0  0  0  0  0  0  0  0  0  0  # atno 10167 bound_to 10162
  157.4526  131.1067  151.0015 H   0  0  0  0  0  0  0  0  0  0  0  0  # atno 10718 bound_to 10713
  152.9819  135.5706  154.5090 H   0  0  0  0  0  0  0  0  0  0  0  0  # atno 10763 bound_to 10752
  154.4597  135.2781  155.1724 H   0  0  0  0  0  0  0  0  0  0  0  0  # atno 10764 bound_to 10752
  154.3317  135.6248  153.5608 H   0  0  0  0  0  0  0  0  0  0  0  0  # atno 10765 bound_to 10752
  139.8842  134.8661  156.3396 H   0  0  0  0  0  0  0  0  0  0  0  0  # atno 11005 bound_to 11000
  144.7936  140.6079  143.6525 LP  0  0  0  0  0  0  0  0  0  0  0  0  # atno 17320 bound_to 7965
  145.4761  139.1499  143.3787 LP  0  0  0  0  0  0  0  0  0  0  0  0  # atno 17321 bound_to 7965
  139.9969  143.5786  152.2890 LP  0  0  0  0  0  0  0  0  0  0  0  0  # atno 17342 bound_to 10162
  139.6462  144.7658  151.2240 LP  0  0  0  0  0  0  0  0  0  0  0  0  # atno 17343 bound_to 10162
  157.0840  130.5915  149.5426 LP  0  0  0  0  0  0  0  0  0  0  0  0  # atno 17370 bound_to 10713
  155.9993  130.5069  150.7604 LP  0  0  0  0  0  0  0  0  0  0  0  0  # atno 17371 bound_to 10713
  140.9668  133.7353  156.0477 LP  0  0  0  0  0  0  0  0  0  0  0  0  # atno 17394 bound_to 11000
  140.7921  134.3605  157.5462 LP  0  0  0  0  0  0  0  0  0  0  0  0  # atno 17395 bound_to 11000

$$$$
