AV-unprocessed.smi:3051|AV-procd|sdf|11633|dock7
  -GOLD-   2272017 23D 1   1.00000     0.00000
 Structure written by MMmdl.
 37 37  0  0  0  0  0  0  0  0  1 V2000
  146.4066  138.9348  153.0584 C   0  0  0  0  0  0  0  0  0  0  0  0
  147.1586  140.2662  152.9339 C   0  0  0  0  0  0  0  0  0  0  0  0
  148.5487  140.1367  153.3536 N   0  0  0  0  0  0  0  0  0  0  0  0
  148.9552  139.7922  154.5857 C   0  0  0  0  0  0  0  0  0  0  0  0
  148.1823  139.5422  155.5107 O   0  0  0  0  0  0  0  0  0  0  0  0
  150.4663  139.7074  154.8088 C   0  0  0  0  0  0  0  0  0  0  0  0
  150.8740  140.4751  155.9722 N   0  0  0  0  0  0  0  0  0  0  0  0
  150.6263  141.8050  156.2522 C   0  0  0  0  0  0  0  0  0  0  0  0
  151.2056  142.0859  157.4571 C   0  0  0  0  0  0  0  0  0  0  0  0
  151.7866  140.8452  157.8361 C   0  0  0  0  0  0  0  0  0  0  0  0
  152.4904  140.6927  159.0366 N   0  0  0  0  0  0  0  0  0  0  0  0
  152.6560  141.8140  159.9544 C   0  0  2  0  0  0  0  0  0  0  0  0
  153.5309  142.9113  159.3249 C   0  0  0  0  0  0  0  0  0  0  0  0
  153.2581  141.3273  161.2815 C   0  0  0  0  0  0  0  0  0  0  0  0
  153.5247  142.4454  162.1126 O   0  0  0  0  0  0  0  0  0  0  0  0
  152.3995  143.2936  162.2599 C   0  0  0  0  0  0  0  0  0  0  0  0
  151.5924  139.8803  156.9500 N   0  0  0  0  0  0  0  0  0  0  0  0
  145.3791  139.0370  152.7091 H   0  0  0  0  0  0  0  0  0  0  0  0
  146.3713  138.5932  154.0934 H   0  0  0  0  0  0  0  0  0  0  0  0
  146.8841  138.1556  152.4632 H   0  0  0  0  0  0  0  0  0  0  0  0
  147.1465  140.5989  151.8957 H   0  0  0  0  0  0  0  0  0  0  0  0
  146.6571  141.0422  153.5143 H   0  0  0  0  0  0  0  0  0  0  0  0
  149.2559  140.3282  152.6584 H   0  0  0  0  0  0  0  0  0  0  0  0
  150.7654  138.6687  154.9552 H   0  0  0  0  0  0  0  0  0  0  0  0
  150.9924  140.0712  153.9245 H   0  0  0  0  0  0  0  0  0  0  0  0
  150.0657  142.4333  155.5760 H   0  0  0  0  0  0  0  0  0  0  0  0
  151.2109  143.0294  157.9826 H   0  0  0  0  0  0  0  0  0  0  0  0
  152.8602  139.7893  159.2952 H   0  0  0  0  0  0  0  0  0  0  0  0
  151.6749  142.2398  160.1693 H   0  0  0  0  0  0  0  0  0  0  0  0
  153.6462  143.7572  160.0031 H   0  0  0  0  0  0  0  0  0  0  0  0
  153.0932  143.2942  158.4028 H   0  0  0  0  0  0  0  0  0  0  0  0
  154.5276  142.5371  159.0888 H   0  0  0  0  0  0  0  0  0  0  0  0
  152.5829  140.6275  161.7776 H   0  0  0  0  0  0  0  0  0  0  0  0
  154.1933  140.7976  161.0920 H   0  0  0  0  0  0  0  0  0  0  0  0
  152.6555  144.1325  162.9067 H   0  0  0  0  0  0  0  0  0  0  0  0
  151.5615  142.7628  162.7135 H   0  0  0  0  0  0  0  0  0  0  0  0
  152.0807  143.6955  161.2974 H   0  0  0  0  0  0  0  0  0  0  0  0
  1  2  1  0  0  0  0
  1 18  1  0  0  0  0
  1 19  1  0  0  0  0
  1 20  1  0  0  0  0
  2  3  1  0  0  0  0
  2 21  1  0  0  0  0
  2 22  1  0  0  0  0
  3  4  1  0  0  0  0
  3 23  1  0  0  0  0
  4  5  2  0  0  0  0
  4  6  1  0  0  0  0
  6  7  1  0  0  0  0
  6 24  1  0  0  0  0
  6 25  1  0  0  0  0
  7 17  1  0  0  0  0
  7  8  1  0  0  0  0
  8  9  2  0  0  0  0
  8 26  1  0  0  0  0
  9 10  1  0  0  0  0
  9 27  1  0  0  0  0
 10 11  1  0  0  0  0
 10 17  2  0  0  0  0
 11 12  1  0  0  0  0
 11 28  1  0  0  0  0
 12 13  1  0  0  0  0
 12 14  1  0  0  0  0
 12 29  1  0  0  0  0
 13 30  1  0  0  0  0
 13 31  1  0  0  0  0
 13 32  1  0  0  0  0
 14 15  1  0  0  0  0
 14 33  1  0  0  0  0
 14 34  1  0  0  0  0
 15 16  1  0  0  0  0
 16 35  1  0  0  0  0
 16 36  1  0  0  0  0
 16 37  1  0  0  0  0
M  END
> <s_m_source_file>
AV-unprocessed.smi

> <i_m_source_file_index>
3051

> <i_lp_mmshare_version>
43012

> <i_f3d_flags>
0

> <s_epik_input>
W0NIM11bQ0gyXVtOSF1DKD1PKVtDSDJdbjFbY0hdW2NIXWMobjEpW05IXVtDQEhdKFtDSDNdKVtDSDJdT1tDSDNd

> <s_epik_cmdline>
J2VwaWtfcHl0aG9uJywgJy1waCcsICc3LjAnLCAnLXRuJywgJzgnLCAnLW1hJywgJzIwMCcsICctbWV0YWxfYmluZGluZycsICctaW1hZScsICc8aW5maWxlLm1hZT4nLCAnLW9tYWUnLCAnPG91dGZpbGUubWFlPic=

> <r_lp_tautomer_probability>
1

> <r_epik_Ionization_Penalty>
0.00023157

> <r_epik_Ionization_Penalty_Charging>
0

> <r_epik_Ionization_Penalty_Neutral>
0.00023157

> <r_epik_State_Penalty>
-0

> <r_epik_Charging_Adjusted_Penalty>
0

> <i_epik_Tot_Q>
0

> <i_epik_Tot_abs_Q>
0

> <r_epik_Metal_State_Penalty>
-0

> <b_epik_Metal_Only>
0

> <s_lp_Force_Field>
OPLS_2005

> <r_lp_Energy>
4.00538

> <b_lp_Chiralities_Consistent>
1

> <s_lp_Variant>
AV-unprocessed.smi:3051-1

> <Gold.Version>
5.8.1

> <Gold.Id.Protein>
6NUR|6NUR_protein|mol2

> <Gold.PLP.Fitness>
38.7996

> <Gold.PLP.PLP>
-33.5704

> <Gold.PLP.part.hbond>
-0.9779

> <Gold.PLP.part.metal>
0.0000

> <Gold.PLP.part.buried>
0.2570

> <Gold.PLP.part.nonpolar>
-33.0543

> <Gold.PLP.part.repulsive>
0.3006

> <Gold.PLP.ligand.clash>
0.0000

> <Gold.PLP.ligand.torsion>
0.2088

> <Gold.PLP.Chemscore.Hbond>
0.8800

> <Gold.PLP.Chemscore.CHOScore>
0.9939

> <Gold.PLP.Chemscore.Metal>
0.0000

> <Gold.Chemscore.Hbonds>
donor molecule, donor type, donor heavy atom, donor atom, acceptor molecule, acceptor atom, score
      L1  H     3    23       P1  7957  0.83
      L1  C     8    26       P1  8028  0.90

> <Gold.PLP.Chemscore.Internal.Correction>
0.0250

> <Gold.Rescore>
     Score         DG    S(hbond)    S(metal)    S(lipo)     H(rot)  DE(clash)    DE(int)     intcor
     12.22     -12.47       0.96        0.00      80.23       2.19       0.06       0.18       ----

> <Gold.Chemscore.Fitness>
12.2242

> <Gold.Chemscore.DG>
-12.4722

> <Gold.Chemscore.ZeroCoef>
-5.4800

> <Gold.Chemscore.Hbond>
0.9609

> <Gold.Chemscore.Metal>
0.0000

> <Gold.Chemscore.Lipo>
80.2271

> <Gold.Chemscore.Internal_Hbond>
0.0000

> <Gold.Chemscore.DEClash>
0.0643

> <Gold.Chemscore.DEInternal>
0.1837

> <Gold.Chemscore.Rot>
2.1890

> <Gold.Chemscore.Internal.Correction>
   9.000000E+99

> <Gold.Chemscore.Hbonds>
donor molecule, donor type, donor heavy atom, donor atom, acceptor molecule, acceptor atom, score
      L1  H     3    23       P1  7957  0.80

> <Gold.Chemscore.Hbond.Weighted>
-3.2095

> <Gold.Chemscore.Metal.Weighted>
-0.0000

> <Gold.Chemscore.Lipo.Weighted>
-9.3866

> <Gold.Chemscore.Internal_Hbond.Weighted>
0.0000

> <Gold.Chemscore.DEClash.Weighted>
0.0643

> <Gold.Chemscore.DEInternal.Weighted>
0.1837

> <Gold.Chemscore.Rot.Weighted>
5.6039

> <Gold.Chemscore.Internal.Correction.Weighted>
   9.000000E+99

> <Gold.Protein.RotatedTorsions>
[ 6907 6896 6895 6894 ] final  154.43 input  -60.11 | X-H torsion
[ 7974 7965 7964 7962 ] final -142.76 input  175.53 | X-H torsion
[ 8008 7997 7996 7995 ] final   12.13 input   59.86 | X-H torsion
[ 10167 10162 10161 10158 ] final  113.64 input  -65.29 | X-H torsion
[ 10718 10713 10712 10709 ] final   98.74 input   66.30 | X-H torsion
[ 10763 10752 10751 10750 ] final  140.75 input  -60.55 | X-H torsion
[ 11005 11000 10999 10996 ] final    7.08 input  -57.11 | X-H torsion

> <Gold.Protein.ActiveResidues>
 VAL166  LYS551  ARG553  GLY616  TRP617  ASP618  TYR619  PRO620  LYS621  CYS622 
 ASP623  PHE694  ASN695  SER759  ASP760  ASP761  ALA762  ILE779  LEU786  VAL792 
 PHE793  MET794  SER795  GLU796  ALA797  LYS798  CYS799  TRP800  GLU811  SER814 

> <Gold.Protein.RotatedAtoms>
  152.0586  133.4052  159.4407 H   0  0  0  0  0  0  0  0  0  0  0  0  # atno 6907 bound_to 6896
  150.6867  134.3226  159.4802 H   0  0  0  0  0  0  0  0  0  0  0  0  # atno 6908 bound_to 6896
  152.1044  134.9318  160.0619 H   0  0  0  0  0  0  0  0  0  0  0  0  # atno 6909 bound_to 6896
  144.8419  140.5918  143.5447 H   0  0  0  0  0  0  0  0  0  0  0  0  # atno 7974 bound_to 7965
  154.8163  140.2876  155.5817 H   0  0  0  0  0  0  0  0  0  0  0  0  # atno 8008 bound_to 7997
  156.2993  140.2558  156.2992 H   0  0  0  0  0  0  0  0  0  0  0  0  # atno 8009 bound_to 7997
  154.9389  140.0382  157.2076 H   0  0  0  0  0  0  0  0  0  0  0  0  # atno 8010 bound_to 7997
  139.6447  144.7126  151.2167 H   0  0  0  0  0  0  0  0  0  0  0  0  # atno 10167 bound_to 10162
  157.6890  131.0649  150.4841 H   0  0  0  0  0  0  0  0  0  0  0  0  # atno 10718 bound_to 10713
  153.9278  135.2993  155.3446 H   0  0  0  0  0  0  0  0  0  0  0  0  # atno 10763 bound_to 10752
  154.7542  135.4965  153.9348 H   0  0  0  0  0  0  0  0  0  0  0  0  # atno 10764 bound_to 10752
  153.1107  135.6758  153.9609 H   0  0  0  0  0  0  0  0  0  0  0  0  # atno 10765 bound_to 10752
  140.5523  134.0271  155.7941 H   0  0  0  0  0  0  0  0  0  0  0  0  # atno 11005 bound_to 11000
  145.4676  139.1506  143.3832 LP  0  0  0  0  0  0  0  0  0  0  0  0  # atno 17320 bound_to 7965
  146.2710  140.4808  142.8814 LP  0  0  0  0  0  0  0  0  0  0  0  0  # atno 17321 bound_to 7965
  140.7508  143.6252  150.8475 LP  0  0  0  0  0  0  0  0  0  0  0  0  # atno 17342 bound_to 10162
  139.9893  143.5864  152.2916 LP  0  0  0  0  0  0  0  0  0  0  0  0  # atno 17343 bound_to 10162
  156.5172  130.4153  149.6270 LP  0  0  0  0  0  0  0  0  0  0  0  0  # atno 17370 bound_to 10713
  156.3187  130.7269  151.2176 LP  0  0  0  0  0  0  0  0  0  0  0  0  # atno 17371 bound_to 10713
  141.1164  133.9533  157.2814 LP  0  0  0  0  0  0  0  0  0  0  0  0  # atno 17394 bound_to 11000
  139.9449  135.0185  156.8821 LP  0  0  0  0  0  0  0  0  0  0  0  0  # atno 17395 bound_to 11000

$$$$
