AV-unprocessed.smi:775|AV-procd|sdf|3695|dock7
  -GOLD-   22720 1113D 1   1.00000     0.00000
 Structure written by MMmdl.
 39 40  0  0  0  0  0  0  0  0  2 V2000
  149.5339  142.5003  158.4477 C   0  0  0  0  0  0  0  0  0  0  0  0
  150.8454  142.2663  157.6814 C   0  0  2  0  0  0  0  0  0  0  0  0
  151.9510  143.2802  158.0652 C   0  0  0  0  0  0  0  0  0  0  0  0
  152.4081  143.1547  159.4399 N   0  0  0  0  0  0  0  0  0  0  0  0
  152.2280  144.0353  160.4870 C   0  0  0  0  0  0  0  0  0  0  0  0
  152.8347  143.4934  161.5834 C   0  0  0  0  0  0  0  0  0  0  0  0
  153.3725  142.2677  161.1011 C   0  0  0  0  0  0  0  0  0  0  0  0
  153.1170  142.0693  159.8180 N   0  0  0  0  0  0  0  0  0  0  0  0
  150.5699  142.2614  156.2264 N   0  3  0  0  0  0  0  0  0  0  0  0
  149.7719  141.1187  155.7283 C   0  0  0  0  0  0  0  0  0  0  0  0
  150.6530  139.9533  155.2519 C   0  0  0  0  0  0  0  0  0  0  0  0
  151.8692  140.1325  155.1654 O   0  0  0  0  0  0  0  0  0  0  0  0
  150.0702  138.7677  154.9435 N   0  0  0  0  0  0  0  0  0  0  0  0
  148.6354  138.4882  155.0629 C   0  0  0  0  0  0  0  0  0  0  0  0
  148.4317  137.4940  156.2194 C   0  0  0  0  0  0  0  0  0  0  0  0
  149.3732  136.3744  156.1567 N   0  0  0  0  0  0  0  0  0  0  0  0
  150.5011  136.3475  155.4224 C   0  0  0  0  0  0  0  0  0  0  0  0
  151.2419  135.3676  155.4135 O   0  0  0  0  0  0  0  0  0  0  0  0
  150.8636  137.5834  154.5759 C   0  0  0  0  0  0  0  0  0  0  0  0
  149.7056  142.5173  159.5243 H   0  0  0  0  0  0  0  0  0  0  0  0
  148.8151  141.7057  158.2437 H   0  0  0  0  0  0  0  0  0  0  0  0
  149.0645  143.4445  158.1702 H   0  0  0  0  0  0  0  0  0  0  0  0
  151.1974  141.2700  157.9522 H   0  0  0  0  0  0  0  0  0  0  0  0
  152.8097  143.1531  157.4041 H   0  0  0  0  0  0  0  0  0  0  0  0
  151.6135  144.3048  157.9090 H   0  0  0  0  0  0  0  0  0  0  0  0
  151.6886  144.9636  160.3680 H   0  0  0  0  0  0  0  0  0  0  0  0
  152.8901  143.9107  162.5781 H   0  0  0  0  0  0  0  0  0  0  0  0
  153.9378  141.5219  161.6407 H   0  0  0  0  0  0  0  0  0  0  0  0
  150.0557  143.1026  156.0061 H   0  0  0  0  0  0  0  0  0  0  0  0
  149.1195  140.7600  156.5239 H   0  0  0  0  0  0  0  0  0  0  0  0
  149.1470  141.4576  154.9011 H   0  0  0  0  0  0  0  0  0  0  0  0
  148.0073  139.3662  155.2039 H   0  0  0  0  0  0  0  0  0  0  0  0
  148.2964  138.0376  154.1286 H   0  0  0  0  0  0  0  0  0  0  0  0
  148.5711  138.0009  157.1750 H   0  0  0  0  0  0  0  0  0  0  0  0
  147.4123  137.1074  156.2115 H   0  0  0  0  0  0  0  0  0  0  0  0
  149.1489  135.5567  156.7055 H   0  0  0  0  0  0  0  0  0  0  0  0
  150.6748  137.3504  153.5275 H   0  0  0  0  0  0  0  0  0  0  0  0
  151.9391  137.7436  154.6639 H   0  0  0  0  0  0  0  0  0  0  0  0
  151.4483  142.2911  155.7280 H   0  0  0  0  0  0  0  0  0  0  0  0
  1  2  1  0  0  0  0
  1 20  1  0  0  0  0
  1 21  1  0  0  0  0
  1 22  1  0  0  0  0
  2  3  1  0  0  0  0
  2  9  1  0  0  0  0
  2 23  1  0  0  0  0
  3  4  1  0  0  0  0
  3 24  1  0  0  0  0
  3 25  1  0  0  0  0
  4  8  1  0  0  0  0
  4  5  1  0  0  0  0
  5  6  2  0  0  0  0
  5 26  1  0  0  0  0
  6  7  1  0  0  0  0
  6 27  1  0  0  0  0
  7  8  2  0  0  0  0
  7 28  1  0  0  0  0
  9 10  1  0  0  0  0
  9 29  1  0  0  0  0
  9 39  1  0  0  0  0
 10 11  1  0  0  0  0
 10 30  1  0  0  0  0
 10 31  1  0  0  0  0
 11 12  2  0  0  0  0
 11 13  1  0  0  0  0
 13 19  1  0  0  0  0
 13 14  1  0  0  0  0
 14 15  1  0  0  0  0
 14 32  1  0  0  0  0
 14 33  1  0  0  0  0
 15 16  1  0  0  0  0
 15 34  1  0  0  0  0
 15 35  1  0  0  0  0
 16 17  1  0  0  0  0
 16 36  1  0  0  0  0
 17 18  2  0  0  0  0
 17 19  1  0  0  0  0
 19 37  1  0  0  0  0
 19 38  1  0  0  0  0
M  CHG  1   9   1
M  END
> <s_m_source_file>
AV-unprocessed.smi

> <i_m_source_file_index>
775

> <i_lp_mmshare_version>
43012

> <i_f3d_flags>
0

> <s_epik_input>
bjFbY0hdW2NIXVtjSF1uMVtDSDJdW0NAQEhdKFtDSDNdKVtOSF1bQ0gyXUMoPU8pTjJbQ0gyXVtDSDJdW05IXUMoPU8pW0NIMl0y

> <s_epik_cmdline>
J2VwaWtfcHl0aG9uJywgJy1waCcsICc3LjAnLCAnLXRuJywgJzgnLCAnLW1hJywgJzIwMCcsICctbWV0YWxfYmluZGluZycsICctaW1hZScsICc8aW5maWxlLm1hZT4nLCAnLW9tYWUnLCAnPG91dGZpbGUubWFlPic=

> <r_lp_tautomer_probability>
1

> <r_epik_Ionization_Penalty>
0.165651

> <r_epik_Ionization_Penalty_Charging>
0.165647

> <r_epik_Ionization_Penalty_Neutral>
3.4358e-06

> <r_epik_State_Penalty>
0.15499

> <r_epik_Charging_Adjusted_Penalty>
0.320637

> <i_epik_Tot_Q>
1

> <i_epik_Tot_abs_Q>
1

> <r_epik_Metal_State_Penalty>
0.155003

> <b_epik_Metal_Only>
0

> <s_lp_Force_Field>
OPLS_2005

> <r_lp_Energy>
21.6432

> <b_lp_Chiralities_Consistent>
1

> <s_lp_Variant>
AV-unprocessed.smi:775-1

> <Gold.Version>
5.8.1

> <Gold.Id.Protein>
6NUR|6NUR_protein|mol2

> <Gold.PLP.Fitness>
47.5841

> <Gold.PLP.PLP>
-38.6245

> <Gold.PLP.part.hbond>
-3.0000

> <Gold.PLP.part.metal>
0.0000

> <Gold.PLP.part.buried>
-5.5094

> <Gold.PLP.part.nonpolar>
-30.5342

> <Gold.PLP.part.repulsive>
0.2048

> <Gold.PLP.ligand.clash>
0.0000

> <Gold.PLP.ligand.torsion>
0.4649

> <Gold.PLP.Chemscore.Hbond>
3.2800

> <Gold.PLP.Chemscore.CHOScore>
0.0000

> <Gold.PLP.Chemscore.Metal>
0.0000

> <Gold.Chemscore.Hbonds>
donor molecule, donor type, donor heavy atom, donor atom, acceptor molecule, acceptor atom, score
      L1  H     9    29       P1  8028  2.00
      P1  H  7989  7998       L1    12  0.48
      P1  H 10752 10764       L1    18  1.00

> <Gold.PLP.Chemscore.Internal.Correction>
0.0494

> <Gold.Rescore>
     Score         DG    S(hbond)    S(metal)    S(lipo)     H(rot)  DE(clash)    DE(int)     intcor
     17.01     -17.84       2.92        0.00      69.88       2.18       0.00       0.83       ----

> <Gold.Chemscore.Fitness>
17.0071

> <Gold.Chemscore.DG>
-17.8361

> <Gold.Chemscore.ZeroCoef>
-5.4800

> <Gold.Chemscore.Hbond>
2.9245

> <Gold.Chemscore.Metal>
0.0000

> <Gold.Chemscore.Lipo>
69.8842

> <Gold.Chemscore.Internal_Hbond>
0.0000

> <Gold.Chemscore.DEClash>
0.0038

> <Gold.Chemscore.DEInternal>
0.8252

> <Gold.Chemscore.Rot>
2.1828

> <Gold.Chemscore.Internal.Correction>
   9.000000E+99

> <Gold.Chemscore.Hbonds>
donor molecule, donor type, donor heavy atom, donor atom, acceptor molecule, acceptor atom, score
      L1  H     9    29       P1  8028  0.93
      P1  H  7989  7998       L1    12  0.03
      P1  H 10752 10764       L1    18  0.96

> <Gold.Chemscore.Hbond.Weighted>
-9.7677

> <Gold.Chemscore.Metal.Weighted>
-0.0000

> <Gold.Chemscore.Lipo.Weighted>
-8.1764

> <Gold.Chemscore.Internal_Hbond.Weighted>
0.0000

> <Gold.Chemscore.DEClash.Weighted>
0.0038

> <Gold.Chemscore.DEInternal.Weighted>
0.8252

> <Gold.Chemscore.Rot.Weighted>
5.5880

> <Gold.Chemscore.Internal.Correction.Weighted>
   9.000000E+99

> <Gold.Protein.RotatedTorsions>
[ 6907 6896 6895 6894 ] final -171.04 input  -60.11 | X-H torsion
[ 7974 7965 7964 7962 ] final -109.69 input  175.53 | X-H torsion
[ 8008 7997 7996 7995 ] final -112.39 input   59.86 | X-H torsion
[ 10167 10162 10161 10158 ] final  134.86 input  -65.29 | X-H torsion
[ 10718 10713 10712 10709 ] final  128.61 input   66.30 | X-H torsion
[ 10763 10752 10751 10750 ] final  -42.34 input  -60.55 | X-H torsion
[ 11005 11000 10999 10996 ] final   28.98 input  -57.11 | X-H torsion

> <Gold.Protein.ActiveResidues>
 VAL166  LYS551  ARG553  GLY616  TRP617  ASP618  TYR619  PRO620  LYS621  CYS622 
 ASP623  PHE694  ASN695  SER759  ASP760  ASP761  ALA762  ILE779  LEU786  VAL792 
 PHE793  MET794  SER795  GLU796  ALA797  LYS798  CYS799  TRP800  GLU811  SER814 

> <Gold.Protein.RotatedAtoms>
  151.5174  133.3473  159.2895 H   0  0  0  0  0  0  0  0  0  0  0  0  # atno 6907 bound_to 6896
  150.8674  134.8043  159.7140 H   0  0  0  0  0  0  0  0  0  0  0  0  # atno 6908 bound_to 6896
  152.4674  134.5052  159.9789 H   0  0  0  0  0  0  0  0  0  0  0  0  # atno 6909 bound_to 6896
  145.1775  140.8955  143.3499 H   0  0  0  0  0  0  0  0  0  0  0  0  # atno 7974 bound_to 7965
  155.0045  140.0394  157.2374 H   0  0  0  0  0  0  0  0  0  0  0  0  # atno 8008 bound_to 7997
  154.7515  140.2767  155.6266 H   0  0  0  0  0  0  0  0  0  0  0  0  # atno 8009 bound_to 7997
  156.2886  140.2646  156.2269 H   0  0  0  0  0  0  0  0  0  0  0  0  # atno 8010 bound_to 7997
  139.5239  144.6546  151.5201 H   0  0  0  0  0  0  0  0  0  0  0  0  # atno 10167 bound_to 10162
  157.5229  131.1098  150.9126 H   0  0  0  0  0  0  0  0  0  0  0  0  # atno 10718 bound_to 10713
  153.9774  135.6721  153.4749 H   0  0  0  0  0  0  0  0  0  0  0  0  # atno 10763 bound_to 10752
  153.0764  135.4946  154.8410 H   0  0  0  0  0  0  0  0  0  0  0  0  # atno 10764 bound_to 10752
  154.7184  135.3112  154.9048 H   0  0  0  0  0  0  0  0  0  0  0  0  # atno 10765 bound_to 10752
  140.3098  134.2662  155.7736 H   0  0  0  0  0  0  0  0  0  0  0  0  # atno 11005 bound_to 11000
  145.0170  139.3458  143.6091 LP  0  0  0  0  0  0  0  0  0  0  0  0  # atno 17320 bound_to 7965
  146.3459  139.9456  142.8735 LP  0  0  0  0  0  0  0  0  0  0  0  0  # atno 17321 bound_to 7965
  140.6366  143.8972  150.6653 LP  0  0  0  0  0  0  0  0  0  0  0  0  # atno 17342 bound_to 10162
  140.2293  143.3748  152.1578 LP  0  0  0  0  0  0  0  0  0  0  0  0  # atno 17343 bound_to 10162
  156.9731  130.5498  149.5291 LP  0  0  0  0  0  0  0  0  0  0  0  0  # atno 17370 bound_to 10713
  156.0366  130.5453  150.8669 LP  0  0  0  0  0  0  0  0  0  0  0  0  # atno 17371 bound_to 10713
  141.2110  133.7701  156.9891 LP  0  0  0  0  0  0  0  0  0  0  0  0  # atno 17394 bound_to 11000
  140.1035  134.9521  157.1958 LP  0  0  0  0  0  0  0  0  0  0  0  0  # atno 17395 bound_to 11000

$$$$
