AV-unprocessed.smi:786|AV-procd|sdf|3721|dock4
  -GOLD-   22720 1143D 1   1.00000     0.00000
 Structure written by MMmdl.
 39 40  0  0  0  0  0  0  0  0  1 V2000
  152.1289  137.7016  158.6261 O   0  0  0  0  0  0  0  0  0  0  0  0
  153.4166  138.0612  158.0142 S   0  0  0  0  0  0  0  0  0  0  0  0
  154.6283  137.2889  158.3276 O   0  0  0  0  0  0  0  0  0  0  0  0
  153.2298  138.1416  156.1743 C   0  0  0  0  0  0  0  0  0  0  0  0
  151.9788  138.9254  155.7254 C   0  0  0  0  0  0  0  0  0  0  0  0
  151.5950  138.6678  154.2556 C   0  0  0  0  0  0  0  0  0  0  0  0
  150.3906  139.5315  153.8464 C   0  0  0  0  0  0  0  0  0  0  0  0
  150.6836  140.9078  154.0606 O   0  0  0  0  0  0  0  0  0  0  0  0
  150.9347  141.2140  155.4276 C   0  0  0  0  0  0  0  0  0  0  0  0
  152.1666  140.4387  155.9229 C   0  0  0  0  0  0  0  0  0  0  0  0
  153.7293  139.7048  158.4391 N   0  0  0  0  0  0  0  0  0  0  0  0
  153.0492  140.3262  159.5755 C   0  0  0  0  0  0  0  0  0  0  0  0
  151.7509  141.0015  159.1141 C   0  0  0  0  0  0  0  0  0  0  0  0
  151.8708  142.5137  159.0819 C   0  0  0  0  0  0  0  0  0  0  0  0
  152.1652  143.2385  160.2566 C   0  0  0  0  0  0  0  0  0  0  0  0
  152.2726  144.6401  160.1712 C   0  0  0  0  0  0  0  0  0  0  0  0
  152.0830  145.2600  158.9213 C   0  0  0  0  0  0  0  0  0  0  0  0
  151.7943  144.4468  157.8070 C   0  0  0  0  0  0  0  0  0  0  0  0
  151.6902  143.1020  157.8776 N   0  0  0  0  0  0  0  0  0  0  0  0
  154.1404  138.5856  155.7737 H   0  0  0  0  0  0  0  0  0  0  0  0
  153.1926  137.1204  155.7948 H   0  0  0  0  0  0  0  0  0  0  0  0
  151.1439  138.6204  156.3581 H   0  0  0  0  0  0  0  0  0  0  0  0
  152.4398  138.9027  153.6069 H   0  0  0  0  0  0  0  0  0  0  0  0
  151.3599  137.6187  154.0860 H   0  0  0  0  0  0  0  0  0  0  0  0
  150.1644  139.3809  152.7908 H   0  0  0  0  0  0  0  0  0  0  0  0
  149.4986  139.2464  154.4060 H   0  0  0  0  0  0  0  0  0  0  0  0
  151.1045  142.2867  155.5215 H   0  0  0  0  0  0  0  0  0  0  0  0
  150.0571  140.9772  156.0311 H   0  0  0  0  0  0  0  0  0  0  0  0
  152.3432  140.6637  156.9754 H   0  0  0  0  0  0  0  0  0  0  0  0
  153.0499  140.7766  155.3790 H   0  0  0  0  0  0  0  0  0  0  0  0
  154.7011  139.9867  158.3118 H   0  0  0  0  0  0  0  0  0  0  0  0
  152.8277  139.5663  160.3256 H   0  0  0  0  0  0  0  0  0  0  0  0
  153.7158  141.0554  160.0363 H   0  0  0  0  0  0  0  0  0  0  0  0
  151.4774  140.6476  158.1189 H   0  0  0  0  0  0  0  0  0  0  0  0
  150.9301  140.7217  159.7756 H   0  0  0  0  0  0  0  0  0  0  0  0
  152.3072  142.7343  161.2013 H   0  0  0  0  0  0  0  0  0  0  0  0
  152.4964  145.2288  161.0488 H   0  0  0  0  0  0  0  0  0  0  0  0
  152.1575  146.3325  158.8182 H   0  0  0  0  0  0  0  0  0  0  0  0
  151.6433  144.8881  156.8331 H   0  0  0  0  0  0  0  0  0  0  0  0
  1  2  2  0  0  0  0
  2  3  2  0  0  0  0
  2  4  1  0  0  0  0
  2 11  1  0  0  0  0
  4  5  1  0  0  0  0
  4 20  1  0  0  0  0
  4 21  1  0  0  0  0
  5 10  1  0  0  0  0
  5  6  1  0  0  0  0
  5 22  1  0  0  0  0
  6  7  1  0  0  0  0
  6 23  1  0  0  0  0
  6 24  1  0  0  0  0
  7  8  1  0  0  0  0
  7 25  1  0  0  0  0
  7 26  1  0  0  0  0
  8  9  1  0  0  0  0
  9 10  1  0  0  0  0
  9 27  1  0  0  0  0
  9 28  1  0  0  0  0
 10 29  1  0  0  0  0
 10 30  1  0  0  0  0
 11 12  1  0  0  0  0
 11 31  1  0  0  0  0
 12 13  1  0  0  0  0
 12 32  1  0  0  0  0
 12 33  1  0  0  0  0
 13 14  1  0  0  0  0
 13 34  1  0  0  0  0
 13 35  1  0  0  0  0
 14 19  1  0  0  0  0
 14 15  2  0  0  0  0
 15 16  1  0  0  0  0
 15 36  1  0  0  0  0
 16 17  2  0  0  0  0
 16 37  1  0  0  0  0
 17 18  1  0  0  0  0
 17 38  1  0  0  0  0
 18 19  2  0  0  0  0
 18 39  1  0  0  0  0
M  END
> <s_m_source_file>
AV-unprocessed.smi

> <i_m_source_file_index>
786

> <i_lp_mmshare_version>
43012

> <i_f3d_flags>
0

> <s_epik_input>
W0NIMl0xW0NIMl1PW0NIMl1bQ0gyXVtDSF0xW0NIMl1TKD1PKSg9TylbTkhdW0NIMl1bQ0gyXWMyW2NIXVtjSF1bY0hdW2NIXW4y

> <s_epik_cmdline>
J2VwaWtfcHl0aG9uJywgJy1waCcsICc3LjAnLCAnLXRuJywgJzgnLCAnLW1hJywgJzIwMCcsICctbWV0YWxfYmluZGluZycsICctaW1hZScsICc8aW5maWxlLm1hZT4nLCAnLW9tYWUnLCAnPG91dGZpbGUubWFlPic=

> <r_epik_Ionization_Penalty>
0.0207022

> <r_epik_Ionization_Penalty_Charging>
0

> <r_epik_Ionization_Penalty_Neutral>
0.0207022

> <r_epik_State_Penalty>
0.0165999

> <r_epik_Charging_Adjusted_Penalty>
0.0165999

> <i_epik_Tot_Q>
0

> <i_epik_Tot_abs_Q>
0

> <r_epik_Metal_State_Penalty>
0.0248737

> <b_epik_Metal_Only>
0

> <s_lp_Force_Field>
OPLS_2005

> <r_lp_Energy>
3.32782

> <b_lp_Chiralities_Consistent>
1

> <s_lp_Variant>
AV-unprocessed.smi:786-1

> <Gold.Version>
5.8.1

> <Gold.Id.Protein>
6NUR|6NUR_protein|mol2

> <Gold.PLP.Fitness>
43.7774

> <Gold.PLP.PLP>
-39.8755

> <Gold.PLP.part.hbond>
-2.0000

> <Gold.PLP.part.metal>
0.0000

> <Gold.PLP.part.buried>
-4.5972

> <Gold.PLP.part.nonpolar>
-34.2743

> <Gold.PLP.part.repulsive>
0.1926

> <Gold.PLP.ligand.clash>
0.0000

> <Gold.PLP.ligand.torsion>
1.0114

> <Gold.PLP.Chemscore.Hbond>
0.9120

> <Gold.PLP.Chemscore.CHOScore>
0.9928

> <Gold.PLP.Chemscore.Metal>
0.0000

> <Gold.PLP.Chemscore.Internal.Correction>
0.2102

> <Gold.Rescore>
     Score         DG    S(hbond)    S(metal)    S(lipo)     H(rot)  DE(clash)    DE(int)     intcor
     14.87     -15.96       0.45        0.00     116.51       1.81       0.01       1.09       ----

> <Gold.Chemscore.Fitness>
14.8652

> <Gold.Chemscore.DG>
-15.9591

> <Gold.Chemscore.ZeroCoef>
-5.4800

> <Gold.Chemscore.Hbond>
0.4462

> <Gold.Chemscore.Metal>
0.0000

> <Gold.Chemscore.Lipo>
116.5122

> <Gold.Chemscore.Internal_Hbond>
0.0000

> <Gold.Chemscore.DEClash>
0.0089

> <Gold.Chemscore.DEInternal>
1.0850

> <Gold.Chemscore.Rot>
1.8138

> <Gold.Chemscore.Internal.Correction>
   9.000000E+99

> <Gold.Chemscore.Hbonds>
donor molecule, donor type, donor heavy atom, donor atom, acceptor molecule, acceptor atom, score
      P1  H  8011  8017       L1     8  0.03

> <Gold.Chemscore.Hbond.Weighted>
-1.4904

> <Gold.Chemscore.Metal.Weighted>
-0.0000

> <Gold.Chemscore.Lipo.Weighted>
-13.6319

> <Gold.Chemscore.Internal_Hbond.Weighted>
0.0000

> <Gold.Chemscore.DEClash.Weighted>
0.0089

> <Gold.Chemscore.DEInternal.Weighted>
1.0850

> <Gold.Chemscore.Rot.Weighted>
4.6432

> <Gold.Chemscore.Internal.Correction.Weighted>
   9.000000E+99

> <Gold.Protein.RotatedTorsions>
[ 6907 6896 6895 6894 ] final   75.11 input  -60.11 | X-H torsion
[ 7974 7965 7964 7962 ] final -118.04 input  175.53 | X-H torsion
[ 8008 7997 7996 7995 ] final  135.08 input   59.86 | X-H torsion
[ 10167 10162 10161 10158 ] final  -45.45 input  -65.29 | X-H torsion
[ 10718 10713 10712 10709 ] final  109.02 input   66.30 | X-H torsion
[ 10763 10752 10751 10750 ] final -174.27 input  -60.55 | X-H torsion
[ 11005 11000 10999 10996 ] final  146.76 input  -57.11 | X-H torsion

> <Gold.Protein.ActiveResidues>
 VAL166  LYS551  ARG553  GLY616  TRP617  ASP618  TYR619  PRO620  LYS621  CYS622 
 ASP623  PHE694  ASN695  SER759  ASP760  ASP761  ALA762  ILE779  LEU786  VAL792 
 PHE793  MET794  SER795  GLU796  ALA797  LYS798  CYS799  TRP800  GLU811  SER814 

> <Gold.Protein.RotatedAtoms>
  152.5010  134.4170  159.9467 H   0  0  0  0  0  0  0  0  0  0  0  0  # atno 6907 bound_to 6896
  151.4141  133.3712  159.2755 H   0  0  0  0  0  0  0  0  0  0  0  0  # atno 6908 bound_to 6896
  150.9270  134.8709  159.7586 H   0  0  0  0  0  0  0  0  0  0  0  0  # atno 6909 bound_to 6896
  145.0784  140.8408  143.4054 H   0  0  0  0  0  0  0  0  0  0  0  0  # atno 7974 bound_to 7965
  156.3002  140.2480  156.3523 H   0  0  0  0  0  0  0  0  0  0  0  0  # atno 8008 bound_to 7997
  154.8954  140.0408  157.1882 H   0  0  0  0  0  0  0  0  0  0  0  0  # atno 8009 bound_to 7997
  154.8555  140.2912  155.5576 H   0  0  0  0  0  0  0  0  0  0  0  0  # atno 8010 bound_to 7997
  140.6857  143.2879  151.3641 H   0  0  0  0  0  0  0  0  0  0  0  0  # atno 10167 bound_to 10162
  157.6560  131.0905  150.6392 H   0  0  0  0  0  0  0  0  0  0  0  0  # atno 10718 bound_to 10713
  154.5981  135.2852  155.0564 H   0  0  0  0  0  0  0  0  0  0  0  0  # atno 10763 bound_to 10752
  154.1839  135.6452  153.5045 H   0  0  0  0  0  0  0  0  0  0  0  0  # atno 10764 bound_to 10752
  153.0146  135.5430  154.6691 H   0  0  0  0  0  0  0  0  0  0  0  0  # atno 10765 bound_to 10752
  140.0819  134.9092  157.1515 H   0  0  0  0  0  0  0  0  0  0  0  0  # atno 11005 bound_to 11000
  145.1208  139.2695  143.5589 LP  0  0  0  0  0  0  0  0  0  0  0  0  # atno 17320 bound_to 7965
  146.3530  140.0831  142.8616 LP  0  0  0  0  0  0  0  0  0  0  0  0  # atno 17321 bound_to 7965
  139.6214  144.0899  152.2395 LP  0  0  0  0  0  0  0  0  0  0  0  0  # atno 17342 bound_to 10162
  140.0345  144.6055  150.7461 LP  0  0  0  0  0  0  0  0  0  0  0  0  # atno 17343 bound_to 10162
  156.6698  130.4536  149.5661 LP  0  0  0  0  0  0  0  0  0  0  0  0  # atno 17370 bound_to 10713
  156.2006  130.6617  151.1163 LP  0  0  0  0  0  0  0  0  0  0  0  0  # atno 17371 bound_to 10713
  140.3475  134.2636  155.7203 LP  0  0  0  0  0  0  0  0  0  0  0  0  # atno 17394 bound_to 11000
  141.2050  133.7872  157.0259 LP  0  0  0  0  0  0  0  0  0  0  0  0  # atno 17395 bound_to 11000

$$$$
