AV-unprocessed.smi:124|AV-procd|sdf|1148|dock6
  -GOLD-   2262018283D 1   1.00000     0.00000
 Structure written by MMmdl.
 52 56  0  0  0  0  0  0  0  0  1 V2000
  148.5260  134.8949  154.4467 O   0  0  0  0  0  0  0  0  0  0  0  0
  149.3532  134.0230  154.7176 C   0  0  0  0  0  0  0  0  0  0  0  0
  150.6343  134.4066  155.4808 C   0  0  0  0  0  0  0  0  0  0  0  0
  150.4880  135.6479  156.2323 N   0  0  0  0  0  0  0  0  0  0  0  0
  149.8134  135.5830  157.4774 C   0  0  0  0  0  0  0  0  0  0  0  0
  149.3683  134.5246  157.9254 O   0  0  0  0  0  0  0  0  0  0  0  0
  149.7028  136.8595  158.1748 C   0  0  0  0  0  0  0  0  0  0  0  0
  149.0594  136.9192  159.3532 F   0  0  0  0  0  0  0  0  0  0  0  0
  150.2340  137.9869  157.6547 C   0  0  0  0  0  0  0  0  0  0  0  0
  150.9138  138.0155  156.4482 N   0  0  0  0  0  0  0  0  0  0  0  0
  151.5044  139.2990  155.9076 C   0  0  1  0  0  0  0  0  0  0  0  0
  150.3905  140.3016  155.5863 C   0  0  0  0  0  0  0  0  0  0  0  0
  150.3308  141.1185  156.8590 C   0  0  0  0  0  0  0  0  0  0  0  0
  151.7960  141.1413  157.2787 C   0  0  0  0  0  0  0  0  0  0  0  0
  152.3213  139.8756  156.8862 O   0  0  0  0  0  0  0  0  0  0  0  0
  151.0503  136.8306  155.6924 C   0  0  0  0  0  0  0  0  0  0  0  0
  151.6410  136.8373  154.6098 O   0  0  0  0  0  0  0  0  0  0  0  0
  149.2276  132.6134  154.3457 C   0  0  0  0  0  0  0  0  0  0  0  0
  148.1338  132.0842  153.6895 C   0  0  0  0  0  0  0  0  0  0  0  0
  146.9260  132.6990  153.1443 C   0  0  0  0  0  0  0  0  0  0  0  0
  146.1618  133.5907  153.9289 C   0  0  0  0  0  0  0  0  0  0  0  0
  144.9923  134.1800  153.4103 C   0  0  0  0  0  0  0  0  0  0  0  0
  144.5727  133.8789  152.1009 C   0  0  0  0  0  0  0  0  0  0  0  0
  145.3231  132.9862  151.3128 C   0  0  0  0  0  0  0  0  0  0  0  0
  146.4916  132.3978  151.8342 C   0  0  0  0  0  0  0  0  0  0  0  0
  148.3153  130.7212  153.5359 N   0  0  0  0  0  0  0  0  0  0  0  0
  149.5153  130.3192  154.0779 C   0  0  0  0  0  0  0  0  0  0  0  0
  150.1299  129.0565  154.1625 C   0  0  0  0  0  0  0  0  0  0  0  0
  151.3784  128.9353  154.7965 C   0  0  0  0  0  0  0  0  0  0  0  0
  151.9956  130.0760  155.3417 C   0  0  0  0  0  0  0  0  0  0  0  0
  151.3710  131.3361  155.2505 C   0  0  0  0  0  0  0  0  0  0  0  0
  150.1161  131.4999  154.6091 C   0  0  0  0  0  0  0  0  0  0  0  0
  147.6427  130.1266  153.0732 H   0  0  0  0  0  0  0  0  0  0  0  0
  150.9216  133.6159  156.1739 H   0  0  0  0  0  0  0  0  0  0  0  0
  151.4836  134.5335  154.8074 H   0  0  0  0  0  0  0  0  0  0  0  0
  150.1135  138.9013  158.2162 H   0  0  0  0  0  0  0  0  0  0  0  0
  152.1101  139.0173  155.0449 H   0  0  0  0  0  0  0  0  0  0  0  0
  150.7119  140.9212  154.7481 H   0  0  0  0  0  0  0  0  0  0  0  0
  149.4507  139.8133  155.3255 H   0  0  0  0  0  0  0  0  0  0  0  0
  149.9143  142.1149  156.7101 H   0  0  0  0  0  0  0  0  0  0  0  0
  149.7291  140.6042  157.6093 H   0  0  0  0  0  0  0  0  0  0  0  0
  152.3326  141.9240  156.7407 H   0  0  0  0  0  0  0  0  0  0  0  0
  151.9246  141.3139  158.3473 H   0  0  0  0  0  0  0  0  0  0  0  0
  146.4758  133.8310  154.9342 H   0  0  0  0  0  0  0  0  0  0  0  0
  144.4177  134.8639  154.0175 H   0  0  0  0  0  0  0  0  0  0  0  0
  143.6763  134.3308  151.7023 H   0  0  0  0  0  0  0  0  0  0  0  0
  145.0027  132.7515  150.3084 H   0  0  0  0  0  0  0  0  0  0  0  0
  147.0580  131.7115  151.2215 H   0  0  0  0  0  0  0  0  0  0  0  0
  149.6451  128.1857  153.7462 H   0  0  0  0  0  0  0  0  0  0  0  0
  151.8595  127.9709  154.8684 H   0  0  0  0  0  0  0  0  0  0  0  0
  152.9529  129.9856  155.8336 H   0  0  0  0  0  0  0  0  0  0  0  0
  151.8715  132.1872  155.6842 H   0  0  0  0  0  0  0  0  0  0  0  0
  1  2  2  0  0  0  0
  2  3  1  0  0  0  0
  2 18  1  0  0  0  0
  3  4  1  0  0  0  0
  3 34  1  0  0  0  0
  3 35  1  0  0  0  0
  4 16  1  0  0  0  0
  4  5  1  0  0  0  0
  5  6  2  0  0  0  0
  5  7  1  0  0  0  0
  7  8  1  0  0  0  0
  7  9  2  0  0  0  0
  9 10  1  0  0  0  0
  9 36  1  0  0  0  0
 10 11  1  0  0  0  0
 10 16  1  0  0  0  0
 11 15  1  0  0  0  0
 11 12  1  0  0  0  0
 11 37  1  0  0  0  0
 12 13  1  0  0  0  0
 12 38  1  0  0  0  0
 12 39  1  0  0  0  0
 13 14  1  0  0  0  0
 13 40  1  0  0  0  0
 13 41  1  0  0  0  0
 14 15  1  0  0  0  0
 14 42  1  0  0  0  0
 14 43  1  0  0  0  0
 16 17  2  0  0  0  0
 18 32  1  0  0  0  0
 18 19  2  0  0  0  0
 19 20  1  0  0  0  0
 19 26  1  0  0  0  0
 20 25  1  0  0  0  0
 20 21  2  0  0  0  0
 21 22  1  0  0  0  0
 21 44  1  0  0  0  0
 22 23  2  0  0  0  0
 22 45  1  0  0  0  0
 23 24  1  0  0  0  0
 23 46  1  0  0  0  0
 24 25  2  0  0  0  0
 24 47  1  0  0  0  0
 25 48  1  0  0  0  0
 26 33  1  0  0  0  0
 26 27  1  0  0  0  0
 27 32  1  0  0  0  0
 27 28  2  0  0  0  0
 28 29  1  0  0  0  0
 28 49  1  0  0  0  0
 29 30  2  0  0  0  0
 29 50  1  0  0  0  0
 30 31  1  0  0  0  0
 30 51  1  0  0  0  0
 31 32  2  0  0  0  0
 31 52  1  0  0  0  0
M  END
> <s_m_source_file>
AV-unprocessed.smi

> <i_m_source_file_index>
124

> <i_lp_mmshare_version>
43012

> <i_f3d_flags>
0

> <s_epik_input>
W2NIXTFbY0hdW2NIXVtjSF1bY0hdYzEtYyhbbkhdMiljKGMoYzIzKVtjSF1bY0hdW2NIXVtjSF0zKUMoPU8pW0NIMl1uNGMoPU8pYyhGKVtjSF1uKGM0PU8pW0NAQEhdNVtDSDJdW0NIMl1bQ0gyXU81

> <s_epik_cmdline>
J2VwaWtfcHl0aG9uJywgJy1waCcsICc3LjAnLCAnLXRuJywgJzgnLCAnLW1hJywgJzIwMCcsICctbWV0YWxfYmluZGluZycsICctaW1hZScsICc8aW5maWxlLm1hZT4nLCAnLW9tYWUnLCAnPG91dGZpbGUubWFlPic=

> <r_lp_tautomer_probability>
1

> <r_epik_Ionization_Penalty>
1.43207e-08

> <r_epik_Ionization_Penalty_Charging>
5.01743e-09

> <r_epik_Ionization_Penalty_Neutral>
9.30329e-09

> <r_epik_State_Penalty>
-0

> <r_epik_Charging_Adjusted_Penalty>
5.01743e-09

> <i_epik_Tot_Q>
0

> <i_epik_Tot_abs_Q>
0

> <r_epik_Metal_State_Penalty>
-0

> <b_epik_Metal_Only>
0

> <s_epik_Chemistry_Notes>
This compound contains an acetal/aminal-like group ( X-CH(R)-Y where X, Y are N, S, or O) that may be acid/base labile, releasing an aldehyde.

> <s_lp_Force_Field>
OPLS_2005

> <r_lp_Energy>
48.1056

> <b_lp_Chiralities_Consistent>
1

> <s_lp_Variant>
AV-unprocessed.smi:124-2

> <Gold.Version>
5.8.1

> <Gold.Id.Protein>
6NUR|6NUR_protein|mol2

> <Gold.PLP.Fitness>
54.2727

> <Gold.PLP.PLP>
-46.8844

> <Gold.PLP.part.hbond>
-3.1858

> <Gold.PLP.part.metal>
0.0000

> <Gold.PLP.part.buried>
-8.3666

> <Gold.PLP.part.nonpolar>
-37.3934

> <Gold.PLP.part.repulsive>
1.8538

> <Gold.PLP.ligand.clash>
0.0263

> <Gold.PLP.ligand.torsion>
1.4785

> <Gold.PLP.Chemscore.Hbond>
2.9913

> <Gold.PLP.Chemscore.CHOScore>
0.0000

> <Gold.PLP.Chemscore.Metal>
0.0000

> <Gold.Chemscore.Hbonds>
donor molecule, donor type, donor heavy atom, donor atom, acceptor molecule, acceptor atom, score
      P1  H  6896  6907       L1     6  1.00
      P1  H  7997  8010       L1    15  0.89
      P1  H 10752 10765       L1    17  1.00

> <Gold.PLP.Chemscore.Internal.Correction>
1.3978

> <Gold.Rescore>
     Score         DG    S(hbond)    S(metal)    S(lipo)     H(rot)  DE(clash)    DE(int)     intcor
     16.74     -21.20       2.54        0.00      95.87       1.55       0.52       3.94       ----

> <Gold.Chemscore.Fitness>
16.7403

> <Gold.Chemscore.DG>
-21.1998

> <Gold.Chemscore.ZeroCoef>
-5.4800

> <Gold.Chemscore.Hbond>
2.5389

> <Gold.Chemscore.Metal>
0.0000

> <Gold.Chemscore.Lipo>
95.8742

> <Gold.Chemscore.Internal_Hbond>
0.0000

> <Gold.Chemscore.DEClash>
0.5163

> <Gold.Chemscore.DEInternal>
3.9432

> <Gold.Chemscore.Rot>
1.5537

> <Gold.Chemscore.Internal.Correction>
   9.000000E+99

> <Gold.Chemscore.Hbonds>
donor molecule, donor type, donor heavy atom, donor atom, acceptor molecule, acceptor atom, score
      P1  H  6896  6907       L1     6  0.43
      P1  H  7997  8010       L1    15  0.55
      P1  H 10752 10765       L1    17  0.98

> <Gold.Chemscore.Hbond.Weighted>
-8.4799

> <Gold.Chemscore.Metal.Weighted>
-0.0000

> <Gold.Chemscore.Lipo.Weighted>
-11.2173

> <Gold.Chemscore.Internal_Hbond.Weighted>
0.0000

> <Gold.Chemscore.DEClash.Weighted>
0.5163

> <Gold.Chemscore.DEInternal.Weighted>
3.9432

> <Gold.Chemscore.Rot.Weighted>
3.9774

> <Gold.Chemscore.Internal.Correction.Weighted>
   9.000000E+99

> <Gold.Protein.RotatedTorsions>
[ 6907 6896 6895 6894 ] final -107.86 input  -60.11 | X-H torsion
[ 7974 7965 7964 7962 ] final  -62.32 input  175.53 | X-H torsion
[ 8008 7997 7996 7995 ] final   60.93 input   59.86 | X-H torsion
[ 10167 10162 10161 10158 ] final  -12.05 input  -65.29 | X-H torsion
[ 10718 10713 10712 10709 ] final   24.13 input   66.30 | X-H torsion
[ 10763 10752 10751 10750 ] final  160.59 input  -60.55 | X-H torsion
[ 11005 11000 10999 10996 ] final   19.95 input  -57.11 | X-H torsion

> <Gold.Protein.ActiveResidues>
 VAL166  LYS551  ARG553  GLY616  TRP617  ASP618  TYR619  PRO620  LYS621  CYS622 
 ASP623  PHE694  ASN695  SER759  ASP760  ASP761  ALA762  ILE779  LEU786  VAL792 
 PHE793  MET794  SER795  GLU796  ALA797  LYS798  CYS799  TRP800  GLU811  SER814 

> <Gold.Protein.RotatedAtoms>
  150.7468  133.9764  159.3561 H   0  0  0  0  0  0  0  0  0  0  0  0  # atno 6907 bound_to 6896
  151.7702  135.0786  160.0368 H   0  0  0  0  0  0  0  0  0  0  0  0  # atno 6908 bound_to 6896
  152.3344  133.5958  159.5868 H   0  0  0  0  0  0  0  0  0  0  0  0  # atno 6909 bound_to 6896
  145.7927  140.8700  143.0272 H   0  0  0  0  0  0  0  0  0  0  0  0  # atno 7974 bound_to 7965
  155.5903  140.3492  155.4564 H   0  0  0  0  0  0  0  0  0  0  0  0  # atno 8008 bound_to 7997
  156.0306  140.1274  157.0286 H   0  0  0  0  0  0  0  0  0  0  0  0  # atno 8009 bound_to 7997
  154.4351  140.1044  156.6080 H   0  0  0  0  0  0  0  0  0  0  0  0  # atno 8010 bound_to 7997
  140.7152  143.5573  150.9234 H   0  0  0  0  0  0  0  0  0  0  0  0  # atno 10167 bound_to 10162
  157.1755  130.6779  149.6093 H   0  0  0  0  0  0  0  0  0  0  0  0  # atno 10718 bound_to 10713
  154.2498  135.2772  155.2821 H   0  0  0  0  0  0  0  0  0  0  0  0  # atno 10763 bound_to 10752
  154.5475  135.5685  153.6896 H   0  0  0  0  0  0  0  0  0  0  0  0  # atno 10764 bound_to 10752
  152.9983  135.6266  154.2645 H   0  0  0  0  0  0  0  0  0  0  0  0  # atno 10765 bound_to 10752
  140.4080  134.1648  155.7666 H   0  0  0  0  0  0  0  0  0  0  0  0  # atno 11005 bound_to 11000
  144.6779  140.0147  143.7484 LP  0  0  0  0  0  0  0  0  0  0  0  0  # atno 17320 bound_to 7965
  145.9960  139.3052  143.0956 LP  0  0  0  0  0  0  0  0  0  0  0  0  # atno 17321 bound_to 7965
  139.9299  143.6506  152.3078 LP  0  0  0  0  0  0  0  0  0  0  0  0  # atno 17342 bound_to 10162
  139.6953  144.7642  151.1367 LP  0  0  0  0  0  0  0  0  0  0  0  0  # atno 17343 bound_to 10162
  155.9732  130.4664  150.6289 LP  0  0  0  0  0  0  0  0  0  0  0  0  # atno 17370 bound_to 10713
  157.4002  131.0809  151.1315 LP  0  0  0  0  0  0  0  0  0  0  0  0  # atno 17371 bound_to 10713
  141.1832  133.8370  157.1183 LP  0  0  0  0  0  0  0  0  0  0  0  0  # atno 17394 bound_to 11000
  140.0288  134.9911  157.0739 LP  0  0  0  0  0  0  0  0  0  0  0  0  # atno 17395 bound_to 11000

$$$$
