AV-unprocessed.smi:1633|AV-procd|sdf|6532|dock2
  -GOLD-   22720 7213D 1   1.00000     0.00000
 Structure written by MMmdl.
 51 53  0  0  0  0  0  0  0  0  2 V2000
  146.1433  131.9627  155.1625 C   0  0  0  0  0  0  0  0  0  0  0  0
  145.9988  133.4829  155.0631 C   0  0  0  0  0  0  0  0  0  0  0  0
  144.9995  134.0024  155.5592 O   0  0  0  0  0  0  0  0  0  0  0  0
  146.9630  134.2020  154.4402 N   0  0  0  0  0  0  0  0  0  0  0  0
  148.1751  133.5922  153.8863 C   0  0  0  0  0  0  0  0  0  0  0  0
  149.3948  134.0717  154.6936 C   0  0  0  0  0  0  0  0  0  0  0  0
  149.4757  135.5565  154.7242 N   0  3  0  0  0  0  0  0  0  0  0  0
  150.6659  136.0408  155.4696 C   0  0  0  0  0  0  0  0  0  0  0  0
  151.1034  137.4543  155.0377 C   0  0  2  0  0  0  0  0  0  0  0  0
  151.8585  137.3473  153.8459 O   0  0  0  0  0  0  0  0  0  0  0  0
  151.9528  138.1473  156.1207 C   0  0  0  0  0  0  0  0  0  0  0  0
  151.5586  139.5292  156.3296 N   0  0  0  0  0  0  0  0  0  0  0  0
  150.7872  140.2819  155.5217 C   0  0  0  0  0  0  0  0  0  0  0  0
  150.5566  141.5366  155.8961 N   0  0  0  0  0  0  0  0  0  0  0  0
  151.2568  141.6060  157.0883 C   0  0  0  0  0  0  0  0  0  0  0  0
  151.4236  142.6770  157.9930 C   0  0  0  0  0  0  0  0  0  0  0  0
  152.1984  142.5222  159.1647 C   0  0  0  0  0  0  0  0  0  0  0  0
  152.3547  143.7018  160.1079 C   0  0  0  0  0  0  0  0  0  0  0  0
  152.8183  141.2784  159.4475 C   0  0  0  0  0  0  0  0  0  0  0  0
  153.6531  141.0879  160.7017 C   0  0  0  0  0  0  0  0  0  0  0  0
  152.6626  140.1982  158.5539 C   0  0  0  0  0  0  0  0  0  0  0  0
  151.8920  140.3658  157.3898 C   0  0  0  0  0  0  0  0  0  0  0  0
  148.1998  136.1916  155.1563 C   0  0  0  0  0  0  0  0  0  0  0  0
  147.0051  135.6643  154.3404 C   0  0  0  0  0  0  0  0  0  0  0  0
  146.1800  131.5105  154.1709 H   0  0  0  0  0  0  0  0  0  0  0  0
  145.2949  131.5307  155.6943 H   0  0  0  0  0  0  0  0  0  0  0  0
  147.0481  131.6953  155.7092 H   0  0  0  0  0  0  0  0  0  0  0  0
  148.1407  132.5019  153.8843 H   0  0  0  0  0  0  0  0  0  0  0  0
  148.2774  133.8872  152.8408 H   0  0  0  0  0  0  0  0  0  0  0  0
  149.3361  133.6917  155.7150 H   0  0  0  0  0  0  0  0  0  0  0  0
  150.3049  133.6625  154.2527 H   0  0  0  0  0  0  0  0  0  0  0  0
  150.4571  136.0134  156.5401 H   0  0  0  0  0  0  0  0  0  0  0  0
  151.5013  135.3579  155.3054 H   0  0  0  0  0  0  0  0  0  0  0  0
  150.2326  138.0771  154.8353 H   0  0  0  0  0  0  0  0  0  0  0  0
  151.2836  137.0658  153.1498 H   0  0  0  0  0  0  0  0  0  0  0  0
  151.8565  137.6188  157.0703 H   0  0  0  0  0  0  0  0  0  0  0  0
  153.0110  138.1212  155.8571 H   0  0  0  0  0  0  0  0  0  0  0  0
  150.3762  139.8880  154.6038 H   0  0  0  0  0  0  0  0  0  0  0  0
  150.9505  143.6238  157.7774 H   0  0  0  0  0  0  0  0  0  0  0  0
  151.9357  143.4660  161.0861 H   0  0  0  0  0  0  0  0  0  0  0  0
  151.8423  144.5862  159.7284 H   0  0  0  0  0  0  0  0  0  0  0  0
  153.4077  143.9548  160.2332 H   0  0  0  0  0  0  0  0  0  0  0  0
  154.0324  140.0682  160.7764 H   0  0  0  0  0  0  0  0  0  0  0  0
  153.0572  141.2882  161.5925 H   0  0  0  0  0  0  0  0  0  0  0  0
  154.5082  141.7640  160.6973 H   0  0  0  0  0  0  0  0  0  0  0  0
  153.1323  139.2469  158.7561 H   0  0  0  0  0  0  0  0  0  0  0  0
  148.0368  135.9925  156.2168 H   0  0  0  0  0  0  0  0  0  0  0  0
  148.2558  137.2731  155.0423 H   0  0  0  0  0  0  0  0  0  0  0  0
  147.1191  135.9440  153.2920 H   0  0  0  0  0  0  0  0  0  0  0  0
  146.0912  136.1536  154.6737 H   0  0  0  0  0  0  0  0  0  0  0  0
  149.6215  135.8367  153.7643 H   0  0  0  0  0  0  0  0  0  0  0  0
  1  2  1  0  0  0  0
  1 25  1  0  0  0  0
  1 26  1  0  0  0  0
  1 27  1  0  0  0  0
  2  3  2  0  0  0  0
  2  4  1  0  0  0  0
  4 24  1  0  0  0  0
  4  5  1  0  0  0  0
  5  6  1  0  0  0  0
  5 28  1  0  0  0  0
  5 29  1  0  0  0  0
  6  7  1  0  0  0  0
  6 30  1  0  0  0  0
  6 31  1  0  0  0  0
  7  8  1  0  0  0  0
  7 23  1  0  0  0  0
  7 51  1  0  0  0  0
  8  9  1  0  0  0  0
  8 32  1  0  0  0  0
  8 33  1  0  0  0  0
  9 10  1  0  0  0  0
  9 11  1  0  0  0  0
  9 34  1  0  0  0  0
 10 35  1  0  0  0  0
 11 12  1  0  0  0  0
 11 36  1  0  0  0  0
 11 37  1  0  0  0  0
 12 22  1  0  0  0  0
 12 13  1  0  0  0  0
 13 14  2  0  0  0  0
 13 38  1  0  0  0  0
 14 15  1  0  0  0  0
 15 22  2  0  0  0  0
 15 16  1  0  0  0  0
 16 17  2  0  0  0  0
 16 39  1  0  0  0  0
 17 18  1  0  0  0  0
 17 19  1  0  0  0  0
 18 40  1  0  0  0  0
 18 41  1  0  0  0  0
 18 42  1  0  0  0  0
 19 20  1  0  0  0  0
 19 21  2  0  0  0  0
 20 43  1  0  0  0  0
 20 44  1  0  0  0  0
 20 45  1  0  0  0  0
 21 22  1  0  0  0  0
 21 46  1  0  0  0  0
 23 24  1  0  0  0  0
 23 47  1  0  0  0  0
 23 48  1  0  0  0  0
 24 49  1  0  0  0  0
 24 50  1  0  0  0  0
M  CHG  1   7   1
M  END
> <s_m_source_file>
AV-unprocessed.smi

> <i_m_source_file_index>
1633

> <i_lp_mmshare_version>
43012

> <i_f3d_flags>
0

> <s_epik_input>
W0NIM11DKD1PKU4xW0NIMl1bQ0gyXU4oW0NIMl1bQ0gyXTEpW0NIMl1bQ0BIXShbT0hdKVtDSDJdbihbY0hdbjIpYyhjMjMpW2NIXWMoW0NIM10pYyhbY0hdMylbQ0gzXQ==

> <s_epik_cmdline>
J2VwaWtfcHl0aG9uJywgJy1waCcsICc3LjAnLCAnLXRuJywgJzgnLCAnLW1hJywgJzIwMCcsICctbWV0YWxfYmluZGluZycsICctaW1hZScsICc8aW5maWxlLm1hZT4nLCAnLW9tYWUnLCAnPG91dGZpbGUubWFlPic=

> <r_epik_Ionization_Penalty>
0.0939669

> <r_epik_Ionization_Penalty_Charging>
0.00645254

> <r_epik_Ionization_Penalty_Neutral>
0.0875144

> <r_epik_State_Penalty>
0.0777239

> <r_epik_Charging_Adjusted_Penalty>
0.0841764

> <i_epik_Tot_Q>
1

> <i_epik_Tot_abs_Q>
1

> <r_epik_Metal_State_Penalty>
7.71307e-05

> <b_epik_Metal_Only>
0

> <s_lp_Force_Field>
OPLS_2005

> <r_lp_Energy>
43.6945

> <b_lp_Chiralities_Consistent>
1

> <s_lp_Variant>
AV-unprocessed.smi:1633-1

> <Gold.Version>
5.8.1

> <Gold.Id.Protein>
6NUR|6NUR_protein|mol2

> <Gold.PLP.Fitness>
49.9763

> <Gold.PLP.PLP>
-40.8073

> <Gold.PLP.part.hbond>
-3.0000

> <Gold.PLP.part.metal>
0.0000

> <Gold.PLP.part.buried>
-4.2941

> <Gold.PLP.part.nonpolar>
-33.7408

> <Gold.PLP.part.repulsive>
0.2050

> <Gold.PLP.ligand.clash>
0.0000

> <Gold.PLP.ligand.torsion>
1.2078

> <Gold.PLP.Chemscore.Hbond>
3.8302

> <Gold.PLP.Chemscore.CHOScore>
0.0000

> <Gold.PLP.Chemscore.Metal>
0.0000

> <Gold.Chemscore.Hbonds>
donor molecule, donor type, donor heavy atom, donor atom, acceptor molecule, acceptor atom, score
      L1  H     7    51       P1  7948  2.00
      L1  H    10    35       P1  7949  0.88
      P1  H 10752 10763       L1    10  0.89

> <Gold.PLP.Chemscore.Internal.Correction>
0.0941

> <Gold.Rescore>
     Score         DG    S(hbond)    S(metal)    S(lipo)     H(rot)  DE(clash)    DE(int)     intcor
     15.85     -17.17       1.67        0.00      99.52       2.16       0.06       1.25       ----

> <Gold.Chemscore.Fitness>
15.8480

> <Gold.Chemscore.DG>
-17.1654

> <Gold.Chemscore.ZeroCoef>
-5.4800

> <Gold.Chemscore.Hbond>
1.6686

> <Gold.Chemscore.Metal>
0.0000

> <Gold.Chemscore.Lipo>
99.5206

> <Gold.Chemscore.Internal_Hbond>
0.0000

> <Gold.Chemscore.DEClash>
0.0639

> <Gold.Chemscore.DEInternal>
1.2534

> <Gold.Chemscore.Rot>
2.1608

> <Gold.Chemscore.Internal.Correction>
   9.000000E+99

> <Gold.Chemscore.Hbonds>
donor molecule, donor type, donor heavy atom, donor atom, acceptor molecule, acceptor atom, score
      L1  H     7    51       P1  7948  0.28
      L1  H    10    35       P1  7949  0.59
      P1  H 10752 10763       L1    10  0.15

> <Gold.Chemscore.Hbond.Weighted>
-5.5732

> <Gold.Chemscore.Metal.Weighted>
-0.0000

> <Gold.Chemscore.Lipo.Weighted>
-11.6439

> <Gold.Chemscore.Internal_Hbond.Weighted>
0.0000

> <Gold.Chemscore.DEClash.Weighted>
0.0639

> <Gold.Chemscore.DEInternal.Weighted>
1.2534

> <Gold.Chemscore.Rot.Weighted>
5.5317

> <Gold.Chemscore.Internal.Correction.Weighted>
   9.000000E+99

> <Gold.Protein.RotatedTorsions>
[ 6907 6896 6895 6894 ] final   74.72 input  -60.11 | X-H torsion
[ 7974 7965 7964 7962 ] final  -56.60 input  175.53 | X-H torsion
[ 8008 7997 7996 7995 ] final   70.10 input   59.86 | X-H torsion
[ 10167 10162 10161 10158 ] final  -87.99 input  -65.29 | X-H torsion
[ 10718 10713 10712 10709 ] final   54.52 input   66.30 | X-H torsion
[ 10763 10752 10751 10750 ] final   15.21 input  -60.55 | X-H torsion
[ 11005 11000 10999 10996 ] final   92.20 input  -57.11 | X-H torsion

> <Gold.Protein.ActiveResidues>
 VAL166  LYS551  ARG553  GLY616  TRP617  ASP618  TYR619  PRO620  LYS621  CYS622 
 ASP623  PHE694  ASN695  SER759  ASP760  ASP761  ALA762  ILE779  LEU786  VAL792 
 PHE793  MET794  SER795  GLU796  ALA797  LYS798  CYS799  TRP800  GLU811  SER814 

> <Gold.Protein.RotatedAtoms>
  152.4990  134.4228  159.9486 H   0  0  0  0  0  0  0  0  0  0  0  0  # atno 6907 bound_to 6896
  151.4202  133.3694  159.2763 H   0  0  0  0  0  0  0  0  0  0  0  0  # atno 6908 bound_to 6896
  150.9228  134.8668  159.7560 H   0  0  0  0  0  0  0  0  0  0  0  0  # atno 6909 bound_to 6896
  145.8608  140.8287  142.9938 H   0  0  0  0  0  0  0  0  0  0  0  0  # atno 7974 bound_to 7965
  155.7336  140.3491  155.5071 H   0  0  0  0  0  0  0  0  0  0  0  0  # atno 8008 bound_to 7997
  155.9159  140.1058  157.1265 H   0  0  0  0  0  0  0  0  0  0  0  0  # atno 8009 bound_to 7997
  154.4062  140.1259  156.4604 H   0  0  0  0  0  0  0  0  0  0  0  0  # atno 8010 bound_to 7997
  140.3790  143.2757  151.9407 H   0  0  0  0  0  0  0  0  0  0  0  0  # atno 10167 bound_to 10162
  157.5264  130.8600  149.8628 H   0  0  0  0  0  0  0  0  0  0  0  0  # atno 10718 bound_to 10713
  153.1547  135.6785  153.8830 H   0  0  0  0  0  0  0  0  0  0  0  0  # atno 10763 bound_to 10752
  153.8245  135.3126  155.3414 H   0  0  0  0  0  0  0  0  0  0  0  0  # atno 10764 bound_to 10752
  154.7888  135.4846  154.0094 H   0  0  0  0  0  0  0  0  0  0  0  0  # atno 10765 bound_to 10752
  139.8827  134.8719  156.3538 H   0  0  0  0  0  0  0  0  0  0  0  0  # atno 11005 bound_to 11000
  144.6726  140.1092  143.7456 LP  0  0  0  0  0  0  0  0  0  0  0  0  # atno 17320 bound_to 7965
  145.9251  139.2570  143.1358 LP  0  0  0  0  0  0  0  0  0  0  0  0  # atno 17321 bound_to 7965
  139.4797  144.5836  151.7891 LP  0  0  0  0  0  0  0  0  0  0  0  0  # atno 17342 bound_to 10162
  140.4956  144.1245  150.5959 LP  0  0  0  0  0  0  0  0  0  0  0  0  # atno 17343 bound_to 10162
  156.0390  130.3744  150.1484 LP  0  0  0  0  0  0  0  0  0  0  0  0  # atno 17370 bound_to 10713
  156.9670  130.9823  151.3467 LP  0  0  0  0  0  0  0  0  0  0  0  0  # atno 17371 bound_to 10713
  140.9576  133.7409  156.0357 LP  0  0  0  0  0  0  0  0  0  0  0  0  # atno 17394 bound_to 11000
  140.8029  134.3488  157.5434 LP  0  0  0  0  0  0  0  0  0  0  0  0  # atno 17395 bound_to 11000

$$$$
