AV-unprocessed.smi:1240|AV-procd|sdf|5204|dock3
  -GOLD-   22720 4293D 1   1.00000     0.00000
 Structure written by MMmdl.
 48 50  0  0  0  0  0  0  0  0  2 V2000
  147.2717  131.8436  153.3846 O   0  0  0  0  0  0  0  0  0  0  0  0
  147.8488  132.9143  153.1976 C   0  0  0  0  0  0  0  0  0  0  0  0
  149.0852  133.1792  153.6421 N   0  0  0  0  0  0  0  0  0  0  0  0
  149.9261  132.2675  154.4137 C   0  0  0  0  0  0  0  0  0  0  0  0
  149.7374  132.4714  155.9409 C   0  0  1  0  0  0  0  0  0  0  0  0
  150.6888  131.5642  156.7837 C   0  0  2  0  0  0  0  0  0  0  0  0
  152.1525  132.0046  156.8856 C   0  0  0  0  0  0  0  0  0  0  0  0
  152.9418  130.7436  156.5361 C   0  0  0  0  0  0  0  0  0  0  0  0
  152.0578  129.6827  156.8572 O   0  0  0  0  0  0  0  0  0  0  0  0
  150.7683  130.0731  156.4148 C   0  0  0  0  0  0  0  0  0  0  0  0
  149.6596  133.8815  156.3754 N   0  0  0  0  0  0  0  0  0  0  0  0
  150.8609  134.6521  156.0595 C   0  0  0  0  0  0  0  0  0  0  0  0
  150.6859  136.1430  156.3891 C   0  0  0  0  0  0  0  0  0  0  0  0
  150.3481  136.2824  157.7646 O   0  0  0  0  0  0  0  0  0  0  0  0
  149.1501  135.5932  158.1051 C   0  0  0  0  0  0  0  0  0  0  0  0
  149.2869  134.0967  157.7720 C   0  0  0  0  0  0  0  0  0  0  0  0
  147.3293  133.9733  152.5529 N   0  0  0  0  0  0  0  0  0  0  0  0
  146.0510  134.1016  151.9443 C   0  0  0  0  0  0  0  0  0  0  0  0
  145.1681  133.0033  152.0433 C   0  0  0  0  0  0  0  0  0  0  0  0
  143.8833  133.0888  151.4691 C   0  0  0  0  0  0  0  0  0  0  0  0
  143.5026  134.2204  150.8385 N   0  3  0  0  0  0  0  0  0  0  0  0
  144.3052  135.3009  150.7306 C   0  0  0  0  0  0  0  0  0  0  0  0
  145.6012  135.2744  151.2851 C   0  0  0  0  0  0  0  0  0  0  0  0
  149.4760  134.0885  153.4422 H   0  0  0  0  0  0  0  0  0  0  0  0
  149.7314  131.2284  154.1459 H   0  0  0  0  0  0  0  0  0  0  0  0
  150.9535  132.4702  154.1151 H   0  0  0  0  0  0  0  0  0  0  0  0
  148.7500  132.0608  156.1578 H   0  0  0  0  0  0  0  0  0  0  0  0
  150.3083  131.5849  157.8063 H   0  0  0  0  0  0  0  0  0  0  0  0
  152.4279  132.8343  156.2356 H   0  0  0  0  0  0  0  0  0  0  0  0
  152.3729  132.3131  157.9084 H   0  0  0  0  0  0  0  0  0  0  0  0
  153.1695  130.7126  155.4694 H   0  0  0  0  0  0  0  0  0  0  0  0
  153.8790  130.6677  157.0878 H   0  0  0  0  0  0  0  0  0  0  0  0
  149.9989  129.4803  156.9094 H   0  0  0  0  0  0  0  0  0  0  0  0
  150.6816  129.8907  155.3458 H   0  0  0  0  0  0  0  0  0  0  0  0
  151.7138  134.2748  156.6231 H   0  0  0  0  0  0  0  0  0  0  0  0
  151.1070  134.5432  155.0027 H   0  0  0  0  0  0  0  0  0  0  0  0
  151.6098  136.6865  156.1915 H   0  0  0  0  0  0  0  0  0  0  0  0
  149.9102  136.5905  155.7658 H   0  0  0  0  0  0  0  0  0  0  0  0
  148.9507  135.7276  159.1684 H   0  0  0  0  0  0  0  0  0  0  0  0
  148.3088  136.0299  157.5649 H   0  0  0  0  0  0  0  0  0  0  0  0
  148.3308  133.6271  157.9854 H   0  0  0  0  0  0  0  0  0  0  0  0
  150.0265  133.6458  158.4340 H   0  0  0  0  0  0  0  0  0  0  0  0
  147.8950  134.8094  152.5513 H   0  0  0  0  0  0  0  0  0  0  0  0
  145.4710  132.0979  152.5494 H   0  0  0  0  0  0  0  0  0  0  0  0
  143.1539  132.2922  151.4968 H   0  0  0  0  0  0  0  0  0  0  0  0
  143.8882  136.1523  150.2127 H   0  0  0  0  0  0  0  0  0  0  0  0
  146.2172  136.1568  151.2036 H   0  0  0  0  0  0  0  0  0  0  0  0
  142.5680  134.2628  150.4310 H   0  0  0  0  0  0  0  0  0  0  0  0
  1  2  2  0  0  0  0
  2  3  1  0  0  0  0
  2 17  1  0  0  0  0
  3  4  1  0  0  0  0
  3 24  1  0  0  0  0
  4  5  1  0  0  0  0
  4 25  1  0  0  0  0
  4 26  1  0  0  0  0
  5  6  1  0  0  0  0
  5 11  1  0  0  0  0
  5 27  1  0  0  0  0
  6 10  1  0  0  0  0
  6  7  1  0  0  0  0
  6 28  1  0  0  0  0
  7  8  1  0  0  0  0
  7 29  1  0  0  0  0
  7 30  1  0  0  0  0
  8  9  1  0  0  0  0
  8 31  1  0  0  0  0
  8 32  1  0  0  0  0
  9 10  1  0  0  0  0
 10 33  1  0  0  0  0
 10 34  1  0  0  0  0
 11 16  1  0  0  0  0
 11 12  1  0  0  0  0
 12 13  1  0  0  0  0
 12 35  1  0  0  0  0
 12 36  1  0  0  0  0
 13 14  1  0  0  0  0
 13 37  1  0  0  0  0
 13 38  1  0  0  0  0
 14 15  1  0  0  0  0
 15 16  1  0  0  0  0
 15 39  1  0  0  0  0
 15 40  1  0  0  0  0
 16 41  1  0  0  0  0
 16 42  1  0  0  0  0
 17 18  1  0  0  0  0
 17 43  1  0  0  0  0
 18 23  1  0  0  0  0
 18 19  2  0  0  0  0
 19 20  1  0  0  0  0
 19 44  1  0  0  0  0
 20 21  2  0  0  0  0
 20 45  1  0  0  0  0
 21 22  1  0  0  0  0
 21 48  1  0  0  0  0
 22 23  2  0  0  0  0
 22 46  1  0  0  0  0
 23 47  1  0  0  0  0
M  CHG  1  21   1
M  END
> <s_m_source_file>
AV-unprocessed.smi

> <i_m_source_file_index>
1240

> <i_lp_mmshare_version>
43012

> <i_f3d_flags>
0

> <s_epik_input>
W2NIXTFbY0hdbltjSF1bY0hdYzFbTkhdQyg9TylbTkhdW0NIMl1bQ0BIXShbQ0BASF0yW0NIMl1bQ0gyXU9bQ0gyXTIpTjNbQ0gyXVtDSDJdT1tDSDJdW0NIMl0z

> <s_epik_cmdline>
J2VwaWtfcHl0aG9uJywgJy1waCcsICc3LjAnLCAnLXRuJywgJzgnLCAnLW1hJywgJzIwMCcsICctbWV0YWxfYmluZGluZycsICctaW1hZScsICc8aW5maWxlLm1hZT4nLCAnLW9tYWUnLCAnPG91dGZpbGUubWFlPic=

> <r_epik_Ionization_Penalty>
1.15944

> <r_epik_Ionization_Penalty_Charging>
1.0344

> <r_epik_Ionization_Penalty_Neutral>
0.125034

> <r_epik_State_Penalty>
1.2199

> <r_epik_Charging_Adjusted_Penalty>
2.25431

> <i_epik_Tot_Q>
1

> <i_epik_Tot_abs_Q>
1

> <r_epik_Metal_State_Penalty>
1.3155

> <b_epik_Metal_Only>
0

> <s_lp_Force_Field>
OPLS_2005

> <r_lp_Energy>
64.7191

> <b_lp_Chiralities_Consistent>
1

> <s_lp_Variant>
AV-unprocessed.smi:1240-10

> <Gold.Version>
5.8.1

> <Gold.Id.Protein>
6NUR|6NUR_protein|mol2

> <Gold.PLP.Fitness>
41.9869

> <Gold.PLP.PLP>
-31.0050

> <Gold.PLP.part.hbond>
-3.0000

> <Gold.PLP.part.metal>
0.0000

> <Gold.PLP.part.buried>
-6.7447

> <Gold.PLP.part.nonpolar>
-22.2258

> <Gold.PLP.part.repulsive>
0.2540

> <Gold.PLP.ligand.clash>
0.0000

> <Gold.PLP.ligand.torsion>
0.4366

> <Gold.PLP.Chemscore.Hbond>
3.8320

> <Gold.PLP.Chemscore.CHOScore>
0.0000

> <Gold.PLP.Chemscore.Metal>
0.0000

> <Gold.Chemscore.Hbonds>
donor molecule, donor type, donor heavy atom, donor atom, acceptor molecule, acceptor atom, score
      L1  H    17    43       P1  7948  1.00
      L1  H    21    48       P1 10186  2.00

> <Gold.PLP.Chemscore.Internal.Correction>
0.3590

> <Gold.Rescore>
     Score         DG    S(hbond)    S(metal)    S(lipo)     H(rot)  DE(clash)    DE(int)     intcor
     15.83     -17.76       2.51        0.00      70.23       1.69       0.13       1.80       ----

> <Gold.Chemscore.Fitness>
15.8294

> <Gold.Chemscore.DG>
-17.7553

> <Gold.Chemscore.ZeroCoef>
-5.4800

> <Gold.Chemscore.Hbond>
2.5114

> <Gold.Chemscore.Metal>
0.0000

> <Gold.Chemscore.Lipo>
70.2271

> <Gold.Chemscore.Internal_Hbond>
0.0000

> <Gold.Chemscore.DEClash>
0.1268

> <Gold.Chemscore.DEInternal>
1.7992

> <Gold.Chemscore.Rot>
1.6912

> <Gold.Chemscore.Internal.Correction>
   9.000000E+99

> <Gold.Chemscore.Hbonds>
donor molecule, donor type, donor heavy atom, donor atom, acceptor molecule, acceptor atom, score
      L1  H    17    43       P1  7948  0.81
      L1  H    21    48       P1 10186  0.70

> <Gold.Chemscore.Hbond.Weighted>
-8.3882

> <Gold.Chemscore.Metal.Weighted>
-0.0000

> <Gold.Chemscore.Lipo.Weighted>
-8.2166

> <Gold.Chemscore.Internal_Hbond.Weighted>
0.0000

> <Gold.Chemscore.DEClash.Weighted>
0.1268

> <Gold.Chemscore.DEInternal.Weighted>
1.7992

> <Gold.Chemscore.Rot.Weighted>
4.3295

> <Gold.Chemscore.Internal.Correction.Weighted>
   9.000000E+99

> <Gold.Protein.RotatedTorsions>
[ 6907 6896 6895 6894 ] final   57.17 input  -60.11 | X-H torsion
[ 7974 7965 7964 7962 ] final -171.32 input  175.53 | X-H torsion
[ 8008 7997 7996 7995 ] final -167.76 input   59.86 | X-H torsion
[ 10167 10162 10161 10158 ] final  127.15 input  -65.29 | X-H torsion
[ 10718 10713 10712 10709 ] final  -54.33 input   66.30 | X-H torsion
[ 10763 10752 10751 10750 ] final  114.67 input  -60.55 | X-H torsion
[ 11005 11000 10999 10996 ] final  142.97 input  -57.11 | X-H torsion

> <Gold.Protein.ActiveResidues>
 VAL166  LYS551  ARG553  GLY616  TRP617  ASP618  TYR619  PRO620  LYS621  CYS622 
 ASP623  PHE694  ASN695  SER759  ASP760  ASP761  ALA762  ILE779  LEU786  VAL792 
 PHE793  MET794  SER795  GLU796  ALA797  LYS798  CYS799  TRP800  GLU811  SER814 

> <Gold.Protein.RotatedAtoms>
  152.3705  134.6740  160.0177 H   0  0  0  0  0  0  0  0  0  0  0  0  # atno 6907 bound_to 6896
  151.7034  133.3306  159.3280 H   0  0  0  0  0  0  0  0  0  0  0  0  # atno 6908 bound_to 6896
  150.7670  134.6530  159.6343 H   0  0  0  0  0  0  0  0  0  0  0  0  # atno 6909 bound_to 6896
  144.7158  140.1939  143.6345 H   0  0  0  0  0  0  0  0  0  0  0  0  # atno 7974 bound_to 7965
  155.8821  140.1010  157.1478 H   0  0  0  0  0  0  0  0  0  0  0  0  # atno 8008 bound_to 7997
  154.4006  140.1327  156.4273 H   0  0  0  0  0  0  0  0  0  0  0  0  # atno 8009 bound_to 7997
  155.7631  140.3462  155.5210 H   0  0  0  0  0  0  0  0  0  0  0  0  # atno 8010 bound_to 7997
  139.5594  144.6871  151.4088 H   0  0  0  0  0  0  0  0  0  0  0  0  # atno 10167 bound_to 10162
  156.1459  130.4153  150.0024 H   0  0  0  0  0  0  0  0  0  0  0  0  # atno 10718 bound_to 10713
  153.5107  135.3618  155.2585 H   0  0  0  0  0  0  0  0  0  0  0  0  # atno 10763 bound_to 10752
  154.8742  135.4022  154.3372 H   0  0  0  0  0  0  0  0  0  0  0  0  # atno 10764 bound_to 10752
  153.4025  135.7075  153.6483 H   0  0  0  0  0  0  0  0  0  0  0  0  # atno 10765 bound_to 10752
  140.0518  134.9252  157.1030 H   0  0  0  0  0  0  0  0  0  0  0  0  # atno 11005 bound_to 11000
  145.8743  139.2288  143.1643 LP  0  0  0  0  0  0  0  0  0  0  0  0  # atno 17320 bound_to 7965
  146.0056  140.8482  142.9997 LP  0  0  0  0  0  0  0  0  0  0  0  0  # atno 17321 bound_to 7965
  140.6871  143.7948  150.7202 LP  0  0  0  0  0  0  0  0  0  0  0  0  # atno 17342 bound_to 10162
  140.1419  143.4434  152.2188 LP  0  0  0  0  0  0  0  0  0  0  0  0  # atno 17343 bound_to 10162
  156.7896  130.9251  151.3646 LP  0  0  0  0  0  0  0  0  0  0  0  0  # atno 17370 bound_to 10713
  157.6616  130.8971  149.9843 LP  0  0  0  0  0  0  0  0  0  0  0  0  # atno 17371 bound_to 10713
  140.3906  134.2189  155.7166 LP  0  0  0  0  0  0  0  0  0  0  0  0  # atno 17394 bound_to 11000
  141.1933  133.8152  157.0802 LP  0  0  0  0  0  0  0  0  0  0  0  0  # atno 17395 bound_to 11000

$$$$
