AV-unprocessed.smi:1481|AV-procd|sdf|5987|dock9
  -GOLD-   22720 6 83D 1   1.00000     0.00000
 Structure written by MMmdl.
 39 40  0  0  0  0  0  0  0  0  1 V2000
  151.5475  136.2163  155.4876 O   0  0  0  0  0  0  0  0  0  0  0  0
  150.3670  135.9871  155.2236 C   0  0  0  0  0  0  0  0  0  0  0  0
  149.5160  136.9006  154.7354 N   0  0  0  0  0  0  0  0  0  0  0  0
  149.8673  138.2843  154.4302 C   0  0  0  0  0  0  0  0  0  0  0  0
  150.4508  139.0583  155.6044 C   0  0  0  0  0  0  0  0  0  0  0  0
  149.6379  139.7712  156.5106 C   0  0  0  0  0  0  0  0  0  0  0  0
  150.2452  140.4657  157.5738 C   0  0  0  0  0  0  0  0  0  0  0  0
  151.6535  140.4295  157.7084 C   0  0  0  0  0  0  0  0  0  0  0  0
  152.2849  141.1265  158.7619 N   0  0  0  0  0  0  0  0  0  0  0  0
  151.4720  142.0420  159.5609 C   0  0  0  0  0  0  0  0  0  0  0  0
  152.3680  142.9113  160.4589 C   0  0  0  0  0  0  0  0  0  0  0  0
  153.1995  142.0767  161.2580 O   0  0  0  0  0  0  0  0  0  0  0  0
  154.0628  141.2728  160.4612 C   0  0  0  0  0  0  0  0  0  0  0  0
  153.2292  140.3465  159.5588 C   0  0  0  0  0  0  0  0  0  0  0  0
  152.4293  139.7283  156.8449 N   0  0  0  0  0  0  0  0  0  0  0  0
  151.8423  139.0660  155.8262 C   0  0  0  0  0  0  0  0  0  0  0  0
  149.7805  134.7925  155.3779 N   0  0  0  0  0  0  0  0  0  0  0  0
  150.4547  133.5841  155.8412 C   0  0  0  0  0  0  0  0  0  0  0  0
  149.8787  132.3173  155.1856 C   0  0  0  0  0  0  0  0  0  0  0  0
  149.3226  132.6431  154.0197 F   0  0  0  0  0  0  0  0  0  0  0  0
  150.8505  131.4323  154.9623 F   0  0  0  0  0  0  0  0  0  0  0  0
  148.9475  131.7597  155.9595 F   0  0  0  0  0  0  0  0  0  0  0  0
  148.5645  136.6191  154.5501 H   0  0  0  0  0  0  0  0  0  0  0  0
  150.6034  138.2784  153.6260 H   0  0  0  0  0  0  0  0  0  0  0  0
  148.9910  138.8068  154.0424 H   0  0  0  0  0  0  0  0  0  0  0  0
  148.5638  139.7894  156.4011 H   0  0  0  0  0  0  0  0  0  0  0  0
  149.6260  141.0032  158.2761 H   0  0  0  0  0  0  0  0  0  0  0  0
  150.8796  142.6870  158.9107 H   0  0  0  0  0  0  0  0  0  0  0  0
  150.7761  141.4667  160.1734 H   0  0  0  0  0  0  0  0  0  0  0  0
  152.9803  143.5876  159.8600 H   0  0  0  0  0  0  0  0  0  0  0  0
  151.7550  143.5321  161.1125 H   0  0  0  0  0  0  0  0  0  0  0  0
  154.7206  141.9074  159.8646 H   0  0  0  0  0  0  0  0  0  0  0  0
  154.7017  140.6812  161.1168 H   0  0  0  0  0  0  0  0  0  0  0  0
  152.6705  139.6358  160.1693 H   0  0  0  0  0  0  0  0  0  0  0  0
  153.9034  139.7640  158.9326 H   0  0  0  0  0  0  0  0  0  0  0  0
  152.5068  138.5280  155.1662 H   0  0  0  0  0  0  0  0  0  0  0  0
  148.8058  134.7032  155.1308 H   0  0  0  0  0  0  0  0  0  0  0  0
  151.5292  133.6508  155.6618 H   0  0  0  0  0  0  0  0  0  0  0  0
  150.3288  133.5262  156.9226 H   0  0  0  0  0  0  0  0  0  0  0  0
  1  2  2  0  0  0  0
  2  3  1  0  0  0  0
  2 17  1  0  0  0  0
  3  4  1  0  0  0  0
  3 23  1  0  0  0  0
  4  5  1  0  0  0  0
  4 24  1  0  0  0  0
  4 25  1  0  0  0  0
  5 16  1  0  0  0  0
  5  6  2  0  0  0  0
  6  7  1  0  0  0  0
  6 26  1  0  0  0  0
  7  8  2  0  0  0  0
  7 27  1  0  0  0  0
  8  9  1  0  0  0  0
  8 15  1  0  0  0  0
  9 14  1  0  0  0  0
  9 10  1  0  0  0  0
 10 11  1  0  0  0  0
 10 28  1  0  0  0  0
 10 29  1  0  0  0  0
 11 12  1  0  0  0  0
 11 30  1  0  0  0  0
 11 31  1  0  0  0  0
 12 13  1  0  0  0  0
 13 14  1  0  0  0  0
 13 32  1  0  0  0  0
 13 33  1  0  0  0  0
 14 34  1  0  0  0  0
 14 35  1  0  0  0  0
 15 16  2  0  0  0  0
 16 36  1  0  0  0  0
 17 18  1  0  0  0  0
 17 37  1  0  0  0  0
 18 19  1  0  0  0  0
 18 38  1  0  0  0  0
 18 39  1  0  0  0  0
 19 20  1  0  0  0  0
 19 21  1  0  0  0  0
 19 22  1  0  0  0  0
M  END
> <s_m_source_file>
AV-unprocessed.smi

> <i_m_source_file_index>
1481

> <i_lp_mmshare_version>
43012

> <i_f3d_flags>
0

> <s_epik_input>
RkMoRikoRilbQ0gyXVtOSF1DKD1PKVtOSF1bQ0gyXWMxW2NIXVtjSF1jKG5bY0hdMSlOMltDSDJdW0NIMl1PW0NIMl1bQ0gyXTI=

> <s_epik_cmdline>
J2VwaWtfcHl0aG9uJywgJy1waCcsICc3LjAnLCAnLXRuJywgJzgnLCAnLW1hJywgJzIwMCcsICctbWV0YWxfYmluZGluZycsICctaW1hZScsICc8aW5maWxlLm1hZT4nLCAnLW9tYWUnLCAnPG91dGZpbGUubWFlPic=

> <r_lp_tautomer_probability>
1

> <r_epik_Ionization_Penalty>
0.00288034

> <r_epik_Ionization_Penalty_Charging>
0

> <r_epik_Ionization_Penalty_Neutral>
0.00288034

> <r_epik_State_Penalty>
0.00199456

> <r_epik_Charging_Adjusted_Penalty>
0.00199456

> <i_epik_Tot_Q>
0

> <i_epik_Tot_abs_Q>
0

> <r_epik_Metal_State_Penalty>
-0

> <b_epik_Metal_Only>
0

> <s_lp_Force_Field>
OPLS_2005

> <r_lp_Energy>
12.6538

> <b_lp_Chiralities_Consistent>
1

> <s_lp_Variant>
AV-unprocessed.smi:1481-1

> <Gold.Version>
5.8.1

> <Gold.Id.Protein>
6NUR|6NUR_protein|mol2

> <Gold.PLP.Fitness>
46.4420

> <Gold.PLP.PLP>
-41.5028

> <Gold.PLP.part.hbond>
-4.2561

> <Gold.PLP.part.metal>
0.0000

> <Gold.PLP.part.buried>
-5.0011

> <Gold.PLP.part.nonpolar>
-32.7722

> <Gold.PLP.part.repulsive>
0.2008

> <Gold.PLP.ligand.clash>
0.0000

> <Gold.PLP.ligand.torsion>
1.4465

> <Gold.PLP.Chemscore.Hbond>
2.4960

> <Gold.PLP.Chemscore.CHOScore>
0.0000

> <Gold.PLP.Chemscore.Metal>
0.0000

> <Gold.Chemscore.Hbonds>
donor molecule, donor type, donor heavy atom, donor atom, acceptor molecule, acceptor atom, score
      P1  H  7997  8009       L1    15  1.00
      P1  H 10752 10763       L1     1  1.00

> <Gold.PLP.Chemscore.Internal.Correction>
0.3441

> <Gold.Rescore>
     Score         DG    S(hbond)    S(metal)    S(lipo)     H(rot)  DE(clash)    DE(int)     intcor
     15.69     -17.15       2.19        0.00      82.86       2.09       0.19       1.28       ----

> <Gold.Chemscore.Fitness>
15.6865

> <Gold.Chemscore.DG>
-17.1482

> <Gold.Chemscore.ZeroCoef>
-5.4800

> <Gold.Chemscore.Hbond>
2.1928

> <Gold.Chemscore.Metal>
0.0000

> <Gold.Chemscore.Lipo>
82.8593

> <Gold.Chemscore.Internal_Hbond>
0.0000

> <Gold.Chemscore.DEClash>
0.1860

> <Gold.Chemscore.DEInternal>
1.2757

> <Gold.Chemscore.Rot>
2.0899

> <Gold.Chemscore.Internal.Correction>
   9.000000E+99

> <Gold.Chemscore.Hbonds>
donor molecule, donor type, donor heavy atom, donor atom, acceptor molecule, acceptor atom, score
      P1  H  7997  8009       L1    15  0.86
      P1  H 10752 10763       L1     1  1.00

> <Gold.Chemscore.Hbond.Weighted>
-7.3239

> <Gold.Chemscore.Metal.Weighted>
-0.0000

> <Gold.Chemscore.Lipo.Weighted>
-9.6945

> <Gold.Chemscore.Internal_Hbond.Weighted>
0.0000

> <Gold.Chemscore.DEClash.Weighted>
0.1860

> <Gold.Chemscore.DEInternal.Weighted>
1.2757

> <Gold.Chemscore.Rot.Weighted>
5.3502

> <Gold.Chemscore.Internal.Correction.Weighted>
   9.000000E+99

> <Gold.Protein.RotatedTorsions>
[ 6907 6896 6895 6894 ] final  -31.01 input  -60.11 | X-H torsion
[ 7974 7965 7964 7962 ] final  -76.43 input  175.53 | X-H torsion
[ 8008 7997 7996 7995 ] final -175.27 input   59.86 | X-H torsion
[ 10167 10162 10161 10158 ] final  -45.31 input  -65.29 | X-H torsion
[ 10718 10713 10712 10709 ] final  149.47 input   66.30 | X-H torsion
[ 10763 10752 10751 10750 ] final   66.34 input  -60.55 | X-H torsion
[ 11005 11000 10999 10996 ] final  -88.29 input  -57.11 | X-H torsion

> <Gold.Protein.ActiveResidues>
 VAL166  LYS551  ARG553  GLY616  TRP617  ASP618  TYR619  PRO620  LYS621  CYS622 
 ASP623  PHE694  ASN695  SER759  ASP760  ASP761  ALA762  ILE779  LEU786  VAL792 
 PHE793  MET794  SER795  GLU796  ALA797  LYS798  CYS799  TRP800  GLU811  SER814 

> <Gold.Protein.RotatedAtoms>
  151.0978  134.9954  159.8433 H   0  0  0  0  0  0  0  0  0  0  0  0  # atno 6907 bound_to 6896
  152.5434  134.1987  159.8713 H   0  0  0  0  0  0  0  0  0  0  0  0  # atno 6908 bound_to 6896
  151.2028  133.4557  159.2630 H   0  0  0  0  0  0  0  0  0  0  0  0  # atno 6909 bound_to 6896
  145.6130  140.9382  143.1179 H   0  0  0  0  0  0  0  0  0  0  0  0  # atno 7974 bound_to 7965
  155.9805  140.1181  157.0730 H   0  0  0  0  0  0  0  0  0  0  0  0  # atno 8008 bound_to 7997
  154.4181  140.1145  156.5497 H   0  0  0  0  0  0  0  0  0  0  0  0  # atno 8009 bound_to 7997
  155.6477  140.3473  155.4739 H   0  0  0  0  0  0  0  0  0  0  0  0  # atno 8010 bound_to 7997
  140.6863  143.2886  151.3621 H   0  0  0  0  0  0  0  0  0  0  0  0  # atno 10167 bound_to 10162
  157.2956  131.0861  151.1429 H   0  0  0  0  0  0  0  0  0  0  0  0  # atno 10718 bound_to 10713
  153.0136  135.5324  154.6808 H   0  0  0  0  0  0  0  0  0  0  0  0  # atno 10763 bound_to 10752
  154.5969  135.2864  155.0579 H   0  0  0  0  0  0  0  0  0  0  0  0  # atno 10764 bound_to 10752
  154.1651  135.6541  153.5048 H   0  0  0  0  0  0  0  0  0  0  0  0  # atno 10765 bound_to 10752
  141.1604  133.7561  156.9430 H   0  0  0  0  0  0  0  0  0  0  0  0  # atno 11005 bound_to 11000
  144.7262  139.7868  143.7364 LP  0  0  0  0  0  0  0  0  0  0  0  0  # atno 17320 bound_to 7965
  146.1490  139.4567  143.0061 LP  0  0  0  0  0  0  0  0  0  0  0  0  # atno 17321 bound_to 7965
  139.6224  144.0880  152.2403 LP  0  0  0  0  0  0  0  0  0  0  0  0  # atno 17342 bound_to 10162
  140.0329  144.6067  150.7473 LP  0  0  0  0  0  0  0  0  0  0  0  0  # atno 17343 bound_to 10162
  157.2808  130.6749  149.6065 LP  0  0  0  0  0  0  0  0  0  0  0  0  # atno 17370 bound_to 10713
  155.9669  130.4450  150.5485 LP  0  0  0  0  0  0  0  0  0  0  0  0  # atno 17371 bound_to 10713
  140.1308  134.9357  157.2335 LP  0  0  0  0  0  0  0  0  0  0  0  0  # atno 17394 bound_to 11000
  140.2955  134.3191  155.7303 LP  0  0  0  0  0  0  0  0  0  0  0  0  # atno 17395 bound_to 11000

$$$$
