AV-unprocessed.smi:324|AV-procd|sdf|2340|dock1
  -GOLD-   2262022253D 1   1.00000     0.00000
 Structure written by MMmdl.
 25 26  0  0  0  0  0  0  0  0  1 V2000
  148.1168  142.2905  156.8891 O   0  0  0  0  0  0  0  0  0  0  0  0
  148.5984  141.3621  155.9398 C   0  0  0  0  0  0  0  0  0  0  0  0
  150.0266  141.7175  155.4929 C   0  0  0  0  0  0  0  0  0  0  0  0
  151.0533  141.0914  156.3177 N   0  0  0  0  0  0  0  0  0  0  0  0
  151.7780  139.9699  156.0668 C   0  0  0  0  0  0  0  0  0  0  0  0
  151.6358  139.1707  154.8073 C   0  0  0  0  0  0  0  0  0  0  0  0
  153.2253  138.9326  154.0375 Cl  0  0  0  0  0  0  0  0  0  0  0  0
  152.6569  139.6255  157.0085 N   0  0  0  0  0  0  0  0  0  0  0  0
  152.4880  140.6115  157.9599 C   0  0  0  0  0  0  0  0  0  0  0  0
  153.1323  140.8072  159.2023 C   0  0  0  0  0  0  0  0  0  0  0  0
  152.7906  141.9053  160.0188 C   0  0  0  0  0  0  0  0  0  0  0  0
  153.5878  142.1300  161.5322 Cl  0  0  0  0  0  0  0  0  0  0  0  0
  151.8017  142.8210  159.6041 C   0  0  0  0  0  0  0  0  0  0  0  0
  151.1475  142.6438  158.3698 C   0  0  0  0  0  0  0  0  0  0  0  0
  151.4917  141.5454  157.5589 C   0  0  0  0  0  0  0  0  0  0  0  0
  148.3620  143.1599  156.6110 H   0  0  0  0  0  0  0  0  0  0  0  0
  148.5819  140.3669  156.3844 H   0  0  0  0  0  0  0  0  0  0  0  0
  147.9189  141.3410  155.0890 H   0  0  0  0  0  0  0  0  0  0  0  0
  150.1751  141.4049  154.4588 H   0  0  0  0  0  0  0  0  0  0  0  0
  150.1703  142.7972  155.4940 H   0  0  0  0  0  0  0  0  0  0  0  0
  151.2258  138.1865  155.0362 H   0  0  0  0  0  0  0  0  0  0  0  0
  150.9725  139.6492  154.0890 H   0  0  0  0  0  0  0  0  0  0  0  0
  153.8917  140.1110  159.5259 H   0  0  0  0  0  0  0  0  0  0  0  0
  151.5452  143.6614  160.2325 H   0  0  0  0  0  0  0  0  0  0  0  0
  150.3931  143.3465  158.0490 H   0  0  0  0  0  0  0  0  0  0  0  0
  1  2  1  0  0  0  0
  1 16  1  0  0  0  0
  2  3  1  0  0  0  0
  2 17  1  0  0  0  0
  2 18  1  0  0  0  0
  3  4  1  0  0  0  0
  3 19  1  0  0  0  0
  3 20  1  0  0  0  0
  4 15  1  0  0  0  0
  4  5  1  0  0  0  0
  5  6  1  0  0  0  0
  5  8  2  0  0  0  0
  6  7  1  0  0  0  0
  6 21  1  0  0  0  0
  6 22  1  0  0  0  0
  8  9  1  0  0  0  0
  9 15  2  0  0  0  0
  9 10  1  0  0  0  0
 10 11  2  0  0  0  0
 10 23  1  0  0  0  0
 11 12  1  0  0  0  0
 11 13  1  0  0  0  0
 13 14  2  0  0  0  0
 13 24  1  0  0  0  0
 14 15  1  0  0  0  0
 14 25  1  0  0  0  0
M  END
> <s_m_source_file>
AV-unprocessed.smi

> <i_m_source_file_index>
324

> <i_lp_mmshare_version>
43012

> <i_f3d_flags>
0

> <s_epik_input>
W09IXVtDSDJdW0NIMl1uKGMobjEpW0NIMl1DbCljKGMxMilbY0hdW2NIXWMoQ2wpW2NIXTI=

> <s_epik_cmdline>
J2VwaWtfcHl0aG9uJywgJy1waCcsICc3LjAnLCAnLXRuJywgJzgnLCAnLW1hJywgJzIwMCcsICctbWV0YWxfYmluZGluZycsICctaW1hZScsICc8aW5maWxlLm1hZT4nLCAnLW9tYWUnLCAnPG91dGZpbGUubWFlPic=

> <r_epik_Ionization_Penalty>
0.00660302

> <r_epik_Ionization_Penalty_Charging>
0

> <r_epik_Ionization_Penalty_Neutral>
0.00660302

> <r_epik_State_Penalty>
0.00489244

> <r_epik_Charging_Adjusted_Penalty>
0.00489244

> <i_epik_Tot_Q>
0

> <i_epik_Tot_abs_Q>
0

> <r_epik_Metal_State_Penalty>
-0

> <b_epik_Metal_Only>
0

> <s_lp_Force_Field>
OPLS_2005

> <r_lp_Energy>
6.37425

> <b_lp_Chiralities_Consistent>
1

> <s_lp_Variant>
AV-unprocessed.smi:324-1

> <Gold.Version>
5.8.1

> <Gold.Id.Protein>
6NUR|6NUR_protein|mol2

> <Gold.PLP.Fitness>
39.8553

> <Gold.PLP.PLP>
-34.9346

> <Gold.PLP.part.hbond>
-2.0000

> <Gold.PLP.part.metal>
0.0000

> <Gold.PLP.part.buried>
-3.3811

> <Gold.PLP.part.nonpolar>
-28.4554

> <Gold.PLP.part.repulsive>
0.0000

> <Gold.PLP.ligand.clash>
0.0000

> <Gold.PLP.ligand.torsion>
0.5414

> <Gold.PLP.Chemscore.Hbond>
2.0000

> <Gold.PLP.Chemscore.CHOScore>
0.0000

> <Gold.PLP.Chemscore.Metal>
0.0000

> <Gold.Chemscore.Hbonds>
donor molecule, donor type, donor heavy atom, donor atom, acceptor molecule, acceptor atom, score
      L1  H     1    16       P1  8028  1.00
      P1  H  7997  8010       L1     8  0.75

> <Gold.PLP.Chemscore.Internal.Correction>
0.0036

> <Gold.Rescore>
     Score         DG    S(hbond)    S(metal)    S(lipo)     H(rot)  DE(clash)    DE(int)     intcor
     14.51     -15.05       1.04        0.00      93.15       1.88       0.03       0.50       ----

> <Gold.Chemscore.Fitness>
14.5090

> <Gold.Chemscore.DG>
-15.0456

> <Gold.Chemscore.ZeroCoef>
-5.4800

> <Gold.Chemscore.Hbond>
1.0415

> <Gold.Chemscore.Metal>
0.0000

> <Gold.Chemscore.Lipo>
93.1462

> <Gold.Chemscore.Internal_Hbond>
0.0000

> <Gold.Chemscore.DEClash>
0.0348

> <Gold.Chemscore.DEInternal>
0.5018

> <Gold.Chemscore.Rot>
1.8794

> <Gold.Chemscore.Internal.Correction>
   9.000000E+99

> <Gold.Chemscore.Hbonds>
donor molecule, donor type, donor heavy atom, donor atom, acceptor molecule, acceptor atom, score
      L1  H     1    16       P1  8028  0.50
      P1  H  7997  8010       L1     8  0.08

> <Gold.Chemscore.Hbond.Weighted>
-3.4787

> <Gold.Chemscore.Metal.Weighted>
-0.0000

> <Gold.Chemscore.Lipo.Weighted>
-10.8981

> <Gold.Chemscore.Internal_Hbond.Weighted>
0.0000

> <Gold.Chemscore.DEClash.Weighted>
0.0348

> <Gold.Chemscore.DEInternal.Weighted>
0.5018

> <Gold.Chemscore.Rot.Weighted>
4.8112

> <Gold.Chemscore.Internal.Correction.Weighted>
   9.000000E+99

> <Gold.Protein.RotatedTorsions>
[ 6907 6896 6895 6894 ] final  144.86 input  -60.11 | X-H torsion
[ 7974 7965 7964 7962 ] final   67.62 input  175.53 | X-H torsion
[ 8008 7997 7996 7995 ] final   63.51 input   59.86 | X-H torsion
[ 10167 10162 10161 10158 ] final -123.12 input  -65.29 | X-H torsion
[ 10718 10713 10712 10709 ] final   17.25 input   66.30 | X-H torsion
[ 10763 10752 10751 10750 ] final -114.98 input  -60.55 | X-H torsion
[ 11005 11000 10999 10996 ] final  -51.07 input  -57.11 | X-H torsion

> <Gold.Protein.ActiveResidues>
 VAL166  LYS551  ARG553  GLY616  TRP617  ASP618  TYR619  PRO620  LYS621  CYS622 
 ASP623  PHE694  ASN695  SER759  ASP760  ASP761  ALA762  ILE779  LEU786  VAL792 
 PHE793  MET794  SER795  GLU796  ALA797  LYS798  CYS799  TRP800  GLU811  SER814 

> <Gold.Protein.RotatedAtoms>
  152.1883  133.4755  159.4993 H   0  0  0  0  0  0  0  0  0  0  0  0  # atno 6907 bound_to 6896
  150.6946  134.1745  159.4234 H   0  0  0  0  0  0  0  0  0  0  0  0  # atno 6908 bound_to 6896
  151.9659  135.0100  160.0601 H   0  0  0  0  0  0  0  0  0  0  0  0  # atno 6909 bound_to 6896
  145.8125  139.3040  143.1091 H   0  0  0  0  0  0  0  0  0  0  0  0  # atno 7974 bound_to 7965
  155.6313  140.3496  155.4684 H   0  0  0  0  0  0  0  0  0  0  0  0  # atno 8008 bound_to 7997
  156.0001  140.1211  157.0579 H   0  0  0  0  0  0  0  0  0  0  0  0  # atno 8009 bound_to 7997
  154.4246  140.1102  156.5671 H   0  0  0  0  0  0  0  0  0  0  0  0  # atno 8010 bound_to 7997
  140.0069  143.5482  152.2280 H   0  0  0  0  0  0  0  0  0  0  0  0  # atno 10167 bound_to 10162
  157.0794  130.6381  149.5823 H   0  0  0  0  0  0  0  0  0  0  0  0  # atno 10718 bound_to 10713
  154.8462  135.4398  154.1590 H   0  0  0  0  0  0  0  0  0  0  0  0  # atno 10763 bound_to 10752
  153.2732  135.6947  153.7466 H   0  0  0  0  0  0  0  0  0  0  0  0  # atno 10764 bound_to 10752
  153.6698  135.3421  155.3125 H   0  0  0  0  0  0  0  0  0  0  0  0  # atno 10765 bound_to 10752
  141.0851  133.6644  156.3823 H   0  0  0  0  0  0  0  0  0  0  0  0  # atno 11005 bound_to 11000
  145.9762  140.8720  143.0137 LP  0  0  0  0  0  0  0  0  0  0  0  0  # atno 17320 bound_to 7965
  144.6756  140.2015  143.7386 LP  0  0  0  0  0  0  0  0  0  0  0  0  # atno 17321 bound_to 7965
  139.6232  144.7633  151.2695 LP  0  0  0  0  0  0  0  0  0  0  0  0  # atno 17342 bound_to 10162
  140.7397  143.6611  150.8164 LP  0  0  0  0  0  0  0  0  0  0  0  0  # atno 17343 bound_to 10162
  155.9928  130.4987  150.7354 LP  0  0  0  0  0  0  0  0  0  0  0  0  # atno 17370 bound_to 10713
  157.4812  131.0902  151.0533 LP  0  0  0  0  0  0  0  0  0  0  0  0  # atno 17371 bound_to 10713
  140.5382  134.6146  157.5371 LP  0  0  0  0  0  0  0  0  0  0  0  0  # atno 17394 bound_to 11000
  139.9668  134.7359  156.0122 LP  0  0  0  0  0  0  0  0  0  0  0  0  # atno 17395 bound_to 11000

$$$$
