AV-unprocessed.smi:2977|AV-procd|sdf|11367|dock6
  -GOLD-   2272016283D 1   1.00000     0.00000
 Structure written by MMmdl.
 38 39  0  0  0  0  0  0  0  0  1 V2000
  154.7686  138.4828  159.3431 O   0  0  0  0  0  0  0  0  0  0  0  0
  154.0805  138.4551  160.3637 C   0  0  0  0  0  0  0  0  0  0  0  0
  153.3153  137.1813  160.7422 C   0  0  0  0  0  0  0  0  0  0  0  0
  154.0416  136.3818  161.7380 N   0  0  0  0  0  0  0  0  0  0  0  0
  154.0703  136.9386  163.0047 N   0  0  0  0  0  0  0  0  0  0  0  0
  154.6526  136.3035  163.9626 C   0  0  0  0  0  0  0  0  0  0  0  0
  155.2899  135.0205  163.7615 C   0  0  0  0  0  0  0  0  0  0  0  0
  156.0536  134.2146  165.0859 Cl  0  0  0  0  0  0  0  0  0  0  0  0
  155.2669  134.4902  162.5130 C   0  0  0  0  0  0  0  0  0  0  0  0
  156.0130  132.9623  162.1922 Cl  0  0  0  0  0  0  0  0  0  0  0  0
  154.6147  135.1872  161.3961 C   0  0  0  0  0  0  0  0  0  0  0  0
  154.5804  134.7451  160.2472 O   0  0  0  0  0  0  0  0  0  0  0  0
  153.9372  139.5047  161.1865 N   0  0  0  0  0  0  0  0  0  0  0  0
  154.5756  140.8070  161.0165 C   0  0  0  0  0  0  0  0  0  0  0  0
  154.1512  141.5388  159.7250 C   0  0  0  0  0  0  0  0  0  0  0  0
  153.2091  142.7127  159.9504 C   0  0  0  0  0  0  0  0  0  0  0  0
  152.7757  143.0529  161.1802 C   0  0  0  0  0  0  0  0  0  0  0  0
  151.8281  144.2050  161.4624 C   0  0  0  0  0  0  0  0  0  0  0  0
  151.1378  144.7204  160.1887 C   0  0  0  0  0  0  0  0  0  0  0  0
  152.1340  144.8379  159.0285 C   0  0  0  0  0  0  0  0  0  0  0  0
  152.7830  143.4800  158.7044 C   0  0  0  0  0  0  0  0  0  0  0  0
  152.3155  137.4287  161.1047 H   0  0  0  0  0  0  0  0  0  0  0  0
  153.1576  136.5990  159.8328 H   0  0  0  0  0  0  0  0  0  0  0  0
  154.6961  136.6996  164.9773 H   0  0  0  0  0  0  0  0  0  0  0  0
  153.3510  139.3896  162.0007 H   0  0  0  0  0  0  0  0  0  0  0  0
  154.3726  141.4325  161.8868 H   0  0  0  0  0  0  0  0  0  0  0  0
  155.6533  140.6433  161.0043 H   0  0  0  0  0  0  0  0  0  0  0  0
  155.0414  141.8928  159.2038 H   0  0  0  0  0  0  0  0  0  0  0  0
  153.6723  140.8329  159.0460 H   0  0  0  0  0  0  0  0  0  0  0  0
  153.1114  142.4946  162.0419 H   0  0  0  0  0  0  0  0  0  0  0  0
  151.0798  143.8856  162.1873 H   0  0  0  0  0  0  0  0  0  0  0  0
  152.4014  145.0053  161.9309 H   0  0  0  0  0  0  0  0  0  0  0  0
  150.3375  144.0365  159.9036 H   0  0  0  0  0  0  0  0  0  0  0  0
  150.6650  145.6830  160.3846 H   0  0  0  0  0  0  0  0  0  0  0  0
  151.6388  145.2343  158.1418 H   0  0  0  0  0  0  0  0  0  0  0  0
  152.9096  145.5569  159.2957 H   0  0  0  0  0  0  0  0  0  0  0  0
  153.6474  143.6349  158.0579 H   0  0  0  0  0  0  0  0  0  0  0  0
  152.0798  142.8590  158.1488 H   0  0  0  0  0  0  0  0  0  0  0  0
  1  2  2  0  0  0  0
  2  3  1  0  0  0  0
  2 13  1  0  0  0  0
  3  4  1  0  0  0  0
  3 22  1  0  0  0  0
  3 23  1  0  0  0  0
  4 11  1  0  0  0  0
  4  5  1  0  0  0  0
  5  6  2  0  0  0  0
  6  7  1  0  0  0  0
  6 24  1  0  0  0  0
  7  8  1  0  0  0  0
  7  9  2  0  0  0  0
  9 10  1  0  0  0  0
  9 11  1  0  0  0  0
 11 12  2  0  0  0  0
 13 14  1  0  0  0  0
 13 25  1  0  0  0  0
 14 15  1  0  0  0  0
 14 26  1  0  0  0  0
 14 27  1  0  0  0  0
 15 16  1  0  0  0  0
 15 28  1  0  0  0  0
 15 29  1  0  0  0  0
 16 21  1  0  0  0  0
 16 17  2  0  0  0  0
 17 18  1  0  0  0  0
 17 30  1  0  0  0  0
 18 19  1  0  0  0  0
 18 31  1  0  0  0  0
 18 32  1  0  0  0  0
 19 20  1  0  0  0  0
 19 33  1  0  0  0  0
 19 34  1  0  0  0  0
 20 21  1  0  0  0  0
 20 35  1  0  0  0  0
 20 36  1  0  0  0  0
 21 37  1  0  0  0  0
 21 38  1  0  0  0  0
M  END
> <s_m_source_file>
AV-unprocessed.smi

> <i_m_source_file_index>
2977

> <i_lp_mmshare_version>
43012

> <i_f3d_flags>
0

> <s_epik_input>
Tz1jMWMoQ2wpYyhDbClbY0hdbm4xW0NIMl1DKD1PKVtOSF1bQ0gyXVtDSDJdQzI9W0NIXVtDSDJdW0NIMl1bQ0gyXVtDSDJdMg==

> <s_epik_cmdline>
J2VwaWtfcHl0aG9uJywgJy1waCcsICc3LjAnLCAnLXRuJywgJzgnLCAnLW1hJywgJzIwMCcsICctbWV0YWxfYmluZGluZycsICctaW1hZScsICc8aW5maWxlLm1hZT4nLCAnLW9tYWUnLCAnPG91dGZpbGUubWFlPic=

> <r_lp_tautomer_probability>
1

> <r_epik_Ionization_Penalty>
1.81325e-08

> <r_epik_Ionization_Penalty_Charging>
2.89782e-11

> <r_epik_Ionization_Penalty_Neutral>
1.81035e-08

> <r_epik_State_Penalty>
-0

> <r_epik_Charging_Adjusted_Penalty>
2.89782e-11

> <i_epik_Tot_Q>
0

> <i_epik_Tot_abs_Q>
0

> <r_epik_Metal_State_Penalty>
-0

> <b_epik_Metal_Only>
0

> <s_lp_Force_Field>
OPLS_2005

> <r_lp_Energy>
20.3958

> <b_lp_Chiralities_Consistent>
1

> <s_lp_Variant>
AV-unprocessed.smi:2977-1

> <Gold.Version>
5.8.1

> <Gold.Id.Protein>
6NUR|6NUR_protein|mol2

> <Gold.PLP.Fitness>
45.7245

> <Gold.PLP.PLP>
-44.2827

> <Gold.PLP.part.hbond>
-0.9891

> <Gold.PLP.part.metal>
0.0000

> <Gold.PLP.part.buried>
-4.6470

> <Gold.PLP.part.nonpolar>
-38.7728

> <Gold.PLP.part.repulsive>
0.0256

> <Gold.PLP.ligand.clash>
0.0000

> <Gold.PLP.ligand.torsion>
0.7624

> <Gold.PLP.Chemscore.Hbond>
0.9750

> <Gold.PLP.Chemscore.CHOScore>
0.0000

> <Gold.PLP.Chemscore.Metal>
0.0000

> <Gold.Chemscore.Hbonds>
donor molecule, donor type, donor heavy atom, donor atom, acceptor molecule, acceptor atom, score
      P1  H  6896  6908       L1    12  0.93

> <Gold.PLP.Chemscore.Internal.Correction>
0.0416

> <Gold.Rescore>
     Score         DG    S(hbond)    S(metal)    S(lipo)     H(rot)  DE(clash)    DE(int)     intcor
     18.04     -18.72       0.96        0.00     127.07       1.89       0.05       0.64       ----

> <Gold.Chemscore.Fitness>
18.0358

> <Gold.Chemscore.DG>
-18.7178

> <Gold.Chemscore.ZeroCoef>
-5.4800

> <Gold.Chemscore.Hbond>
0.9621

> <Gold.Chemscore.Metal>
0.0000

> <Gold.Chemscore.Lipo>
127.0679

> <Gold.Chemscore.Internal_Hbond>
0.0000

> <Gold.Chemscore.DEClash>
0.0460

> <Gold.Chemscore.DEInternal>
0.6360

> <Gold.Chemscore.Rot>
1.8916

> <Gold.Chemscore.Internal.Correction>
   9.000000E+99

> <Gold.Chemscore.Hbonds>
donor molecule, donor type, donor heavy atom, donor atom, acceptor molecule, acceptor atom, score
      P1  H  6896  6908       L1    12  0.31

> <Gold.Chemscore.Hbond.Weighted>
-3.2133

> <Gold.Chemscore.Metal.Weighted>
-0.0000

> <Gold.Chemscore.Lipo.Weighted>
-14.8669

> <Gold.Chemscore.Internal_Hbond.Weighted>
0.0000

> <Gold.Chemscore.DEClash.Weighted>
0.0460

> <Gold.Chemscore.DEInternal.Weighted>
0.6360

> <Gold.Chemscore.Rot.Weighted>
4.8425

> <Gold.Chemscore.Internal.Correction.Weighted>
   9.000000E+99

> <Gold.Protein.RotatedTorsions>
[ 6907 6896 6895 6894 ] final  -45.90 input  -60.11 | X-H torsion
[ 7974 7965 7964 7962 ] final  -74.53 input  175.53 | X-H torsion
[ 8008 7997 7996 7995 ] final  -42.60 input   59.86 | X-H torsion
[ 10167 10162 10161 10158 ] final -146.47 input  -65.29 | X-H torsion
[ 10718 10713 10712 10709 ] final   77.50 input   66.30 | X-H torsion
[ 10763 10752 10751 10750 ] final -155.12 input  -60.55 | X-H torsion
[ 11005 11000 10999 10996 ] final   51.71 input  -57.11 | X-H torsion

> <Gold.Protein.ActiveResidues>
 VAL166  LYS551  ARG553  GLY616  TRP617  ASP618  TYR619  PRO620  LYS621  CYS622 
 ASP623  PHE694  ASN695  SER759  ASP760  ASP761  ALA762  ILE779  LEU786  VAL792 
 PHE793  MET794  SER795  GLU796  ALA797  LYS798  CYS799  TRP800  GLU811  SER814 

> <Gold.Protein.RotatedAtoms>
  150.9169  134.8587  159.7462 H   0  0  0  0  0  0  0  0  0  0  0  0  # atno 6907 bound_to 6896
  152.4973  134.4275  159.9511 H   0  0  0  0  0  0  0  0  0  0  0  0  # atno 6908 bound_to 6896
  151.4313  133.3630  159.2804 H   0  0  0  0  0  0  0  0  0  0  0  0  # atno 6909 bound_to 6896
  145.6378  140.9319  143.1052 H   0  0  0  0  0  0  0  0  0  0  0  0  # atno 7974 bound_to 7965
  154.3998  140.1469  156.3382 H   0  0  0  0  0  0  0  0  0  0  0  0  # atno 8008 bound_to 7997
  155.8381  140.3463  155.5593 H   0  0  0  0  0  0  0  0  0  0  0  0  # atno 8009 bound_to 7997
  155.8116  140.0885  157.1891 H   0  0  0  0  0  0  0  0  0  0  0  0  # atno 8010 bound_to 7997
  139.7710  143.8237  152.2624 H   0  0  0  0  0  0  0  0  0  0  0  0  # atno 10167 bound_to 10162
  157.6712  130.9824  150.1650 H   0  0  0  0  0  0  0  0  0  0  0  0  # atno 10718 bound_to 10713
  154.7810  135.3175  154.7989 H   0  0  0  0  0  0  0  0  0  0  0  0  # atno 10763 bound_to 10752
  153.8700  135.6845  153.4779 H   0  0  0  0  0  0  0  0  0  0  0  0  # atno 10764 bound_to 10752
  153.1447  135.4724  154.9485 H   0  0  0  0  0  0  0  0  0  0  0  0  # atno 10765 bound_to 10752
  140.0910  134.5209  155.8852 H   0  0  0  0  0  0  0  0  0  0  0  0  # atno 11005 bound_to 11000
  144.7169  139.8166  143.7395 LP  0  0  0  0  0  0  0  0  0  0  0  0  # atno 17320 bound_to 7965
  146.1305  139.4339  143.0172 LP  0  0  0  0  0  0  0  0  0  0  0  0  # atno 17321 bound_to 7965
  139.8272  144.7270  150.9497 LP  0  0  0  0  0  0  0  0  0  0  0  0  # atno 17342 bound_to 10162
  140.7814  143.4104  151.1003 LP  0  0  0  0  0  0  0  0  0  0  0  0  # atno 17343 bound_to 10162
  156.2418  130.3691  149.8329 LP  0  0  0  0  0  0  0  0  0  0  0  0  # atno 17370 bound_to 10713
  156.6127  130.8593  151.3458 LP  0  0  0  0  0  0  0  0  0  0  0  0  # atno 17371 bound_to 10713
  141.2078  133.6667  156.6327 LP  0  0  0  0  0  0  0  0  0  0  0  0  # atno 17394 bound_to 11000
  140.3352  134.7895  157.4356 LP  0  0  0  0  0  0  0  0  0  0  0  0  # atno 17395 bound_to 11000

$$$$
