AV-unprocessed.smi:1843|AV-procd|sdf|7503|dock3
  -GOLD-   22720 9203D 1   1.00000     0.00000
 Structure written by MMmdl.
 37 39  0  0  0  0  0  0  0  0  1 V2000
  147.0732  133.8002  155.1479 O   0  0  0  0  0  0  0  0  0  0  0  0
  147.6257  134.4297  154.2454 C   0  0  0  0  0  0  0  0  0  0  0  0
  148.7204  135.1971  154.3890 N   0  0  0  0  0  0  0  0  0  0  0  0
  149.4681  135.4522  155.5690 C   0  0  0  0  0  0  0  0  0  0  0  0
  149.4811  134.6386  156.6336 N   0  0  0  0  0  0  0  0  0  0  0  0
  150.2922  135.1264  157.6483 N   0  0  0  0  0  0  0  0  0  0  0  0
  150.8685  136.2900  157.3236 C   0  0  0  0  0  0  0  0  0  0  0  0
  151.7856  137.0111  158.2545 C   0  0  0  0  0  0  0  0  0  0  0  0
  151.3829  138.3103  158.9178 C   0  0  0  0  0  0  0  0  0  0  0  0
  152.4393  138.3099  157.8423 C   0  0  0  0  0  0  0  0  0  0  0  0
  150.4569  136.8944  155.7218 S   0  0  0  0  0  0  0  0  0  0  0  0
  147.1963  134.4321  152.9753 N   0  0  0  0  0  0  0  0  0  0  0  0
  146.0358  133.6968  152.4758 C   0  0  1  0  0  0  0  0  0  0  0  0
  144.9883  134.7079  151.9587 C   0  0  0  0  0  0  0  0  0  0  0  0
  143.8040  134.0179  151.2666 C   0  0  0  0  0  0  0  0  0  0  0  0
  144.2867  133.1139  150.1249 C   0  0  0  0  0  0  0  0  0  0  0  0
  145.2848  132.0718  150.6464 C   0  0  0  0  0  0  0  0  0  0  0  0
  146.4840  132.7331  151.3519 C   0  0  2  0  0  0  0  0  0  0  0  0
  147.2731  131.6976  151.9031 O   0  0  0  0  0  0  0  0  0  0  0  0
  149.0591  135.6544  153.5556 H   0  0  0  0  0  0  0  0  0  0  0  0
  152.3768  136.3052  158.8345 H   0  0  0  0  0  0  0  0  0  0  0  0
  150.4171  138.7427  158.6637 H   0  0  0  0  0  0  0  0  0  0  0  0
  151.7098  138.4722  159.9427 H   0  0  0  0  0  0  0  0  0  0  0  0
  153.4708  138.4709  158.1489 H   0  0  0  0  0  0  0  0  0  0  0  0
  152.1697  138.7267  156.8736 H   0  0  0  0  0  0  0  0  0  0  0  0
  147.7083  134.9813  152.3008 H   0  0  0  0  0  0  0  0  0  0  0  0
  145.5880  133.1106  153.2814 H   0  0  0  0  0  0  0  0  0  0  0  0
  144.6208  135.3209  152.7829 H   0  0  0  0  0  0  0  0  0  0  0  0
  145.4583  135.3948  151.2530 H   0  0  0  0  0  0  0  0  0  0  0  0
  143.2472  133.4265  151.9946 H   0  0  0  0  0  0  0  0  0  0  0  0
  143.1115  134.7663  150.8803 H   0  0  0  0  0  0  0  0  0  0  0  0
  143.4361  132.6147  149.6600 H   0  0  0  0  0  0  0  0  0  0  0  0
  144.7561  133.7180  149.3475 H   0  0  0  0  0  0  0  0  0  0  0  0
  144.7709  131.4038  151.3397 H   0  0  0  0  0  0  0  0  0  0  0  0
  145.6330  131.4493  149.8213 H   0  0  0  0  0  0  0  0  0  0  0  0
  147.0796  133.2735  150.6146 H   0  0  0  0  0  0  0  0  0  0  0  0
  147.7095  131.2453  151.1975 H   0  0  0  0  0  0  0  0  0  0  0  0
  1  2  2  0  0  0  0
  2  3  1  0  0  0  0
  2 12  1  0  0  0  0
  3  4  1  0  0  0  0
  3 20  1  0  0  0  0
  4 11  1  0  0  0  0
  4  5  2  0  0  0  0
  5  6  1  0  0  0  0
  6  7  2  0  0  0  0
  7  8  1  0  0  0  0
  7 11  1  0  0  0  0
  8 10  1  0  0  0  0
  8  9  1  0  0  0  0
  8 21  1  0  0  0  0
  9 10  1  0  0  0  0
  9 22  1  0  0  0  0
  9 23  1  0  0  0  0
 10 24  1  0  0  0  0
 10 25  1  0  0  0  0
 12 13  1  0  0  0  0
 12 26  1  0  0  0  0
 13 18  1  0  0  0  0
 13 14  1  0  0  0  0
 13 27  1  0  0  0  0
 14 15  1  0  0  0  0
 14 28  1  0  0  0  0
 14 29  1  0  0  0  0
 15 16  1  0  0  0  0
 15 30  1  0  0  0  0
 15 31  1  0  0  0  0
 16 17  1  0  0  0  0
 16 32  1  0  0  0  0
 16 33  1  0  0  0  0
 17 18  1  0  0  0  0
 17 34  1  0  0  0  0
 17 35  1  0  0  0  0
 18 19  1  0  0  0  0
 18 36  1  0  0  0  0
 19 37  1  0  0  0  0
M  END
> <s_m_source_file>
AV-unprocessed.smi

> <i_m_source_file_index>
1843

> <i_lp_mmshare_version>
43012

> <i_f3d_flags>
0

> <s_epik_input>
W09IXVtDQEBIXTFbQ0gyXVtDSDJdW0NIMl1bQ0gyXVtDQEhdMVtOSF1DKD1PKVtOSF1jMm5uYyhzMilbQ0hdM1tDSDJdW0NIMl0z

> <s_epik_cmdline>
J2VwaWtfcHl0aG9uJywgJy1waCcsICc3LjAnLCAnLXRuJywgJzgnLCAnLW1hJywgJzIwMCcsICctbWV0YWxfYmluZGluZycsICctaW1hZScsICc8aW5maWxlLm1hZT4nLCAnLW9tYWUnLCAnPG91dGZpbGUubWFlPic=

> <r_lp_tautomer_probability>
1

> <r_epik_Ionization_Penalty>
0.000257313

> <r_epik_Ionization_Penalty_Charging>
0

> <r_epik_Ionization_Penalty_Neutral>
0.000257313

> <r_epik_State_Penalty>
-0

> <r_epik_Charging_Adjusted_Penalty>
0

> <i_epik_Tot_Q>
0

> <i_epik_Tot_abs_Q>
0

> <r_epik_Metal_State_Penalty>
0.147479

> <b_epik_Metal_Only>
0

> <s_lp_Force_Field>
OPLS_2005

> <r_lp_Energy>
8.53895

> <b_lp_Chiralities_Consistent>
1

> <s_lp_Variant>
AV-unprocessed.smi:1843-4

> <Gold.Version>
5.8.1

> <Gold.Id.Protein>
6NUR|6NUR_protein|mol2

> <Gold.PLP.Fitness>
36.0659

> <Gold.PLP.PLP>
-25.1190

> <Gold.PLP.part.hbond>
-4.0000

> <Gold.PLP.part.metal>
0.0000

> <Gold.PLP.part.buried>
-4.9605

> <Gold.PLP.part.nonpolar>
-16.4402

> <Gold.PLP.part.repulsive>
0.0310

> <Gold.PLP.ligand.clash>
0.0000

> <Gold.PLP.ligand.torsion>
0.2188

> <Gold.PLP.Chemscore.Hbond>
3.7520

> <Gold.PLP.Chemscore.CHOScore>
0.0000

> <Gold.PLP.Chemscore.Metal>
0.0000

> <Gold.Chemscore.Hbonds>
donor molecule, donor type, donor heavy atom, donor atom, acceptor molecule, acceptor atom, score
      L1  H     3    20       P1  7948  1.00
      L1  H    12    26       P1  7948  1.00
      L1  H    19    37       P1 10747  1.00
      P1  H  6896  6907       L1     6  0.66

> <Gold.PLP.Chemscore.Internal.Correction>
0.1285

> <Gold.Rescore>
     Score         DG    S(hbond)    S(metal)    S(lipo)     H(rot)  DE(clash)    DE(int)     intcor
     18.65     -20.05       3.65        0.00      58.51       1.74       0.00       1.40       ----

> <Gold.Chemscore.Fitness>
18.6496

> <Gold.Chemscore.DG>
-20.0463

> <Gold.Chemscore.ZeroCoef>
-5.4800

> <Gold.Chemscore.Hbond>
3.6456

> <Gold.Chemscore.Metal>
0.0000

> <Gold.Chemscore.Lipo>
58.5081

> <Gold.Chemscore.Internal_Hbond>
0.0000

> <Gold.Chemscore.DEClash>
0.0000

> <Gold.Chemscore.DEInternal>
1.3966

> <Gold.Chemscore.Rot>
1.7404

> <Gold.Chemscore.Internal.Correction>
   9.000000E+99

> <Gold.Chemscore.Hbonds>
donor molecule, donor type, donor heavy atom, donor atom, acceptor molecule, acceptor atom, score
      L1  H     3    20       P1  7948  0.77
      L1  H    12    26       P1  7948  0.90
      L1  H    19    37       P1 10747  0.97
      P1  H  6896  6907       L1     6  0.61

> <Gold.Chemscore.Hbond.Weighted>
-12.1763

> <Gold.Chemscore.Metal.Weighted>
-0.0000

> <Gold.Chemscore.Lipo.Weighted>
-6.8454

> <Gold.Chemscore.Internal_Hbond.Weighted>
0.0000

> <Gold.Chemscore.DEClash.Weighted>
0.0000

> <Gold.Chemscore.DEInternal.Weighted>
1.3966

> <Gold.Chemscore.Rot.Weighted>
4.4555

> <Gold.Chemscore.Internal.Correction.Weighted>
   9.000000E+99

> <Gold.Protein.RotatedTorsions>
[ 6907 6896 6895 6894 ] final  -80.43 input  -60.11 | X-H torsion
[ 7974 7965 7964 7962 ] final -174.58 input  175.53 | X-H torsion
[ 8008 7997 7996 7995 ] final -151.89 input   59.86 | X-H torsion
[ 10167 10162 10161 10158 ] final  -19.39 input  -65.29 | X-H torsion
[ 10718 10713 10712 10709 ] final  145.62 input   66.30 | X-H torsion
[ 10763 10752 10751 10750 ] final -154.25 input  -60.55 | X-H torsion
[ 11005 11000 10999 10996 ] final -154.44 input  -57.11 | X-H torsion

> <Gold.Protein.ActiveResidues>
 VAL166  LYS551  ARG553  GLY616  TRP617  ASP618  TYR619  PRO620  LYS621  CYS622 
 ASP623  PHE694  ASN695  SER759  ASP760  ASP761  ALA762  ILE779  LEU786  VAL792 
 PHE793  MET794  SER795  GLU796  ALA797  LYS798  CYS799  TRP800  GLU811  SER814 

> <Gold.Protein.RotatedAtoms>
  150.6929  134.3970  159.5101 H   0  0  0  0  0  0  0  0  0  0  0  0  # atno 6907 bound_to 6896
  152.1750  134.8800  160.0540 H   0  0  0  0  0  0  0  0  0  0  0  0  # atno 6908 bound_to 6896
  151.9812  133.3723  159.4145 H   0  0  0  0  0  0  0  0  0  0  0  0  # atno 6909 bound_to 6896
  144.7131  140.1450  143.6389 H   0  0  0  0  0  0  0  0  0  0  0  0  # atno 7974 bound_to 7965
  155.6465  140.0707  157.2601 H   0  0  0  0  0  0  0  0  0  0  0  0  # atno 8008 bound_to 7997
  154.4172  140.1741  156.1678 H   0  0  0  0  0  0  0  0  0  0  0  0  # atno 8009 bound_to 7997
  155.9812  140.3353  155.6668 H   0  0  0  0  0  0  0  0  0  0  0  0  # atno 8010 bound_to 7997
  140.7268  143.4823  151.0101 H   0  0  0  0  0  0  0  0  0  0  0  0  # atno 10167 bound_to 10162
  157.3430  131.0939  151.1066 H   0  0  0  0  0  0  0  0  0  0  0  0  # atno 10718 bound_to 10713
  154.7872  135.3194  154.7859 H   0  0  0  0  0  0  0  0  0  0  0  0  # atno 10763 bound_to 10752
  153.8557  135.6858  153.4792 H   0  0  0  0  0  0  0  0  0  0  0  0  # atno 10764 bound_to 10752
  153.1528  135.4692  154.9600 H   0  0  0  0  0  0  0  0  0  0  0  0  # atno 10765 bound_to 10752
  140.6973  134.3975  157.5213 H   0  0  0  0  0  0  0  0  0  0  0  0  # atno 11005 bound_to 11000
  145.9168  139.2521  143.1405 LP  0  0  0  0  0  0  0  0  0  0  0  0  # atno 17320 bound_to 7965
  145.9661  140.8797  143.0186 LP  0  0  0  0  0  0  0  0  0  0  0  0  # atno 17321 bound_to 7965
  139.8523  143.7422  152.3177 LP  0  0  0  0  0  0  0  0  0  0  0  0  # atno 17342 bound_to 10162
  139.7609  144.7507  151.0366 LP  0  0  0  0  0  0  0  0  0  0  0  0  # atno 17343 bound_to 10162
  157.2270  130.6508  149.5834 LP  0  0  0  0  0  0  0  0  0  0  0  0  # atno 17370 bound_to 10713
  155.9710  130.4611  150.6096 LP  0  0  0  0  0  0  0  0  0  0  0  0  # atno 17371 bound_to 10713
  139.8906  134.8800  156.2360 LP  0  0  0  0  0  0  0  0  0  0  0  0  # atno 17394 bound_to 11000
  141.0192  133.7051  156.1240 LP  0  0  0  0  0  0  0  0  0  0  0  0  # atno 17395 bound_to 11000

$$$$
