AV-unprocessed.smi:890|AV-procd|sdf|4061|dock8
  -GOLD-   22720 1553D 1   1.00000     0.00000
 Structure written by MMmdl.
 53 56  0  0  0  0  0  0  0  0  3 V2000
  149.9122  136.9447  156.4923 O   0  0  0  0  0  0  0  0  0  0  0  0
  149.4373  136.7850  155.3693 C   0  0  0  0  0  0  0  0  0  0  0  0
  149.1876  135.6024  154.7808 N   0  0  0  0  0  0  0  0  0  0  0  0
  149.4044  134.2732  155.2544 C   0  0  0  0  0  0  0  0  0  0  0  0
  150.4536  133.9073  156.1388 C   0  0  0  0  0  0  0  0  0  0  0  0
  150.5890  132.5658  156.5478 C   0  0  0  0  0  0  0  0  0  0  0  0
  149.6785  131.6066  156.0699 C   0  0  0  0  0  0  0  0  0  0  0  0
  148.6925  131.9832  155.2303 N   0  3  0  0  0  0  0  0  0  0  0  0
  148.5172  133.2591  154.8074 C   0  0  0  0  0  0  0  0  0  0  0  0
  147.4584  133.5403  153.9260 N   0  0  0  0  0  0  0  0  0  0  0  0
  146.1220  133.3074  154.4483 C   0  0  0  0  0  0  0  0  0  0  0  0
  145.2017  133.3080  153.2249 C   0  0  0  0  0  0  0  0  0  0  0  0
  146.1230  132.9994  152.0378 C   0  0  0  0  0  0  0  0  0  0  0  0
  147.5176  132.8462  152.6507 C   0  0  0  0  0  0  0  0  0  0  0  0
  149.0981  137.8018  154.5637 N   0  0  0  0  0  0  0  0  0  0  0  0
  149.2427  139.2184  154.8873 C   0  0  2  0  0  0  0  0  0  0  0  0
  148.3311  139.5751  156.0740 C   0  0  0  0  0  0  0  0  0  0  0  0
  148.3730  141.0846  156.3801 C   0  0  0  0  0  0  0  0  0  0  0  0
  148.0366  141.9056  155.1889 N   0  3  2  0  0  0  0  0  0  0  0  0
  146.5933  141.8874  154.8523 C   0  0  0  0  0  0  0  0  0  0  0  0
  146.2160  142.8427  153.7443 C   0  0  0  0  0  0  0  0  0  0  0  0
  145.8794  143.1779  155.1801 C   0  0  0  0  0  0  0  0  0  0  0  0
  148.9147  141.5935  154.0325 C   0  0  0  0  0  0  0  0  0  0  0  0
  148.8882  140.0963  153.6712 C   0  0  0  0  0  0  0  0  0  0  0  0
  148.7843  135.6577  153.8572 H   0  0  0  0  0  0  0  0  0  0  0  0
  151.1682  134.6184  156.5191 H   0  0  0  0  0  0  0  0  0  0  0  0
  151.3843  132.2775  157.2198 H   0  0  0  0  0  0  0  0  0  0  0  0
  149.7090  130.5585  156.3299 H   0  0  0  0  0  0  0  0  0  0  0  0
  146.0688  132.3429  154.9550 H   0  0  0  0  0  0  0  0  0  0  0  0
  145.8399  134.0806  155.1638 H   0  0  0  0  0  0  0  0  0  0  0  0
  144.3976  132.5787  153.3273 H   0  0  0  0  0  0  0  0  0  0  0  0
  144.7446  134.2897  153.0941 H   0  0  0  0  0  0  0  0  0  0  0  0
  145.8205  132.1002  151.5006 H   0  0  0  0  0  0  0  0  0  0  0  0
  146.1074  133.8294  151.3302 H   0  0  0  0  0  0  0  0  0  0  0  0
  148.2886  133.2704  152.0067 H   0  0  0  0  0  0  0  0  0  0  0  0
  147.7475  131.7906  152.8013 H   0  0  0  0  0  0  0  0  0  0  0  0
  148.7106  137.5808  153.6580 H   0  0  0  0  0  0  0  0  0  0  0  0
  150.2761  139.4148  155.1800 H   0  0  0  0  0  0  0  0  0  0  0  0
  147.3052  139.2710  155.8617 H   0  0  0  0  0  0  0  0  0  0  0  0
  148.6367  139.0154  156.9587 H   0  0  0  0  0  0  0  0  0  0  0  0
  147.6971  141.3254  157.2015 H   0  0  0  0  0  0  0  0  0  0  0  0
  149.3734  141.3602  156.7163 H   0  0  0  0  0  0  0  0  0  0  0  0
  146.0762  140.9352  154.9524 H   0  0  0  0  0  0  0  0  0  0  0  0
  147.0064  143.4189  153.2666 H   0  0  0  0  0  0  0  0  0  0  0  0
  145.3922  142.5555  153.0938 H   0  0  0  0  0  0  0  0  0  0  0  0
  144.8338  143.1132  155.4746 H   0  0  0  0  0  0  0  0  0  0  0  0
  146.4475  143.9756  155.6555 H   0  0  0  0  0  0  0  0  0  0  0  0
  148.6262  142.1980  153.1719 H   0  0  0  0  0  0  0  0  0  0  0  0
  149.9341  141.8878  154.2857 H   0  0  0  0  0  0  0  0  0  0  0  0
  149.5884  139.9093  152.8561 H   0  0  0  0  0  0  0  0  0  0  0  0
  147.9021  139.8263  153.2916 H   0  0  0  0  0  0  0  0  0  0  0  0
  148.2379  142.8625  155.4424 H   0  0  0  0  0  0  0  0  0  0  0  0
  148.0455  131.2688  154.8954 H   0  0  0  0  0  0  0  0  0  0  0  0
  1  2  2  0  0  0  0
  2  3  1  0  0  0  0
  2 15  1  0  0  0  0
  3  4  1  0  0  0  0
  3 25  1  0  0  0  0
  4  9  1  0  0  0  0
  4  5  2  0  0  0  0
  5  6  1  0  0  0  0
  5 26  1  0  0  0  0
  6  7  2  0  0  0  0
  6 27  1  0  0  0  0
  7  8  1  0  0  0  0
  7 28  1  0  0  0  0
  8  9  2  0  0  0  0
  8 53  1  0  0  0  0
  9 10  1  0  0  0  0
 10 14  1  0  0  0  0
 10 11  1  0  0  0  0
 11 12  1  0  0  0  0
 11 29  1  0  0  0  0
 11 30  1  0  0  0  0
 12 13  1  0  0  0  0
 12 31  1  0  0  0  0
 12 32  1  0  0  0  0
 13 14  1  0  0  0  0
 13 33  1  0  0  0  0
 13 34  1  0  0  0  0
 14 35  1  0  0  0  0
 14 36  1  0  0  0  0
 15 16  1  0  0  0  0
 15 37  1  0  0  0  0
 16 24  1  0  0  0  0
 16 17  1  0  0  0  0
 16 38  1  0  0  0  0
 17 18  1  0  0  0  0
 17 39  1  0  0  0  0
 17 40  1  0  0  0  0
 18 19  1  0  0  0  0
 18 41  1  0  0  0  0
 18 42  1  0  0  0  0
 19 20  1  0  0  0  0
 19 23  1  0  0  0  0
 19 52  1  0  0  0  0
 20 22  1  0  0  0  0
 20 21  1  0  0  0  0
 20 43  1  0  0  0  0
 21 22  1  0  0  0  0
 21 44  1  0  0  0  0
 21 45  1  0  0  0  0
 22 46  1  0  0  0  0
 22 47  1  0  0  0  0
 23 24  1  0  0  0  0
 23 48  1  0  0  0  0
 23 49  1  0  0  0  0
 24 50  1  0  0  0  0
 24 51  1  0  0  0  0
M  CHG  1   8   1
M  CHG  1  19   1
M  END
> <s_m_source_file>
AV-unprocessed.smi

> <i_m_source_file_index>
890

> <i_lp_mmshare_version>
43012

> <i_f3d_flags>
0

> <s_epik_input>
W0NIMl0xW0NIMl1bQ0hdMU4oW0NIMl1bQ0gyXTIpW0NIMl1bQ0gyXVtDSF0yW05IXUMoPU8pW05IXWMzW2NIXVtjSF1bY0hdbmMzTjRbQ0gyXVtDSDJdW0NIMl1bQ0gyXTQ=

> <s_epik_cmdline>
J2VwaWtfcHl0aG9uJywgJy1waCcsICc3LjAnLCAnLXRuJywgJzgnLCAnLW1hJywgJzIwMCcsICctbWV0YWxfYmluZGluZycsICctaW1hZScsICc8aW5maWxlLm1hZT4nLCAnLW9tYWUnLCAnPG91dGZpbGUubWFlPic=

> <r_lp_tautomer_probability>
0.999994

> <r_epik_Ionization_Penalty>
1.36901

> <r_epik_Ionization_Penalty_Charging>
1.36899

> <r_epik_Ionization_Penalty_Neutral>
1.88098e-05

> <r_epik_State_Penalty>
1.38441

> <r_epik_Charging_Adjusted_Penalty>
2.7534

> <i_epik_Tot_Q>
2

> <i_epik_Tot_abs_Q>
2

> <r_epik_Metal_State_Penalty>
1.45718

> <b_epik_Metal_Only>
0

> <s_lp_Force_Field>
OPLS_2005

> <r_lp_Energy>
67.0325

> <b_lp_Chiralities_Consistent>
1

> <s_lp_Variant>
AV-unprocessed.smi:890-5

> <Gold.Version>
5.8.1

> <Gold.Id.Protein>
6NUR|6NUR_protein|mol2

> <Gold.PLP.Fitness>
43.4934

> <Gold.PLP.PLP>
-33.2895

> <Gold.PLP.part.hbond>
-3.0000

> <Gold.PLP.part.metal>
0.0000

> <Gold.PLP.part.buried>
1.9390

> <Gold.PLP.part.nonpolar>
-31.9661

> <Gold.PLP.part.repulsive>
0.3122

> <Gold.PLP.ligand.clash>
0.0000

> <Gold.PLP.ligand.torsion>
0.9525

> <Gold.PLP.Chemscore.Hbond>
3.6063

> <Gold.PLP.Chemscore.CHOScore>
0.0000

> <Gold.PLP.Chemscore.Metal>
0.0000

> <Gold.Chemscore.Hbonds>
donor molecule, donor type, donor heavy atom, donor atom, acceptor molecule, acceptor atom, score
      L1  H     3    25       P1  7948  0.89
      L1  H    15    37       P1  7948  0.39
      L1  H    19    52       P1  8028  2.00

> <Gold.PLP.Chemscore.Internal.Correction>
1.2900

> <Gold.Rescore>
     Score         DG    S(hbond)    S(metal)    S(lipo)     H(rot)  DE(clash)    DE(int)     intcor
     15.65     -19.62       2.46        0.00      80.01       1.35       2.71       1.26       ----

> <Gold.Chemscore.Fitness>
15.6475

> <Gold.Chemscore.DG>
-19.6193

> <Gold.Chemscore.ZeroCoef>
-5.4800

> <Gold.Chemscore.Hbond>
2.4645

> <Gold.Chemscore.Metal>
0.0000

> <Gold.Chemscore.Lipo>
80.0085

> <Gold.Chemscore.Internal_Hbond>
0.0000

> <Gold.Chemscore.DEClash>
2.7085

> <Gold.Chemscore.DEInternal>
1.2633

> <Gold.Chemscore.Rot>
1.3489

> <Gold.Chemscore.Internal.Correction>
   9.000000E+99

> <Gold.Chemscore.Hbonds>
donor molecule, donor type, donor heavy atom, donor atom, acceptor molecule, acceptor atom, score
      L1  H     3    25       P1  7948  0.80
      L1  H    15    37       P1  7948  0.39
      L1  H    19    52       P1  8028  0.96

> <Gold.Chemscore.Hbond.Weighted>
-8.2315

> <Gold.Chemscore.Metal.Weighted>
-0.0000

> <Gold.Chemscore.Lipo.Weighted>
-9.3610

> <Gold.Chemscore.Internal_Hbond.Weighted>
0.0000

> <Gold.Chemscore.DEClash.Weighted>
2.7085

> <Gold.Chemscore.DEInternal.Weighted>
1.2633

> <Gold.Chemscore.Rot.Weighted>
3.4532

> <Gold.Chemscore.Internal.Correction.Weighted>
   9.000000E+99

> <Gold.Protein.RotatedTorsions>
[ 6907 6896 6895 6894 ] final -176.56 input  -60.11 | X-H torsion
[ 7974 7965 7964 7962 ] final  157.98 input  175.53 | X-H torsion
[ 8008 7997 7996 7995 ] final  -55.76 input   59.86 | X-H torsion
[ 10167 10162 10161 10158 ] final  146.97 input  -65.29 | X-H torsion
[ 10718 10713 10712 10709 ] final -154.68 input   66.30 | X-H torsion
[ 10763 10752 10751 10750 ] final   87.03 input  -60.55 | X-H torsion
[ 11005 11000 10999 10996 ] final  -99.18 input  -57.11 | X-H torsion

> <Gold.Protein.ActiveResidues>
 VAL166  LYS551  ARG553  GLY616  TRP617  ASP618  TYR619  PRO620  LYS621  CYS622 
 ASP623  PHE694  ASN695  SER759  ASP760  ASP761  ALA762  ILE779  LEU786  VAL792 
 PHE793  MET794  SER795  GLU796  ALA797  LYS798  CYS799  TRP800  GLU811  SER814 

> <Gold.Protein.RotatedAtoms>
  151.6067  133.3351  159.3058 H   0  0  0  0  0  0  0  0  0  0  0  0  # atno 6907 bound_to 6896
  150.8178  134.7373  159.6757 H   0  0  0  0  0  0  0  0  0  0  0  0  # atno 6908 bound_to 6896
  152.4273  134.5849  160.0009 H   0  0  0  0  0  0  0  0  0  0  0  0  # atno 6909 bound_to 6896
  144.7872  139.7415  143.6236 H   0  0  0  0  0  0  0  0  0  0  0  0  # atno 7974 bound_to 7965
  154.4206  140.1145  156.5528 H   0  0  0  0  0  0  0  0  0  0  0  0  # atno 8008 bound_to 7997
  155.6392  140.3496  155.4690 H   0  0  0  0  0  0  0  0  0  0  0  0  # atno 8009 bound_to 7997
  155.9885  140.1174  157.0650 H   0  0  0  0  0  0  0  0  0  0  0  0  # atno 8010 bound_to 7997
  139.4898  144.5790  151.6909 H   0  0  0  0  0  0  0  0  0  0  0  0  # atno 10167 bound_to 10162
  156.5025  130.8398  151.2615 H   0  0  0  0  0  0  0  0  0  0  0  0  # atno 10718 bound_to 10713
  153.1628  135.4559  154.9795 H   0  0  0  0  0  0  0  0  0  0  0  0  # atno 10763 bound_to 10752
  154.7910  135.3220  154.7780 H   0  0  0  0  0  0  0  0  0  0  0  0  # atno 10764 bound_to 10752
  153.8267  135.6942  153.4874 H   0  0  0  0  0  0  0  0  0  0  0  0  # atno 10765 bound_to 10752
  141.1318  133.8302  157.0938 H   0  0  0  0  0  0  0  0  0  0  0  0  # atno 11005 bound_to 11000
  146.2109  139.5464  142.9682 LP  0  0  0  0  0  0  0  0  0  0  0  0  # atno 17320 bound_to 7965
  145.5890  141.0372  143.2080 LP  0  0  0  0  0  0  0  0  0  0  0  0  # atno 17321 bound_to 7965
  140.5392  144.0606  150.6082 LP  0  0  0  0  0  0  0  0  0  0  0  0  # atno 17342 bound_to 10162
  140.3623  143.2901  152.0370 LP  0  0  0  0  0  0  0  0  0  0  0  0  # atno 17343 bound_to 10162
  157.7461  130.9977  150.2825 LP  0  0  0  0  0  0  0  0  0  0  0  0  # atno 17370 bound_to 10713
  156.3319  130.3801  149.7484 LP  0  0  0  0  0  0  0  0  0  0  0  0  # atno 17371 bound_to 10713
  140.0376  134.9870  157.0900 LP  0  0  0  0  0  0  0  0  0  0  0  0  # atno 17394 bound_to 11000
  140.4186  134.1904  155.7164 LP  0  0  0  0  0  0  0  0  0  0  0  0  # atno 17395 bound_to 11000

$$$$
