AV-unprocessed.smi:1381|AV-procd|sdf|5618|dock1
  -GOLD-   22720 5233D 1   1.00000     0.00000
 Structure written by MMmdl.
 42 43  0  0  0  0  0  0  0  0  3 V2000
  147.0947  141.3145  153.5536 C   0  0  0  0  0  0  0  0  0  0  0  0
  148.3238  140.5555  153.9198 C   0  0  0  0  0  0  0  0  0  0  0  0
  148.5979  139.2205  154.0169 C   0  0  0  0  0  0  0  0  0  0  0  0
  149.9620  139.2005  154.4124 C   0  0  0  0  0  0  0  0  0  0  0  0
  150.6352  137.9679  154.6217 N   0  0  0  0  0  0  0  0  0  0  0  0
  150.1159  136.7328  154.7466 C   0  0  0  0  0  0  0  0  0  0  0  0
  148.8943  136.5571  154.6646 O   0  0  0  0  0  0  0  0  0  0  0  0
  151.0765  135.7919  154.9593 N   0  5  0  0  0  0  0  0  0  0  0  0
  150.8097  134.3921  155.2801 C   0  0  0  0  0  0  0  0  0  0  0  0
  149.9559  133.7604  154.1636 C   0  0  0  0  0  0  0  0  0  0  0  0
  149.8022  132.2917  154.3390 N   0  3  1  0  0  0  0  0  0  0  0  0
  149.3339  131.6091  153.1100 C   0  0  0  0  0  0  0  0  0  0  0  0
  149.0672  130.1195  153.3910 C   0  0  1  0  0  0  0  0  0  0  0  0
  148.6659  129.3585  152.1226 C   0  0  0  0  0  0  0  0  0  0  0  0
  150.2478  129.5128  153.9110 O   0  0  0  0  0  0  0  0  0  0  0  0
  150.7594  130.1159  155.0998 C   0  0  2  0  0  0  0  0  0  0  0  0
  149.8755  129.8317  156.3272 C   0  0  0  0  0  0  0  0  0  0  0  0
  151.0179  131.6163  154.8648 C   0  0  0  0  0  0  0  0  0  0  0  0
  150.4737  140.4154  154.5439 N   0  0  0  0  0  0  0  0  0  0  0  0
  149.4266  141.2896  154.2290 O   0  0  0  0  0  0  0  0  0  0  0  0
  146.2648  140.6377  153.3496 H   0  0  0  0  0  0  0  0  0  0  0  0
  147.2653  141.9184  152.6622 H   0  0  0  0  0  0  0  0  0  0  0  0
  146.7964  141.9808  154.3633 H   0  0  0  0  0  0  0  0  0  0  0  0
  147.9295  138.3926  153.8339 H   0  0  0  0  0  0  0  0  0  0  0  0
  151.6399  138.0279  154.6928 H   0  0  0  0  0  0  0  0  0  0  0  0
  151.7302  133.8169  155.3880 H   0  0  0  0  0  0  0  0  0  0  0  0
  150.2819  134.2904  156.2293 H   0  0  0  0  0  0  0  0  0  0  0  0
  148.9733  134.2351  154.1857 H   0  0  0  0  0  0  0  0  0  0  0  0
  150.3731  133.9781  153.1788 H   0  0  0  0  0  0  0  0  0  0  0  0
  148.4164  132.0799  152.7536 H   0  0  0  0  0  0  0  0  0  0  0  0
  150.0814  131.7235  152.3232 H   0  0  0  0  0  0  0  0  0  0  0  0
  148.2558  130.0232  154.1128 H   0  0  0  0  0  0  0  0  0  0  0  0
  147.7604  129.7775  151.6827 H   0  0  0  0  0  0  0  0  0  0  0  0
  148.4721  128.3084  152.3431 H   0  0  0  0  0  0  0  0  0  0  0  0
  149.4539  129.4002  151.3701 H   0  0  0  0  0  0  0  0  0  0  0  0
  151.7221  129.6396  155.2886 H   0  0  0  0  0  0  0  0  0  0  0  0
  150.3578  130.1852  157.2389 H   0  0  0  0  0  0  0  0  0  0  0  0
  149.7001  128.7619  156.4414 H   0  0  0  0  0  0  0  0  0  0  0  0
  148.9062  130.3254  156.2636 H   0  0  0  0  0  0  0  0  0  0  0  0
  151.8307  131.7388  154.1471 H   0  0  0  0  0  0  0  0  0  0  0  0
  151.3494  132.0830  155.7931 H   0  0  0  0  0  0  0  0  0  0  0  0
  149.0709  132.1706  155.0253 H   0  0  0  0  0  0  0  0  0  0  0  0
  1  2  1  0  0  0  0
  1 21  1  0  0  0  0
  1 22  1  0  0  0  0
  1 23  1  0  0  0  0
  2 20  1  0  0  0  0
  2  3  2  0  0  0  0
  3  4  1  0  0  0  0
  3 24  1  0  0  0  0
  4  5  1  0  0  0  0
  4 19  2  0  0  0  0
  5  6  1  0  0  0  0
  5 25  1  0  0  0  0
  6  7  2  0  0  0  0
  6  8  1  0  0  0  0
  8  9  1  0  0  0  0
  9 10  1  0  0  0  0
  9 26  1  0  0  0  0
  9 27  1  0  0  0  0
 10 11  1  0  0  0  0
 10 28  1  0  0  0  0
 10 29  1  0  0  0  0
 11 18  1  0  0  0  0
 11 12  1  0  0  0  0
 11 42  1  0  0  0  0
 12 13  1  0  0  0  0
 12 30  1  0  0  0  0
 12 31  1  0  0  0  0
 13 14  1  0  0  0  0
 13 15  1  0  0  0  0
 13 32  1  0  0  0  0
 14 33  1  0  0  0  0
 14 34  1  0  0  0  0
 14 35  1  0  0  0  0
 15 16  1  0  0  0  0
 16 17  1  0  0  0  0
 16 18  1  0  0  0  0
 16 36  1  0  0  0  0
 17 37  1  0  0  0  0
 17 38  1  0  0  0  0
 17 39  1  0  0  0  0
 18 40  1  0  0  0  0
 18 41  1  0  0  0  0
 19 20  1  0  0  0  0
M  CHG  1   8  -1
M  CHG  1  11   1
M  END
> <s_m_source_file>
AV-unprocessed.smi

> <i_m_source_file_index>
1381

> <i_lp_mmshare_version>
43012

> <i_f3d_flags>
0

> <s_epik_input>
W0NIM11jMVtjSF1jKG5vMSlbTkhdQyg9TylbTkhdW0NIMl1bQ0gyXU4yW0NIMl1bQ0BASF0oW0NIM10pT1tDQEBIXShbQ0gzXSlbQ0gyXTI=

> <s_epik_cmdline>
J2VwaWtfcHl0aG9uJywgJy1waCcsICc3LjAnLCAnLXRuJywgJzgnLCAnLW1hJywgJzIwMCcsICctbWV0YWxfYmluZGluZycsICctaW1hZScsICc8aW5maWxlLm1hZT4nLCAnLW9tYWUnLCAnPG91dGZpbGUubWFlPic=

> <r_epik_Ionization_Penalty>
6.8073

> <r_epik_Ionization_Penalty_Charging>
6.80729

> <r_epik_Ionization_Penalty_Neutral>
5.65391e-06

> <r_epik_State_Penalty>
7.47323

> <r_epik_Charging_Adjusted_Penalty>
14.2805

> <i_epik_Tot_Q>
0

> <i_epik_Tot_abs_Q>
2

> <r_epik_Metal_State_Penalty>
3.40035

> <b_epik_Metal_Only>
1

> <s_lp_Force_Field>
OPLS_2005

> <r_lp_Energy>
14.8512

> <b_lp_Chiralities_Consistent>
1

> <s_lp_Variant>
AV-unprocessed.smi:1381-17

> <Gold.Version>
5.8.1

> <Gold.Id.Protein>
6NUR|6NUR_protein|mol2

> <Gold.PLP.Fitness>
39.3312

> <Gold.PLP.PLP>
-29.1166

> <Gold.PLP.part.hbond>
-3.8252

> <Gold.PLP.part.metal>
0.0000

> <Gold.PLP.part.buried>
-3.3989

> <Gold.PLP.part.nonpolar>
-22.2066

> <Gold.PLP.part.repulsive>
0.6661

> <Gold.PLP.ligand.clash>
0.0000

> <Gold.PLP.ligand.torsion>
0.2562

> <Gold.PLP.Chemscore.Hbond>
3.5616

> <Gold.PLP.Chemscore.CHOScore>
0.0000

> <Gold.PLP.Chemscore.Metal>
0.0000

> <Gold.Chemscore.Hbonds>
donor molecule, donor type, donor heavy atom, donor atom, acceptor molecule, acceptor atom, score
      P1  H  7989  7998       L1    19  1.00
      P1  H  8011  8017       L1    20  0.34
      P1  H 10752 10763       L1     8  1.60

> <Gold.PLP.Chemscore.Internal.Correction>
0.0421

> <Gold.Rescore>
     Score         DG    S(hbond)    S(metal)    S(lipo)     H(rot)  DE(clash)    DE(int)     intcor
     10.36     -12.25       1.25        0.00      56.66       1.58       0.26       1.62       ----

> <Gold.Chemscore.Fitness>
10.3615

> <Gold.Chemscore.DG>
-12.2464

> <Gold.Chemscore.ZeroCoef>
-5.4800

> <Gold.Chemscore.Hbond>
1.2516

> <Gold.Chemscore.Metal>
0.0000

> <Gold.Chemscore.Lipo>
56.6581

> <Gold.Chemscore.Internal_Hbond>
0.0000

> <Gold.Chemscore.DEClash>
0.2619

> <Gold.Chemscore.DEInternal>
1.6230

> <Gold.Chemscore.Rot>
1.5792

> <Gold.Chemscore.Internal.Correction>
   9.000000E+99

> <Gold.Chemscore.Hbonds>
donor molecule, donor type, donor heavy atom, donor atom, acceptor molecule, acceptor atom, score
      P1  H  7989  7998       L1    19  0.32
      P1  H  8011  8017       L1    20  0.12
      P1  H 10752 10763       L1     8  0.12

> <Gold.Chemscore.Hbond.Weighted>
-4.1802

> <Gold.Chemscore.Metal.Weighted>
-0.0000

> <Gold.Chemscore.Lipo.Weighted>
-6.6290

> <Gold.Chemscore.Internal_Hbond.Weighted>
0.0000

> <Gold.Chemscore.DEClash.Weighted>
0.2619

> <Gold.Chemscore.DEInternal.Weighted>
1.6230

> <Gold.Chemscore.Rot.Weighted>
4.0428

> <Gold.Chemscore.Internal.Correction.Weighted>
   9.000000E+99

> <Gold.Protein.RotatedTorsions>
[ 6907 6896 6895 6894 ] final  -18.99 input  -60.11 | X-H torsion
[ 7974 7965 7964 7962 ] final   74.17 input  175.53 | X-H torsion
[ 8008 7997 7996 7995 ] final  -55.28 input   59.86 | X-H torsion
[ 10167 10162 10161 10158 ] final   16.98 input  -65.29 | X-H torsion
[ 10718 10713 10712 10709 ] final -154.50 input   66.30 | X-H torsion
[ 10763 10752 10751 10750 ] final   58.84 input  -60.55 | X-H torsion
[ 11005 11000 10999 10996 ] final  -17.70 input  -57.11 | X-H torsion

> <Gold.Protein.ActiveResidues>
 VAL166  LYS551  ARG553  GLY616  TRP617  ASP618  TYR619  PRO620  LYS621  CYS622 
 ASP623  PHE694  ASN695  SER759  ASP760  ASP761  ALA762  ILE779  LEU786  VAL792 
 PHE793  MET794  SER795  GLU796  ALA797  LYS798  CYS799  TRP800  GLU811  SER814 

> <Gold.Protein.RotatedAtoms>
  151.2698  135.0681  159.9129 H   0  0  0  0  0  0  0  0  0  0  0  0  # atno 6907 bound_to 6896
  152.5352  134.0142  159.7963 H   0  0  0  0  0  0  0  0  0  0  0  0  # atno 6908 bound_to 6896
  151.0379  133.5682  159.2685 H   0  0  0  0  0  0  0  0  0  0  0  0  # atno 6909 bound_to 6896
  145.7316  139.2686  143.1538 H   0  0  0  0  0  0  0  0  0  0  0  0  # atno 7974 bound_to 7965
  154.4190  140.1156  156.5451 H   0  0  0  0  0  0  0  0  0  0  0  0  # atno 8008 bound_to 7997
  155.6468  140.3496  155.4715 H   0  0  0  0  0  0  0  0  0  0  0  0  # atno 8009 bound_to 7997
  155.9826  140.1163  157.0702 H   0  0  0  0  0  0  0  0  0  0  0  0  # atno 8010 bound_to 7997
  140.5759  143.9074  150.6749 H   0  0  0  0  0  0  0  0  0  0  0  0  # atno 10167 bound_to 10162
  156.5001  130.8387  151.2605 H   0  0  0  0  0  0  0  0  0  0  0  0  # atno 10718 bound_to 10713
  152.9880  135.5592  154.5618 H   0  0  0  0  0  0  0  0  0  0  0  0  # atno 10763 bound_to 10752
  154.5035  135.2798  155.1403 H   0  0  0  0  0  0  0  0  0  0  0  0  # atno 10764 bound_to 10752
  154.2824  135.6342  153.5405 H   0  0  0  0  0  0  0  0  0  0  0  0  # atno 10765 bound_to 10752
  140.8194  133.8079  155.9644 H   0  0  0  0  0  0  0  0  0  0  0  0  # atno 11005 bound_to 11000
  146.0532  140.8048  142.9771 LP  0  0  0  0  0  0  0  0  0  0  0  0  # atno 17320 bound_to 7965
  144.6891  140.3084  143.7252 LP  0  0  0  0  0  0  0  0  0  0  0  0  # atno 17321 bound_to 7965
  140.2561  143.3558  152.1363 LP  0  0  0  0  0  0  0  0  0  0  0  0  # atno 17342 bound_to 10162
  139.5142  144.6944  151.5670 LP  0  0  0  0  0  0  0  0  0  0  0  0  # atno 17343 bound_to 10162
  157.7464  130.9984  150.2853 LP  0  0  0  0  0  0  0  0  0  0  0  0  # atno 17370 bound_to 10713
  156.3341  130.3805  149.7465 LP  0  0  0  0  0  0  0  0  0  0  0  0  # atno 17371 bound_to 10713
  140.9114  134.2255  157.4983 LP  0  0  0  0  0  0  0  0  0  0  0  0  # atno 17394 bound_to 11000
  139.8709  134.9752  156.4874 LP  0  0  0  0  0  0  0  0  0  0  0  0  # atno 17395 bound_to 11000

$$$$
