AV-unprocessed.smi:1157|AV-procd|sdf|4909|dock4
  -GOLD-   22720 3483D 1   1.00000     0.00000
 Structure written by MMmdl.
 56 58  0  0  0  0  0  0  0  0  3 V2000
  145.5524  137.2549  154.3226 C   0  0  0  0  0  0  0  0  0  0  0  0
  145.4622  137.0399  152.7880 C   0  0  0  0  0  0  0  0  0  0  0  0
  143.9654  137.0544  152.3928 C   0  0  0  0  0  0  0  0  0  0  0  0
  146.2070  138.2158  152.0840 C   0  0  0  0  0  0  0  0  0  0  0  0
  147.5523  138.4673  152.6027 N   0  0  0  0  0  0  0  0  0  0  0  0
  147.8642  139.3544  153.5587 C   0  0  0  0  0  0  0  0  0  0  0  0
  147.0376  140.0878  154.1005 O   0  0  0  0  0  0  0  0  0  0  0  0
  149.1831  139.3500  153.8174 N   0  0  0  0  0  0  0  0  0  0  0  0
  149.8959  140.1303  154.7674 C   0  0  0  0  0  0  0  0  0  0  0  0
  151.0759  139.6980  155.4212 C   0  0  0  0  0  0  0  0  0  0  0  0
  151.7188  140.5574  156.3358 C   0  0  0  0  0  0  0  0  0  0  0  0
  151.1847  141.8429  156.5880 C   0  0  0  0  0  0  0  0  0  0  0  0
  151.7769  142.7520  157.4850 N   0  0  0  0  0  0  0  0  0  0  0  0
  151.2896  144.1157  157.6201 C   0  0  0  0  0  0  0  0  0  0  0  0
  152.0775  144.6918  158.7956 C   0  0  0  0  0  0  0  0  0  0  0  0
  152.2964  143.4750  159.6951 C   0  0  0  0  0  0  0  0  0  0  0  0
  152.4094  142.2999  158.7165 C   0  0  0  0  0  0  0  0  0  0  0  0
  150.0653  142.2189  155.9243 N   0  3  0  0  0  0  0  0  0  0  0  0
  149.4190  141.4285  155.0405 C   0  0  0  0  0  0  0  0  0  0  0  0
  146.1226  135.7401  152.3913 N   0  3  0  0  0  0  0  0  0  0  0  0
  146.2115  134.6946  153.4524 C   0  0  0  0  0  0  0  0  0  0  0  0
  147.0296  133.4843  152.9680 C   0  0  0  0  0  0  0  0  0  0  0  0
  146.4647  132.9578  151.7767 O   0  0  0  0  0  0  0  0  0  0  0  0
  146.4779  133.9150  150.7287 C   0  0  0  0  0  0  0  0  0  0  0  0
  145.6159  135.1218  151.1315 C   0  0  0  0  0  0  0  0  0  0  0  0
  145.1633  138.2260  154.6265 H   0  0  0  0  0  0  0  0  0  0  0  0
  146.5830  137.1943  154.6748 H   0  0  0  0  0  0  0  0  0  0  0  0
  144.9585  136.5298  154.8786 H   0  0  0  0  0  0  0  0  0  0  0  0
  143.4647  137.9472  152.7689 H   0  0  0  0  0  0  0  0  0  0  0  0
  143.4294  136.1977  152.8011 H   0  0  0  0  0  0  0  0  0  0  0  0
  143.8255  137.0504  151.3117 H   0  0  0  0  0  0  0  0  0  0  0  0
  146.2303  138.0486  151.0057 H   0  0  0  0  0  0  0  0  0  0  0  0
  145.6780  139.1562  152.2249 H   0  0  0  0  0  0  0  0  0  0  0  0
  148.2992  137.9147  152.2074 H   0  0  0  0  0  0  0  0  0  0  0  0
  149.7508  138.7582  153.2285 H   0  0  0  0  0  0  0  0  0  0  0  0
  151.5117  138.7297  155.2287 H   0  0  0  0  0  0  0  0  0  0  0  0
  152.6214  140.2221  156.8248 H   0  0  0  0  0  0  0  0  0  0  0  0
  151.4463  144.6928  156.7082 H   0  0  0  0  0  0  0  0  0  0  0  0
  150.2217  144.1009  157.8431 H   0  0  0  0  0  0  0  0  0  0  0  0
  153.0397  145.0697  158.4467 H   0  0  0  0  0  0  0  0  0  0  0  0
  151.5562  145.5073  159.2977 H   0  0  0  0  0  0  0  0  0  0  0  0
  153.1703  143.5738  160.3397 H   0  0  0  0  0  0  0  0  0  0  0  0
  151.4238  143.3349  160.3345 H   0  0  0  0  0  0  0  0  0  0  0  0
  151.9326  141.4077  159.1238 H   0  0  0  0  0  0  0  0  0  0  0  0
  153.4548  142.0675  158.5104 H   0  0  0  0  0  0  0  0  0  0  0  0
  148.5383  141.8583  154.5854 H   0  0  0  0  0  0  0  0  0  0  0  0
  146.7091  135.0679  154.3456 H   0  0  0  0  0  0  0  0  0  0  0  0
  145.2118  134.3730  153.7464 H   0  0  0  0  0  0  0  0  0  0  0  0
  148.0710  133.7626  152.7978 H   0  0  0  0  0  0  0  0  0  0  0  0
  147.0314  132.7046  153.7300 H   0  0  0  0  0  0  0  0  0  0  0  0
  147.5011  134.2205  150.5029 H   0  0  0  0  0  0  0  0  0  0  0  0
  146.0776  133.4528  149.8262 H   0  0  0  0  0  0  0  0  0  0  0  0
  144.5855  134.7901  151.2627 H   0  0  0  0  0  0  0  0  0  0  0  0
  145.6218  135.8261  150.3030 H   0  0  0  0  0  0  0  0  0  0  0  0
  147.0823  135.9915  152.2003 H   0  0  0  0  0  0  0  0  0  0  0  0
  149.6892  143.1505  156.1012 H   0  0  0  0  0  0  0  0  0  0  0  0
  1  2  1  0  0  0  0
  1 26  1  0  0  0  0
  1 27  1  0  0  0  0
  1 28  1  0  0  0  0
  2  3  1  0  0  0  0
  2  4  1  0  0  0  0
  2 20  1  0  0  0  0
  3 29  1  0  0  0  0
  3 30  1  0  0  0  0
  3 31  1  0  0  0  0
  4  5  1  0  0  0  0
  4 32  1  0  0  0  0
  4 33  1  0  0  0  0
  5  6  1  0  0  0  0
  5 34  1  0  0  0  0
  6  7  2  0  0  0  0
  6  8  1  0  0  0  0
  8  9  1  0  0  0  0
  8 35  1  0  0  0  0
  9 19  1  0  0  0  0
  9 10  2  0  0  0  0
 10 11  1  0  0  0  0
 10 36  1  0  0  0  0
 11 12  2  0  0  0  0
 11 37  1  0  0  0  0
 12 13  1  0  0  0  0
 12 18  1  0  0  0  0
 13 17  1  0  0  0  0
 13 14  1  0  0  0  0
 14 15  1  0  0  0  0
 14 38  1  0  0  0  0
 14 39  1  0  0  0  0
 15 16  1  0  0  0  0
 15 40  1  0  0  0  0
 15 41  1  0  0  0  0
 16 17  1  0  0  0  0
 16 42  1  0  0  0  0
 16 43  1  0  0  0  0
 17 44  1  0  0  0  0
 17 45  1  0  0  0  0
 18 19  2  0  0  0  0
 18 56  1  0  0  0  0
 19 46  1  0  0  0  0
 20 25  1  0  0  0  0
 20 21  1  0  0  0  0
 20 55  1  0  0  0  0
 21 22  1  0  0  0  0
 21 47  1  0  0  0  0
 21 48  1  0  0  0  0
 22 23  1  0  0  0  0
 22 49  1  0  0  0  0
 22 50  1  0  0  0  0
 23 24  1  0  0  0  0
 24 25  1  0  0  0  0
 24 51  1  0  0  0  0
 24 52  1  0  0  0  0
 25 53  1  0  0  0  0
 25 54  1  0  0  0  0
M  CHG  1  18   1
M  CHG  1  20   1
M  END
> <s_m_source_file>
AV-unprocessed.smi

> <i_m_source_file_index>
1157

> <i_lp_mmshare_version>
43012

> <i_f3d_flags>
0

> <s_epik_input>
W0NIMl0xW0NIMl1PW0NIMl1bQ0gyXU4xQyhbQ0gzXSkoW0NIM10pW0NIMl1bTkhdQyg9TylbTkhdYzJbY0hdW2NIXWMobltjSF0yKU4zW0NIMl1bQ0gyXVtDSDJdW0NIMl0z

> <s_epik_cmdline>
J2VwaWtfcHl0aG9uJywgJy1waCcsICc3LjAnLCAnLXRuJywgJzgnLCAnLW1hJywgJzIwMCcsICctbWV0YWxfYmluZGluZycsICctaW1hZScsICc8aW5maWxlLm1hZT4nLCAnLW9tYWUnLCAnPG91dGZpbGUubWFlPic=

> <r_lp_tautomer_probability>
0.999994

> <r_epik_Ionization_Penalty>
1.80144

> <r_epik_Ionization_Penalty_Charging>
1.80142

> <r_epik_Ionization_Penalty_Neutral>
2.04065e-05

> <r_epik_State_Penalty>
1.84115

> <r_epik_Charging_Adjusted_Penalty>
3.64257

> <i_epik_Tot_Q>
2

> <i_epik_Tot_abs_Q>
2

> <r_epik_Metal_State_Penalty>
1.92436

> <b_epik_Metal_Only>
0

> <s_lp_Force_Field>
OPLS_2005

> <r_lp_Energy>
58.4852

> <b_lp_Chiralities_Consistent>
1

> <s_lp_Variant>
AV-unprocessed.smi:1157-4

> <Gold.Version>
5.8.1

> <Gold.Id.Protein>
6NUR|6NUR_protein|mol2

> <Gold.PLP.Fitness>
58.9934

> <Gold.PLP.PLP>
-47.5297

> <Gold.PLP.part.hbond>
-5.0000

> <Gold.PLP.part.metal>
0.0000

> <Gold.PLP.part.buried>
-4.3783

> <Gold.PLP.part.nonpolar>
-38.6551

> <Gold.PLP.part.repulsive>
0.5543

> <Gold.PLP.ligand.clash>
0.0000

> <Gold.PLP.ligand.torsion>
1.9366

> <Gold.PLP.Chemscore.Hbond>
5.0000

> <Gold.PLP.Chemscore.CHOScore>
0.0000

> <Gold.PLP.Chemscore.Metal>
0.0000

> <Gold.Chemscore.Hbonds>
donor molecule, donor type, donor heavy atom, donor atom, acceptor molecule, acceptor atom, score
      L1  H     5    34       P1  7948  0.98
      L1  H    18    56       P1  8028  2.00
      L1  H    20    55       P1  7948  2.00

> <Gold.PLP.Chemscore.Internal.Correction>
0.3368

> <Gold.Rescore>
     Score         DG    S(hbond)    S(metal)    S(lipo)     H(rot)  DE(clash)    DE(int)     intcor
     21.14     -24.16       2.89        0.00     108.73       1.45       0.13       2.89       ----

> <Gold.Chemscore.Fitness>
21.1363

> <Gold.Chemscore.DG>
-24.1559

> <Gold.Chemscore.ZeroCoef>
-5.4800

> <Gold.Chemscore.Hbond>
2.8911

> <Gold.Chemscore.Metal>
0.0000

> <Gold.Chemscore.Lipo>
108.7253

> <Gold.Chemscore.Internal_Hbond>
0.0000

> <Gold.Chemscore.DEClash>
0.1306

> <Gold.Chemscore.DEInternal>
2.8890

> <Gold.Chemscore.Rot>
1.4458

> <Gold.Chemscore.Internal.Correction>
   9.000000E+99

> <Gold.Chemscore.Hbonds>
donor molecule, donor type, donor heavy atom, donor atom, acceptor molecule, acceptor atom, score
      L1  H     5    34       P1  7948  0.92
      L1  H    18    56       P1  8028  0.98
      L1  H    20    55       P1  7948  1.00

> <Gold.Chemscore.Hbond.Weighted>
-9.6562

> <Gold.Chemscore.Metal.Weighted>
-0.0000

> <Gold.Chemscore.Lipo.Weighted>
-12.7209

> <Gold.Chemscore.Internal_Hbond.Weighted>
0.0000

> <Gold.Chemscore.DEClash.Weighted>
0.1306

> <Gold.Chemscore.DEInternal.Weighted>
2.8890

> <Gold.Chemscore.Rot.Weighted>
3.7012

> <Gold.Chemscore.Internal.Correction.Weighted>
   9.000000E+99

> <Gold.Protein.RotatedTorsions>
[ 6907 6896 6895 6894 ] final   79.62 input  -60.11 | X-H torsion
[ 7974 7965 7964 7962 ] final -107.30 input  175.53 | X-H torsion
[ 8008 7997 7996 7995 ] final  150.23 input   59.86 | X-H torsion
[ 10167 10162 10161 10158 ] final   35.08 input  -65.29 | X-H torsion
[ 10718 10713 10712 10709 ] final   83.80 input   66.30 | X-H torsion
[ 10763 10752 10751 10750 ] final   65.10 input  -60.55 | X-H torsion
[ 11005 11000 10999 10996 ] final   48.31 input  -57.11 | X-H torsion

> <Gold.Protein.ActiveResidues>
 VAL166  LYS551  ARG553  GLY616  TRP617  ASP618  TYR619  PRO620  LYS621  CYS622 
 ASP623  PHE694  ASN695  SER759  ASP760  ASP761  ALA762  ILE779  LEU786  VAL792 
 PHE793  MET794  SER795  GLU796  ALA797  LYS798  CYS799  TRP800  GLU811  SER814 

> <Gold.Protein.RotatedAtoms>
  152.5205  134.3484  159.9241 H   0  0  0  0  0  0  0  0  0  0  0  0  # atno 6907 bound_to 6896
  151.3434  133.3947  159.2681 H   0  0  0  0  0  0  0  0  0  0  0  0  # atno 6908 bound_to 6896
  150.9785  134.9163  159.7888 H   0  0  0  0  0  0  0  0  0  0  0  0  # atno 6909 bound_to 6896
  145.2070  140.9080  143.3336 H   0  0  0  0  0  0  0  0  0  0  0  0  # atno 7974 bound_to 7965
  156.2724  140.2080  156.5984 H   0  0  0  0  0  0  0  0  0  0  0  0  # atno 8008 bound_to 7997
  154.6926  140.0529  157.0402 H   0  0  0  0  0  0  0  0  0  0  0  0  # atno 8009 bound_to 7997
  155.0845  140.3190  155.4594 H   0  0  0  0  0  0  0  0  0  0  0  0  # atno 8010 bound_to 7997
  140.4255  144.1399  150.6153 H   0  0  0  0  0  0  0  0  0  0  0  0  # atno 10167 bound_to 10162
  157.6886  131.0106  150.2577 H   0  0  0  0  0  0  0  0  0  0  0  0  # atno 10718 bound_to 10713
  153.0082  135.5369  154.6614 H   0  0  0  0  0  0  0  0  0  0  0  0  # atno 10763 bound_to 10752
  154.5821  135.2851  155.0724 H   0  0  0  0  0  0  0  0  0  0  0  0  # atno 10764 bound_to 10752
  154.1849  135.6510  153.5096 H   0  0  0  0  0  0  0  0  0  0  0  0  # atno 10765 bound_to 10752
  140.1202  134.4840  155.8604 H   0  0  0  0  0  0  0  0  0  0  0  0  # atno 11005 bound_to 11000
  144.9892  139.3706  143.6223 LP  0  0  0  0  0  0  0  0  0  0  0  0  # atno 17320 bound_to 7965
  146.3406  139.9068  142.8786 LP  0  0  0  0  0  0  0  0  0  0  0  0  # atno 17321 bound_to 7965
  140.4486  143.2496  151.9378 LP  0  0  0  0  0  0  0  0  0  0  0  0  # atno 17342 bound_to 10162
  139.4783  144.5585  151.8276 LP  0  0  0  0  0  0  0  0  0  0  0  0  # atno 17343 bound_to 10162
  156.3162  130.3779  149.7616 LP  0  0  0  0  0  0  0  0  0  0  0  0  # atno 17370 bound_to 10713
  156.5201  130.8211  151.3200 LP  0  0  0  0  0  0  0  0  0  0  0  0  # atno 17371 bound_to 10713
  141.2150  133.6758  156.6873 LP  0  0  0  0  0  0  0  0  0  0  0  0  # atno 17394 bound_to 11000
  140.2976  134.8190  157.4070 LP  0  0  0  0  0  0  0  0  0  0  0  0  # atno 17395 bound_to 11000

$$$$
