AV-unprocessed.smi:2610|AV-procd|sdf|10208|dock6
  -GOLD-   2272014213D 1   1.00000     0.00000
 Structure written by MMmdl.
 45 47  0  0  0  0  0  0  0  0  1 V2000
  147.5842  140.9373  154.0025 C   0  0  0  0  0  0  0  0  0  0  0  0
  148.9769  140.5778  154.5310 C   0  0  0  0  0  0  0  0  0  0  0  0
  149.2975  141.2711  155.8625 C   0  0  0  0  0  0  0  0  0  0  0  0
  150.6930  140.9114  156.3929 C   0  0  0  0  0  0  0  0  0  0  0  0
  151.1522  141.8445  157.4739 C   0  0  0  0  0  0  0  0  0  0  0  0
  151.2025  143.1618  157.2744 N   0  0  0  0  0  0  0  0  0  0  0  0
  151.5835  143.6433  158.5101 C   0  0  0  0  0  0  0  0  0  0  0  0
  151.8044  144.9686  158.9481 C   0  0  0  0  0  0  0  0  0  0  0  0
  152.1732  145.2268  160.2842 C   0  0  0  0  0  0  0  0  0  0  0  0
  152.3228  144.1659  161.2001 C   0  0  0  0  0  0  0  0  0  0  0  0
  152.1101  142.8380  160.7831 C   0  0  0  0  0  0  0  0  0  0  0  0
  151.7513  142.5830  159.4452 C   0  0  0  0  0  0  0  0  0  0  0  0
  151.4836  141.4218  158.7225 N   0  0  0  0  0  0  0  0  0  0  0  0
  151.5196  140.0547  159.2377 C   0  0  0  0  0  0  0  0  0  0  0  0
  152.9451  139.4871  159.4787 C   0  0  0  0  0  0  0  0  0  0  0  0
  153.5277  139.1863  158.2233 O   0  0  0  0  0  0  0  0  0  0  0  0
  153.8747  140.4802  160.2093 C   0  0  0  0  0  0  0  0  0  0  0  0
  155.2077  139.8315  160.6227 C   0  0  0  0  0  0  0  0  0  0  0  0
  154.9626  138.6765  161.4157 O   0  0  0  0  0  0  0  0  0  0  0  0
  154.2549  137.6650  160.7095 C   0  0  0  0  0  0  0  0  0  0  0  0
  152.8649  138.1821  160.2970 C   0  0  0  0  0  0  0  0  0  0  0  0
  147.3831  140.4275  153.0602 H   0  0  0  0  0  0  0  0  0  0  0  0
  147.4940  142.0097  153.8269 H   0  0  0  0  0  0  0  0  0  0  0  0
  146.8072  140.6466  154.7101 H   0  0  0  0  0  0  0  0  0  0  0  0
  149.0446  139.4965  154.6557 H   0  0  0  0  0  0  0  0  0  0  0  0
  149.7258  140.8504  153.7865 H   0  0  0  0  0  0  0  0  0  0  0  0
  149.2230  142.3522  155.7370 H   0  0  0  0  0  0  0  0  0  0  0  0
  148.5464  140.9940  156.6033 H   0  0  0  0  0  0  0  0  0  0  0  0
  150.7025  139.8834  156.7495 H   0  0  0  0  0  0  0  0  0  0  0  0
  151.4151  140.9485  155.5763 H   0  0  0  0  0  0  0  0  0  0  0  0
  151.6852  145.7884  158.2552 H   0  0  0  0  0  0  0  0  0  0  0  0
  152.3371  146.2438  160.6092 H   0  0  0  0  0  0  0  0  0  0  0  0
  152.6003  144.3720  162.2236 H   0  0  0  0  0  0  0  0  0  0  0  0
  152.2208  142.0267  161.4863 H   0  0  0  0  0  0  0  0  0  0  0  0
  150.9560  140.0351  160.1712 H   0  0  0  0  0  0  0  0  0  0  0  0
  150.9664  139.4080  158.5563 H   0  0  0  0  0  0  0  0  0  0  0  0
  153.1019  138.4198  157.8709 H   0  0  0  0  0  0  0  0  0  0  0  0
  154.0709  141.3573  159.5919 H   0  0  0  0  0  0  0  0  0  0  0  0
  153.3787  140.8394  161.1110 H   0  0  0  0  0  0  0  0  0  0  0  0
  155.8059  139.5677  159.7493 H   0  0  0  0  0  0  0  0  0  0  0  0
  155.7985  140.5375  161.2064 H   0  0  0  0  0  0  0  0  0  0  0  0
  154.8296  137.3419  159.8402 H   0  0  0  0  0  0  0  0  0  0  0  0
  154.1501  136.7948  161.3577 H   0  0  0  0  0  0  0  0  0  0  0  0
  152.2810  138.3585  161.2015 H   0  0  0  0  0  0  0  0  0  0  0  0
  152.3326  137.4120  159.7368 H   0  0  0  0  0  0  0  0  0  0  0  0
  1  2  1  0  0  0  0
  1 22  1  0  0  0  0
  1 23  1  0  0  0  0
  1 24  1  0  0  0  0
  2  3  1  0  0  0  0
  2 25  1  0  0  0  0
  2 26  1  0  0  0  0
  3  4  1  0  0  0  0
  3 27  1  0  0  0  0
  3 28  1  0  0  0  0
  4  5  1  0  0  0  0
  4 29  1  0  0  0  0
  4 30  1  0  0  0  0
  5 13  1  0  0  0  0
  5  6  2  0  0  0  0
  6  7  1  0  0  0  0
  7 12  2  0  0  0  0
  7  8  1  0  0  0  0
  8  9  2  0  0  0  0
  8 31  1  0  0  0  0
  9 10  1  0  0  0  0
  9 32  1  0  0  0  0
 10 11  2  0  0  0  0
 10 33  1  0  0  0  0
 11 12  1  0  0  0  0
 11 34  1  0  0  0  0
 12 13  1  0  0  0  0
 13 14  1  0  0  0  0
 14 15  1  0  0  0  0
 14 35  1  0  0  0  0
 14 36  1  0  0  0  0
 15 21  1  0  0  0  0
 15 16  1  0  0  0  0
 15 17  1  0  0  0  0
 16 37  1  0  0  0  0
 17 18  1  0  0  0  0
 17 38  1  0  0  0  0
 17 39  1  0  0  0  0
 18 19  1  0  0  0  0
 18 40  1  0  0  0  0
 18 41  1  0  0  0  0
 19 20  1  0  0  0  0
 20 21  1  0  0  0  0
 20 42  1  0  0  0  0
 20 43  1  0  0  0  0
 21 44  1  0  0  0  0
 21 45  1  0  0  0  0
M  END
> <s_m_source_file>
AV-unprocessed.smi

> <i_m_source_file_index>
2610

> <i_lp_mmshare_version>
43012

> <i_f3d_flags>
0

> <s_epik_input>
W0NIM11bQ0gyXVtDSDJdW0NIMl1jKG4xKW4oYyhjMTIpW2NIXVtjSF1bY0hdW2NIXTIpW0NIMl1DMyhbT0hdKVtDSDJdW0NIMl1PW0NIMl1bQ0gyXTM=

> <s_epik_cmdline>
J2VwaWtfcHl0aG9uJywgJy1waCcsICc3LjAnLCAnLXRuJywgJzgnLCAnLW1hJywgJzIwMCcsICctbWV0YWxfYmluZGluZycsICctaW1hZScsICc8aW5maWxlLm1hZT4nLCAnLW9tYWUnLCAnPG91dGZpbGUubWFlPic=

> <r_epik_Ionization_Penalty>
0.224246

> <r_epik_Ionization_Penalty_Charging>
0

> <r_epik_Ionization_Penalty_Neutral>
0.224246

> <r_epik_State_Penalty>
0.214696

> <r_epik_Charging_Adjusted_Penalty>
0.214696

> <i_epik_Tot_Q>
0

> <i_epik_Tot_abs_Q>
0

> <r_epik_Metal_State_Penalty>
0.000258695

> <b_epik_Metal_Only>
0

> <s_lp_Force_Field>
OPLS_2005

> <r_lp_Energy>
13.1565

> <b_lp_Chiralities_Consistent>
1

> <s_lp_Variant>
AV-unprocessed.smi:2610-1

> <Gold.Version>
5.8.1

> <Gold.Id.Protein>
6NUR|6NUR_protein|mol2

> <Gold.PLP.Fitness>
50.0841

> <Gold.PLP.PLP>
-47.4821

> <Gold.PLP.part.hbond>
-0.8681

> <Gold.PLP.part.metal>
0.0000

> <Gold.PLP.part.buried>
-5.8741

> <Gold.PLP.part.nonpolar>
-41.7469

> <Gold.PLP.part.repulsive>
0.1324

> <Gold.PLP.ligand.clash>
0.0000

> <Gold.PLP.ligand.torsion>
0.3549

> <Gold.PLP.Chemscore.Hbond>
1.0000

> <Gold.PLP.Chemscore.CHOScore>
0.0000

> <Gold.PLP.Chemscore.Metal>
0.0000

> <Gold.Chemscore.Hbonds>
donor molecule, donor type, donor heavy atom, donor atom, acceptor molecule, acceptor atom, score
      P1  H  7997  8008       L1    16  1.00

> <Gold.PLP.Chemscore.Internal.Correction>
0.3119

> <Gold.Rescore>
     Score         DG    S(hbond)    S(metal)    S(lipo)     H(rot)  DE(clash)    DE(int)     intcor
     19.19     -19.78       0.86        0.00     139.40       1.91       0.09       0.51       ----

> <Gold.Chemscore.Fitness>
19.1933

> <Gold.Chemscore.DG>
-19.7841

> <Gold.Chemscore.ZeroCoef>
-5.4800

> <Gold.Chemscore.Hbond>
0.8601

> <Gold.Chemscore.Metal>
0.0000

> <Gold.Chemscore.Lipo>
139.4034

> <Gold.Chemscore.Internal_Hbond>
0.0000

> <Gold.Chemscore.DEClash>
0.0853

> <Gold.Chemscore.DEInternal>
0.5055

> <Gold.Chemscore.Rot>
1.9059

> <Gold.Chemscore.Internal.Correction>
   9.000000E+99

> <Gold.Chemscore.Hbonds>
donor molecule, donor type, donor heavy atom, donor atom, acceptor molecule, acceptor atom, score
      P1  H  7997  8008       L1    16  0.94

> <Gold.Chemscore.Hbond.Weighted>
-2.8729

> <Gold.Chemscore.Metal.Weighted>
-0.0000

> <Gold.Chemscore.Lipo.Weighted>
-16.3102

> <Gold.Chemscore.Internal_Hbond.Weighted>
0.0000

> <Gold.Chemscore.DEClash.Weighted>
0.0853

> <Gold.Chemscore.DEInternal.Weighted>
0.5055

> <Gold.Chemscore.Rot.Weighted>
4.8790

> <Gold.Chemscore.Internal.Correction.Weighted>
   9.000000E+99

> <Gold.Protein.RotatedTorsions>
[ 6907 6896 6895 6894 ] final  -74.09 input  -60.11 | X-H torsion
[ 7974 7965 7964 7962 ] final  -44.51 input  175.53 | X-H torsion
[ 8008 7997 7996 7995 ] final -110.57 input   59.86 | X-H torsion
[ 10167 10162 10161 10158 ] final  -45.78 input  -65.29 | X-H torsion
[ 10718 10713 10712 10709 ] final  161.99 input   66.30 | X-H torsion
[ 10763 10752 10751 10750 ] final -123.81 input  -60.55 | X-H torsion
[ 11005 11000 10999 10996 ] final -145.13 input  -57.11 | X-H torsion

> <Gold.Protein.ActiveResidues>
 VAL166  LYS551  ARG553  GLY616  TRP617  ASP618  TYR619  PRO620  LYS621  CYS622 
 ASP623  PHE694  ASN695  SER759  ASP760  ASP761  ALA762  ILE779  LEU786  VAL792 
 PHE793  MET794  SER795  GLU796  ALA797  LYS798  CYS799  TRP800  GLU811  SER814 

> <Gold.Protein.RotatedAtoms>
  150.7105  134.4920  159.5519 H   0  0  0  0  0  0  0  0  0  0  0  0  # atno 6907 bound_to 6896
  152.2535  134.8105  160.0451 H   0  0  0  0  0  0  0  0  0  0  0  0  # atno 6908 bound_to 6896
  151.8844  133.3467  159.3814 H   0  0  0  0  0  0  0  0  0  0  0  0  # atno 6909 bound_to 6896
  145.9913  140.7177  142.9315 H   0  0  0  0  0  0  0  0  0  0  0  0  # atno 7974 bound_to 7965
  154.9765  140.0397  157.2258 H   0  0  0  0  0  0  0  0  0  0  0  0  # atno 8008 bound_to 7997
  154.7753  140.2809  155.6083 H   0  0  0  0  0  0  0  0  0  0  0  0  # atno 8009 bound_to 7997
  156.2927  140.2602  156.2565 H   0  0  0  0  0  0  0  0  0  0  0  0  # atno 8010 bound_to 7997
  140.6844  143.2863  151.3688 H   0  0  0  0  0  0  0  0  0  0  0  0  # atno 10167 bound_to 10162
  157.1288  131.0511  151.2381 H   0  0  0  0  0  0  0  0  0  0  0  0  # atno 10718 bound_to 10713
  154.8714  135.4085  154.3004 H   0  0  0  0  0  0  0  0  0  0  0  0  # atno 10763 bound_to 10752
  153.3865  135.7013  153.6532 H   0  0  0  0  0  0  0  0  0  0  0  0  # atno 10764 bound_to 10752
  153.5332  135.3663  155.2657 H   0  0  0  0  0  0  0  0  0  0  0  0  # atno 10765 bound_to 10752
  140.7954  134.2919  157.4998 H   0  0  0  0  0  0  0  0  0  0  0  0  # atno 11005 bound_to 11000
  144.6890  140.3075  143.7253 LP  0  0  0  0  0  0  0  0  0  0  0  0  # atno 17320 bound_to 7965
  145.7625  139.1829  143.2258 LP  0  0  0  0  0  0  0  0  0  0  0  0  # atno 17321 bound_to 7965
  139.6191  144.0943  152.2374 LP  0  0  0  0  0  0  0  0  0  0  0  0  # atno 17342 bound_to 10162
  140.0381  144.6028  150.7433 LP  0  0  0  0  0  0  0  0  0  0  0  0  # atno 17343 bound_to 10162
  157.4411  130.7545  149.7070 LP  0  0  0  0  0  0  0  0  0  0  0  0  # atno 17370 bound_to 10713
  155.9812  130.4021  150.3483 LP  0  0  0  0  0  0  0  0  0  0  0  0  # atno 17371 bound_to 10713
  139.8727  134.9399  156.3754 LP  0  0  0  0  0  0  0  0  0  0  0  0  # atno 17394 bound_to 11000
  140.9348  133.7555  156.0070 LP  0  0  0  0  0  0  0  0  0  0  0  0  # atno 17395 bound_to 11000

$$$$
