AV-unprocessed.smi:2222|AV-procd|sdf|8987|dock10
  -GOLD-   2272012203D 1   1.00000     0.00000
 Structure written by MMmdl.
 34 35  0  0  0  0  0  0  0  0  1 V2000
  151.9009  145.5865  159.3313 C   0  0  0  0  0  0  0  0  0  0  0  0
  151.6784  144.4870  158.4607 O   0  0  0  0  0  0  0  0  0  0  0  0
  152.2010  143.2578  158.8132 C   0  0  0  0  0  0  0  0  0  0  0  0
  153.2090  143.0864  159.7962 C   0  0  0  0  0  0  0  0  0  0  0  0
  153.6769  141.7935  160.0880 C   0  0  0  0  0  0  0  0  0  0  0  0
  153.1199  140.7110  159.3845 C   0  0  0  0  0  0  0  0  0  0  0  0
  153.5729  139.2909  159.6495 C   0  0  0  0  0  0  0  0  0  0  0  0
  152.1617  140.8612  158.4482 N   0  0  0  0  0  0  0  0  0  0  0  0
  151.7020  142.1032  158.1564 C   0  0  0  0  0  0  0  0  0  0  0  0
  150.6935  142.3440  157.1834 N   0  0  0  0  0  0  0  0  0  0  0  0
  150.4543  141.6813  156.0344 C   0  0  0  0  0  0  0  0  0  0  0  0
  151.1340  140.7492  155.6084 O   0  0  0  0  0  0  0  0  0  0  0  0
  149.4045  142.1490  155.3353 N   0  0  0  0  0  0  0  0  0  0  0  0
  148.8939  141.6689  154.0849 C   0  0  2  0  0  0  0  0  0  0  0  0
  147.3900  141.5648  153.9520 C   0  0  0  0  0  0  0  0  0  0  0  0
  148.2190  140.3105  154.0346 C   0  0  2  0  0  0  0  0  0  0  0  0
  148.1357  139.4065  155.2492 C   0  0  0  0  0  0  0  0  0  0  0  0
  151.4229  146.4741  158.9173 H   0  0  0  0  0  0  0  0  0  0  0  0
  152.9646  145.8042  159.4364 H   0  0  0  0  0  0  0  0  0  0  0  0
  151.4680  145.4088  160.3168 H   0  0  0  0  0  0  0  0  0  0  0  0
  153.6336  143.9206  160.3335 H   0  0  0  0  0  0  0  0  0  0  0  0
  154.4432  141.6413  160.8340 H   0  0  0  0  0  0  0  0  0  0  0  0
  154.4350  139.2686  160.3165 H   0  0  0  0  0  0  0  0  0  0  0  0
  153.8526  138.7998  158.7170 H   0  0  0  0  0  0  0  0  0  0  0  0
  152.7684  138.7183  160.1118 H   0  0  0  0  0  0  0  0  0  0  0  0
  150.0685  143.1083  157.3939 H   0  0  0  0  0  0  0  0  0  0  0  0
  148.9561  142.9767  155.7009 H   0  0  0  0  0  0  0  0  0  0  0  0
  149.4065  141.9884  153.1787 H   0  0  0  0  0  0  0  0  0  0  0  0
  146.7844  141.8312  154.8165 H   0  0  0  0  0  0  0  0  0  0  0  0
  146.9527  141.8123  152.9868 H   0  0  0  0  0  0  0  0  0  0  0  0
  148.3488  139.7633  153.1027 H   0  0  0  0  0  0  0  0  0  0  0  0
  147.9263  139.9789  156.1532 H   0  0  0  0  0  0  0  0  0  0  0  0
  149.0776  138.8745  155.3840 H   0  0  0  0  0  0  0  0  0  0  0  0
  147.3394  138.6745  155.1145 H   0  0  0  0  0  0  0  0  0  0  0  0
  1  2  1  0  0  0  0
  1 18  1  0  0  0  0
  1 19  1  0  0  0  0
  1 20  1  0  0  0  0
  2  3  1  0  0  0  0
  3  9  1  0  0  0  0
  3  4  2  0  0  0  0
  4  5  1  0  0  0  0
  4 21  1  0  0  0  0
  5  6  2  0  0  0  0
  5 22  1  0  0  0  0
  6  7  1  0  0  0  0
  6  8  1  0  0  0  0
  7 23  1  0  0  0  0
  7 24  1  0  0  0  0
  7 25  1  0  0  0  0
  8  9  2  0  0  0  0
  9 10  1  0  0  0  0
 10 11  1  0  0  0  0
 10 26  1  0  0  0  0
 11 12  2  0  0  0  0
 11 13  1  0  0  0  0
 13 14  1  0  0  0  0
 13 27  1  0  0  0  0
 14 16  1  0  0  0  0
 14 15  1  0  0  0  0
 14 28  1  0  0  0  0
 15 16  1  0  0  0  0
 15 29  1  0  0  0  0
 15 30  1  0  0  0  0
 16 17  1  0  0  0  0
 16 31  1  0  0  0  0
 17 32  1  0  0  0  0
 17 33  1  0  0  0  0
 17 34  1  0  0  0  0
M  END
> <s_m_source_file>
AV-unprocessed.smi

> <i_m_source_file_index>
2222

> <i_lp_mmshare_version>
43012

> <i_f3d_flags>
0

> <s_epik_input>
W0NIM11PYzFbY0hdW2NIXWMoW0NIM10pbmMxW05IXUMoPU8pW05IXVtDQEBIXTJbQ0gyXVtDQEhdMltDSDNd

> <s_epik_cmdline>
J2VwaWtfcHl0aG9uJywgJy1waCcsICc3LjAnLCAnLXRuJywgJzgnLCAnLW1hJywgJzIwMCcsICctbWV0YWxfYmluZGluZycsICctaW1hZScsICc8aW5maWxlLm1hZT4nLCAnLW9tYWUnLCAnPG91dGZpbGUubWFlPic=

> <r_lp_tautomer_probability>
1

> <r_epik_Ionization_Penalty>
6.59103e-05

> <r_epik_Ionization_Penalty_Charging>
0

> <r_epik_Ionization_Penalty_Neutral>
6.59103e-05

> <r_epik_State_Penalty>
-0

> <r_epik_Charging_Adjusted_Penalty>
0

> <i_epik_Tot_Q>
0

> <i_epik_Tot_abs_Q>
0

> <r_epik_Metal_State_Penalty>
-0

> <b_epik_Metal_Only>
0

> <s_lp_Force_Field>
OPLS_2005

> <r_lp_Energy>
34.1661

> <b_lp_Chiralities_Consistent>
1

> <s_lp_Variant>
AV-unprocessed.smi:2222-3

> <Gold.Version>
5.8.1

> <Gold.Id.Protein>
6NUR|6NUR_protein|mol2

> <Gold.PLP.Fitness>
39.3615

> <Gold.PLP.PLP>
-36.2003

> <Gold.PLP.part.hbond>
-2.0000

> <Gold.PLP.part.metal>
0.0000

> <Gold.PLP.part.buried>
-3.0746

> <Gold.PLP.part.nonpolar>
-30.7378

> <Gold.PLP.part.repulsive>
0.3378

> <Gold.PLP.ligand.clash>
0.0000

> <Gold.PLP.ligand.torsion>
0.5947

> <Gold.PLP.Chemscore.Hbond>
1.4376

> <Gold.PLP.Chemscore.CHOScore>
0.0000

> <Gold.PLP.Chemscore.Metal>
0.0000

> <Gold.Chemscore.Hbonds>
donor molecule, donor type, donor heavy atom, donor atom, acceptor molecule, acceptor atom, score
      L1  H    13    27       P1  8028  0.93
      P1  H  7989  7998       L1    12  0.52

> <Gold.PLP.Chemscore.Internal.Correction>
0.0379

> <Gold.Rescore>
     Score         DG    S(hbond)    S(metal)    S(lipo)     H(rot)  DE(clash)    DE(int)     intcor
     15.50     -17.00       1.45        0.00      83.71       1.22       0.19       1.31       ----

> <Gold.Chemscore.Fitness>
15.5007

> <Gold.Chemscore.DG>
-16.9963

> <Gold.Chemscore.ZeroCoef>
-5.4800

> <Gold.Chemscore.Hbond>
1.4481

> <Gold.Chemscore.Metal>
0.0000

> <Gold.Chemscore.Lipo>
83.7139

> <Gold.Chemscore.Internal_Hbond>
0.0000

> <Gold.Chemscore.DEClash>
0.1889

> <Gold.Chemscore.DEInternal>
1.3066

> <Gold.Chemscore.Rot>
1.2168

> <Gold.Chemscore.Internal.Correction>
   9.000000E+99

> <Gold.Chemscore.Hbonds>
donor molecule, donor type, donor heavy atom, donor atom, acceptor molecule, acceptor atom, score
      L1  H    13    27       P1  8028  0.90
      P1  H  7989  7998       L1    12  0.46

> <Gold.Chemscore.Hbond.Weighted>
-4.8367

> <Gold.Chemscore.Metal.Weighted>
-0.0000

> <Gold.Chemscore.Lipo.Weighted>
-9.7945

> <Gold.Chemscore.Internal_Hbond.Weighted>
0.0000

> <Gold.Chemscore.DEClash.Weighted>
0.1889

> <Gold.Chemscore.DEInternal.Weighted>
1.3066

> <Gold.Chemscore.Rot.Weighted>
3.1150

> <Gold.Chemscore.Internal.Correction.Weighted>
   9.000000E+99

> <Gold.Protein.RotatedTorsions>
[ 6907 6896 6895 6894 ] final   62.98 input  -60.11 | X-H torsion
[ 7974 7965 7964 7962 ] final  -93.95 input  175.53 | X-H torsion
[ 8008 7997 7996 7995 ] final  -65.87 input   59.86 | X-H torsion
[ 10167 10162 10161 10158 ] final  134.62 input  -65.29 | X-H torsion
[ 10718 10713 10712 10709 ] final  150.76 input   66.30 | X-H torsion
[ 10763 10752 10751 10750 ] final  -41.16 input  -60.55 | X-H torsion
[ 11005 11000 10999 10996 ] final -177.17 input  -57.11 | X-H torsion

> <Gold.Protein.ActiveResidues>
 VAL166  LYS551  ARG553  GLY616  TRP617  ASP618  TYR619  PRO620  LYS621  CYS622 
 ASP623  PHE694  ASN695  SER759  ASP760  ASP761  ALA762  ILE779  LEU786  VAL792 
 PHE793  MET794  SER795  GLU796  ALA797  LYS798  CYS799  TRP800  GLU811  SER814 

> <Gold.Protein.RotatedAtoms>
  152.4216  134.5944  159.9982 H   0  0  0  0  0  0  0  0  0  0  0  0  # atno 6907 bound_to 6896
  151.6092  133.3343  159.3072 H   0  0  0  0  0  0  0  0  0  0  0  0  # atno 6908 bound_to 6896
  150.8105  134.7294  159.6749 H   0  0  0  0  0  0  0  0  0  0  0  0  # atno 6909 bound_to 6896
  145.3798  140.9516  143.2400 H   0  0  0  0  0  0  0  0  0  0  0  0  # atno 7974 bound_to 7965
  154.4699  140.0924  156.7117 H   0  0  0  0  0  0  0  0  0  0  0  0  # atno 8008 bound_to 7997
  155.4754  140.3466  155.4313 H   0  0  0  0  0  0  0  0  0  0  0  0  # atno 8009 bound_to 7997
  156.1021  140.1425  156.9442 H   0  0  0  0  0  0  0  0  0  0  0  0  # atno 8010 bound_to 7997
  139.5249  144.6558  151.5165 H   0  0  0  0  0  0  0  0  0  0  0  0  # atno 10167 bound_to 10162
  157.2793  131.0832  151.1543 H   0  0  0  0  0  0  0  0  0  0  0  0  # atno 10718 bound_to 10713
  153.9580  135.6743  153.4745 H   0  0  0  0  0  0  0  0  0  0  0  0  # atno 10763 bound_to 10752
  153.0852  135.4902  154.8579 H   0  0  0  0  0  0  0  0  0  0  0  0  # atno 10764 bound_to 10752
  154.7289  135.3133  154.8885 H   0  0  0  0  0  0  0  0  0  0  0  0  # atno 10765 bound_to 10752
  140.4440  134.6405  157.4770 H   0  0  0  0  0  0  0  0  0  0  0  0  # atno 11005 bound_to 11000
  144.8516  139.5313  143.6854 LP  0  0  0  0  0  0  0  0  0  0  0  0  # atno 17320 bound_to 7965
  146.2847  139.6972  142.9204 LP  0  0  0  0  0  0  0  0  0  0  0  0  # atno 17321 bound_to 7965
  140.6383  143.8939  150.6668 LP  0  0  0  0  0  0  0  0  0  0  0  0  # atno 17342 bound_to 10162
  140.2266  143.3768  152.1600 LP  0  0  0  0  0  0  0  0  0  0  0  0  # atno 17343 bound_to 10162
  157.2984  130.6830  149.6151 LP  0  0  0  0  0  0  0  0  0  0  0  0  # atno 17370 bound_to 10713
  155.9664  130.4399  150.5280 LP  0  0  0  0  0  0  0  0  0  0  0  0  # atno 17371 bound_to 10713
  140.0051  134.6776  155.9468 LP  0  0  0  0  0  0  0  0  0  0  0  0  # atno 17394 bound_to 11000
  141.1693  133.6537  156.4594 LP  0  0  0  0  0  0  0  0  0  0  0  0  # atno 17395 bound_to 11000

$$$$
