AV-unprocessed.smi:1602|AV-procd|sdf|6439|dock9
  -GOLD-   22720 7 83D 1   1.00000     0.00000
 Structure written by MMmdl.
 36 37  0  0  0  0  0  0  0  0  1 V2000
  147.4187  134.6134  158.2676 C   0  0  0  0  0  0  0  0  0  0  0  0
  148.6866  135.4457  158.4968 C   0  0  2  0  0  0  0  0  0  0  0  0
  148.4342  136.6631  159.4067 C   0  0  0  0  0  0  0  0  0  0  0  0
  147.9694  136.2765  160.7272 N   0  0  0  0  0  0  0  0  0  0  0  0
  147.8554  135.0091  161.2587 C   0  0  0  0  0  0  0  0  0  0  0  0
  147.3528  135.1416  162.5212 C   0  0  0  0  0  0  0  0  0  0  0  0
  147.1927  136.5473  162.6747 C   0  0  0  0  0  0  0  0  0  0  0  0
  147.5659  137.2241  161.6006 N   0  0  0  0  0  0  0  0  0  0  0  0
  149.2148  135.8893  157.2042 N   0  0  0  0  0  0  0  0  0  0  0  0
  150.9091  136.1614  157.0408 S   0  0  0  0  0  0  0  0  0  0  0  0
  151.5003  136.2917  158.3813 O   0  0  0  0  0  0  0  0  0  0  0  0
  151.4329  135.1857  156.0727 O   0  0  0  0  0  0  0  0  0  0  0  0
  150.8751  137.7260  156.3022 N   0  0  0  0  0  0  0  0  0  0  0  0
  152.0858  138.5584  156.4273 C   0  0  0  0  0  0  0  0  0  0  0  0
  151.8353  139.9856  155.9144 C   0  0  0  0  0  0  0  0  0  0  0  0
  151.3282  139.9467  154.5897 O   0  0  0  0  0  0  0  0  0  0  0  0
  150.0776  139.2781  154.5347 C   0  0  0  0  0  0  0  0  0  0  0  0
  150.2398  137.8148  154.9773 C   0  0  0  0  0  0  0  0  0  0  0  0
  147.0199  134.2409  159.2115 H   0  0  0  0  0  0  0  0  0  0  0  0
  147.6251  133.7498  157.6342 H   0  0  0  0  0  0  0  0  0  0  0  0
  146.6377  135.2027  157.7860 H   0  0  0  0  0  0  0  0  0  0  0  0
  149.4265  134.8019  158.9752 H   0  0  0  0  0  0  0  0  0  0  0  0
  149.3430  137.2565  159.5156 H   0  0  0  0  0  0  0  0  0  0  0  0
  147.6852  137.3188  158.9600 H   0  0  0  0  0  0  0  0  0  0  0  0
  148.1313  134.1286  160.6975 H   0  0  0  0  0  0  0  0  0  0  0  0
  147.1307  134.3548  163.2266 H   0  0  0  0  0  0  0  0  0  0  0  0
  146.8186  137.0921  163.5289 H   0  0  0  0  0  0  0  0  0  0  0  0
  148.8302  135.3663  156.4181 H   0  0  0  0  0  0  0  0  0  0  0  0
  152.4106  138.5954  157.4665 H   0  0  0  0  0  0  0  0  0  0  0  0
  152.8924  138.0942  155.8586 H   0  0  0  0  0  0  0  0  0  0  0  0
  151.1402  140.5156  156.5678 H   0  0  0  0  0  0  0  0  0  0  0  0
  152.7665  140.5522  155.9188 H   0  0  0  0  0  0  0  0  0  0  0  0
  149.3479  139.7940  155.1610 H   0  0  0  0  0  0  0  0  0  0  0  0
  149.7007  139.3190  153.5125 H   0  0  0  0  0  0  0  0  0  0  0  0
  150.8519  137.2708  154.2568 H   0  0  0  0  0  0  0  0  0  0  0  0
  149.2651  137.3271  155.0025 H   0  0  0  0  0  0  0  0  0  0  0  0
  1  2  1  0  0  0  0
  1 19  1  0  0  0  0
  1 20  1  0  0  0  0
  1 21  1  0  0  0  0
  2  3  1  0  0  0  0
  2  9  1  0  0  0  0
  2 22  1  0  0  0  0
  3  4  1  0  0  0  0
  3 23  1  0  0  0  0
  3 24  1  0  0  0  0
  4  8  1  0  0  0  0
  4  5  1  0  0  0  0
  5  6  2  0  0  0  0
  5 25  1  0  0  0  0
  6  7  1  0  0  0  0
  6 26  1  0  0  0  0
  7  8  2  0  0  0  0
  7 27  1  0  0  0  0
  9 10  1  0  0  0  0
  9 28  1  0  0  0  0
 10 11  2  0  0  0  0
 10 12  2  0  0  0  0
 10 13  1  0  0  0  0
 13 18  1  0  0  0  0
 13 14  1  0  0  0  0
 14 15  1  0  0  0  0
 14 29  1  0  0  0  0
 14 30  1  0  0  0  0
 15 16  1  0  0  0  0
 15 31  1  0  0  0  0
 15 32  1  0  0  0  0
 16 17  1  0  0  0  0
 17 18  1  0  0  0  0
 17 33  1  0  0  0  0
 17 34  1  0  0  0  0
 18 35  1  0  0  0  0
 18 36  1  0  0  0  0
M  END
> <s_m_source_file>
AV-unprocessed.smi

> <i_m_source_file_index>
1602

> <i_lp_mmshare_version>
43012

> <i_f3d_flags>
0

> <s_epik_input>
bjFbY0hdW2NIXVtjSF1uMVtDSDJdW0NAQEhdKFtDSDNdKVtOSF1TKD1PKSg9TylOMltDSDJdW0NIMl1PW0NIMl1bQ0gyXTI=

> <s_epik_cmdline>
J2VwaWtfcHl0aG9uJywgJy1waCcsICc3LjAnLCAnLXRuJywgJzgnLCAnLW1hJywgJzIwMCcsICctbWV0YWxfYmluZGluZycsICctaW1hZScsICc8aW5maWxlLm1hZT4nLCAnLW9tYWUnLCAnPG91dGZpbGUubWFlPic=

> <r_lp_tautomer_probability>
1

> <r_epik_Ionization_Penalty>
0.114248

> <r_epik_Ionization_Penalty_Charging>
0

> <r_epik_Ionization_Penalty_Neutral>
0.114248

> <r_epik_State_Penalty>
0.103909

> <r_epik_Charging_Adjusted_Penalty>
0.103909

> <i_epik_Tot_Q>
0

> <i_epik_Tot_abs_Q>
0

> <r_epik_Metal_State_Penalty>
0.436178

> <b_epik_Metal_Only>
0

> <s_lp_Force_Field>
OPLS_2005

> <r_lp_Energy>
7.48288

> <b_lp_Chiralities_Consistent>
1

> <s_lp_Variant>
AV-unprocessed.smi:1602-1

> <Gold.Version>
5.8.1

> <Gold.Id.Protein>
6NUR|6NUR_protein|mol2

> <Gold.PLP.Fitness>
41.7439

> <Gold.PLP.PLP>
-30.2516

> <Gold.PLP.part.hbond>
-4.8066

> <Gold.PLP.part.metal>
0.0000

> <Gold.PLP.part.buried>
-4.0193

> <Gold.PLP.part.nonpolar>
-21.5016

> <Gold.PLP.part.repulsive>
0.0865

> <Gold.PLP.ligand.clash>
0.0000

> <Gold.PLP.ligand.torsion>
1.0424

> <Gold.PLP.Chemscore.Hbond>
4.2782

> <Gold.PLP.Chemscore.CHOScore>
0.0000

> <Gold.PLP.Chemscore.Metal>
0.0000

> <Gold.Chemscore.Hbonds>
donor molecule, donor type, donor heavy atom, donor atom, acceptor molecule, acceptor atom, score
      P1  H  6896  6907       L1    11  0.54
      P1  H  6931  6943       L1     8  0.96
      P1  H  6934  6947       L1     8  0.78
      P1  H  7989  7998       L1    16  0.81
      P1  H 10752 10765       L1    12  1.00

> <Gold.PLP.Chemscore.Internal.Correction>
0.7424

> <Gold.Rescore>
     Score         DG    S(hbond)    S(metal)    S(lipo)     H(rot)  DE(clash)    DE(int)     intcor
     18.45     -19.31       3.58        0.00      59.04       1.97       0.02       0.84       ----

> <Gold.Chemscore.Fitness>
18.4493

> <Gold.Chemscore.DG>
-19.3050

> <Gold.Chemscore.ZeroCoef>
-5.4800

> <Gold.Chemscore.Hbond>
3.5774

> <Gold.Chemscore.Metal>
0.0000

> <Gold.Chemscore.Lipo>
59.0438

> <Gold.Chemscore.Internal_Hbond>
0.0000

> <Gold.Chemscore.DEClash>
0.0202

> <Gold.Chemscore.DEInternal>
0.8355

> <Gold.Chemscore.Rot>
1.9654

> <Gold.Chemscore.Internal.Correction>
   9.000000E+99

> <Gold.Chemscore.Hbonds>
donor molecule, donor type, donor heavy atom, donor atom, acceptor molecule, acceptor atom, score
      P1  H  6896  6907       L1    11  0.54
      P1  H  6931  6943       L1     8  0.42
      P1  H  6934  6947       L1     8  0.74
      P1  H  7989  7998       L1    16  0.76
      P1  H 10752 10765       L1    12  0.91

> <Gold.Chemscore.Hbond.Weighted>
-11.9484

> <Gold.Chemscore.Metal.Weighted>
-0.0000

> <Gold.Chemscore.Lipo.Weighted>
-6.9081

> <Gold.Chemscore.Internal_Hbond.Weighted>
0.0000

> <Gold.Chemscore.DEClash.Weighted>
0.0202

> <Gold.Chemscore.DEInternal.Weighted>
0.8355

> <Gold.Chemscore.Rot.Weighted>
5.0315

> <Gold.Chemscore.Internal.Correction.Weighted>
   9.000000E+99

> <Gold.Protein.RotatedTorsions>
[ 6907 6896 6895 6894 ] final  -18.86 input  -60.11 | X-H torsion
[ 7974 7965 7964 7962 ] final   83.40 input  175.53 | X-H torsion
[ 8008 7997 7996 7995 ] final  164.61 input   59.86 | X-H torsion
[ 10167 10162 10161 10158 ] final   32.19 input  -65.29 | X-H torsion
[ 10718 10713 10712 10709 ] final -173.36 input   66.30 | X-H torsion
[ 10763 10752 10751 10750 ] final -163.42 input  -60.55 | X-H torsion
[ 11005 11000 10999 10996 ] final -141.52 input  -57.11 | X-H torsion

> <Gold.Protein.ActiveResidues>
 VAL166  LYS551  ARG553  GLY616  TRP617  ASP618  TYR619  PRO620  LYS621  CYS622 
 ASP623  PHE694  ASN695  SER759  ASP760  ASP761  ALA762  ILE779  LEU786  VAL792 
 PHE793  MET794  SER795  GLU796  ALA797  LYS798  CYS799  TRP800  GLU811  SER814 

> <Gold.Protein.RotatedAtoms>
  151.2717  135.0686  159.9136 H   0  0  0  0  0  0  0  0  0  0  0  0  # atno 6907 bound_to 6896
  152.5349  134.0123  159.7954 H   0  0  0  0  0  0  0  0  0  0  0  0  # atno 6908 bound_to 6896
  151.0362  133.5696  159.2686 H   0  0  0  0  0  0  0  0  0  0  0  0  # atno 6909 bound_to 6896
  145.6124  139.2371  143.2185 H   0  0  0  0  0  0  0  0  0  0  0  0  # atno 7974 bound_to 7965
  156.1866  140.1692  156.8173 H   0  0  0  0  0  0  0  0  0  0  0  0  # atno 8008 bound_to 7997
  154.5421  140.0734  156.8560 H   0  0  0  0  0  0  0  0  0  0  0  0  # atno 8009 bound_to 7997
  155.3194  140.3372  155.4244 H   0  0  0  0  0  0  0  0  0  0  0  0  # atno 8010 bound_to 7997
  140.4521  144.1033  150.6194 H   0  0  0  0  0  0  0  0  0  0  0  0  # atno 10167 bound_to 10162
  156.7691  130.9442  151.3119 H   0  0  0  0  0  0  0  0  0  0  0  0  # atno 10718 bound_to 10713
  154.7123  135.3009  154.9177 H   0  0  0  0  0  0  0  0  0  0  0  0  # atno 10763 bound_to 10752
  154.0075  135.6699  153.4767 H   0  0  0  0  0  0  0  0  0  0  0  0  # atno 10764 bound_to 10752
  153.0765  135.5032  154.8329 H   0  0  0  0  0  0  0  0  0  0  0  0  # atno 10765 bound_to 10752
  140.8316  134.2509  157.4854 H   0  0  0  0  0  0  0  0  0  0  0  0  # atno 11005 bound_to 11000
  146.1494  140.6946  142.9329 LP  0  0  0  0  0  0  0  0  0  0  0  0  # atno 17320 bound_to 7965
  144.7264  140.4538  143.6970 LP  0  0  0  0  0  0  0  0  0  0  0  0  # atno 17321 bound_to 7965
  140.4195  143.2618  151.9733 LP  0  0  0  0  0  0  0  0  0  0  0  0  # atno 17342 bound_to 10162
  139.4797  144.5843  151.7879 LP  0  0  0  0  0  0  0  0  0  0  0  0  # atno 17343 bound_to 10162
  157.6699  130.9042  150.0017 LP  0  0  0  0  0  0  0  0  0  0  0  0  # atno 17370 bound_to 10713
  156.1289  130.3644  149.9763 LP  0  0  0  0  0  0  0  0  0  0  0  0  # atno 17371 bound_to 10713
  139.8705  134.9589  156.4315 LP  0  0  0  0  0  0  0  0  0  0  0  0  # atno 17394 bound_to 11000
  140.8991  133.7792  155.9660 LP  0  0  0  0  0  0  0  0  0  0  0  0  # atno 17395 bound_to 11000

$$$$
