AV-unprocessed.smi:102|AV-procd|sdf|973|dock6
  -GOLD-   2262017523D 1   1.00000     0.00000
 Structure written by MMmdl.
 43 44  0  0  0  0  0  0  0  0  2 V2000
  143.7776  139.7900  158.6703 C   0  0  0  0  0  0  0  0  0  0  0  0
  144.7556  138.7692  159.2377 C   0  0  0  0  0  0  0  0  0  0  0  0
  145.2448  138.9053  160.3592 O   0  0  0  0  0  0  0  0  0  0  0  0
  144.9983  137.7612  158.3865 O   0  0  0  0  0  0  0  0  0  0  0  0
  145.9402  136.7564  158.7285 C   0  0  0  0  0  0  0  0  0  0  0  0
  147.3631  137.2398  158.3963 C   0  0  2  0  0  0  0  0  0  0  0  0
  147.4475  137.3512  156.9743 O   0  0  0  0  0  0  0  0  0  0  0  0
  148.3627  136.4342  156.4428 C   0  0  1  0  0  0  0  0  0  0  0  0
  149.6247  137.1594  156.0202 N   0  0  0  0  0  0  0  0  0  0  0  0
  149.7253  138.5397  156.0947 C   0  0  0  0  0  0  0  0  0  0  0  0
  150.8568  139.1797  155.7366 C   0  0  0  0  0  0  0  0  0  0  0  0
  150.9240  140.5194  155.8243 F   0  0  0  0  0  0  0  0  0  0  0  0
  152.0032  138.4095  155.2594 C   0  0  0  0  0  0  0  0  0  0  0  0
  153.0327  138.9991  154.9346 O   0  0  0  0  0  0  0  0  0  0  0  0
  151.8779  137.0525  155.1961 N   0  5  0  0  0  0  0  0  0  0  0  0
  150.7359  136.3996  155.5617 C   0  0  0  0  0  0  0  0  0  0  0  0
  150.6190  135.1752  155.5188 O   0  0  0  0  0  0  0  0  0  0  0  0
  148.6926  135.4276  157.5504 C   0  0  2  0  0  0  0  0  0  0  0  0
  147.7653  134.3480  157.4971 O   0  0  0  0  0  0  0  0  0  0  0  0
  148.0782  133.1474  158.0128 C   0  0  0  0  0  0  0  0  0  0  0  0
  146.9251  132.1569  157.9163 C   0  0  0  0  0  0  0  0  0  0  0  0
  149.1521  132.8303  158.5231 O   0  0  0  0  0  0  0  0  0  0  0  0
  148.4954  136.2777  158.7923 C   0  0  2  0  0  0  0  0  0  0  0  0
  148.2559  135.4785  159.9459 O   0  0  0  0  0  0  0  0  0  0  0  0
  147.7150  136.0238  161.0487 C   0  0  0  0  0  0  0  0  0  0  0  0
  147.4240  134.9868  162.1248 C   0  0  0  0  0  0  0  0  0  0  0  0
  147.4494  137.2142  161.2150 O   0  0  0  0  0  0  0  0  0  0  0  0
  143.4694  139.5165  157.6607 H   0  0  0  0  0  0  0  0  0  0  0  0
  144.2420  140.7754  158.6324 H   0  0  0  0  0  0  0  0  0  0  0  0
  142.8888  139.8501  159.2983 H   0  0  0  0  0  0  0  0  0  0  0  0
  145.8650  136.4787  159.7803 H   0  0  0  0  0  0  0  0  0  0  0  0
  145.7063  135.8656  158.1442 H   0  0  0  0  0  0  0  0  0  0  0  0
  147.5239  138.2243  158.8371 H   0  0  0  0  0  0  0  0  0  0  0  0
  147.9591  135.9923  155.5300 H   0  0  0  0  0  0  0  0  0  0  0  0
  148.8946  139.1305  156.4484 H   0  0  0  0  0  0  0  0  0  0  0  0
  149.7228  135.0772  157.4720 H   0  0  0  0  0  0  0  0  0  0  0  0
  146.2399  132.4365  157.1156 H   0  0  0  0  0  0  0  0  0  0  0  0
  146.3705  132.1334  158.8544 H   0  0  0  0  0  0  0  0  0  0  0  0
  147.3023  131.1546  157.7125 H   0  0  0  0  0  0  0  0  0  0  0  0
  149.4092  136.8590  158.9265 H   0  0  0  0  0  0  0  0  0  0  0  0
  148.2248  134.2485  162.1716 H   0  0  0  0  0  0  0  0  0  0  0  0
  146.4890  134.4711  161.9064 H   0  0  0  0  0  0  0  0  0  0  0  0
  147.3369  135.4635  163.1014 H   0  0  0  0  0  0  0  0  0  0  0  0
  1  2  1  0  0  0  0
  1 28  1  0  0  0  0
  1 29  1  0  0  0  0
  1 30  1  0  0  0  0
  2  3  2  0  0  0  0
  2  4  1  0  0  0  0
  4  5  1  0  0  0  0
  5  6  1  0  0  0  0
  5 31  1  0  0  0  0
  5 32  1  0  0  0  0
  6 23  1  0  0  0  0
  6  7  1  0  0  0  0
  6 33  1  0  0  0  0
  7  8  1  0  0  0  0
  8  9  1  0  0  0  0
  8 18  1  0  0  0  0
  8 34  1  0  0  0  0
  9 16  1  0  0  0  0
  9 10  1  0  0  0  0
 10 11  2  0  0  0  0
 10 35  1  0  0  0  0
 11 12  1  0  0  0  0
 11 13  1  0  0  0  0
 13 14  2  0  0  0  0
 13 15  1  0  0  0  0
 15 16  1  0  0  0  0
 16 17  2  0  0  0  0
 18 19  1  0  0  0  0
 18 23  1  0  0  0  0
 18 36  1  0  0  0  0
 19 20  1  0  0  0  0
 20 21  1  0  0  0  0
 20 22  2  0  0  0  0
 21 37  1  0  0  0  0
 21 38  1  0  0  0  0
 21 39  1  0  0  0  0
 23 24  1  0  0  0  0
 23 40  1  0  0  0  0
 24 25  1  0  0  0  0
 25 26  1  0  0  0  0
 25 27  2  0  0  0  0
 26 41  1  0  0  0  0
 26 42  1  0  0  0  0
 26 43  1  0  0  0  0
M  CHG  1  15  -1
M  END
> <s_m_source_file>
AV-unprocessed.smi

> <i_m_source_file_index>
102

> <i_lp_mmshare_version>
43012

> <i_f3d_flags>
0

> <s_epik_input>
W0NIM11DKD1PKU9bQ0gyXVtDQEBIXTFPW0NASF0oW0NAQEhdKE9DKD1PKVtDSDNdKVtDQEhdMU9DKD1PKVtDSDNdKW4yW2NIXWMoRiljKD1PKVtuSF1jMj1P

> <s_epik_cmdline>
J2VwaWtfcHl0aG9uJywgJy1waCcsICc3LjAnLCAnLXRuJywgJzgnLCAnLW1hJywgJzIwMCcsICctbWV0YWxfYmluZGluZycsICctaW1hZScsICc8aW5maWxlLm1hZT4nLCAnLW9tYWUnLCAnPG91dGZpbGUubWFlPic=

> <r_epik_Ionization_Penalty>
1.40304

> <r_epik_Ionization_Penalty_Charging>
1.43915e-08

> <r_epik_Ionization_Penalty_Neutral>
1.40304

> <r_epik_State_Penalty>
1.48536

> <r_epik_Charging_Adjusted_Penalty>
1.48536

> <i_epik_Tot_Q>
-1

> <i_epik_Tot_abs_Q>
1

> <r_epik_Metal_State_Penalty>
0.00663881

> <b_epik_Metal_Only>
0

> <s_epik_Chemistry_Notes>
This compound has an ester and may undergo hydrolysis at high or low pH. This compound contains an acetal/aminal-like group ( X-CH(R)-Y where X, Y are N, S, or O) that may be acid/base labile, releasing an aldehyde.

> <s_lp_Force_Field>
OPLS_2005

> <r_lp_Energy>
27.0853

> <b_lp_Chiralities_Consistent>
1

> <s_lp_Variant>
AV-unprocessed.smi:102-29

> <Gold.Version>
5.8.1

> <Gold.Id.Protein>
6NUR|6NUR_protein|mol2

> <Gold.PLP.Fitness>
43.5274

> <Gold.PLP.PLP>
-27.2343

> <Gold.PLP.part.hbond>
-6.0000

> <Gold.PLP.part.metal>
0.0000

> <Gold.PLP.part.buried>
-6.0371

> <Gold.PLP.part.nonpolar>
-16.2422

> <Gold.PLP.part.repulsive>
0.1501

> <Gold.PLP.ligand.clash>
0.0000

> <Gold.PLP.ligand.torsion>
0.6693

> <Gold.PLP.Chemscore.Hbond>
5.8400

> <Gold.PLP.Chemscore.CHOScore>
0.0000

> <Gold.PLP.Chemscore.Metal>
0.0000

> <Gold.Chemscore.Hbonds>
donor molecule, donor type, donor heavy atom, donor atom, acceptor molecule, acceptor atom, score
      P1  H  6896  6908       L1    22  0.93
      P1  H  6931  6943       L1    27  0.88
      P1  H  6934  6947       L1    27  0.98
      P1  H  7997  8010       L1    14  0.80
      P1  H 10752 10764       L1    15  1.98

> <Gold.PLP.Chemscore.Internal.Correction>
0.1118

> <Gold.Rescore>
     Score         DG    S(hbond)    S(metal)    S(lipo)     H(rot)  DE(clash)    DE(int)     intcor
      9.57     -10.56       3.75        0.00      23.62       4.00       0.06       0.93       ----

> <Gold.Chemscore.Fitness>
9.5691

> <Gold.Chemscore.DG>
-10.5557

> <Gold.Chemscore.ZeroCoef>
-5.4800

> <Gold.Chemscore.Hbond>
3.7542

> <Gold.Chemscore.Metal>
0.0000

> <Gold.Chemscore.Lipo>
23.6237

> <Gold.Chemscore.Internal_Hbond>
0.0000

> <Gold.Chemscore.DEClash>
0.0580

> <Gold.Chemscore.DEInternal>
0.9286

> <Gold.Chemscore.Rot>
3.9951

> <Gold.Chemscore.Internal.Correction>
   9.000000E+99

> <Gold.Chemscore.Hbonds>
donor molecule, donor type, donor heavy atom, donor atom, acceptor molecule, acceptor atom, score
      P1  H  6896  6908       L1    22  0.86
      P1  H  6931  6943       L1    27  0.68
      P1  H  6934  6947       L1    27  0.92
      P1  H  7997  8010       L1    14  0.78
      P1  H 10752 10764       L1    15  0.24

> <Gold.Chemscore.Hbond.Weighted>
-12.5391

> <Gold.Chemscore.Metal.Weighted>
-0.0000

> <Gold.Chemscore.Lipo.Weighted>
-2.7640

> <Gold.Chemscore.Internal_Hbond.Weighted>
0.0000

> <Gold.Chemscore.DEClash.Weighted>
0.0580

> <Gold.Chemscore.DEInternal.Weighted>
0.9286

> <Gold.Chemscore.Rot.Weighted>
10.2274

> <Gold.Chemscore.Internal.Correction.Weighted>
   9.000000E+99

> <Gold.Protein.RotatedTorsions>
[ 6907 6896 6895 6894 ] final  105.79 input  -60.11 | X-H torsion
[ 7974 7965 7964 7962 ] final  -29.28 input  175.53 | X-H torsion
[ 8008 7997 7996 7995 ] final  116.15 input   59.86 | X-H torsion
[ 10167 10162 10161 10158 ] final   90.44 input  -65.29 | X-H torsion
[ 10718 10713 10712 10709 ] final   21.04 input   66.30 | X-H torsion
[ 10763 10752 10751 10750 ] final  -49.34 input  -60.55 | X-H torsion
[ 11005 11000 10999 10996 ] final   91.46 input  -57.11 | X-H torsion

> <Gold.Protein.ActiveResidues>
 VAL166  LYS551  ARG553  GLY616  TRP617  ASP618  TYR619  PRO620  LYS621  CYS622 
 ASP623  PHE694  ASN695  SER759  ASP760  ASP761  ALA762  ILE779  LEU786  VAL792 
 PHE793  MET794  SER795  GLU796  ALA797  LYS798  CYS799  TRP800  GLU811  SER814 

> <Gold.Protein.RotatedAtoms>
  152.5218  133.9477  159.7656 H   0  0  0  0  0  0  0  0  0  0  0  0  # atno 6907 bound_to 6896
  150.9793  133.6253  159.2732 H   0  0  0  0  0  0  0  0  0  0  0  0  # atno 6908 bound_to 6896
  151.3437  135.0875  159.9432 H   0  0  0  0  0  0  0  0  0  0  0  0  # atno 6909 bound_to 6896
  146.1228  140.5392  142.8728 H   0  0  0  0  0  0  0  0  0  0  0  0  # atno 7974 bound_to 7965
  156.2423  140.2923  156.0479 H   0  0  0  0  0  0  0  0  0  0  0  0  # atno 8008 bound_to 7997
  155.1914  140.0407  157.2918 H   0  0  0  0  0  0  0  0  0  0  0  0  # atno 8009 bound_to 7997
  154.6192  140.2471  155.7578 H   0  0  0  0  0  0  0  0  0  0  0  0  # atno 8010 bound_to 7997
  139.8473  144.6611  150.9212 H   0  0  0  0  0  0  0  0  0  0  0  0  # atno 10167 bound_to 10162
  157.1329  130.6599  149.5957 H   0  0  0  0  0  0  0  0  0  0  0  0  # atno 10718 bound_to 10713
  154.0925  135.6575  153.4855 H   0  0  0  0  0  0  0  0  0  0  0  0  # atno 10763 bound_to 10752
  153.0317  135.5206  154.7366 H   0  0  0  0  0  0  0  0  0  0  0  0  # atno 10764 bound_to 10752
  154.6494  135.2999  154.9974 H   0  0  0  0  0  0  0  0  0  0  0  0  # atno 10765 bound_to 10752
  139.8838  134.8675  156.3431 H   0  0  0  0  0  0  0  0  0  0  0  0  # atno 11005 bound_to 11000
  144.7613  140.5428  143.6733 LP  0  0  0  0  0  0  0  0  0  0  0  0  # atno 17320 bound_to 7965
  145.5430  139.1475  143.3436 LP  0  0  0  0  0  0  0  0  0  0  0  0  # atno 17321 bound_to 7965
  140.7791  143.3859  151.1395 LP  0  0  0  0  0  0  0  0  0  0  0  0  # atno 17342 bound_to 10162
  139.7500  143.8793  152.3074 LP  0  0  0  0  0  0  0  0  0  0  0  0  # atno 17343 bound_to 10162
  155.9804  130.4804  150.6770 LP  0  0  0  0  0  0  0  0  0  0  0  0  # atno 17370 bound_to 10713
  157.4376  131.0857  151.0976 LP  0  0  0  0  0  0  0  0  0  0  0  0  # atno 17371 bound_to 10713
  140.9645  133.7367  156.0447 LP  0  0  0  0  0  0  0  0  0  0  0  0  # atno 17394 bound_to 11000
  140.7948  134.3576  157.5455 LP  0  0  0  0  0  0  0  0  0  0  0  0  # atno 17395 bound_to 11000

$$$$
