AV-unprocessed.smi:2065|AV-procd|sdf|8417|dock3
  -GOLD-   2272011113D 1   1.00000     0.00000
 Structure written by MMmdl.
 38 39  0  0  0  0  0  0  0  0  1 V2000
  146.7360  138.6402  152.4668 C   0  0  0  0  0  0  0  0  0  0  0  0
  147.1337  139.8538  153.2536 C   0  0  0  0  0  0  0  0  0  0  0  0
  148.2553  140.0092  154.1190 C   0  0  0  0  0  0  0  0  0  0  0  0
  148.1223  141.2991  154.5550 C   0  0  0  0  0  0  0  0  0  0  0  0
  148.9193  142.0016  155.4028 N   0  0  0  0  0  0  0  0  0  0  0  0
  149.5893  141.5637  156.4827 C   0  0  0  0  0  0  0  0  0  0  0  0
  149.5888  140.4065  156.9036 O   0  0  0  0  0  0  0  0  0  0  0  0
  150.2699  142.5620  157.0638 N   0  0  0  0  0  0  0  0  0  0  0  0
  151.1209  142.4409  158.2471 C   0  0  2  0  0  0  0  0  0  0  0  0
  151.7198  143.8175  158.6343 C   0  0  0  0  0  0  0  0  0  0  0  0
  153.0343  143.7816  159.4416 C   0  0  0  0  0  0  0  0  0  0  0  0
  153.0051  142.9213  160.7212 C   0  0  0  0  0  0  0  0  0  0  0  0
  152.5859  141.4404  160.5556 C   0  0  0  0  0  0  0  0  0  0  0  0
  152.7937  140.8995  159.2128 N   0  0  0  0  0  0  0  0  0  0  0  0
  152.1400  141.2939  158.1064 C   0  0  0  0  0  0  0  0  0  0  0  0
  152.3588  140.7757  157.0120 O   0  0  0  0  0  0  0  0  0  0  0  0
  147.0004  141.8508  153.9781 N   0  0  0  0  0  0  0  0  0  0  0  0
  146.4497  143.1837  154.1270 C   0  0  0  0  0  0  0  0  0  0  0  0
  146.3909  140.9523  153.1747 N   0  0  0  0  0  0  0  0  0  0  0  0
  147.4683  137.8405  152.5795 H   0  0  0  0  0  0  0  0  0  0  0  0
  146.6571  138.8692  151.4038 H   0  0  0  0  0  0  0  0  0  0  0  0
  145.7716  138.2558  152.7992 H   0  0  0  0  0  0  0  0  0  0  0  0
  149.0181  139.2848  154.3615 H   0  0  0  0  0  0  0  0  0  0  0  0
  149.0086  142.9849  155.1931 H   0  0  0  0  0  0  0  0  0  0  0  0
  150.2158  143.4799  156.6465 H   0  0  0  0  0  0  0  0  0  0  0  0
  150.4610  142.1342  159.0597 H   0  0  0  0  0  0  0  0  0  0  0  0
  151.9086  144.3965  157.7291 H   0  0  0  0  0  0  0  0  0  0  0  0
  150.9721  144.3826  159.1922 H   0  0  0  0  0  0  0  0  0  0  0  0
  153.8460  143.4405  158.7974 H   0  0  0  0  0  0  0  0  0  0  0  0
  153.3027  144.8027  159.7141 H   0  0  0  0  0  0  0  0  0  0  0  0
  154.0052  142.9471  161.1552 H   0  0  0  0  0  0  0  0  0  0  0  0
  152.3560  143.3909  161.4611 H   0  0  0  0  0  0  0  0  0  0  0  0
  153.1410  140.8245  161.2635 H   0  0  0  0  0  0  0  0  0  0  0  0
  151.5379  141.3163  160.8305 H   0  0  0  0  0  0  0  0  0  0  0  0
  153.4718  140.1569  159.1196 H   0  0  0  0  0  0  0  0  0  0  0  0
  146.2957  143.4007  155.1844 H   0  0  0  0  0  0  0  0  0  0  0  0
  145.4939  143.2656  153.6074 H   0  0  0  0  0  0  0  0  0  0  0  0
  147.1437  143.9141  153.7104 H   0  0  0  0  0  0  0  0  0  0  0  0
  1  2  1  0  0  0  0
  1 20  1  0  0  0  0
  1 21  1  0  0  0  0
  1 22  1  0  0  0  0
  2 19  2  0  0  0  0
  2  3  1  0  0  0  0
  3  4  2  0  0  0  0
  3 23  1  0  0  0  0
  4  5  1  0  0  0  0
  4 17  1  0  0  0  0
  5  6  1  0  0  0  0
  5 24  1  0  0  0  0
  6  7  2  0  0  0  0
  6  8  1  0  0  0  0
  8  9  1  0  0  0  0
  8 25  1  0  0  0  0
  9 15  1  0  0  0  0
  9 10  1  0  0  0  0
  9 26  1  0  0  0  0
 10 11  1  0  0  0  0
 10 27  1  0  0  0  0
 10 28  1  0  0  0  0
 11 12  1  0  0  0  0
 11 29  1  0  0  0  0
 11 30  1  0  0  0  0
 12 13  1  0  0  0  0
 12 31  1  0  0  0  0
 12 32  1  0  0  0  0
 13 14  1  0  0  0  0
 13 33  1  0  0  0  0
 13 34  1  0  0  0  0
 14 15  1  0  0  0  0
 14 35  1  0  0  0  0
 15 16  2  0  0  0  0
 17 18  1  0  0  0  0
 17 19  1  0  0  0  0
 18 36  1  0  0  0  0
 18 37  1  0  0  0  0
 18 38  1  0  0  0  0
M  END
> <s_m_source_file>
AV-unprocessed.smi

> <i_m_source_file_index>
2065

> <i_lp_mmshare_version>
43012

> <i_f3d_flags>
0

> <s_epik_input>
W0NIM11jMVtjSF1jKG4objEpW0NIM10pW05IXUMoPU8pW05IXVtDQEBIXTJbQ0gyXVtDSDJdW0NIMl1bQ0gyXVtOSF1DMj1P

> <s_epik_cmdline>
J2VwaWtfcHl0aG9uJywgJy1waCcsICc3LjAnLCAnLXRuJywgJzgnLCAnLW1hJywgJzIwMCcsICctbWV0YWxfYmluZGluZycsICctaW1hZScsICc8aW5maWxlLm1hZT4nLCAnLW9tYWUnLCAnPG91dGZpbGUubWFlPic=

> <r_lp_tautomer_probability>
1

> <r_epik_Ionization_Penalty>
8.1752e-05

> <r_epik_Ionization_Penalty_Charging>
0

> <r_epik_Ionization_Penalty_Neutral>
8.1752e-05

> <r_epik_State_Penalty>
-0

> <r_epik_Charging_Adjusted_Penalty>
0

> <i_epik_Tot_Q>
0

> <i_epik_Tot_abs_Q>
0

> <r_epik_Metal_State_Penalty>
-0

> <b_epik_Metal_Only>
0

> <s_lp_Force_Field>
OPLS_2005

> <r_lp_Energy>
15.6016

> <b_lp_Chiralities_Consistent>
1

> <s_lp_Variant>
AV-unprocessed.smi:2065-1

> <Gold.Version>
5.8.1

> <Gold.Id.Protein>
6NUR|6NUR_protein|mol2

> <Gold.PLP.Fitness>
40.0654

> <Gold.PLP.PLP>
-33.2783

> <Gold.PLP.part.hbond>
-3.0000

> <Gold.PLP.part.metal>
0.0000

> <Gold.PLP.part.buried>
1.3395

> <Gold.PLP.part.nonpolar>
-32.7427

> <Gold.PLP.part.repulsive>
2.3113

> <Gold.PLP.ligand.clash>
0.0000

> <Gold.PLP.ligand.torsion>
0.2915

> <Gold.PLP.Chemscore.Hbond>
2.4394

> <Gold.PLP.Chemscore.CHOScore>
0.0000

> <Gold.PLP.Chemscore.Metal>
0.0000

> <Gold.Chemscore.Hbonds>
donor molecule, donor type, donor heavy atom, donor atom, acceptor molecule, acceptor atom, score
      L1  H     5    24       P1  8028  1.00
      L1  H     8    25       P1  8028  0.77
      P1  H  7997  8008       L1    16  0.55

> <Gold.PLP.Chemscore.Internal.Correction>
0.0520

> <Gold.Rescore>
     Score         DG    S(hbond)    S(metal)    S(lipo)     H(rot)  DE(clash)    DE(int)     intcor
     14.07     -19.88       2.21        0.00      81.98       1.00       1.86       3.96       ----

> <Gold.Chemscore.Fitness>
14.0681

> <Gold.Chemscore.DG>
-19.8807

> <Gold.Chemscore.ZeroCoef>
-5.4800

> <Gold.Chemscore.Hbond>
2.2063

> <Gold.Chemscore.Metal>
0.0000

> <Gold.Chemscore.Lipo>
81.9788

> <Gold.Chemscore.Internal_Hbond>
0.0000

> <Gold.Chemscore.DEClash>
1.8565

> <Gold.Chemscore.DEInternal>
3.9561

> <Gold.Chemscore.Rot>
1.0000

> <Gold.Chemscore.Internal.Correction>
   9.000000E+99

> <Gold.Chemscore.Hbonds>
donor molecule, donor type, donor heavy atom, donor atom, acceptor molecule, acceptor atom, score
      L1  H     5    24       P1  8028  0.96
      L1  H     8    25       P1  8028  0.74
      P1  H  7997  8008       L1    16  0.52

> <Gold.Chemscore.Hbond.Weighted>
-7.3692

> <Gold.Chemscore.Metal.Weighted>
-0.0000

> <Gold.Chemscore.Lipo.Weighted>
-9.5915

> <Gold.Chemscore.Internal_Hbond.Weighted>
0.0000

> <Gold.Chemscore.DEClash.Weighted>
1.8565

> <Gold.Chemscore.DEInternal.Weighted>
3.9561

> <Gold.Chemscore.Rot.Weighted>
2.5600

> <Gold.Chemscore.Internal.Correction.Weighted>
   9.000000E+99

> <Gold.Protein.RotatedTorsions>
[ 6907 6896 6895 6894 ] final  158.02 input  -60.11 | X-H torsion
[ 7974 7965 7964 7962 ] final  -64.35 input  175.53 | X-H torsion
[ 8008 7997 7996 7995 ] final  -50.50 input   59.86 | X-H torsion
[ 10167 10162 10161 10158 ] final -165.12 input  -65.29 | X-H torsion
[ 10718 10713 10712 10709 ] final   81.77 input   66.30 | X-H torsion
[ 10763 10752 10751 10750 ] final   19.12 input  -60.55 | X-H torsion
[ 11005 11000 10999 10996 ] final  -74.66 input  -57.11 | X-H torsion

> <Gold.Protein.ActiveResidues>
 VAL166  LYS551  ARG553  GLY616  TRP617  ASP618  TYR619  PRO620  LYS621  CYS622 
 ASP623  PHE694  ASN695  SER759  ASP760  ASP761  ALA762  ILE779  LEU786  VAL792 
 PHE793  MET794  SER795  GLU796  ALA797  LYS798  CYS799  TRP800  GLU811  SER814 

> <Gold.Protein.RotatedAtoms>
  152.0066  133.3845  159.4202 H   0  0  0  0  0  0  0  0  0  0  0  0  # atno 6907 bound_to 6896
  150.6904  134.3776  159.5029 H   0  0  0  0  0  0  0  0  0  0  0  0  # atno 6908 bound_to 6896
  152.1531  134.8972  160.0597 H   0  0  0  0  0  0  0  0  0  0  0  0  # atno 6909 bound_to 6896
  145.7678  140.8828  143.0396 H   0  0  0  0  0  0  0  0  0  0  0  0  # atno 7974 bound_to 7965
  154.4063  140.1271  156.4676 H   0  0  0  0  0  0  0  0  0  0  0  0  # atno 8008 bound_to 7997
  155.7211  140.3492  155.4996 H   0  0  0  0  0  0  0  0  0  0  0  0  # atno 8009 bound_to 7997
  155.9214  140.1053  157.1194 H   0  0  0  0  0  0  0  0  0  0  0  0  # atno 8010 bound_to 7997
  139.6204  144.0637  152.1927 H   0  0  0  0  0  0  0  0  0  0  0  0  # atno 10167 bound_to 10162
  157.6841  131.0018  150.2276 H   0  0  0  0  0  0  0  0  0  0  0  0  # atno 10718 bound_to 10713
  153.1190  135.6714  153.9369 H   0  0  0  0  0  0  0  0  0  0  0  0  # atno 10763 bound_to 10752
  153.8890  135.3049  155.3448 H   0  0  0  0  0  0  0  0  0  0  0  0  # atno 10764 bound_to 10752
  154.7603  135.4991  153.9531 H   0  0  0  0  0  0  0  0  0  0  0  0  # atno 10765 bound_to 10752
  141.1637  133.6919  156.7399 H   0  0  0  0  0  0  0  0  0  0  0  0  # atno 11005 bound_to 11000
  144.6818  139.9812  143.7483 LP  0  0  0  0  0  0  0  0  0  0  0  0  # atno 17320 bound_to 7965
  146.0200  139.3243  143.0818 LP  0  0  0  0  0  0  0  0  0  0  0  0  # atno 17321 bound_to 7965
  140.0277  144.6105  150.7514 LP  0  0  0  0  0  0  0  0  0  0  0  0  # atno 17342 bound_to 10162
  140.7378  143.2770  151.3712 LP  0  0  0  0  0  0  0  0  0  0  0  0  # atno 17343 bound_to 10162
  156.2915  130.3746  149.7837 LP  0  0  0  0  0  0  0  0  0  0  0  0  # atno 17370 bound_to 10713
  156.5495  130.8335  151.3295 LP  0  0  0  0  0  0  0  0  0  0  0  0  # atno 17371 bound_to 10713
  140.2682  134.8413  157.3823 LP  0  0  0  0  0  0  0  0  0  0  0  0  # atno 17394 bound_to 11000
  140.1546  134.4806  155.7937 LP  0  0  0  0  0  0  0  0  0  0  0  0  # atno 17395 bound_to 11000

$$$$
