AV-unprocessed.smi:1772|AV-procd|sdf|7162|dock9
  -GOLD-   22720 8403D 1   1.00000     0.00000
 Structure written by MMmdl.
 34 35  0  0  0  0  0  0  0  0  2 V2000
  144.4764  136.7084  152.0744 O   0  0  0  0  0  0  0  0  0  0  0  0
  145.6756  136.4863  151.9093 C   0  0  0  0  0  0  0  0  0  0  0  0
  146.6328  137.3959  152.1406 N   0  0  0  0  0  0  0  0  0  0  0  0
  146.3972  138.7606  152.6018 C   0  0  0  0  0  0  0  0  0  0  0  0
  147.7033  139.4738  153.0032 C   0  0  1  0  0  0  0  0  0  0  0  0
  147.4565  140.9028  153.5241 C   0  0  0  0  0  0  0  0  0  0  0  0
  148.7552  141.4283  154.1442 C   0  0  0  0  0  0  0  0  0  0  0  0
  149.5728  139.9686  154.8895 S   0  0  0  0  0  0  0  0  0  0  0  0
  150.9432  139.8677  154.3657 O   0  0  0  0  0  0  0  0  0  0  0  0
  149.3109  139.9440  156.3364 O   0  0  0  0  0  0  0  0  0  0  0  0
  148.5107  138.7178  154.0724 C   0  0  0  0  0  0  0  0  0  0  0  0
  146.2010  135.3200  151.4956 N   0  0  0  0  0  0  0  0  0  0  0  0
  145.5280  134.1170  151.1465 C   0  0  0  0  0  0  0  0  0  0  0  0
  146.2972  133.0851  150.5641 C   0  0  0  0  0  0  0  0  0  0  0  0
  145.6728  131.8782  150.1882 C   0  0  0  0  0  0  0  0  0  0  0  0
  144.3454  131.7208  150.3776 N   0  3  0  0  0  0  0  0  0  0  0  0
  143.5659  132.6830  150.9162 C   0  0  0  0  0  0  0  0  0  0  0  0
  144.1344  133.9112  151.3117 C   0  0  0  0  0  0  0  0  0  0  0  0
  147.5943  137.1298  151.9848 H   0  0  0  0  0  0  0  0  0  0  0  0
  145.8778  139.3287  151.8281 H   0  0  0  0  0  0  0  0  0  0  0  0
  145.7197  138.7146  153.4548 H   0  0  0  0  0  0  0  0  0  0  0  0
  148.3373  139.5651  152.1198 H   0  0  0  0  0  0  0  0  0  0  0  0
  147.0967  141.5641  152.7355 H   0  0  0  0  0  0  0  0  0  0  0  0
  146.6842  140.8764  154.2942 H   0  0  0  0  0  0  0  0  0  0  0  0
  149.4162  141.8291  153.3753 H   0  0  0  0  0  0  0  0  0  0  0  0
  148.5899  142.1968  154.8996 H   0  0  0  0  0  0  0  0  0  0  0  0
  147.8549  138.2926  154.8327 H   0  0  0  0  0  0  0  0  0  0  0  0
  149.1255  137.9190  153.6569 H   0  0  0  0  0  0  0  0  0  0  0  0
  147.2092  135.2702  151.4839 H   0  0  0  0  0  0  0  0  0  0  0  0
  147.3594  133.2103  150.4106 H   0  0  0  0  0  0  0  0  0  0  0  0
  146.1917  131.0413  149.7437 H   0  0  0  0  0  0  0  0  0  0  0  0
  142.5161  132.4458  151.0090 H   0  0  0  0  0  0  0  0  0  0  0  0
  143.4881  134.6720  151.7217 H   0  0  0  0  0  0  0  0  0  0  0  0
  143.9123  130.8401  150.0979 H   0  0  0  0  0  0  0  0  0  0  0  0
  1  2  2  0  0  0  0
  2  3  1  0  0  0  0
  2 12  1  0  0  0  0
  3  4  1  0  0  0  0
  3 19  1  0  0  0  0
  4  5  1  0  0  0  0
  4 20  1  0  0  0  0
  4 21  1  0  0  0  0
  5 11  1  0  0  0  0
  5  6  1  0  0  0  0
  5 22  1  0  0  0  0
  6  7  1  0  0  0  0
  6 23  1  0  0  0  0
  6 24  1  0  0  0  0
  7  8  1  0  0  0  0
  7 25  1  0  0  0  0
  7 26  1  0  0  0  0
  8  9  2  0  0  0  0
  8 10  2  0  0  0  0
  8 11  1  0  0  0  0
 11 27  1  0  0  0  0
 11 28  1  0  0  0  0
 12 13  1  0  0  0  0
 12 29  1  0  0  0  0
 13 18  1  0  0  0  0
 13 14  2  0  0  0  0
 14 15  1  0  0  0  0
 14 30  1  0  0  0  0
 15 16  2  0  0  0  0
 15 31  1  0  0  0  0
 16 17  1  0  0  0  0
 16 34  1  0  0  0  0
 17 18  2  0  0  0  0
 17 32  1  0  0  0  0
 18 33  1  0  0  0  0
M  CHG  1  16   1
M  END
> <s_m_source_file>
AV-unprocessed.smi

> <i_m_source_file_index>
1772

> <i_lp_mmshare_version>
43012

> <i_f3d_flags>
0

> <s_epik_input>
W2NIXTFbY0hdbltjSF1bY0hdYzFbTkhdQyg9TylbTkhdW0NIMl1bQ0BASF0oW0NIMl0yKVtDSDJdW0NIMl1TMig9Tyk9Tw==

> <s_epik_cmdline>
J2VwaWtfcHl0aG9uJywgJy1waCcsICc3LjAnLCAnLXRuJywgJzgnLCAnLW1hJywgJzIwMCcsICctbWV0YWxfYmluZGluZycsICctaW1hZScsICc8aW5maWxlLm1hZT4nLCAnLW9tYWUnLCAnPG91dGZpbGUubWFlPic=

> <r_epik_Ionization_Penalty>
1.04917

> <r_epik_Ionization_Penalty_Charging>
1.04915

> <r_epik_Ionization_Penalty_Neutral>
1.90771e-05

> <r_epik_State_Penalty>
1.10185

> <r_epik_Charging_Adjusted_Penalty>
2.151

> <i_epik_Tot_Q>
1

> <i_epik_Tot_abs_Q>
1

> <r_epik_Metal_State_Penalty>
1.19638

> <b_epik_Metal_Only>
0

> <s_lp_Force_Field>
OPLS_2005

> <r_lp_Energy>
14.8117

> <b_lp_Chiralities_Consistent>
1

> <s_lp_Variant>
AV-unprocessed.smi:1772-4

> <Gold.Version>
5.8.1

> <Gold.Id.Protein>
6NUR|6NUR_protein|mol2

> <Gold.PLP.Fitness>
40.9549

> <Gold.PLP.PLP>
-32.2000

> <Gold.PLP.part.hbond>
-3.0000

> <Gold.PLP.part.metal>
0.0000

> <Gold.PLP.part.buried>
-2.3651

> <Gold.PLP.part.nonpolar>
-28.4060

> <Gold.PLP.part.repulsive>
1.3658

> <Gold.PLP.ligand.clash>
0.0000

> <Gold.PLP.ligand.torsion>
0.0640

> <Gold.PLP.Chemscore.Hbond>
2.9600

> <Gold.PLP.Chemscore.CHOScore>
0.0000

> <Gold.PLP.Chemscore.Metal>
0.0000

> <Gold.Chemscore.Hbonds>
donor molecule, donor type, donor heavy atom, donor atom, acceptor molecule, acceptor atom, score
      L1  H     3    19       P1  7948  1.00
      L1  H    12    29       P1  7948  0.96
      P1  H  7989  7998       L1     9  0.91

> <Gold.PLP.Chemscore.Internal.Correction>
0.0029

> <Gold.Rescore>
     Score         DG    S(hbond)    S(metal)    S(lipo)     H(rot)  DE(clash)    DE(int)     intcor
     18.56     -19.87       2.94        0.00      67.84       1.32       0.01       1.29       ----

> <Gold.Chemscore.Fitness>
18.5629

> <Gold.Chemscore.DG>
-19.8653

> <Gold.Chemscore.ZeroCoef>
-5.4800

> <Gold.Chemscore.Hbond>
2.9385

> <Gold.Chemscore.Metal>
0.0000

> <Gold.Chemscore.Lipo>
67.8441

> <Gold.Chemscore.Internal_Hbond>
0.0000

> <Gold.Chemscore.DEClash>
0.0128

> <Gold.Chemscore.DEInternal>
1.2896

> <Gold.Chemscore.Rot>
1.3153

> <Gold.Chemscore.Internal.Correction>
   9.000000E+99

> <Gold.Chemscore.Hbonds>
donor molecule, donor type, donor heavy atom, donor atom, acceptor molecule, acceptor atom, score
      L1  H     3    19       P1  7948  0.99
      L1  H    12    29       P1  7948  0.82
      P1  H  7989  7998       L1     9  0.87

> <Gold.Chemscore.Hbond.Weighted>
-9.8148

> <Gold.Chemscore.Metal.Weighted>
-0.0000

> <Gold.Chemscore.Lipo.Weighted>
-7.9378

> <Gold.Chemscore.Internal_Hbond.Weighted>
0.0000

> <Gold.Chemscore.DEClash.Weighted>
0.0128

> <Gold.Chemscore.DEInternal.Weighted>
1.2896

> <Gold.Chemscore.Rot.Weighted>
3.3673

> <Gold.Chemscore.Internal.Correction.Weighted>
   9.000000E+99

> <Gold.Protein.RotatedTorsions>
[ 6907 6896 6895 6894 ] final   58.69 input  -60.11 | X-H torsion
[ 7974 7965 7964 7962 ] final   47.95 input  175.53 | X-H torsion
[ 8008 7997 7996 7995 ] final -149.04 input   59.86 | X-H torsion
[ 10167 10162 10161 10158 ] final   77.73 input  -65.29 | X-H torsion
[ 10718 10713 10712 10709 ] final  119.53 input   66.30 | X-H torsion
[ 10763 10752 10751 10750 ] final -136.94 input  -60.55 | X-H torsion
[ 11005 11000 10999 10996 ] final  -35.97 input  -57.11 | X-H torsion

> <Gold.Protein.ActiveResidues>
 VAL166  LYS551  ARG553  GLY616  TRP617  ASP618  TYR619  PRO620  LYS621  CYS622 
 ASP623  PHE694  ASN695  SER759  ASP760  ASP761  ALA762  ILE779  LEU786  VAL792 
 PHE793  MET794  SER795  GLU796  ALA797  LYS798  CYS799  TRP800  GLU811  SER814 

> <Gold.Protein.RotatedAtoms>
  152.3847  134.6536  160.0129 H   0  0  0  0  0  0  0  0  0  0  0  0  # atno 6907 bound_to 6896
  151.6788  133.3307  159.3222 H   0  0  0  0  0  0  0  0  0  0  0  0  # atno 6908 bound_to 6896
  150.7776  134.6735  159.6449 H   0  0  0  0  0  0  0  0  0  0  0  0  # atno 6909 bound_to 6896
  146.0250  139.4696  142.9873 H   0  0  0  0  0  0  0  0  0  0  0  0  # atno 7974 bound_to 7965
  155.6013  140.0662  157.2732 H   0  0  0  0  0  0  0  0  0  0  0  0  # atno 8008 bound_to 7997
  154.4278  140.1818  156.1224 H   0  0  0  0  0  0  0  0  0  0  0  0  # atno 8009 bound_to 7997
  156.0157  140.3322  155.6990 H   0  0  0  0  0  0  0  0  0  0  0  0  # atno 8010 bound_to 7997
  139.9784  144.5844  150.7922 H   0  0  0  0  0  0  0  0  0  0  0  0  # atno 10167 bound_to 10162
  157.5955  131.1058  150.7909 H   0  0  0  0  0  0  0  0  0  0  0  0  # atno 10718 bound_to 10713
  154.8673  135.3657  154.5142 H   0  0  0  0  0  0  0  0  0  0  0  0  # atno 10763 bound_to 10752
  153.5776  135.7019  153.5482 H   0  0  0  0  0  0  0  0  0  0  0  0  # atno 10764 bound_to 10752
  153.3486  135.4078  155.1591 H   0  0  0  0  0  0  0  0  0  0  0  0  # atno 10765 bound_to 10752
  140.9838  133.7041  156.1730 H   0  0  0  0  0  0  0  0  0  0  0  0  # atno 11005 bound_to 11000
  145.7132  141.0099  143.1442 LP  0  0  0  0  0  0  0  0  0  0  0  0  # atno 17320 bound_to 7965
  144.7006  139.8782  143.7445 LP  0  0  0  0  0  0  0  0  0  0  0  0  # atno 17321 bound_to 7965
  140.7497  143.2944  151.3244 LP  0  0  0  0  0  0  0  0  0  0  0  0  # atno 17342 bound_to 10162
  139.6428  144.0507  152.2567 LP  0  0  0  0  0  0  0  0  0  0  0  0  # atno 17343 bound_to 10162
  156.8321  130.5019  149.5330 LP  0  0  0  0  0  0  0  0  0  0  0  0  # atno 17370 bound_to 10713
  156.1017  130.5974  150.9904 LP  0  0  0  0  0  0  0  0  0  0  0  0  # atno 17371 bound_to 10713
  140.7145  134.4425  157.5579 LP  0  0  0  0  0  0  0  0  0  0  0  0  # atno 17394 bound_to 11000
  139.8962  134.8666  156.2099 LP  0  0  0  0  0  0  0  0  0  0  0  0  # atno 17395 bound_to 11000

$$$$
