AV-unprocessed.smi:39|AV-procd|sdf|352|dock3
  -GOLD-   2262016193D 1   1.00000     0.00000
 Structure written by MMmdl.
 32 33  0  0  0  0  0  0  0  0  3 V2000
  152.3631  142.4182  159.9225 C   0  0  0  0  0  0  0  0  0  0  0  0
  151.8157  142.0376  158.5567 C   0  0  0  0  0  0  0  0  0  0  0  0
  152.2225  140.9243  157.8939 C   0  0  0  0  0  0  0  0  0  0  0  0
  151.7391  140.5502  156.6450 N   0  0  0  0  0  0  0  0  0  0  0  0
  152.2152  139.3080  155.9165 C   0  0  2  0  0  0  0  0  0  0  0  0
  151.0634  138.3038  155.7396 C   0  0  0  0  0  0  0  0  0  0  0  0
  151.6603  137.0132  156.2736 C   0  0  2  0  0  0  0  0  0  0  0  0
  150.6297  136.1225  156.8157 N   0  0  0  0  0  0  0  0  0  0  0  0
  150.3699  136.2382  158.0207 N   0  3  0  0  0  0  0  0  0  0  0  0
  150.1131  136.4674  159.1056 N   0  5  0  0  0  0  0  0  0  0  0  0
  152.6269  137.5400  157.3375 C   0  0  1  0  0  0  0  0  0  0  0  0
  153.7417  136.5562  157.7255 C   0  0  0  0  0  0  0  0  0  0  0  0
  154.7630  136.5829  156.7519 O   0  0  0  0  0  0  0  0  0  0  0  0
  153.1980  138.6587  156.6675 O   0  0  0  0  0  0  0  0  0  0  0  0
  150.7834  141.3668  156.0058 C   0  0  0  0  0  0  0  0  0  0  0  0
  150.3207  141.1047  154.8961 O   0  0  0  0  0  0  0  0  0  0  0  0
  150.3653  142.5090  156.6857 N   0  0  0  0  0  0  0  0  0  0  0  0
  150.8165  142.9165  157.9428 C   0  0  0  0  0  0  0  0  0  0  0  0
  150.3703  143.9476  158.4434 O   0  0  0  0  0  0  0  0  0  0  0  0
  152.6513  139.6612  154.9801 H   0  0  0  0  0  0  0  0  0  0  0  0
  152.2250  136.5370  155.4683 H   0  0  0  0  0  0  0  0  0  0  0  0
  152.0662  137.8677  158.2156 H   0  0  0  0  0  0  0  0  0  0  0  0
  149.6787  143.0927  156.2307 H   0  0  0  0  0  0  0  0  0  0  0  0
  153.0842  141.6869  160.2892 H   0  0  0  0  0  0  0  0  0  0  0  0
  151.5555  142.4843  160.6526 H   0  0  0  0  0  0  0  0  0  0  0  0
  152.8631  143.3862  159.8758 H   0  0  0  0  0  0  0  0  0  0  0  0
  152.9643  140.3095  158.3806 H   0  0  0  0  0  0  0  0  0  0  0  0
  150.2029  138.6140  156.3356 H   0  0  0  0  0  0  0  0  0  0  0  0
  150.7613  138.2360  154.6941 H   0  0  0  0  0  0  0  0  0  0  0  0
  154.1931  136.8447  158.6743 H   0  0  0  0  0  0  0  0  0  0  0  0
  153.3548  135.5438  157.8454 H   0  0  0  0  0  0  0  0  0  0  0  0
  155.5559  136.9005  157.1563 H   0  0  0  0  0  0  0  0  0  0  0  0
  1  2  1  0  0  0  0
  1 24  1  0  0  0  0
  1 25  1  0  0  0  0
  1 26  1  0  0  0  0
  2 18  1  0  0  0  0
  2  3  2  0  0  0  0
  3  4  1  0  0  0  0
  3 27  1  0  0  0  0
  4  5  1  0  0  0  0
  4 15  1  0  0  0  0
  5 20  1  0  0  0  0
  5 14  1  0  0  0  0
  5  6  1  0  0  0  0
  6  7  1  0  0  0  0
  6 28  1  0  0  0  0
  6 29  1  0  0  0  0
  7 21  1  0  0  0  0
  7  8  1  0  0  0  0
  7 11  1  0  0  0  0
  8  9  2  0  0  0  0
  9 10  2  0  0  0  0
 11 22  1  0  0  0  0
 11 12  1  0  0  0  0
 11 14  1  0  0  0  0
 12 13  1  0  0  0  0
 12 30  1  0  0  0  0
 12 31  1  0  0  0  0
 13 32  1  0  0  0  0
 15 16  2  0  0  0  0
 15 17  1  0  0  0  0
 17 23  1  0  0  0  0
 17 18  1  0  0  0  0
 18 19  2  0  0  0  0
M  CHG  1   9   1
M  CHG  1  10  -1
M  END
> <s_m_source_file>
AV-unprocessed.smi

> <i_m_source_file_index>
39

> <i_lp_mmshare_version>
43012

> <i_f3d_flags>
0

> <s_epik_input>
Tz1jMVtuSF1jKD1PKW4oW2NIXWMxW0NIM10pW0NASF0yW0NIMl1bQ0BIXShOPVtOK109W04tXSlbQ0BIXShPMilbQ0gyXVtPSF0=

> <s_epik_cmdline>
J2VwaWtfcHl0aG9uJywgJy1waCcsICc3LjAnLCAnLXRuJywgJzgnLCAnLW1hJywgJzIwMCcsICctbWV0YWxfYmluZGluZycsICctaW1hZScsICc8aW5maWxlLm1hZT4nLCAnLW9tYWUnLCAnPG91dGZpbGUubWFlPic=

> <r_lp_tautomer_probability>
0.999537

> <r_epik_Ionization_Penalty>
0.00127512

> <r_epik_Ionization_Penalty_Charging>
0.00127507

> <r_epik_Ionization_Penalty_Neutral>
5.43433e-08

> <r_epik_State_Penalty>
0.000844892

> <r_epik_Charging_Adjusted_Penalty>
0.00211996

> <i_epik_Tot_Q>
0

> <i_epik_Tot_abs_Q>
2

> <r_epik_Metal_State_Penalty>
0.680636

> <b_epik_Metal_Only>
0

> <s_epik_Chemistry_Notes>
This compound contains an acetal/aminal-like group ( X-CH(R)-Y where X, Y are N, S, or O) that may be acid/base labile, releasing an aldehyde.

> <s_lp_Force_Field>
OPLS_2005

> <r_lp_Energy>
24.5803

> <b_lp_Chiralities_Consistent>
1

> <s_lp_Variant>
AV-unprocessed.smi:39-2

> <Gold.Version>
5.8.1

> <Gold.Id.Protein>
6NUR|6NUR_protein|mol2

> <Gold.PLP.Fitness>
39.3574

> <Gold.PLP.PLP>
-27.4482

> <Gold.PLP.part.hbond>
-6.0000

> <Gold.PLP.part.metal>
0.0000

> <Gold.PLP.part.buried>
-4.9144

> <Gold.PLP.part.nonpolar>
-16.9702

> <Gold.PLP.part.repulsive>
0.3402

> <Gold.PLP.ligand.clash>
0.0000

> <Gold.PLP.ligand.torsion>
0.6176

> <Gold.PLP.Chemscore.Hbond>
4.3680

> <Gold.PLP.Chemscore.CHOScore>
0.0000

> <Gold.PLP.Chemscore.Metal>
0.0000

> <Gold.Chemscore.Hbonds>
donor molecule, donor type, donor heavy atom, donor atom, acceptor molecule, acceptor atom, score
      L1  H    17    23       P1  8028  1.00
      P1  H  6896  6907       L1    10  0.75
      P1  H  7989  7998       L1    16  0.64
      P1  H  7997  8010       L1    14  0.90
      P1  H 10752 10765       L1    13  0.77

> <Gold.PLP.Chemscore.Internal.Correction>
0.0404

> <Gold.Rescore>
     Score         DG    S(hbond)    S(metal)    S(lipo)     H(rot)  DE(clash)    DE(int)     intcor
     12.40     -13.38       2.99        0.00      42.28       2.75       0.27       0.71       ----

> <Gold.Chemscore.Fitness>
12.4012

> <Gold.Chemscore.DG>
-13.3766

> <Gold.Chemscore.ZeroCoef>
-5.4800

> <Gold.Chemscore.Hbond>
2.9927

> <Gold.Chemscore.Metal>
0.0000

> <Gold.Chemscore.Lipo>
42.2824

> <Gold.Chemscore.Internal_Hbond>
0.0000

> <Gold.Chemscore.DEClash>
0.2696

> <Gold.Chemscore.DEInternal>
0.7058

> <Gold.Chemscore.Rot>
2.7524

> <Gold.Chemscore.Internal.Correction>
   9.000000E+99

> <Gold.Chemscore.Hbonds>
donor molecule, donor type, donor heavy atom, donor atom, acceptor molecule, acceptor atom, score
      L1  H    17    23       P1  8028  0.98
      P1  H  6896  6907       L1    10  0.09
      P1  H  7989  7998       L1    16  0.58
      P1  H  7997  8010       L1    14  0.17
      P1  H 10752 10765       L1    13  0.67

> <Gold.Chemscore.Hbond.Weighted>
-9.9956

> <Gold.Chemscore.Metal.Weighted>
-0.0000

> <Gold.Chemscore.Lipo.Weighted>
-4.9470

> <Gold.Chemscore.Internal_Hbond.Weighted>
0.0000

> <Gold.Chemscore.DEClash.Weighted>
0.2696

> <Gold.Chemscore.DEInternal.Weighted>
0.7058

> <Gold.Chemscore.Rot.Weighted>
7.0461

> <Gold.Chemscore.Internal.Correction.Weighted>
   9.000000E+99

> <Gold.Protein.RotatedTorsions>
[ 6907 6896 6895 6894 ] final  -33.59 input  -60.11 | X-H torsion
[ 7974 7965 7964 7962 ] final   24.83 input  175.53 | X-H torsion
[ 8008 7997 7996 7995 ] final   52.15 input   59.86 | X-H torsion
[ 10167 10162 10161 10158 ] final -146.45 input  -65.29 | X-H torsion
[ 10718 10713 10712 10709 ] final -138.81 input   66.30 | X-H torsion
[ 10763 10752 10751 10750 ] final  -60.47 input  -60.55 | X-H torsion
[ 11005 11000 10999 10996 ] final   19.80 input  -57.11 | X-H torsion

> <Gold.Protein.ActiveResidues>
 VAL166  LYS551  ARG553  GLY616  TRP617  ASP618  TYR619  PRO620  LYS621  CYS622 
 ASP623  PHE694  ASN695  SER759  ASP760  ASP761  ALA762  ILE779  LEU786  VAL792 
 PHE793  MET794  SER795  GLU796  ALA797  LYS798  CYS799  TRP800  GLU811  SER814 

> <Gold.Protein.RotatedAtoms>
  151.0636  134.9753  159.8272 H   0  0  0  0  0  0  0  0  0  0  0  0  # atno 6907 bound_to 6896
  152.5399  134.2386  159.8863 H   0  0  0  0  0  0  0  0  0  0  0  0  # atno 6908 bound_to 6896
  151.2407  133.4358  159.2641 H   0  0  0  0  0  0  0  0  0  0  0  0  # atno 6909 bound_to 6896
  146.1919  139.7551  142.8826 H   0  0  0  0  0  0  0  0  0  0  0  0  # atno 7974 bound_to 7965
  155.4470  140.3456  155.4296 H   0  0  0  0  0  0  0  0  0  0  0  0  # atno 8008 bound_to 7997
  156.1244  140.1496  156.9188 H   0  0  0  0  0  0  0  0  0  0  0  0  # atno 8009 bound_to 7997
  154.4847  140.0859  156.7438 H   0  0  0  0  0  0  0  0  0  0  0  0  # atno 8010 bound_to 7997
  139.7712  143.8234  152.2625 H   0  0  0  0  0  0  0  0  0  0  0  0  # atno 10167 bound_to 10162
  156.3035  130.7442  151.1500 H   0  0  0  0  0  0  0  0  0  0  0  0  # atno 10718 bound_to 10713
  154.2697  135.6292  153.5305 H   0  0  0  0  0  0  0  0  0  0  0  0  # atno 10763 bound_to 10752
  152.9882  135.5607  154.5614 H   0  0  0  0  0  0  0  0  0  0  0  0  # atno 10764 bound_to 10752
  154.5181  135.2881  155.1261 H   0  0  0  0  0  0  0  0  0  0  0  0  # atno 10765 bound_to 10752
  140.4097  134.1631  155.7667 H   0  0  0  0  0  0  0  0  0  0  0  0  # atno 11005 bound_to 11000
  145.3767  141.0351  143.3200 LP  0  0  0  0  0  0  0  0  0  0  0  0  # atno 17320 bound_to 7965
  144.8503  139.5333  143.6859 LP  0  0  0  0  0  0  0  0  0  0  0  0  # atno 17321 bound_to 7965
  139.8269  144.7271  150.9500 LP  0  0  0  0  0  0  0  0  0  0  0  0  # atno 17342 bound_to 10162
  140.7814  143.4106  151.0999 LP  0  0  0  0  0  0  0  0  0  0  0  0  # atno 17343 bound_to 10162
  157.7374  131.0552  150.5358 LP  0  0  0  0  0  0  0  0  0  0  0  0  # atno 17370 bound_to 10713
  156.5489  130.4226  149.6117 LP  0  0  0  0  0  0  0  0  0  0  0  0  # atno 17371 bound_to 10713
  141.1826  133.8382  157.1205 LP  0  0  0  0  0  0  0  0  0  0  0  0  # atno 17394 bound_to 11000
  140.0276  134.9916  157.0717 LP  0  0  0  0  0  0  0  0  0  0  0  0  # atno 17395 bound_to 11000

$$$$
