AV-unprocessed.smi:54|AV-procd|sdf|551|dock3
  -GOLD-   2262016453D 1   1.00000     0.00000
 Structure written by MMmdl.
 43 45  0  0  0  0  0  0  0  0  2 V2000
  147.5724  134.4604  162.2122 C   0  0  0  0  0  0  0  0  0  0  0  0
  147.0788  135.0400  160.8762 C   0  0  0  0  0  0  0  0  0  0  0  0
  147.1580  133.9945  159.7512 C   0  0  0  0  0  0  0  0  0  0  0  0
  147.8723  136.3010  160.5044 C   0  0  0  0  0  0  0  0  0  0  0  0
  147.5174  137.3888  160.9634 O   0  0  0  0  0  0  0  0  0  0  0  0
  148.9315  136.0969  159.6896 N   0  0  0  0  0  0  0  0  0  0  0  0
  149.8513  137.0232  159.1830 C   0  0  0  0  0  0  0  0  0  0  0  0
  149.2906  137.9572  158.4531 N   0  0  0  0  0  0  0  0  0  0  0  0
  150.2042  138.8737  157.9672 C   0  0  0  0  0  0  0  0  0  0  0  0
  151.5566  138.8940  158.1706 C   0  0  0  0  0  0  0  0  0  0  0  0
  152.1537  139.9582  157.5079 N   0  0  0  0  0  0  0  0  0  0  0  0
  151.1090  140.5421  156.9245 C   0  0  0  0  0  0  0  0  0  0  0  0
  149.9084  139.9688  157.1616 N   0  0  0  0  0  0  0  0  0  0  0  0
  148.5505  140.3517  156.6389 C   0  0  2  0  0  0  0  0  0  0  0  0
  147.9897  139.2324  156.0328 O   0  0  0  0  0  0  0  0  0  0  0  0
  148.4196  139.1681  154.6798 C   0  0  1  0  0  0  0  0  0  0  0  0
  147.4416  138.3104  153.8625 C   0  0  0  0  0  0  0  0  0  0  0  0
  147.7265  138.4264  152.4848 O   0  0  0  0  0  0  0  0  0  0  0  0
  148.4424  140.6457  154.2503 C   0  0  2  0  0  0  0  0  0  0  0  0
  149.5281  140.8730  153.3739 O   0  0  0  0  0  0  0  0  0  0  0  0
  148.6259  141.4351  155.5521 C   0  0  1  0  0  0  0  0  0  0  0  0
  147.5893  142.3817  155.7132 O   0  0  0  0  0  0  0  0  0  0  0  0
  152.1240  137.8185  159.0170 C   0  0  0  0  0  0  0  0  0  0  0  0
  153.3345  137.8010  159.2316 O   0  0  0  0  0  0  0  0  0  0  0  0
  151.2203  136.9146  159.5000 N   0  5  0  0  0  0  0  0  0  0  0  0
  147.9940  140.6553  157.5263 H   0  0  0  0  0  0  0  0  0  0  0  0
  149.4258  138.7459  154.6430 H   0  0  0  0  0  0  0  0  0  0  0  0
  147.5093  140.9198  153.7553 H   0  0  0  0  0  0  0  0  0  0  0  0
  149.5732  141.9729  155.6058 H   0  0  0  0  0  0  0  0  0  0  0  0
  147.5256  135.2047  163.0082 H   0  0  0  0  0  0  0  0  0  0  0  0
  148.6033  134.1114  162.1427 H   0  0  0  0  0  0  0  0  0  0  0  0
  146.9577  133.6142  162.5199 H   0  0  0  0  0  0  0  0  0  0  0  0
  146.0305  135.3167  161.0000 H   0  0  0  0  0  0  0  0  0  0  0  0
  146.8180  134.4085  158.8012 H   0  0  0  0  0  0  0  0  0  0  0  0
  146.5289  133.1329  159.9760 H   0  0  0  0  0  0  0  0  0  0  0  0
  148.1769  133.6314  159.6110 H   0  0  0  0  0  0  0  0  0  0  0  0
  149.1092  135.1297  159.4637 H   0  0  0  0  0  0  0  0  0  0  0  0
  151.2304  141.4150  156.3016 H   0  0  0  0  0  0  0  0  0  0  0  0
  147.4754  137.2656  154.1723 H   0  0  0  0  0  0  0  0  0  0  0  0
  146.4203  138.6607  154.0142 H   0  0  0  0  0  0  0  0  0  0  0  0
  147.9528  137.5717  152.1512 H   0  0  0  0  0  0  0  0  0  0  0  0
  149.5016  140.2235  152.6881 H   0  0  0  0  0  0  0  0  0  0  0  0
  147.9794  143.2301  155.8589 H   0  0  0  0  0  0  0  0  0  0  0  0
  1  2  1  0  0  0  0
  1 30  1  0  0  0  0
  1 31  1  0  0  0  0
  1 32  1  0  0  0  0
  2  3  1  0  0  0  0
  2  4  1  0  0  0  0
  2 33  1  0  0  0  0
  3 34  1  0  0  0  0
  3 35  1  0  0  0  0
  3 36  1  0  0  0  0
  4  5  2  0  0  0  0
  4  6  1  0  0  0  0
  6 37  1  0  0  0  0
  6  7  1  0  0  0  0
  7 25  1  0  0  0  0
  7  8  2  0  0  0  0
  8  9  1  0  0  0  0
  9 13  1  0  0  0  0
  9 10  2  0  0  0  0
 10 11  1  0  0  0  0
 10 23  1  0  0  0  0
 11 12  2  0  0  0  0
 12 13  1  0  0  0  0
 12 38  1  0  0  0  0
 13 14  1  0  0  0  0
 14 26  1  0  0  0  0
 14 21  1  0  0  0  0
 14 15  1  0  0  0  0
 15 16  1  0  0  0  0
 16 27  1  0  0  0  0
 16 17  1  0  0  0  0
 16 19  1  0  0  0  0
 17 18  1  0  0  0  0
 17 39  1  0  0  0  0
 17 40  1  0  0  0  0
 18 41  1  0  0  0  0
 19 28  1  0  0  0  0
 19 20  1  0  0  0  0
 19 21  1  0  0  0  0
 20 42  1  0  0  0  0
 21 29  1  0  0  0  0
 21 22  1  0  0  0  0
 22 43  1  0  0  0  0
 23 24  2  0  0  0  0
 23 25  1  0  0  0  0
M  CHG  1  25  -1
M  END
> <s_m_source_file>
AV-unprocessed.smi

> <i_m_source_file_index>
54

> <i_lp_mmshare_version>
43012

> <i_f3d_flags>
0

> <s_epik_input>
W0NIM11bQ0hdKFtDSDNdKUMoPU8pW05IXWMobjEpW25IXWMoPU8pYyhjMTIpbltjSF1uMltDQEBIXTNPW0NASF0oW0NIMl1bT0hdKVtDQEBIXShbT0hdKVtDQEhdM1tPSF0=

> <s_epik_cmdline>
J2VwaWtfcHl0aG9uJywgJy1waCcsICc3LjAnLCAnLXRuJywgJzgnLCAnLW1hJywgJzIwMCcsICctbWV0YWxfYmluZGluZycsICctaW1hZScsICc8aW5maWxlLm1hZT4nLCAnLW9tYWUnLCAnPG91dGZpbGUubWFlPic=

> <r_lp_tautomer_probability>
0.85571

> <r_epik_Ionization_Penalty>
1.75936

> <r_epik_Ionization_Penalty_Charging>
4.55893e-11

> <r_epik_Ionization_Penalty_Neutral>
1.75936

> <r_epik_State_Penalty>
1.72072

> <r_epik_Charging_Adjusted_Penalty>
1.72072

> <i_epik_Tot_Q>
-1

> <i_epik_Tot_abs_Q>
1

> <r_epik_Metal_State_Penalty>
0.400338

> <b_epik_Metal_Only>
1

> <s_epik_Chemistry_Notes>
This compound contains an acetal/aminal-like group ( X-CH(R)-Y where X, Y are N, S, or O) that may be acid/base labile, releasing an aldehyde.

> <s_lp_Force_Field>
OPLS_2005

> <r_lp_Energy>
55.0849

> <b_lp_Chiralities_Consistent>
1

> <s_lp_Variant>
AV-unprocessed.smi:54-23

> <Gold.Version>
5.8.1

> <Gold.Id.Protein>
6NUR|6NUR_protein|mol2

> <Gold.PLP.Fitness>
53.9413

> <Gold.PLP.PLP>
-33.0947

> <Gold.PLP.part.hbond>
-8.3893

> <Gold.PLP.part.metal>
0.0000

> <Gold.PLP.part.buried>
-5.6403

> <Gold.PLP.part.nonpolar>
-19.4820

> <Gold.PLP.part.repulsive>
0.1839

> <Gold.PLP.ligand.clash>
0.0000

> <Gold.PLP.ligand.torsion>
1.4810

> <Gold.PLP.Chemscore.Hbond>
7.9079

> <Gold.PLP.Chemscore.CHOScore>
0.0000

> <Gold.PLP.Chemscore.Metal>
0.0000

> <Gold.Chemscore.Hbonds>
donor molecule, donor type, donor heavy atom, donor atom, acceptor molecule, acceptor atom, score
      L1  H    18    41       P1  7948  1.00
      L1  H    20    42       P1  7957  0.85
      L1  H    22    43       P1  8028  1.00
      P1  H  6896  6908       L1    25  1.80
      P1  H  6931  6943       L1     5  0.75
      P1  H  6934  6947       L1     5  0.98
      P1  H  7989  7998       L1    20  0.17
      P1  H  7997  8010       L1    11  0.11
      P1  H  8011  8017       L1    20  0.95

> <Gold.PLP.Chemscore.Internal.Correction>
0.0850

> <Gold.Rescore>
     Score         DG    S(hbond)    S(metal)    S(lipo)     H(rot)  DE(clash)    DE(int)     intcor
     17.70     -20.44       6.05        0.00      43.21       4.02       0.02       2.72       ----

> <Gold.Chemscore.Fitness>
17.7010

> <Gold.Chemscore.DG>
-20.4439

> <Gold.Chemscore.ZeroCoef>
-5.4800

> <Gold.Chemscore.Hbond>
6.0473

> <Gold.Chemscore.Metal>
0.0000

> <Gold.Chemscore.Lipo>
43.2075

> <Gold.Chemscore.Internal_Hbond>
0.0000

> <Gold.Chemscore.DEClash>
0.0190

> <Gold.Chemscore.DEInternal>
2.7238

> <Gold.Chemscore.Rot>
4.0192

> <Gold.Chemscore.Internal.Correction>
   9.000000E+99

> <Gold.Chemscore.Hbonds>
donor molecule, donor type, donor heavy atom, donor atom, acceptor molecule, acceptor atom, score
      L1  H    18    41       P1  7948  0.98
      L1  H    20    42       P1  7957  0.80
      L1  H    22    43       P1  8028  0.50
      P1  H  6896  6908       L1    25  0.18
      P1  H  6931  6943       L1     5  0.55
      P1  H  6934  6947       L1     5  0.93
      P1  H  7989  7998       L1    20  0.02
      P1  H  7997  8010       L1    11  0.14
      P1  H  8011  8017       L1    20  0.21

> <Gold.Chemscore.Hbond.Weighted>
-20.1979

> <Gold.Chemscore.Metal.Weighted>
-0.0000

> <Gold.Chemscore.Lipo.Weighted>
-5.0553

> <Gold.Chemscore.Internal_Hbond.Weighted>
0.0000

> <Gold.Chemscore.DEClash.Weighted>
0.0190

> <Gold.Chemscore.DEInternal.Weighted>
2.7238

> <Gold.Chemscore.Rot.Weighted>
10.2893

> <Gold.Chemscore.Internal.Correction.Weighted>
   9.000000E+99

> <Gold.Protein.RotatedTorsions>
[ 6907 6896 6895 6894 ] final -139.98 input  -60.11 | X-H torsion
[ 7974 7965 7964 7962 ] final -133.10 input  175.53 | X-H torsion
[ 8008 7997 7996 7995 ] final   55.84 input   59.86 | X-H torsion
[ 10167 10162 10161 10158 ] final   88.31 input  -65.29 | X-H torsion
[ 10718 10713 10712 10709 ] final  155.37 input   66.30 | X-H torsion
[ 10763 10752 10751 10750 ] final  -53.55 input  -60.55 | X-H torsion
[ 11005 11000 10999 10996 ] final   70.05 input  -57.11 | X-H torsion

> <Gold.Protein.ActiveResidues>
 VAL166  LYS551  ARG553  GLY616  TRP617  ASP618  TYR619  PRO620  LYS621  CYS622 
 ASP623  PHE694  ASN695  SER759  ASP760  ASP761  ALA762  ILE779  LEU786  VAL792 
 PHE793  MET794  SER795  GLU796  ALA797  LYS798  CYS799  TRP800  GLU811  SER814 

> <Gold.Protein.RotatedAtoms>
  151.0547  133.5594  159.2639 H   0  0  0  0  0  0  0  0  0  0  0  0  # atno 6907 bound_to 6896
  151.2592  135.0647  159.9101 H   0  0  0  0  0  0  0  0  0  0  0  0  # atno 6908 bound_to 6896
  152.5388  134.0295  159.8072 H   0  0  0  0  0  0  0  0  0  0  0  0  # atno 6909 bound_to 6896
  144.9224  140.7030  143.4957 H   0  0  0  0  0  0  0  0  0  0  0  0  # atno 7974 bound_to 7965
  155.5076  140.3476  155.4382 H   0  0  0  0  0  0  0  0  0  0  0  0  # atno 8008 bound_to 7997
  156.0871  140.1401  156.9667 H   0  0  0  0  0  0  0  0  0  0  0  0  # atno 8009 bound_to 7997
  154.4613  140.0934  156.6877 H   0  0  0  0  0  0  0  0  0  0  0  0  # atno 8010 bound_to 7997
  139.8686  144.6505  150.8976 H   0  0  0  0  0  0  0  0  0  0  0  0  # atno 10167 bound_to 10162
  157.2192  131.0715  151.1922 H   0  0  0  0  0  0  0  0  0  0  0  0  # atno 10718 bound_to 10713
  154.1606  135.6475  153.4985 H   0  0  0  0  0  0  0  0  0  0  0  0  # atno 10763 bound_to 10752
  153.0112  135.5360  154.6715 H   0  0  0  0  0  0  0  0  0  0  0  0  # atno 10764 bound_to 10752
  154.6027  135.2945  155.0489 H   0  0  0  0  0  0  0  0  0  0  0  0  # atno 10765 bound_to 10752
  139.9619  134.7046  156.0628 H   0  0  0  0  0  0  0  0  0  0  0  0  # atno 11005 bound_to 11000
  145.3275  139.1769  143.4555 LP  0  0  0  0  0  0  0  0  0  0  0  0  # atno 17320 bound_to 7965
  146.3210  140.3300  142.8639 LP  0  0  0  0  0  0  0  0  0  0  0  0  # atno 17321 bound_to 7965
  140.7764  143.3683  151.1697 LP  0  0  0  0  0  0  0  0  0  0  0  0  # atno 17342 bound_to 10162
  139.7305  143.9079  152.3018 LP  0  0  0  0  0  0  0  0  0  0  0  0  # atno 17343 bound_to 10162
  157.3593  130.7123  149.6491 LP  0  0  0  0  0  0  0  0  0  0  0  0  # atno 17370 bound_to 10713
  155.9684  130.4230  150.4542 LP  0  0  0  0  0  0  0  0  0  0  0  0  # atno 17371 bound_to 10713
  141.1297  133.6590  156.3430 LP  0  0  0  0  0  0  0  0  0  0  0  0  # atno 17394 bound_to 11000
  140.5481  134.6054  157.5400 LP  0  0  0  0  0  0  0  0  0  0  0  0  # atno 17395 bound_to 11000

$$$$
