AV-unprocessed.smi:168|AV-procd|sdf|1396|dock4
  -GOLD-   2262019143D 1   1.00000     0.00000
 Structure written by MMmdl.
 62 66  0  0  0  0  0  0  0  0  1 V2000
  147.5006  137.6666  155.8808 C   0  0  0  0  0  0  0  0  0  0  0  0
  147.3532  137.4100  157.3908 C   0  0  0  0  0  0  0  0  0  0  0  0
  148.5495  138.0412  158.1229 C   0  0  0  0  0  0  0  0  0  0  0  0
  147.2293  135.9114  157.7126 C   0  0  2  0  0  0  0  0  0  0  0  0
  145.9578  135.3241  157.2986 N   0  0  0  0  0  0  0  0  0  0  0  0
  145.9252  134.7270  156.0091 C   0  0  0  0  0  0  0  0  0  0  0  0
  146.9661  133.9143  155.6977 N   0  0  0  0  0  0  0  0  0  0  0  0
  147.0304  133.2933  154.5171 C   0  0  0  0  0  0  0  0  0  0  0  0
  146.1708  133.3474  153.5001 N   0  0  0  0  0  0  0  0  0  0  0  0
  145.1227  134.1693  153.7887 C   0  0  0  0  0  0  0  0  0  0  0  0
  144.9213  134.8844  155.0051 C   0  0  0  0  0  0  0  0  0  0  0  0
  143.7323  135.6020  154.9300 N   0  0  0  0  0  0  0  0  0  0  0  0
  143.2575  135.3210  153.7481 C   0  0  0  0  0  0  0  0  0  0  0  0
  144.0448  134.4926  152.9824 N   0  0  0  0  0  0  0  0  0  0  0  0
  143.7457  133.9981  151.6696 C   0  0  0  0  0  0  0  0  0  0  0  0
  143.9068  132.5121  151.3280 C   0  0  0  0  0  0  0  0  0  0  0  0
  144.4187  132.8819  149.9172 C   0  0  0  0  0  0  0  0  0  0  0  0
  145.6581  132.1150  149.4188 C   0  0  0  0  0  0  0  0  0  0  0  0
  146.7276  132.1384  150.3435 O   0  0  0  0  0  0  0  0  0  0  0  0
  143.3918  132.7745  148.7702 C   0  0  0  0  0  0  0  0  0  0  0  0
  143.8517  133.3215  147.5511 O   0  0  0  0  0  0  0  0  0  0  0  0
  144.6682  134.2993  150.4820 C   0  0  0  0  0  0  0  0  0  0  0  0
  146.0113  134.3697  158.3943 C   0  0  0  0  0  0  0  0  0  0  0  0
  146.8954  135.3888  159.1317 C   0  0  0  0  0  0  0  0  0  0  0  0
  146.1369  136.3316  160.0943 C   0  0  0  0  0  0  0  0  0  0  0  0
  145.6651  135.6225  161.3755 C   0  0  0  0  0  0  0  0  0  0  0  0
  146.8426  134.9774  162.1178 C   0  0  0  0  0  0  0  0  0  0  0  0
  147.6511  134.0628  161.1885 C   0  0  0  0  0  0  0  0  0  0  0  0
  148.0833  134.8057  159.9134 C   0  0  0  0  0  0  0  0  0  0  0  0
  148.3556  137.1296  155.4689 H   0  0  0  0  0  0  0  0  0  0  0  0
  147.6428  138.7275  155.6740 H   0  0  0  0  0  0  0  0  0  0  0  0
  146.6142  137.3523  155.3313 H   0  0  0  0  0  0  0  0  0  0  0  0
  146.4545  137.9280  157.7274 H   0  0  0  0  0  0  0  0  0  0  0  0
  149.4882  137.5867  157.8049 H   0  0  0  0  0  0  0  0  0  0  0  0
  148.4812  137.9237  159.2024 H   0  0  0  0  0  0  0  0  0  0  0  0
  148.6141  139.1105  157.9197 H   0  0  0  0  0  0  0  0  0  0  0  0
  148.0742  135.3504  157.3128 H   0  0  0  0  0  0  0  0  0  0  0  0
  147.8955  132.6648  154.3658 H   0  0  0  0  0  0  0  0  0  0  0  0
  142.3163  135.7202  153.3990 H   0  0  0  0  0  0  0  0  0  0  0  0
  142.7285  134.3291  151.4567 H   0  0  0  0  0  0  0  0  0  0  0  0
  144.6575  132.0255  151.9522 H   0  0  0  0  0  0  0  0  0  0  0  0
  142.9731  131.9491  151.3426 H   0  0  0  0  0  0  0  0  0  0  0  0
  145.4137  131.0706  149.2214 H   0  0  0  0  0  0  0  0  0  0  0  0
  146.0221  132.5350  148.4804 H   0  0  0  0  0  0  0  0  0  0  0  0
  147.4648  131.6860  149.9626 H   0  0  0  0  0  0  0  0  0  0  0  0
  143.1276  131.7329  148.5847 H   0  0  0  0  0  0  0  0  0  0  0  0
  142.4664  133.2882  149.0331 H   0  0  0  0  0  0  0  0  0  0  0  0
  143.1026  133.5754  147.0339 H   0  0  0  0  0  0  0  0  0  0  0  0
  144.3213  135.1131  149.8445 H   0  0  0  0  0  0  0  0  0  0  0  0
  145.7003  134.4685  150.7918 H   0  0  0  0  0  0  0  0  0  0  0  0
  145.0413  134.1854  158.8560 H   0  0  0  0  0  0  0  0  0  0  0  0
  146.5290  133.4400  158.1548 H   0  0  0  0  0  0  0  0  0  0  0  0
  146.7643  137.1739  160.3810 H   0  0  0  0  0  0  0  0  0  0  0  0
  145.2700  136.7690  159.5977 H   0  0  0  0  0  0  0  0  0  0  0  0
  145.1594  136.3332  162.0296 H   0  0  0  0  0  0  0  0  0  0  0  0
  144.9284  134.8588  161.1250 H   0  0  0  0  0  0  0  0  0  0  0  0
  147.4932  135.7592  162.5115 H   0  0  0  0  0  0  0  0  0  0  0  0
  146.4803  134.4134  162.9779 H   0  0  0  0  0  0  0  0  0  0  0  0
  148.5282  133.6828  161.7132 H   0  0  0  0  0  0  0  0  0  0  0  0
  147.0514  133.1927  160.9191 H   0  0  0  0  0  0  0  0  0  0  0  0
  148.6498  134.1200  159.2824 H   0  0  0  0  0  0  0  0  0  0  0  0
  148.7807  135.6006  160.1805 H   0  0  0  0  0  0  0  0  0  0  0  0
  1  2  1  0  0  0  0
  1 30  1  0  0  0  0
  1 31  1  0  0  0  0
  1 32  1  0  0  0  0
  2  3  1  0  0  0  0
  2  4  1  0  0  0  0
  2 33  1  0  0  0  0
  3 34  1  0  0  0  0
  3 35  1  0  0  0  0
  3 36  1  0  0  0  0
  4 24  1  0  0  0  0
  4  5  1  0  0  0  0
  4 37  1  0  0  0  0
  5  6  1  0  0  0  0
  5 23  1  0  0  0  0
  6 11  1  0  0  0  0
  6  7  2  0  0  0  0
  7  8  1  0  0  0  0
  8  9  2  0  0  0  0
  8 38  1  0  0  0  0
  9 10  1  0  0  0  0
 10 14  1  0  0  0  0
 10 11  2  0  0  0  0
 11 12  1  0  0  0  0
 12 13  2  0  0  0  0
 13 14  1  0  0  0  0
 13 39  1  0  0  0  0
 14 15  1  0  0  0  0
 15 22  1  0  0  0  0
 15 16  1  0  0  0  0
 15 40  1  0  0  0  0
 16 17  1  0  0  0  0
 16 41  1  0  0  0  0
 16 42  1  0  0  0  0
 17 18  1  0  0  0  0
 17 20  1  0  0  0  0
 17 22  1  0  0  0  0
 18 19  1  0  0  0  0
 18 43  1  0  0  0  0
 18 44  1  0  0  0  0
 19 45  1  0  0  0  0
 20 21  1  0  0  0  0
 20 46  1  0  0  0  0
 20 47  1  0  0  0  0
 21 48  1  0  0  0  0
 22 49  1  0  0  0  0
 22 50  1  0  0  0  0
 23 24  1  0  0  0  0
 23 51  1  0  0  0  0
 23 52  1  0  0  0  0
 24 29  1  0  0  0  0
 24 25  1  0  0  0  0
 25 26  1  0  0  0  0
 25 53  1  0  0  0  0
 25 54  1  0  0  0  0
 26 27  1  0  0  0  0
 26 55  1  0  0  0  0
 26 56  1  0  0  0  0
 27 28  1  0  0  0  0
 27 57  1  0  0  0  0
 27 58  1  0  0  0  0
 28 29  1  0  0  0  0
 28 59  1  0  0  0  0
 28 60  1  0  0  0  0
 29 61  1  0  0  0  0
 29 62  1  0  0  0  0
M  END
> <s_m_source_file>
AV-unprocessed.smi

> <i_m_source_file_index>
168

> <i_lp_mmshare_version>
43012

> <i_f3d_flags>
0

> <s_epik_input>
W0NIMl0xW0NIMl1bQ0gyXVtDSDJdW0NIMl1DMTJbQ0BIXShbQ0hdKFtDSDNdKVtDSDNdKU4oW0NIMl0yKWMobltjSF1uMyljKGMzNCluW2NIXW40W0NIXShbQ0gyXTUpW0NIMl1DNShbQ0gyXVtPSF0pW0NIMl1bT0hd

> <s_epik_cmdline>
J2VwaWtfcHl0aG9uJywgJy1waCcsICc3LjAnLCAnLXRuJywgJzgnLCAnLW1hJywgJzIwMCcsICctbWV0YWxfYmluZGluZycsICctaW1hZScsICc8aW5maWxlLm1hZT4nLCAnLW9tYWUnLCAnPG91dGZpbGUubWFlPic=

> <r_lp_tautomer_probability>
1

> <r_epik_Ionization_Penalty>
0.00324652

> <r_epik_Ionization_Penalty_Charging>
0

> <r_epik_Ionization_Penalty_Neutral>
0.00324652

> <r_epik_State_Penalty>
0.00223464

> <r_epik_Charging_Adjusted_Penalty>
0.00223464

> <i_epik_Tot_Q>
0

> <i_epik_Tot_abs_Q>
0

> <r_epik_Metal_State_Penalty>
-0

> <b_epik_Metal_Only>
0

> <s_lp_Force_Field>
OPLS_2005

> <r_lp_Energy>
66.0346

> <b_lp_Chiralities_Consistent>
1

> <s_lp_Variant>
AV-unprocessed.smi:168-1

> <Gold.Version>
5.8.1

> <Gold.Id.Protein>
6NUR|6NUR_protein|mol2

> <Gold.PLP.Fitness>
45.1213

> <Gold.PLP.PLP>
-37.5937

> <Gold.PLP.part.hbond>
-4.0000

> <Gold.PLP.part.metal>
0.0000

> <Gold.PLP.part.buried>
-5.3886

> <Gold.PLP.part.nonpolar>
-27.7648

> <Gold.PLP.part.repulsive>
0.1449

> <Gold.PLP.ligand.clash>
0.0000

> <Gold.PLP.ligand.torsion>
0.5645

> <Gold.PLP.Chemscore.Hbond>
2.5992

> <Gold.PLP.Chemscore.CHOScore>
0.0000

> <Gold.PLP.Chemscore.Metal>
0.0000

> <Gold.Chemscore.Hbonds>
donor molecule, donor type, donor heavy atom, donor atom, acceptor molecule, acceptor atom, score
      L1  H    19    45       P1 10747  0.94
      L1  H    21    48       P1 10195  1.00
      P1  H  7918  7932       L1    21  0.64

> <Gold.PLP.Chemscore.Internal.Correction>
0.8590

> <Gold.Rescore>
     Score         DG    S(hbond)    S(metal)    S(lipo)     H(rot)  DE(clash)    DE(int)     intcor
     13.86     -14.46       1.97        0.00      88.81       3.12       0.06       0.54       ----

> <Gold.Chemscore.Fitness>
13.8580

> <Gold.Chemscore.DG>
-14.4608

> <Gold.Chemscore.ZeroCoef>
-5.4800

> <Gold.Chemscore.Hbond>
1.9677

> <Gold.Chemscore.Metal>
0.0000

> <Gold.Chemscore.Lipo>
88.8112

> <Gold.Chemscore.Internal_Hbond>
0.0000

> <Gold.Chemscore.DEClash>
0.0630

> <Gold.Chemscore.DEInternal>
0.5398

> <Gold.Chemscore.Rot>
3.1181

> <Gold.Chemscore.Internal.Correction>
   9.000000E+99

> <Gold.Chemscore.Hbonds>
donor molecule, donor type, donor heavy atom, donor atom, acceptor molecule, acceptor atom, score
      L1  H    19    45       P1 10747  0.91
      L1  H    21    48       P1 10195  0.90
      P1  H  7918  7932       L1    21  0.11

> <Gold.Chemscore.Hbond.Weighted>
-6.5722

> <Gold.Chemscore.Metal.Weighted>
-0.0000

> <Gold.Chemscore.Lipo.Weighted>
-10.3909

> <Gold.Chemscore.Internal_Hbond.Weighted>
0.0000

> <Gold.Chemscore.DEClash.Weighted>
0.0630

> <Gold.Chemscore.DEInternal.Weighted>
0.5398

> <Gold.Chemscore.Rot.Weighted>
7.9823

> <Gold.Chemscore.Internal.Correction.Weighted>
   9.000000E+99

> <Gold.Protein.RotatedTorsions>
[ 6907 6896 6895 6894 ] final -144.70 input  -60.11 | X-H torsion
[ 7974 7965 7964 7962 ] final   -8.09 input  175.53 | X-H torsion
[ 8008 7997 7996 7995 ] final -150.71 input   59.86 | X-H torsion
[ 10167 10162 10161 10158 ] final   98.42 input  -65.29 | X-H torsion
[ 10718 10713 10712 10709 ] final -150.04 input   66.30 | X-H torsion
[ 10763 10752 10751 10750 ] final  -52.25 input  -60.55 | X-H torsion
[ 11005 11000 10999 10996 ] final  -90.07 input  -57.11 | X-H torsion

> <Gold.Protein.ActiveResidues>
 VAL166  LYS551  ARG553  GLY616  TRP617  ASP618  TYR619  PRO620  LYS621  CYS622 
 ASP623  PHE694  ASN695  SER759  ASP760  ASP761  ALA762  ILE779  LEU786  VAL792 
 PHE793  MET794  SER795  GLU796  ALA797  LYS798  CYS799  TRP800  GLU811  SER814 

> <Gold.Protein.RotatedAtoms>
  151.1177  133.5127  159.2603 H   0  0  0  0  0  0  0  0  0  0  0  0  # atno 6907 bound_to 6896
  151.1897  135.0396  159.8837 H   0  0  0  0  0  0  0  0  0  0  0  0  # atno 6908 bound_to 6896
  152.5454  134.1018  159.8374 H   0  0  0  0  0  0  0  0  0  0  0  0  # atno 6909 bound_to 6896
  146.2290  140.2416  142.8343 H   0  0  0  0  0  0  0  0  0  0  0  0  # atno 7974 bound_to 7965
  155.6279  140.0688  157.2658 H   0  0  0  0  0  0  0  0  0  0  0  0  # atno 8008 bound_to 7997
  154.4213  140.1772  156.1490 H   0  0  0  0  0  0  0  0  0  0  0  0  # atno 8009 bound_to 7997
  155.9956  140.3341  155.6799 H   0  0  0  0  0  0  0  0  0  0  0  0  # atno 8010 bound_to 7997
  139.7710  144.6922  151.0155 H   0  0  0  0  0  0  0  0  0  0  0  0  # atno 10167 bound_to 10162
  156.4410  130.8122  151.2351 H   0  0  0  0  0  0  0  0  0  0  0  0  # atno 10718 bound_to 10713
  154.1397  135.6507  153.4939 H   0  0  0  0  0  0  0  0  0  0  0  0  # atno 10763 bound_to 10752
  153.0170  135.5312  154.6918 H   0  0  0  0  0  0  0  0  0  0  0  0  # atno 10764 bound_to 10752
  154.6175  135.2961  155.0334 H   0  0  0  0  0  0  0  0  0  0  0  0  # atno 10765 bound_to 10752
  141.1573  133.7669  156.9686 H   0  0  0  0  0  0  0  0  0  0  0  0  # atno 11005 bound_to 11000
  144.9480  140.8149  143.5589 LP  0  0  0  0  0  0  0  0  0  0  0  0  # atno 17320 bound_to 7965
  145.2374  139.2088  143.5011 LP  0  0  0  0  0  0  0  0  0  0  0  0  # atno 17321 bound_to 7965
  140.7814  143.4588  151.0307 LP  0  0  0  0  0  0  0  0  0  0  0  0  # atno 17342 bound_to 10162
  139.8272  143.7740  152.3179 LP  0  0  0  0  0  0  0  0  0  0  0  0  # atno 17343 bound_to 10162
  157.7506  131.0168  150.3560 LP  0  0  0  0  0  0  0  0  0  0  0  0  # atno 17370 bound_to 10713
  156.3918  130.3899  149.7024 LP  0  0  0  0  0  0  0  0  0  0  0  0  # atno 17371 bound_to 10713
  140.1145  134.9456  157.2114 LP  0  0  0  0  0  0  0  0  0  0  0  0  # atno 17394 bound_to 11000
  140.3151  134.2979  155.7258 LP  0  0  0  0  0  0  0  0  0  0  0  0  # atno 17395 bound_to 11000

$$$$
