AV-unprocessed.smi:2256|AV-procd|sdf|9126|dock6
  -GOLD-   2272012333D 1   1.00000     0.00000
 Structure written by MMmdl.
 42 44  0  0  0  0  0  0  0  0  1 V2000
  154.8850  140.4357  162.1596 C   0  0  0  0  0  0  0  0  0  0  0  0
  154.0429  141.4050  161.3491 C   0  0  0  0  0  0  0  0  0  0  0  0
  153.9925  141.1572  159.9741 N   0  0  0  0  0  0  0  0  0  0  0  0
  153.3077  141.9370  159.2030 C   0  0  0  0  0  0  0  0  0  0  0  0
  152.6020  143.0407  159.7091 N   0  0  0  0  0  0  0  0  0  0  0  0
  151.8671  143.8525  158.7249 C   0  0  0  0  0  0  0  0  0  0  0  0
  150.5153  143.2147  158.3324 C   0  0  2  0  0  0  0  0  0  0  0  0
  149.6475  143.1692  159.4474 O   0  0  0  0  0  0  0  0  0  0  0  0
  150.6607  141.7824  157.7908 C   0  0  0  0  0  0  0  0  0  0  0  0
  150.1682  141.7167  156.4580 O   0  0  0  0  0  0  0  0  0  0  0  0
  150.5548  140.6590  155.6626 C   0  0  0  0  0  0  0  0  0  0  0  0
  151.8004  139.9896  155.7883 C   0  0  0  0  0  0  0  0  0  0  0  0
  152.1299  138.9149  154.9404 C   0  0  0  0  0  0  0  0  0  0  0  0
  151.2215  138.4929  153.9553 C   0  0  0  0  0  0  0  0  0  0  0  0
  149.9886  139.1544  153.8308 C   0  0  0  0  0  0  0  0  0  0  0  0
  148.9180  138.9706  152.9779 N   0  0  0  0  0  0  0  0  0  0  0  0
  147.9155  139.8853  153.2476 C   0  0  0  0  0  0  0  0  0  0  0  0
  148.3141  140.6868  154.2853 C   0  0  0  0  0  0  0  0  0  0  0  0
  149.6264  140.2454  154.6748 C   0  0  0  0  0  0  0  0  0  0  0  0
  152.5850  143.3450  161.0391 C   0  0  0  0  0  0  0  0  0  0  0  0
  151.9458  144.3046  161.4749 O   0  0  0  0  0  0  0  0  0  0  0  0
  153.3748  142.4531  161.9035 C   0  0  0  0  0  0  0  0  0  0  0  0
  153.3939  142.7732  163.3930 C   0  0  0  0  0  0  0  0  0  0  0  0
  148.8495  138.2745  152.2494 H   0  0  0  0  0  0  0  0  0  0  0  0
  155.7037  140.9618  162.6512 H   0  0  0  0  0  0  0  0  0  0  0  0
  155.3182  139.6606  161.5266 H   0  0  0  0  0  0  0  0  0  0  0  0
  154.2782  139.9442  162.9203 H   0  0  0  0  0  0  0  0  0  0  0  0
  153.2331  141.7853  158.1247 H   0  0  0  0  0  0  0  0  0  0  0  0
  151.6870  144.8375  159.1600 H   0  0  0  0  0  0  0  0  0  0  0  0
  152.4643  144.0605  157.8344 H   0  0  0  0  0  0  0  0  0  0  0  0
  150.0230  143.8106  157.5630 H   0  0  0  0  0  0  0  0  0  0  0  0
  148.8722  142.6858  159.2066 H   0  0  0  0  0  0  0  0  0  0  0  0
  151.7014  141.4575  157.8436 H   0  0  0  0  0  0  0  0  0  0  0  0
  150.0719  141.1125  158.4196 H   0  0  0  0  0  0  0  0  0  0  0  0
  152.5255  140.2825  156.5318 H   0  0  0  0  0  0  0  0  0  0  0  0
  153.0813  138.4151  155.0476 H   0  0  0  0  0  0  0  0  0  0  0  0
  151.4690  137.6693  153.3021 H   0  0  0  0  0  0  0  0  0  0  0  0
  146.9982  139.8912  152.6774 H   0  0  0  0  0  0  0  0  0  0  0  0
  147.7595  141.4978  154.7337 H   0  0  0  0  0  0  0  0  0  0  0  0
  152.3804  142.7536  163.7952 H   0  0  0  0  0  0  0  0  0  0  0  0
  153.8036  143.7704  163.5570 H   0  0  0  0  0  0  0  0  0  0  0  0
  153.9915  142.0742  163.9755 H   0  0  0  0  0  0  0  0  0  0  0  0
  1  2  1  0  0  0  0
  1 25  1  0  0  0  0
  1 26  1  0  0  0  0
  1 27  1  0  0  0  0
  2 22  2  0  0  0  0
  2  3  1  0  0  0  0
  3  4  2  0  0  0  0
  4  5  1  0  0  0  0
  4 28  1  0  0  0  0
  5  6  1  0  0  0  0
  5 20  1  0  0  0  0
  6  7  1  0  0  0  0
  6 29  1  0  0  0  0
  6 30  1  0  0  0  0
  7  8  1  0  0  0  0
  7  9  1  0  0  0  0
  7 31  1  0  0  0  0
  8 32  1  0  0  0  0
  9 10  1  0  0  0  0
  9 33  1  0  0  0  0
  9 34  1  0  0  0  0
 10 11  1  0  0  0  0
 11 19  1  0  0  0  0
 11 12  2  0  0  0  0
 12 13  1  0  0  0  0
 12 35  1  0  0  0  0
 13 14  2  0  0  0  0
 13 36  1  0  0  0  0
 14 15  1  0  0  0  0
 14 37  1  0  0  0  0
 15 19  2  0  0  0  0
 15 16  1  0  0  0  0
 16 24  1  0  0  0  0
 16 17  1  0  0  0  0
 17 18  2  0  0  0  0
 17 38  1  0  0  0  0
 18 19  1  0  0  0  0
 18 39  1  0  0  0  0
 20 21  2  0  0  0  0
 20 22  1  0  0  0  0
 22 23  1  0  0  0  0
 23 40  1  0  0  0  0
 23 41  1  0  0  0  0
 23 42  1  0  0  0  0
M  END
> <s_m_source_file>
AV-unprocessed.smi

> <i_m_source_file_index>
2256

> <i_lp_mmshare_version>
43012

> <i_f3d_flags>
0

> <s_epik_input>
W0NIM11jMW5bY0hdbihjKD1PKWMxW0NIM10pW0NIMl1bQ0BIXShbT0hdKVtDSDJdT2MoW2NIXVtjSF1bY0hdMiljKGMyMylbY0hdW2NIXVtuSF0z

> <s_epik_cmdline>
J2VwaWtfcHl0aG9uJywgJy1waCcsICc3LjAnLCAnLXRuJywgJzgnLCAnLW1hJywgJzIwMCcsICctbWV0YWxfYmluZGluZycsICctaW1hZScsICc8aW5maWxlLm1hZT4nLCAnLW9tYWUnLCAnPG91dGZpbGUubWFlPic=

> <r_lp_tautomer_probability>
1

> <r_epik_Ionization_Penalty>
4.18314e-05

> <r_epik_Ionization_Penalty_Charging>
1.04093e-07

> <r_epik_Ionization_Penalty_Neutral>
4.17273e-05

> <r_epik_State_Penalty>
-0

> <r_epik_Charging_Adjusted_Penalty>
1.04093e-07

> <i_epik_Tot_Q>
0

> <i_epik_Tot_abs_Q>
0

> <r_epik_Metal_State_Penalty>
-0

> <b_epik_Metal_Only>
0

> <s_lp_Force_Field>
OPLS_2005

> <r_lp_Energy>
26.398

> <b_lp_Chiralities_Consistent>
1

> <s_lp_Variant>
AV-unprocessed.smi:2256-1

> <Gold.Version>
5.8.1

> <Gold.Id.Protein>
6NUR|6NUR_protein|mol2

> <Gold.PLP.Fitness>
55.6831

> <Gold.PLP.PLP>
-55.5619

> <Gold.PLP.part.hbond>
-2.8657

> <Gold.PLP.part.metal>
0.0000

> <Gold.PLP.part.buried>
-4.9619

> <Gold.PLP.part.nonpolar>
-47.7732

> <Gold.PLP.part.repulsive>
0.3715

> <Gold.PLP.ligand.clash>
0.0000

> <Gold.PLP.ligand.torsion>
1.5029

> <Gold.PLP.Chemscore.Hbond>
1.0000

> <Gold.PLP.Chemscore.CHOScore>
0.0000

> <Gold.PLP.Chemscore.Metal>
0.0000

> <Gold.Chemscore.Hbonds>
donor molecule, donor type, donor heavy atom, donor atom, acceptor molecule, acceptor atom, score
      L1  H    16    24       P1  7948  0.87

> <Gold.PLP.Chemscore.Internal.Correction>
0.1270

> <Gold.Rescore>
     Score         DG    S(hbond)    S(metal)    S(lipo)     H(rot)  DE(clash)    DE(int)     intcor
     13.52     -16.03       0.96        0.00     119.24       2.58       0.17       2.33       ----

> <Gold.Chemscore.Fitness>
13.5250

> <Gold.Chemscore.DG>
-16.0277

> <Gold.Chemscore.ZeroCoef>
-5.4800

> <Gold.Chemscore.Hbond>
0.9589

> <Gold.Chemscore.Metal>
0.0000

> <Gold.Chemscore.Lipo>
119.2376

> <Gold.Chemscore.Internal_Hbond>
0.0000

> <Gold.Chemscore.DEClash>
0.1714

> <Gold.Chemscore.DEInternal>
2.3313

> <Gold.Chemscore.Rot>
2.5804

> <Gold.Chemscore.Internal.Correction>
   9.000000E+99

> <Gold.Chemscore.Hbonds>
donor molecule, donor type, donor heavy atom, donor atom, acceptor molecule, acceptor atom, score
      L1  H    16    24       P1  7948  0.79

> <Gold.Chemscore.Hbond.Weighted>
-3.2028

> <Gold.Chemscore.Metal.Weighted>
-0.0000

> <Gold.Chemscore.Lipo.Weighted>
-13.9508

> <Gold.Chemscore.Internal_Hbond.Weighted>
0.0000

> <Gold.Chemscore.DEClash.Weighted>
0.1714

> <Gold.Chemscore.DEInternal.Weighted>
2.3313

> <Gold.Chemscore.Rot.Weighted>
6.6059

> <Gold.Chemscore.Internal.Correction.Weighted>
   9.000000E+99

> <Gold.Protein.RotatedTorsions>
[ 6907 6896 6895 6894 ] final  -37.01 input  -60.11 | X-H torsion
[ 7974 7965 7964 7962 ] final   21.21 input  175.53 | X-H torsion
[ 8008 7997 7996 7995 ] final  154.71 input   59.86 | X-H torsion
[ 10167 10162 10161 10158 ] final  124.12 input  -65.29 | X-H torsion
[ 10718 10713 10712 10709 ] final   42.29 input   66.30 | X-H torsion
[ 10763 10752 10751 10750 ] final  -60.20 input  -60.55 | X-H torsion
[ 11005 11000 10999 10996 ] final  113.39 input  -57.11 | X-H torsion

> <Gold.Protein.ActiveResidues>
 VAL166  LYS551  ARG553  GLY616  TRP617  ASP618  TYR619  PRO620  LYS621  CYS622 
 ASP623  PHE694  ASN695  SER759  ASP760  ASP761  ALA762  ILE779  LEU786  VAL792 
 PHE793  MET794  SER795  GLU796  ALA797  LYS798  CYS799  TRP800  GLU811  SER814 

> <Gold.Protein.RotatedAtoms>
  151.0200  134.9461  159.8053 H   0  0  0  0  0  0  0  0  0  0  0  0  # atno 6907 bound_to 6896
  152.5323  134.2916  159.9055 H   0  0  0  0  0  0  0  0  0  0  0  0  # atno 6908 bound_to 6896
  151.2924  133.4117  159.2668 H   0  0  0  0  0  0  0  0  0  0  0  0  # atno 6909 bound_to 6896
  146.2080  139.8060  142.8710 H   0  0  0  0  0  0  0  0  0  0  0  0  # atno 7974 bound_to 7965
  156.2517  140.1959  156.6689 H   0  0  0  0  0  0  0  0  0  0  0  0  # atno 8008 bound_to 7997
  154.6408  140.0584  156.9868 H   0  0  0  0  0  0  0  0  0  0  0  0  # atno 8009 bound_to 7997
  155.1566  140.3256  155.4422 H   0  0  0  0  0  0  0  0  0  0  0  0  # atno 8010 bound_to 7997
  139.5760  144.6963  151.3652 H   0  0  0  0  0  0  0  0  0  0  0  0  # atno 10167 bound_to 10162
  157.4031  130.7871  149.7366 H   0  0  0  0  0  0  0  0  0  0  0  0  # atno 10718 bound_to 10713
  154.2656  135.6300  153.5290 H   0  0  0  0  0  0  0  0  0  0  0  0  # atno 10763 bound_to 10752
  152.9888  135.5598  154.5657 H   0  0  0  0  0  0  0  0  0  0  0  0  # atno 10764 bound_to 10752
  154.5215  135.2883  155.1233 H   0  0  0  0  0  0  0  0  0  0  0  0  # atno 10765 bound_to 10752
  139.8951  134.9549  156.6731 H   0  0  0  0  0  0  0  0  0  0  0  0  # atno 11005 bound_to 11000
  145.3246  141.0252  143.3481 LP  0  0  0  0  0  0  0  0  0  0  0  0  # atno 17320 bound_to 7965
  144.8842  139.4862  143.6708 LP  0  0  0  0  0  0  0  0  0  0  0  0  # atno 17321 bound_to 7965
  140.7042  143.7555  150.7454 LP  0  0  0  0  0  0  0  0  0  0  0  0  # atno 17342 bound_to 10162
  140.1074  143.4731  152.2390 LP  0  0  0  0  0  0  0  0  0  0  0  0  # atno 17343 bound_to 10162
  155.9829  130.4005  150.3393 LP  0  0  0  0  0  0  0  0  0  0  0  0  # atno 17370 bound_to 10713
  157.1523  131.0324  151.2879 LP  0  0  0  0  0  0  0  0  0  0  0  0  # atno 17371 bound_to 10713
  140.7358  133.9020  155.8243 LP  0  0  0  0  0  0  0  0  0  0  0  0  # atno 17394 bound_to 11000
  141.0117  134.1011  157.4214 LP  0  0  0  0  0  0  0  0  0  0  0  0  # atno 17395 bound_to 11000

$$$$
