AV-unprocessed.smi:896|AV-procd|sdf|4077|dock9
  -GOLD-   22720 1563D 1   1.00000     0.00000
 Structure written by MMmdl.
 49 50  0  0  0  0  0  0  0  0  2 V2000
  151.3035  142.9262  157.5736 C   0  0  0  0  0  0  0  0  0  0  0  0
  151.6104  141.5612  157.3120 O   0  0  0  0  0  0  0  0  0  0  0  0
  150.8898  140.9035  156.3364 C   0  0  0  0  0  0  0  0  0  0  0  0
  149.6881  141.4790  155.8819 C   0  0  0  0  0  0  0  0  0  0  0  0
  148.9518  140.8157  154.8825 C   0  0  0  0  0  0  0  0  0  0  0  0
  149.4430  139.5956  154.3592 C   0  0  0  0  0  0  0  0  0  0  0  0
  148.7583  138.8453  153.3624 N   0  0  0  0  0  0  0  0  0  0  0  0
  147.4455  138.8481  153.0750 C   0  0  0  0  0  0  0  0  0  0  0  0
  146.5937  139.5311  153.6442 O   0  0  0  0  0  0  0  0  0  0  0  0
  147.1681  138.0186  152.0589 N   0  0  0  0  0  0  0  0  0  0  0  0
  145.8396  137.8010  151.4980 C   0  0  0  0  0  0  0  0  0  0  0  0
  144.9880  136.8911  152.4028 C   0  0  0  0  0  0  0  0  0  0  0  0
  144.9696  135.4126  151.9658 C   0  0  2  0  0  0  0  0  0  0  0  0
  146.3958  134.9067  151.6787 C   0  0  0  0  0  0  0  0  0  0  0  0
  146.3939  133.4398  151.2180 C   0  0  0  0  0  0  0  0  0  0  0  0
  145.5363  133.2609  150.0212 N   0  3  1  0  0  0  0  0  0  0  0  0
  145.6062  131.8873  149.4783 C   0  0  0  0  0  0  0  0  0  0  0  0
  144.1416  133.7008  150.2699 C   0  0  0  0  0  0  0  0  0  0  0  0
  144.0954  135.1716  150.7180 C   0  0  0  0  0  0  0  0  0  0  0  0
  150.6509  139.0892  154.8972 C   0  0  0  0  0  0  0  0  0  0  0  0
  151.2422  137.7749  154.4187 C   0  0  0  0  0  0  0  0  0  0  0  0
  151.3594  139.7267  155.8550 N   0  0  0  0  0  0  0  0  0  0  0  0
  151.9555  143.2969  158.3641 H   0  0  0  0  0  0  0  0  0  0  0  0
  150.2731  143.0449  157.9122 H   0  0  0  0  0  0  0  0  0  0  0  0
  151.4656  143.5485  156.6922 H   0  0  0  0  0  0  0  0  0  0  0  0
  149.3347  142.4123  156.2949 H   0  0  0  0  0  0  0  0  0  0  0  0
  148.0203  141.2463  154.5485 H   0  0  0  0  0  0  0  0  0  0  0  0
  149.3471  138.3024  152.7481 H   0  0  0  0  0  0  0  0  0  0  0  0
  147.9290  137.4993  151.6456 H   0  0  0  0  0  0  0  0  0  0  0  0
  145.3563  138.7721  151.3868 H   0  0  0  0  0  0  0  0  0  0  0  0
  145.9334  137.3849  150.4944 H   0  0  0  0  0  0  0  0  0  0  0  0
  145.3344  136.9602  153.4350 H   0  0  0  0  0  0  0  0  0  0  0  0
  143.9656  137.2721  152.4041 H   0  0  0  0  0  0  0  0  0  0  0  0
  144.5655  134.8209  152.7886 H   0  0  0  0  0  0  0  0  0  0  0  0
  146.8616  135.5279  150.9121 H   0  0  0  0  0  0  0  0  0  0  0  0
  147.0141  135.0049  152.5717 H   0  0  0  0  0  0  0  0  0  0  0  0
  147.4139  133.1308  150.9864 H   0  0  0  0  0  0  0  0  0  0  0  0
  146.0407  132.7928  152.0227 H   0  0  0  0  0  0  0  0  0  0  0  0
  145.2234  131.1623  150.1977 H   0  0  0  0  0  0  0  0  0  0  0  0
  146.6357  131.6200  149.2380 H   0  0  0  0  0  0  0  0  0  0  0  0
  145.0192  131.8046  148.5630 H   0  0  0  0  0  0  0  0  0  0  0  0
  143.5534  133.5806  149.3593 H   0  0  0  0  0  0  0  0  0  0  0  0
  143.6858  133.0623  151.0286 H   0  0  0  0  0  0  0  0  0  0  0  0
  143.0598  135.4462  150.9168 H   0  0  0  0  0  0  0  0  0  0  0  0
  144.4321  135.8118  149.9012 H   0  0  0  0  0  0  0  0  0  0  0  0
  151.4213  137.8072  153.3435 H   0  0  0  0  0  0  0  0  0  0  0  0
  150.5589  136.9523  154.6316 H   0  0  0  0  0  0  0  0  0  0  0  0
  152.1917  137.5595  154.9107 H   0  0  0  0  0  0  0  0  0  0  0  0
  145.9075  133.8709  149.3067 H   0  0  0  0  0  0  0  0  0  0  0  0
  1  2  1  0  0  0  0
  1 23  1  0  0  0  0
  1 24  1  0  0  0  0
  1 25  1  0  0  0  0
  2  3  1  0  0  0  0
  3 22  1  0  0  0  0
  3  4  2  0  0  0  0
  4  5  1  0  0  0  0
  4 26  1  0  0  0  0
  5  6  2  0  0  0  0
  5 27  1  0  0  0  0
  6  7  1  0  0  0  0
  6 20  1  0  0  0  0
  7  8  1  0  0  0  0
  7 28  1  0  0  0  0
  8  9  2  0  0  0  0
  8 10  1  0  0  0  0
 10 11  1  0  0  0  0
 10 29  1  0  0  0  0
 11 12  1  0  0  0  0
 11 30  1  0  0  0  0
 11 31  1  0  0  0  0
 12 13  1  0  0  0  0
 12 32  1  0  0  0  0
 12 33  1  0  0  0  0
 13 19  1  0  0  0  0
 13 14  1  0  0  0  0
 13 34  1  0  0  0  0
 14 15  1  0  0  0  0
 14 35  1  0  0  0  0
 14 36  1  0  0  0  0
 15 16  1  0  0  0  0
 15 37  1  0  0  0  0
 15 38  1  0  0  0  0
 16 17  1  0  0  0  0
 16 18  1  0  0  0  0
 16 49  1  0  0  0  0
 17 39  1  0  0  0  0
 17 40  1  0  0  0  0
 17 41  1  0  0  0  0
 18 19  1  0  0  0  0
 18 42  1  0  0  0  0
 18 43  1  0  0  0  0
 19 44  1  0  0  0  0
 19 45  1  0  0  0  0
 20 21  1  0  0  0  0
 20 22  2  0  0  0  0
 21 46  1  0  0  0  0
 21 47  1  0  0  0  0
 21 48  1  0  0  0  0
M  CHG  1  16   1
M  END
> <s_m_source_file>
AV-unprocessed.smi

> <i_m_source_file_index>
896

> <i_lp_mmshare_version>
43012

> <i_f3d_flags>
0

> <s_epik_input>
W0NIM11PYzFbY0hdW2NIXWMoYyhuMSlbQ0gzXSlbTkhdQyg9TylbTkhdW0NIMl1bQ0gyXVtDSF0yW0NIMl1bQ0gyXU4oW0NIM10pW0NIMl1bQ0gyXTI=

> <s_epik_cmdline>
J2VwaWtfcHl0aG9uJywgJy1waCcsICc3LjAnLCAnLXRuJywgJzgnLCAnLW1hJywgJzIwMCcsICctbWV0YWxfYmluZGluZycsICctaW1hZScsICc8aW5maWxlLm1hZT4nLCAnLW9tYWUnLCAnPG91dGZpbGUubWFlPic=

> <r_lp_tautomer_probability>
1

> <r_epik_Ionization_Penalty>
0.000968128

> <r_epik_Ionization_Penalty_Charging>
0.000718523

> <r_epik_Ionization_Penalty_Neutral>
0.000249604

> <r_epik_State_Penalty>
0.00045807

> <r_epik_Charging_Adjusted_Penalty>
0.00117659

> <i_epik_Tot_Q>
1

> <i_epik_Tot_abs_Q>
1

> <r_epik_Metal_State_Penalty>
-0

> <b_epik_Metal_Only>
0

> <s_lp_Force_Field>
OPLS_2005

> <r_lp_Energy>
19.0488

> <b_lp_Chiralities_Consistent>
1

> <s_lp_Variant>
AV-unprocessed.smi:896-1

> <Gold.Version>
5.8.1

> <Gold.Id.Protein>
6NUR|6NUR_protein|mol2

> <Gold.PLP.Fitness>
43.6214

> <Gold.PLP.PLP>
-38.8881

> <Gold.PLP.part.hbond>
-4.1806

> <Gold.PLP.part.metal>
0.0000

> <Gold.PLP.part.buried>
0.2652

> <Gold.PLP.part.nonpolar>
-38.0332

> <Gold.PLP.part.repulsive>
0.4879

> <Gold.PLP.ligand.clash>
0.0000

> <Gold.PLP.ligand.torsion>
0.7931

> <Gold.PLP.Chemscore.Hbond>
2.0974

> <Gold.PLP.Chemscore.CHOScore>
0.0000

> <Gold.PLP.Chemscore.Metal>
0.0000

> <Gold.Chemscore.Hbonds>
donor molecule, donor type, donor heavy atom, donor atom, acceptor molecule, acceptor atom, score
      L1  H     7    28       P1  7948  0.28
      L1  H    10    29       P1  7948  0.93
      L1  H    16    49       P1  7921  0.90

> <Gold.PLP.Chemscore.Internal.Correction>
0.0274

> <Gold.Rescore>
     Score         DG    S(hbond)    S(metal)    S(lipo)     H(rot)  DE(clash)    DE(int)     intcor
     15.32     -20.01       2.23        0.00      96.83       1.65       2.92       1.77       ----

> <Gold.Chemscore.Fitness>
15.3234

> <Gold.Chemscore.DG>
-20.0112

> <Gold.Chemscore.ZeroCoef>
-5.4800

> <Gold.Chemscore.Hbond>
2.2251

> <Gold.Chemscore.Metal>
0.0000

> <Gold.Chemscore.Lipo>
96.8279

> <Gold.Chemscore.Internal_Hbond>
0.0000

> <Gold.Chemscore.DEClash>
2.9197

> <Gold.Chemscore.DEInternal>
1.7680

> <Gold.Chemscore.Rot>
1.6521

> <Gold.Chemscore.Internal.Correction>
   9.000000E+99

> <Gold.Chemscore.Hbonds>
donor molecule, donor type, donor heavy atom, donor atom, acceptor molecule, acceptor atom, score
      L1  H     7    28       P1  7948  0.25
      L1  H    10    29       P1  7948  0.89
      L1  H    16    49       P1  7921  0.18

> <Gold.Chemscore.Hbond.Weighted>
-7.4317

> <Gold.Chemscore.Metal.Weighted>
-0.0000

> <Gold.Chemscore.Lipo.Weighted>
-11.3289

> <Gold.Chemscore.Internal_Hbond.Weighted>
0.0000

> <Gold.Chemscore.DEClash.Weighted>
2.9197

> <Gold.Chemscore.DEInternal.Weighted>
1.7680

> <Gold.Chemscore.Rot.Weighted>
4.2294

> <Gold.Chemscore.Internal.Correction.Weighted>
   9.000000E+99

> <Gold.Protein.RotatedTorsions>
[ 6907 6896 6895 6894 ] final -160.72 input  -60.11 | X-H torsion
[ 7974 7965 7964 7962 ] final   31.48 input  175.53 | X-H torsion
[ 8008 7997 7996 7995 ] final  -81.74 input   59.86 | X-H torsion
[ 10167 10162 10161 10158 ] final -132.63 input  -65.29 | X-H torsion
[ 10718 10713 10712 10709 ] final  133.89 input   66.30 | X-H torsion
[ 10763 10752 10751 10750 ] final   56.26 input  -60.55 | X-H torsion
[ 11005 11000 10999 10996 ] final -148.43 input  -57.11 | X-H torsion

> <Gold.Protein.ActiveResidues>
 VAL166  LYS551  ARG553  GLY616  TRP617  ASP618  TYR619  PRO620  LYS621  CYS622 
 ASP623  PHE694  ASN695  SER759  ASP760  ASP761  ALA762  ILE779  LEU786  VAL792 
 PHE793  MET794  SER795  GLU796  ALA797  LYS798  CYS799  TRP800  GLU811  SER814 

> <Gold.Protein.RotatedAtoms>
  151.3535  133.3916  159.2682 H   0  0  0  0  0  0  0  0  0  0  0  0  # atno 6907 bound_to 6896
  150.9782  134.9143  159.7839 H   0  0  0  0  0  0  0  0  0  0  0  0  # atno 6908 bound_to 6896
  152.5208  134.3499  159.9299 H   0  0  0  0  0  0  0  0  0  0  0  0  # atno 6909 bound_to 6896
  146.1547  139.6651  142.9075 H   0  0  0  0  0  0  0  0  0  0  0  0  # atno 7974 bound_to 7965
  154.6014  140.0643  156.9374 H   0  0  0  0  0  0  0  0  0  0  0  0  # atno 8008 bound_to 7997
  155.2125  140.3324  155.4308 H   0  0  0  0  0  0  0  0  0  0  0  0  # atno 8009 bound_to 7997
  156.2321  140.1845  156.7200 H   0  0  0  0  0  0  0  0  0  0  0  0  # atno 8010 bound_to 7997
  139.9066  143.6544  152.2584 H   0  0  0  0  0  0  0  0  0  0  0  0  # atno 10167 bound_to 10162
  157.4727  131.1081  150.9782 H   0  0  0  0  0  0  0  0  0  0  0  0  # atno 10718 bound_to 10713
  152.9829  135.5682  154.5199 H   0  0  0  0  0  0  0  0  0  0  0  0  # atno 10763 bound_to 10752
  154.4689  135.2784  155.1659 H   0  0  0  0  0  0  0  0  0  0  0  0  # atno 10764 bound_to 10752
  154.3216  135.6268  153.5563 H   0  0  0  0  0  0  0  0  0  0  0  0  # atno 10765 bound_to 10752
  140.7614  134.3294  157.5100 H   0  0  0  0  0  0  0  0  0  0  0  0  # atno 11005 bound_to 11000
  145.4737  141.0436  143.2684 LP  0  0  0  0  0  0  0  0  0  0  0  0  # atno 17320 bound_to 7965
  144.7948  139.6256  143.7097 LP  0  0  0  0  0  0  0  0  0  0  0  0  # atno 17321 bound_to 7965
  139.6979  144.7639  151.1325 LP  0  0  0  0  0  0  0  0  0  0  0  0  # atno 17342 bound_to 10162
  140.7695  143.5498  150.9217 LP  0  0  0  0  0  0  0  0  0  0  0  0  # atno 17343 bound_to 10162
  157.0541  130.5799  149.5375 LP  0  0  0  0  0  0  0  0  0  0  0  0  # atno 17370 bound_to 10713
  156.0081  130.5170  150.7899 LP  0  0  0  0  0  0  0  0  0  0  0  0  # atno 17371 bound_to 10713
  139.8770  134.9204  156.3250 LP  0  0  0  0  0  0  0  0  0  0  0  0  # atno 17394 bound_to 11000
  140.9660  133.7358  156.0467 LP  0  0  0  0  0  0  0  0  0  0  0  0  # atno 17395 bound_to 11000

$$$$
