AV-unprocessed.smi:514|AV-procd|sdf|2778|dock2
  -GOLD-   2262023243D 1   1.00000     0.00000
 Structure written by MMmdl.
 45 47  0  0  0  0  0  0  0  0  3 V2000
  151.6779  144.6576  159.2474 C   0  0  0  0  0  0  0  0  0  0  0  0
  151.8221  143.1884  158.8446 C   0  0  0  0  0  0  0  0  0  0  0  0
  150.6947  142.8108  158.0729 O   0  0  0  0  0  0  0  0  0  0  0  0
  150.6474  141.4169  157.8201 C   0  0  0  0  0  0  0  0  0  0  0  0
  150.9232  141.1796  156.3264 C   0  0  0  0  0  0  0  0  0  0  0  0
  150.8082  139.7716  155.9556 N   0  0  0  0  0  0  0  0  0  0  0  0
  149.9670  139.1849  155.0542 C   0  0  0  0  0  0  0  0  0  0  0  0
  149.0378  139.8933  154.2775 N   0  0  0  0  0  0  0  0  0  0  0  0
  148.5804  139.4297  152.9664 C   0  0  0  0  0  0  0  0  0  0  0  0
  147.0448  139.4447  152.8604 C   0  0  0  0  0  0  0  0  0  0  0  0
  146.5170  140.7950  153.1406 N   0  3  0  0  0  0  0  0  0  0  0  0
  147.0154  141.3413  154.4185 C   0  0  0  0  0  0  0  0  0  0  0  0
  148.5525  141.2613  154.4751 C   0  0  0  0  0  0  0  0  0  0  0  0
  150.0723  137.8551  154.9959 N   0  0  0  0  0  0  0  0  0  0  0  0
  151.0685  137.5694  155.9141 C   0  0  0  0  0  0  0  0  0  0  0  0
  151.5224  138.7027  156.5107 C   0  0  0  0  0  0  0  0  0  0  0  0
  152.5658  138.7139  157.5617 C   0  0  0  0  0  0  0  0  0  0  0  0
  152.9235  139.7639  158.0911 O   0  0  0  0  0  0  0  0  0  0  0  0
  153.0374  137.4569  157.8373 N   0  5  0  0  0  0  0  0  0  0  0  0
  152.6104  136.2848  157.2512 C   0  0  0  0  0  0  0  0  0  0  0  0
  153.0895  135.1922  157.5575 O   0  0  0  0  0  0  0  0  0  0  0  0
  151.6258  136.3198  156.2991 N   0  0  0  0  0  0  0  0  0  0  0  0
  151.1438  135.0888  155.6662 C   0  0  0  0  0  0  0  0  0  0  0  0
  152.5301  144.9826  159.8444 H   0  0  0  0  0  0  0  0  0  0  0  0
  150.7757  144.8139  159.8389 H   0  0  0  0  0  0  0  0  0  0  0  0
  151.6191  145.3005  158.3688 H   0  0  0  0  0  0  0  0  0  0  0  0
  152.7376  143.0492  158.2678 H   0  0  0  0  0  0  0  0  0  0  0  0
  151.8941  142.5640  159.7363 H   0  0  0  0  0  0  0  0  0  0  0  0
  151.3832  140.9038  158.4395 H   0  0  0  0  0  0  0  0  0  0  0  0
  149.6712  141.0195  158.0979 H   0  0  0  0  0  0  0  0  0  0  0  0
  150.2332  141.7638  155.7181 H   0  0  0  0  0  0  0  0  0  0  0  0
  151.9082  141.5484  156.0523 H   0  0  0  0  0  0  0  0  0  0  0  0
  149.0213  140.0576  152.1910 H   0  0  0  0  0  0  0  0  0  0  0  0
  148.9381  138.4164  152.7809 H   0  0  0  0  0  0  0  0  0  0  0  0
  146.7269  139.1337  151.8652 H   0  0  0  0  0  0  0  0  0  0  0  0
  146.6126  138.7385  153.5707 H   0  0  0  0  0  0  0  0  0  0  0  0
  146.8152  141.4100  152.3972 H   0  0  0  0  0  0  0  0  0  0  0  0
  146.6826  142.3740  154.5218 H   0  0  0  0  0  0  0  0  0  0  0  0
  146.5718  140.7789  155.2405 H   0  0  0  0  0  0  0  0  0  0  0  0
  148.9153  141.6782  155.4092 H   0  0  0  0  0  0  0  0  0  0  0  0
  148.9792  141.8934  153.6947 H   0  0  0  0  0  0  0  0  0  0  0  0
  151.9477  134.6079  155.1074 H   0  0  0  0  0  0  0  0  0  0  0  0
  150.3228  135.2662  154.9722 H   0  0  0  0  0  0  0  0  0  0  0  0
  150.7833  134.3862  156.4189 H   0  0  0  0  0  0  0  0  0  0  0  0
  145.5077  140.7653  153.1572 H   0  0  0  0  0  0  0  0  0  0  0  0
  1  2  1  0  0  0  0
  1 24  1  0  0  0  0
  1 25  1  0  0  0  0
  1 26  1  0  0  0  0
  2  3  1  0  0  0  0
  2 27  1  0  0  0  0
  2 28  1  0  0  0  0
  3  4  1  0  0  0  0
  4  5  1  0  0  0  0
  4 29  1  0  0  0  0
  4 30  1  0  0  0  0
  5  6  1  0  0  0  0
  5 31  1  0  0  0  0
  5 32  1  0  0  0  0
  6 16  1  0  0  0  0
  6  7  1  0  0  0  0
  7  8  1  0  0  0  0
  7 14  2  0  0  0  0
  8 13  1  0  0  0  0
  8  9  1  0  0  0  0
  9 10  1  0  0  0  0
  9 33  1  0  0  0  0
  9 34  1  0  0  0  0
 10 11  1  0  0  0  0
 10 35  1  0  0  0  0
 10 36  1  0  0  0  0
 11 12  1  0  0  0  0
 11 37  1  0  0  0  0
 11 45  1  0  0  0  0
 12 13  1  0  0  0  0
 12 38  1  0  0  0  0
 12 39  1  0  0  0  0
 13 40  1  0  0  0  0
 13 41  1  0  0  0  0
 14 15  1  0  0  0  0
 15 22  1  0  0  0  0
 15 16  2  0  0  0  0
 16 17  1  0  0  0  0
 17 18  2  0  0  0  0
 17 19  1  0  0  0  0
 19 20  1  0  0  0  0
 20 21  2  0  0  0  0
 20 22  1  0  0  0  0
 22 23  1  0  0  0  0
 23 42  1  0  0  0  0
 23 43  1  0  0  0  0
 23 44  1  0  0  0  0
M  CHG  1  11   1
M  CHG  1  19  -1
M  END
> <s_m_source_file>
AV-unprocessed.smi

> <i_m_source_file_index>
514

> <i_lp_mmshare_version>
43012

> <i_f3d_flags>
0

> <s_epik_input>
W0NIM11uMWMoPU8pW25IXWMoPU8pYyhjMTIpbihbQ0gyXVtDSDJdT1tDSDJdW0NIM10pYyhuMilOM1tDSDJdW0NIMl1bTkhdW0NIMl1bQ0gyXTM=

> <s_epik_cmdline>
J2VwaWtfcHl0aG9uJywgJy1waCcsICc3LjAnLCAnLXRuJywgJzgnLCAnLW1hJywgJzIwMCcsICctbWV0YWxfYmluZGluZycsICctaW1hZScsICc8aW5maWxlLm1hZT4nLCAnLW9tYWUnLCAnPG91dGZpbGUubWFlPic=

> <r_epik_Ionization_Penalty>
5.92505

> <r_epik_Ionization_Penalty_Charging>
0.0655308

> <r_epik_Ionization_Penalty_Neutral>
5.85952

> <r_epik_State_Penalty>
5.86593

> <r_epik_Charging_Adjusted_Penalty>
5.93146

> <i_epik_Tot_Q>
0

> <i_epik_Tot_abs_Q>
2

> <r_epik_Metal_State_Penalty>
1.83024

> <b_epik_Metal_Only>
1

> <s_lp_Force_Field>
OPLS_2005

> <r_lp_Energy>
48.6867

> <b_lp_Chiralities_Consistent>
1

> <s_lp_Variant>
AV-unprocessed.smi:514-3

> <Gold.Version>
5.8.1

> <Gold.Id.Protein>
6NUR|6NUR_protein|mol2

> <Gold.PLP.Fitness>
42.6903

> <Gold.PLP.PLP>
-34.6399

> <Gold.PLP.part.hbond>
-3.0000

> <Gold.PLP.part.metal>
0.0000

> <Gold.PLP.part.buried>
0.8209

> <Gold.PLP.part.nonpolar>
-33.6150

> <Gold.PLP.part.repulsive>
0.2688

> <Gold.PLP.ligand.clash>
0.0000

> <Gold.PLP.ligand.torsion>
0.6154

> <Gold.PLP.Chemscore.Hbond>
3.0282

> <Gold.PLP.Chemscore.CHOScore>
0.0000

> <Gold.PLP.Chemscore.Metal>
0.0000

> <Gold.Chemscore.Hbonds>
donor molecule, donor type, donor heavy atom, donor atom, acceptor molecule, acceptor atom, score
      L1  H    11    45       P1 10175  2.00
      P1  H  7997  8010       L1    18  0.80

> <Gold.PLP.Chemscore.Internal.Correction>
0.1967

> <Gold.Rescore>
     Score         DG    S(hbond)    S(metal)    S(lipo)     H(rot)  DE(clash)    DE(int)     intcor
     12.87     -16.44       1.97        0.00      75.03       1.72       1.74       1.83       ----

> <Gold.Chemscore.Fitness>
12.8740

> <Gold.Chemscore.DG>
-16.4416

> <Gold.Chemscore.ZeroCoef>
-5.4800

> <Gold.Chemscore.Hbond>
1.9731

> <Gold.Chemscore.Metal>
0.0000

> <Gold.Chemscore.Lipo>
75.0293

> <Gold.Chemscore.Internal_Hbond>
0.0000

> <Gold.Chemscore.DEClash>
1.7401

> <Gold.Chemscore.DEInternal>
1.8274

> <Gold.Chemscore.Rot>
1.7214

> <Gold.Chemscore.Internal.Correction>
   9.000000E+99

> <Gold.Chemscore.Hbonds>
donor molecule, donor type, donor heavy atom, donor atom, acceptor molecule, acceptor atom, score
      L1  H    11    45       P1 10175  0.68
      P1  H  7997  8010       L1    18  0.11

> <Gold.Chemscore.Hbond.Weighted>
-6.5900

> <Gold.Chemscore.Metal.Weighted>
-0.0000

> <Gold.Chemscore.Lipo.Weighted>
-8.7784

> <Gold.Chemscore.Internal_Hbond.Weighted>
0.0000

> <Gold.Chemscore.DEClash.Weighted>
1.7401

> <Gold.Chemscore.DEInternal.Weighted>
1.8274

> <Gold.Chemscore.Rot.Weighted>
4.4069

> <Gold.Chemscore.Internal.Correction.Weighted>
   9.000000E+99

> <Gold.Protein.RotatedTorsions>
[ 6907 6896 6895 6894 ] final   92.08 input  -60.11 | X-H torsion
[ 7974 7965 7964 7962 ] final -132.25 input  175.53 | X-H torsion
[ 8008 7997 7996 7995 ] final   41.94 input   59.86 | X-H torsion
[ 10167 10162 10161 10158 ] final  142.40 input  -65.29 | X-H torsion
[ 10718 10713 10712 10709 ] final  -32.27 input   66.30 | X-H torsion
[ 10763 10752 10751 10750 ] final    3.52 input  -60.55 | X-H torsion
[ 11005 11000 10999 10996 ] final   75.88 input  -57.11 | X-H torsion

> <Gold.Protein.ActiveResidues>
 VAL166  LYS551  ARG553  GLY616  TRP617  ASP618  TYR619  PRO620  LYS621  CYS622 
 ASP623  PHE694  ASN695  SER759  ASP760  ASP761  ALA762  ILE779  LEU786  VAL792 
 PHE793  MET794  SER795  GLU796  ALA797  LYS798  CYS799  TRP800  GLU811  SER814 

> <Gold.Protein.RotatedAtoms>
  152.5452  134.1558  159.8536 H   0  0  0  0  0  0  0  0  0  0  0  0  # atno 6907 bound_to 6896
  151.1580  133.4856  159.2602 H   0  0  0  0  0  0  0  0  0  0  0  0  # atno 6908 bound_to 6896
  151.1402  135.0186  159.8677 H   0  0  0  0  0  0  0  0  0  0  0  0  # atno 6909 bound_to 6896
  144.9303  140.7121  143.4910 H   0  0  0  0  0  0  0  0  0  0  0  0  # atno 7974 bound_to 7965
  155.2780  140.3370  155.4260 H   0  0  0  0  0  0  0  0  0  0  0  0  # atno 8008 bound_to 7997
  156.2103  140.1767  156.7751 H   0  0  0  0  0  0  0  0  0  0  0  0  # atno 8009 bound_to 7997
  154.5677  140.0676  156.8900 H   0  0  0  0  0  0  0  0  0  0  0  0  # atno 8010 bound_to 7997
  139.4995  144.6109  151.6273 H   0  0  0  0  0  0  0  0  0  0  0  0  # atno 10167 bound_to 10162
  156.3769  130.4349  149.7500 H   0  0  0  0  0  0  0  0  0  0  0  0  # atno 10718 bound_to 10713
  153.2823  135.6941  153.7373 H   0  0  0  0  0  0  0  0  0  0  0  0  # atno 10763 bound_to 10752
  153.6355  135.3402  155.3056 H   0  0  0  0  0  0  0  0  0  0  0  0  # atno 10764 bound_to 10752
  154.8499  135.4419  154.1880 H   0  0  0  0  0  0  0  0  0  0  0  0  # atno 10765 bound_to 10752
  139.9323  134.7555  156.1326 H   0  0  0  0  0  0  0  0  0  0  0  0  # atno 11005 bound_to 11000
  145.3152  139.1806  143.4617 LP  0  0  0  0  0  0  0  0  0  0  0  0  # atno 17320 bound_to 7965
  146.3244  140.3162  142.8630 LP  0  0  0  0  0  0  0  0  0  0  0  0  # atno 17321 bound_to 7965
  140.5784  143.9989  150.6254 LP  0  0  0  0  0  0  0  0  0  0  0  0  # atno 17342 bound_to 10162
  140.3129  143.3186  152.0860 LP  0  0  0  0  0  0  0  0  0  0  0  0  # atno 17343 bound_to 10162
  156.4606  130.7950  151.2970 LP  0  0  0  0  0  0  0  0  0  0  0  0  # atno 17370 bound_to 10713
  157.7489  131.0067  150.3162 LP  0  0  0  0  0  0  0  0  0  0  0  0  # atno 17371 bound_to 10713
  141.0919  133.6711  156.2559 LP  0  0  0  0  0  0  0  0  0  0  0  0  # atno 17394 bound_to 11000
  140.6168  134.5402  157.5542 LP  0  0  0  0  0  0  0  0  0  0  0  0  # atno 17395 bound_to 11000

$$$$
