AV-unprocessed.smi:1763|AV-procd|sdf|7131|dock5
  -GOLD-   22720 8363D 1   1.00000     0.00000
 Structure written by MMmdl.
 42 43  0  0  0  0  0  0  0  0  3 V2000
  143.7069  145.9317  155.7892 C   0  0  0  0  0  0  0  0  0  0  0  0
  143.5741  144.5293  155.4117 N   0  5  0  0  0  0  0  0  0  0  0  0
  144.2161  143.5149  156.0546 C   0  0  0  0  0  0  0  0  0  0  0  0
  144.9311  143.5239  157.0616 O   0  0  0  0  0  0  0  0  0  0  0  0
  143.9653  142.1730  155.3553 C   0  0  0  0  0  0  0  0  0  0  0  0
  145.2160  141.6514  154.7463 N   0  3  2  0  0  0  0  0  0  0  0  0
  146.0186  140.8461  155.7005 C   0  0  0  0  0  0  0  0  0  0  0  0
  147.2231  140.1900  155.0012 C   0  0  0  0  0  0  0  0  0  0  0  0
  148.1050  141.2207  154.2749 C   0  0  2  0  0  0  0  0  0  0  0  0
  148.8477  142.0321  155.2394 N   0  0  0  0  0  0  0  0  0  0  0  0
  149.8048  141.5758  156.0610 C   0  0  0  0  0  0  0  0  0  0  0  0
  150.1720  140.4007  156.0863 O   0  0  0  0  0  0  0  0  0  0  0  0
  150.2954  142.5615  156.8332 N   0  0  0  0  0  0  0  0  0  0  0  0
  151.3155  142.4790  157.8185 C   0  0  0  0  0  0  0  0  0  0  0  0
  151.7145  143.7165  158.3727 C   0  0  0  0  0  0  0  0  0  0  0  0
  152.7204  143.7418  159.3581 C   0  0  0  0  0  0  0  0  0  0  0  0
  153.3022  142.5277  159.7647 C   0  0  0  0  0  0  0  0  0  0  0  0
  152.8476  141.3401  159.1622 C   0  0  0  0  0  0  0  0  0  0  0  0
  151.8839  141.3135  158.2175 N   0  0  0  0  0  0  0  0  0  0  0  0
  147.2334  142.0894  153.3461 C   0  0  0  0  0  0  0  0  0  0  0  0
  146.0346  142.7044  154.0887 C   0  0  0  0  0  0  0  0  0  0  0  0
  143.0879  146.5783  155.1674 H   0  0  0  0  0  0  0  0  0  0  0  0
  144.7304  146.2934  155.6862 H   0  0  0  0  0  0  0  0  0  0  0  0
  143.4080  146.1165  156.8214 H   0  0  0  0  0  0  0  0  0  0  0  0
  143.5500  141.4443  156.0534 H   0  0  0  0  0  0  0  0  0  0  0  0
  143.2070  142.3347  154.5872 H   0  0  0  0  0  0  0  0  0  0  0  0
  146.3522  141.4809  156.5227 H   0  0  0  0  0  0  0  0  0  0  0  0
  145.3939  140.0658  156.1369 H   0  0  0  0  0  0  0  0  0  0  0  0
  147.8150  139.6258  155.7230 H   0  0  0  0  0  0  0  0  0  0  0  0
  146.8565  139.4617  154.2763 H   0  0  0  0  0  0  0  0  0  0  0  0
  148.8288  140.6742  153.6674 H   0  0  0  0  0  0  0  0  0  0  0  0
  148.6077  143.0113  155.2906 H   0  0  0  0  0  0  0  0  0  0  0  0
  149.8934  143.4776  156.7019 H   0  0  0  0  0  0  0  0  0  0  0  0
  151.2570  144.6404  158.0494 H   0  0  0  0  0  0  0  0  0  0  0  0
  153.0395  144.6770  159.7940 H   0  0  0  0  0  0  0  0  0  0  0  0
  154.0764  142.5068  160.5173 H   0  0  0  0  0  0  0  0  0  0  0  0
  153.2682  140.3864  159.4456 H   0  0  0  0  0  0  0  0  0  0  0  0
  147.8297  142.8757  152.8818 H   0  0  0  0  0  0  0  0  0  0  0  0
  146.8618  141.4724  152.5268 H   0  0  0  0  0  0  0  0  0  0  0  0
  145.4267  143.2633  153.3766 H   0  0  0  0  0  0  0  0  0  0  0  0
  146.3785  143.4210  154.8362 H   0  0  0  0  0  0  0  0  0  0  0  0
  144.9116  141.0170  154.0207 H   0  0  0  0  0  0  0  0  0  0  0  0
  1  2  1  0  0  0  0
  1 22  1  0  0  0  0
  1 23  1  0  0  0  0
  1 24  1  0  0  0  0
  2  3  1  0  0  0  0
  3  4  2  0  0  0  0
  3  5  1  0  0  0  0
  5  6  1  0  0  0  0
  5 25  1  0  0  0  0
  5 26  1  0  0  0  0
  6 21  1  0  0  0  0
  6  7  1  0  0  0  0
  6 42  1  0  0  0  0
  7  8  1  0  0  0  0
  7 27  1  0  0  0  0
  7 28  1  0  0  0  0
  8  9  1  0  0  0  0
  8 29  1  0  0  0  0
  8 30  1  0  0  0  0
  9 10  1  0  0  0  0
  9 20  1  0  0  0  0
  9 31  1  0  0  0  0
 10 11  1  0  0  0  0
 10 32  1  0  0  0  0
 11 12  2  0  0  0  0
 11 13  1  0  0  0  0
 13 14  1  0  0  0  0
 13 33  1  0  0  0  0
 14 19  1  0  0  0  0
 14 15  2  0  0  0  0
 15 16  1  0  0  0  0
 15 34  1  0  0  0  0
 16 17  2  0  0  0  0
 16 35  1  0  0  0  0
 17 18  1  0  0  0  0
 17 36  1  0  0  0  0
 18 19  2  0  0  0  0
 18 37  1  0  0  0  0
 20 21  1  0  0  0  0
 20 38  1  0  0  0  0
 20 39  1  0  0  0  0
 21 40  1  0  0  0  0
 21 41  1  0  0  0  0
M  CHG  1   2  -1
M  CHG  1   6   1
M  END
> <s_m_source_file>
AV-unprocessed.smi

> <i_m_source_file_index>
1763

> <i_lp_mmshare_version>
43012

> <i_f3d_flags>
0

> <s_epik_input>
W0NIM11bTkhdQyg9TylbQ0gyXU4xW0NIMl1bQ0gyXVtDSF0oW0NIMl1bQ0gyXTEpW05IXUMoPU8pW05IXWMyW2NIXVtjSF1bY0hdW2NIXW4y

> <s_epik_cmdline>
J2VwaWtfcHl0aG9uJywgJy1waCcsICc3LjAnLCAnLXRuJywgJzgnLCAnLW1hJywgJzIwMCcsICctbWV0YWxfYmluZGluZycsICctaW1hZScsICc8aW5maWxlLm1hZT4nLCAnLW9tYWUnLCAnPG91dGZpbGUubWFlPic=

> <r_epik_Ionization_Penalty>
6.1395

> <r_epik_Ionization_Penalty_Charging>
6.13946

> <r_epik_Ionization_Penalty_Neutral>
3.77655e-05

> <r_epik_State_Penalty>
6.9595

> <r_epik_Charging_Adjusted_Penalty>
13.099

> <i_epik_Tot_Q>
0

> <i_epik_Tot_abs_Q>
2

> <r_epik_Metal_State_Penalty>
2.8914

> <b_epik_Metal_Only>
1

> <s_lp_Force_Field>
OPLS_2005

> <r_lp_Energy>
12.7162

> <b_lp_Chiralities_Consistent>
1

> <s_lp_Variant>
AV-unprocessed.smi:1763-5

> <Gold.Version>
5.8.1

> <Gold.Id.Protein>
6NUR|6NUR_protein|mol2

> <Gold.PLP.Fitness>
46.5967

> <Gold.PLP.PLP>
-35.2746

> <Gold.PLP.part.hbond>
-3.0000

> <Gold.PLP.part.metal>
0.0000

> <Gold.PLP.part.buried>
-6.9512

> <Gold.PLP.part.nonpolar>
-26.9583

> <Gold.PLP.part.repulsive>
0.3998

> <Gold.PLP.ligand.clash>
0.0000

> <Gold.PLP.ligand.torsion>
0.3658

> <Gold.PLP.Chemscore.Hbond>
4.0000

> <Gold.PLP.Chemscore.CHOScore>
0.0000

> <Gold.PLP.Chemscore.Metal>
0.0000

> <Gold.Chemscore.Hbonds>
donor molecule, donor type, donor heavy atom, donor atom, acceptor molecule, acceptor atom, score
      L1  H     6    42       P1 10175  1.98
      L1  H    10    32       P1  8028  1.00
      L1  H    13    33       P1  8028  1.00

> <Gold.PLP.Chemscore.Internal.Correction>
0.0538

> <Gold.Rescore>
     Score         DG    S(hbond)    S(metal)    S(lipo)     H(rot)  DE(clash)    DE(int)     intcor
     17.23     -20.28       2.81        0.00      82.74       1.67       1.46       1.58       ----

> <Gold.Chemscore.Fitness>
17.2323

> <Gold.Chemscore.DG>
-20.2765

> <Gold.Chemscore.ZeroCoef>
-5.4800

> <Gold.Chemscore.Hbond>
2.8140

> <Gold.Chemscore.Metal>
0.0000

> <Gold.Chemscore.Lipo>
82.7409

> <Gold.Chemscore.Internal_Hbond>
0.0000

> <Gold.Chemscore.DEClash>
1.4650

> <Gold.Chemscore.DEInternal>
1.5792

> <Gold.Chemscore.Rot>
1.6730

> <Gold.Chemscore.Internal.Correction>
   9.000000E+99

> <Gold.Chemscore.Hbonds>
donor molecule, donor type, donor heavy atom, donor atom, acceptor molecule, acceptor atom, score
      L1  H     6    42       P1 10175  0.75
      L1  H    10    32       P1  8028  0.99
      L1  H    13    33       P1  8028  0.96

> <Gold.Chemscore.Hbond.Weighted>
-9.3988

> <Gold.Chemscore.Metal.Weighted>
-0.0000

> <Gold.Chemscore.Lipo.Weighted>
-9.6807

> <Gold.Chemscore.Internal_Hbond.Weighted>
0.0000

> <Gold.Chemscore.DEClash.Weighted>
1.4650

> <Gold.Chemscore.DEInternal.Weighted>
1.5792

> <Gold.Chemscore.Rot.Weighted>
4.2830

> <Gold.Chemscore.Internal.Correction.Weighted>
   9.000000E+99

> <Gold.Protein.RotatedTorsions>
[ 6907 6896 6895 6894 ] final   55.24 input  -60.11 | X-H torsion
[ 7974 7965 7964 7962 ] final   72.26 input  175.53 | X-H torsion
[ 8008 7997 7996 7995 ] final  -82.81 input   59.86 | X-H torsion
[ 10167 10162 10161 10158 ] final -124.84 input  -65.29 | X-H torsion
[ 10718 10713 10712 10709 ] final  128.81 input   66.30 | X-H torsion
[ 10763 10752 10751 10750 ] final  -70.54 input  -60.55 | X-H torsion
[ 11005 11000 10999 10996 ] final  138.98 input  -57.11 | X-H torsion

> <Gold.Protein.ActiveResidues>
 VAL166  LYS551  ARG553  GLY616  TRP617  ASP618  TYR619  PRO620  LYS621  CYS622 
 ASP623  PHE694  ASN695  SER759  ASP760  ASP761  ALA762  ILE779  LEU786  VAL792 
 PHE793  MET794  SER795  GLU796  ALA797  LYS798  CYS799  TRP800  GLU811  SER814 

> <Gold.Protein.RotatedAtoms>
  152.3519  134.6993  160.0233 H   0  0  0  0  0  0  0  0  0  0  0  0  # atno 6907 bound_to 6896
  151.7345  133.3313  159.3357 H   0  0  0  0  0  0  0  0  0  0  0  0  # atno 6908 bound_to 6896
  150.7546  134.6267  159.6209 H   0  0  0  0  0  0  0  0  0  0  0  0  # atno 6909 bound_to 6896
  145.7555  139.2778  143.1406 H   0  0  0  0  0  0  0  0  0  0  0  0  # atno 7974 bound_to 7965
  154.6125  140.0628  156.9512 H   0  0  0  0  0  0  0  0  0  0  0  0  # atno 8008 bound_to 7997
  155.1950  140.3310  155.4334 H   0  0  0  0  0  0  0  0  0  0  0  0  # atno 8009 bound_to 7997
  156.2385  140.1874  156.7038 H   0  0  0  0  0  0  0  0  0  0  0  0  # atno 8010 bound_to 7997
  139.9885  143.5666  152.2351 H   0  0  0  0  0  0  0  0  0  0  0  0  # atno 10167 bound_to 10162
  157.5211  131.1098  150.9152 H   0  0  0  0  0  0  0  0  0  0  0  0  # atno 10718 bound_to 10713
  154.4191  135.5991  153.5999 H   0  0  0  0  0  0  0  0  0  0  0  0  # atno 10763 bound_to 10752
  152.9793  135.5948  154.3976 H   0  0  0  0  0  0  0  0  0  0  0  0  # atno 10764 bound_to 10752
  154.3799  135.2841  155.2195 H   0  0  0  0  0  0  0  0  0  0  0  0  # atno 10765 bound_to 10752
  140.0222  134.9391  157.0497 H   0  0  0  0  0  0  0  0  0  0  0  0  # atno 11005 bound_to 11000
  146.0315  140.8253  142.9874 LP  0  0  0  0  0  0  0  0  0  0  0  0  # atno 17320 bound_to 7965
  144.6841  140.2775  143.7297 LP  0  0  0  0  0  0  0  0  0  0  0  0  # atno 17321 bound_to 7965
  139.6357  144.7649  151.2442 LP  0  0  0  0  0  0  0  0  0  0  0  0  # atno 17342 bound_to 10162
  140.7463  143.6402  150.8342 LP  0  0  0  0  0  0  0  0  0  0  0  0  # atno 17343 bound_to 10162
  156.9763  130.5510  149.5293 LP  0  0  0  0  0  0  0  0  0  0  0  0  # atno 17370 bound_to 10713
  156.0354  130.5442  150.8640 LP  0  0  0  0  0  0  0  0  0  0  0  0  # atno 17371 bound_to 10713
  140.4368  134.1723  155.7171 LP  0  0  0  0  0  0  0  0  0  0  0  0  # atno 17394 bound_to 11000
  141.1781  133.8472  157.1354 LP  0  0  0  0  0  0  0  0  0  0  0  0  # atno 17395 bound_to 11000

$$$$
