AV-unprocessed.smi:220|AV-procd|sdf|1683|dock6
  -GOLD-   2262020123D 1   1.00000     0.00000
 Structure written by MMmdl.
 51 55  0  0  0  0  0  0  0  0  1 V2000
  148.6836  143.4175  157.9906 N   0  0  0  0  0  0  0  0  0  0  0  0
  149.6379  143.4443  158.9239 C   0  0  0  0  0  0  0  0  0  0  0  0
  149.3818  143.6543  160.1086 O   0  0  0  0  0  0  0  0  0  0  0  0
  151.0878  143.2164  158.4408 C   0  0  1  0  0  0  0  0  0  0  0  0
  152.2015  143.8196  159.3416 C   0  0  1  0  0  0  0  0  0  0  0  0
  151.8946  145.0029  160.2921 C   0  0  0  0  0  0  0  0  0  0  0  0
  152.5204  144.6084  161.6336 C   0  0  0  0  0  0  0  0  0  0  0  0
  152.4114  143.0843  161.6681 C   0  0  0  0  0  0  0  0  0  0  0  0
  152.7091  142.6726  160.2236 C   0  0  1  0  0  0  0  0  0  0  0  0
  152.0181  141.4071  159.7086 C   0  0  0  0  0  0  0  0  0  0  0  0
  151.4309  141.7918  158.4291 N   0  0  0  0  0  0  0  0  0  0  0  0
  150.7825  140.8789  157.6507 C   0  0  0  0  0  0  0  0  0  0  0  0
  150.2620  141.2940  156.4645 N   0  0  0  0  0  0  0  0  0  0  0  0
  149.6241  140.4399  155.6607 C   0  0  0  0  0  0  0  0  0  0  0  0
  149.3902  139.1410  155.8443 N   0  0  0  0  0  0  0  0  0  0  0  0
  149.8968  138.7118  157.0346 C   0  0  0  0  0  0  0  0  0  0  0  0
  150.5960  139.5044  157.9916 C   0  0  0  0  0  0  0  0  0  0  0  0
  150.9373  138.7121  159.0827 N   0  0  0  0  0  0  0  0  0  0  0  0
  150.4804  137.5278  158.7851 C   0  0  0  0  0  0  0  0  0  0  0  0
  149.8503  137.4340  157.5666 N   0  0  0  0  0  0  0  0  0  0  0  0
  149.2517  136.2424  156.9838 C   0  0  0  0  0  0  0  0  0  0  0  0
  150.1303  135.5679  155.9110 C   0  0  0  0  0  0  0  0  0  0  0  0
  150.7157  136.6222  154.9553 C   0  0  0  0  0  0  0  0  0  0  0  0
  149.6998  137.2596  154.2083 O   0  0  0  0  0  0  0  0  0  0  0  0
  151.1520  134.5436  156.4260 C   0  0  0  0  0  0  0  0  0  0  0  0
  150.6974  133.5370  155.4974 O   0  0  0  0  0  0  0  0  0  0  0  0
  149.5257  134.3350  155.2253 C   0  0  0  0  0  0  0  0  0  0  0  0
  147.7196  143.5567  158.2567 H   0  0  0  0  0  0  0  0  0  0  0  0
  148.9274  143.2541  157.0245 H   0  0  0  0  0  0  0  0  0  0  0  0
  151.2064  143.6440  157.4461 H   0  0  0  0  0  0  0  0  0  0  0  0
  153.0272  144.1158  158.6922 H   0  0  0  0  0  0  0  0  0  0  0  0
  152.3043  145.9412  159.9170 H   0  0  0  0  0  0  0  0  0  0  0  0
  150.8305  145.1682  160.4478 H   0  0  0  0  0  0  0  0  0  0  0  0
  153.5711  144.9016  161.6514 H   0  0  0  0  0  0  0  0  0  0  0  0
  152.0277  145.0840  162.4822 H   0  0  0  0  0  0  0  0  0  0  0  0
  153.0951  142.6280  162.3841 H   0  0  0  0  0  0  0  0  0  0  0  0
  151.3951  142.8024  161.9474 H   0  0  0  0  0  0  0  0  0  0  0  0
  153.7886  142.5854  160.0899 H   0  0  0  0  0  0  0  0  0  0  0  0
  152.7389  140.5973  159.5868 H   0  0  0  0  0  0  0  0  0  0  0  0
  151.2384  141.0652  160.3908 H   0  0  0  0  0  0  0  0  0  0  0  0
  149.2480  140.8573  154.7384 H   0  0  0  0  0  0  0  0  0  0  0  0
  150.5937  136.6867  159.4528 H   0  0  0  0  0  0  0  0  0  0  0  0
  149.0450  135.5472  157.7985 H   0  0  0  0  0  0  0  0  0  0  0  0
  148.2760  136.5068  156.5747 H   0  0  0  0  0  0  0  0  0  0  0  0
  151.2927  137.3766  155.4902 H   0  0  0  0  0  0  0  0  0  0  0  0
  151.4062  136.1595  154.2494 H   0  0  0  0  0  0  0  0  0  0  0  0
  149.7644  136.9759  153.3091 H   0  0  0  0  0  0  0  0  0  0  0  0
  152.1914  134.8299  156.2611 H   0  0  0  0  0  0  0  0  0  0  0  0
  150.9930  134.2325  157.4593 H   0  0  0  0  0  0  0  0  0  0  0  0
  148.6413  133.9383  155.7262 H   0  0  0  0  0  0  0  0  0  0  0  0
  149.3432  134.4617  154.1576 H   0  0  0  0  0  0  0  0  0  0  0  0
  1  2  1  0  0  0  0
  1 28  1  0  0  0  0
  1 29  1  0  0  0  0
  2  3  2  0  0  0  0
  2  4  1  0  0  0  0
  4 11  1  0  0  0  0
  4  5  1  0  0  0  0
  4 30  1  0  0  0  0
  5  9  1  0  0  0  0
  5  6  1  0  0  0  0
  5 31  1  0  0  0  0
  6  7  1  0  0  0  0
  6 32  1  0  0  0  0
  6 33  1  0  0  0  0
  7  8  1  0  0  0  0
  7 34  1  0  0  0  0
  7 35  1  0  0  0  0
  8  9  1  0  0  0  0
  8 36  1  0  0  0  0
  8 37  1  0  0  0  0
  9 10  1  0  0  0  0
  9 38  1  0  0  0  0
 10 11  1  0  0  0  0
 10 39  1  0  0  0  0
 10 40  1  0  0  0  0
 11 12  1  0  0  0  0
 12 17  1  0  0  0  0
 12 13  2  0  0  0  0
 13 14  1  0  0  0  0
 14 15  2  0  0  0  0
 14 41  1  0  0  0  0
 15 16  1  0  0  0  0
 16 20  1  0  0  0  0
 16 17  2  0  0  0  0
 17 18  1  0  0  0  0
 18 19  2  0  0  0  0
 19 20  1  0  0  0  0
 19 42  1  0  0  0  0
 20 21  1  0  0  0  0
 21 22  1  0  0  0  0
 21 43  1  0  0  0  0
 21 44  1  0  0  0  0
 22 27  1  0  0  0  0
 22 23  1  0  0  0  0
 22 25  1  0  0  0  0
 23 24  1  0  0  0  0
 23 45  1  0  0  0  0
 23 46  1  0  0  0  0
 24 47  1  0  0  0  0
 25 26  1  0  0  0  0
 25 48  1  0  0  0  0
 25 49  1  0  0  0  0
 26 27  1  0  0  0  0
 27 50  1  0  0  0  0
 27 51  1  0  0  0  0
M  END
> <s_m_source_file>
AV-unprocessed.smi

> <i_m_source_file_index>
220

> <i_lp_mmshare_version>
43012

> <i_f3d_flags>
0

> <s_epik_input>
W0NIMl0xW0NIMl1bQ0gyXVtDQEhdKFtDQEhdMTIpW0NIMl1OKFtDQEBIXTJDKD1PKVtOSDJdKWMobltjSF1uMyljKGMzNCluW2NIXW40W0NIMl1DNShbQ0gyXVtPSF0pW0NIMl1PW0NIMl01

> <s_epik_cmdline>
J2VwaWtfcHl0aG9uJywgJy1waCcsICc3LjAnLCAnLXRuJywgJzgnLCAnLW1hJywgJzIwMCcsICctbWV0YWxfYmluZGluZycsICctaW1hZScsICc8aW5maWxlLm1hZT4nLCAnLW9tYWUnLCAnPG91dGZpbGUubWFlPic=

> <r_lp_tautomer_probability>
1

> <r_epik_Ionization_Penalty>
0.00118987

> <r_epik_Ionization_Penalty_Charging>
0

> <r_epik_Ionization_Penalty_Neutral>
0.00118987

> <r_epik_State_Penalty>
0.000654261

> <r_epik_Charging_Adjusted_Penalty>
0.000654261

> <i_epik_Tot_Q>
0

> <i_epik_Tot_abs_Q>
0

> <r_epik_Metal_State_Penalty>
-0

> <b_epik_Metal_Only>
0

> <s_lp_Force_Field>
OPLS_2005

> <r_lp_Energy>
61.4398

> <b_lp_Chiralities_Consistent>
1

> <s_lp_Variant>
AV-unprocessed.smi:220-2

> <Gold.Version>
5.8.1

> <Gold.Id.Protein>
6NUR|6NUR_protein|mol2

> <Gold.PLP.Fitness>
43.7435

> <Gold.PLP.PLP>
-40.8026

> <Gold.PLP.part.hbond>
-4.2416

> <Gold.PLP.part.metal>
0.0000

> <Gold.PLP.part.buried>
-5.2717

> <Gold.PLP.part.nonpolar>
-31.8509

> <Gold.PLP.part.repulsive>
0.2866

> <Gold.PLP.ligand.clash>
0.0000

> <Gold.PLP.ligand.torsion>
1.4949

> <Gold.PLP.Chemscore.Hbond>
1.7840

> <Gold.PLP.Chemscore.CHOScore>
0.0000

> <Gold.PLP.Chemscore.Metal>
0.0000

> <Gold.Chemscore.Hbonds>
donor molecule, donor type, donor heavy atom, donor atom, acceptor molecule, acceptor atom, score
      L1  H     1    29       P1  8028  0.42
      L1  H    24    47       P1  7948  1.00
      P1  H  6933  6944       L1     3  0.35

> <Gold.PLP.Chemscore.Internal.Correction>
0.5787

> <Gold.Rescore>
     Score         DG    S(hbond)    S(metal)    S(lipo)     H(rot)  DE(clash)    DE(int)     intcor
      9.51     -14.03       1.35        0.00      97.86       2.89       0.03       4.49       ----

> <Gold.Chemscore.Fitness>
9.5059

> <Gold.Chemscore.DG>
-14.0326

> <Gold.Chemscore.ZeroCoef>
-5.4800

> <Gold.Chemscore.Hbond>
1.3453

> <Gold.Chemscore.Metal>
0.0000

> <Gold.Chemscore.Lipo>
97.8609

> <Gold.Chemscore.Internal_Hbond>
0.0000

> <Gold.Chemscore.DEClash>
0.0337

> <Gold.Chemscore.DEInternal>
4.4930

> <Gold.Chemscore.Rot>
2.8869

> <Gold.Chemscore.Internal.Correction>
   9.000000E+99

> <Gold.Chemscore.Hbonds>
donor molecule, donor type, donor heavy atom, donor atom, acceptor molecule, acceptor atom, score
      L1  H     1    29       P1  8028  0.28
      L1  H    24    47       P1  7948  0.42
      P1  H  6933  6944       L1     3  0.34

> <Gold.Chemscore.Hbond.Weighted>
-4.4934

> <Gold.Chemscore.Metal.Weighted>
-0.0000

> <Gold.Chemscore.Lipo.Weighted>
-11.4497

> <Gold.Chemscore.Internal_Hbond.Weighted>
0.0000

> <Gold.Chemscore.DEClash.Weighted>
0.0337

> <Gold.Chemscore.DEInternal.Weighted>
4.4930

> <Gold.Chemscore.Rot.Weighted>
7.3905

> <Gold.Chemscore.Internal.Correction.Weighted>
   9.000000E+99

> <Gold.Protein.RotatedTorsions>
[ 6907 6896 6895 6894 ] final   95.32 input  -60.11 | X-H torsion
[ 7974 7965 7964 7962 ] final  110.37 input  175.53 | X-H torsion
[ 8008 7997 7996 7995 ] final   75.76 input   59.86 | X-H torsion
[ 10167 10162 10161 10158 ] final  158.34 input  -65.29 | X-H torsion
[ 10718 10713 10712 10709 ] final   30.81 input   66.30 | X-H torsion
[ 10763 10752 10751 10750 ] final  140.83 input  -60.55 | X-H torsion
[ 11005 11000 10999 10996 ] final  149.40 input  -57.11 | X-H torsion

> <Gold.Protein.ActiveResidues>
 VAL166  LYS551  ARG553  GLY616  TRP617  ASP618  TYR619  PRO620  LYS621  CYS622 
 ASP623  PHE694  ASN695  SER759  ASP760  ASP761  ALA762  ILE779  LEU786  VAL792 
 PHE793  MET794  SER795  GLU796  ALA797  LYS798  CYS799  TRP800  GLU811  SER814 

> <Gold.Protein.RotatedAtoms>
  152.5444  134.1058  159.8336 H   0  0  0  0  0  0  0  0  0  0  0  0  # atno 6907 bound_to 6896
  151.1130  133.5152  159.2612 H   0  0  0  0  0  0  0  0  0  0  0  0  # atno 6908 bound_to 6896
  151.1863  135.0392  159.8868 H   0  0  0  0  0  0  0  0  0  0  0  0  # atno 6909 bound_to 6896
  145.2559  139.2721  143.4043 H   0  0  0  0  0  0  0  0  0  0  0  0  # atno 7974 bound_to 7965
  155.8176  140.3471  155.5495 H   0  0  0  0  0  0  0  0  0  0  0  0  # atno 8008 bound_to 7997
  155.8375  140.0936  157.1775 H   0  0  0  0  0  0  0  0  0  0  0  0  # atno 8009 bound_to 7997
  154.4004  140.1400  156.3676 H   0  0  0  0  0  0  0  0  0  0  0  0  # atno 8010 bound_to 7997
  139.4826  144.4834  151.8412 H   0  0  0  0  0  0  0  0  0  0  0  0  # atno 10167 bound_to 10162
  157.2644  130.7177  149.6471 H   0  0  0  0  0  0  0  0  0  0  0  0  # atno 10718 bound_to 10713
  153.9293  135.2992  155.3446 H   0  0  0  0  0  0  0  0  0  0  0  0  # atno 10763 bound_to 10752
  154.7535  135.4969  153.9335 H   0  0  0  0  0  0  0  0  0  0  0  0  # atno 10764 bound_to 10752
  153.1100  135.6756  153.9621 H   0  0  0  0  0  0  0  0  0  0  0  0  # atno 10765 bound_to 10752
  140.1041  134.8965  157.1840 H   0  0  0  0  0  0  0  0  0  0  0  0  # atno 11005 bound_to 11000
  146.3289  140.2963  142.8618 LP  0  0  0  0  0  0  0  0  0  0  0  0  # atno 17320 bound_to 7965
  144.9461  140.8130  143.5600 LP  0  0  0  0  0  0  0  0  0  0  0  0  # atno 17321 bound_to 7965
  140.4312  144.2113  150.5888 LP  0  0  0  0  0  0  0  0  0  0  0  0  # atno 17342 bound_to 10162
  140.4778  143.2390  151.8999 LP  0  0  0  0  0  0  0  0  0  0  0  0  # atno 17343 bound_to 10162
  155.9663  130.4387  150.5229 LP  0  0  0  0  0  0  0  0  0  0  0  0  # atno 17370 bound_to 10713
  157.3140  131.0669  151.1980 LP  0  0  0  0  0  0  0  0  0  0  0  0  # atno 17371 bound_to 10713
  140.3179  134.2949  155.7252 LP  0  0  0  0  0  0  0  0  0  0  0  0  # atno 17394 bound_to 11000
  141.2113  133.7691  156.9869 LP  0  0  0  0  0  0  0  0  0  0  0  0  # atno 17395 bound_to 11000

$$$$
