AV-unprocessed.smi:1971|AV-procd|sdf|7966|dock3
  -GOLD-   2272010133D 1   1.00000     0.00000
 Structure written by MMmdl.
 43 44  0  0  0  0  0  0  0  0  1 V2000
  153.1375  142.0986  160.6206 C   0  0  0  0  0  0  0  0  0  0  0  0
  152.2450  142.6362  159.4928 C   0  0  0  0  0  0  0  0  0  0  0  0
  152.0557  141.7204  158.3695 N   0  0  0  0  0  0  0  0  0  0  0  0
  151.1663  142.2996  157.3660 C   0  0  0  0  0  0  0  0  0  0  0  0
  150.9742  141.3572  156.1638 C   0  0  0  0  0  0  0  0  0  0  0  0
  150.4111  140.0587  156.5596 N   0  0  0  0  0  0  0  0  0  0  0  0
  150.2202  139.1508  155.4075 C   0  0  2  0  0  0  0  0  0  0  0  0
  151.5465  138.6531  154.7896 C   0  0  0  0  0  0  0  0  0  0  0  0
  149.3416  139.7430  154.2746 C   0  0  0  0  0  0  0  0  0  0  0  0
  148.5697  138.7188  153.5728 N   0  0  0  0  0  0  0  0  0  0  0  0
  147.2329  138.6195  153.5589 C   0  0  0  0  0  0  0  0  0  0  0  0
  146.4857  139.4017  154.1464 O   0  0  0  0  0  0  0  0  0  0  0  0
  146.8328  137.5647  152.8306 N   0  0  0  0  0  0  0  0  0  0  0  0
  145.5048  137.1463  152.5666 C   0  0  0  0  0  0  0  0  0  0  0  0
  144.5023  137.7231  153.2322 N   0  0  0  0  0  0  0  0  0  0  0  0
  143.2587  137.2013  152.8639 C   0  0  0  0  0  0  0  0  0  0  0  0
  143.3332  136.2190  151.9079 C   0  0  0  0  0  0  0  0  0  0  0  0
  144.9788  135.9061  151.4254 S   0  0  0  0  0  0  0  0  0  0  0  0
  151.2980  139.4891  157.5837 C   0  0  0  0  0  0  0  0  0  0  0  0
  151.4903  140.4361  158.7824 C   0  0  0  0  0  0  0  0  0  0  0  0
  153.3214  142.8733  161.3651 H   0  0  0  0  0  0  0  0  0  0  0  0
  154.1046  141.7741  160.2359 H   0  0  0  0  0  0  0  0  0  0  0  0
  152.6792  141.2562  161.1380 H   0  0  0  0  0  0  0  0  0  0  0  0
  151.2768  142.9284  159.9022 H   0  0  0  0  0  0  0  0  0  0  0  0
  152.7037  143.5545  159.1239 H   0  0  0  0  0  0  0  0  0  0  0  0
  150.1962  142.5276  157.8111 H   0  0  0  0  0  0  0  0  0  0  0  0
  151.5765  143.2465  157.0132 H   0  0  0  0  0  0  0  0  0  0  0  0
  150.3134  141.8601  155.4596 H   0  0  0  0  0  0  0  0  0  0  0  0
  151.9278  141.2122  155.6534 H   0  0  0  0  0  0  0  0  0  0  0  0
  149.6972  138.2627  155.7656 H   0  0  0  0  0  0  0  0  0  0  0  0
  151.3689  138.0910  153.8723 H   0  0  0  0  0  0  0  0  0  0  0  0
  152.0830  137.9806  155.4581 H   0  0  0  0  0  0  0  0  0  0  0  0
  152.2100  139.4827  154.5435 H   0  0  0  0  0  0  0  0  0  0  0  0
  148.6844  140.5154  154.6776 H   0  0  0  0  0  0  0  0  0  0  0  0
  149.9533  140.2680  153.5422 H   0  0  0  0  0  0  0  0  0  0  0  0
  149.1010  138.0231  153.0698 H   0  0  0  0  0  0  0  0  0  0  0  0
  147.5579  137.0028  152.4097 H   0  0  0  0  0  0  0  0  0  0  0  0
  142.3673  137.5884  153.3353 H   0  0  0  0  0  0  0  0  0  0  0  0
  142.5232  135.6628  151.4600 H   0  0  0  0  0  0  0  0  0  0  0  0
  150.8859  138.5589  157.9707 H   0  0  0  0  0  0  0  0  0  0  0  0
  152.2679  139.2465  157.1465 H   0  0  0  0  0  0  0  0  0  0  0  0
  152.1467  139.9502  159.5032 H   0  0  0  0  0  0  0  0  0  0  0  0
  150.5340  140.5907  159.2848 H   0  0  0  0  0  0  0  0  0  0  0  0
  1  2  1  0  0  0  0
  1 21  1  0  0  0  0
  1 22  1  0  0  0  0
  1 23  1  0  0  0  0
  2  3  1  0  0  0  0
  2 24  1  0  0  0  0
  2 25  1  0  0  0  0
  3 20  1  0  0  0  0
  3  4  1  0  0  0  0
  4  5  1  0  0  0  0
  4 26  1  0  0  0  0
  4 27  1  0  0  0  0
  5  6  1  0  0  0  0
  5 28  1  0  0  0  0
  5 29  1  0  0  0  0
  6  7  1  0  0  0  0
  6 19  1  0  0  0  0
  7  8  1  0  0  0  0
  7  9  1  0  0  0  0
  7 30  1  0  0  0  0
  8 31  1  0  0  0  0
  8 32  1  0  0  0  0
  8 33  1  0  0  0  0
  9 10  1  0  0  0  0
  9 34  1  0  0  0  0
  9 35  1  0  0  0  0
 10 11  1  0  0  0  0
 10 36  1  0  0  0  0
 11 12  2  0  0  0  0
 11 13  1  0  0  0  0
 13 14  1  0  0  0  0
 13 37  1  0  0  0  0
 14 18  1  0  0  0  0
 14 15  2  0  0  0  0
 15 16  1  0  0  0  0
 16 17  2  0  0  0  0
 16 38  1  0  0  0  0
 17 18  1  0  0  0  0
 17 39  1  0  0  0  0
 19 20  1  0  0  0  0
 19 40  1  0  0  0  0
 19 41  1  0  0  0  0
 20 42  1  0  0  0  0
 20 43  1  0  0  0  0
M  END
> <s_m_source_file>
AV-unprocessed.smi

> <i_m_source_file_index>
1971

> <i_lp_mmshare_version>
43012

> <i_f3d_flags>
0

> <s_epik_input>
W0NIM11bQ0gyXU4xW0NIMl1bQ0gyXU4oW0NIMl1bQ0gyXTEpW0NASF0oW0NIM10pW0NIMl1bTkhdQyg9TylbTkhdYzJuW2NIXVtjSF1zMg==

> <s_epik_cmdline>
J2VwaWtfcHl0aG9uJywgJy1waCcsICc3LjAnLCAnLXRuJywgJzgnLCAnLW1hJywgJzIwMCcsICctbWV0YWxfYmluZGluZycsICctaW1hZScsICc8aW5maWxlLm1hZT4nLCAnLW9tYWUnLCAnPG91dGZpbGUubWFlPic=

> <r_lp_tautomer_probability>
0.999

> <r_epik_Ionization_Penalty>
2.43994

> <r_epik_Ionization_Penalty_Charging>
0

> <r_epik_Ionization_Penalty_Neutral>
2.43994

> <r_epik_State_Penalty>
1.7682

> <r_epik_Charging_Adjusted_Penalty>
1.7682

> <i_epik_Tot_Q>
0

> <i_epik_Tot_abs_Q>
0

> <r_epik_Metal_State_Penalty>
1.80147

> <b_epik_Metal_Only>
0

> <s_lp_Force_Field>
OPLS_2005

> <r_lp_Energy>
42.0055

> <b_lp_Chiralities_Consistent>
1

> <s_lp_Variant>
AV-unprocessed.smi:1971-5

> <Gold.Version>
5.8.1

> <Gold.Id.Protein>
6NUR|6NUR_protein|mol2

> <Gold.PLP.Fitness>
40.2840

> <Gold.PLP.PLP>
-36.1171

> <Gold.PLP.part.hbond>
-3.0000

> <Gold.PLP.part.metal>
0.0000

> <Gold.PLP.part.buried>
-5.8185

> <Gold.PLP.part.nonpolar>
-29.2932

> <Gold.PLP.part.repulsive>
0.3990

> <Gold.PLP.ligand.clash>
0.0000

> <Gold.PLP.ligand.torsion>
0.4154

> <Gold.PLP.Chemscore.Hbond>
1.6354

> <Gold.PLP.Chemscore.CHOScore>
0.0000

> <Gold.PLP.Chemscore.Metal>
0.0000

> <Gold.Chemscore.Hbonds>
donor molecule, donor type, donor heavy atom, donor atom, acceptor molecule, acceptor atom, score
      L1  H    10    36       P1  7948  0.67
      L1  H    13    37       P1  7948  1.00

> <Gold.PLP.Chemscore.Internal.Correction>
0.0913

> <Gold.Rescore>
     Score         DG    S(hbond)    S(metal)    S(lipo)     H(rot)  DE(clash)    DE(int)     intcor
     14.83     -16.91       1.91        0.00      81.52       1.75       0.18       1.89       ----

> <Gold.Chemscore.Fitness>
14.8329

> <Gold.Chemscore.DG>
-16.9105

> <Gold.Chemscore.ZeroCoef>
-5.4800

> <Gold.Chemscore.Hbond>
1.9060

> <Gold.Chemscore.Metal>
0.0000

> <Gold.Chemscore.Lipo>
81.5178

> <Gold.Chemscore.Internal_Hbond>
0.0000

> <Gold.Chemscore.DEClash>
0.1848

> <Gold.Chemscore.DEInternal>
1.8928

> <Gold.Chemscore.Rot>
1.7473

> <Gold.Chemscore.Internal.Correction>
   9.000000E+99

> <Gold.Chemscore.Hbonds>
donor molecule, donor type, donor heavy atom, donor atom, acceptor molecule, acceptor atom, score
      L1  H    10    36       P1  7948  0.65
      L1  H    13    37       P1  7948  1.00

> <Gold.Chemscore.Hbond.Weighted>
-6.3660

> <Gold.Chemscore.Metal.Weighted>
-0.0000

> <Gold.Chemscore.Lipo.Weighted>
-9.5376

> <Gold.Chemscore.Internal_Hbond.Weighted>
0.0000

> <Gold.Chemscore.DEClash.Weighted>
0.1848

> <Gold.Chemscore.DEInternal.Weighted>
1.8928

> <Gold.Chemscore.Rot.Weighted>
4.4731

> <Gold.Chemscore.Internal.Correction.Weighted>
   9.000000E+99

> <Gold.Protein.RotatedTorsions>
[ 6907 6896 6895 6894 ] final   57.23 input  -60.11 | X-H torsion
[ 7974 7965 7964 7962 ] final  -41.41 input  175.53 | X-H torsion
[ 8008 7997 7996 7995 ] final  150.34 input   59.86 | X-H torsion
[ 10167 10162 10161 10158 ] final  -40.10 input  -65.29 | X-H torsion
[ 10718 10713 10712 10709 ] final  139.05 input   66.30 | X-H torsion
[ 10763 10752 10751 10750 ] final   82.52 input  -60.55 | X-H torsion
[ 11005 11000 10999 10996 ] final -136.51 input  -57.11 | X-H torsion

> <Gold.Protein.ActiveResidues>
 VAL166  LYS551  ARG553  GLY616  TRP617  ASP618  TYR619  PRO620  LYS621  CYS622 
 ASP623  PHE694  ASN695  SER759  ASP760  ASP761  ALA762  ILE779  LEU786  VAL792 
 PHE793  MET794  SER795  GLU796  ALA797  LYS798  CYS799  TRP800  GLU811  SER814 

> <Gold.Protein.RotatedAtoms>
  152.3712  134.6731  160.0175 H   0  0  0  0  0  0  0  0  0  0  0  0  # atno 6907 bound_to 6896
  151.7024  133.3306  159.3278 H   0  0  0  0  0  0  0  0  0  0  0  0  # atno 6908 bound_to 6896
  150.7675  134.6539  159.6348 H   0  0  0  0  0  0  0  0  0  0  0  0  # atno 6909 bound_to 6896
  146.0213  140.6846  142.9177 H   0  0  0  0  0  0  0  0  0  0  0  0  # atno 7974 bound_to 7965
  156.2719  140.2077  156.6001 H   0  0  0  0  0  0  0  0  0  0  0  0  # atno 8008 bound_to 7997
  154.6913  140.0530  157.0390 H   0  0  0  0  0  0  0  0  0  0  0  0  # atno 8009 bound_to 7997
  155.0862  140.3192  155.4590 H   0  0  0  0  0  0  0  0  0  0  0  0  # atno 8010 bound_to 7997
  140.7044  143.3174  151.2876 H   0  0  0  0  0  0  0  0  0  0  0  0  # atno 10167 bound_to 10162
  157.4187  131.1036  151.0377 H   0  0  0  0  0  0  0  0  0  0  0  0  # atno 10718 bound_to 10713
  153.1210  135.4725  154.9196 H   0  0  0  0  0  0  0  0  0  0  0  0  # atno 10763 bound_to 10752
  154.7575  135.3122  154.8443 H   0  0  0  0  0  0  0  0  0  0  0  0  # atno 10764 bound_to 10752
  153.9008  135.6875  153.4809 H   0  0  0  0  0  0  0  0  0  0  0  0  # atno 10765 bound_to 10752
  140.8799  134.1945  157.4598 H   0  0  0  0  0  0  0  0  0  0  0  0  # atno 11005 bound_to 11000
  144.6991  140.3571  143.7171 LP  0  0  0  0  0  0  0  0  0  0  0  0  # atno 17320 bound_to 7965
  145.7188  139.1704  143.2496 LP  0  0  0  0  0  0  0  0  0  0  0  0  # atno 17321 bound_to 7965
  139.6617  144.0177  152.2696 LP  0  0  0  0  0  0  0  0  0  0  0  0  # atno 17342 bound_to 10162
  139.9747  144.6470  150.7956 LP  0  0  0  0  0  0  0  0  0  0  0  0  # atno 17343 bound_to 10162
  157.1315  130.6104  149.5531 LP  0  0  0  0  0  0  0  0  0  0  0  0  # atno 17370 bound_to 10713
  155.9873  130.4912  150.7120 LP  0  0  0  0  0  0  0  0  0  0  0  0  # atno 17371 bound_to 10713
  139.8719  134.9812  156.5107 LP  0  0  0  0  0  0  0  0  0  0  0  0  # atno 17394 bound_to 11000
  140.8474  133.8158  155.9135 LP  0  0  0  0  0  0  0  0  0  0  0  0  # atno 17395 bound_to 11000

$$$$
