AV-unprocessed.smi:1006|AV-procd|sdf|4397|dock1
  -GOLD-   22720 2333D 1   1.00000     0.00000
 Structure written by MMmdl.
 47 49  0  0  0  0  0  0  0  0  3 V2000
  147.8013  132.5278  153.0969 C   0  0  0  0  0  0  0  0  0  0  0  0
  148.8469  133.0020  154.0839 C   0  0  0  0  0  0  0  0  0  0  0  0
  149.4479  132.1292  155.0139 C   0  0  0  0  0  0  0  0  0  0  0  0
  150.4036  132.6866  155.8812 C   0  0  0  0  0  0  0  0  0  0  0  0
  151.0500  131.9015  156.8325 N   0  0  0  0  0  0  0  0  0  0  0  0
  150.7278  133.9935  155.8258 N   0  0  0  0  0  0  0  0  0  0  0  0
  150.1173  134.7685  154.9192 C   0  0  0  0  0  0  0  0  0  0  0  0
  150.5242  136.5035  154.8218 S   0  0  0  0  0  0  0  0  0  0  0  0
  151.1255  136.8729  156.5002 C   0  0  0  0  0  0  0  0  0  0  0  0
  150.7808  138.3073  156.9337 C   0  0  1  0  0  0  0  0  0  0  0  0
  150.8749  138.4032  158.3422 O   0  0  0  0  0  0  0  0  0  0  0  0
  151.7061  139.3480  156.2733 C   0  0  0  0  0  0  0  0  0  0  0  0
  151.2509  140.7303  156.4837 N   0  0  0  0  0  0  0  0  0  0  0  0
  150.4007  141.4858  155.7363 C   0  0  0  0  0  0  0  0  0  0  0  0
  150.2914  142.7013  156.3396 N   0  3  0  0  0  0  0  0  0  0  0  0
  151.0827  142.7236  157.4897 C   0  0  0  0  0  0  0  0  0  0  0  0
  151.2971  143.7279  158.4262 C   0  0  0  0  0  0  0  0  0  0  0  0
  152.1673  143.4338  159.4997 C   0  0  0  0  0  0  0  0  0  0  0  0
  152.4227  144.5092  160.5421 C   0  0  0  0  0  0  0  0  0  0  0  0
  152.7899  142.1633  159.6073 C   0  0  0  0  0  0  0  0  0  0  0  0
  153.7202  141.8561  160.7687 C   0  0  0  0  0  0  0  0  0  0  0  0
  152.5605  141.1558  158.6430 C   0  0  0  0  0  0  0  0  0  0  0  0
  151.7010  141.4618  157.5901 C   0  0  0  0  0  0  0  0  0  0  0  0
  149.1969  134.3126  154.0571 N   0  3  0  0  0  0  0  0  0  0  0  0
  147.7877  131.4392  153.0341 H   0  0  0  0  0  0  0  0  0  0  0  0
  148.0060  132.9217  152.1007 H   0  0  0  0  0  0  0  0  0  0  0  0
  146.8111  132.8648  153.4045 H   0  0  0  0  0  0  0  0  0  0  0  0
  149.1860  131.0816  155.0575 H   0  0  0  0  0  0  0  0  0  0  0  0
  150.8542  130.9153  156.9283 H   0  0  0  0  0  0  0  0  0  0  0  0
  151.7332  132.2949  157.4638 H   0  0  0  0  0  0  0  0  0  0  0  0
  150.7028  136.1548  157.2043 H   0  0  0  0  0  0  0  0  0  0  0  0
  152.2076  136.7374  156.5120 H   0  0  0  0  0  0  0  0  0  0  0  0
  149.7497  138.5258  156.6522 H   0  0  0  0  0  0  0  0  0  0  0  0
  150.1549  137.9270  158.7263 H   0  0  0  0  0  0  0  0  0  0  0  0
  152.7337  139.2463  156.6231 H   0  0  0  0  0  0  0  0  0  0  0  0
  151.7354  139.1842  155.1953 H   0  0  0  0  0  0  0  0  0  0  0  0
  149.9018  141.1770  154.8290 H   0  0  0  0  0  0  0  0  0  0  0  0
  150.8177  144.6922  158.3386 H   0  0  0  0  0  0  0  0  0  0  0  0
  153.4850  144.7498  160.5929 H   0  0  0  0  0  0  0  0  0  0  0  0
  152.0952  144.1733  161.5263 H   0  0  0  0  0  0  0  0  0  0  0  0
  151.8847  145.4281  160.3073 H   0  0  0  0  0  0  0  0  0  0  0  0
  154.1097  140.8393  160.7106 H   0  0  0  0  0  0  0  0  0  0  0  0
  153.1936  141.9564  161.7180 H   0  0  0  0  0  0  0  0  0  0  0  0
  154.5703  142.5387  160.7695 H   0  0  0  0  0  0  0  0  0  0  0  0
  153.0333  140.1891  158.7297 H   0  0  0  0  0  0  0  0  0  0  0  0
  148.7586  134.9411  153.3835 H   0  0  0  0  0  0  0  0  0  0  0  0
  149.7165  143.4577  155.9908 H   0  0  0  0  0  0  0  0  0  0  0  0
  1  2  1  0  0  0  0
  1 25  1  0  0  0  0
  1 26  1  0  0  0  0
  1 27  1  0  0  0  0
  2 24  1  0  0  0  0
  2  3  2  0  0  0  0
  3  4  1  0  0  0  0
  3 28  1  0  0  0  0
  4  5  1  0  0  0  0
  4  6  2  0  0  0  0
  5 29  1  0  0  0  0
  5 30  1  0  0  0  0
  6  7  1  0  0  0  0
  7  8  1  0  0  0  0
  7 24  2  0  0  0  0
  8  9  1  0  0  0  0
  9 10  1  0  0  0  0
  9 31  1  0  0  0  0
  9 32  1  0  0  0  0
 10 11  1  0  0  0  0
 10 12  1  0  0  0  0
 10 33  1  0  0  0  0
 11 34  1  0  0  0  0
 12 13  1  0  0  0  0
 12 35  1  0  0  0  0
 12 36  1  0  0  0  0
 13 23  1  0  0  0  0
 13 14  1  0  0  0  0
 14 15  2  0  0  0  0
 14 37  1  0  0  0  0
 15 16  1  0  0  0  0
 15 47  1  0  0  0  0
 16 23  2  0  0  0  0
 16 17  1  0  0  0  0
 17 18  2  0  0  0  0
 17 38  1  0  0  0  0
 18 19  1  0  0  0  0
 18 20  1  0  0  0  0
 19 39  1  0  0  0  0
 19 40  1  0  0  0  0
 19 41  1  0  0  0  0
 20 21  1  0  0  0  0
 20 22  2  0  0  0  0
 21 42  1  0  0  0  0
 21 43  1  0  0  0  0
 21 44  1  0  0  0  0
 22 23  1  0  0  0  0
 22 45  1  0  0  0  0
 24 46  1  0  0  0  0
M  CHG  1  15   1
M  CHG  1  24   1
M  END
> <s_m_source_file>
AV-unprocessed.smi

> <i_m_source_file_index>
1006

> <i_lp_mmshare_version>
43012

> <i_f3d_flags>
0

> <s_epik_input>
W0NIM11jMVtjSF1jKFtOSDJdKW5jKG4xKVNbQ0gyXVtDQEhdKFtPSF0pW0NIMl1uKFtjSF1uMiljKGMyMylbY0hdYyhbQ0gzXSljKFtjSF0zKVtDSDNd

> <s_epik_cmdline>
J2VwaWtfcHl0aG9uJywgJy1waCcsICc3LjAnLCAnLXRuJywgJzgnLCAnLW1hJywgJzIwMCcsICctbWV0YWxfYmluZGluZycsICctaW1hZScsICc8aW5maWxlLm1hZT4nLCAnLW9tYWUnLCAnPG91dGZpbGUubWFlPic=

> <r_lp_tautomer_probability>
0.999762

> <r_epik_Ionization_Penalty>
1.50932

> <r_epik_Ionization_Penalty_Charging>
1.50929

> <r_epik_Ionization_Penalty_Neutral>
3.48853e-05

> <r_epik_State_Penalty>
1.56619

> <r_epik_Charging_Adjusted_Penalty>
3.07548

> <i_epik_Tot_Q>
2

> <i_epik_Tot_abs_Q>
2

> <r_epik_Metal_State_Penalty>
1.82892

> <b_epik_Metal_Only>
0

> <s_lp_Force_Field>
OPLS_2005

> <r_lp_Energy>
17.0634

> <b_lp_Chiralities_Consistent>
1

> <s_lp_Variant>
AV-unprocessed.smi:1006-8

> <Gold.Version>
5.8.1

> <Gold.Id.Protein>
6NUR|6NUR_protein|mol2

> <Gold.PLP.Fitness>
57.3996

> <Gold.PLP.PLP>
-47.5630

> <Gold.PLP.part.hbond>
-1.9736

> <Gold.PLP.part.metal>
0.0000

> <Gold.PLP.part.buried>
-5.7885

> <Gold.PLP.part.nonpolar>
-40.5311

> <Gold.PLP.part.repulsive>
0.2040

> <Gold.PLP.ligand.clash>
0.0000

> <Gold.PLP.ligand.torsion>
1.1337

> <Gold.PLP.Chemscore.Hbond>
4.0000

> <Gold.PLP.Chemscore.CHOScore>
0.0000

> <Gold.PLP.Chemscore.Metal>
0.0000

> <Gold.Chemscore.Hbonds>
donor molecule, donor type, donor heavy atom, donor atom, acceptor molecule, acceptor atom, score
      L1  H    15    47       P1  8028  2.00
      L1  H    24    46       P1  7948  1.92

> <Gold.PLP.Chemscore.Internal.Correction>
0.1040

> <Gold.Rescore>
     Score         DG    S(hbond)    S(metal)    S(lipo)     H(rot)  DE(clash)    DE(int)     intcor
     16.03     -17.29       1.84        0.00     113.12       2.96       0.02       1.24       ----

> <Gold.Chemscore.Fitness>
16.0257

> <Gold.Chemscore.DG>
-17.2895

> <Gold.Chemscore.ZeroCoef>
-5.4800

> <Gold.Chemscore.Hbond>
1.8417

> <Gold.Chemscore.Metal>
0.0000

> <Gold.Chemscore.Lipo>
113.1220

> <Gold.Chemscore.Internal_Hbond>
0.0000

> <Gold.Chemscore.DEClash>
0.0211

> <Gold.Chemscore.DEInternal>
1.2427

> <Gold.Chemscore.Rot>
2.9599

> <Gold.Chemscore.Internal.Correction>
   9.000000E+99

> <Gold.Chemscore.Hbonds>
donor molecule, donor type, donor heavy atom, donor atom, acceptor molecule, acceptor atom, score
      L1  H    15    47       P1  8028  0.94
      L1  H    24    46       P1  7948  0.45

> <Gold.Chemscore.Hbond.Weighted>
-6.1514

> <Gold.Chemscore.Metal.Weighted>
-0.0000

> <Gold.Chemscore.Lipo.Weighted>
-13.2353

> <Gold.Chemscore.Internal_Hbond.Weighted>
0.0000

> <Gold.Chemscore.DEClash.Weighted>
0.0211

> <Gold.Chemscore.DEInternal.Weighted>
1.2427

> <Gold.Chemscore.Rot.Weighted>
7.5772

> <Gold.Chemscore.Internal.Correction.Weighted>
   9.000000E+99

> <Gold.Protein.RotatedTorsions>
[ 6907 6896 6895 6894 ] final  -95.89 input  -60.11 | X-H torsion
[ 7974 7965 7964 7962 ] final -123.70 input  175.53 | X-H torsion
[ 8008 7997 7996 7995 ] final   65.97 input   59.86 | X-H torsion
[ 10167 10162 10161 10158 ] final  120.26 input  -65.29 | X-H torsion
[ 10718 10713 10712 10709 ] final  -61.96 input   66.30 | X-H torsion
[ 10763 10752 10751 10750 ] final  -28.09 input  -60.55 | X-H torsion
[ 11005 11000 10999 10996 ] final  -75.87 input  -57.11 | X-H torsion

> <Gold.Protein.ActiveResidues>
 VAL166  LYS551  ARG553  GLY616  TRP617  ASP618  TYR619  PRO620  LYS621  CYS622 
 ASP623  PHE694  ASN695  SER759  ASP760  ASP761  ALA762  ILE779  LEU786  VAL792 
 PHE793  MET794  SER795  GLU796  ALA797  LYS798  CYS799  TRP800  GLU811  SER814 

> <Gold.Protein.RotatedAtoms>
  150.6975  134.1587  159.4167 H   0  0  0  0  0  0  0  0  0  0  0  0  # atno 6907 bound_to 6896
  151.9568  135.0140  160.0554 H   0  0  0  0  0  0  0  0  0  0  0  0  # atno 6908 bound_to 6896
  152.1962  133.4773  159.5071 H   0  0  0  0  0  0  0  0  0  0  0  0  # atno 6909 bound_to 6896
  145.0159  140.7946  143.4410 H   0  0  0  0  0  0  0  0  0  0  0  0  # atno 7974 bound_to 7965
  155.6701  140.3497  155.4815 H   0  0  0  0  0  0  0  0  0  0  0  0  # atno 8008 bound_to 7997
  155.9695  140.1153  157.0847 H   0  0  0  0  0  0  0  0  0  0  0  0  # atno 8009 bound_to 7997
  154.4163  140.1160  156.5274 H   0  0  0  0  0  0  0  0  0  0  0  0  # atno 8010 bound_to 7997
  139.5993  144.7052  151.3100 H   0  0  0  0  0  0  0  0  0  0  0  0  # atno 10167 bound_to 10162
  156.0887  130.4204  150.1068 H   0  0  0  0  0  0  0  0  0  0  0  0  # atno 10718 bound_to 10713
  153.7428  135.6931  153.4963 H   0  0  0  0  0  0  0  0  0  0  0  0  # atno 10763 bound_to 10752
  153.2057  135.4420  155.0319 H   0  0  0  0  0  0  0  0  0  0  0  0  # atno 10764 bound_to 10752
  154.8215  135.3424  154.6952 H   0  0  0  0  0  0  0  0  0  0  0  0  # atno 10765 bound_to 10752
  141.1649  133.6962  156.7582 H   0  0  0  0  0  0  0  0  0  0  0  0  # atno 11005 bound_to 11000
  145.1960  139.2276  143.5218 LP  0  0  0  0  0  0  0  0  0  0  0  0  # atno 17320 bound_to 7965
  146.3478  140.1767  142.8589 LP  0  0  0  0  0  0  0  0  0  0  0  0  # atno 17321 bound_to 7965
  140.7237  143.7064  150.7804 LP  0  0  0  0  0  0  0  0  0  0  0  0  # atno 17342 bound_to 10162
  140.0637  143.5130  152.2615 LP  0  0  0  0  0  0  0  0  0  0  0  0  # atno 17343 bound_to 10162
  156.9083  130.9643  151.3566 LP  0  0  0  0  0  0  0  0  0  0  0  0  # atno 17370 bound_to 10713
  157.6029  130.8526  149.8830 LP  0  0  0  0  0  0  0  0  0  0  0  0  # atno 17371 bound_to 10713
  140.2553  134.8508  157.3707 LP  0  0  0  0  0  0  0  0  0  0  0  0  # atno 17394 bound_to 11000
  140.1663  134.4665  155.7861 LP  0  0  0  0  0  0  0  0  0  0  0  0  # atno 17395 bound_to 11000

$$$$
