AV-unprocessed.smi:1353|AV-procd|sdf|5532|dock10
  -GOLD-   22720 5123D 1   1.00000     0.00000
 Structure written by MMmdl.
 39 41  0  0  0  0  0  0  0  0  1 V2000
  154.1888  135.6683  159.7670 O   0  0  0  0  0  0  0  0  0  0  0  0
  153.7132  136.9529  160.1092 C   0  0  0  0  0  0  0  0  0  0  0  0
  154.4385  138.0469  159.3063 C   0  0  0  0  0  0  0  0  0  0  0  0
  153.9435  139.4345  159.6047 C   0  0  0  0  0  0  0  0  0  0  0  0
  153.3883  140.1884  158.6540 N   0  0  0  0  0  0  0  0  0  0  0  0
  153.0893  141.3576  159.3237 C   0  0  0  0  0  0  0  0  0  0  0  0
  152.4995  142.5555  158.8604 C   0  0  0  0  0  0  0  0  0  0  0  0
  152.2907  143.6359  159.7423 C   0  0  0  0  0  0  0  0  0  0  0  0
  152.6673  143.5336  161.0970 C   0  0  0  0  0  0  0  0  0  0  0  0
  153.2538  142.3478  161.5792 C   0  0  0  0  0  0  0  0  0  0  0  0
  153.4602  141.2715  160.6948 C   0  0  0  0  0  0  0  0  0  0  0  0
  153.9962  139.9947  160.8421 N   0  0  0  0  0  0  0  0  0  0  0  0
  154.4964  139.4230  162.0861 C   0  0  0  0  0  0  0  0  0  0  0  0
  155.6805  140.2114  162.6618 C   0  0  0  0  0  0  0  0  0  0  0  0
  155.1960  141.3752  163.3193 O   0  0  0  0  0  0  0  0  0  0  0  0
  155.3551  141.4696  164.6845 C   0  0  0  0  0  0  0  0  0  0  0  0
  155.0586  142.7144  165.2770 C   0  0  0  0  0  0  0  0  0  0  0  0
  155.1939  142.9021  166.6660 C   0  0  0  0  0  0  0  0  0  0  0  0
  155.6288  141.8400  167.4800 C   0  0  0  0  0  0  0  0  0  0  0  0
  155.9261  140.5917  166.9022 C   0  0  0  0  0  0  0  0  0  0  0  0
  155.7907  140.4042  165.5126 C   0  0  0  0  0  0  0  0  0  0  0  0
  155.1295  135.6617  159.8575 H   0  0  0  0  0  0  0  0  0  0  0  0
  152.6344  137.0008  159.9581 H   0  0  0  0  0  0  0  0  0  0  0  0
  153.8919  137.1005  161.1744 H   0  0  0  0  0  0  0  0  0  0  0  0
  155.5005  138.0196  159.5526 H   0  0  0  0  0  0  0  0  0  0  0  0
  154.3761  137.8237  158.2428 H   0  0  0  0  0  0  0  0  0  0  0  0
  152.2089  142.6435  157.8241 H   0  0  0  0  0  0  0  0  0  0  0  0
  151.8405  144.5474  159.3775 H   0  0  0  0  0  0  0  0  0  0  0  0
  152.5057  144.3661  161.7661 H   0  0  0  0  0  0  0  0  0  0  0  0
  153.5447  142.2691  162.6160 H   0  0  0  0  0  0  0  0  0  0  0  0
  153.6828  139.4128  162.8116 H   0  0  0  0  0  0  0  0  0  0  0  0
  154.7621  138.3782  161.9270 H   0  0  0  0  0  0  0  0  0  0  0  0
  156.2312  139.5837  163.3638 H   0  0  0  0  0  0  0  0  0  0  0  0
  156.3621  140.4833  161.8568 H   0  0  0  0  0  0  0  0  0  0  0  0
  154.7256  143.5352  164.6586 H   0  0  0  0  0  0  0  0  0  0  0  0
  154.9647  143.8612  167.1061 H   0  0  0  0  0  0  0  0  0  0  0  0
  155.7336  141.9823  168.5455 H   0  0  0  0  0  0  0  0  0  0  0  0
  156.2592  139.7753  167.5258 H   0  0  0  0  0  0  0  0  0  0  0  0
  156.0263  139.4325  165.1065 H   0  0  0  0  0  0  0  0  0  0  0  0
  1  2  1  0  0  0  0
  1 22  1  0  0  0  0
  2  3  1  0  0  0  0
  2 23  1  0  0  0  0
  2 24  1  0  0  0  0
  3  4  1  0  0  0  0
  3 25  1  0  0  0  0
  3 26  1  0  0  0  0
  4 12  1  0  0  0  0
  4  5  2  0  0  0  0
  5  6  1  0  0  0  0
  6 11  2  0  0  0  0
  6  7  1  0  0  0  0
  7  8  2  0  0  0  0
  7 27  1  0  0  0  0
  8  9  1  0  0  0  0
  8 28  1  0  0  0  0
  9 10  2  0  0  0  0
  9 29  1  0  0  0  0
 10 11  1  0  0  0  0
 10 30  1  0  0  0  0
 11 12  1  0  0  0  0
 12 13  1  0  0  0  0
 13 14  1  0  0  0  0
 13 31  1  0  0  0  0
 13 32  1  0  0  0  0
 14 15  1  0  0  0  0
 14 33  1  0  0  0  0
 14 34  1  0  0  0  0
 15 16  1  0  0  0  0
 16 21  1  0  0  0  0
 16 17  2  0  0  0  0
 17 18  1  0  0  0  0
 17 35  1  0  0  0  0
 18 19  2  0  0  0  0
 18 36  1  0  0  0  0
 19 20  1  0  0  0  0
 19 37  1  0  0  0  0
 20 21  2  0  0  0  0
 20 38  1  0  0  0  0
 21 39  1  0  0  0  0
M  END
> <s_m_source_file>
AV-unprocessed.smi

> <i_m_source_file_index>
1353

> <i_lp_mmshare_version>
43012

> <i_f3d_flags>
0

> <s_epik_input>
W2NIXTFbY0hdW2NIXVtjSF1jKGMxMiluKGMobjIpW0NIMl1bQ0gyXVtPSF0pW0NIMl1bQ0gyXU9jM1tjSF1bY0hdW2NIXVtjSF1bY0hdMw==

> <s_epik_cmdline>
J2VwaWtfcHl0aG9uJywgJy1waCcsICc3LjAnLCAnLXRuJywgJzgnLCAnLW1hJywgJzIwMCcsICctbWV0YWxfYmluZGluZycsICctaW1hZScsICc8aW5maWxlLm1hZT4nLCAnLW9tYWUnLCAnPG91dGZpbGUubWFlPic=

> <r_lp_tautomer_probability>
1

> <r_epik_Ionization_Penalty>
0.230562

> <r_epik_Ionization_Penalty_Charging>
0

> <r_epik_Ionization_Penalty_Neutral>
0.230562

> <r_epik_State_Penalty>
0.221203

> <r_epik_Charging_Adjusted_Penalty>
0.221203

> <i_epik_Tot_Q>
0

> <i_epik_Tot_abs_Q>
0

> <r_epik_Metal_State_Penalty>
0.000268091

> <b_epik_Metal_Only>
0

> <s_lp_Force_Field>
OPLS_2005

> <r_lp_Energy>
15.7907

> <b_lp_Chiralities_Consistent>
1

> <s_lp_Variant>
AV-unprocessed.smi:1353-1

> <Gold.Version>
5.8.1

> <Gold.Id.Protein>
6NUR|6NUR_protein|mol2

> <Gold.PLP.Fitness>
50.9632

> <Gold.PLP.PLP>
-46.0691

> <Gold.PLP.part.hbond>
-3.0000

> <Gold.PLP.part.metal>
0.0000

> <Gold.PLP.part.buried>
-4.0131

> <Gold.PLP.part.nonpolar>
-37.9114

> <Gold.PLP.part.repulsive>
0.0000

> <Gold.PLP.ligand.clash>
0.0000

> <Gold.PLP.ligand.torsion>
0.5438

> <Gold.PLP.Chemscore.Hbond>
1.9760

> <Gold.PLP.Chemscore.CHOScore>
0.0000

> <Gold.PLP.Chemscore.Metal>
0.0000

> <Gold.Chemscore.Hbonds>
donor molecule, donor type, donor heavy atom, donor atom, acceptor molecule, acceptor atom, score
      P1  H  6896  6908       L1     1  0.99
      P1  H  7997  8010       L1     5  0.96

> <Gold.PLP.Chemscore.Internal.Correction>
0.0538

> <Gold.Rescore>
     Score         DG    S(hbond)    S(metal)    S(lipo)     H(rot)  DE(clash)    DE(int)     intcor
     17.50     -20.95       1.65        0.00     135.55       2.31       1.54       1.91       ----

> <Gold.Chemscore.Fitness>
17.4973

> <Gold.Chemscore.DG>
-20.9467

> <Gold.Chemscore.ZeroCoef>
-5.4800

> <Gold.Chemscore.Hbond>
1.6529

> <Gold.Chemscore.Metal>
0.0000

> <Gold.Chemscore.Lipo>
135.5471

> <Gold.Chemscore.Internal_Hbond>
0.0000

> <Gold.Chemscore.DEClash>
1.5367

> <Gold.Chemscore.DEInternal>
1.9128

> <Gold.Chemscore.Rot>
2.3098

> <Gold.Chemscore.Internal.Correction>
   9.000000E+99

> <Gold.Chemscore.Hbonds>
donor molecule, donor type, donor heavy atom, donor atom, acceptor molecule, acceptor atom, score
      P1  H  6896  6908       L1     1  0.41
      P1  H  7997  8010       L1     5  0.39

> <Gold.Chemscore.Hbond.Weighted>
-5.5208

> <Gold.Chemscore.Metal.Weighted>
-0.0000

> <Gold.Chemscore.Lipo.Weighted>
-15.8590

> <Gold.Chemscore.Internal_Hbond.Weighted>
0.0000

> <Gold.Chemscore.DEClash.Weighted>
1.5367

> <Gold.Chemscore.DEInternal.Weighted>
1.9128

> <Gold.Chemscore.Rot.Weighted>
5.9131

> <Gold.Chemscore.Internal.Correction.Weighted>
   9.000000E+99

> <Gold.Protein.RotatedTorsions>
[ 6907 6896 6895 6894 ] final  -46.83 input  -60.11 | X-H torsion
[ 7974 7965 7964 7962 ] final -125.66 input  175.53 | X-H torsion
[ 8008 7997 7996 7995 ] final   28.10 input   59.86 | X-H torsion
[ 10167 10162 10161 10158 ] final   17.63 input  -65.29 | X-H torsion
[ 10718 10713 10712 10709 ] final  -60.23 input   66.30 | X-H torsion
[ 10763 10752 10751 10750 ] final   36.80 input  -60.55 | X-H torsion
[ 11005 11000 10999 10996 ] final   -9.66 input  -57.11 | X-H torsion

> <Gold.Protein.ActiveResidues>
 VAL166  LYS551  ARG553  GLY616  TRP617  ASP618  TYR619  PRO620  LYS621  CYS622 
 ASP623  PHE694  ASN695  SER759  ASP760  ASP761  ALA762  ILE779  LEU786  VAL792 
 PHE793  MET794  SER795  GLU796  ALA797  LYS798  CYS799  TRP800  GLU811  SER814 

> <Gold.Protein.RotatedAtoms>
  150.9071  134.8486  159.7399 H   0  0  0  0  0  0  0  0  0  0  0  0  # atno 6907 bound_to 6896
  152.4924  134.4415  159.9555 H   0  0  0  0  0  0  0  0  0  0  0  0  # atno 6908 bound_to 6896
  151.4461  133.3591  159.2824 H   0  0  0  0  0  0  0  0  0  0  0  0  # atno 6909 bound_to 6896
  144.9953  140.7770  143.4529 H   0  0  0  0  0  0  0  0  0  0  0  0  # atno 7974 bound_to 7965
  155.0533  140.3182  155.4684 H   0  0  0  0  0  0  0  0  0  0  0  0  # atno 8008 bound_to 7997
  156.2829  140.2142  156.5603 H   0  0  0  0  0  0  0  0  0  0  0  0  # atno 8009 bound_to 7997
  154.7192  140.0491  157.0611 H   0  0  0  0  0  0  0  0  0  0  0  0  # atno 8010 bound_to 7997
  140.5712  143.9158  150.6714 H   0  0  0  0  0  0  0  0  0  0  0  0  # atno 10167 bound_to 10162
  156.1005  130.4187  150.0825 H   0  0  0  0  0  0  0  0  0  0  0  0  # atno 10718 bound_to 10713
  153.0062  135.6296  154.2042 H   0  0  0  0  0  0  0  0  0  0  0  0  # atno 10763 bound_to 10752
  154.1786  135.2814  155.3061 H   0  0  0  0  0  0  0  0  0  0  0  0  # atno 10764 bound_to 10752
  154.5852  135.5635  153.7284 H   0  0  0  0  0  0  0  0  0  0  0  0  # atno 10765 bound_to 10752
  140.7365  133.8706  155.8934 H   0  0  0  0  0  0  0  0  0  0  0  0  # atno 11005 bound_to 11000
  145.2228  139.2151  143.5084 LP  0  0  0  0  0  0  0  0  0  0  0  0  # atno 17320 bound_to 7965
  146.3440  140.2090  142.8590 LP  0  0  0  0  0  0  0  0  0  0  0  0  # atno 17321 bound_to 7965
  140.2633  143.3508  152.1303 LP  0  0  0  0  0  0  0  0  0  0  0  0  # atno 17342 bound_to 10162
  139.5118  144.6907  151.5767 LP  0  0  0  0  0  0  0  0  0  0  0  0  # atno 17343 bound_to 10162
  156.8813  130.9557  151.3599 LP  0  0  0  0  0  0  0  0  0  0  0  0  # atno 17370 bound_to 10713
  157.6174  130.8629  149.9052 LP  0  0  0  0  0  0  0  0  0  0  0  0  # atno 17371 bound_to 10713
  140.9875  134.1323  157.4439 LP  0  0  0  0  0  0  0  0  0  0  0  0  # atno 17394 bound_to 11000
  139.8815  135.0030  156.6160 LP  0  0  0  0  0  0  0  0  0  0  0  0  # atno 17395 bound_to 11000

$$$$
