AV-unprocessed.smi:3170|AV-procd|sdf|12108|dock4
  -GOLD-   2272017543D 1   1.00000     0.00000
 Structure written by MMmdl.
 36 37  0  0  0  0  0  0  0  0  2 V2000
  145.9502  135.8970  155.2791 O   0  0  0  0  0  0  0  0  0  0  0  0
  146.8999  135.9275  154.4961 C   0  0  0  0  0  0  0  0  0  0  0  0
  147.1001  135.0233  153.5272 N   0  0  0  0  0  0  0  0  0  0  0  0
  146.2261  133.8874  153.2600 C   0  0  0  0  0  0  0  0  0  0  0  0
  146.6964  133.0881  152.0334 C   0  0  0  0  0  0  0  0  0  0  0  0
  145.6401  132.9717  151.0275 N   0  0  0  0  0  0  0  0  0  0  0  0
  145.6768  132.2525  149.8608 C   0  0  0  0  0  0  0  0  0  0  0  0
  144.4675  132.4474  149.2443 C   0  0  0  0  0  0  0  0  0  0  0  0
  143.7455  133.2773  150.0599 N   0  3  0  0  0  0  0  0  0  0  0  0
  144.4610  133.5958  151.1435 C   0  0  0  0  0  0  0  0  0  0  0  0
  147.8586  136.8635  154.5126 N   0  0  0  0  0  0  0  0  0  0  0  0
  147.9221  137.9769  155.4533 C   0  0  0  0  0  0  0  0  0  0  0  0
  148.6719  139.1887  154.8677 C   0  0  1  0  0  0  0  0  0  0  0  0
  148.4708  140.4882  155.6223 C   0  0  0  0  0  0  0  0  0  0  0  0
  149.6542  141.3180  155.1343 C   0  0  0  0  0  0  0  0  0  0  0  0
  150.7017  140.3868  154.8777 O   0  0  0  0  0  0  0  0  0  0  0  0
  150.1938  139.0560  154.9106 C   0  0  0  0  0  0  0  0  0  0  0  0
  147.9078  135.1318  152.9313 H   0  0  0  0  0  0  0  0  0  0  0  0
  146.1753  133.2449  154.1409 H   0  0  0  0  0  0  0  0  0  0  0  0
  145.2173  134.2658  153.0939 H   0  0  0  0  0  0  0  0  0  0  0  0
  147.5555  133.5698  151.5647 H   0  0  0  0  0  0  0  0  0  0  0  0
  147.0073  132.0805  152.3143 H   0  0  0  0  0  0  0  0  0  0  0  0
  146.5379  131.6713  149.5637 H   0  0  0  0  0  0  0  0  0  0  0  0
  144.0773  132.0682  148.3111 H   0  0  0  0  0  0  0  0  0  0  0  0
  144.1484  134.2324  151.9523 H   0  0  0  0  0  0  0  0  0  0  0  0
  148.5982  136.8032  153.8281 H   0  0  0  0  0  0  0  0  0  0  0  0
  146.9008  138.2566  155.7137 H   0  0  0  0  0  0  0  0  0  0  0  0
  148.3970  137.6519  156.3806 H   0  0  0  0  0  0  0  0  0  0  0  0
  148.3715  139.3398  153.8295 H   0  0  0  0  0  0  0  0  0  0  0  0
  147.5099  140.9612  155.4178 H   0  0  0  0  0  0  0  0  0  0  0  0
  148.5492  140.3216  156.6977 H   0  0  0  0  0  0  0  0  0  0  0  0
  149.4044  141.8238  154.2010 H   0  0  0  0  0  0  0  0  0  0  0  0
  149.9602  142.0738  155.8580 H   0  0  0  0  0  0  0  0  0  0  0  0
  150.5167  138.5904  155.8429 H   0  0  0  0  0  0  0  0  0  0  0  0
  150.5832  138.4609  154.0844 H   0  0  0  0  0  0  0  0  0  0  0  0
  142.8064  133.6051  149.8721 H   0  0  0  0  0  0  0  0  0  0  0  0
  1  2  2  0  0  0  0
  2  3  1  0  0  0  0
  2 11  1  0  0  0  0
  3  4  1  0  0  0  0
  3 18  1  0  0  0  0
  4  5  1  0  0  0  0
  4 19  1  0  0  0  0
  4 20  1  0  0  0  0
  5  6  1  0  0  0  0
  5 21  1  0  0  0  0
  5 22  1  0  0  0  0
  6 10  1  0  0  0  0
  6  7  1  0  0  0  0
  7  8  2  0  0  0  0
  7 23  1  0  0  0  0
  8  9  1  0  0  0  0
  8 24  1  0  0  0  0
  9 10  2  0  0  0  0
  9 36  1  0  0  0  0
 10 25  1  0  0  0  0
 11 12  1  0  0  0  0
 11 26  1  0  0  0  0
 12 13  1  0  0  0  0
 12 27  1  0  0  0  0
 12 28  1  0  0  0  0
 13 17  1  0  0  0  0
 13 14  1  0  0  0  0
 13 29  1  0  0  0  0
 14 15  1  0  0  0  0
 14 30  1  0  0  0  0
 14 31  1  0  0  0  0
 15 16  1  0  0  0  0
 15 32  1  0  0  0  0
 15 33  1  0  0  0  0
 16 17  1  0  0  0  0
 17 34  1  0  0  0  0
 17 35  1  0  0  0  0
M  CHG  1   9   1
M  END
> <s_m_source_file>
AV-unprocessed.smi

> <i_m_source_file_index>
3170

> <i_lp_mmshare_version>
43012

> <i_f3d_flags>
0

> <s_epik_input>
W0NIMl0xT1tDSDJdW0NIMl1bQ0BIXTFbQ0gyXVtOSF1DKD1PKVtOSF1bQ0gyXVtDSDJdbjJbY0hdW2NIXW5bY0hdMg==

> <s_epik_cmdline>
J2VwaWtfcHl0aG9uJywgJy1waCcsICc3LjAnLCAnLXRuJywgJzgnLCAnLW1hJywgJzIwMCcsICctbWV0YWxfYmluZGluZycsICctaW1hZScsICc8aW5maWxlLm1hZT4nLCAnLW9tYWUnLCAnPG91dGZpbGUubWFlPic=

> <r_lp_tautomer_probability>
1

> <r_epik_Ionization_Penalty>
0.255699

> <r_epik_Ionization_Penalty_Charging>
0

> <r_epik_Ionization_Penalty_Neutral>
0.255699

> <r_epik_State_Penalty>
0.247169

> <r_epik_Charging_Adjusted_Penalty>
0.247169

> <i_epik_Tot_Q>
1

> <i_epik_Tot_abs_Q>
1

> <r_epik_Metal_State_Penalty>
0.536793

> <b_epik_Metal_Only>
0

> <s_lp_Force_Field>
OPLS_2005

> <r_lp_Energy>
18.8209

> <b_lp_Chiralities_Consistent>
1

> <s_lp_Variant>
AV-unprocessed.smi:3170-2

> <Gold.Version>
5.8.1

> <Gold.Id.Protein>
6NUR|6NUR_protein|mol2

> <Gold.PLP.Fitness>
43.1856

> <Gold.PLP.PLP>
-27.6308

> <Gold.PLP.part.hbond>
-3.9193

> <Gold.PLP.part.metal>
0.0000

> <Gold.PLP.part.buried>
-3.7072

> <Gold.PLP.part.nonpolar>
-19.9186

> <Gold.PLP.part.repulsive>
0.1709

> <Gold.PLP.ligand.clash>
0.0000

> <Gold.PLP.ligand.torsion>
0.7296

> <Gold.PLP.Chemscore.Hbond>
4.8480

> <Gold.PLP.Chemscore.CHOScore>
0.8179

> <Gold.PLP.Chemscore.Metal>
0.0000

> <Gold.Chemscore.Hbonds>
donor molecule, donor type, donor heavy atom, donor atom, acceptor molecule, acceptor atom, score
      L1  H     3    18       P1  7948  1.00
      L1  H     9    36       P1 10186  2.00
      L1  H    11    26       P1  7948  0.76
      P1  H  7989  7998       L1    16  1.00
      L1  C     7    23       P1 10747  0.71

> <Gold.PLP.Chemscore.Internal.Correction>
0.0163

> <Gold.Rescore>
     Score         DG    S(hbond)    S(metal)    S(lipo)     H(rot)  DE(clash)    DE(int)     intcor
     18.60     -19.41       3.81        0.00      61.11       2.33       0.06       0.75       ----

> <Gold.Chemscore.Fitness>
18.5960

> <Gold.Chemscore.DG>
-19.4052

> <Gold.Chemscore.ZeroCoef>
-5.4800

> <Gold.Chemscore.Hbond>
3.8134

> <Gold.Chemscore.Metal>
0.0000

> <Gold.Chemscore.Lipo>
61.1127

> <Gold.Chemscore.Internal_Hbond>
0.0000

> <Gold.Chemscore.DEClash>
0.0563

> <Gold.Chemscore.DEInternal>
0.7529

> <Gold.Chemscore.Rot>
2.3288

> <Gold.Chemscore.Internal.Correction>
   9.000000E+99

> <Gold.Chemscore.Hbonds>
donor molecule, donor type, donor heavy atom, donor atom, acceptor molecule, acceptor atom, score
      L1  H     3    18       P1  7948  0.94
      L1  H     9    36       P1 10186  0.96
      L1  H    11    26       P1  7948  0.72
      P1  H  7989  7998       L1    16  0.71

> <Gold.Chemscore.Hbond.Weighted>
-12.7367

> <Gold.Chemscore.Metal.Weighted>
-0.0000

> <Gold.Chemscore.Lipo.Weighted>
-7.1502

> <Gold.Chemscore.Internal_Hbond.Weighted>
0.0000

> <Gold.Chemscore.DEClash.Weighted>
0.0563

> <Gold.Chemscore.DEInternal.Weighted>
0.7529

> <Gold.Chemscore.Rot.Weighted>
5.9617

> <Gold.Chemscore.Internal.Correction.Weighted>
   9.000000E+99

> <Gold.Protein.RotatedTorsions>
[ 6907 6896 6895 6894 ] final   -3.53 input  -60.11 | X-H torsion
[ 7974 7965 7964 7962 ] final -165.05 input  175.53 | X-H torsion
[ 8008 7997 7996 7995 ] final  113.08 input   59.86 | X-H torsion
[ 10167 10162 10161 10158 ] final  -29.57 input  -65.29 | X-H torsion
[ 10718 10713 10712 10709 ] final -122.02 input   66.30 | X-H torsion
[ 10763 10752 10751 10750 ] final  -65.67 input  -60.55 | X-H torsion
[ 11005 11000 10999 10996 ] final  -29.59 input  -57.11 | X-H torsion

> <Gold.Protein.ActiveResidues>
 VAL166  LYS551  ARG553  GLY616  TRP617  ASP618  TYR619  PRO620  LYS621  CYS622 
 ASP623  PHE694  ASN695  SER759  ASP760  ASP761  ALA762  ILE779  LEU786  VAL792 
 PHE793  MET794  SER795  GLU796  ALA797  LYS798  CYS799  TRP800  GLU811  SER814 

> <Gold.Protein.RotatedAtoms>
  151.5123  135.1065  159.9856 H   0  0  0  0  0  0  0  0  0  0  0  0  # atno 6907 bound_to 6896
  152.4656  133.7912  159.6913 H   0  0  0  0  0  0  0  0  0  0  0  0  # atno 6908 bound_to 6896
  150.8639  133.7540  159.3009 H   0  0  0  0  0  0  0  0  0  0  0  0  # atno 6909 bound_to 6896
  144.7280  140.2870  143.6226 H   0  0  0  0  0  0  0  0  0  0  0  0  # atno 7974 bound_to 7965
  156.2235  140.2987  156.0009 H   0  0  0  0  0  0  0  0  0  0  0  0  # atno 8008 bound_to 7997
  155.2420  140.0422  157.2993 H   0  0  0  0  0  0  0  0  0  0  0  0  # atno 8009 bound_to 7997
  154.5877  140.2393  155.7972 H   0  0  0  0  0  0  0  0  0  0  0  0  # atno 8010 bound_to 7997
  140.7259  143.3918  151.1416 H   0  0  0  0  0  0  0  0  0  0  0  0  # atno 10167 bound_to 10162
  156.1384  130.6448  150.9733 H   0  0  0  0  0  0  0  0  0  0  0  0  # atno 10718 bound_to 10713
  154.3484  135.6141  153.5631 H   0  0  0  0  0  0  0  0  0  0  0  0  # atno 10763 bound_to 10752
  152.9799  135.5786  154.4771 H   0  0  0  0  0  0  0  0  0  0  0  0  # atno 10764 bound_to 10752
  154.4488  135.2852  155.1773 H   0  0  0  0  0  0  0  0  0  0  0  0  # atno 10765 bound_to 10752
  140.9310  133.7338  156.0936 H   0  0  0  0  0  0  0  0  0  0  0  0  # atno 11005 bound_to 11000
  145.7892  139.1920  143.2112 LP  0  0  0  0  0  0  0  0  0  0  0  0  # atno 17320 bound_to 7965
  146.0770  140.7807  142.9660 LP  0  0  0  0  0  0  0  0  0  0  0  0  # atno 17321 bound_to 7965
  139.7524  143.8758  152.3080 LP  0  0  0  0  0  0  0  0  0  0  0  0  # atno 17342 bound_to 10162
  139.8616  144.7114  150.9093 LP  0  0  0  0  0  0  0  0  0  0  0  0  # atno 17343 bound_to 10162
  157.6553  131.0890  150.7960 LP  0  0  0  0  0  0  0  0  0  0  0  0  # atno 17370 bound_to 10713
  156.8038  130.4930  149.5366 LP  0  0  0  0  0  0  0  0  0  0  0  0  # atno 17371 bound_to 10713
  140.7863  134.3669  157.5475 LP  0  0  0  0  0  0  0  0  0  0  0  0  # atno 17394 bound_to 11000
  139.8796  134.9112  156.3032 LP  0  0  0  0  0  0  0  0  0  0  0  0  # atno 17395 bound_to 11000

$$$$
