AV-unprocessed.smi:171|AV-procd|sdf|1415|dock8
  -GOLD-   2262019183D 1   1.00000     0.00000
 Structure written by MMmdl.
 56 59  0  0  0  0  0  0  0  0  1 V2000
  153.0978  142.3566  159.8467 C   0  0  0  0  0  0  0  0  0  0  0  0
  152.2667  142.2207  158.5611 C   0  0  0  0  0  0  0  0  0  0  0  0
  151.2016  143.3267  158.4991 C   0  0  0  0  0  0  0  0  0  0  0  0
  151.6128  140.8294  158.3906 C   0  0  0  0  0  0  0  0  0  0  0  0
  150.5954  140.7103  157.2149 C   0  0  1  0  0  0  0  0  0  0  0  0
  151.2019  140.2878  155.8530 C   0  0  0  0  0  0  0  0  0  0  0  0
  152.3789  140.5209  155.5867 O   0  0  0  0  0  0  0  0  0  0  0  0
  150.4008  139.6638  154.9706 N   0  0  0  0  0  0  0  0  0  0  0  0
  149.0024  139.2883  155.1943 C   0  0  0  0  0  0  0  0  0  0  0  0
  148.4090  139.8569  156.5008 C   0  0  0  0  0  0  0  0  0  0  0  0
  149.4156  139.8958  157.5588 N   0  0  0  0  0  0  0  0  0  0  0  0
  149.5592  138.6966  158.1862 C   0  0  0  0  0  0  0  0  0  0  0  0
  150.7920  138.1544  158.3743 N   0  0  0  0  0  0  0  0  0  0  0  0
  150.9235  136.9713  158.9800 C   0  0  0  0  0  0  0  0  0  0  0  0
  149.9716  136.1753  159.4697 N   0  0  0  0  0  0  0  0  0  0  0  0
  148.7315  136.7141  159.2872 C   0  0  0  0  0  0  0  0  0  0  0  0
  148.4401  137.9539  158.6530 C   0  0  0  0  0  0  0  0  0  0  0  0
  147.0685  138.1674  158.6381 N   0  0  0  0  0  0  0  0  0  0  0  0
  146.5768  137.1131  159.2297 C   0  0  0  0  0  0  0  0  0  0  0  0
  147.5065  136.2011  159.6830 N   0  0  0  0  0  0  0  0  0  0  0  0
  147.2577  134.9360  160.3665 C   0  0  0  0  0  0  0  0  0  0  0  0
  146.5338  135.0353  161.7393 C   0  0  1  0  0  0  0  0  0  0  0  0
  147.3393  135.8106  162.6110 O   0  0  0  0  0  0  0  0  0  0  0  0
  145.1947  135.7521  161.6183 C   0  0  0  0  0  0  0  0  0  0  0  0
  144.4361  135.2597  162.8405 C   0  0  0  0  0  0  0  0  0  0  0  0
  144.7969  133.8917  162.9029 O   0  0  0  0  0  0  0  0  0  0  0  0
  146.1529  133.7233  162.4884 C   0  0  1  0  0  0  0  0  0  0  0  0
  146.1776  132.4150  161.6847 C   0  0  0  0  0  0  0  0  0  0  0  0
  152.4943  142.1553  160.7323 H   0  0  0  0  0  0  0  0  0  0  0  0
  153.5051  143.3630  159.9456 H   0  0  0  0  0  0  0  0  0  0  0  0
  153.9436  141.6698  159.8502 H   0  0  0  0  0  0  0  0  0  0  0  0
  152.9382  142.3795  157.7165 H   0  0  0  0  0  0  0  0  0  0  0  0
  150.4851  143.2318  159.3157 H   0  0  0  0  0  0  0  0  0  0  0  0
  150.6453  143.2886  157.5621 H   0  0  0  0  0  0  0  0  0  0  0  0
  151.6553  144.3159  158.5682 H   0  0  0  0  0  0  0  0  0  0  0  0
  152.3839  140.0612  158.3139 H   0  0  0  0  0  0  0  0  0  0  0  0
  151.0998  140.6182  159.3296 H   0  0  0  0  0  0  0  0  0  0  0  0
  150.1932  141.7102  157.0467 H   0  0  0  0  0  0  0  0  0  0  0  0
  150.8027  139.4015  154.0822 H   0  0  0  0  0  0  0  0  0  0  0  0
  148.3988  139.5896  154.3381 H   0  0  0  0  0  0  0  0  0  0  0  0
  148.9687  138.1990  155.2301 H   0  0  0  0  0  0  0  0  0  0  0  0
  148.0673  140.8785  156.3283 H   0  0  0  0  0  0  0  0  0  0  0  0
  147.5211  139.2944  156.7923 H   0  0  0  0  0  0  0  0  0  0  0  0
  151.9363  136.6121  159.0890 H   0  0  0  0  0  0  0  0  0  0  0  0
  145.5120  136.9801  159.3488 H   0  0  0  0  0  0  0  0  0  0  0  0
  146.6755  134.3084  159.6901 H   0  0  0  0  0  0  0  0  0  0  0  0
  148.2108  134.4221  160.4930 H   0  0  0  0  0  0  0  0  0  0  0  0
  146.8712  136.6034  162.8240 H   0  0  0  0  0  0  0  0  0  0  0  0
  145.2789  136.8388  161.5748 H   0  0  0  0  0  0  0  0  0  0  0  0
  144.6706  135.4241  160.7194 H   0  0  0  0  0  0  0  0  0  0  0  0
  144.7709  135.7686  163.7456 H   0  0  0  0  0  0  0  0  0  0  0  0
  143.3573  135.3874  162.7495 H   0  0  0  0  0  0  0  0  0  0  0  0
  146.7696  133.5941  163.3795 H   0  0  0  0  0  0  0  0  0  0  0  0
  147.1955  132.0941  161.4742 H   0  0  0  0  0  0  0  0  0  0  0  0
  145.6378  132.5087  160.7423 H   0  0  0  0  0  0  0  0  0  0  0  0
  145.7107  131.6093  162.2515 H   0  0  0  0  0  0  0  0  0  0  0  0
  1  2  1  0  0  0  0
  1 29  1  0  0  0  0
  1 30  1  0  0  0  0
  1 31  1  0  0  0  0
  2  3  1  0  0  0  0
  2  4  1  0  0  0  0
  2 32  1  0  0  0  0
  3 33  1  0  0  0  0
  3 34  1  0  0  0  0
  3 35  1  0  0  0  0
  4  5  1  0  0  0  0
  4 36  1  0  0  0  0
  4 37  1  0  0  0  0
  5 11  1  0  0  0  0
  5  6  1  0  0  0  0
  5 38  1  0  0  0  0
  6  7  2  0  0  0  0
  6  8  1  0  0  0  0
  8  9  1  0  0  0  0
  8 39  1  0  0  0  0
  9 10  1  0  0  0  0
  9 40  1  0  0  0  0
  9 41  1  0  0  0  0
 10 11  1  0  0  0  0
 10 42  1  0  0  0  0
 10 43  1  0  0  0  0
 11 12  1  0  0  0  0
 12 17  1  0  0  0  0
 12 13  2  0  0  0  0
 13 14  1  0  0  0  0
 14 15  2  0  0  0  0
 14 44  1  0  0  0  0
 15 16  1  0  0  0  0
 16 20  1  0  0  0  0
 16 17  2  0  0  0  0
 17 18  1  0  0  0  0
 18 19  2  0  0  0  0
 19 20  1  0  0  0  0
 19 45  1  0  0  0  0
 20 21  1  0  0  0  0
 21 22  1  0  0  0  0
 21 46  1  0  0  0  0
 21 47  1  0  0  0  0
 22 27  1  0  0  0  0
 22 23  1  0  0  0  0
 22 24  1  0  0  0  0
 23 48  1  0  0  0  0
 24 25  1  0  0  0  0
 24 49  1  0  0  0  0
 24 50  1  0  0  0  0
 25 26  1  0  0  0  0
 25 51  1  0  0  0  0
 25 52  1  0  0  0  0
 26 27  1  0  0  0  0
 27 28  1  0  0  0  0
 27 53  1  0  0  0  0
 28 54  1  0  0  0  0
 28 55  1  0  0  0  0
 28 56  1  0  0  0  0
M  END
> <s_m_source_file>
AV-unprocessed.smi

> <i_m_source_file_index>
171

> <i_lp_mmshare_version>
43012

> <i_f3d_flags>
0

> <s_epik_input>
W0NIM11bQ0hdKFtDSDNdKVtDSDJdW0NAQEhdMUMoPU8pW05IXVtDSDJdW0NIMl1OMWMobltjSF1uMiljKGMyMyluW2NIXW4zW0NIMl1bQ0BAXTQoW09IXSlbQ0gyXVtDSDJdT1tDQEhdNFtDSDNd

> <s_epik_cmdline>
J2VwaWtfcHl0aG9uJywgJy1waCcsICc3LjAnLCAnLXRuJywgJzgnLCAnLW1hJywgJzIwMCcsICctbWV0YWxfYmluZGluZycsICctaW1hZScsICc8aW5maWxlLm1hZT4nLCAnLW9tYWUnLCAnPG91dGZpbGUubWFlPic=

> <r_lp_tautomer_probability>
1

> <r_epik_Ionization_Penalty>
0.000670584

> <r_epik_Ionization_Penalty_Charging>
0

> <r_epik_Ionization_Penalty_Neutral>
0.000670584

> <r_epik_State_Penalty>
0.000304767

> <r_epik_Charging_Adjusted_Penalty>
0.000304767

> <i_epik_Tot_Q>
0

> <i_epik_Tot_abs_Q>
0

> <r_epik_Metal_State_Penalty>
-0

> <b_epik_Metal_Only>
0

> <s_lp_Force_Field>
OPLS_2005

> <r_lp_Energy>
47.4038

> <b_lp_Chiralities_Consistent>
1

> <s_lp_Variant>
AV-unprocessed.smi:171-2

> <Gold.Version>
5.8.1

> <Gold.Id.Protein>
6NUR|6NUR_protein|mol2

> <Gold.PLP.Fitness>
39.2454

> <Gold.PLP.PLP>
-34.0830

> <Gold.PLP.part.hbond>
-3.8987

> <Gold.PLP.part.metal>
0.0000

> <Gold.PLP.part.buried>
-1.3988

> <Gold.PLP.part.nonpolar>
-30.4441

> <Gold.PLP.part.repulsive>
0.1766

> <Gold.PLP.ligand.clash>
0.0000

> <Gold.PLP.ligand.torsion>
0.6923

> <Gold.PLP.Chemscore.Hbond>
2.0605

> <Gold.PLP.Chemscore.CHOScore>
0.0000

> <Gold.PLP.Chemscore.Metal>
0.0000

> <Gold.Chemscore.Hbonds>
donor molecule, donor type, donor heavy atom, donor atom, acceptor molecule, acceptor atom, score
      P1  H  6896  6909       L1    15  1.00
      P1  H  7989  7998       L1     7  0.08
      P1  H  7997  8008       L1     7  0.88

> <Gold.PLP.Chemscore.Internal.Correction>
0.3657

> <Gold.Rescore>
     Score         DG    S(hbond)    S(metal)    S(lipo)     H(rot)  DE(clash)    DE(int)     intcor
     10.46     -14.57       1.55        0.00      90.58       2.61       2.15       1.96       ----

> <Gold.Chemscore.Fitness>
10.4620

> <Gold.Chemscore.DG>
-14.5695

> <Gold.Chemscore.ZeroCoef>
-5.4800

> <Gold.Chemscore.Hbond>
1.5468

> <Gold.Chemscore.Metal>
0.0000

> <Gold.Chemscore.Lipo>
90.5804

> <Gold.Chemscore.Internal_Hbond>
0.0000

> <Gold.Chemscore.DEClash>
2.1462

> <Gold.Chemscore.DEInternal>
1.9613

> <Gold.Chemscore.Rot>
2.6074

> <Gold.Chemscore.Internal.Correction>
   9.000000E+99

> <Gold.Chemscore.Hbonds>
donor molecule, donor type, donor heavy atom, donor atom, acceptor molecule, acceptor atom, score
      P1  H  6896  6909       L1    15  0.34
      P1  H  7997  8008       L1     7  0.82

> <Gold.Chemscore.Hbond.Weighted>
-5.1664

> <Gold.Chemscore.Metal.Weighted>
-0.0000

> <Gold.Chemscore.Lipo.Weighted>
-10.5979

> <Gold.Chemscore.Internal_Hbond.Weighted>
0.0000

> <Gold.Chemscore.DEClash.Weighted>
2.1462

> <Gold.Chemscore.DEInternal.Weighted>
1.9613

> <Gold.Chemscore.Rot.Weighted>
6.6748

> <Gold.Chemscore.Internal.Correction.Weighted>
   9.000000E+99

> <Gold.Protein.RotatedTorsions>
[ 6907 6896 6895 6894 ] final   61.71 input  -60.11 | X-H torsion
[ 7974 7965 7964 7962 ] final -171.45 input  175.53 | X-H torsion
[ 8008 7997 7996 7995 ] final  -26.65 input   59.86 | X-H torsion
[ 10167 10162 10161 10158 ] final  -82.73 input  -65.29 | X-H torsion
[ 10718 10713 10712 10709 ] final  -33.40 input   66.30 | X-H torsion
[ 10763 10752 10751 10750 ] final -122.84 input  -60.55 | X-H torsion
[ 11005 11000 10999 10996 ] final  125.81 input  -57.11 | X-H torsion

> <Gold.Protein.ActiveResidues>
 VAL166  LYS551  ARG553  GLY616  TRP617  ASP618  TYR619  PRO620  LYS621  CYS622 
 ASP623  PHE694  ASN695  SER759  ASP760  ASP761  ALA762  ILE779  LEU786  VAL792 
 PHE793  MET794  SER795  GLU796  ALA797  LYS798  CYS799  TRP800  GLU811  SER814 

> <Gold.Protein.RotatedAtoms>
  152.4112  134.6121  160.0028 H   0  0  0  0  0  0  0  0  0  0  0  0  # atno 6907 bound_to 6896
  151.6298  133.3327  159.3114 H   0  0  0  0  0  0  0  0  0  0  0  0  # atno 6908 bound_to 6896
  150.8003  134.7132  159.6660 H   0  0  0  0  0  0  0  0  0  0  0  0  # atno 6909 bound_to 6896
  144.7157  140.1919  143.6347 H   0  0  0  0  0  0  0  0  0  0  0  0  # atno 7974 bound_to 7965
  154.4415  140.1893  156.0809 H   0  0  0  0  0  0  0  0  0  0  0  0  # atno 8008 bound_to 7997
  156.0439  140.3316  155.7248 H   0  0  0  0  0  0  0  0  0  0  0  0  # atno 8009 bound_to 7997
  155.5658  140.0608  157.2809 H   0  0  0  0  0  0  0  0  0  0  0  0  # atno 8010 bound_to 7997
  140.4292  143.2555  151.8782 H   0  0  0  0  0  0  0  0  0  0  0  0  # atno 10167 bound_to 10162
  156.3631  130.4327  149.7607 H   0  0  0  0  0  0  0  0  0  0  0  0  # atno 10718 bound_to 10713
  154.8697  135.4119  154.2847 H   0  0  0  0  0  0  0  0  0  0  0  0  # atno 10763 bound_to 10752
  153.3734  135.7008  153.6626 H   0  0  0  0  0  0  0  0  0  0  0  0  # atno 10764 bound_to 10752
  153.5478  135.3635  155.2718 H   0  0  0  0  0  0  0  0  0  0  0  0  # atno 10765 bound_to 10752
  139.9425  134.9634  156.8613 H   0  0  0  0  0  0  0  0  0  0  0  0  # atno 11005 bound_to 11000
  145.8760  139.2297  143.1633 LP  0  0  0  0  0  0  0  0  0  0  0  0  # atno 17320 bound_to 7965
  146.0040  140.8495  143.0004 LP  0  0  0  0  0  0  0  0  0  0  0  0  # atno 17321 bound_to 7965
  139.4784  144.5353  151.8608 LP  0  0  0  0  0  0  0  0  0  0  0  0  # atno 17342 bound_to 10162
  140.4446  144.1939  150.5893 LP  0  0  0  0  0  0  0  0  0  0  0  0  # atno 17343 bound_to 10162
  156.4764  130.8020  151.3036 LP  0  0  0  0  0  0  0  0  0  0  0  0  # atno 17370 bound_to 10713
  157.7476  131.0020  150.2983 LP  0  0  0  0  0  0  0  0  0  0  0  0  # atno 17371 bound_to 10713
  140.5917  134.0255  155.7502 LP  0  0  0  0  0  0  0  0  0  0  0  0  # atno 17394 bound_to 11000
  141.1064  133.9687  157.2989 LP  0  0  0  0  0  0  0  0  0  0  0  0  # atno 17395 bound_to 11000

$$$$
