AV-unprocessed.smi:851|AV-procd|sdf|3949|dock2
  -GOLD-   22720 1423D 1   1.00000     0.00000
 Structure written by MMmdl.
 34 35  0  0  0  0  0  0  0  0  1 V2000
  145.4189  133.6318  151.1013 C   0  0  0  0  0  0  0  0  0  0  0  0
  146.2918  133.9834  152.1689 O   0  0  0  0  0  0  0  0  0  0  0  0
  146.1155  133.3715  153.3955 C   0  0  0  0  0  0  0  0  0  0  0  0
  145.1859  132.3889  153.5009 N   0  0  0  0  0  0  0  0  0  0  0  0
  145.0182  131.7896  154.6978 C   0  0  0  0  0  0  0  0  0  0  0  0
  145.7652  132.1291  155.8409 C   0  0  0  0  0  0  0  0  0  0  0  0
  146.7296  133.1481  155.7341 C   0  0  0  0  0  0  0  0  0  0  0  0
  146.9068  133.7961  154.4879 C   0  0  0  0  0  0  0  0  0  0  0  0
  147.8610  134.8238  154.2569 N   0  0  0  0  0  0  0  0  0  0  0  0
  148.5799  135.5334  155.1476 C   0  0  0  0  0  0  0  0  0  0  0  0
  148.5444  135.3736  156.3655 O   0  0  0  0  0  0  0  0  0  0  0  0
  149.3537  136.4837  154.5924 N   0  0  0  0  0  0  0  0  0  0  0  0
  150.2519  137.4245  155.2652 C   0  0  2  0  0  0  0  0  0  0  0  0
  149.4588  138.5586  155.9408 C   0  0  0  0  0  0  0  0  0  0  0  0
  150.4323  139.6807  156.3232 C   0  0  0  0  0  0  0  0  0  0  0  0
  151.7801  139.6311  155.0810 S   0  0  0  0  0  0  0  0  0  0  0  0
  151.6156  140.7380  154.1269 O   0  0  0  0  0  0  0  0  0  0  0  0
  153.0583  139.4121  155.7747 O   0  0  0  0  0  0  0  0  0  0  0  0
  151.2464  138.0702  154.2859 C   0  0  0  0  0  0  0  0  0  0  0  0
  145.6897  134.2023  150.2129 H   0  0  0  0  0  0  0  0  0  0  0  0
  144.3805  133.8658  151.3403 H   0  0  0  0  0  0  0  0  0  0  0  0
  145.5004  132.5729  150.8519 H   0  0  0  0  0  0  0  0  0  0  0  0
  144.2702  131.0120  154.7443 H   0  0  0  0  0  0  0  0  0  0  0  0
  145.6052  131.6161  156.7776 H   0  0  0  0  0  0  0  0  0  0  0  0
  147.3192  133.3991  156.6018 H   0  0  0  0  0  0  0  0  0  0  0  0
  147.9453  135.1175  153.2946 H   0  0  0  0  0  0  0  0  0  0  0  0
  149.2967  136.5757  153.5883 H   0  0  0  0  0  0  0  0  0  0  0  0
  150.8117  136.9087  156.0477 H   0  0  0  0  0  0  0  0  0  0  0  0
  148.7299  138.9573  155.2335 H   0  0  0  0  0  0  0  0  0  0  0  0
  148.8994  138.2030  156.8067 H   0  0  0  0  0  0  0  0  0  0  0  0
  149.9637  140.6649  156.3340 H   0  0  0  0  0  0  0  0  0  0  0  0
  150.8721  139.4936  157.3031 H   0  0  0  0  0  0  0  0  0  0  0  0
  152.1130  137.4444  154.0718 H   0  0  0  0  0  0  0  0  0  0  0  0
  150.7611  138.3266  153.3434 H   0  0  0  0  0  0  0  0  0  0  0  0
  1  2  1  0  0  0  0
  1 20  1  0  0  0  0
  1 21  1  0  0  0  0
  1 22  1  0  0  0  0
  2  3  1  0  0  0  0
  3  8  1  0  0  0  0
  3  4  2  0  0  0  0
  4  5  1  0  0  0  0
  5  6  2  0  0  0  0
  5 23  1  0  0  0  0
  6  7  1  0  0  0  0
  6 24  1  0  0  0  0
  7  8  2  0  0  0  0
  7 25  1  0  0  0  0
  8  9  1  0  0  0  0
  9 10  1  0  0  0  0
  9 26  1  0  0  0  0
 10 11  2  0  0  0  0
 10 12  1  0  0  0  0
 12 13  1  0  0  0  0
 12 27  1  0  0  0  0
 13 19  1  0  0  0  0
 13 14  1  0  0  0  0
 13 28  1  0  0  0  0
 14 15  1  0  0  0  0
 14 29  1  0  0  0  0
 14 30  1  0  0  0  0
 15 16  1  0  0  0  0
 15 31  1  0  0  0  0
 15 32  1  0  0  0  0
 16 17  2  0  0  0  0
 16 18  2  0  0  0  0
 16 19  1  0  0  0  0
 19 33  1  0  0  0  0
 19 34  1  0  0  0  0
M  END
> <s_m_source_file>
AV-unprocessed.smi

> <i_m_source_file_index>
851

> <i_lp_mmshare_version>
43012

> <i_f3d_flags>
0

> <s_epik_input>
W0NIM11PYzFuW2NIXVtjSF1bY0hdYzFbTkhdQyg9TylbTkhdW0NAQEhdKFtDSDJdMilbQ0gyXVtDSDJdUzIoPU8pPU8=

> <s_epik_cmdline>
J2VwaWtfcHl0aG9uJywgJy1waCcsICc3LjAnLCAnLXRuJywgJzgnLCAnLW1hJywgJzIwMCcsICctbWV0YWxfYmluZGluZycsICctaW1hZScsICc8aW5maWxlLm1hZT4nLCAnLW9tYWUnLCAnPG91dGZpbGUubWFlPic=

> <r_lp_tautomer_probability>
1

> <r_epik_Ionization_Penalty>
7.64927e-05

> <r_epik_Ionization_Penalty_Charging>
0

> <r_epik_Ionization_Penalty_Neutral>
7.64927e-05

> <r_epik_State_Penalty>
-0

> <r_epik_Charging_Adjusted_Penalty>
0

> <i_epik_Tot_Q>
0

> <i_epik_Tot_abs_Q>
0

> <r_epik_Metal_State_Penalty>
-0

> <b_epik_Metal_Only>
0

> <s_lp_Force_Field>
OPLS_2005

> <r_lp_Energy>
17.9576

> <b_lp_Chiralities_Consistent>
1

> <s_lp_Variant>
AV-unprocessed.smi:851-1

> <Gold.Version>
5.8.1

> <Gold.Id.Protein>
6NUR|6NUR_protein|mol2

> <Gold.PLP.Fitness>
38.4579

> <Gold.PLP.PLP>
-27.5188

> <Gold.PLP.part.hbond>
-4.6699

> <Gold.PLP.part.metal>
0.0000

> <Gold.PLP.part.buried>
-3.5277

> <Gold.PLP.part.nonpolar>
-20.0776

> <Gold.PLP.part.repulsive>
0.4882

> <Gold.PLP.ligand.clash>
0.0000

> <Gold.PLP.ligand.torsion>
0.2698

> <Gold.PLP.Chemscore.Hbond>
3.8260

> <Gold.PLP.Chemscore.CHOScore>
0.0000

> <Gold.PLP.Chemscore.Metal>
0.0000

> <Gold.Chemscore.Hbonds>
donor molecule, donor type, donor heavy atom, donor atom, acceptor molecule, acceptor atom, score
      L1  H     9    26       P1  7948  0.92
      L1  H    12    27       P1  7948  1.00
      P1  H  7997  8008       L1    18  1.00

> <Gold.PLP.Chemscore.Internal.Correction>
0.0006

> <Gold.Rescore>
     Score         DG    S(hbond)    S(metal)    S(lipo)     H(rot)  DE(clash)    DE(int)     intcor
     16.64     -17.92       3.36        0.00      39.11       1.31       0.01       1.27       ----

> <Gold.Chemscore.Fitness>
16.6421

> <Gold.Chemscore.DG>
-17.9235

> <Gold.Chemscore.ZeroCoef>
-5.4800

> <Gold.Chemscore.Hbond>
3.3604

> <Gold.Chemscore.Metal>
0.0000

> <Gold.Chemscore.Lipo>
39.1075

> <Gold.Chemscore.Internal_Hbond>
0.0000

> <Gold.Chemscore.DEClash>
0.0129

> <Gold.Chemscore.DEInternal>
1.2684

> <Gold.Chemscore.Rot>
1.3109

> <Gold.Chemscore.Internal.Correction>
   9.000000E+99

> <Gold.Chemscore.Hbonds>
donor molecule, donor type, donor heavy atom, donor atom, acceptor molecule, acceptor atom, score
      L1  H     9    26       P1  7948  0.84
      L1  H    12    27       P1  7948  0.92
      P1  H  7997  8008       L1    18  0.96

> <Gold.Chemscore.Hbond.Weighted>
-11.2238

> <Gold.Chemscore.Metal.Weighted>
-0.0000

> <Gold.Chemscore.Lipo.Weighted>
-4.5756

> <Gold.Chemscore.Internal_Hbond.Weighted>
0.0000

> <Gold.Chemscore.DEClash.Weighted>
0.0129

> <Gold.Chemscore.DEInternal.Weighted>
1.2684

> <Gold.Chemscore.Rot.Weighted>
3.3559

> <Gold.Chemscore.Internal.Correction.Weighted>
   9.000000E+99

> <Gold.Protein.RotatedTorsions>
[ 6907 6896 6895 6894 ] final  -38.74 input  -60.11 | X-H torsion
[ 7974 7965 7964 7962 ] final  -35.33 input  175.53 | X-H torsion
[ 8008 7997 7996 7995 ] final  -43.18 input   59.86 | X-H torsion
[ 10167 10162 10161 10158 ] final  -21.37 input  -65.29 | X-H torsion
[ 10718 10713 10712 10709 ] final -174.54 input   66.30 | X-H torsion
[ 10763 10752 10751 10750 ] final  102.03 input  -60.55 | X-H torsion
[ 11005 11000 10999 10996 ] final   -1.79 input  -57.11 | X-H torsion

> <Gold.Protein.ActiveResidues>
 VAL166  LYS551  ARG553  GLY616  TRP617  ASP618  TYR619  PRO620  LYS621  CYS622 
 ASP623  PHE694  ASN695  SER759  ASP760  ASP761  ALA762  ILE779  LEU786  VAL792 
 PHE793  MET794  SER795  GLU796  ALA797  LYS798  CYS799  TRP800  GLU811  SER814 

> <Gold.Protein.RotatedAtoms>
  150.9987  134.9305  159.7941 H   0  0  0  0  0  0  0  0  0  0  0  0  # atno 6907 bound_to 6896
  152.5272  134.3183  159.9149 H   0  0  0  0  0  0  0  0  0  0  0  0  # atno 6908 bound_to 6896
  151.3189  133.4007  159.2687 H   0  0  0  0  0  0  0  0  0  0  0  0  # atno 6909 bound_to 6896
  146.0756  140.6146  142.8932 H   0  0  0  0  0  0  0  0  0  0  0  0  # atno 7974 bound_to 7965
  154.3997  140.1454  156.3477 H   0  0  0  0  0  0  0  0  0  0  0  0  # atno 8008 bound_to 7997
  155.8298  140.3466  155.5544 H   0  0  0  0  0  0  0  0  0  0  0  0  # atno 8009 bound_to 7997
  155.8200  140.0896  157.1845 H   0  0  0  0  0  0  0  0  0  0  0  0  # atno 8010 bound_to 7997
  140.7281  143.4634  151.0348 H   0  0  0  0  0  0  0  0  0  0  0  0  # atno 10167 bound_to 10162
  156.7866  130.9503  151.3120 H   0  0  0  0  0  0  0  0  0  0  0  0  # atno 10718 bound_to 10713
  153.3343  135.4024  155.1521 H   0  0  0  0  0  0  0  0  0  0  0  0  # atno 10763 bound_to 10752
  154.8630  135.3618  154.5429 H   0  0  0  0  0  0  0  0  0  0  0  0  # atno 10764 bound_to 10752
  153.5870  135.7075  153.5498 H   0  0  0  0  0  0  0  0  0  0  0  0  # atno 10765 bound_to 10752
  140.6513  133.9402  155.8381 H   0  0  0  0  0  0  0  0  0  0  0  0  # atno 11005 bound_to 11000
  144.7259  140.4523  143.6973 LP  0  0  0  0  0  0  0  0  0  0  0  0  # atno 17320 bound_to 7965
  145.6313  139.1537  143.2967 LP  0  0  0  0  0  0  0  0  0  0  0  0  # atno 17321 bound_to 7965
  139.8320  143.7678  152.3180 LP  0  0  0  0  0  0  0  0  0  0  0  0  # atno 17342 bound_to 10162
  139.7797  144.7449  151.0106 LP  0  0  0  0  0  0  0  0  0  0  0  0  # atno 17343 bound_to 10162
  157.6621  130.8975  149.9851 LP  0  0  0  0  0  0  0  0  0  0  0  0  # atno 17370 bound_to 10713
  156.1185  130.3647  149.9928 LP  0  0  0  0  0  0  0  0  0  0  0  0  # atno 17371 bound_to 10713
  141.0535  134.0451  157.3753 LP  0  0  0  0  0  0  0  0  0  0  0  0  # atno 17394 bound_to 11000
  139.9045  135.0175  156.7422 LP  0  0  0  0  0  0  0  0  0  0  0  0  # atno 17395 bound_to 11000

$$$$
