AV-unprocessed.smi:99|AV-procd|sdf|883|dock7
  -GOLD-   2262017363D 1   1.00000     0.00000
 Structure written by MMmdl.
 52 55  0  0  0  0  0  0  0  0  2 V2000
  149.0887  129.4054  156.9766 O   0  0  0  0  0  0  0  0  0  0  0  0
  148.4634  129.8048  155.9920 C   0  0  0  0  0  0  0  0  0  0  0  0
  148.6095  131.0376  155.4586 O   0  0  0  0  0  0  0  0  0  0  0  0
  149.4325  132.0219  156.0763 C   0  0  0  0  0  0  0  0  0  0  0  0
  149.3103  133.3830  155.3694 C   0  0  2  0  0  0  0  0  0  0  0  0
  150.0018  134.3899  156.1047 O   0  0  0  0  0  0  0  0  0  0  0  0
  149.2725  135.5854  156.1305 C   0  0  2  0  0  0  0  0  0  0  0  0
  148.8558  135.8382  157.5743 N   0  0  0  0  0  0  0  0  0  0  0  0
  148.3715  134.8380  158.4073 C   0  0  0  0  0  0  0  0  0  0  0  0
  148.0844  135.0724  159.7039 C   0  0  0  0  0  0  0  0  0  0  0  0
  148.3018  136.4035  160.2577 C   0  0  0  0  0  0  0  0  0  0  0  0
  148.0297  136.6096  161.4388 O   0  0  0  0  0  0  0  0  0  0  0  0
  148.8073  137.3641  159.4337 N   0  5  0  0  0  0  0  0  0  0  0  0
  149.1061  137.1283  158.1227 C   0  0  0  0  0  0  0  0  0  0  0  0
  149.5868  137.9887  157.3845 O   0  0  0  0  0  0  0  0  0  0  0  0
  148.1040  135.4266  155.1408 C   0  0  1  0  0  0  0  0  0  0  0  0
  148.4966  135.8737  153.8562 O   0  0  0  0  0  0  0  0  0  0  0  0
  147.8924  133.9186  155.1858 C   0  0  1  0  0  0  0  0  0  0  0  0
  147.2134  133.3954  154.0511 O   0  0  0  0  0  0  0  0  0  0  0  0
  146.0387  133.9270  153.6503 C   0  0  0  0  0  0  0  0  0  0  0  0
  145.5094  134.9016  154.1890 O   0  0  0  0  0  0  0  0  0  0  0  0
  145.4432  133.2079  152.4876 C   0  0  0  0  0  0  0  0  0  0  0  0
  146.2207  132.2529  151.7914 C   0  0  0  0  0  0  0  0  0  0  0  0
  145.6879  131.5628  150.6852 C   0  0  0  0  0  0  0  0  0  0  0  0
  144.3707  131.8189  150.2620 C   0  0  0  0  0  0  0  0  0  0  0  0
  143.5866  132.7655  150.9467 C   0  0  0  0  0  0  0  0  0  0  0  0
  144.1178  133.4569  152.0531 C   0  0  0  0  0  0  0  0  0  0  0  0
  147.4874  128.9635  155.2427 C   0  0  0  0  0  0  0  0  0  0  0  0
  147.5786  127.5550  155.3284 C   0  0  0  0  0  0  0  0  0  0  0  0
  146.6822  126.7339  154.6170 C   0  0  0  0  0  0  0  0  0  0  0  0
  145.6834  127.3117  153.8118 C   0  0  0  0  0  0  0  0  0  0  0  0
  145.5803  128.7118  153.7211 C   0  0  0  0  0  0  0  0  0  0  0  0
  146.4755  129.5346  154.4319 C   0  0  0  0  0  0  0  0  0  0  0  0
  149.1051  132.1268  157.1108 H   0  0  0  0  0  0  0  0  0  0  0  0
  150.4762  131.7077  156.1186 H   0  0  0  0  0  0  0  0  0  0  0  0
  149.7913  133.3219  154.3921 H   0  0  0  0  0  0  0  0  0  0  0  0
  149.9001  136.4403  155.8720 H   0  0  0  0  0  0  0  0  0  0  0  0
  148.2084  133.8363  158.0473 H   0  0  0  0  0  0  0  0  0  0  0  0
  147.7111  134.2776  160.3328 H   0  0  0  0  0  0  0  0  0  0  0  0
  147.2302  136.0075  155.4338 H   0  0  0  0  0  0  0  0  0  0  0  0
  148.8152  135.1312  153.3662 H   0  0  0  0  0  0  0  0  0  0  0  0
  147.3255  133.6793  156.0817 H   0  0  0  0  0  0  0  0  0  0  0  0
  147.2352  132.0403  152.0965 H   0  0  0  0  0  0  0  0  0  0  0  0
  146.2914  130.8368  150.1606 H   0  0  0  0  0  0  0  0  0  0  0  0
  143.9628  131.2901  149.4132 H   0  0  0  0  0  0  0  0  0  0  0  0
  142.5755  132.9632  150.6225 H   0  0  0  0  0  0  0  0  0  0  0  0
  143.4894  134.1780  152.5552 H   0  0  0  0  0  0  0  0  0  0  0  0
  148.3416  127.0887  155.9348 H   0  0  0  0  0  0  0  0  0  0  0  0
  146.7639  125.6593  154.6874 H   0  0  0  0  0  0  0  0  0  0  0  0
  144.9987  126.6824  153.2624 H   0  0  0  0  0  0  0  0  0  0  0  0
  144.8185  129.1574  153.0986 H   0  0  0  0  0  0  0  0  0  0  0  0
  146.3746  130.6053  154.3306 H   0  0  0  0  0  0  0  0  0  0  0  0
  1  2  2  0  0  0  0
  2  3  1  0  0  0  0
  2 28  1  0  0  0  0
  3  4  1  0  0  0  0
  4  5  1  0  0  0  0
  4 34  1  0  0  0  0
  4 35  1  0  0  0  0
  5 18  1  0  0  0  0
  5  6  1  0  0  0  0
  5 36  1  0  0  0  0
  6  7  1  0  0  0  0
  7  8  1  0  0  0  0
  7 16  1  0  0  0  0
  7 37  1  0  0  0  0
  8 14  1  0  0  0  0
  8  9  1  0  0  0  0
  9 10  2  0  0  0  0
  9 38  1  0  0  0  0
 10 11  1  0  0  0  0
 10 39  1  0  0  0  0
 11 12  2  0  0  0  0
 11 13  1  0  0  0  0
 13 14  1  0  0  0  0
 14 15  2  0  0  0  0
 16 17  1  0  0  0  0
 16 18  1  0  0  0  0
 16 40  1  0  0  0  0
 17 41  1  0  0  0  0
 18 19  1  0  0  0  0
 18 42  1  0  0  0  0
 19 20  1  0  0  0  0
 20 21  2  0  0  0  0
 20 22  1  0  0  0  0
 22 27  1  0  0  0  0
 22 23  2  0  0  0  0
 23 24  1  0  0  0  0
 23 43  1  0  0  0  0
 24 25  2  0  0  0  0
 24 44  1  0  0  0  0
 25 26  1  0  0  0  0
 25 45  1  0  0  0  0
 26 27  2  0  0  0  0
 26 46  1  0  0  0  0
 27 47  1  0  0  0  0
 28 33  1  0  0  0  0
 28 29  2  0  0  0  0
 29 30  1  0  0  0  0
 29 48  1  0  0  0  0
 30 31  2  0  0  0  0
 30 49  1  0  0  0  0
 31 32  1  0  0  0  0
 31 50  1  0  0  0  0
 32 33  2  0  0  0  0
 32 51  1  0  0  0  0
 33 52  1  0  0  0  0
M  CHG  1  13  -1
M  END
> <s_m_source_file>
AV-unprocessed.smi

> <i_m_source_file_index>
99

> <i_lp_mmshare_version>
43012

> <i_f3d_flags>
0

> <s_epik_input>
W2NIXTFbY0hdW2NIXVtjSF1bY0hdYzFDKD1PKU9bQ0gyXVtDQEBIXTJPW0NAQEhdKG4zW2NIXVtjSF1jKD1PKVtuSF1jMz1PKVtDQEBIXShbT0hdKVtDQEhdMk9DKD1PKWM0W2NIXVtjSF1bY0hdW2NIXVtjSF00

> <s_epik_cmdline>
J2VwaWtfcHl0aG9uJywgJy1waCcsICc3LjAnLCAnLXRuJywgJzgnLCAnLW1hJywgJzIwMCcsICctbWV0YWxfYmluZGluZycsICctaW1hZScsICc8aW5maWxlLm1hZT4nLCAnLW9tYWUnLCAnPG91dGZpbGUubWFlPic=

> <r_lp_tautomer_probability>
1

> <r_epik_Ionization_Penalty>
2.89159

> <r_epik_Ionization_Penalty_Charging>
2.1077e-08

> <r_epik_Ionization_Penalty_Neutral>
2.89159

> <r_epik_State_Penalty>
2.88671

> <r_epik_Charging_Adjusted_Penalty>
2.88671

> <i_epik_Tot_Q>
-1

> <i_epik_Tot_abs_Q>
1

> <r_epik_Metal_State_Penalty>
0.0727308

> <b_epik_Metal_Only>
1

> <s_epik_Chemistry_Notes>
This compound has an ester and may undergo hydrolysis at high or low pH. This compound contains an acetal/aminal-like group ( X-CH(R)-Y where X, Y are N, S, or O) that may be acid/base labile, releasing an aldehyde.

> <s_lp_Force_Field>
OPLS_2005

> <r_lp_Energy>
45.2738

> <b_lp_Chiralities_Consistent>
1

> <s_lp_Variant>
AV-unprocessed.smi:99-19

> <Gold.Version>
5.8.1

> <Gold.Id.Protein>
6NUR|6NUR_protein|mol2

> <Gold.PLP.Fitness>
50.9093

> <Gold.PLP.PLP>
-44.3660

> <Gold.PLP.part.hbond>
-3.5571

> <Gold.PLP.part.metal>
0.0000

> <Gold.PLP.part.buried>
-7.5716

> <Gold.PLP.part.nonpolar>
-34.7794

> <Gold.PLP.part.repulsive>
0.3107

> <Gold.PLP.ligand.clash>
0.0000

> <Gold.PLP.ligand.torsion>
0.6983

> <Gold.PLP.Chemscore.Hbond>
2.5678

> <Gold.PLP.Chemscore.CHOScore>
0.0000

> <Gold.PLP.Chemscore.Metal>
0.0000

> <Gold.Chemscore.Hbonds>
donor molecule, donor type, donor heavy atom, donor atom, acceptor molecule, acceptor atom, score
      P1  H  6931  6943       L1    12  1.00

> <Gold.PLP.Chemscore.Internal.Correction>
0.2366

> <Gold.Rescore>
     Score         DG    S(hbond)    S(metal)    S(lipo)     H(rot)  DE(clash)    DE(int)     intcor
     12.58     -15.03       1.77        0.00      99.77       3.13       0.25       2.21       ----

> <Gold.Chemscore.Fitness>
12.5794

> <Gold.Chemscore.DG>
-15.0330

> <Gold.Chemscore.ZeroCoef>
-5.4800

> <Gold.Chemscore.Hbond>
1.7677

> <Gold.Chemscore.Metal>
0.0000

> <Gold.Chemscore.Lipo>
99.7744

> <Gold.Chemscore.Internal_Hbond>
0.0000

> <Gold.Chemscore.DEClash>
0.2462

> <Gold.Chemscore.DEInternal>
2.2075

> <Gold.Chemscore.Rot>
3.1346

> <Gold.Chemscore.Internal.Correction>
   9.000000E+99

> <Gold.Chemscore.Hbonds>
donor molecule, donor type, donor heavy atom, donor atom, acceptor molecule, acceptor atom, score
      P1  H  6931  6943       L1    12  0.49

> <Gold.Chemscore.Hbond.Weighted>
-5.9040

> <Gold.Chemscore.Metal.Weighted>
-0.0000

> <Gold.Chemscore.Lipo.Weighted>
-11.6736

> <Gold.Chemscore.Internal_Hbond.Weighted>
0.0000

> <Gold.Chemscore.DEClash.Weighted>
0.2462

> <Gold.Chemscore.DEInternal.Weighted>
2.2075

> <Gold.Chemscore.Rot.Weighted>
8.0246

> <Gold.Chemscore.Internal.Correction.Weighted>
   9.000000E+99

> <Gold.Protein.RotatedTorsions>
[ 6907 6896 6895 6894 ] final  -44.37 input  -60.11 | X-H torsion
[ 7974 7965 7964 7962 ] final   -3.37 input  175.53 | X-H torsion
[ 8008 7997 7996 7995 ] final  108.03 input   59.86 | X-H torsion
[ 10167 10162 10161 10158 ] final  179.98 input  -65.29 | X-H torsion
[ 10718 10713 10712 10709 ] final  103.88 input   66.30 | X-H torsion
[ 10763 10752 10751 10750 ] final  161.45 input  -60.55 | X-H torsion
[ 11005 11000 10999 10996 ] final  105.10 input  -57.11 | X-H torsion

> <Gold.Protein.ActiveResidues>
 VAL166  LYS551  ARG553  GLY616  TRP617  ASP618  TYR619  PRO620  LYS621  CYS622 
 ASP623  PHE694  ASN695  SER759  ASP760  ASP761  ALA762  ILE779  LEU786  VAL792 
 PHE793  MET794  SER795  GLU796  ALA797  LYS798  CYS799  TRP800  GLU811  SER814 

> <Gold.Protein.RotatedAtoms>
  150.9336  134.8749  159.7566 H   0  0  0  0  0  0  0  0  0  0  0  0  # atno 6907 bound_to 6896
  152.5049  134.4044  159.9437 H   0  0  0  0  0  0  0  0  0  0  0  0  # atno 6908 bound_to 6896
  151.4069  133.3700  159.2774 H   0  0  0  0  0  0  0  0  0  0  0  0  # atno 6909 bound_to 6896
  146.2390  140.1712  142.8332 H   0  0  0  0  0  0  0  0  0  0  0  0  # atno 7974 bound_to 7965
  156.1871  140.3084  155.9260 H   0  0  0  0  0  0  0  0  0  0  0  0  # atno 8008 bound_to 7997
  155.3256  140.0458  157.3058 H   0  0  0  0  0  0  0  0  0  0  0  0  # atno 8009 bound_to 7997
  154.5408  140.2261  155.8653 H   0  0  0  0  0  0  0  0  0  0  0  0  # atno 8010 bound_to 7997
  139.5360  144.2496  152.0795 H   0  0  0  0  0  0  0  0  0  0  0  0  # atno 10167 bound_to 10162
  157.6758  131.0790  150.5623 H   0  0  0  0  0  0  0  0  0  0  0  0  # atno 10718 bound_to 10713
  154.2631  135.2768  155.2770 H   0  0  0  0  0  0  0  0  0  0  0  0  # atno 10763 bound_to 10752
  154.5367  135.5714  153.6807 H   0  0  0  0  0  0  0  0  0  0  0  0  # atno 10764 bound_to 10752
  152.9958  135.6241  154.2782 H   0  0  0  0  0  0  0  0  0  0  0  0  # atno 10765 bound_to 10752
  139.8798  134.9324  156.5463 H   0  0  0  0  0  0  0  0  0  0  0  0  # atno 11005 bound_to 11000
  145.0010  140.8632  143.5281 LP  0  0  0  0  0  0  0  0  0  0  0  0  # atno 17320 bound_to 7965
  145.1731  139.2393  143.5331 LP  0  0  0  0  0  0  0  0  0  0  0  0  # atno 17321 bound_to 7965
  140.1967  144.4699  150.6452 LP  0  0  0  0  0  0  0  0  0  0  0  0  # atno 17342 bound_to 10162
  140.6567  143.2239  151.5953 LP  0  0  0  0  0  0  0  0  0  0  0  0  # atno 17343 bound_to 10162
  156.5925  130.4333  149.5930 LP  0  0  0  0  0  0  0  0  0  0  0  0  # atno 17370 bound_to 10713
  156.2572  130.6941  151.1698 LP  0  0  0  0  0  0  0  0  0  0  0  0  # atno 17371 bound_to 10713
  140.8273  133.8306  155.8951 LP  0  0  0  0  0  0  0  0  0  0  0  0  # atno 17394 bound_to 11000
  140.9362  134.1959  157.4830 LP  0  0  0  0  0  0  0  0  0  0  0  0  # atno 17395 bound_to 11000

$$$$
