AV-unprocessed.smi:1432|AV-procd|sdf|5833|dock10
  -GOLD-   22720 5493D 1   1.00000     0.00000
 Structure written by MMmdl.
 47 48  0  0  0  0  0  0  0  0  2 V2000
  147.4424  137.9867  156.5239 C   0  0  0  0  0  0  0  0  0  0  0  0
  148.0801  137.2436  155.3298 C   0  0  2  0  0  0  0  0  0  0  0  0
  149.2259  136.3062  155.7658 C   0  0  0  0  0  0  0  0  0  0  0  0
  150.4885  137.0841  156.1649 C   0  0  0  0  0  0  0  0  0  0  0  0
  150.9056  138.0271  155.0299 C   0  0  0  0  0  0  0  0  0  0  0  0
  149.7455  138.9473  154.6154 C   0  0  0  0  0  0  0  0  0  0  0  0
  148.5417  138.1558  154.2402 N   0  3  2  0  0  0  0  0  0  0  0  0
  147.4524  138.9714  153.6436 C   0  0  0  0  0  0  0  0  0  0  0  0
  146.1838  138.1408  153.3717 C   0  0  0  0  0  0  0  0  0  0  0  0
  146.4090  137.1391  152.3364 N   0  0  0  0  0  0  0  0  0  0  0  0
  145.4848  136.2742  151.8916 C   0  0  0  0  0  0  0  0  0  0  0  0
  144.3246  136.2605  152.3052 O   0  0  0  0  0  0  0  0  0  0  0  0
  145.9446  135.2956  150.8017 C   0  0  0  0  0  0  0  0  0  0  0  0
  146.0067  133.8986  151.2640 N   0  0  0  0  0  0  0  0  0  0  0  0
  146.8440  133.6216  152.3627 C   0  0  0  0  0  0  0  0  0  0  0  0
  147.0031  132.3838  152.8691 C   0  0  0  0  0  0  0  0  0  0  0  0
  147.8766  132.1237  154.0866 C   0  0  0  0  0  0  0  0  0  0  0  0
  148.4328  130.9134  154.0290 F   0  0  0  0  0  0  0  0  0  0  0  0
  148.8538  133.0275  154.1442 F   0  0  0  0  0  0  0  0  0  0  0  0
  147.1682  132.2063  155.2134 F   0  0  0  0  0  0  0  0  0  0  0  0
  146.2309  131.3273  152.2450 C   0  0  0  0  0  0  0  0  0  0  0  0
  145.4211  131.5760  151.1975 C   0  0  0  0  0  0  0  0  0  0  0  0
  145.2803  132.9231  150.6403 C   0  0  0  0  0  0  0  0  0  0  0  0
  144.5555  133.1608  149.6738 O   0  0  0  0  0  0  0  0  0  0  0  0
  147.1044  137.2781  157.2803 H   0  0  0  0  0  0  0  0  0  0  0  0
  146.5694  138.5651  156.2214 H   0  0  0  0  0  0  0  0  0  0  0  0
  148.1394  138.6686  157.0101 H   0  0  0  0  0  0  0  0  0  0  0  0
  147.3038  136.6061  154.9035 H   0  0  0  0  0  0  0  0  0  0  0  0
  148.9027  135.6693  156.5901 H   0  0  0  0  0  0  0  0  0  0  0  0
  149.4698  135.6326  154.9429 H   0  0  0  0  0  0  0  0  0  0  0  0
  150.3066  137.6561  157.0753 H   0  0  0  0  0  0  0  0  0  0  0  0
  151.2990  136.3913  156.3933 H   0  0  0  0  0  0  0  0  0  0  0  0
  151.7638  138.6251  155.3386 H   0  0  0  0  0  0  0  0  0  0  0  0
  151.2313  137.4412  154.1695 H   0  0  0  0  0  0  0  0  0  0  0  0
  149.5041  139.6411  155.4212 H   0  0  0  0  0  0  0  0  0  0  0  0
  150.0728  139.5573  153.7745 H   0  0  0  0  0  0  0  0  0  0  0  0
  147.1952  139.7759  154.3342 H   0  0  0  0  0  0  0  0  0  0  0  0
  147.8033  139.4498  152.7280 H   0  0  0  0  0  0  0  0  0  0  0  0
  145.8667  137.6107  154.2688 H   0  0  0  0  0  0  0  0  0  0  0  0
  145.3547  138.7906  153.0865 H   0  0  0  0  0  0  0  0  0  0  0  0
  147.3380  137.0859  151.9429 H   0  0  0  0  0  0  0  0  0  0  0  0
  145.2658  135.3892  149.9531 H   0  0  0  0  0  0  0  0  0  0  0  0
  146.9194  135.6070  150.4212 H   0  0  0  0  0  0  0  0  0  0  0  0
  147.3563  134.4829  152.7664 H   0  0  0  0  0  0  0  0  0  0  0  0
  146.3063  130.3174  152.6204 H   0  0  0  0  0  0  0  0  0  0  0  0
  144.8627  130.7638  150.7553 H   0  0  0  0  0  0  0  0  0  0  0  0
  148.8422  137.5372  153.5003 H   0  0  0  0  0  0  0  0  0  0  0  0
  1  2  1  0  0  0  0
  1 25  1  0  0  0  0
  1 26  1  0  0  0  0
  1 27  1  0  0  0  0
  2  7  1  0  0  0  0
  2  3  1  0  0  0  0
  2 28  1  0  0  0  0
  3  4  1  0  0  0  0
  3 29  1  0  0  0  0
  3 30  1  0  0  0  0
  4  5  1  0  0  0  0
  4 31  1  0  0  0  0
  4 32  1  0  0  0  0
  5  6  1  0  0  0  0
  5 33  1  0  0  0  0
  5 34  1  0  0  0  0
  6  7  1  0  0  0  0
  6 35  1  0  0  0  0
  6 36  1  0  0  0  0
  7  8  1  0  0  0  0
  7 47  1  0  0  0  0
  8  9  1  0  0  0  0
  8 37  1  0  0  0  0
  8 38  1  0  0  0  0
  9 10  1  0  0  0  0
  9 39  1  0  0  0  0
  9 40  1  0  0  0  0
 10 11  1  0  0  0  0
 10 41  1  0  0  0  0
 11 12  2  0  0  0  0
 11 13  1  0  0  0  0
 13 14  1  0  0  0  0
 13 42  1  0  0  0  0
 13 43  1  0  0  0  0
 14 23  1  0  0  0  0
 14 15  1  0  0  0  0
 15 16  2  0  0  0  0
 15 44  1  0  0  0  0
 16 17  1  0  0  0  0
 16 21  1  0  0  0  0
 17 18  1  0  0  0  0
 17 19  1  0  0  0  0
 17 20  1  0  0  0  0
 21 22  2  0  0  0  0
 21 45  1  0  0  0  0
 22 23  1  0  0  0  0
 22 46  1  0  0  0  0
 23 24  2  0  0  0  0
M  CHG  1   7   1
M  END
> <s_m_source_file>
AV-unprocessed.smi

> <i_m_source_file_index>
1432

> <i_lp_mmshare_version>
43012

> <i_f3d_flags>
0

> <s_epik_input>
W0NIM11bQ0BASF0xW0NIMl1bQ0gyXVtDSDJdW0NIMl1OMVtDSDJdW0NIMl1bTkhdQyg9TylbQ0gyXW4yW2NIXWMoQyhGKShGKUYpW2NIXVtjSF1jMj1P

> <s_epik_cmdline>
J2VwaWtfcHl0aG9uJywgJy1waCcsICc3LjAnLCAnLXRuJywgJzgnLCAnLW1hJywgJzIwMCcsICctbWV0YWxfYmluZGluZycsICctaW1hZScsICc8aW5maWxlLm1hZT4nLCAnLW9tYWUnLCAnPG91dGZpbGUubWFlPic=

> <r_lp_tautomer_probability>
1

> <r_epik_Ionization_Penalty>
0.00237222

> <r_epik_Ionization_Penalty_Charging>
0.00237213

> <r_epik_Ionization_Penalty_Neutral>
8.2065e-08

> <r_epik_State_Penalty>
0.00163922

> <r_epik_Charging_Adjusted_Penalty>
0.00401135

> <i_epik_Tot_Q>
1

> <i_epik_Tot_abs_Q>
1

> <r_epik_Metal_State_Penalty>
-0

> <b_epik_Metal_Only>
0

> <s_lp_Force_Field>
OPLS_2005

> <r_lp_Energy>
31.3892

> <b_lp_Chiralities_Consistent>
1

> <s_lp_Variant>
AV-unprocessed.smi:1432-3

> <Gold.Version>
5.8.1

> <Gold.Id.Protein>
6NUR|6NUR_protein|mol2

> <Gold.PLP.Fitness>
49.6048

> <Gold.PLP.PLP>
-40.5205

> <Gold.PLP.part.hbond>
-2.0000

> <Gold.PLP.part.metal>
0.0000

> <Gold.PLP.part.buried>
-6.1825

> <Gold.PLP.part.nonpolar>
-32.8880

> <Gold.PLP.part.repulsive>
0.4003

> <Gold.PLP.ligand.clash>
0.0000

> <Gold.PLP.ligand.torsion>
1.2411

> <Gold.PLP.Chemscore.Hbond>
2.8160

> <Gold.PLP.Chemscore.CHOScore>
1.0000

> <Gold.PLP.Chemscore.Metal>
0.0000

> <Gold.Chemscore.Hbonds>
donor molecule, donor type, donor heavy atom, donor atom, acceptor molecule, acceptor atom, score
      L1  H     7    47       P1  7948  1.76
      L1  H    10    41       P1  7948  0.99
      L1  C    15    44       P1  7948  1.00

> <Gold.PLP.Chemscore.Internal.Correction>
0.1185

> <Gold.Rescore>
     Score         DG    S(hbond)    S(metal)    S(lipo)     H(rot)  DE(clash)    DE(int)     intcor
     14.87     -15.25       1.94        0.00      73.44       2.08       0.03       0.35       ----

> <Gold.Chemscore.Fitness>
14.8695

> <Gold.Chemscore.DG>
-15.2501

> <Gold.Chemscore.ZeroCoef>
-5.4800

> <Gold.Chemscore.Hbond>
1.9440

> <Gold.Chemscore.Metal>
0.0000

> <Gold.Chemscore.Lipo>
73.4369

> <Gold.Chemscore.Internal_Hbond>
0.0000

> <Gold.Chemscore.DEClash>
0.0339

> <Gold.Chemscore.DEInternal>
0.3466

> <Gold.Chemscore.Rot>
2.0762

> <Gold.Chemscore.Internal.Correction>
   9.000000E+99

> <Gold.Chemscore.Hbonds>
donor molecule, donor type, donor heavy atom, donor atom, acceptor molecule, acceptor atom, score
      L1  H     7    47       P1  7948  0.86
      L1  H    10    41       P1  7948  0.94

> <Gold.Chemscore.Hbond.Weighted>
-6.4930

> <Gold.Chemscore.Metal.Weighted>
-0.0000

> <Gold.Chemscore.Lipo.Weighted>
-8.5921

> <Gold.Chemscore.Internal_Hbond.Weighted>
0.0000

> <Gold.Chemscore.DEClash.Weighted>
0.0339

> <Gold.Chemscore.DEInternal.Weighted>
0.3466

> <Gold.Chemscore.Rot.Weighted>
5.3150

> <Gold.Chemscore.Internal.Correction.Weighted>
   9.000000E+99

> <Gold.Protein.RotatedTorsions>
[ 6907 6896 6895 6894 ] final   54.43 input  -60.11 | X-H torsion
[ 7974 7965 7964 7962 ] final   46.30 input  175.53 | X-H torsion
[ 8008 7997 7996 7995 ] final   17.06 input   59.86 | X-H torsion
[ 10167 10162 10161 10158 ] final  148.54 input  -65.29 | X-H torsion
[ 10718 10713 10712 10709 ] final   43.17 input   66.30 | X-H torsion
[ 10763 10752 10751 10750 ] final   28.24 input  -60.55 | X-H torsion
[ 11005 11000 10999 10996 ] final  -69.68 input  -57.11 | X-H torsion

> <Gold.Protein.ActiveResidues>
 VAL166  LYS551  ARG553  GLY616  TRP617  ASP618  TYR619  PRO620  LYS621  CYS622 
 ASP623  PHE694  ASN695  SER759  ASP760  ASP761  ALA762  ILE779  LEU786  VAL792 
 PHE793  MET794  SER795  GLU796  ALA797  LYS798  CYS799  TRP800  GLU811  SER814 

> <Gold.Protein.RotatedAtoms>
  152.3438  134.7099  160.0255 H   0  0  0  0  0  0  0  0  0  0  0  0  # atno 6907 bound_to 6896
  151.7475  133.3320  159.3390 H   0  0  0  0  0  0  0  0  0  0  0  0  # atno 6908 bound_to 6896
  150.7496  134.6155  159.6153 H   0  0  0  0  0  0  0  0  0  0  0  0  # atno 6909 bound_to 6896
  146.0402  139.4871  142.9783 H   0  0  0  0  0  0  0  0  0  0  0  0  # atno 7974 bound_to 7965
  154.8860  140.2980  155.5398 H   0  0  0  0  0  0  0  0  0  0  0  0  # atno 8008 bound_to 7997
  156.3021  140.2433  156.3803 H   0  0  0  0  0  0  0  0  0  0  0  0  # atno 8009 bound_to 7997
  154.8668  140.0403  157.1688 H   0  0  0  0  0  0  0  0  0  0  0  0  # atno 8010 bound_to 7997
  139.4873  144.5672  151.7123 H   0  0  0  0  0  0  0  0  0  0  0  0  # atno 10167 bound_to 10162
  157.4130  130.7925  149.7447 H   0  0  0  0  0  0  0  0  0  0  0  0  # atno 10718 bound_to 10713
  153.0504  135.6518  154.0708 H   0  0  0  0  0  0  0  0  0  0  0  0  # atno 10763 bound_to 10752
  154.0397  135.2904  155.3358 H   0  0  0  0  0  0  0  0  0  0  0  0  # atno 10764 bound_to 10752
  154.6789  135.5327  153.8303 H   0  0  0  0  0  0  0  0  0  0  0  0  # atno 10765 bound_to 10752
  141.1559  133.6770  156.6637 H   0  0  0  0  0  0  0  0  0  0  0  0  # atno 11005 bound_to 11000
  145.6896  141.0168  143.1562 LP  0  0  0  0  0  0  0  0  0  0  0  0  # atno 17320 bound_to 7965
  144.7071  139.8517  143.7426 LP  0  0  0  0  0  0  0  0  0  0  0  0  # atno 17321 bound_to 7965
  140.5252  144.0817  150.6035 LP  0  0  0  0  0  0  0  0  0  0  0  0  # atno 17342 bound_to 10162
  140.3788  143.2814  152.0194 LP  0  0  0  0  0  0  0  0  0  0  0  0  # atno 17343 bound_to 10162
  155.9856  130.3981  150.3252 LP  0  0  0  0  0  0  0  0  0  0  0  0  # atno 17370 bound_to 10713
  157.1392  131.0292  151.2935 LP  0  0  0  0  0  0  0  0  0  0  0  0  # atno 17371 bound_to 10713
  140.3228  134.7994  157.4265 LP  0  0  0  0  0  0  0  0  0  0  0  0  # atno 17394 bound_to 11000
  140.1082  134.5380  155.8290 LP  0  0  0  0  0  0  0  0  0  0  0  0  # atno 17395 bound_to 11000

$$$$
