AV-unprocessed.smi:1644|AV-procd|sdf|6599|dock1
  -GOLD-   22720 7303D 1   1.00000     0.00000
 Structure written by MMmdl.
 49 51  0  0  0  0  0  0  0  0  3 V2000
  146.4459  134.8996  162.5140 C   0  0  0  0  0  0  0  0  0  0  0  0
  146.9670  136.3258  162.3075 C   0  0  0  0  0  0  0  0  0  0  0  0
  148.0973  136.3922  161.2578 C   0  0  0  0  0  0  0  0  0  0  0  0
  147.6511  136.4879  159.7783 C   0  0  1  0  0  0  0  0  0  0  0  0
  146.9993  137.7491  159.4927 N   0  5  0  0  0  0  0  0  0  0  0  0
  147.6615  138.3515  158.4772 C   0  0  0  0  0  0  0  0  0  0  0  0
  147.4024  139.4460  157.9768 O   0  0  0  0  0  0  0  0  0  0  0  0
  148.6999  137.6002  158.0605 N   0  0  0  0  0  0  0  0  0  0  0  0
  149.6476  137.9843  157.0102 C   0  0  0  0  0  0  0  0  0  0  0  0
  151.0076  138.4043  157.6058 C   0  0  1  0  0  0  0  0  0  0  0  0
  151.8579  137.2758  157.6674 O   0  0  0  0  0  0  0  0  0  0  0  0
  151.7016  139.4860  156.7555 C   0  0  0  0  0  0  0  0  0  0  0  0
  151.2524  140.8406  157.0993 N   0  0  0  0  0  0  0  0  0  0  0  0
  150.4355  141.6962  156.4281 C   0  0  0  0  0  0  0  0  0  0  0  0
  150.3396  142.8359  157.1686 N   0  3  0  0  0  0  0  0  0  0  0  0
  151.1107  142.7060  158.3266 C   0  0  0  0  0  0  0  0  0  0  0  0
  151.3380  143.5882  159.3763 C   0  0  0  0  0  0  0  0  0  0  0  0
  152.1907  143.1493  160.4148 C   0  0  0  0  0  0  0  0  0  0  0  0
  152.4678  144.0924  161.5730 C   0  0  0  0  0  0  0  0  0  0  0  0
  152.7790  141.8581  160.3808 C   0  0  0  0  0  0  0  0  0  0  0  0
  153.6946  141.3952  161.5012 C   0  0  0  0  0  0  0  0  0  0  0  0
  152.5323  140.9745  159.3066 C   0  0  0  0  0  0  0  0  0  0  0  0
  151.6954  141.4260  158.2893 C   0  0  0  0  0  0  0  0  0  0  0  0
  148.7920  136.4790  158.7809 C   0  0  0  0  0  0  0  0  0  0  0  0
  149.6376  135.5885  158.6898 O   0  0  0  0  0  0  0  0  0  0  0  0
  145.6435  134.8828  163.2515 H   0  0  0  0  0  0  0  0  0  0  0  0
  147.2380  134.2394  162.8675 H   0  0  0  0  0  0  0  0  0  0  0  0
  146.0530  134.4858  161.5850 H   0  0  0  0  0  0  0  0  0  0  0  0
  146.1374  136.9638  162.0016 H   0  0  0  0  0  0  0  0  0  0  0  0
  147.3162  136.7124  163.2654 H   0  0  0  0  0  0  0  0  0  0  0  0
  148.7334  137.2492  161.4837 H   0  0  0  0  0  0  0  0  0  0  0  0
  148.7378  135.5167  161.3720 H   0  0  0  0  0  0  0  0  0  0  0  0
  146.9994  135.6431  159.5518 H   0  0  0  0  0  0  0  0  0  0  0  0
  149.7676  137.1928  156.2680 H   0  0  0  0  0  0  0  0  0  0  0  0
  149.2092  138.8199  156.4619 H   0  0  0  0  0  0  0  0  0  0  0  0
  150.8715  138.7829  158.6193 H   0  0  0  0  0  0  0  0  0  0  0  0
  151.4522  136.6242  158.2183 H   0  0  0  0  0  0  0  0  0  0  0  0
  152.7843  139.4456  156.8837 H   0  0  0  0  0  0  0  0  0  0  0  0
  151.5084  139.3307  155.6932 H   0  0  0  0  0  0  0  0  0  0  0  0
  149.9554  141.5079  155.4788 H   0  0  0  0  0  0  0  0  0  0  0  0
  150.8868  144.5695  159.3961 H   0  0  0  0  0  0  0  0  0  0  0  0
  153.5381  144.2773  161.6694 H   0  0  0  0  0  0  0  0  0  0  0  0
  152.1037  143.6656  162.5078 H   0  0  0  0  0  0  0  0  0  0  0  0
  151.9757  145.0552  161.4310 H   0  0  0  0  0  0  0  0  0  0  0  0
  154.0267  140.3680  161.3457 H   0  0  0  0  0  0  0  0  0  0  0  0
  153.1788  141.4359  162.4608 H   0  0  0  0  0  0  0  0  0  0  0  0
  154.5811  142.0276  161.5553 H   0  0  0  0  0  0  0  0  0  0  0  0
  152.9841  139.9931  159.2764 H   0  0  0  0  0  0  0  0  0  0  0  0
  149.7913  143.6426  156.8986 H   0  0  0  0  0  0  0  0  0  0  0  0
  1  2  1  0  0  0  0
  1 26  1  0  0  0  0
  1 27  1  0  0  0  0
  1 28  1  0  0  0  0
  2  3  1  0  0  0  0
  2 29  1  0  0  0  0
  2 30  1  0  0  0  0
  3  4  1  0  0  0  0
  3 31  1  0  0  0  0
  3 32  1  0  0  0  0
  4 24  1  0  0  0  0
  4  5  1  0  0  0  0
  4 33  1  0  0  0  0
  5  6  1  0  0  0  0
  6  7  2  0  0  0  0
  6  8  1  0  0  0  0
  8  9  1  0  0  0  0
  8 24  1  0  0  0  0
  9 10  1  0  0  0  0
  9 34  1  0  0  0  0
  9 35  1  0  0  0  0
 10 11  1  0  0  0  0
 10 12  1  0  0  0  0
 10 36  1  0  0  0  0
 11 37  1  0  0  0  0
 12 13  1  0  0  0  0
 12 38  1  0  0  0  0
 12 39  1  0  0  0  0
 13 23  1  0  0  0  0
 13 14  1  0  0  0  0
 14 15  2  0  0  0  0
 14 40  1  0  0  0  0
 15 16  1  0  0  0  0
 15 49  1  0  0  0  0
 16 23  2  0  0  0  0
 16 17  1  0  0  0  0
 17 18  2  0  0  0  0
 17 41  1  0  0  0  0
 18 19  1  0  0  0  0
 18 20  1  0  0  0  0
 19 42  1  0  0  0  0
 19 43  1  0  0  0  0
 19 44  1  0  0  0  0
 20 21  1  0  0  0  0
 20 22  2  0  0  0  0
 21 45  1  0  0  0  0
 21 46  1  0  0  0  0
 21 47  1  0  0  0  0
 22 23  1  0  0  0  0
 22 48  1  0  0  0  0
 24 25  2  0  0  0  0
M  CHG  1   5  -1
M  CHG  1  15   1
M  END
> <s_m_source_file>
AV-unprocessed.smi

> <i_m_source_file_index>
1644

> <i_lp_mmshare_version>
43012

> <i_f3d_flags>
0

> <s_epik_input>
W0NIM11bQ0gyXVtDSDJdW0NAQEhdMVtOSF1DKD1PKU4oQzE9TylbQ0gyXVtDQEhdKFtPSF0pW0NIMl1uKFtjSF1uMiljKGMyMylbY0hdYyhbQ0gzXSljKFtjSF0zKVtDSDNd

> <s_epik_cmdline>
J2VwaWtfcHl0aG9uJywgJy1waCcsICc3LjAnLCAnLXRuJywgJzgnLCAnLW1hJywgJzIwMCcsICctbWV0YWxfYmluZGluZycsICctaW1hZScsICc8aW5maWxlLm1hZT4nLCAnLW9tYWUnLCAnPG91dGZpbGUubWFlPic=

> <r_lp_tautomer_probability>
1

> <r_epik_Ionization_Penalty>
6.86868

> <r_epik_Ionization_Penalty_Charging>
6.86868

> <r_epik_Ionization_Penalty_Neutral>
5.84798e-07

> <r_epik_State_Penalty>
6.92818

> <r_epik_Charging_Adjusted_Penalty>
13.7969

> <i_epik_Tot_Q>
0

> <i_epik_Tot_abs_Q>
2

> <r_epik_Metal_State_Penalty>
2.98017

> <b_epik_Metal_Only>
1

> <s_lp_Force_Field>
OPLS_2005

> <r_lp_Energy>
22.7733

> <b_lp_Chiralities_Consistent>
1

> <s_lp_Variant>
AV-unprocessed.smi:1644-16

> <Gold.Version>
5.8.1

> <Gold.Id.Protein>
6NUR|6NUR_protein|mol2

> <Gold.PLP.Fitness>
58.6005

> <Gold.PLP.PLP>
-46.8576

> <Gold.PLP.part.hbond>
-3.8006

> <Gold.PLP.part.metal>
0.0000

> <Gold.PLP.part.buried>
-4.9882

> <Gold.PLP.part.nonpolar>
-37.8415

> <Gold.PLP.part.repulsive>
0.0110

> <Gold.PLP.ligand.clash>
0.0000

> <Gold.PLP.ligand.torsion>
1.1674

> <Gold.PLP.Chemscore.Hbond>
4.6320

> <Gold.PLP.Chemscore.CHOScore>
0.0000

> <Gold.PLP.Chemscore.Metal>
0.0000

> <Gold.Chemscore.Hbonds>
donor molecule, donor type, donor heavy atom, donor atom, acceptor molecule, acceptor atom, score
      L1  H    15    49       P1  8028  2.00
      P1  H  6896  6907       L1    25  1.00
      P1  H  6934  6947       L1     5  1.60

> <Gold.PLP.Chemscore.Internal.Correction>
0.1819

> <Gold.Rescore>
     Score         DG    S(hbond)    S(metal)    S(lipo)     H(rot)  DE(clash)    DE(int)     intcor
     19.26     -20.77       2.46        0.00     120.10       2.72       0.25       1.26       ----

> <Gold.Chemscore.Fitness>
19.2589

> <Gold.Chemscore.DG>
-20.7678

> <Gold.Chemscore.ZeroCoef>
-5.4800

> <Gold.Chemscore.Hbond>
2.4585

> <Gold.Chemscore.Metal>
0.0000

> <Gold.Chemscore.Lipo>
120.0955

> <Gold.Chemscore.Internal_Hbond>
0.0000

> <Gold.Chemscore.DEClash>
0.2479

> <Gold.Chemscore.DEInternal>
1.2610

> <Gold.Chemscore.Rot>
2.7245

> <Gold.Chemscore.Internal.Correction>
   9.000000E+99

> <Gold.Chemscore.Hbonds>
donor molecule, donor type, donor heavy atom, donor atom, acceptor molecule, acceptor atom, score
      L1  H    15    49       P1  8028  0.96
      P1  H  6896  6907       L1    25  0.97
      P1  H  6934  6947       L1     5  0.24

> <Gold.Chemscore.Hbond.Weighted>
-8.2115

> <Gold.Chemscore.Metal.Weighted>
-0.0000

> <Gold.Chemscore.Lipo.Weighted>
-14.0512

> <Gold.Chemscore.Internal_Hbond.Weighted>
0.0000

> <Gold.Chemscore.DEClash.Weighted>
0.2479

> <Gold.Chemscore.DEInternal.Weighted>
1.2610

> <Gold.Chemscore.Rot.Weighted>
6.9748

> <Gold.Chemscore.Internal.Correction.Weighted>
   9.000000E+99

> <Gold.Protein.RotatedTorsions>
[ 6907 6896 6895 6894 ] final  -81.07 input  -60.11 | X-H torsion
[ 7974 7965 7964 7962 ] final  -20.75 input  175.53 | X-H torsion
[ 8008 7997 7996 7995 ] final  173.76 input   59.86 | X-H torsion
[ 10167 10162 10161 10158 ] final  166.19 input  -65.29 | X-H torsion
[ 10718 10713 10712 10709 ] final   93.50 input   66.30 | X-H torsion
[ 10763 10752 10751 10750 ] final   40.17 input  -60.55 | X-H torsion
[ 11005 11000 10999 10996 ] final   23.44 input  -57.11 | X-H torsion

> <Gold.Protein.ActiveResidues>
 VAL166  LYS551  ARG553  GLY616  TRP617  ASP618  TYR619  PRO620  LYS621  CYS622 
 ASP623  PHE694  ASN695  SER759  ASP760  ASP761  ALA762  ILE779  LEU786  VAL792 
 PHE793  MET794  SER795  GLU796  ALA797  LYS798  CYS799  TRP800  GLU811  SER814 

> <Gold.Protein.RotatedAtoms>
  150.6918  134.3873  159.5060 H   0  0  0  0  0  0  0  0  0  0  0  0  # atno 6907 bound_to 6896
  152.1666  134.8866  160.0547 H   0  0  0  0  0  0  0  0  0  0  0  0  # atno 6908 bound_to 6896
  151.9907  133.3755  159.4180 H   0  0  0  0  0  0  0  0  0  0  0  0  # atno 6909 bound_to 6896
  146.1771  140.4245  142.8509 H   0  0  0  0  0  0  0  0  0  0  0  0  # atno 7974 bound_to 7965
  156.1043  140.1452  156.9426 H   0  0  0  0  0  0  0  0  0  0  0  0  # atno 8008 bound_to 7997
  154.4723  140.0906  156.7220 H   0  0  0  0  0  0  0  0  0  0  0  0  # atno 8009 bound_to 7997
  155.4707  140.3441  155.4327 H   0  0  0  0  0  0  0  0  0  0  0  0  # atno 8010 bound_to 7997
  139.4920  144.4054  151.9362 H   0  0  0  0  0  0  0  0  0  0  0  0  # atno 10167 bound_to 10162
  157.6954  131.0480  150.4043 H   0  0  0  0  0  0  0  0  0  0  0  0  # atno 10718 bound_to 10713
  152.9944  135.6199  154.2583 H   0  0  0  0  0  0  0  0  0  0  0  0  # atno 10763 bound_to 10752
  154.2320  135.2792  155.2888 H   0  0  0  0  0  0  0  0  0  0  0  0  # atno 10764 bound_to 10752
  154.5442  135.5752  153.6923 H   0  0  0  0  0  0  0  0  0  0  0  0  # atno 10765 bound_to 10752
  140.3696  134.2037  155.7667 H   0  0  0  0  0  0  0  0  0  0  0  0  # atno 11005 bound_to 11000
  144.8254  140.6619  143.6326 LP  0  0  0  0  0  0  0  0  0  0  0  0  # atno 17320 bound_to 7965
  145.4181  139.1568  143.4089 LP  0  0  0  0  0  0  0  0  0  0  0  0  # atno 17321 bound_to 7965
  140.3494  144.3108  150.5952 LP  0  0  0  0  0  0  0  0  0  0  0  0  # atno 17342 bound_to 10162
  140.5498  143.2208  151.7945 LP  0  0  0  0  0  0  0  0  0  0  0  0  # atno 17343 bound_to 10162
  156.4433  130.3996  149.6683 LP  0  0  0  0  0  0  0  0  0  0  0  0  # atno 17370 bound_to 10713
  156.3858  130.7602  151.2599 LP  0  0  0  0  0  0  0  0  0  0  0  0  # atno 17371 bound_to 10713
  141.1959  133.8095  157.0696 LP  0  0  0  0  0  0  0  0  0  0  0  0  # atno 17394 bound_to 11000
  140.0562  134.9779  157.1225 LP  0  0  0  0  0  0  0  0  0  0  0  0  # atno 17395 bound_to 11000

$$$$
