AV-unprocessed.smi:1251|AV-procd|sdf|5263|dock8
  -GOLD-   22720 4373D 1   1.00000     0.00000
 Structure written by MMmdl.
 38 39  0  0  0  0  0  0  0  0  2 V2000
  148.5225  132.7611  152.5699 C   0  0  0  0  0  0  0  0  0  0  0  0
  149.6706  133.4668  153.2998 C   0  0  0  0  0  0  0  0  0  0  0  0
  149.1733  134.4197  154.3959 C   0  0  0  0  0  0  0  0  0  0  0  0
  150.2243  135.3819  154.8393 C   0  0  0  0  0  0  0  0  0  0  0  0
  151.4416  134.9958  155.2297 N   0  0  0  0  0  0  0  0  0  0  0  0
  152.2295  136.0682  155.6216 N   0  0  0  0  0  0  0  0  0  0  0  0
  151.5915  137.2447  155.5457 C   0  0  0  0  0  0  0  0  0  0  0  0
  152.1796  138.4051  155.8804 N   0  5  0  0  0  0  0  0  0  0  0  0
  151.5092  139.5702  155.7318 C   0  0  0  0  0  0  0  0  0  0  0  0
  150.8895  139.9317  154.7289 O   0  0  0  0  0  0  0  0  0  0  0  0
  151.5699  140.3655  156.8104 N   0  0  0  0  0  0  0  0  0  0  0  0
  150.9611  141.6870  156.9619 C   0  0  1  0  0  0  0  0  0  0  0  0
  149.5699  141.5196  157.5899 C   0  0  0  0  0  0  0  0  0  0  0  0
  151.8665  142.6006  157.8136 C   0  0  1  0  0  0  0  0  0  0  0  0
  151.3810  144.0441  157.9603 C   0  0  0  0  0  0  0  0  0  0  0  0
  152.0303  144.5099  159.2538 C   0  0  0  0  0  0  0  0  0  0  0  0
  152.4711  143.2125  159.9377 C   0  0  0  0  0  0  0  0  0  0  0  0
  151.8973  142.1672  159.1650 O   0  0  0  0  0  0  0  0  0  0  0  0
  149.9371  137.1103  154.9503 S   0  0  0  0  0  0  0  0  0  0  0  0
  148.9053  132.0929  151.7983 H   0  0  0  0  0  0  0  0  0  0  0  0
  147.8606  133.4816  152.0884 H   0  0  0  0  0  0  0  0  0  0  0  0
  147.9251  132.1650  153.2603 H   0  0  0  0  0  0  0  0  0  0  0  0
  150.3311  132.7179  153.7385 H   0  0  0  0  0  0  0  0  0  0  0  0
  150.2701  134.0216  152.5769 H   0  0  0  0  0  0  0  0  0  0  0  0
  148.3097  134.9833  154.0405 H   0  0  0  0  0  0  0  0  0  0  0  0
  148.8381  133.8500  155.2632 H   0  0  0  0  0  0  0  0  0  0  0  0
  152.0925  140.0190  157.6013 H   0  0  0  0  0  0  0  0  0  0  0  0
  150.8234  142.1489  155.9829 H   0  0  0  0  0  0  0  0  0  0  0  0
  149.0639  142.4802  157.6892 H   0  0  0  0  0  0  0  0  0  0  0  0
  149.6326  141.0721  158.5825 H   0  0  0  0  0  0  0  0  0  0  0  0
  148.9374  140.8788  156.9746 H   0  0  0  0  0  0  0  0  0  0  0  0
  152.8853  142.5947  157.4207 H   0  0  0  0  0  0  0  0  0  0  0  0
  151.6436  144.6667  157.1045 H   0  0  0  0  0  0  0  0  0  0  0  0
  150.2960  144.0656  158.0705 H   0  0  0  0  0  0  0  0  0  0  0  0
  152.8904  145.1514  159.0589 H   0  0  0  0  0  0  0  0  0  0  0  0
  151.3234  145.0715  159.8653 H   0  0  0  0  0  0  0  0  0  0  0  0
  153.5577  143.1190  159.9163 H   0  0  0  0  0  0  0  0  0  0  0  0
  152.1451  143.1551  160.9764 H   0  0  0  0  0  0  0  0  0  0  0  0
  1  2  1  0  0  0  0
  1 20  1  0  0  0  0
  1 21  1  0  0  0  0
  1 22  1  0  0  0  0
  2  3  1  0  0  0  0
  2 23  1  0  0  0  0
  2 24  1  0  0  0  0
  3  4  1  0  0  0  0
  3 25  1  0  0  0  0
  3 26  1  0  0  0  0
  4 19  1  0  0  0  0
  4  5  2  0  0  0  0
  5  6  1  0  0  0  0
  6  7  2  0  0  0  0
  7  8  1  0  0  0  0
  7 19  1  0  0  0  0
  8  9  1  0  0  0  0
  9 10  2  0  0  0  0
  9 11  1  0  0  0  0
 11 12  1  0  0  0  0
 11 27  1  0  0  0  0
 12 13  1  0  0  0  0
 12 14  1  0  0  0  0
 12 28  1  0  0  0  0
 13 29  1  0  0  0  0
 13 30  1  0  0  0  0
 13 31  1  0  0  0  0
 14 18  1  0  0  0  0
 14 15  1  0  0  0  0
 14 32  1  0  0  0  0
 15 16  1  0  0  0  0
 15 33  1  0  0  0  0
 15 34  1  0  0  0  0
 16 17  1  0  0  0  0
 16 35  1  0  0  0  0
 16 36  1  0  0  0  0
 17 18  1  0  0  0  0
 17 37  1  0  0  0  0
 17 38  1  0  0  0  0
M  CHG  1   8  -1
M  END
> <s_m_source_file>
AV-unprocessed.smi

> <i_m_source_file_index>
1251

> <i_lp_mmshare_version>
43012

> <i_f3d_flags>
0

> <s_epik_input>
W0NIM11bQ0gyXVtDSDJdYzFubmMoczEpW05IXUMoPU8pW05IXVtDQEhdKFtDSDNdKVtDQEBIXTJbQ0gyXVtDSDJdW0NIMl1PMg==

> <s_epik_cmdline>
J2VwaWtfcHl0aG9uJywgJy1waCcsICc3LjAnLCAnLXRuJywgJzgnLCAnLW1hJywgJzIwMCcsICctbWV0YWxfYmluZGluZycsICctaW1hZScsICc8aW5maWxlLm1hZT4nLCAnLW9tYWUnLCAnPG91dGZpbGUubWFlPic=

> <r_lp_tautomer_probability>
1

> <r_epik_Ionization_Penalty>
4.22551

> <r_epik_Ionization_Penalty_Charging>
4.21437

> <r_epik_Ionization_Penalty_Neutral>
0.0111434

> <r_epik_State_Penalty>
4.21389

> <r_epik_Charging_Adjusted_Penalty>
8.42826

> <i_epik_Tot_Q>
-1

> <i_epik_Tot_abs_Q>
1

> <r_epik_Metal_State_Penalty>
0.69377

> <b_epik_Metal_Only>
1

> <s_lp_Force_Field>
OPLS_2005

> <r_lp_Energy>
11.5683

> <b_lp_Chiralities_Consistent>
1

> <s_lp_Variant>
AV-unprocessed.smi:1251-8

> <Gold.Version>
5.8.1

> <Gold.Id.Protein>
6NUR|6NUR_protein|mol2

> <Gold.PLP.Fitness>
39.9435

> <Gold.PLP.PLP>
-35.8973

> <Gold.PLP.part.hbond>
-2.8300

> <Gold.PLP.part.metal>
0.0000

> <Gold.PLP.part.buried>
-5.6985

> <Gold.PLP.part.nonpolar>
-28.9124

> <Gold.PLP.part.repulsive>
0.2708

> <Gold.PLP.ligand.clash>
0.0000

> <Gold.PLP.ligand.torsion>
0.9643

> <Gold.PLP.Chemscore.Hbond>
1.9500

> <Gold.PLP.Chemscore.CHOScore>
0.0000

> <Gold.PLP.Chemscore.Metal>
0.0000

> <Gold.Chemscore.Hbonds>
donor molecule, donor type, donor heavy atom, donor atom, acceptor molecule, acceptor atom, score
      P1  H  7989  7998       L1    10  1.00
      P1  H 10752 10765       L1     6  0.21

> <Gold.PLP.Chemscore.Internal.Correction>
0.1249

> <Gold.Rescore>
     Score         DG    S(hbond)    S(metal)    S(lipo)     H(rot)  DE(clash)    DE(int)     intcor
     15.82     -16.94       1.85        0.00      78.85       1.55       0.13       0.99       ----

> <Gold.Chemscore.Fitness>
15.8221

> <Gold.Chemscore.DG>
-16.9362

> <Gold.Chemscore.ZeroCoef>
-5.4800

> <Gold.Chemscore.Hbond>
1.8536

> <Gold.Chemscore.Metal>
0.0000

> <Gold.Chemscore.Lipo>
78.8490

> <Gold.Chemscore.Internal_Hbond>
0.0000

> <Gold.Chemscore.DEClash>
0.1268

> <Gold.Chemscore.DEInternal>
0.9873

> <Gold.Chemscore.Rot>
1.5469

> <Gold.Chemscore.Internal.Correction>
   9.000000E+99

> <Gold.Chemscore.Hbonds>
donor molecule, donor type, donor heavy atom, donor atom, acceptor molecule, acceptor atom, score
      P1  H  7989  7998       L1    10  0.99
      P1  H 10752 10765       L1     6  0.01

> <Gold.Chemscore.Hbond.Weighted>
-6.1909

> <Gold.Chemscore.Metal.Weighted>
-0.0000

> <Gold.Chemscore.Lipo.Weighted>
-9.2253

> <Gold.Chemscore.Internal_Hbond.Weighted>
0.0000

> <Gold.Chemscore.DEClash.Weighted>
0.1268

> <Gold.Chemscore.DEInternal.Weighted>
0.9873

> <Gold.Chemscore.Rot.Weighted>
3.9600

> <Gold.Chemscore.Internal.Correction.Weighted>
   9.000000E+99

> <Gold.Protein.RotatedTorsions>
[ 6907 6896 6895 6894 ] final   -3.91 input  -60.11 | X-H torsion
[ 7974 7965 7964 7962 ] final -154.25 input  175.53 | X-H torsion
[ 8008 7997 7996 7995 ] final   63.99 input   59.86 | X-H torsion
[ 10167 10162 10161 10158 ] final  -10.96 input  -65.29 | X-H torsion
[ 10718 10713 10712 10709 ] final  125.96 input   66.30 | X-H torsion
[ 10763 10752 10751 10750 ] final -135.85 input  -60.55 | X-H torsion
[ 11005 11000 10999 10996 ] final -101.75 input  -57.11 | X-H torsion

> <Gold.Protein.ActiveResidues>
 VAL166  LYS551  ARG553  GLY616  TRP617  ASP618  TYR619  PRO620  LYS621  CYS622 
 ASP623  PHE694  ASN695  SER759  ASP760  ASP761  ALA762  ILE779  LEU786  VAL792 
 PHE793  MET794  SER795  GLU796  ALA797  LYS798  CYS799  TRP800  GLU811  SER814 

> <Gold.Protein.RotatedAtoms>
  151.5061  135.1063  159.9841 H   0  0  0  0  0  0  0  0  0  0  0  0  # atno 6907 bound_to 6896
  152.4681  133.7965  159.6940 H   0  0  0  0  0  0  0  0  0  0  0  0  # atno 6908 bound_to 6896
  150.8676  133.7489  159.2997 H   0  0  0  0  0  0  0  0  0  0  0  0  # atno 6909 bound_to 6896
  144.7699  140.4414  143.5915 H   0  0  0  0  0  0  0  0  0  0  0  0  # atno 7974 bound_to 7965
  155.6390  140.3496  155.4708 H   0  0  0  0  0  0  0  0  0  0  0  0  # atno 8008 bound_to 7997
  155.9941  140.1200  157.0633 H   0  0  0  0  0  0  0  0  0  0  0  0  # atno 8009 bound_to 7997
  154.4228  140.1113  156.5592 H   0  0  0  0  0  0  0  0  0  0  0  0  # atno 8010 bound_to 7997
  140.7127  143.5691  150.9112 H   0  0  0  0  0  0  0  0  0  0  0  0  # atno 10167 bound_to 10162
  157.5459  131.1095  150.8782 H   0  0  0  0  0  0  0  0  0  0  0  0  # atno 10718 bound_to 10713
  154.8695  135.3690  154.4966 H   0  0  0  0  0  0  0  0  0  0  0  0  # atno 10763 bound_to 10752
  153.5609  135.7023  153.5552 H   0  0  0  0  0  0  0  0  0  0  0  0  # atno 10764 bound_to 10752
  153.3628  135.4042  155.1695 H   0  0  0  0  0  0  0  0  0  0  0  0  # atno 10765 bound_to 10752
  141.1218  133.8503  157.1271 H   0  0  0  0  0  0  0  0  0  0  0  0  # atno 11005 bound_to 11000
  145.6356  139.1542  143.2944 LP  0  0  0  0  0  0  0  0  0  0  0  0  # atno 17320 bound_to 7965
  146.1837  140.6457  142.9177 LP  0  0  0  0  0  0  0  0  0  0  0  0  # atno 17321 bound_to 7965
  139.9417  143.6374  152.3052 LP  0  0  0  0  0  0  0  0  0  0  0  0  # atno 17342 bound_to 10162
  139.6861  144.7651  151.1521 LP  0  0  0  0  0  0  0  0  0  0  0  0  # atno 17343 bound_to 10162
  156.9321  130.5353  149.5279 LP  0  0  0  0  0  0  0  0  0  0  0  0  # atno 17370 bound_to 10713
  156.0535  130.5601  150.9042 LP  0  0  0  0  0  0  0  0  0  0  0  0  # atno 17371 bound_to 10713
  140.0182  134.9958  157.0536 LP  0  0  0  0  0  0  0  0  0  0  0  0  # atno 17394 bound_to 11000
  140.4485  134.1607  155.7179 LP  0  0  0  0  0  0  0  0  0  0  0  0  # atno 17395 bound_to 11000

$$$$
