AV-unprocessed.smi:1274|AV-procd|sdf|5341|dock2
  -GOLD-   22720 4473D 1   1.00000     0.00000
 Structure written by MMmdl.
 36 37  0  0  0  0  0  0  0  0  2 V2000
  153.2043  136.4981  156.9595 O   0  0  0  0  0  0  0  0  0  0  0  0
  152.3420  137.4729  157.6474 S   0  0  0  0  0  0  0  0  0  0  0  0
  151.4724  136.9786  158.7278 O   0  0  0  0  0  0  0  0  0  0  0  0
  153.1201  138.8479  158.0043 N   0  5  0  0  0  0  0  0  0  0  0  0
  152.4641  139.8444  158.8326 C   0  0  0  0  0  0  0  0  0  0  0  0
  153.5179  140.7576  159.4967 C   0  0  0  0  0  0  0  0  0  0  0  0
  152.9398  141.9586  160.2394 C   0  0  0  0  0  0  0  0  0  0  0  0
  152.3616  143.0381  159.5359 C   0  0  0  0  0  0  0  0  0  0  0  0
  151.8448  144.1274  160.2630 C   0  0  0  0  0  0  0  0  0  0  0  0
  151.9323  144.0955  161.6688 C   0  0  0  0  0  0  0  0  0  0  0  0
  152.4893  143.0748  162.3553 N   0  0  0  0  0  0  0  0  0  0  0  0
  152.9794  142.0325  161.6498 C   0  0  0  0  0  0  0  0  0  0  0  0
  151.2725  138.1325  156.4444 N   0  0  0  0  0  0  0  0  0  0  0  0
  150.2519  139.0957  156.9078 C   0  0  0  0  0  0  0  0  0  0  0  0
  149.1531  139.3101  155.8528 C   0  0  0  0  0  0  0  0  0  0  0  0
  149.7475  139.7280  154.5056 C   0  0  0  0  0  0  0  0  0  0  0  0
  150.7686  138.6785  154.0600 C   0  0  0  0  0  0  0  0  0  0  0  0
  151.8565  138.4761  155.1264 C   0  0  0  0  0  0  0  0  0  0  0  0
  151.7743  140.4636  158.2580 H   0  0  0  0  0  0  0  0  0  0  0  0
  151.8631  139.3748  159.6118 H   0  0  0  0  0  0  0  0  0  0  0  0
  154.1027  140.1694  160.2047 H   0  0  0  0  0  0  0  0  0  0  0  0
  154.2286  141.1106  158.7479 H   0  0  0  0  0  0  0  0  0  0  0  0
  152.3090  143.0273  158.4569 H   0  0  0  0  0  0  0  0  0  0  0  0
  151.3912  144.9655  159.7552 H   0  0  0  0  0  0  0  0  0  0  0  0
  151.5464  144.9141  162.2580 H   0  0  0  0  0  0  0  0  0  0  0  0
  153.4166  141.2324  162.2288 H   0  0  0  0  0  0  0  0  0  0  0  0
  149.7918  138.7351  157.8273 H   0  0  0  0  0  0  0  0  0  0  0  0
  150.7411  140.0405  157.1474 H   0  0  0  0  0  0  0  0  0  0  0  0
  148.5815  138.3891  155.7306 H   0  0  0  0  0  0  0  0  0  0  0  0
  148.4490  140.0668  156.1995 H   0  0  0  0  0  0  0  0  0  0  0  0
  148.9591  139.8302  153.7595 H   0  0  0  0  0  0  0  0  0  0  0  0
  150.2282  140.7028  154.5955 H   0  0  0  0  0  0  0  0  0  0  0  0
  150.2642  137.7303  153.8695 H   0  0  0  0  0  0  0  0  0  0  0  0
  151.2257  138.9804  153.1175 H   0  0  0  0  0  0  0  0  0  0  0  0
  152.4537  139.3825  155.2325 H   0  0  0  0  0  0  0  0  0  0  0  0
  152.5384  137.6937  154.7954 H   0  0  0  0  0  0  0  0  0  0  0  0
  1  2  2  0  0  0  0
  2  3  2  0  0  0  0
  2  4  1  0  0  0  0
  2 13  1  0  0  0  0
  4  5  1  0  0  0  0
  5  6  1  0  0  0  0
  5 19  1  0  0  0  0
  5 20  1  0  0  0  0
  6  7  1  0  0  0  0
  6 21  1  0  0  0  0
  6 22  1  0  0  0  0
  7 12  1  0  0  0  0
  7  8  2  0  0  0  0
  8  9  1  0  0  0  0
  8 23  1  0  0  0  0
  9 10  2  0  0  0  0
  9 24  1  0  0  0  0
 10 11  1  0  0  0  0
 10 25  1  0  0  0  0
 11 12  2  0  0  0  0
 12 26  1  0  0  0  0
 13 18  1  0  0  0  0
 13 14  1  0  0  0  0
 14 15  1  0  0  0  0
 14 27  1  0  0  0  0
 14 28  1  0  0  0  0
 15 16  1  0  0  0  0
 15 29  1  0  0  0  0
 15 30  1  0  0  0  0
 16 17  1  0  0  0  0
 16 31  1  0  0  0  0
 16 32  1  0  0  0  0
 17 18  1  0  0  0  0
 17 33  1  0  0  0  0
 17 34  1  0  0  0  0
 18 35  1  0  0  0  0
 18 36  1  0  0  0  0
M  CHG  1   4  -1
M  END
> <s_m_source_file>
AV-unprocessed.smi

> <i_m_source_file_index>
1274

> <i_lp_mmshare_version>
43012

> <i_f3d_flags>
0

> <s_epik_input>
W0NIMl0xW0NIMl1bQ0gyXVtDSDJdW0NIMl1OMVMoPU8pKD1PKVtOSF1bQ0gyXVtDSDJdYzJbY0hdW2NIXVtjSF1uW2NIXTI=

> <s_epik_cmdline>
J2VwaWtfcHl0aG9uJywgJy1waCcsICc3LjAnLCAnLXRuJywgJzgnLCAnLW1hJywgJzIwMCcsICctbWV0YWxfYmluZGluZycsICctaW1hZScsICc8aW5maWxlLm1hZT4nLCAnLW9tYWUnLCAnPG91dGZpbGUubWFlPic=

> <r_epik_Ionization_Penalty>
1.98317

> <r_epik_Ionization_Penalty_Charging>
1.95606

> <r_epik_Ionization_Penalty_Neutral>
0.027117

> <r_epik_State_Penalty>
2.28376

> <r_epik_Charging_Adjusted_Penalty>
4.23982

> <i_epik_Tot_Q>
-1

> <i_epik_Tot_abs_Q>
1

> <r_epik_Metal_State_Penalty>
0.598332

> <b_epik_Metal_Only>
0

> <s_lp_Force_Field>
OPLS_2005

> <r_lp_Energy>
4.69546

> <b_lp_Chiralities_Consistent>
1

> <s_lp_Variant>
AV-unprocessed.smi:1274-2

> <Gold.Version>
5.8.1

> <Gold.Id.Protein>
6NUR|6NUR_protein|mol2

> <Gold.PLP.Fitness>
46.7870

> <Gold.PLP.PLP>
-36.5250

> <Gold.PLP.part.hbond>
-3.0000

> <Gold.PLP.part.metal>
0.0000

> <Gold.PLP.part.buried>
-5.5386

> <Gold.PLP.part.nonpolar>
-28.6245

> <Gold.PLP.part.repulsive>
0.1308

> <Gold.PLP.ligand.clash>
0.0000

> <Gold.PLP.ligand.torsion>
1.0830

> <Gold.PLP.Chemscore.Hbond>
3.6178

> <Gold.PLP.Chemscore.CHOScore>
0.0000

> <Gold.PLP.Chemscore.Metal>
0.0000

> <Gold.Chemscore.Hbonds>
donor molecule, donor type, donor heavy atom, donor atom, acceptor molecule, acceptor atom, score
      P1  H  6896  6909       L1     3  0.55
      P1  H  7997  8008       L1     4  1.53
      P1  H 10752 10764       L1     1  1.00

> <Gold.PLP.Chemscore.Internal.Correction>
1.5749

> <Gold.Rescore>
     Score         DG    S(hbond)    S(metal)    S(lipo)     H(rot)  DE(clash)    DE(int)     intcor
     18.29     -19.33       1.84        0.00      97.74       1.45       0.00       1.04       ----

> <Gold.Chemscore.Fitness>
18.2869

> <Gold.Chemscore.DG>
-19.3267

> <Gold.Chemscore.ZeroCoef>
-5.4800

> <Gold.Chemscore.Hbond>
1.8365

> <Gold.Chemscore.Metal>
0.0000

> <Gold.Chemscore.Lipo>
97.7449

> <Gold.Chemscore.Internal_Hbond>
0.0000

> <Gold.Chemscore.DEClash>
0.0015

> <Gold.Chemscore.DEInternal>
1.0384

> <Gold.Chemscore.Rot>
1.4544

> <Gold.Chemscore.Internal.Correction>
   9.000000E+99

> <Gold.Chemscore.Hbonds>
donor molecule, donor type, donor heavy atom, donor atom, acceptor molecule, acceptor atom, score
      P1  H  6896  6909       L1     3  0.53
      P1  H  7997  8008       L1     4  0.27
      P1  H 10752 10764       L1     1  0.92

> <Gold.Chemscore.Hbond.Weighted>
-6.1337

> <Gold.Chemscore.Metal.Weighted>
-0.0000

> <Gold.Chemscore.Lipo.Weighted>
-11.4362

> <Gold.Chemscore.Internal_Hbond.Weighted>
0.0000

> <Gold.Chemscore.DEClash.Weighted>
0.0015

> <Gold.Chemscore.DEInternal.Weighted>
1.0384

> <Gold.Chemscore.Rot.Weighted>
3.7232

> <Gold.Chemscore.Internal.Correction.Weighted>
   9.000000E+99

> <Gold.Protein.RotatedTorsions>
[ 6907 6896 6895 6894 ] final  102.70 input  -60.11 | X-H torsion
[ 7974 7965 7964 7962 ] final -169.73 input  175.53 | X-H torsion
[ 8008 7997 7996 7995 ] final  -80.65 input   59.86 | X-H torsion
[ 10167 10162 10161 10158 ] final  -59.83 input  -65.29 | X-H torsion
[ 10718 10713 10712 10709 ] final  132.80 input   66.30 | X-H torsion
[ 10763 10752 10751 10750 ] final   10.00 input  -60.55 | X-H torsion
[ 11005 11000 10999 10996 ] final -116.96 input  -57.11 | X-H torsion

> <Gold.Protein.ActiveResidues>
 VAL166  LYS551  ARG553  GLY616  TRP617  ASP618  TYR619  PRO620  LYS621  CYS622 
 ASP623  PHE694  ASN695  SER759  ASP760  ASP761  ALA762  ILE779  LEU786  VAL792 
 PHE793  MET794  SER795  GLU796  ALA797  LYS798  CYS799  TRP800  GLU811  SER814 

> <Gold.Protein.RotatedAtoms>
  152.5316  133.9935  159.7861 H   0  0  0  0  0  0  0  0  0  0  0  0  # atno 6907 bound_to 6896
  151.0167  133.5906  159.2683 H   0  0  0  0  0  0  0  0  0  0  0  0  # atno 6908 bound_to 6896
  151.2961  135.0762  159.9275 H   0  0  0  0  0  0  0  0  0  0  0  0  # atno 6909 bound_to 6896
  144.7181  140.2177  143.6320 H   0  0  0  0  0  0  0  0  0  0  0  0  # atno 7974 bound_to 7965
  154.5904  140.0659  156.9231 H   0  0  0  0  0  0  0  0  0  0  0  0  # atno 8008 bound_to 7997
  155.2305  140.3337  155.4286 H   0  0  0  0  0  0  0  0  0  0  0  0  # atno 8009 bound_to 7997
  156.2252  140.1816  156.7365 H   0  0  0  0  0  0  0  0  0  0  0  0  # atno 8010 bound_to 7997
  140.6110  143.2387  151.5709 H   0  0  0  0  0  0  0  0  0  0  0  0  # atno 10167 bound_to 10162
  157.4836  131.1087  150.9650 H   0  0  0  0  0  0  0  0  0  0  0  0  # atno 10718 bound_to 10713
  153.2079  135.6865  153.8150 H   0  0  0  0  0  0  0  0  0  0  0  0  # atno 10763 bound_to 10752
  153.7393  135.3240  155.3302 H   0  0  0  0  0  0  0  0  0  0  0  0  # atno 10764 bound_to 10752
  154.8206  135.4654  154.0873 H   0  0  0  0  0  0  0  0  0  0  0  0  # atno 10765 bound_to 10752
  141.0387  133.9870  157.3030 H   0  0  0  0  0  0  0  0  0  0  0  0  # atno 11005 bound_to 11000
  145.8530  139.2185  143.1761 LP  0  0  0  0  0  0  0  0  0  0  0  0  # atno 17320 bound_to 7965
  146.0243  140.8318  142.9908 LP  0  0  0  0  0  0  0  0  0  0  0  0  # atno 17321 bound_to 7965
  139.5361  144.2777  152.1254 LP  0  0  0  0  0  0  0  0  0  0  0  0  # atno 17342 bound_to 10162
  140.1976  144.4690  150.6447 LP  0  0  0  0  0  0  0  0  0  0  0  0  # atno 17343 bound_to 10162
  157.0375  130.5736  149.5351 LP  0  0  0  0  0  0  0  0  0  0  0  0  # atno 17370 bound_to 10713
  156.0134  130.5227  150.8061 LP  0  0  0  0  0  0  0  0  0  0  0  0  # atno 17371 bound_to 10713
  139.9259  135.0201  156.8233 LP  0  0  0  0  0  0  0  0  0  0  0  0  # atno 17394 bound_to 11000
  140.6275  133.9937  155.7646 LP  0  0  0  0  0  0  0  0  0  0  0  0  # atno 17395 bound_to 11000

$$$$
