AV-unprocessed.smi:2030|AV-procd|sdf|8225|dock4
  -GOLD-   2272010493D 1   1.00000     0.00000
 Structure written by MMmdl.
 36 37  0  0  0  0  0  0  0  0  2 V2000
  150.8878  145.2913  159.4531 C   0  0  0  0  0  0  0  0  0  0  0  0
  151.3328  143.9038  159.3387 N   0  0  0  0  0  0  0  0  0  0  0  0
  150.9031  143.2489  158.2024 N   0  0  0  0  0  0  0  0  0  0  0  0
  151.0203  141.9656  158.0617 C   0  0  0  0  0  0  0  0  0  0  0  0
  150.5280  141.3043  156.8229 C   0  0  0  0  0  0  0  0  0  0  0  0
  150.7060  140.1012  156.6290 O   0  0  0  0  0  0  0  0  0  0  0  0
  149.8871  142.0971  155.9445 N   0  0  0  0  0  0  0  0  0  0  0  0
  149.3221  141.6553  154.6754 C   0  0  0  0  0  0  0  0  0  0  0  0
  147.9582  140.9722  154.8696 C   0  0  0  0  0  0  0  0  0  0  0  0
  146.8161  141.9687  154.8951 C   0  0  0  0  0  0  0  0  0  0  0  0
  146.5040  142.7839  153.7854 C   0  0  0  0  0  0  0  0  0  0  0  0
  145.4307  143.6944  153.8803 C   0  0  0  0  0  0  0  0  0  0  0  0
  144.6936  143.7702  155.0803 C   0  0  0  0  0  0  0  0  0  0  0  0
  145.0491  142.9329  156.1574 C   0  0  0  0  0  0  0  0  0  0  0  0
  146.0845  142.0744  156.0281 N   0  3  0  0  0  0  0  0  0  0  0  0
  151.6280  141.1224  159.1656 C   0  0  0  0  0  0  0  0  0  0  0  0
  152.6173  141.9274  160.0314 C   0  0  0  0  0  0  0  0  0  0  0  0
  152.1331  143.3574  160.2878 C   0  0  0  0  0  0  0  0  0  0  0  0
  152.4964  143.9524  161.3022 O   0  0  0  0  0  0  0  0  0  0  0  0
  151.7428  145.9688  159.4712 H   0  0  0  0  0  0  0  0  0  0  0  0
  150.3166  145.4375  160.3709 H   0  0  0  0  0  0  0  0  0  0  0  0
  150.2500  145.5874  158.6186 H   0  0  0  0  0  0  0  0  0  0  0  0
  149.7801  143.0737  156.1803 H   0  0  0  0  0  0  0  0  0  0  0  0
  149.2349  142.5035  153.9942 H   0  0  0  0  0  0  0  0  0  0  0  0
  150.0244  140.9592  154.2160 H   0  0  0  0  0  0  0  0  0  0  0  0
  147.7857  140.2498  154.0706 H   0  0  0  0  0  0  0  0  0  0  0  0
  147.9456  140.4065  155.8020 H   0  0  0  0  0  0  0  0  0  0  0  0
  147.0790  142.7153  152.8732 H   0  0  0  0  0  0  0  0  0  0  0  0
  145.1766  144.3272  153.0425 H   0  0  0  0  0  0  0  0  0  0  0  0
  143.8682  144.4608  155.1734 H   0  0  0  0  0  0  0  0  0  0  0  0
  144.5414  142.9245  157.1110 H   0  0  0  0  0  0  0  0  0  0  0  0
  150.8302  140.7193  159.7904 H   0  0  0  0  0  0  0  0  0  0  0  0
  152.1557  140.2637  158.7491 H   0  0  0  0  0  0  0  0  0  0  0  0
  152.7963  141.4162  160.9778 H   0  0  0  0  0  0  0  0  0  0  0  0
  153.5799  141.9938  159.5228 H   0  0  0  0  0  0  0  0  0  0  0  0
  146.3254  141.4788  156.8211 H   0  0  0  0  0  0  0  0  0  0  0  0
  1  2  1  0  0  0  0
  1 20  1  0  0  0  0
  1 21  1  0  0  0  0
  1 22  1  0  0  0  0
  2 18  1  0  0  0  0
  2  3  1  0  0  0  0
  3  4  2  0  0  0  0
  4  5  1  0  0  0  0
  4 16  1  0  0  0  0
  5  6  2  0  0  0  0
  5  7  1  0  0  0  0
  7  8  1  0  0  0  0
  7 23  1  0  0  0  0
  8  9  1  0  0  0  0
  8 24  1  0  0  0  0
  8 25  1  0  0  0  0
  9 10  1  0  0  0  0
  9 26  1  0  0  0  0
  9 27  1  0  0  0  0
 10 15  1  0  0  0  0
 10 11  2  0  0  0  0
 11 12  1  0  0  0  0
 11 28  1  0  0  0  0
 12 13  2  0  0  0  0
 12 29  1  0  0  0  0
 13 14  1  0  0  0  0
 13 30  1  0  0  0  0
 14 15  2  0  0  0  0
 14 31  1  0  0  0  0
 15 36  1  0  0  0  0
 16 17  1  0  0  0  0
 16 32  1  0  0  0  0
 16 33  1  0  0  0  0
 17 18  1  0  0  0  0
 17 34  1  0  0  0  0
 17 35  1  0  0  0  0
 18 19  2  0  0  0  0
M  CHG  1  15   1
M  END
> <s_m_source_file>
AV-unprocessed.smi

> <i_m_source_file_index>
2030

> <i_lp_mmshare_version>
43012

> <i_f3d_flags>
0

> <s_epik_input>
Tz1DMVtDSDJdW0NIMl1DKD1OTjFbQ0gzXSlDKD1PKVtOSF1bQ0gyXVtDSDJdYzJbY0hdW2NIXVtjSF1bY0hdbjI=

> <s_epik_cmdline>
J2VwaWtfcHl0aG9uJywgJy1waCcsICc3LjAnLCAnLXRuJywgJzgnLCAnLW1hJywgJzIwMCcsICctbWV0YWxfYmluZGluZycsICctaW1hZScsICc8aW5maWxlLm1hZT4nLCAnLW9tYWUnLCAnPG91dGZpbGUubWFlPic=

> <r_epik_Ionization_Penalty>
2.09642

> <r_epik_Ionization_Penalty_Charging>
2.0963

> <r_epik_Ionization_Penalty_Neutral>
0.00011851

> <r_epik_State_Penalty>
2.23213

> <r_epik_Charging_Adjusted_Penalty>
4.32843

> <i_epik_Tot_Q>
1

> <i_epik_Tot_abs_Q>
1

> <r_epik_Metal_State_Penalty>
2.41268

> <b_epik_Metal_Only>
0

> <s_epik_Chemistry_Notes>
This compound has an imine and may undergo hydrolysis.

> <s_lp_Force_Field>
OPLS_2005

> <r_lp_Energy>
21.0672

> <b_lp_Chiralities_Consistent>
1

> <s_lp_Variant>
AV-unprocessed.smi:2030-2

> <Gold.Version>
5.8.1

> <Gold.Id.Protein>
6NUR|6NUR_protein|mol2

> <Gold.PLP.Fitness>
41.2015

> <Gold.PLP.PLP>
-39.1613

> <Gold.PLP.part.hbond>
-1.0000

> <Gold.PLP.part.metal>
0.0000

> <Gold.PLP.part.buried>
-5.5542

> <Gold.PLP.part.nonpolar>
-32.4937

> <Gold.PLP.part.repulsive>
0.3579

> <Gold.PLP.ligand.clash>
0.0000

> <Gold.PLP.ligand.torsion>
0.3076

> <Gold.PLP.Chemscore.Hbond>
0.8800

> <Gold.PLP.Chemscore.CHOScore>
0.0000

> <Gold.PLP.Chemscore.Metal>
0.0000

> <Gold.Chemscore.Hbonds>
donor molecule, donor type, donor heavy atom, donor atom, acceptor molecule, acceptor atom, score
      L1  H     7    23       P1  8028  0.88

> <Gold.PLP.Chemscore.Internal.Correction>
0.0154

> <Gold.Rescore>
     Score         DG    S(hbond)    S(metal)    S(lipo)     H(rot)  DE(clash)    DE(int)     intcor
     12.70     -13.08       0.85        0.00      73.80       1.52       0.06       0.32       ----

> <Gold.Chemscore.Fitness>
12.7008

> <Gold.Chemscore.DG>
-13.0848

> <Gold.Chemscore.ZeroCoef>
-5.4800

> <Gold.Chemscore.Hbond>
0.8532

> <Gold.Chemscore.Metal>
0.0000

> <Gold.Chemscore.Lipo>
73.8044

> <Gold.Chemscore.Internal_Hbond>
0.0000

> <Gold.Chemscore.DEClash>
0.0618

> <Gold.Chemscore.DEInternal>
0.3222

> <Gold.Chemscore.Rot>
1.5157

> <Gold.Chemscore.Internal.Correction>
   9.000000E+99

> <Gold.Chemscore.Hbonds>
donor molecule, donor type, donor heavy atom, donor atom, acceptor molecule, acceptor atom, score
      L1  H     7    23       P1  8028  0.86

> <Gold.Chemscore.Hbond.Weighted>
-2.8498

> <Gold.Chemscore.Metal.Weighted>
-0.0000

> <Gold.Chemscore.Lipo.Weighted>
-8.6351

> <Gold.Chemscore.Internal_Hbond.Weighted>
0.0000

> <Gold.Chemscore.DEClash.Weighted>
0.0618

> <Gold.Chemscore.DEInternal.Weighted>
0.3222

> <Gold.Chemscore.Rot.Weighted>
3.8801

> <Gold.Chemscore.Internal.Correction.Weighted>
   9.000000E+99

> <Gold.Protein.RotatedTorsions>
[ 6907 6896 6895 6894 ] final  -16.88 input  -60.11 | X-H torsion
[ 7974 7965 7964 7962 ] final   -0.90 input  175.53 | X-H torsion
[ 8008 7997 7996 7995 ] final  -94.16 input   59.86 | X-H torsion
[ 10167 10162 10161 10158 ] final  -77.89 input  -65.29 | X-H torsion
[ 10718 10713 10712 10709 ] final   73.39 input   66.30 | X-H torsion
[ 10763 10752 10751 10750 ] final  155.52 input  -60.55 | X-H torsion
[ 11005 11000 10999 10996 ] final  -86.67 input  -57.11 | X-H torsion

> <Gold.Protein.ActiveResidues>
 VAL166  LYS551  ARG553  GLY616  TRP617  ASP618  TYR619  PRO620  LYS621  CYS622 
 ASP623  PHE694  ASN695  SER759  ASP760  ASP761  ALA762  ILE779  LEU786  VAL792 
 PHE793  MET794  SER795  GLU796  ALA797  LYS798  CYS799  TRP800  GLU811  SER814 

> <Gold.Protein.RotatedAtoms>
  151.3018  135.0770  159.9240 H   0  0  0  0  0  0  0  0  0  0  0  0  # atno 6907 bound_to 6896
  152.5296  133.9825  159.7824 H   0  0  0  0  0  0  0  0  0  0  0  0  # atno 6908 bound_to 6896
  151.0113  133.5911  159.2712 H   0  0  0  0  0  0  0  0  0  0  0  0  # atno 6909 bound_to 6896
  146.2423  140.1340  142.8337 H   0  0  0  0  0  0  0  0  0  0  0  0  # atno 7974 bound_to 7965
  154.7449  140.0492  157.0843 H   0  0  0  0  0  0  0  0  0  0  0  0  # atno 8008 bound_to 7997
  155.0131  140.3138  155.4802 H   0  0  0  0  0  0  0  0  0  0  0  0  # atno 8009 bound_to 7997
  156.2872  140.2180  156.5247 H   0  0  0  0  0  0  0  0  0  0  0  0  # atno 8010 bound_to 7997
  140.4730  143.2421  151.8176 H   0  0  0  0  0  0  0  0  0  0  0  0  # atno 10167 bound_to 10162
  157.6545  130.9626  150.1062 H   0  0  0  0  0  0  0  0  0  0  0  0  # atno 10718 bound_to 10713
  154.1697  135.2805  155.3084 H   0  0  0  0  0  0  0  0  0  0  0  0  # atno 10763 bound_to 10752
  154.6084  135.5507  153.7451 H   0  0  0  0  0  0  0  0  0  0  0  0  # atno 10764 bound_to 10752
  153.0168  135.6409  154.1838 H   0  0  0  0  0  0  0  0  0  0  0  0  # atno 10765 bound_to 10752
  141.1627  133.7468  156.9196 H   0  0  0  0  0  0  0  0  0  0  0  0  # atno 11005 bound_to 11000
  145.0302  140.8865  143.5114 LP  0  0  0  0  0  0  0  0  0  0  0  0  # atno 17320 bound_to 7965
  145.1403  139.2576  143.5494 LP  0  0  0  0  0  0  0  0  0  0  0  0  # atno 17321 bound_to 7965
  139.4821  144.4868  151.9236 LP  0  0  0  0  0  0  0  0  0  0  0  0  # atno 17342 bound_to 10162
  140.3953  144.2563  150.5896 LP  0  0  0  0  0  0  0  0  0  0  0  0  # atno 17343 bound_to 10162
  156.1971  130.3658  149.8835 LP  0  0  0  0  0  0  0  0  0  0  0  0  # atno 17370 bound_to 10713
  156.6749  130.8835  151.3567 LP  0  0  0  0  0  0  0  0  0  0  0  0  # atno 17371 bound_to 10713
  140.1461  134.9261  157.2531 LP  0  0  0  0  0  0  0  0  0  0  0  0  # atno 17394 bound_to 11000
  140.2779  134.3384  155.7352 LP  0  0  0  0  0  0  0  0  0  0  0  0  # atno 17395 bound_to 11000

$$$$
