AV-unprocessed.smi:837|AV-procd|sdf|3899|dock4
  -GOLD-   22720 1353D 1   1.00000     0.00000
 Structure written by MMmdl.
 50 52  0  0  0  0  0  0  0  0  2 V2000
  150.5434  140.9507  155.7962 C   0  0  0  0  0  0  0  0  0  0  0  0
  151.4994  141.4954  156.8796 C   0  0  1  0  0  0  0  0  0  0  0  0
  151.0088  142.8720  157.3785 C   0  0  0  0  0  0  0  0  0  0  0  0
  151.9682  143.4865  158.4099 C   0  0  0  0  0  0  0  0  0  0  0  0
  152.1987  142.5394  159.5954 C   0  0  0  0  0  0  0  0  0  0  0  0
  152.7013  141.1686  159.1148 C   0  0  0  0  0  0  0  0  0  0  0  0
  151.7424  140.5301  158.0812 C   0  0  1  0  0  0  0  0  0  0  0  0
  150.5015  140.1137  158.7138 N   0  0  0  0  0  0  0  0  0  0  0  0
  150.3156  138.7887  158.6749 C   0  0  0  0  0  0  0  0  0  0  0  0
  149.3412  138.1954  159.1357 O   0  0  0  0  0  0  0  0  0  0  0  0
  151.3639  138.2319  158.0414 N   0  0  0  0  0  0  0  0  0  0  0  0
  151.4885  136.7961  157.7609 C   0  0  0  0  0  0  0  0  0  0  0  0
  151.0766  136.4331  156.3276 C   0  0  0  0  0  0  0  0  0  0  0  0
  151.6898  136.8856  155.3601 O   0  0  0  0  0  0  0  0  0  0  0  0
  150.0248  135.6095  156.2089 N   0  0  0  0  0  0  0  0  0  0  0  0
  149.4368  135.1714  154.9462 C   0  0  0  0  0  0  0  0  0  0  0  0
  148.2976  134.1475  155.1333 C   0  0  0  0  0  0  0  0  0  0  0  0
  147.5859  133.7851  153.8406 C   0  0  0  0  0  0  0  0  0  0  0  0
  146.4210  134.4782  153.4417 C   0  0  0  0  0  0  0  0  0  0  0  0
  145.7727  134.1105  152.2447 C   0  0  0  0  0  0  0  0  0  0  0  0
  146.3045  133.0583  151.4718 C   0  0  0  0  0  0  0  0  0  0  0  0
  147.4216  132.4194  151.8837 N   0  3  0  0  0  0  0  0  0  0  0  0
  148.0722  132.7419  153.0234 C   0  0  0  0  0  0  0  0  0  0  0  0
  152.2499  139.1590  157.6517 C   0  0  0  0  0  0  0  0  0  0  0  0
  153.3001  138.9730  157.0369 O   0  0  0  0  0  0  0  0  0  0  0  0
  149.5478  140.7573  156.1960 H   0  0  0  0  0  0  0  0  0  0  0  0
  150.9119  140.0239  155.3567 H   0  0  0  0  0  0  0  0  0  0  0  0
  150.4343  141.6660  154.9808 H   0  0  0  0  0  0  0  0  0  0  0  0
  152.4625  141.6591  156.3930 H   0  0  0  0  0  0  0  0  0  0  0  0
  150.9037  143.5561  156.5358 H   0  0  0  0  0  0  0  0  0  0  0  0
  150.0153  142.7756  157.8183 H   0  0  0  0  0  0  0  0  0  0  0  0
  152.9221  143.7113  157.9314 H   0  0  0  0  0  0  0  0  0  0  0  0
  151.5702  144.4368  158.7670 H   0  0  0  0  0  0  0  0  0  0  0  0
  152.9209  142.9777  160.2846 H   0  0  0  0  0  0  0  0  0  0  0  0
  151.2716  142.4198  160.1571 H   0  0  0  0  0  0  0  0  0  0  0  0
  153.6904  141.2923  158.6706 H   0  0  0  0  0  0  0  0  0  0  0  0
  152.8357  140.5090  159.9736 H   0  0  0  0  0  0  0  0  0  0  0  0
  149.8570  140.7683  159.1331 H   0  0  0  0  0  0  0  0  0  0  0  0
  152.5141  136.4600  157.9211 H   0  0  0  0  0  0  0  0  0  0  0  0
  150.8774  136.2356  158.4708 H   0  0  0  0  0  0  0  0  0  0  0  0
  149.5894  135.2737  157.0559 H   0  0  0  0  0  0  0  0  0  0  0  0
  149.0872  136.0316  154.3731 H   0  0  0  0  0  0  0  0  0  0  0  0
  150.2370  134.7175  154.3610 H   0  0  0  0  0  0  0  0  0  0  0  0
  148.6929  133.2372  155.5863 H   0  0  0  0  0  0  0  0  0  0  0  0
  147.5655  134.5376  155.8413 H   0  0  0  0  0  0  0  0  0  0  0  0
  146.0209  135.2768  154.0500 H   0  0  0  0  0  0  0  0  0  0  0  0
  144.8777  134.6264  151.9283 H   0  0  0  0  0  0  0  0  0  0  0  0
  145.8729  132.7106  150.5444 H   0  0  0  0  0  0  0  0  0  0  0  0
  148.9523  132.1566  153.2475 H   0  0  0  0  0  0  0  0  0  0  0  0
  147.7893  131.6599  151.3100 H   0  0  0  0  0  0  0  0  0  0  0  0
  1  2  1  0  0  0  0
  1 26  1  0  0  0  0
  1 27  1  0  0  0  0
  1 28  1  0  0  0  0
  2  7  1  0  0  0  0
  2  3  1  0  0  0  0
  2 29  1  0  0  0  0
  3  4  1  0  0  0  0
  3 30  1  0  0  0  0
  3 31  1  0  0  0  0
  4  5  1  0  0  0  0
  4 32  1  0  0  0  0
  4 33  1  0  0  0  0
  5  6  1  0  0  0  0
  5 34  1  0  0  0  0
  5 35  1  0  0  0  0
  6  7  1  0  0  0  0
  6 36  1  0  0  0  0
  6 37  1  0  0  0  0
  7 24  1  0  0  0  0
  7  8  1  0  0  0  0
  8  9  1  0  0  0  0
  8 38  1  0  0  0  0
  9 10  2  0  0  0  0
  9 11  1  0  0  0  0
 11 12  1  0  0  0  0
 11 24  1  0  0  0  0
 12 13  1  0  0  0  0
 12 39  1  0  0  0  0
 12 40  1  0  0  0  0
 13 14  2  0  0  0  0
 13 15  1  0  0  0  0
 15 16  1  0  0  0  0
 15 41  1  0  0  0  0
 16 17  1  0  0  0  0
 16 42  1  0  0  0  0
 16 43  1  0  0  0  0
 17 18  1  0  0  0  0
 17 44  1  0  0  0  0
 17 45  1  0  0  0  0
 18 23  1  0  0  0  0
 18 19  2  0  0  0  0
 19 20  1  0  0  0  0
 19 46  1  0  0  0  0
 20 21  2  0  0  0  0
 20 47  1  0  0  0  0
 21 22  1  0  0  0  0
 21 48  1  0  0  0  0
 22 23  2  0  0  0  0
 22 50  1  0  0  0  0
 23 49  1  0  0  0  0
 24 25  2  0  0  0  0
M  CHG  1  22   1
M  END
> <s_m_source_file>
AV-unprocessed.smi

> <i_m_source_file_index>
837

> <i_lp_mmshare_version>
43012

> <i_f3d_flags>
0

> <s_epik_input>
W0NIMl0xW0NIMl1bQ0gyXVtDSDJdW0NAQEhdKFtDSDNdKVtDQEBdMTJbTkhdQyg9TylOKEMyPU8pW0NIMl1DKD1PKVtOSF1bQ0gyXVtDSDJdYzNbY0hdW2NIXVtjSF1uW2NIXTM=

> <s_epik_cmdline>
J2VwaWtfcHl0aG9uJywgJy1waCcsICc3LjAnLCAnLXRuJywgJzgnLCAnLW1hJywgJzIwMCcsICctbWV0YWxfYmluZGluZycsICctaW1hZScsICc8aW5maWxlLm1hZT4nLCAnLW9tYWUnLCAnPG91dGZpbGUubWFlPic=

> <r_lp_tautomer_probability>
1

> <r_epik_Ionization_Penalty>
2.28139

> <r_epik_Ionization_Penalty_Charging>
2.28135

> <r_epik_Ionization_Penalty_Neutral>
4.65525e-05

> <r_epik_State_Penalty>
2.43066

> <r_epik_Charging_Adjusted_Penalty>
4.71201

> <i_epik_Tot_Q>
1

> <i_epik_Tot_abs_Q>
1

> <r_epik_Metal_State_Penalty>
2.4646

> <b_epik_Metal_Only>
0

> <s_lp_Force_Field>
OPLS_2005

> <r_lp_Energy>
30.2127

> <b_lp_Chiralities_Consistent>
1

> <s_lp_Variant>
AV-unprocessed.smi:837-8

> <Gold.Version>
5.8.1

> <Gold.Id.Protein>
6NUR|6NUR_protein|mol2

> <Gold.PLP.Fitness>
45.8624

> <Gold.PLP.PLP>
-38.1829

> <Gold.PLP.part.hbond>
-3.6502

> <Gold.PLP.part.metal>
0.0000

> <Gold.PLP.part.buried>
-4.9454

> <Gold.PLP.part.nonpolar>
-30.8710

> <Gold.PLP.part.repulsive>
0.4111

> <Gold.PLP.ligand.clash>
0.0000

> <Gold.PLP.ligand.torsion>
0.6718

> <Gold.PLP.Chemscore.Hbond>
2.9913

> <Gold.PLP.Chemscore.CHOScore>
0.0000

> <Gold.PLP.Chemscore.Metal>
0.0000

> <Gold.Chemscore.Hbonds>
donor molecule, donor type, donor heavy atom, donor atom, acceptor molecule, acceptor atom, score
      L1  H    22    50       P1 10747  1.00
      P1  H  7997  8008       L1    25  1.00
      P1  H 10752 10764       L1    14  1.00

> <Gold.PLP.Chemscore.Internal.Correction>
0.0493

> <Gold.Rescore>
     Score         DG    S(hbond)    S(metal)    S(lipo)     H(rot)  DE(clash)    DE(int)     intcor
     20.18     -21.00       2.92        0.00      92.32       1.96       0.00       0.81       ----

> <Gold.Chemscore.Fitness>
20.1842

> <Gold.Chemscore.DG>
-20.9975

> <Gold.Chemscore.ZeroCoef>
-5.4800

> <Gold.Chemscore.Hbond>
2.9173

> <Gold.Chemscore.Metal>
0.0000

> <Gold.Chemscore.Lipo>
92.3177

> <Gold.Chemscore.Internal_Hbond>
0.0000

> <Gold.Chemscore.DEClash>
0.0000

> <Gold.Chemscore.DEInternal>
0.8133

> <Gold.Chemscore.Rot>
1.9638

> <Gold.Chemscore.Internal.Correction>
   9.000000E+99

> <Gold.Chemscore.Hbonds>
donor molecule, donor type, donor heavy atom, donor atom, acceptor molecule, acceptor atom, score
      L1  H    22    50       P1 10747  0.98
      P1  H  7997  8008       L1    25  0.95
      P1  H 10752 10764       L1    14  0.73

> <Gold.Chemscore.Hbond.Weighted>
-9.7438

> <Gold.Chemscore.Metal.Weighted>
-0.0000

> <Gold.Chemscore.Lipo.Weighted>
-10.8012

> <Gold.Chemscore.Internal_Hbond.Weighted>
0.0000

> <Gold.Chemscore.DEClash.Weighted>
0.0000

> <Gold.Chemscore.DEInternal.Weighted>
0.8133

> <Gold.Chemscore.Rot.Weighted>
5.0274

> <Gold.Chemscore.Internal.Correction.Weighted>
   9.000000E+99

> <Gold.Protein.RotatedTorsions>
[ 6907 6896 6895 6894 ] final  122.19 input  -60.11 | X-H torsion
[ 7974 7965 7964 7962 ] final  -38.48 input  175.53 | X-H torsion
[ 8008 7997 7996 7995 ] final  -81.11 input   59.86 | X-H torsion
[ 10167 10162 10161 10158 ] final -107.18 input  -65.29 | X-H torsion
[ 10718 10713 10712 10709 ] final  -21.26 input   66.30 | X-H torsion
[ 10763 10752 10751 10750 ] final  -53.20 input  -60.55 | X-H torsion
[ 11005 11000 10999 10996 ] final  107.79 input  -57.11 | X-H torsion

> <Gold.Protein.ActiveResidues>
 VAL166  LYS551  ARG553  GLY616  TRP617  ASP618  TYR619  PRO620  LYS621  CYS622 
 ASP623  PHE694  ASN695  SER759  ASP760  ASP761  ALA762  ILE779  LEU786  VAL792 
 PHE793  MET794  SER795  GLU796  ALA797  LYS798  CYS799  TRP800  GLU811  SER814 

> <Gold.Protein.RotatedAtoms>
  152.4262  133.7199  159.6527 H   0  0  0  0  0  0  0  0  0  0  0  0  # atno 6907 bound_to 6896
  150.8139  133.8362  159.3175 H   0  0  0  0  0  0  0  0  0  0  0  0  # atno 6908 bound_to 6896
  151.6064  135.1045  160.0123 H   0  0  0  0  0  0  0  0  0  0  0  0  # atno 6909 bound_to 6896
  146.0482  140.6517  142.9054 H   0  0  0  0  0  0  0  0  0  0  0  0  # atno 7974 bound_to 7965
  154.5950  140.0653  156.9291 H   0  0  0  0  0  0  0  0  0  0  0  0  # atno 8008 bound_to 7997
  155.2229  140.3331  155.4295 H   0  0  0  0  0  0  0  0  0  0  0  0  # atno 8009 bound_to 7997
  156.2281  140.1828  156.7296 H   0  0  0  0  0  0  0  0  0  0  0  0  # atno 8010 bound_to 7997
  140.1798  143.3976  152.1290 H   0  0  0  0  0  0  0  0  0  0  0  0  # atno 10167 bound_to 10162
  156.5206  130.4631  149.6599 H   0  0  0  0  0  0  0  0  0  0  0  0  # atno 10718 bound_to 10713
  154.1550  135.6484  153.4972 H   0  0  0  0  0  0  0  0  0  0  0  0  # atno 10763 bound_to 10752
  153.0126  135.5347  154.6769 H   0  0  0  0  0  0  0  0  0  0  0  0  # atno 10764 bound_to 10752
  154.6067  135.2949  155.0448 H   0  0  0  0  0  0  0  0  0  0  0  0  # atno 10765 bound_to 10752
  139.8833  134.9411  156.5873 H   0  0  0  0  0  0  0  0  0  0  0  0  # atno 11005 bound_to 11000
  144.7109  140.4033  143.7081 LP  0  0  0  0  0  0  0  0  0  0  0  0  # atno 17320 bound_to 7965
  145.6769  139.1610  143.2722 LP  0  0  0  0  0  0  0  0  0  0  0  0  # atno 17321 bound_to 7965
  139.5301  144.7149  151.5086 LP  0  0  0  0  0  0  0  0  0  0  0  0  # atno 17342 bound_to 10162
  140.6527  143.8663  150.6802 LP  0  0  0  0  0  0  0  0  0  0  0  0  # atno 17343 bound_to 10162
  156.3153  130.7251  151.2152 LP  0  0  0  0  0  0  0  0  0  0  0  0  # atno 17370 bound_to 10713
  157.7437  131.0470  150.4923 LP  0  0  0  0  0  0  0  0  0  0  0  0  # atno 17371 bound_to 10713
  140.7982  133.8527  155.8704 LP  0  0  0  0  0  0  0  0  0  0  0  0  # atno 17394 bound_to 11000
  140.9616  134.1647  157.4649 LP  0  0  0  0  0  0  0  0  0  0  0  0  # atno 17395 bound_to 11000

$$$$
