AV-unprocessed.smi:187|AV-procd|sdf|1470|dock2
  -GOLD-   2262019283D 1   1.00000     0.00000
 Structure written by MMmdl.
 53 56  0  0  0  0  0  0  0  0  1 V2000
  143.0545  139.2441  155.6365 C   0  0  0  0  0  0  0  0  0  0  0  0
  143.1163  138.0676  156.6333 C   0  0  2  0  0  0  0  0  0  0  0  0
  142.8950  138.5913  158.0677 C   0  0  0  0  0  0  0  0  0  0  0  0
  143.0090  137.4684  159.1131 C   0  0  0  0  0  0  0  0  0  0  0  0
  144.3252  136.6739  158.9768 C   0  0  2  0  0  0  0  0  0  0  0  0
  145.5456  137.4518  159.5061 C   0  0  0  0  0  0  0  0  0  0  0  0
  146.5261  137.7024  158.6343 N   0  0  0  0  0  0  0  0  0  0  0  0
  145.6071  137.8326  160.6738 O   0  0  0  0  0  0  0  0  0  0  0  0
  144.5038  136.2144  157.5137 C   0  0  0  0  0  0  0  0  0  0  0  0
  144.3789  137.3182  156.5593 N   0  0  0  0  0  0  0  0  0  0  0  0
  144.7550  136.9444  155.3160 C   0  0  0  0  0  0  0  0  0  0  0  0
  145.9183  137.4089  154.7886 N   0  0  0  0  0  0  0  0  0  0  0  0
  146.2922  137.0229  153.5651 C   0  0  0  0  0  0  0  0  0  0  0  0
  145.6676  136.1967  152.7230 N   0  0  0  0  0  0  0  0  0  0  0  0
  144.5003  135.7286  153.2535 C   0  0  0  0  0  0  0  0  0  0  0  0
  143.9742  136.0545  154.5343 C   0  0  0  0  0  0  0  0  0  0  0  0
  142.7705  135.3950  154.7414 N   0  0  0  0  0  0  0  0  0  0  0  0
  142.5936  134.7129  153.6428 C   0  0  0  0  0  0  0  0  0  0  0  0
  143.5837  134.8515  152.6944 N   0  0  0  0  0  0  0  0  0  0  0  0
  143.6312  134.2090  151.4107 C   0  0  0  0  0  0  0  0  0  0  0  0
  143.8512  132.6991  151.2848 C   0  0  0  0  0  0  0  0  0  0  0  0
  144.6346  132.9331  149.9713 C   0  0  0  0  0  0  0  0  0  0  0  0
  145.9144  132.1010  149.7570 C   0  0  0  0  0  0  0  0  0  0  0  0
  146.7931  132.1636  150.8629 O   0  0  0  0  0  0  0  0  0  0  0  0
  143.8004  132.8291  148.6809 C   0  0  0  0  0  0  0  0  0  0  0  0
  142.6261  132.0675  148.8785 O   0  0  0  0  0  0  0  0  0  0  0  0
  144.8322  134.3820  150.4768 C   0  0  0  0  0  0  0  0  0  0  0  0
  142.1323  139.8124  155.7603 H   0  0  0  0  0  0  0  0  0  0  0  0
  143.0802  138.9047  154.6006 H   0  0  0  0  0  0  0  0  0  0  0  0
  143.8889  139.9307  155.7841 H   0  0  0  0  0  0  0  0  0  0  0  0
  142.3061  137.3762  156.3964 H   0  0  0  0  0  0  0  0  0  0  0  0
  143.6178  139.3770  158.2895 H   0  0  0  0  0  0  0  0  0  0  0  0
  141.9127  139.0587  158.1448 H   0  0  0  0  0  0  0  0  0  0  0  0
  142.9148  137.8841  160.1172 H   0  0  0  0  0  0  0  0  0  0  0  0
  142.1683  136.7844  158.9910 H   0  0  0  0  0  0  0  0  0  0  0  0
  144.2327  135.7745  159.5878 H   0  0  0  0  0  0  0  0  0  0  0  0
  147.3476  138.2093  158.9301 H   0  0  0  0  0  0  0  0  0  0  0  0
  146.4407  137.3831  157.6803 H   0  0  0  0  0  0  0  0  0  0  0  0
  145.4776  135.7359  157.3944 H   0  0  0  0  0  0  0  0  0  0  0  0
  143.7554  135.4545  157.2826 H   0  0  0  0  0  0  0  0  0  0  0  0
  147.2266  137.4321  153.2104 H   0  0  0  0  0  0  0  0  0  0  0  0
  141.7279  134.0834  153.4963 H   0  0  0  0  0  0  0  0  0  0  0  0
  142.7147  134.4918  150.8892 H   0  0  0  0  0  0  0  0  0  0  0  0
  144.4633  132.2912  152.0898 H   0  0  0  0  0  0  0  0  0  0  0  0
  142.9318  132.1233  151.1755 H   0  0  0  0  0  0  0  0  0  0  0  0
  145.6764  131.0506  149.5874 H   0  0  0  0  0  0  0  0  0  0  0  0
  146.4590  132.4462  148.8776 H   0  0  0  0  0  0  0  0  0  0  0  0
  147.4849  131.5332  150.7340 H   0  0  0  0  0  0  0  0  0  0  0  0
  143.5010  133.8148  148.3239 H   0  0  0  0  0  0  0  0  0  0  0  0
  144.3797  132.3763  147.8752 H   0  0  0  0  0  0  0  0  0  0  0  0
  141.9007  132.6604  149.0038 H   0  0  0  0  0  0  0  0  0  0  0  0
  144.6986  135.1523  149.7168 H   0  0  0  0  0  0  0  0  0  0  0  0
  145.7665  134.5378  151.0170 H   0  0  0  0  0  0  0  0  0  0  0  0
  1  2  1  0  0  0  0
  1 28  1  0  0  0  0
  1 29  1  0  0  0  0
  1 30  1  0  0  0  0
  2 10  1  0  0  0  0
  2  3  1  0  0  0  0
  2 31  1  0  0  0  0
  3  4  1  0  0  0  0
  3 32  1  0  0  0  0
  3 33  1  0  0  0  0
  4  5  1  0  0  0  0
  4 34  1  0  0  0  0
  4 35  1  0  0  0  0
  5  6  1  0  0  0  0
  5  9  1  0  0  0  0
  5 36  1  0  0  0  0
  6  7  1  0  0  0  0
  6  8  2  0  0  0  0
  7 37  1  0  0  0  0
  7 38  1  0  0  0  0
  9 10  1  0  0  0  0
  9 39  1  0  0  0  0
  9 40  1  0  0  0  0
 10 11  1  0  0  0  0
 11 16  1  0  0  0  0
 11 12  2  0  0  0  0
 12 13  1  0  0  0  0
 13 14  2  0  0  0  0
 13 41  1  0  0  0  0
 14 15  1  0  0  0  0
 15 19  1  0  0  0  0
 15 16  2  0  0  0  0
 16 17  1  0  0  0  0
 17 18  2  0  0  0  0
 18 19  1  0  0  0  0
 18 42  1  0  0  0  0
 19 20  1  0  0  0  0
 20 27  1  0  0  0  0
 20 21  1  0  0  0  0
 20 43  1  0  0  0  0
 21 22  1  0  0  0  0
 21 44  1  0  0  0  0
 21 45  1  0  0  0  0
 22 23  1  0  0  0  0
 22 25  1  0  0  0  0
 22 27  1  0  0  0  0
 23 24  1  0  0  0  0
 23 46  1  0  0  0  0
 23 47  1  0  0  0  0
 24 48  1  0  0  0  0
 25 26  1  0  0  0  0
 25 49  1  0  0  0  0
 25 50  1  0  0  0  0
 26 51  1  0  0  0  0
 27 52  1  0  0  0  0
 27 53  1  0  0  0  0
M  END
> <s_m_source_file>
AV-unprocessed.smi

> <i_m_source_file_index>
187

> <i_lp_mmshare_version>
43012

> <i_f3d_flags>
0

> <s_epik_input>
W0NIM11bQ0BASF0xW0NIMl1bQ0gyXVtDQEBIXShDKD1PKVtOSDJdKVtDSDJdTjFjKG5bY0hdbjIpYyhjMjMpbltjSF1uM1tDSF0oW0NIMl00KVtDSDJdQzQoW0NIMl1bT0hdKVtDSDJdW09IXQ==

> <s_epik_cmdline>
J2VwaWtfcHl0aG9uJywgJy1waCcsICc3LjAnLCAnLXRuJywgJzgnLCAnLW1hJywgJzIwMCcsICctbWV0YWxfYmluZGluZycsICctaW1hZScsICc8aW5maWxlLm1hZT4nLCAnLW9tYWUnLCAnPG91dGZpbGUubWFlPic=

> <r_lp_tautomer_probability>
1

> <r_epik_Ionization_Penalty>
0.0017711

> <r_epik_Ionization_Penalty_Charging>
0

> <r_epik_Ionization_Penalty_Neutral>
0.0017711

> <r_epik_State_Penalty>
0.00107211

> <r_epik_Charging_Adjusted_Penalty>
0.00107211

> <i_epik_Tot_Q>
0

> <i_epik_Tot_abs_Q>
0

> <r_epik_Metal_State_Penalty>
-0

> <b_epik_Metal_Only>
0

> <s_lp_Force_Field>
OPLS_2005

> <r_lp_Energy>
40.7321

> <b_lp_Chiralities_Consistent>
1

> <s_lp_Variant>
AV-unprocessed.smi:187-3

> <Gold.Version>
5.8.1

> <Gold.Id.Protein>
6NUR|6NUR_protein|mol2

> <Gold.PLP.Fitness>
43.9764

> <Gold.PLP.PLP>
-30.7954

> <Gold.PLP.part.hbond>
-5.0000

> <Gold.PLP.part.metal>
0.0000

> <Gold.PLP.part.buried>
-4.3515

> <Gold.PLP.part.nonpolar>
-21.1837

> <Gold.PLP.part.repulsive>
0.3610

> <Gold.PLP.ligand.clash>
0.0205

> <Gold.PLP.ligand.torsion>
1.2724

> <Gold.PLP.Chemscore.Hbond>
3.9760

> <Gold.PLP.Chemscore.CHOScore>
1.0502

> <Gold.PLP.Chemscore.Metal>
0.0000

> <Gold.Chemscore.Hbonds>
donor molecule, donor type, donor heavy atom, donor atom, acceptor molecule, acceptor atom, score
      L1  H    24    48       P1 10747  1.00
      L1  H    26    51       P1 10186  1.00
      P1  H  6934  6947       L1     8  0.96
      P1  H 10785 10796       L1    26  1.00
      L1  C    13    41       P1  7948  0.93
      L1  C    18    42       P1 10957  0.14

> <Gold.PLP.Chemscore.Internal.Correction>
0.6676

> <Gold.Rescore>
     Score         DG    S(hbond)    S(metal)    S(lipo)     H(rot)  DE(clash)    DE(int)     intcor
     10.97     -13.48       3.53        0.00      54.78       3.99       0.06       2.45       ----

> <Gold.Chemscore.Fitness>
10.9731

> <Gold.Chemscore.DG>
-13.4804

> <Gold.Chemscore.ZeroCoef>
-5.4800

> <Gold.Chemscore.Hbond>
3.5349

> <Gold.Chemscore.Metal>
0.0000

> <Gold.Chemscore.Lipo>
54.7754

> <Gold.Chemscore.Internal_Hbond>
0.0000

> <Gold.Chemscore.DEClash>
0.0554

> <Gold.Chemscore.DEInternal>
2.4519

> <Gold.Chemscore.Rot>
3.9902

> <Gold.Chemscore.Internal.Correction>
   9.000000E+99

> <Gold.Chemscore.Hbonds>
donor molecule, donor type, donor heavy atom, donor atom, acceptor molecule, acceptor atom, score
      L1  H    24    48       P1 10747  1.00
      L1  H    26    51       P1 10186  0.92
      P1  H  6934  6947       L1     8  0.71
      P1  H 10785 10796       L1    26  0.52

> <Gold.Chemscore.Hbond.Weighted>
-11.8065

> <Gold.Chemscore.Metal.Weighted>
-0.0000

> <Gold.Chemscore.Lipo.Weighted>
-6.4087

> <Gold.Chemscore.Internal_Hbond.Weighted>
0.0000

> <Gold.Chemscore.DEClash.Weighted>
0.0554

> <Gold.Chemscore.DEInternal.Weighted>
2.4519

> <Gold.Chemscore.Rot.Weighted>
10.2148

> <Gold.Chemscore.Internal.Correction.Weighted>
   9.000000E+99

> <Gold.Protein.RotatedTorsions>
[ 6907 6896 6895 6894 ] final  103.13 input  -60.11 | X-H torsion
[ 7974 7965 7964 7962 ] final -116.78 input  175.53 | X-H torsion
[ 8008 7997 7996 7995 ] final  -40.88 input   59.86 | X-H torsion
[ 10167 10162 10161 10158 ] final   79.50 input  -65.29 | X-H torsion
[ 10718 10713 10712 10709 ] final -141.00 input   66.30 | X-H torsion
[ 10763 10752 10751 10750 ] final  -20.03 input  -60.55 | X-H torsion
[ 11005 11000 10999 10996 ] final  -13.82 input  -57.11 | X-H torsion

> <Gold.Protein.ActiveResidues>
 VAL166  LYS551  ARG553  GLY616  TRP617  ASP618  TYR619  PRO620  LYS621  CYS622 
 ASP623  PHE694  ASN695  SER759  ASP760  ASP761  ALA762  ILE779  LEU786  VAL792 
 PHE793  MET794  SER795  GLU796  ALA797  LYS798  CYS799  TRP800  GLU811  SER814 

> <Gold.Protein.RotatedAtoms>
  152.5304  133.9872  159.7833 H   0  0  0  0  0  0  0  0  0  0  0  0  # atno 6907 bound_to 6896
  151.0115  133.5953  159.2689 H   0  0  0  0  0  0  0  0  0  0  0  0  # atno 6908 bound_to 6896
  151.3026  135.0779  159.9297 H   0  0  0  0  0  0  0  0  0  0  0  0  # atno 6909 bound_to 6896
  145.0928  140.8501  143.3972 H   0  0  0  0  0  0  0  0  0  0  0  0  # atno 7974 bound_to 7965
  154.4008  140.1514  156.3100 H   0  0  0  0  0  0  0  0  0  0  0  0  # atno 8008 bound_to 7997
  155.8624  140.3453  155.5743 H   0  0  0  0  0  0  0  0  0  0  0  0  # atno 8009 bound_to 7997
  155.7866  140.0851  157.2022 H   0  0  0  0  0  0  0  0  0  0  0  0  # atno 8010 bound_to 7997
  139.9596  144.5970  150.8084 H   0  0  0  0  0  0  0  0  0  0  0  0  # atno 10167 bound_to 10162
  156.3289  130.7575  151.1689 H   0  0  0  0  0  0  0  0  0  0  0  0  # atno 10718 bound_to 10713
  153.6140  135.6995  153.5336 H   0  0  0  0  0  0  0  0  0  0  0  0  # atno 10763 bound_to 10752
  153.2992  135.4134  155.1237 H   0  0  0  0  0  0  0  0  0  0  0  0  # atno 10764 bound_to 10752
  154.8557  135.3644  154.5680 H   0  0  0  0  0  0  0  0  0  0  0  0  # atno 10765 bound_to 10752
  140.7800  133.8370  155.9284 H   0  0  0  0  0  0  0  0  0  0  0  0  # atno 11005 bound_to 11000
  145.1046  139.2799  143.5668 LP  0  0  0  0  0  0  0  0  0  0  0  0  # atno 17320 bound_to 7965
  146.3531  140.0624  142.8628 LP  0  0  0  0  0  0  0  0  0  0  0  0  # atno 17321 bound_to 7965
  140.7557  143.3052  151.2981 LP  0  0  0  0  0  0  0  0  0  0  0  0  # atno 17342 bound_to 10162
  139.6564  144.0268  152.2662 LP  0  0  0  0  0  0  0  0  0  0  0  0  # atno 17343 bound_to 10162
  157.7426  131.0487  150.5008 LP  0  0  0  0  0  0  0  0  0  0  0  0  # atno 17370 bound_to 10713
  156.5171  130.4153  149.6270 LP  0  0  0  0  0  0  0  0  0  0  0  0  # atno 17371 bound_to 10713
  140.9491  134.1802  157.4741 LP  0  0  0  0  0  0  0  0  0  0  0  0  # atno 17394 bound_to 11000
  139.8744  134.9902  156.5492 LP  0  0  0  0  0  0  0  0  0  0  0  0  # atno 17395 bound_to 11000

$$$$
