AV-unprocessed.smi:2630|AV-procd|sdf|10246|dock10
  -GOLD-   2272014253D 1   1.00000     0.00000
 Structure written by MMmdl.
 35 36  0  0  0  0  0  0  0  0  1 V2000
  144.5255  143.4353  157.9006 C   0  0  0  0  0  0  0  0  0  0  0  0
  144.2256  142.1482  157.3916 O   0  0  0  0  0  0  0  0  0  0  0  0
  145.3903  141.3982  157.0872 C   0  0  0  0  0  0  0  0  0  0  0  0
  146.2872  142.2046  156.1331 C   0  0  0  0  0  0  0  0  0  0  0  0
  147.5483  141.5483  155.8501 N   0  0  0  0  0  0  0  0  0  0  0  0
  148.5088  141.2578  156.8227 C   0  0  0  0  0  0  0  0  0  0  0  0
  148.2575  141.5969  158.1414 N   0  0  0  0  0  0  0  0  0  0  0  0
  149.6857  140.6677  156.4884 C   0  0  0  0  0  0  0  0  0  0  0  0
  150.9962  140.2726  157.6220 S   0  0  0  0  0  0  0  0  0  0  0  0
  151.4485  141.8799  158.1891 C   0  0  0  0  0  0  0  0  0  0  0  0
  152.2049  142.0226  159.3697 C   0  0  0  0  0  0  0  0  0  0  0  0
  152.5577  143.3074  159.8262 C   0  0  0  0  0  0  0  0  0  0  0  0
  152.1568  144.4473  159.1019 C   0  0  0  0  0  0  0  0  0  0  0  0
  151.4021  144.3032  157.9208 C   0  0  0  0  0  0  0  0  0  0  0  0
  151.0475  143.0191  157.4632 C   0  0  0  0  0  0  0  0  0  0  0  0
  150.0139  140.2996  155.1095 C   0  0  0  0  0  0  0  0  0  0  0  0
  151.0446  139.7513  154.7196 O   0  0  0  0  0  0  0  0  0  0  0  0
  149.0203  140.6312  154.1888 N   0  0  0  0  0  0  0  0  0  0  0  0
  147.8060  141.2467  154.4887 C   0  0  0  0  0  0  0  0  0  0  0  0
  147.0191  141.5039  153.5771 O   0  0  0  0  0  0  0  0  0  0  0  0
  149.1977  140.4105  153.2197 H   0  0  0  0  0  0  0  0  0  0  0  0
  143.6000  143.9683  158.1182 H   0  0  0  0  0  0  0  0  0  0  0  0
  145.0914  144.0241  157.1774 H   0  0  0  0  0  0  0  0  0  0  0  0
  145.1002  143.3683  158.8254 H   0  0  0  0  0  0  0  0  0  0  0  0
  145.9364  141.1867  158.0074 H   0  0  0  0  0  0  0  0  0  0  0  0
  145.1211  140.4384  156.6438 H   0  0  0  0  0  0  0  0  0  0  0  0
  145.7926  142.3911  155.1808 H   0  0  0  0  0  0  0  0  0  0  0  0
  146.5152  143.1937  156.5336 H   0  0  0  0  0  0  0  0  0  0  0  0
  147.3977  142.0488  158.4180 H   0  0  0  0  0  0  0  0  0  0  0  0
  148.8755  141.3149  158.8887 H   0  0  0  0  0  0  0  0  0  0  0  0
  152.5125  141.1511  159.9287 H   0  0  0  0  0  0  0  0  0  0  0  0
  153.1352  143.4186  160.7321 H   0  0  0  0  0  0  0  0  0  0  0  0
  152.4281  145.4321  159.4528 H   0  0  0  0  0  0  0  0  0  0  0  0
  151.0943  145.1775  157.3665 H   0  0  0  0  0  0  0  0  0  0  0  0
  150.4657  142.9108  156.5594 H   0  0  0  0  0  0  0  0  0  0  0  0
  1  2  1  0  0  0  0
  1 22  1  0  0  0  0
  1 23  1  0  0  0  0
  1 24  1  0  0  0  0
  2  3  1  0  0  0  0
  3  4  1  0  0  0  0
  3 25  1  0  0  0  0
  3 26  1  0  0  0  0
  4  5  1  0  0  0  0
  4 27  1  0  0  0  0
  4 28  1  0  0  0  0
  5 19  1  0  0  0  0
  5  6  1  0  0  0  0
  6  7  1  0  0  0  0
  6  8  2  0  0  0  0
  7 29  1  0  0  0  0
  7 30  1  0  0  0  0
  8  9  1  0  0  0  0
  8 16  1  0  0  0  0
  9 10  1  0  0  0  0
 10 15  1  0  0  0  0
 10 11  2  0  0  0  0
 11 12  1  0  0  0  0
 11 31  1  0  0  0  0
 12 13  2  0  0  0  0
 12 32  1  0  0  0  0
 13 14  1  0  0  0  0
 13 33  1  0  0  0  0
 14 15  2  0  0  0  0
 14 34  1  0  0  0  0
 15 35  1  0  0  0  0
 16 17  2  0  0  0  0
 16 18  1  0  0  0  0
 18 21  1  0  0  0  0
 18 19  1  0  0  0  0
 19 20  2  0  0  0  0
M  END
> <s_m_source_file>
AV-unprocessed.smi

> <i_m_source_file_index>
2630

> <i_lp_mmshare_version>
43012

> <i_f3d_flags>
0

> <s_epik_input>
W0NIM11PW0NIMl1bQ0gyXW4xYyhbTkgyXSljKGMoPU8pW25IXWMxPU8pU2MyW2NIXVtjSF1bY0hdW2NIXVtjSF0y

> <s_epik_cmdline>
J2VwaWtfcHl0aG9uJywgJy1waCcsICc3LjAnLCAnLXRuJywgJzgnLCAnLW1hJywgJzIwMCcsICctbWV0YWxfYmluZGluZycsICctaW1hZScsICc8aW5maWxlLm1hZT4nLCAnLW9tYWUnLCAnPG91dGZpbGUubWFlPic=

> <r_lp_tautomer_probability>
1

> <r_epik_Ionization_Penalty>
1.3786e-05

> <r_epik_Ionization_Penalty_Charging>
1.17844e-05

> <r_epik_Ionization_Penalty_Neutral>
2.00164e-06

> <r_epik_State_Penalty>
-0

> <r_epik_Charging_Adjusted_Penalty>
1.17844e-05

> <i_epik_Tot_Q>
0

> <i_epik_Tot_abs_Q>
0

> <r_epik_Metal_State_Penalty>
0.0115847

> <b_epik_Metal_Only>
0

> <s_epik_Chemistry_Notes>
This compound has an imine and may undergo hydrolysis.

> <s_lp_Force_Field>
OPLS_2005

> <r_lp_Energy>
18.8348

> <b_lp_Chiralities_Consistent>
1

> <s_lp_Variant>
AV-unprocessed.smi:2630-1

> <Gold.Version>
5.8.1

> <Gold.Id.Protein>
6NUR|6NUR_protein|mol2

> <Gold.PLP.Fitness>
40.8067

> <Gold.PLP.PLP>
-35.4059

> <Gold.PLP.part.hbond>
-1.9128

> <Gold.PLP.part.metal>
0.0000

> <Gold.PLP.part.buried>
-3.9093

> <Gold.PLP.part.nonpolar>
-30.5896

> <Gold.PLP.part.repulsive>
0.5935

> <Gold.PLP.ligand.clash>
0.0000

> <Gold.PLP.ligand.torsion>
0.2573

> <Gold.PLP.Chemscore.Hbond>
1.9588

> <Gold.PLP.Chemscore.CHOScore>
0.0000

> <Gold.PLP.Chemscore.Metal>
0.0000

> <Gold.Chemscore.Hbonds>
donor molecule, donor type, donor heavy atom, donor atom, acceptor molecule, acceptor atom, score
      L1  H    18    21       P1  7957  0.75
      P1  H  7989  7998       L1    17  1.00

> <Gold.PLP.Chemscore.Internal.Correction>
0.0391

> <Gold.Rescore>
     Score         DG    S(hbond)    S(metal)    S(lipo)     H(rot)  DE(clash)    DE(int)     intcor
     14.79     -15.13       1.54        0.00      83.68       2.07       0.05       0.29       ----

> <Gold.Chemscore.Fitness>
14.7873

> <Gold.Chemscore.DG>
-15.1319

> <Gold.Chemscore.ZeroCoef>
-5.4800

> <Gold.Chemscore.Hbond>
1.5437

> <Gold.Chemscore.Metal>
0.0000

> <Gold.Chemscore.Lipo>
83.6761

> <Gold.Chemscore.Internal_Hbond>
0.0000

> <Gold.Chemscore.DEClash>
0.0542

> <Gold.Chemscore.DEInternal>
0.2903

> <Gold.Chemscore.Rot>
2.0680

> <Gold.Chemscore.Internal.Correction>
   9.000000E+99

> <Gold.Chemscore.Hbonds>
donor molecule, donor type, donor heavy atom, donor atom, acceptor molecule, acceptor atom, score
      L1  H    18    21       P1  7957  0.75
      P1  H  7989  7998       L1    17  0.40

> <Gold.Chemscore.Hbond.Weighted>
-5.1559

> <Gold.Chemscore.Metal.Weighted>
-0.0000

> <Gold.Chemscore.Lipo.Weighted>
-9.7901

> <Gold.Chemscore.Internal_Hbond.Weighted>
0.0000

> <Gold.Chemscore.DEClash.Weighted>
0.0542

> <Gold.Chemscore.DEInternal.Weighted>
0.2903

> <Gold.Chemscore.Rot.Weighted>
5.2941

> <Gold.Chemscore.Internal.Correction.Weighted>
   9.000000E+99

> <Gold.Protein.RotatedTorsions>
[ 6907 6896 6895 6894 ] final   64.41 input  -60.11 | X-H torsion
[ 7974 7965 7964 7962 ] final   16.53 input  175.53 | X-H torsion
[ 8008 7997 7996 7995 ] final  139.16 input   59.86 | X-H torsion
[ 10167 10162 10161 10158 ] final  -44.61 input  -65.29 | X-H torsion
[ 10718 10713 10712 10709 ] final -112.42 input   66.30 | X-H torsion
[ 10763 10752 10751 10750 ] final -105.29 input  -60.55 | X-H torsion
[ 11005 11000 10999 10996 ] final  130.91 input  -57.11 | X-H torsion

> <Gold.Protein.ActiveResidues>
 VAL166  LYS551  ARG553  GLY616  TRP617  ASP618  TYR619  PRO620  LYS621  CYS622 
 ASP623  PHE694  ASN695  SER759  ASP760  ASP761  ALA762  ILE779  LEU786  VAL792 
 PHE793  MET794  SER795  GLU796  ALA797  LYS798  CYS799  TRP800  GLU811  SER814 

> <Gold.Protein.RotatedAtoms>
  152.4329  134.5743  159.9929 H   0  0  0  0  0  0  0  0  0  0  0  0  # atno 6907 bound_to 6896
  151.5861  133.3366  159.3026 H   0  0  0  0  0  0  0  0  0  0  0  0  # atno 6908 bound_to 6896
  150.8224  134.7474  159.6848 H   0  0  0  0  0  0  0  0  0  0  0  0  # atno 6909 bound_to 6896
  146.2247  139.8735  142.8583 H   0  0  0  0  0  0  0  0  0  0  0  0  # atno 7974 bound_to 7965
  156.2992  140.2375  156.4192 H   0  0  0  0  0  0  0  0  0  0  0  0  # atno 8008 bound_to 7997
  154.8371  140.0430  157.1536 H   0  0  0  0  0  0  0  0  0  0  0  0  # atno 8009 bound_to 7997
  154.9144  140.2995  155.5253 H   0  0  0  0  0  0  0  0  0  0  0  0  # atno 8010 bound_to 7997
  140.6890  143.2921  151.3520 H   0  0  0  0  0  0  0  0  0  0  0  0  # atno 10167 bound_to 10162
  156.0705  130.5919  150.8506 H   0  0  0  0  0  0  0  0  0  0  0  0  # atno 10718 bound_to 10713
  154.7936  135.4754  154.0110 H   0  0  0  0  0  0  0  0  0  0  0  0  # atno 10763 bound_to 10752
  153.1669  135.6818  153.8669 H   0  0  0  0  0  0  0  0  0  0  0  0  # atno 10764 bound_to 10752
  153.8264  135.3197  155.3393 H   0  0  0  0  0  0  0  0  0  0  0  0  # atno 10765 bound_to 10752
  139.9699  134.9580  156.9362 H   0  0  0  0  0  0  0  0  0  0  0  0  # atno 11005 bound_to 11000
  145.2584  141.0068  143.3840 LP  0  0  0  0  0  0  0  0  0  0  0  0  # atno 17320 bound_to 7965
  144.9318  139.4290  143.6491 LP  0  0  0  0  0  0  0  0  0  0  0  0  # atno 17321 bound_to 7965
  139.6275  144.0786  152.2447 LP  0  0  0  0  0  0  0  0  0  0  0  0  # atno 17342 bound_to 10162
  140.0250  144.6124  150.7535 LP  0  0  0  0  0  0  0  0  0  0  0  0  # atno 17343 bound_to 10162
  157.5772  131.0946  150.9326 LP  0  0  0  0  0  0  0  0  0  0  0  0  # atno 17370 bound_to 10713
  156.9530  130.5427  149.5283 LP  0  0  0  0  0  0  0  0  0  0  0  0  # atno 17371 bound_to 10713
  140.5315  134.0809  155.7317 LP  0  0  0  0  0  0  0  0  0  0  0  0  # atno 17394 bound_to 11000
  141.1379  133.9189  157.2392 LP  0  0  0  0  0  0  0  0  0  0  0  0  # atno 17395 bound_to 11000

$$$$
