AV-unprocessed.smi:645|AV-procd|sdf|3160|dock5
  -GOLD-   22720 0 83D 1   1.00000     0.00000
 Structure written by MMmdl.
 23 24  0  0  0  0  0  0  0  0  1 V2000
  145.9875  135.2169  153.8689 C   0  0  0  0  0  0  0  0  0  0  0  0
  145.6332  135.6488  152.4315 C   0  0  2  0  0  0  0  0  0  0  0  0
  145.3691  134.4493  151.5078 C   0  0  0  0  0  0  0  0  0  0  0  0
  144.1266  134.2604  150.8549 C   0  0  0  0  0  0  0  0  0  0  0  0
  143.9594  133.1402  150.0164 C   0  0  0  0  0  0  0  0  0  0  0  0
  144.9266  132.2263  149.7950 N   0  0  0  0  0  0  0  0  0  0  0  0
  146.1114  132.4048  150.4146 C   0  0  0  0  0  0  0  0  0  0  0  0
  146.3814  133.4900  151.2710 C   0  0  0  0  0  0  0  0  0  0  0  0
  146.6491  136.5641  151.9267 N   0  0  0  0  0  0  0  0  0  0  0  0
  146.1598  137.7708  151.6127 C   0  0  0  0  0  0  0  0  0  0  0  0
  146.7985  138.7103  151.1447 O   0  0  0  0  0  0  0  0  0  0  0  0
  144.8572  137.7740  151.9080 N   0  0  0  0  0  0  0  0  0  0  0  0
  144.4470  136.6102  152.4092 C   0  0  0  0  0  0  0  0  0  0  0  0
  143.3118  136.3425  152.8008 O   0  0  0  0  0  0  0  0  0  0  0  0
  145.1904  134.6315  154.3280 H   0  0  0  0  0  0  0  0  0  0  0  0
  146.1662  136.0788  154.5137 H   0  0  0  0  0  0  0  0  0  0  0  0
  146.8914  134.6071  153.8807 H   0  0  0  0  0  0  0  0  0  0  0  0
  143.3044  134.9486  150.9813 H   0  0  0  0  0  0  0  0  0  0  0  0
  143.0207  132.9750  149.5084 H   0  0  0  0  0  0  0  0  0  0  0  0
  146.8693  131.6600  150.2229 H   0  0  0  0  0  0  0  0  0  0  0  0
  147.3503  133.5748  151.7402 H   0  0  0  0  0  0  0  0  0  0  0  0
  147.6131  136.2917  151.8017 H   0  0  0  0  0  0  0  0  0  0  0  0
  144.2548  138.5740  151.7807 H   0  0  0  0  0  0  0  0  0  0  0  0
  1  2  1  0  0  0  0
  1 15  1  0  0  0  0
  1 16  1  0  0  0  0
  1 17  1  0  0  0  0
  2 13  1  0  0  0  0
  2  3  1  0  0  0  0
  2  9  1  0  0  0  0
  3  8  1  0  0  0  0
  3  4  2  0  0  0  0
  4  5  1  0  0  0  0
  4 18  1  0  0  0  0
  5  6  2  0  0  0  0
  5 19  1  0  0  0  0
  6  7  1  0  0  0  0
  7  8  2  0  0  0  0
  7 20  1  0  0  0  0
  8 21  1  0  0  0  0
  9 10  1  0  0  0  0
  9 22  1  0  0  0  0
 10 11  2  0  0  0  0
 10 12  1  0  0  0  0
 12 13  1  0  0  0  0
 12 23  1  0  0  0  0
 13 14  2  0  0  0  0
M  END
> <s_m_source_file>
AV-unprocessed.smi

> <i_m_source_file_index>
645

> <i_lp_mmshare_version>
43012

> <i_f3d_flags>
0

> <s_epik_input>
Tz1DMVtOSF1DKD1PKVtOSF1bQ0BAXTEoW0NIM10pYzJbY0hdW2NIXW5bY0hdW2NIXTI=

> <s_epik_cmdline>
J2VwaWtfcHl0aG9uJywgJy1waCcsICc3LjAnLCAnLXRuJywgJzgnLCAnLW1hJywgJzIwMCcsICctbWV0YWxfYmluZGluZycsICctaW1hZScsICc8aW5maWxlLm1hZT4nLCAnLW9tYWUnLCAnPG91dGZpbGUubWFlPic=

> <r_lp_tautomer_probability>
1

> <r_epik_Ionization_Penalty>
0.0327402

> <r_epik_Ionization_Penalty_Charging>
0

> <r_epik_Ionization_Penalty_Neutral>
0.0327402

> <r_epik_State_Penalty>
0.022996

> <r_epik_Charging_Adjusted_Penalty>
0.022996

> <i_epik_Tot_Q>
0

> <i_epik_Tot_abs_Q>
0

> <r_epik_Metal_State_Penalty>
0.426243

> <b_epik_Metal_Only>
0

> <s_lp_Force_Field>
OPLS_2005

> <r_lp_Energy>
18.0362

> <b_lp_Chiralities_Consistent>
1

> <s_lp_Variant>
AV-unprocessed.smi:645-2

> <Gold.Version>
5.8.1

> <Gold.Id.Protein>
6NUR|6NUR_protein|mol2

> <Gold.PLP.Fitness>
35.1856

> <Gold.PLP.PLP>
-22.2110

> <Gold.PLP.part.hbond>
-3.0016

> <Gold.PLP.part.metal>
0.0000

> <Gold.PLP.part.buried>
-3.1740

> <Gold.PLP.part.nonpolar>
-17.8485

> <Gold.PLP.part.repulsive>
1.2446

> <Gold.PLP.ligand.clash>
0.0000

> <Gold.PLP.ligand.torsion>
0.0595

> <Gold.PLP.Chemscore.Hbond>
2.3673

> <Gold.PLP.Chemscore.CHOScore>
1.9577

> <Gold.PLP.Chemscore.Metal>
0.0000

> <Gold.Chemscore.Hbonds>
donor molecule, donor type, donor heavy atom, donor atom, acceptor molecule, acceptor atom, score
      L1  H     9    22       P1  7948  0.46
      L1  H    12    23       P1 10175  0.90
      P1  H  7954  7966       L1    11  0.99
      L1  C     5    19       P1 10186  0.96
      L1  C     7    20       P1 10747  1.00

> <Gold.PLP.Chemscore.Internal.Correction>
0.1187

> <Gold.Rescore>
     Score         DG    S(hbond)    S(metal)    S(lipo)     H(rot)  DE(clash)    DE(int)     intcor
     13.90     -15.72       2.44        0.00      39.70       1.00       0.63       1.19       ----

> <Gold.Chemscore.Fitness>
13.8990

> <Gold.Chemscore.DG>
-15.7157

> <Gold.Chemscore.ZeroCoef>
-5.4800

> <Gold.Chemscore.Hbond>
2.4403

> <Gold.Chemscore.Metal>
0.0000

> <Gold.Chemscore.Lipo>
39.7015

> <Gold.Chemscore.Internal_Hbond>
0.0000

> <Gold.Chemscore.DEClash>
0.6253

> <Gold.Chemscore.DEInternal>
1.1914

> <Gold.Chemscore.Rot>
1.0000

> <Gold.Chemscore.Internal.Correction>
   9.000000E+99

> <Gold.Chemscore.Hbonds>
donor molecule, donor type, donor heavy atom, donor atom, acceptor molecule, acceptor atom, score
      L1  H     9    22       P1  7948  0.46
      L1  H    12    23       P1 10175  0.83
      P1  H  7954  7966       L1    11  0.48

> <Gold.Chemscore.Hbond.Weighted>
-8.1506

> <Gold.Chemscore.Metal.Weighted>
-0.0000

> <Gold.Chemscore.Lipo.Weighted>
-4.6451

> <Gold.Chemscore.Internal_Hbond.Weighted>
0.0000

> <Gold.Chemscore.DEClash.Weighted>
0.6253

> <Gold.Chemscore.DEInternal.Weighted>
1.1914

> <Gold.Chemscore.Rot.Weighted>
2.5600

> <Gold.Chemscore.Internal.Correction.Weighted>
   9.000000E+99

> <Gold.Protein.RotatedTorsions>
[ 6907 6896 6895 6894 ] final -152.57 input  -60.11 | X-H torsion
[ 7974 7965 7964 7962 ] final -117.67 input  175.53 | X-H torsion
[ 8008 7997 7996 7995 ] final  122.54 input   59.86 | X-H torsion
[ 10167 10162 10161 10158 ] final -100.31 input  -65.29 | X-H torsion
[ 10718 10713 10712 10709 ] final   69.20 input   66.30 | X-H torsion
[ 10763 10752 10751 10750 ] final   27.68 input  -60.55 | X-H torsion
[ 11005 11000 10999 10996 ] final   11.59 input  -57.11 | X-H torsion

> <Gold.Protein.ActiveResidues>
 VAL166  LYS551  ARG553  GLY616  TRP617  ASP618  TYR619  PRO620  LYS621  CYS622 
 ASP623  PHE694  ASN695  SER759  ASP760  ASP761  ALA762  ILE779  LEU786  VAL792 
 PHE793  MET794  SER795  GLU796  ALA797  LYS798  CYS799  TRP800  GLU811  SER814 

> <Gold.Protein.RotatedAtoms>
  151.2298  133.4457  159.2603 H   0  0  0  0  0  0  0  0  0  0  0  0  # atno 6907 bound_to 6896
  151.0806  134.9855  159.8364 H   0  0  0  0  0  0  0  0  0  0  0  0  # atno 6908 bound_to 6896
  152.5423  134.2237  159.8850 H   0  0  0  0  0  0  0  0  0  0  0  0  # atno 6909 bound_to 6896
  145.0826  140.8436  143.4030 H   0  0  0  0  0  0  0  0  0  0  0  0  # atno 7974 bound_to 7965
  156.2731  140.2783  156.1484 H   0  0  0  0  0  0  0  0  0  0  0  0  # atno 8008 bound_to 7997
  155.0880  140.0388  157.2677 H   0  0  0  0  0  0  0  0  0  0  0  0  # atno 8009 bound_to 7997
  154.6912  140.2629  155.6816 H   0  0  0  0  0  0  0  0  0  0  0  0  # atno 8010 bound_to 7997
  140.2533  143.3458  152.0695 H   0  0  0  0  0  0  0  0  0  0  0  0  # atno 10167 bound_to 10162
  157.6333  130.9413  150.0482 H   0  0  0  0  0  0  0  0  0  0  0  0  # atno 10718 bound_to 10713
  153.0540  135.6531  154.0623 H   0  0  0  0  0  0  0  0  0  0  0  0  # atno 10763 bound_to 10752
  154.0306  135.2912  155.3370 H   0  0  0  0  0  0  0  0  0  0  0  0  # atno 10764 bound_to 10752
  154.6844  135.5307  153.8374 H   0  0  0  0  0  0  0  0  0  0  0  0  # atno 10765 bound_to 10752
  140.5015  134.0741  155.7795 H   0  0  0  0  0  0  0  0  0  0  0  0  # atno 11005 bound_to 11000
  145.1160  139.2725  143.5613 LP  0  0  0  0  0  0  0  0  0  0  0  0  # atno 17320 bound_to 7965
  146.3531  140.0770  142.8620 LP  0  0  0  0  0  0  0  0  0  0  0  0  # atno 17321 bound_to 7965
  139.5039  144.6765  151.6114 LP  0  0  0  0  0  0  0  0  0  0  0  0  # atno 17342 bound_to 10162
  140.6024  143.9586  150.6395 LP  0  0  0  0  0  0  0  0  0  0  0  0  # atno 17343 bound_to 10162
  156.1552  130.3643  149.9379 LP  0  0  0  0  0  0  0  0  0  0  0  0  # atno 17370 bound_to 10713
  156.7390  130.9072  151.3631 LP  0  0  0  0  0  0  0  0  0  0  0  0  # atno 17371 bound_to 10713
  141.1433  133.9100  157.2275 LP  0  0  0  0  0  0  0  0  0  0  0  0  # atno 17394 bound_to 11000
  139.9710  135.0128  156.9513 LP  0  0  0  0  0  0  0  0  0  0  0  0  # atno 17395 bound_to 11000

$$$$
