AV-unprocessed.smi:500|AV-procd|sdf|2739|dock4
  -GOLD-   2262023193D 1   1.00000     0.00000
 Structure written by MMmdl.
 44 46  0  0  0  0  0  0  0  0  2 V2000
  147.3293  140.2102  153.5930 C   0  0  0  0  0  0  0  0  0  0  0  0
  148.2701  141.3686  153.9507 C   0  0  0  0  0  0  0  0  0  0  0  0
  149.5510  140.8795  154.3133 O   0  0  0  0  0  0  0  0  0  0  0  0
  149.7047  140.6142  155.6978 C   0  0  0  0  0  0  0  0  0  0  0  0
  151.1958  140.6459  156.0611 C   0  0  0  0  0  0  0  0  0  0  0  0
  151.4020  140.8037  157.5043 N   0  0  0  0  0  0  0  0  0  0  0  0
  151.3417  139.8963  158.5296 C   0  0  0  0  0  0  0  0  0  0  0  0
  151.0337  138.4171  158.3540 C   0  0  1  0  0  0  0  0  0  0  0  0
  152.2180  137.5538  158.8107 C   0  0  0  0  0  0  0  0  0  0  0  0
  149.8346  137.9953  159.0857 N   0  5  0  0  0  0  0  0  0  0  0  0
  149.1666  136.8290  158.8606 C   0  0  0  0  0  0  0  0  0  0  0  0
  149.1066  136.1364  157.8401 O   0  0  0  0  0  0  0  0  0  0  0  0
  148.4539  136.3552  160.0686 C   0  0  0  0  0  0  0  0  0  0  0  0
  147.9542  135.1258  160.4163 C   0  0  0  0  0  0  0  0  0  0  0  0
  147.3962  135.2616  161.7174 C   0  0  0  0  0  0  0  0  0  0  0  0
  147.6019  136.5613  162.0791 C   0  0  0  0  0  0  0  0  0  0  0  0
  148.2493  137.2371  161.0917 O   0  0  0  0  0  0  0  0  0  0  0  0
  151.6154  140.3982  159.7401 N   0  0  0  0  0  0  0  0  0  0  0  0
  151.8393  141.7348  159.4910 C   0  0  0  0  0  0  0  0  0  0  0  0
  152.1599  142.7917  160.3727 C   0  0  0  0  0  0  0  0  0  0  0  0
  152.3494  144.0993  159.8804 C   0  0  0  0  0  0  0  0  0  0  0  0
  152.2219  144.3669  158.5021 C   0  0  0  0  0  0  0  0  0  0  0  0
  151.9040  143.3264  157.6082 C   0  0  0  0  0  0  0  0  0  0  0  0
  151.7148  142.0221  158.1051 C   0  0  0  0  0  0  0  0  0  0  0  0
  146.3679  140.5871  153.2441 H   0  0  0  0  0  0  0  0  0  0  0  0
  147.1387  139.5616  154.4476 H   0  0  0  0  0  0  0  0  0  0  0  0
  147.7547  139.5973  152.7980 H   0  0  0  0  0  0  0  0  0  0  0  0
  148.3960  142.0031  153.0734 H   0  0  0  0  0  0  0  0  0  0  0  0
  147.8486  141.9987  154.7353 H   0  0  0  0  0  0  0  0  0  0  0  0
  149.1594  141.3633  156.2728 H   0  0  0  0  0  0  0  0  0  0  0  0
  149.2874  139.6416  155.9598 H   0  0  0  0  0  0  0  0  0  0  0  0
  151.7069  139.7599  155.6864 H   0  0  0  0  0  0  0  0  0  0  0  0
  151.6725  141.4876  155.5583 H   0  0  0  0  0  0  0  0  0  0  0  0
  150.9075  138.2309  157.2873 H   0  0  0  0  0  0  0  0  0  0  0  0
  153.1203  137.8067  158.2537 H   0  0  0  0  0  0  0  0  0  0  0  0
  152.0196  136.4936  158.6507 H   0  0  0  0  0  0  0  0  0  0  0  0
  152.4317  137.6973  159.8707 H   0  0  0  0  0  0  0  0  0  0  0  0
  147.9876  134.2354  159.8058 H   0  0  0  0  0  0  0  0  0  0  0  0
  146.9100  134.5037  162.3134 H   0  0  0  0  0  0  0  0  0  0  0  0
  147.3680  137.1427  162.9587 H   0  0  0  0  0  0  0  0  0  0  0  0
  152.2594  142.5943  161.4299 H   0  0  0  0  0  0  0  0  0  0  0  0
  152.5938  144.8998  160.5631 H   0  0  0  0  0  0  0  0  0  0  0  0
  152.3687  145.3708  158.1319 H   0  0  0  0  0  0  0  0  0  0  0  0
  151.8058  143.5290  156.5522 H   0  0  0  0  0  0  0  0  0  0  0  0
  1  2  1  0  0  0  0
  1 25  1  0  0  0  0
  1 26  1  0  0  0  0
  1 27  1  0  0  0  0
  2  3  1  0  0  0  0
  2 28  1  0  0  0  0
  2 29  1  0  0  0  0
  3  4  1  0  0  0  0
  4  5  1  0  0  0  0
  4 30  1  0  0  0  0
  4 31  1  0  0  0  0
  5  6  1  0  0  0  0
  5 32  1  0  0  0  0
  5 33  1  0  0  0  0
  6 24  1  0  0  0  0
  6  7  1  0  0  0  0
  7  8  1  0  0  0  0
  7 18  2  0  0  0  0
  8  9  1  0  0  0  0
  8 10  1  0  0  0  0
  8 34  1  0  0  0  0
  9 35  1  0  0  0  0
  9 36  1  0  0  0  0
  9 37  1  0  0  0  0
 10 11  1  0  0  0  0
 11 12  2  0  0  0  0
 11 13  1  0  0  0  0
 13 17  1  0  0  0  0
 13 14  2  0  0  0  0
 14 15  1  0  0  0  0
 14 38  1  0  0  0  0
 15 16  2  0  0  0  0
 15 39  1  0  0  0  0
 16 17  1  0  0  0  0
 16 40  1  0  0  0  0
 18 19  1  0  0  0  0
 19 24  2  0  0  0  0
 19 20  1  0  0  0  0
 20 21  2  0  0  0  0
 20 41  1  0  0  0  0
 21 22  1  0  0  0  0
 21 42  1  0  0  0  0
 22 23  2  0  0  0  0
 22 43  1  0  0  0  0
 23 24  1  0  0  0  0
 23 44  1  0  0  0  0
M  CHG  1  10  -1
M  END
> <s_m_source_file>
AV-unprocessed.smi

> <i_m_source_file_index>
500

> <i_lp_mmshare_version>
43012

> <i_f3d_flags>
0

> <s_epik_input>
W0NIM11bQ0gyXU9bQ0gyXVtDSDJdbihjKGMxMilbY0hdW2NIXVtjSF1bY0hdMiljKG4xKVtDQEhdKFtDSDNdKVtOSF1DKD1PKWMzW2NIXVtjSF1bY0hdbzM=

> <s_epik_cmdline>
J2VwaWtfcHl0aG9uJywgJy1waCcsICc3LjAnLCAnLXRuJywgJzgnLCAnLW1hJywgJzIwMCcsICctbWV0YWxfYmluZGluZycsICctaW1hZScsICc8aW5maWxlLm1hZT4nLCAnLW9tYWUnLCAnPG91dGZpbGUubWFlPic=

> <r_epik_Ionization_Penalty>
7.31223

> <r_epik_Ionization_Penalty_Charging>
6.43826

> <r_epik_Ionization_Penalty_Neutral>
0.873973

> <r_epik_State_Penalty>
6.5378

> <r_epik_Charging_Adjusted_Penalty>
12.9761

> <i_epik_Tot_Q>
-1

> <i_epik_Tot_abs_Q>
1

> <r_epik_Metal_State_Penalty>
2.55818

> <b_epik_Metal_Only>
1

> <s_lp_Force_Field>
OPLS_2005

> <r_lp_Energy>
16.2081

> <b_lp_Chiralities_Consistent>
1

> <s_lp_Variant>
AV-unprocessed.smi:500-6

> <Gold.Version>
5.8.1

> <Gold.Id.Protein>
6NUR|6NUR_protein|mol2

> <Gold.PLP.Fitness>
51.0038

> <Gold.PLP.PLP>
-47.3451

> <Gold.PLP.part.hbond>
-3.3579

> <Gold.PLP.part.metal>
0.0000

> <Gold.PLP.part.buried>
-2.9181

> <Gold.PLP.part.nonpolar>
-40.6874

> <Gold.PLP.part.repulsive>
0.1414

> <Gold.PLP.ligand.clash>
0.0000

> <Gold.PLP.ligand.torsion>
1.1173

> <Gold.PLP.Chemscore.Hbond>
1.8959

> <Gold.PLP.Chemscore.CHOScore>
0.0000

> <Gold.PLP.Chemscore.Metal>
0.0000

> <Gold.Chemscore.Hbonds>
donor molecule, donor type, donor heavy atom, donor atom, acceptor molecule, acceptor atom, score
      P1  H  6931  6943       L1    17  0.95
      P1  H  6934  6947       L1    17  0.53
      P1  H  7989  7998       L1     3  0.31

> <Gold.PLP.Chemscore.Internal.Correction>
0.2057

> <Gold.Rescore>
     Score         DG    S(hbond)    S(metal)    S(lipo)     H(rot)  DE(clash)    DE(int)     intcor
     18.06     -19.70       1.13        0.00     129.38       1.84       0.66       0.98       ----

> <Gold.Chemscore.Fitness>
18.0551

> <Gold.Chemscore.DG>
-19.6951

> <Gold.Chemscore.ZeroCoef>
-5.4800

> <Gold.Chemscore.Hbond>
1.1328

> <Gold.Chemscore.Metal>
0.0000

> <Gold.Chemscore.Lipo>
129.3797

> <Gold.Chemscore.Internal_Hbond>
0.0000

> <Gold.Chemscore.DEClash>
0.6581

> <Gold.Chemscore.DEInternal>
0.9818

> <Gold.Chemscore.Rot>
1.8382

> <Gold.Chemscore.Internal.Correction>
   9.000000E+99

> <Gold.Chemscore.Hbonds>
donor molecule, donor type, donor heavy atom, donor atom, acceptor molecule, acceptor atom, score
      P1  H  6931  6943       L1    17  0.26
      P1  H  6934  6947       L1    17  0.23
      P1  H  7989  7998       L1     3  0.17

> <Gold.Chemscore.Hbond.Weighted>
-3.7835

> <Gold.Chemscore.Metal.Weighted>
-0.0000

> <Gold.Chemscore.Lipo.Weighted>
-15.1374

> <Gold.Chemscore.Internal_Hbond.Weighted>
0.0000

> <Gold.Chemscore.DEClash.Weighted>
0.6581

> <Gold.Chemscore.DEInternal.Weighted>
0.9818

> <Gold.Chemscore.Rot.Weighted>
4.7059

> <Gold.Chemscore.Internal.Correction.Weighted>
   9.000000E+99

> <Gold.Protein.RotatedTorsions>
[ 6907 6896 6895 6894 ] final   68.24 input  -60.11 | X-H torsion
[ 7974 7965 7964 7962 ] final   -6.92 input  175.53 | X-H torsion
[ 8008 7997 7996 7995 ] final   30.55 input   59.86 | X-H torsion
[ 10167 10162 10161 10158 ] final  173.10 input  -65.29 | X-H torsion
[ 10718 10713 10712 10709 ] final  -97.38 input   66.30 | X-H torsion
[ 10763 10752 10751 10750 ] final -146.55 input  -60.55 | X-H torsion
[ 11005 11000 10999 10996 ] final  -59.91 input  -57.11 | X-H torsion

> <Gold.Protein.ActiveResidues>
 VAL166  LYS551  ARG553  GLY616  TRP617  ASP618  TYR619  PRO620  LYS621  CYS622 
 ASP623  PHE694  ASN695  SER759  ASP760  ASP761  ALA762  ILE779  LEU786  VAL792 
 PHE793  MET794  SER795  GLU796  ALA797  LYS798  CYS799  TRP800  GLU811  SER814 

> <Gold.Protein.RotatedAtoms>
  152.4607  134.5191  159.9776 H   0  0  0  0  0  0  0  0  0  0  0  0  # atno 6907 bound_to 6896
  151.5241  133.3455  159.2914 H   0  0  0  0  0  0  0  0  0  0  0  0  # atno 6908 bound_to 6896
  150.8568  134.7939  159.7114 H   0  0  0  0  0  0  0  0  0  0  0  0  # atno 6909 bound_to 6896
  146.2319  140.2242  142.8338 H   0  0  0  0  0  0  0  0  0  0  0  0  # atno 7974 bound_to 7965
  155.0922  140.3221  155.4570 H   0  0  0  0  0  0  0  0  0  0  0  0  # atno 8008 bound_to 7997
  156.2739  140.2076  156.5996 H   0  0  0  0  0  0  0  0  0  0  0  0  # atno 8009 bound_to 7997
  154.6894  140.0518  157.0335 H   0  0  0  0  0  0  0  0  0  0  0  0  # atno 8010 bound_to 7997
  139.5097  144.3299  152.0121 H   0  0  0  0  0  0  0  0  0  0  0  0  # atno 10167 bound_to 10162
  156.0082  130.5192  150.6366 H   0  0  0  0  0  0  0  0  0  0  0  0  # atno 10718 bound_to 10713
  154.8330  135.3383  154.6679 H   0  0  0  0  0  0  0  0  0  0  0  0  # atno 10763 bound_to 10752
  153.7297  135.6953  153.4997 H   0  0  0  0  0  0  0  0  0  0  0  0  # atno 10764 bound_to 10752
  153.2321  135.4413  155.0559 H   0  0  0  0  0  0  0  0  0  0  0  0  # atno 10765 bound_to 10752
  141.1267  133.6619  156.5143 H   0  0  0  0  0  0  0  0  0  0  0  0  # atno 11005 bound_to 11000
  144.9608  140.8273  143.5514 LP  0  0  0  0  0  0  0  0  0  0  0  0  # atno 17320 bound_to 7965
  145.2213  139.2158  143.5092 LP  0  0  0  0  0  0  0  0  0  0  0  0  # atno 17321 bound_to 7965
  140.2739  144.3934  150.6142 LP  0  0  0  0  0  0  0  0  0  0  0  0  # atno 17342 bound_to 10162
  140.6068  143.2168  151.6965 LP  0  0  0  0  0  0  0  0  0  0  0  0  # atno 17343 bound_to 10162
  157.4154  131.0829  151.1181 LP  0  0  0  0  0  0  0  0  0  0  0  0  # atno 17370 bound_to 10713
  157.1800  130.6305  149.5668 LP  0  0  0  0  0  0  0  0  0  0  0  0  # atno 17371 bound_to 10713
  140.4344  134.7073  157.4959 LP  0  0  0  0  0  0  0  0  0  0  0  0  # atno 17394 bound_to 11000
  140.0272  134.6460  155.9157 LP  0  0  0  0  0  0  0  0  0  0  0  0  # atno 17395 bound_to 11000

$$$$
