AV-unprocessed.smi:3083|AV-procd|sdf|11746|dock5
  -GOLD-   2272017143D 1   1.00000     0.00000
 Structure written by MMmdl.
 28 29  0  0  0  0  0  0  0  0  2 V2000
  146.0641  135.3963  152.0181 N   0  3  0  0  0  0  0  0  0  0  0  0
  145.4688  134.3227  151.2005 C   0  0  2  0  0  0  0  0  0  0  0  0
  144.1078  133.8735  151.7770 C   0  0  0  0  0  0  0  0  0  0  0  0
  143.4943  132.7286  150.9552 C   0  0  0  0  0  0  0  0  0  0  0  0
  144.4712  131.5523  150.8067 C   0  0  0  0  0  0  0  0  0  0  0  0
  145.7938  132.0130  150.1719 C   0  0  0  0  0  0  0  0  0  0  0  0
  146.4682  133.1534  150.9645 C   0  0  2  0  0  0  0  0  0  0  0  0
  147.1387  132.6452  152.1637 N   0  0  0  0  0  0  0  0  0  0  0  0
  148.0194  133.3314  152.9764 C   0  0  0  0  0  0  0  0  0  0  0  0
  148.4383  132.4751  153.9536 C   0  0  0  0  0  0  0  0  0  0  0  0
  147.7675  131.2604  153.6454 C   0  0  0  0  0  0  0  0  0  0  0  0
  146.9991  131.3639  152.5741 N   0  0  0  0  0  0  0  0  0  0  0  0
  145.4948  136.2273  151.9393 H   0  0  0  0  0  0  0  0  0  0  0  0
  146.9977  135.5950  151.6884 H   0  0  0  0  0  0  0  0  0  0  0  0
  145.2660  134.7699  150.2263 H   0  0  0  0  0  0  0  0  0  0  0  0
  144.2042  133.5615  152.8160 H   0  0  0  0  0  0  0  0  0  0  0  0
  143.4168  134.7172  151.7874 H   0  0  0  0  0  0  0  0  0  0  0  0
  142.5711  132.3883  151.4251 H   0  0  0  0  0  0  0  0  0  0  0  0
  143.2181  133.0973  149.9663 H   0  0  0  0  0  0  0  0  0  0  0  0
  144.6583  131.0987  151.7805 H   0  0  0  0  0  0  0  0  0  0  0  0
  144.0191  130.7742  150.1908 H   0  0  0  0  0  0  0  0  0  0  0  0
  146.4749  131.1668  150.0729 H   0  0  0  0  0  0  0  0  0  0  0  0
  145.5932  132.3562  149.1560 H   0  0  0  0  0  0  0  0  0  0  0  0
  147.2663  133.5471  150.3328 H   0  0  0  0  0  0  0  0  0  0  0  0
  148.2741  134.3651  152.7936 H   0  0  0  0  0  0  0  0  0  0  0  0
  149.1264  132.6826  154.7599 H   0  0  0  0  0  0  0  0  0  0  0  0
  147.8182  130.3131  154.1617 H   0  0  0  0  0  0  0  0  0  0  0  0
  146.1019  135.1052  152.9844 H   0  0  0  0  0  0  0  0  0  0  0  0
  1  2  1  0  0  0  0
  1 13  1  0  0  0  0
  1 14  1  0  0  0  0
  1 28  1  0  0  0  0
  2  7  1  0  0  0  0
  2  3  1  0  0  0  0
  2 15  1  0  0  0  0
  3  4  1  0  0  0  0
  3 16  1  0  0  0  0
  3 17  1  0  0  0  0
  4  5  1  0  0  0  0
  4 18  1  0  0  0  0
  4 19  1  0  0  0  0
  5  6  1  0  0  0  0
  5 20  1  0  0  0  0
  5 21  1  0  0  0  0
  6  7  1  0  0  0  0
  6 22  1  0  0  0  0
  6 23  1  0  0  0  0
  7  8  1  0  0  0  0
  7 24  1  0  0  0  0
  8 12  1  0  0  0  0
  8  9  1  0  0  0  0
  9 10  2  0  0  0  0
  9 25  1  0  0  0  0
 10 11  1  0  0  0  0
 10 26  1  0  0  0  0
 11 12  2  0  0  0  0
 11 27  1  0  0  0  0
M  CHG  1   1   1
M  END
> <s_m_source_file>
AV-unprocessed.smi

> <i_m_source_file_index>
3083

> <i_lp_mmshare_version>
43012

> <i_f3d_flags>
0

> <s_epik_input>
W05IMl1bQ0BASF0xW0NIMl1bQ0gyXVtDSDJdW0NIMl1bQ0BIXTFuMltjSF1bY0hdW2NIXW4y

> <s_epik_cmdline>
J2VwaWtfcHl0aG9uJywgJy1waCcsICc3LjAnLCAnLXRuJywgJzgnLCAnLW1hJywgJzIwMCcsICctbWV0YWxfYmluZGluZycsICctaW1hZScsICc8aW5maWxlLm1hZT4nLCAnLW9tYWUnLCAnPG91dGZpbGUubWFlPic=

> <r_lp_tautomer_probability>
1

> <r_epik_Ionization_Penalty>
0.00385053

> <r_epik_Ionization_Penalty_Charging>
0.0038389

> <r_epik_Ionization_Penalty_Neutral>
1.16305e-05

> <r_epik_State_Penalty>
-0

> <r_epik_Charging_Adjusted_Penalty>
0.0038389

> <i_epik_Tot_Q>
1

> <i_epik_Tot_abs_Q>
1

> <r_epik_Metal_State_Penalty>
-0

> <b_epik_Metal_Only>
0

> <s_lp_Force_Field>
OPLS_2005

> <r_lp_Energy>
16.3847

> <b_lp_Chiralities_Consistent>
1

> <s_lp_Variant>
AV-unprocessed.smi:3083-3

> <Gold.Version>
5.8.1

> <Gold.Id.Protein>
6NUR|6NUR_protein|mol2

> <Gold.PLP.Fitness>
35.1680

> <Gold.PLP.PLP>
-26.3316

> <Gold.PLP.part.hbond>
-1.0000

> <Gold.PLP.part.metal>
0.0000

> <Gold.PLP.part.buried>
-2.9189

> <Gold.PLP.part.nonpolar>
-23.2675

> <Gold.PLP.part.repulsive>
0.5168

> <Gold.PLP.ligand.clash>
0.0000

> <Gold.PLP.ligand.torsion>
0.1060

> <Gold.PLP.Chemscore.Hbond>
2.0000

> <Gold.PLP.Chemscore.CHOScore>
0.9946

> <Gold.PLP.Chemscore.Metal>
0.0000

> <Gold.Chemscore.Hbonds>
donor molecule, donor type, donor heavy atom, donor atom, acceptor molecule, acceptor atom, score
      L1  H     1    14       P1  7948  2.00
      L1  C     9    25       P1  7948  1.00

> <Gold.PLP.Chemscore.Internal.Correction>
0.0646

> <Gold.Rescore>
     Score         DG    S(hbond)    S(metal)    S(lipo)     H(rot)  DE(clash)    DE(int)     intcor
     11.95     -13.12       1.00        0.00      58.66       1.00       0.00       1.17       ----

> <Gold.Chemscore.Fitness>
11.9538

> <Gold.Chemscore.DG>
-13.1235

> <Gold.Chemscore.ZeroCoef>
-5.4800

> <Gold.Chemscore.Hbond>
1.0000

> <Gold.Chemscore.Metal>
0.0000

> <Gold.Chemscore.Lipo>
58.6621

> <Gold.Chemscore.Internal_Hbond>
0.0000

> <Gold.Chemscore.DEClash>
0.0000

> <Gold.Chemscore.DEInternal>
1.1697

> <Gold.Chemscore.Rot>
1.0000

> <Gold.Chemscore.Internal.Correction>
   9.000000E+99

> <Gold.Chemscore.Hbonds>
donor molecule, donor type, donor heavy atom, donor atom, acceptor molecule, acceptor atom, score
      L1  H     1    14       P1  7948  0.92

> <Gold.Chemscore.Hbond.Weighted>
-3.3400

> <Gold.Chemscore.Metal.Weighted>
-0.0000

> <Gold.Chemscore.Lipo.Weighted>
-6.8635

> <Gold.Chemscore.Internal_Hbond.Weighted>
0.0000

> <Gold.Chemscore.DEClash.Weighted>
0.0000

> <Gold.Chemscore.DEInternal.Weighted>
1.1697

> <Gold.Chemscore.Rot.Weighted>
2.5600

> <Gold.Chemscore.Internal.Correction.Weighted>
   9.000000E+99

> <Gold.Protein.RotatedTorsions>
[ 6907 6896 6895 6894 ] final  -90.51 input  -60.11 | X-H torsion
[ 7974 7965 7964 7962 ] final  156.48 input  175.53 | X-H torsion
[ 8008 7997 7996 7995 ] final   67.38 input   59.86 | X-H torsion
[ 10167 10162 10161 10158 ] final   93.66 input  -65.29 | X-H torsion
[ 10718 10713 10712 10709 ] final  176.66 input   66.30 | X-H torsion
[ 10763 10752 10751 10750 ] final -170.57 input  -60.55 | X-H torsion
[ 11005 11000 10999 10996 ] final   85.38 input  -57.11 | X-H torsion

> <Gold.Protein.ActiveResidues>
 VAL166  LYS551  ARG553  GLY616  TRP617  ASP618  TYR619  PRO620  LYS621  CYS622 
 ASP623  PHE694  ASN695  SER759  ASP760  ASP761  ALA762  ILE779  LEU786  VAL792 
 PHE793  MET794  SER795  GLU796  ALA797  LYS798  CYS799  TRP800  GLU811  SER814 

> <Gold.Protein.RotatedAtoms>
  150.6882  134.2421  159.4476 H   0  0  0  0  0  0  0  0  0  0  0  0  # atno 6907 bound_to 6896
  152.0364  134.9735  160.0582 H   0  0  0  0  0  0  0  0  0  0  0  0  # atno 6908 bound_to 6896
  152.1253  133.4342  159.4732 H   0  0  0  0  0  0  0  0  0  0  0  0  # atno 6909 bound_to 6896
  144.7961  139.7209  143.6201 H   0  0  0  0  0  0  0  0  0  0  0  0  # atno 7974 bound_to 7965
  155.6920  140.3496  155.4897 H   0  0  0  0  0  0  0  0  0  0  0  0  # atno 8008 bound_to 7997
  155.9515  140.1120  157.0995 H   0  0  0  0  0  0  0  0  0  0  0  0  # atno 8009 bound_to 7997
  154.4123  140.1193  156.5045 H   0  0  0  0  0  0  0  0  0  0  0  0  # atno 8010 bound_to 7997
  139.8158  144.6753  150.9581 H   0  0  0  0  0  0  0  0  0  0  0  0  # atno 10167 bound_to 10162
  156.9168  130.9927  151.3011 H   0  0  0  0  0  0  0  0  0  0  0  0  # atno 10718 bound_to 10713
  154.6401  135.2897  155.0114 H   0  0  0  0  0  0  0  0  0  0  0  0  # atno 10763 bound_to 10752
  154.1243  135.6543  153.4913 H   0  0  0  0  0  0  0  0  0  0  0  0  # atno 10764 bound_to 10752
  153.0322  135.5295  154.7264 H   0  0  0  0  0  0  0  0  0  0  0  0  # atno 10765 bound_to 10752
  139.8973  134.8283  156.2575 H   0  0  0  0  0  0  0  0  0  0  0  0  # atno 11005 bound_to 11000
  146.2229  139.5669  142.9606 LP  0  0  0  0  0  0  0  0  0  0  0  0  # atno 17320 bound_to 7965
  145.5671  141.0398  143.2194 LP  0  0  0  0  0  0  0  0  0  0  0  0  # atno 17321 bound_to 7965
  140.7816  143.4140  151.0948 LP  0  0  0  0  0  0  0  0  0  0  0  0  # atno 17342 bound_to 10162
  139.7803  143.8365  152.3136 LP  0  0  0  0  0  0  0  0  0  0  0  0  # atno 17343 bound_to 10162
  157.5933  130.8459  149.8691 LP  0  0  0  0  0  0  0  0  0  0  0  0  # atno 17370 bound_to 10713
  156.0510  130.3718  150.1202 LP  0  0  0  0  0  0  0  0  0  0  0  0  # atno 17371 bound_to 10713
  141.0184  133.7055  156.1227 LP  0  0  0  0  0  0  0  0  0  0  0  0  # atno 17394 bound_to 11000
  140.7269  134.4297  157.5570 LP  0  0  0  0  0  0  0  0  0  0  0  0  # atno 17395 bound_to 11000

$$$$
