AV-unprocessed.smi:139|AV-procd|sdf|1182|dock4
  -GOLD-   2262018333D 1   1.00000     0.00000
 Structure written by MMmdl.
 50 53  0  0  0  0  0  0  0  0  1 V2000
  149.8209  140.1039  155.8800 O   0  0  0  0  0  0  0  0  0  0  0  0
  149.2585  140.6110  156.8513 C   0  0  0  0  0  0  0  0  0  0  0  0
  147.7716  140.3412  157.1215 C   0  0  0  0  0  0  0  0  0  0  0  0
  146.9491  141.5647  157.0051 N   0  0  0  0  0  0  0  0  0  0  0  0
  146.8415  142.2077  155.7467 C   0  0  0  0  0  0  0  0  0  0  0  0
  147.4296  141.7754  154.7545 O   0  0  0  0  0  0  0  0  0  0  0  0
  145.9937  143.3945  155.7166 C   0  0  0  0  0  0  0  0  0  0  0  0
  145.8502  144.0812  154.5705 F   0  0  0  0  0  0  0  0  0  0  0  0
  145.3504  143.8167  156.8245 C   0  0  0  0  0  0  0  0  0  0  0  0
  145.4462  143.1650  158.0398 N   0  0  0  0  0  0  0  0  0  0  0  0
  144.7008  143.6681  159.2542 C   0  0  1  0  0  0  0  0  0  0  0  0
  145.1942  145.0680  159.6390 C   0  0  0  0  0  0  0  0  0  0  0  0
  144.1300  145.9580  159.0329 C   0  0  0  0  0  0  0  0  0  0  0  0
  142.8860  145.0901  159.1769 C   0  0  0  0  0  0  0  0  0  0  0  0
  143.3408  143.7621  158.9416 O   0  0  0  0  0  0  0  0  0  0  0  0
  146.2676  142.0237  158.1582 C   0  0  0  0  0  0  0  0  0  0  0  0
  146.3888  141.4420  159.2388 O   0  0  0  0  0  0  0  0  0  0  0  0
  149.8803  141.4155  157.7260 N   0  0  0  0  0  0  0  0  0  0  0  0
  151.2971  141.7694  157.6980 C   0  0  2  0  0  0  0  0  0  0  0  0
  152.1643  140.4986  157.5943 C   0  0  0  0  0  0  0  0  0  0  0  0
  152.3649  139.8291  158.9570 C   0  0  0  0  0  0  0  0  0  0  0  0
  153.0591  140.7780  159.9411 C   0  0  0  0  0  0  0  0  0  0  0  0
  152.4644  142.1782  159.9546 C   0  0  0  0  0  0  0  0  0  0  0  0
  152.7512  143.0265  161.0448 C   0  0  0  0  0  0  0  0  0  0  0  0
  152.2288  144.3328  161.0892 C   0  0  0  0  0  0  0  0  0  0  0  0
  151.4146  144.7993  160.0413 C   0  0  0  0  0  0  0  0  0  0  0  0
  151.1256  143.9599  158.9495 C   0  0  0  0  0  0  0  0  0  0  0  0
  151.6484  142.6494  158.8934 C   0  0  0  0  0  0  0  0  0  0  0  0
  147.4040  139.5756  156.4353 H   0  0  0  0  0  0  0  0  0  0  0  0
  147.6857  139.8798  158.1060 H   0  0  0  0  0  0  0  0  0  0  0  0
  144.7386  144.7031  156.7470 H   0  0  0  0  0  0  0  0  0  0  0  0
  144.8376  142.9232  160.0396 H   0  0  0  0  0  0  0  0  0  0  0  0
  145.1887  145.1508  160.7265 H   0  0  0  0  0  0  0  0  0  0  0  0
  146.2024  145.2687  159.2745 H   0  0  0  0  0  0  0  0  0  0  0  0
  144.0391  146.9212  159.5354 H   0  0  0  0  0  0  0  0  0  0  0  0
  144.3445  146.1404  157.9794 H   0  0  0  0  0  0  0  0  0  0  0  0
  142.4928  145.1540  160.1926 H   0  0  0  0  0  0  0  0  0  0  0  0
  142.0922  145.3705  158.4841 H   0  0  0  0  0  0  0  0  0  0  0  0
  149.3362  141.7942  158.4876 H   0  0  0  0  0  0  0  0  0  0  0  0
  151.4825  142.3720  156.8065 H   0  0  0  0  0  0  0  0  0  0  0  0
  151.7435  139.7949  156.8747 H   0  0  0  0  0  0  0  0  0  0  0  0
  153.1452  140.7728  157.2041 H   0  0  0  0  0  0  0  0  0  0  0  0
  151.3928  139.5366  159.3557 H   0  0  0  0  0  0  0  0  0  0  0  0
  152.9438  138.9111  158.8522 H   0  0  0  0  0  0  0  0  0  0  0  0
  153.0253  140.3554  160.9461 H   0  0  0  0  0  0  0  0  0  0  0  0
  154.1132  140.8686  159.6761 H   0  0  0  0  0  0  0  0  0  0  0  0
  153.3772  142.6762  161.8525 H   0  0  0  0  0  0  0  0  0  0  0  0
  152.4534  144.9762  161.9271 H   0  0  0  0  0  0  0  0  0  0  0  0
  151.0117  145.8007  160.0743 H   0  0  0  0  0  0  0  0  0  0  0  0
  150.4977  144.3243  158.1493 H   0  0  0  0  0  0  0  0  0  0  0  0
  1  2  2  0  0  0  0
  2  3  1  0  0  0  0
  2 18  1  0  0  0  0
  3  4  1  0  0  0  0
  3 29  1  0  0  0  0
  3 30  1  0  0  0  0
  4 16  1  0  0  0  0
  4  5  1  0  0  0  0
  5  6  2  0  0  0  0
  5  7  1  0  0  0  0
  7  8  1  0  0  0  0
  7  9  2  0  0  0  0
  9 10  1  0  0  0  0
  9 31  1  0  0  0  0
 10 11  1  0  0  0  0
 10 16  1  0  0  0  0
 11 15  1  0  0  0  0
 11 12  1  0  0  0  0
 11 32  1  0  0  0  0
 12 13  1  0  0  0  0
 12 33  1  0  0  0  0
 12 34  1  0  0  0  0
 13 14  1  0  0  0  0
 13 35  1  0  0  0  0
 13 36  1  0  0  0  0
 14 15  1  0  0  0  0
 14 37  1  0  0  0  0
 14 38  1  0  0  0  0
 16 17  2  0  0  0  0
 18 19  1  0  0  0  0
 18 39  1  0  0  0  0
 19 28  1  0  0  0  0
 19 20  1  0  0  0  0
 19 40  1  0  0  0  0
 20 21  1  0  0  0  0
 20 41  1  0  0  0  0
 20 42  1  0  0  0  0
 21 22  1  0  0  0  0
 21 43  1  0  0  0  0
 21 44  1  0  0  0  0
 22 23  1  0  0  0  0
 22 45  1  0  0  0  0
 22 46  1  0  0  0  0
 23 28  2  0  0  0  0
 23 24  1  0  0  0  0
 24 25  2  0  0  0  0
 24 47  1  0  0  0  0
 25 26  1  0  0  0  0
 25 48  1  0  0  0  0
 26 27  2  0  0  0  0
 26 49  1  0  0  0  0
 27 28  1  0  0  0  0
 27 50  1  0  0  0  0
M  END
> <s_m_source_file>
AV-unprocessed.smi

> <i_m_source_file_index>
139

> <i_lp_mmshare_version>
43012

> <i_f3d_flags>
0

> <s_epik_input>
W2NIXTFbY0hdW2NIXVtjSF1jKGMxMilbQ0BASF0oW0NIMl1bQ0gyXVtDSDJdMilbTkhdQyg9TylbQ0gyXW4zYyg9TyljKEYpW2NIXW4oYzM9TylbQ0BASF00W0NIMl1bQ0gyXVtDSDJdTzQ=

> <s_epik_cmdline>
J2VwaWtfcHl0aG9uJywgJy1waCcsICc3LjAnLCAnLXRuJywgJzgnLCAnLW1hJywgJzIwMCcsICctbWV0YWxfYmluZGluZycsICctaW1hZScsICc8aW5maWxlLm1hZT4nLCAnLW9tYWUnLCAnPG91dGZpbGUubWFlPic=

> <r_lp_tautomer_probability>
1

> <r_epik_Ionization_Penalty>
3.261e-08

> <r_epik_Ionization_Penalty_Charging>
3.6725e-09

> <r_epik_Ionization_Penalty_Neutral>
2.89375e-08

> <r_epik_State_Penalty>
-0

> <r_epik_Charging_Adjusted_Penalty>
3.6725e-09

> <i_epik_Tot_Q>
0

> <i_epik_Tot_abs_Q>
0

> <r_epik_Metal_State_Penalty>
-0

> <b_epik_Metal_Only>
0

> <s_epik_Chemistry_Notes>
This compound contains an acetal/aminal-like group ( X-CH(R)-Y where X, Y are N, S, or O) that may be acid/base labile, releasing an aldehyde.

> <s_lp_Force_Field>
OPLS_2005

> <r_lp_Energy>
30.9445

> <b_lp_Chiralities_Consistent>
1

> <s_lp_Variant>
AV-unprocessed.smi:139-2

> <Gold.Version>
5.8.1

> <Gold.Id.Protein>
6NUR|6NUR_protein|mol2

> <Gold.PLP.Fitness>
50.2944

> <Gold.PLP.PLP>
-48.1083

> <Gold.PLP.part.hbond>
-1.0000

> <Gold.PLP.part.metal>
0.0000

> <Gold.PLP.part.buried>
-7.8862

> <Gold.PLP.part.nonpolar>
-39.8961

> <Gold.PLP.part.repulsive>
0.2124

> <Gold.PLP.ligand.clash>
0.0000

> <Gold.PLP.ligand.torsion>
0.1189

> <Gold.PLP.Chemscore.Hbond>
0.7956

> <Gold.PLP.Chemscore.CHOScore>
0.0000

> <Gold.PLP.Chemscore.Metal>
0.0000

> <Gold.Chemscore.Hbonds>
donor molecule, donor type, donor heavy atom, donor atom, acceptor molecule, acceptor atom, score
      P1  H  6934  6946       L1    17  0.75

> <Gold.PLP.Chemscore.Internal.Correction>
0.0371

> <Gold.Rescore>
     Score         DG    S(hbond)    S(metal)    S(lipo)     H(rot)  DE(clash)    DE(int)     intcor
     13.79     -17.61       0.95        0.00     116.30       1.82       0.17       3.66       ----

> <Gold.Chemscore.Fitness>
13.7863

> <Gold.Chemscore.DG>
-17.6136

> <Gold.Chemscore.ZeroCoef>
-5.4800

> <Gold.Chemscore.Hbond>
0.9518

> <Gold.Chemscore.Metal>
0.0000

> <Gold.Chemscore.Lipo>
116.2997

> <Gold.Chemscore.Internal_Hbond>
0.0000

> <Gold.Chemscore.DEClash>
0.1654

> <Gold.Chemscore.DEInternal>
3.6619

> <Gold.Chemscore.Rot>
1.8174

> <Gold.Chemscore.Internal.Correction>
   9.000000E+99

> <Gold.Chemscore.Hbonds>
donor molecule, donor type, donor heavy atom, donor atom, acceptor molecule, acceptor atom, score
      P1  H  6934  6946       L1    17  0.76

> <Gold.Chemscore.Hbond.Weighted>
-3.1790

> <Gold.Chemscore.Metal.Weighted>
-0.0000

> <Gold.Chemscore.Lipo.Weighted>
-13.6071

> <Gold.Chemscore.Internal_Hbond.Weighted>
0.0000

> <Gold.Chemscore.DEClash.Weighted>
0.1654

> <Gold.Chemscore.DEInternal.Weighted>
3.6619

> <Gold.Chemscore.Rot.Weighted>
4.6524

> <Gold.Chemscore.Internal.Correction.Weighted>
   9.000000E+99

> <Gold.Protein.RotatedTorsions>
[ 6907 6896 6895 6894 ] final  -76.51 input  -60.11 | X-H torsion
[ 7974 7965 7964 7962 ] final   56.26 input  175.53 | X-H torsion
[ 8008 7997 7996 7995 ] final  -40.79 input   59.86 | X-H torsion
[ 10167 10162 10161 10158 ] final  -12.27 input  -65.29 | X-H torsion
[ 10718 10713 10712 10709 ] final  -86.54 input   66.30 | X-H torsion
[ 10763 10752 10751 10750 ] final  -57.31 input  -60.55 | X-H torsion
[ 11005 11000 10999 10996 ] final   17.65 input  -57.11 | X-H torsion

> <Gold.Protein.ActiveResidues>
 VAL166  LYS551  ARG553  GLY616  TRP617  ASP618  TYR619  PRO620  LYS621  CYS622 
 ASP623  PHE694  ASN695  SER759  ASP760  ASP761  ALA762  ILE779  LEU786  VAL792 
 PHE793  MET794  SER795  GLU796  ALA797  LYS798  CYS799  TRP800  GLU811  SER814 

> <Gold.Protein.RotatedAtoms>
  150.7025  134.4562  159.5358 H   0  0  0  0  0  0  0  0  0  0  0  0  # atno 6907 bound_to 6896
  152.2245  134.8378  160.0491 H   0  0  0  0  0  0  0  0  0  0  0  0  # atno 6908 bound_to 6896
  151.9217  133.3552  159.3936 H   0  0  0  0  0  0  0  0  0  0  0  0  # atno 6909 bound_to 6896
  145.9417  139.3894  143.0360 H   0  0  0  0  0  0  0  0  0  0  0  0  # atno 7974 bound_to 7965
  154.4009  140.1516  156.3084 H   0  0  0  0  0  0  0  0  0  0  0  0  # atno 8008 bound_to 7997
  155.8637  140.3452  155.5752 H   0  0  0  0  0  0  0  0  0  0  0  0  # atno 8009 bound_to 7997
  155.7851  140.0849  157.2029 H   0  0  0  0  0  0  0  0  0  0  0  0  # atno 8010 bound_to 7997
  140.7157  143.5550  150.9259 H   0  0  0  0  0  0  0  0  0  0  0  0  # atno 10167 bound_to 10162
  155.9989  130.4768  150.4730 H   0  0  0  0  0  0  0  0  0  0  0  0  # atno 10718 bound_to 10713
  154.2204  135.6378  153.5143 H   0  0  0  0  0  0  0  0  0  0  0  0  # atno 10763 bound_to 10752
  152.9970  135.5495  154.6120 H   0  0  0  0  0  0  0  0  0  0  0  0  # atno 10764 bound_to 10752
  154.5578  135.2906  155.0921 H   0  0  0  0  0  0  0  0  0  0  0  0  # atno 10765 bound_to 10752
  140.4336  134.1394  155.7683 H   0  0  0  0  0  0  0  0  0  0  0  0  # atno 11005 bound_to 11000
  145.8291  140.9640  143.0858 LP  0  0  0  0  0  0  0  0  0  0  0  0  # atno 17320 bound_to 7965
  144.6780  140.0139  143.7484 LP  0  0  0  0  0  0  0  0  0  0  0  0  # atno 17321 bound_to 7965
  139.9275  143.6533  152.3083 LP  0  0  0  0  0  0  0  0  0  0  0  0  # atno 17342 bound_to 10162
  139.6972  144.7640  151.1336 LP  0  0  0  0  0  0  0  0  0  0  0  0  # atno 17343 bound_to 10162
  157.2743  131.0593  151.2239 LP  0  0  0  0  0  0  0  0  0  0  0  0  # atno 17370 bound_to 10713
  157.3309  130.6984  149.6324 LP  0  0  0  0  0  0  0  0  0  0  0  0  # atno 17371 bound_to 10713
  141.1735  133.8561  157.1496 LP  0  0  0  0  0  0  0  0  0  0  0  0  # atno 17394 bound_to 11000
  140.0117  134.9985  157.0409 LP  0  0  0  0  0  0  0  0  0  0  0  0  # atno 17395 bound_to 11000

$$$$
