AV-unprocessed.smi:2068|AV-procd|sdf|8429|dock5
  -GOLD-   2272011123D 1   1.00000     0.00000
 Structure written by MMmdl.
 32 33  0  0  0  0  0  0  0  0  2 V2000
  148.0754  140.6220  153.2813 N   0  0  0  0  0  0  0  0  0  0  0  0
  147.8097  139.8415  154.3329 C   0  0  0  0  0  0  0  0  0  0  0  0
  147.0430  140.1878  155.2295 O   0  0  0  0  0  0  0  0  0  0  0  0
  148.5156  138.4843  154.3978 C   0  0  0  0  0  0  0  0  0  0  0  0
  149.9877  138.6606  154.6374 C   0  0  0  0  0  0  0  0  0  0  0  0
  151.0146  138.1623  153.8773 C   0  0  0  0  0  0  0  0  0  0  0  0
  152.5680  138.6200  154.5145 S   0  0  0  0  0  0  0  0  0  0  0  0
  151.7631  139.4915  155.8208 C   0  0  0  0  0  0  0  0  0  0  0  0
  152.3917  140.1614  156.7993 N   0  5  0  0  0  0  0  0  0  0  0  0
  151.7671  141.1985  157.4065 C   0  0  0  0  0  0  0  0  0  0  0  0
  151.0588  142.0714  156.9006 O   0  0  0  0  0  0  0  0  0  0  0  0
  152.0172  141.2011  158.9237 C   0  0  0  0  0  0  0  0  0  0  0  0
  152.7483  142.4588  159.4465 C   0  0  2  0  0  0  0  0  0  0  0  0
  153.0293  142.4275  160.9297 C   0  0  0  0  0  0  0  0  0  0  0  0
  152.5890  143.5142  161.5597 C   0  0  0  0  0  0  0  0  0  0  0  0
  151.9244  144.4897  160.6285 C   0  0  0  0  0  0  0  0  0  0  0  0
  151.9269  143.7613  159.2658 C   0  0  0  0  0  0  0  0  0  0  0  0
  150.4315  139.3983  155.7388 N   0  0  0  0  0  0  0  0  0  0  0  0
  147.6146  141.5152  153.1877 H   0  0  0  0  0  0  0  0  0  0  0  0
  148.7208  140.3039  152.5717 H   0  0  0  0  0  0  0  0  0  0  0  0
  148.0600  137.8866  155.1883 H   0  0  0  0  0  0  0  0  0  0  0  0
  148.3448  137.9428  153.4665 H   0  0  0  0  0  0  0  0  0  0  0  0
  150.9517  137.5615  152.9825 H   0  0  0  0  0  0  0  0  0  0  0  0
  151.0498  141.1130  159.4192 H   0  0  0  0  0  0  0  0  0  0  0  0
  152.5894  140.3158  159.2100 H   0  0  0  0  0  0  0  0  0  0  0  0
  153.7060  142.5678  158.9352 H   0  0  0  0  0  0  0  0  0  0  0  0
  153.5484  141.6062  161.4020 H   0  0  0  0  0  0  0  0  0  0  0  0
  152.6947  143.7067  162.6171 H   0  0  0  0  0  0  0  0  0  0  0  0
  150.9127  144.7168  160.9659 H   0  0  0  0  0  0  0  0  0  0  0  0
  152.4978  145.4164  160.5920 H   0  0  0  0  0  0  0  0  0  0  0  0
  152.3487  144.3894  158.4803 H   0  0  0  0  0  0  0  0  0  0  0  0
  150.9008  143.5343  158.9733 H   0  0  0  0  0  0  0  0  0  0  0  0
  1  2  1  0  0  0  0
  1 19  1  0  0  0  0
  1 20  1  0  0  0  0
  2  3  2  0  0  0  0
  2  4  1  0  0  0  0
  4  5  1  0  0  0  0
  4 21  1  0  0  0  0
  4 22  1  0  0  0  0
  5 18  1  0  0  0  0
  5  6  2  0  0  0  0
  6  7  1  0  0  0  0
  6 23  1  0  0  0  0
  7  8  1  0  0  0  0
  8  9  1  0  0  0  0
  8 18  2  0  0  0  0
  9 10  1  0  0  0  0
 10 11  2  0  0  0  0
 10 12  1  0  0  0  0
 12 13  1  0  0  0  0
 12 24  1  0  0  0  0
 12 25  1  0  0  0  0
 13 17  1  0  0  0  0
 13 14  1  0  0  0  0
 13 26  1  0  0  0  0
 14 15  2  0  0  0  0
 14 27  1  0  0  0  0
 15 16  1  0  0  0  0
 15 28  1  0  0  0  0
 16 17  1  0  0  0  0
 16 29  1  0  0  0  0
 16 30  1  0  0  0  0
 17 31  1  0  0  0  0
 17 32  1  0  0  0  0
M  CHG  1   9  -1
M  END
> <s_m_source_file>
AV-unprocessed.smi

> <i_m_source_file_index>
2068

> <i_lp_mmshare_version>
43012

> <i_f3d_flags>
0

> <s_epik_input>
W05IMl1DKD1PKVtDSDJdYzFbY0hdc2MobjEpW05IXUMoPU8pW0NIMl1bQ0BASF0yW0NIXT1bQ0hdW0NIMl1bQ0gyXTI=

> <s_epik_cmdline>
J2VwaWtfcHl0aG9uJywgJy1waCcsICc3LjAnLCAnLXRuJywgJzgnLCAnLW1hJywgJzIwMCcsICctbWV0YWxfYmluZGluZycsICctaW1hZScsICc8aW5maWxlLm1hZT4nLCAnLW9tYWUnLCAnPG91dGZpbGUubWFlPic=

> <r_lp_tautomer_probability>
1

> <r_epik_Ionization_Penalty>
4.99584

> <r_epik_Ionization_Penalty_Charging>
4.63763

> <r_epik_Ionization_Penalty_Neutral>
0.358213

> <r_epik_State_Penalty>
4.63739

> <r_epik_Charging_Adjusted_Penalty>
9.27502

> <i_epik_Tot_Q>
-1

> <i_epik_Tot_abs_Q>
1

> <r_epik_Metal_State_Penalty>
0.891949

> <b_epik_Metal_Only>
1

> <s_lp_Force_Field>
OPLS_2005

> <r_lp_Energy>
13.7628

> <b_lp_Chiralities_Consistent>
1

> <s_lp_Variant>
AV-unprocessed.smi:2068-3

> <Gold.Version>
5.8.1

> <Gold.Id.Protein>
6NUR|6NUR_protein|mol2

> <Gold.PLP.Fitness>
52.3274

> <Gold.PLP.PLP>
-41.3878

> <Gold.PLP.part.hbond>
-1.7622

> <Gold.PLP.part.metal>
0.0000

> <Gold.PLP.part.buried>
-5.4919

> <Gold.PLP.part.nonpolar>
-33.6381

> <Gold.PLP.part.repulsive>
0.3196

> <Gold.PLP.ligand.clash>
0.0000

> <Gold.PLP.ligand.torsion>
0.5825

> <Gold.PLP.Chemscore.Hbond>
2.9920

> <Gold.PLP.Chemscore.CHOScore>
1.0000

> <Gold.PLP.Chemscore.Metal>
0.0000

> <Gold.Chemscore.Hbonds>
donor molecule, donor type, donor heavy atom, donor atom, acceptor molecule, acceptor atom, score
      L1  H     1    20       P1  7957  1.00
      P1  H  7997  8008       L1     9  2.00
      L1  C     6    23       P1  7948  0.04
      L1  C     6    23       P1  7949  0.98

> <Gold.PLP.Chemscore.Internal.Correction>
0.1286

> <Gold.Rescore>
     Score         DG    S(hbond)    S(metal)    S(lipo)     H(rot)  DE(clash)    DE(int)     intcor
     15.36     -17.17       1.81        0.00      95.61       2.17       0.11       1.70       ----

> <Gold.Chemscore.Fitness>
15.3626

> <Gold.Chemscore.DG>
-17.1745

> <Gold.Chemscore.ZeroCoef>
-5.4800

> <Gold.Chemscore.Hbond>
1.8115

> <Gold.Chemscore.Metal>
0.0000

> <Gold.Chemscore.Lipo>
95.6134

> <Gold.Chemscore.Internal_Hbond>
0.0000

> <Gold.Chemscore.DEClash>
0.1110

> <Gold.Chemscore.DEInternal>
1.7009

> <Gold.Chemscore.Rot>
2.1650

> <Gold.Chemscore.Internal.Correction>
   9.000000E+99

> <Gold.Chemscore.Hbonds>
donor molecule, donor type, donor heavy atom, donor atom, acceptor molecule, acceptor atom, score
      L1  H     1    20       P1  7957  1.00
      P1  H  7997  8008       L1     9  0.71

> <Gold.Chemscore.Hbond.Weighted>
-6.0503

> <Gold.Chemscore.Metal.Weighted>
-0.0000

> <Gold.Chemscore.Lipo.Weighted>
-11.1868

> <Gold.Chemscore.Internal_Hbond.Weighted>
0.0000

> <Gold.Chemscore.DEClash.Weighted>
0.1110

> <Gold.Chemscore.DEInternal.Weighted>
1.7009

> <Gold.Chemscore.Rot.Weighted>
5.5425

> <Gold.Chemscore.Internal.Correction.Weighted>
   9.000000E+99

> <Gold.Protein.RotatedTorsions>
[ 6907 6896 6895 6894 ] final   -9.07 input  -60.11 | X-H torsion
[ 7974 7965 7964 7962 ] final -119.42 input  175.53 | X-H torsion
[ 8008 7997 7996 7995 ] final  -52.47 input   59.86 | X-H torsion
[ 10167 10162 10161 10158 ] final -118.07 input  -65.29 | X-H torsion
[ 10718 10713 10712 10709 ] final  159.86 input   66.30 | X-H torsion
[ 10763 10752 10751 10750 ] final  153.79 input  -60.55 | X-H torsion
[ 11005 11000 10999 10996 ] final  -53.76 input  -57.11 | X-H torsion

> <Gold.Protein.ActiveResidues>
 VAL166  LYS551  ARG553  GLY616  TRP617  ASP618  TYR619  PRO620  LYS621  CYS622 
 ASP623  PHE694  ASN695  SER759  ASP760  ASP761  ALA762  ILE779  LEU786  VAL792 
 PHE793  MET794  SER795  GLU796  ALA797  LYS798  CYS799  TRP800  GLU811  SER814 

> <Gold.Protein.RotatedAtoms>
  151.4236  135.1001  159.9621 H   0  0  0  0  0  0  0  0  0  0  0  0  # atno 6907 bound_to 6896
  152.4980  133.8683  159.7296 H   0  0  0  0  0  0  0  0  0  0  0  0  # atno 6908 bound_to 6896
  150.9205  133.6828  159.2861 H   0  0  0  0  0  0  0  0  0  0  0  0  # atno 6909 bound_to 6896
  145.0628  140.8302  143.4142 H   0  0  0  0  0  0  0  0  0  0  0  0  # atno 7974 bound_to 7965
  154.4107  140.1223  156.4997 H   0  0  0  0  0  0  0  0  0  0  0  0  # atno 8008 bound_to 7997
  155.6908  140.3495  155.4873 H   0  0  0  0  0  0  0  0  0  0  0  0  # atno 8009 bound_to 7997
  155.9471  140.1098  157.0998 H   0  0  0  0  0  0  0  0  0  0  0  0  # atno 8010 bound_to 7997
  140.0615  143.4964  152.2029 H   0  0  0  0  0  0  0  0  0  0  0  0  # atno 10167 bound_to 10162
  157.1584  131.0581  151.2244 H   0  0  0  0  0  0  0  0  0  0  0  0  # atno 10718 bound_to 10713
  154.1419  135.2820  155.3158 H   0  0  0  0  0  0  0  0  0  0  0  0  # atno 10763 bound_to 10752
  154.6280  135.5445  153.7652 H   0  0  0  0  0  0  0  0  0  0  0  0  # atno 10764 bound_to 10752
  153.0248  135.6455  154.1566 H   0  0  0  0  0  0  0  0  0  0  0  0  # atno 10765 bound_to 10752
  141.0992  133.6620  156.4220 H   0  0  0  0  0  0  0  0  0  0  0  0  # atno 11005 bound_to 11000
  145.1388  139.2585  143.5501 LP  0  0  0  0  0  0  0  0  0  0  0  0  # atno 17320 bound_to 7965
  146.3525  140.1059  142.8606 LP  0  0  0  0  0  0  0  0  0  0  0  0  # atno 17321 bound_to 7965
  139.5891  144.7543  151.3446 LP  0  0  0  0  0  0  0  0  0  0  0  0  # atno 17342 bound_to 10162
  140.7170  143.7240  150.7674 LP  0  0  0  0  0  0  0  0  0  0  0  0  # atno 17343 bound_to 10162
  157.4155  130.7409  149.6872 LP  0  0  0  0  0  0  0  0  0  0  0  0  # atno 17370 bound_to 10713
  155.9758  130.4084  150.3824 LP  0  0  0  0  0  0  0  0  0  0  0  0  # atno 17371 bound_to 10713
  140.5064  134.6437  157.5268 LP  0  0  0  0  0  0  0  0  0  0  0  0  # atno 17394 bound_to 11000
  139.9838  134.7094  155.9811 LP  0  0  0  0  0  0  0  0  0  0  0  0  # atno 17395 bound_to 11000

$$$$
