AV-unprocessed.smi:1669|AV-procd|sdf|6689|dock4
  -GOLD-   22720 7413D 1   1.00000     0.00000
 Structure written by MMmdl.
 49 51  0  0  0  0  0  0  0  0  3 V2000
  148.1874  137.0778  157.7357 C   0  0  0  0  0  0  0  0  0  0  0  0
  148.6546  137.9062  158.8717 N   0  3  1  0  0  0  0  0  0  0  0  0
  149.2605  137.0961  159.9596 C   0  0  0  0  0  0  0  0  0  0  0  0
  148.2249  136.2525  160.6797 C   0  0  0  0  0  0  0  0  0  0  0  0
  147.6017  135.1796  160.0079 C   0  0  0  0  0  0  0  0  0  0  0  0
  146.6404  134.3922  160.6710 C   0  0  0  0  0  0  0  0  0  0  0  0
  146.2981  134.6755  162.0075 C   0  0  0  0  0  0  0  0  0  0  0  0
  146.9164  135.7471  162.6805 C   0  0  0  0  0  0  0  0  0  0  0  0
  147.8773  136.5354  162.0178 C   0  0  0  0  0  0  0  0  0  0  0  0
  149.5278  139.0220  158.4286 C   0  0  0  0  0  0  0  0  0  0  0  0
  150.9277  138.5280  158.0007 C   0  0  2  0  0  0  0  0  0  0  0  0
  151.7686  138.5236  159.1354 O   0  0  0  0  0  0  0  0  0  0  0  0
  151.5937  139.4101  156.9248 C   0  0  0  0  0  0  0  0  0  0  0  0
  151.1825  140.8204  157.0025 N   0  0  0  0  0  0  0  0  0  0  0  0
  150.3008  141.5349  156.2423 C   0  0  0  0  0  0  0  0  0  0  0  0
  149.4953  141.0357  155.0850 C   0  0  0  0  0  0  0  0  0  0  0  0
  148.8470  142.0734  154.3814 O   0  0  0  0  0  0  0  0  0  0  0  0
  150.2869  142.8068  156.7341 N   0  3  0  0  0  0  0  0  0  0  0  0
  151.1619  142.9081  157.8155 C   0  0  0  0  0  0  0  0  0  0  0  0
  151.4861  143.9899  158.6282 C   0  0  0  0  0  0  0  0  0  0  0  0
  152.4245  143.7520  159.6540 C   0  0  0  0  0  0  0  0  0  0  0  0
  152.9993  142.4783  159.8423 C   0  0  0  0  0  0  0  0  0  0  0  0
  152.6620  141.3887  159.0122 C   0  0  0  0  0  0  0  0  0  0  0  0
  151.7367  141.6339  157.9977 C   0  0  0  0  0  0  0  0  0  0  0  0
  149.0241  136.5769  157.2474 H   0  0  0  0  0  0  0  0  0  0  0  0
  147.6774  137.6929  156.9935 H   0  0  0  0  0  0  0  0  0  0  0  0
  147.4781  136.3185  158.0649 H   0  0  0  0  0  0  0  0  0  0  0  0
  150.0565  136.4664  159.5586 H   0  0  0  0  0  0  0  0  0  0  0  0
  149.7314  137.7396  160.7028 H   0  0  0  0  0  0  0  0  0  0  0  0
  147.8603  134.9562  158.9830 H   0  0  0  0  0  0  0  0  0  0  0  0
  146.1649  133.5710  160.1549 H   0  0  0  0  0  0  0  0  0  0  0  0
  145.5610  134.0716  162.5161 H   0  0  0  0  0  0  0  0  0  0  0  0
  146.6528  135.9649  163.7051 H   0  0  0  0  0  0  0  0  0  0  0  0
  148.3471  137.3553  162.5413 H   0  0  0  0  0  0  0  0  0  0  0  0
  149.0269  139.5519  157.6176 H   0  0  0  0  0  0  0  0  0  0  0  0
  149.6496  139.7496  159.2329 H   0  0  0  0  0  0  0  0  0  0  0  0
  150.8715  137.5056  157.6294 H   0  0  0  0  0  0  0  0  0  0  0  0
  151.6417  139.3308  159.6115 H   0  0  0  0  0  0  0  0  0  0  0  0
  152.6795  139.3728  157.0192 H   0  0  0  0  0  0  0  0  0  0  0  0
  151.3642  139.0437  155.9231 H   0  0  0  0  0  0  0  0  0  0  0  0
  150.1389  140.4992  154.3882 H   0  0  0  0  0  0  0  0  0  0  0  0
  148.7491  140.3291  155.4491 H   0  0  0  0  0  0  0  0  0  0  0  0
  149.0740  142.8981  154.7842 H   0  0  0  0  0  0  0  0  0  0  0  0
  151.0453  144.9663  158.4878 H   0  0  0  0  0  0  0  0  0  0  0  0
  152.7077  144.5624  160.3103 H   0  0  0  0  0  0  0  0  0  0  0  0
  153.7132  142.3339  160.6406 H   0  0  0  0  0  0  0  0  0  0  0  0
  153.1068  140.4169  159.1677 H   0  0  0  0  0  0  0  0  0  0  0  0
  147.8293  138.3429  159.2580 H   0  0  0  0  0  0  0  0  0  0  0  0
  149.7175  143.5504  156.3501 H   0  0  0  0  0  0  0  0  0  0  0  0
  1  2  1  0  0  0  0
  1 25  1  0  0  0  0
  1 26  1  0  0  0  0
  1 27  1  0  0  0  0
  2  3  1  0  0  0  0
  2 10  1  0  0  0  0
  2 48  1  0  0  0  0
  3  4  1  0  0  0  0
  3 28  1  0  0  0  0
  3 29  1  0  0  0  0
  4  9  1  0  0  0  0
  4  5  2  0  0  0  0
  5  6  1  0  0  0  0
  5 30  1  0  0  0  0
  6  7  2  0  0  0  0
  6 31  1  0  0  0  0
  7  8  1  0  0  0  0
  7 32  1  0  0  0  0
  8  9  2  0  0  0  0
  8 33  1  0  0  0  0
  9 34  1  0  0  0  0
 10 11  1  0  0  0  0
 10 35  1  0  0  0  0
 10 36  1  0  0  0  0
 11 12  1  0  0  0  0
 11 13  1  0  0  0  0
 11 37  1  0  0  0  0
 12 38  1  0  0  0  0
 13 14  1  0  0  0  0
 13 39  1  0  0  0  0
 13 40  1  0  0  0  0
 14 24  1  0  0  0  0
 14 15  1  0  0  0  0
 15 16  1  0  0  0  0
 15 18  2  0  0  0  0
 16 17  1  0  0  0  0
 16 41  1  0  0  0  0
 16 42  1  0  0  0  0
 17 43  1  0  0  0  0
 18 19  1  0  0  0  0
 18 49  1  0  0  0  0
 19 24  2  0  0  0  0
 19 20  1  0  0  0  0
 20 21  2  0  0  0  0
 20 44  1  0  0  0  0
 21 22  1  0  0  0  0
 21 45  1  0  0  0  0
 22 23  2  0  0  0  0
 22 46  1  0  0  0  0
 23 24  1  0  0  0  0
 23 47  1  0  0  0  0
M  CHG  1   2   1
M  CHG  1  18   1
M  END
> <s_m_source_file>
AV-unprocessed.smi

> <i_m_source_file_index>
1669

> <i_lp_mmshare_version>
43012

> <i_f3d_flags>
0

> <s_epik_input>
W2NIXTFbY0hdW2NIXVtjSF1bY0hdYzFbQ0gyXU4oW0NIM10pW0NIMl1bQ0BIXShbT0hdKVtDSDJdbihjKG4yKVtDSDJdW09IXSljKGMyMylbY0hdW2NIXVtjSF1bY0hdMw==

> <s_epik_cmdline>
J2VwaWtfcHl0aG9uJywgJy1waCcsICc3LjAnLCAnLXRuJywgJzgnLCAnLW1hJywgJzIwMCcsICctbWV0YWxfYmluZGluZycsICctaW1hZScsICc8aW5maWxlLm1hZT4nLCAnLW9tYWUnLCAnPG91dGZpbGUubWFlPic=

> <r_epik_Ionization_Penalty>
1.57484

> <r_epik_Ionization_Penalty_Charging>
1.57398

> <r_epik_Ionization_Penalty_Neutral>
0.000858917

> <r_epik_State_Penalty>
1.64997

> <r_epik_Charging_Adjusted_Penalty>
3.22395

> <i_epik_Tot_Q>
2

> <i_epik_Tot_abs_Q>
2

> <r_epik_Metal_State_Penalty>
5.70481

> <b_epik_Metal_Only>
0

> <s_lp_Force_Field>
OPLS_2005

> <r_lp_Energy>
24.1241

> <b_lp_Chiralities_Consistent>
1

> <s_lp_Variant>
AV-unprocessed.smi:1669-7

> <Gold.Version>
5.8.1

> <Gold.Id.Protein>
6NUR|6NUR_protein|mol2

> <Gold.PLP.Fitness>
55.5269

> <Gold.PLP.PLP>
-48.3337

> <Gold.PLP.part.hbond>
-3.0000

> <Gold.PLP.part.metal>
0.0000

> <Gold.PLP.part.buried>
-5.5613

> <Gold.PLP.part.nonpolar>
-40.3647

> <Gold.PLP.part.repulsive>
0.2179

> <Gold.PLP.ligand.clash>
0.0000

> <Gold.PLP.ligand.torsion>
1.2632

> <Gold.PLP.Chemscore.Hbond>
3.1820

> <Gold.PLP.Chemscore.CHOScore>
0.0000

> <Gold.PLP.Chemscore.Metal>
0.0000

> <Gold.Chemscore.Hbonds>
donor molecule, donor type, donor heavy atom, donor atom, acceptor molecule, acceptor atom, score
      L1  H    17    43       P1  8028  1.00
      L1  H    18    49       P1  8028  2.00
      P1  H  8011  8017       L1    17  0.12

> <Gold.PLP.Chemscore.Internal.Correction>
0.1735

> <Gold.Rescore>
     Score         DG    S(hbond)    S(metal)    S(lipo)     H(rot)  DE(clash)    DE(int)     intcor
     17.69     -19.25       1.99        0.00     132.57       3.27       0.05       1.51       ----

> <Gold.Chemscore.Fitness>
17.6882

> <Gold.Chemscore.DG>
-19.2525

> <Gold.Chemscore.ZeroCoef>
-5.4800

> <Gold.Chemscore.Hbond>
1.9874

> <Gold.Chemscore.Metal>
0.0000

> <Gold.Chemscore.Lipo>
132.5671

> <Gold.Chemscore.Internal_Hbond>
0.0000

> <Gold.Chemscore.DEClash>
0.0510

> <Gold.Chemscore.DEInternal>
1.5133

> <Gold.Chemscore.Rot>
3.2718

> <Gold.Chemscore.Internal.Correction>
   9.000000E+99

> <Gold.Chemscore.Hbonds>
donor molecule, donor type, donor heavy atom, donor atom, acceptor molecule, acceptor atom, score
      L1  H    17    43       P1  8028  0.95
      L1  H    18    49       P1  8028  0.98
      P1  H  8011  8017       L1    17  0.02

> <Gold.Chemscore.Hbond.Weighted>
-6.6381

> <Gold.Chemscore.Metal.Weighted>
-0.0000

> <Gold.Chemscore.Lipo.Weighted>
-15.5104

> <Gold.Chemscore.Internal_Hbond.Weighted>
0.0000

> <Gold.Chemscore.DEClash.Weighted>
0.0510

> <Gold.Chemscore.DEInternal.Weighted>
1.5133

> <Gold.Chemscore.Rot.Weighted>
8.3759

> <Gold.Chemscore.Internal.Correction.Weighted>
   9.000000E+99

> <Gold.Protein.RotatedTorsions>
[ 6907 6896 6895 6894 ] final   47.77 input  -60.11 | X-H torsion
[ 7974 7965 7964 7962 ] final  -40.91 input  175.53 | X-H torsion
[ 8008 7997 7996 7995 ] final    7.89 input   59.86 | X-H torsion
[ 10167 10162 10161 10158 ] final  -18.09 input  -65.29 | X-H torsion
[ 10718 10713 10712 10709 ] final  137.48 input   66.30 | X-H torsion
[ 10763 10752 10751 10750 ] final  167.66 input  -60.55 | X-H torsion
[ 11005 11000 10999 10996 ] final    1.93 input  -57.11 | X-H torsion

> <Gold.Protein.ActiveResidues>
 VAL166  LYS551  ARG553  GLY616  TRP617  ASP618  TYR619  PRO620  LYS621  CYS622 
 ASP623  PHE694  ASN695  SER759  ASP760  ASP761  ALA762  ILE779  LEU786  VAL792 
 PHE793  MET794  SER795  GLU796  ALA797  LYS798  CYS799  TRP800  GLU811  SER814 

> <Gold.Protein.RotatedAtoms>
  152.2719  134.7923  160.0412 H   0  0  0  0  0  0  0  0  0  0  0  0  # atno 6907 bound_to 6896
  151.8533  133.3438  159.3688 H   0  0  0  0  0  0  0  0  0  0  0  0  # atno 6908 bound_to 6896
  150.7155  134.5206  159.5696 H   0  0  0  0  0  0  0  0  0  0  0  0  # atno 6909 bound_to 6896
  146.0260  140.6791  142.9155 H   0  0  0  0  0  0  0  0  0  0  0  0  # atno 7974 bound_to 7965
  154.7596  140.2782  155.6225 H   0  0  0  0  0  0  0  0  0  0  0  0  # atno 8008 bound_to 7997
  156.2913  140.2662  156.2298 H   0  0  0  0  0  0  0  0  0  0  0  0  # atno 8009 bound_to 7997
  155.0034  140.0372  157.2359 H   0  0  0  0  0  0  0  0  0  0  0  0  # atno 8010 bound_to 7997
  140.7255  143.4950  150.9942 H   0  0  0  0  0  0  0  0  0  0  0  0  # atno 10167 bound_to 10162
  157.4356  131.1053  151.0202 H   0  0  0  0  0  0  0  0  0  0  0  0  # atno 10718 bound_to 10713
  154.3572  135.2753  155.2340 H   0  0  0  0  0  0  0  0  0  0  0  0  # atno 10763 bound_to 10752
  154.4544  135.5923  153.6216 H   0  0  0  0  0  0  0  0  0  0  0  0  # atno 10764 bound_to 10752
  152.9846  135.6049  154.3788 H   0  0  0  0  0  0  0  0  0  0  0  0  # atno 10765 bound_to 10752
  140.6099  133.9758  155.8172 H   0  0  0  0  0  0  0  0  0  0  0  0  # atno 11005 bound_to 11000
  144.7010  140.3651  143.7156 LP  0  0  0  0  0  0  0  0  0  0  0  0  # atno 17320 bound_to 7965
  145.7117  139.1686  143.2535 LP  0  0  0  0  0  0  0  0  0  0  0  0  # atno 17321 bound_to 7965
  139.8657  143.7257  152.3170 LP  0  0  0  0  0  0  0  0  0  0  0  0  # atno 17342 bound_to 10162
  139.7488  144.7540  151.0538 LP  0  0  0  0  0  0  0  0  0  0  0  0  # atno 17343 bound_to 10162
  157.1083  130.6011  149.5476 LP  0  0  0  0  0  0  0  0  0  0  0  0  # atno 17370 bound_to 10713
  155.9929  130.4988  150.7359 LP  0  0  0  0  0  0  0  0  0  0  0  0  # atno 17371 bound_to 10713
  141.0815  134.0055  157.3378 LP  0  0  0  0  0  0  0  0  0  0  0  0  # atno 17394 bound_to 11000
  139.9196  135.0199  156.8015 LP  0  0  0  0  0  0  0  0  0  0  0  0  # atno 17395 bound_to 11000

$$$$
