AV-unprocessed.smi:1545|AV-procd|sdf|6217|dock4
  -GOLD-   22720 6393D 1   1.00000     0.00000
 Structure written by MMmdl.
 41 43  0  0  0  0  0  0  0  0  1 V2000
  153.2118  136.7174  159.6710 O   0  0  0  0  0  0  0  0  0  0  0  0
  153.8476  137.2618  160.8072 C   0  0  0  0  0  0  0  0  0  0  0  0
  154.1983  138.7376  160.5674 C   0  0  0  0  0  0  0  0  0  0  0  0
  153.2575  139.3833  159.6703 N   0  0  0  0  0  0  0  0  0  0  0  0
  152.8367  140.7030  159.5517 C   0  0  0  0  0  0  0  0  0  0  0  0
  153.2706  141.6970  160.3242 N   0  0  0  0  0  0  0  0  0  0  0  0
  152.5681  142.7802  159.8306 C   0  0  0  0  0  0  0  0  0  0  0  0
  152.5767  144.1368  160.2271 C   0  0  0  0  0  0  0  0  0  0  0  0
  151.7586  145.0783  159.5690 C   0  0  0  0  0  0  0  0  0  0  0  0
  150.9217  144.6786  158.5069 C   0  0  0  0  0  0  0  0  0  0  0  0
  150.8986  143.3326  158.0940 C   0  0  0  0  0  0  0  0  0  0  0  0
  151.7176  142.3961  158.7531 C   0  0  0  0  0  0  0  0  0  0  0  0
  151.9275  141.0283  158.6028 N   0  0  0  0  0  0  0  0  0  0  0  0
  151.2878  140.1501  157.6319 C   0  0  0  0  0  0  0  0  0  0  0  0
  151.5049  140.6187  156.1793 C   0  0  1  0  0  0  0  0  0  0  0  0
  152.6376  139.9727  155.6306 O   0  0  0  0  0  0  0  0  0  0  0  0
  150.2592  140.4023  155.3351 C   0  0  0  0  0  0  0  0  0  0  0  0
  149.9710  139.1300  154.7931 C   0  0  0  0  0  0  0  0  0  0  0  0
  148.8121  138.9352  154.0167 C   0  0  0  0  0  0  0  0  0  0  0  0
  147.9348  140.0105  153.7785 C   0  0  0  0  0  0  0  0  0  0  0  0
  148.2150  141.2799  154.3196 C   0  0  0  0  0  0  0  0  0  0  0  0
  147.3697  142.3136  154.0940 F   0  0  0  0  0  0  0  0  0  0  0  0
  149.3732  141.4751  155.0968 C   0  0  0  0  0  0  0  0  0  0  0  0
  152.9620  137.4254  159.0973 H   0  0  0  0  0  0  0  0  0  0  0  0
  153.1465  137.1850  161.6384 H   0  0  0  0  0  0  0  0  0  0  0  0
  154.7266  136.6739  161.0745 H   0  0  0  0  0  0  0  0  0  0  0  0
  154.2686  139.2868  161.5070 H   0  0  0  0  0  0  0  0  0  0  0  0
  155.1790  138.7997  160.0954 H   0  0  0  0  0  0  0  0  0  0  0  0
  152.7949  138.7409  159.0440 H   0  0  0  0  0  0  0  0  0  0  0  0
  153.2125  144.4530  161.0406 H   0  0  0  0  0  0  0  0  0  0  0  0
  151.7722  146.1123  159.8816 H   0  0  0  0  0  0  0  0  0  0  0  0
  150.2964  145.4061  158.0101 H   0  0  0  0  0  0  0  0  0  0  0  0
  150.2557  143.0229  157.2834 H   0  0  0  0  0  0  0  0  0  0  0  0
  151.6731  139.1390  157.7687 H   0  0  0  0  0  0  0  0  0  0  0  0
  150.2220  140.0998  157.8585 H   0  0  0  0  0  0  0  0  0  0  0  0
  151.7307  141.6858  156.1853 H   0  0  0  0  0  0  0  0  0  0  0  0
  152.3712  139.5128  154.8493 H   0  0  0  0  0  0  0  0  0  0  0  0
  150.6374  138.2991  154.9735 H   0  0  0  0  0  0  0  0  0  0  0  0
  148.5960  137.9605  153.6043 H   0  0  0  0  0  0  0  0  0  0  0  0
  147.0463  139.8615  153.1827 H   0  0  0  0  0  0  0  0  0  0  0  0
  149.5778  142.4520  155.5098 H   0  0  0  0  0  0  0  0  0  0  0  0
  1  2  1  0  0  0  0
  1 24  1  0  0  0  0
  2  3  1  0  0  0  0
  2 25  1  0  0  0  0
  2 26  1  0  0  0  0
  3  4  1  0  0  0  0
  3 27  1  0  0  0  0
  3 28  1  0  0  0  0
  4  5  1  0  0  0  0
  4 29  1  0  0  0  0
  5 13  1  0  0  0  0
  5  6  2  0  0  0  0
  6  7  1  0  0  0  0
  7 12  2  0  0  0  0
  7  8  1  0  0  0  0
  8  9  2  0  0  0  0
  8 30  1  0  0  0  0
  9 10  1  0  0  0  0
  9 31  1  0  0  0  0
 10 11  2  0  0  0  0
 10 32  1  0  0  0  0
 11 12  1  0  0  0  0
 11 33  1  0  0  0  0
 12 13  1  0  0  0  0
 13 14  1  0  0  0  0
 14 15  1  0  0  0  0
 14 34  1  0  0  0  0
 14 35  1  0  0  0  0
 15 16  1  0  0  0  0
 15 17  1  0  0  0  0
 15 36  1  0  0  0  0
 16 37  1  0  0  0  0
 17 23  1  0  0  0  0
 17 18  2  0  0  0  0
 18 19  1  0  0  0  0
 18 38  1  0  0  0  0
 19 20  2  0  0  0  0
 19 39  1  0  0  0  0
 20 21  1  0  0  0  0
 20 40  1  0  0  0  0
 21 22  1  0  0  0  0
 21 23  2  0  0  0  0
 23 41  1  0  0  0  0
M  END
> <s_m_source_file>
AV-unprocessed.smi

> <i_m_source_file_index>
1545

> <i_lp_mmshare_version>
43012

> <i_f3d_flags>
0

> <s_epik_input>
W09IXVtDSDJdW0NIMl1bTkhdYyhuMSluKGMoYzEyKVtjSF1bY0hdW2NIXVtjSF0yKVtDSDJdW0NASF0oW09IXSljM1tjSF1bY0hdW2NIXWMoRilbY0hdMw==

> <s_epik_cmdline>
J2VwaWtfcHl0aG9uJywgJy1waCcsICc3LjAnLCAnLXRuJywgJzgnLCAnLW1hJywgJzIwMCcsICctbWV0YWxfYmluZGluZycsICctaW1hZScsICc8aW5maWxlLm1hZT4nLCAnLW9tYWUnLCAnPG91dGZpbGUubWFlPic=

> <r_epik_Ionization_Penalty>
1.30972

> <r_epik_Ionization_Penalty_Charging>
0

> <r_epik_Ionization_Penalty_Neutral>
1.30972

> <r_epik_State_Penalty>
1.38438

> <r_epik_Charging_Adjusted_Penalty>
1.38438

> <i_epik_Tot_Q>
0

> <i_epik_Tot_abs_Q>
0

> <r_epik_Metal_State_Penalty>
0.00551145

> <b_epik_Metal_Only>
0

> <s_lp_Force_Field>
OPLS_2005

> <r_lp_Energy>
10.2352

> <b_lp_Chiralities_Consistent>
1

> <s_lp_Variant>
AV-unprocessed.smi:1545-4

> <Gold.Version>
5.8.1

> <Gold.Id.Protein>
6NUR|6NUR_protein|mol2

> <Gold.PLP.Fitness>
53.9264

> <Gold.PLP.PLP>
-50.6960

> <Gold.PLP.part.hbond>
-2.0000

> <Gold.PLP.part.metal>
0.0000

> <Gold.PLP.part.buried>
-6.2482

> <Gold.PLP.part.nonpolar>
-42.8308

> <Gold.PLP.part.repulsive>
0.0833

> <Gold.PLP.ligand.clash>
0.0000

> <Gold.PLP.ligand.torsion>
1.4088

> <Gold.PLP.Chemscore.Hbond>
2.0000

> <Gold.PLP.Chemscore.CHOScore>
0.0000

> <Gold.PLP.Chemscore.Metal>
0.0000

> <Gold.Chemscore.Hbonds>
donor molecule, donor type, donor heavy atom, donor atom, acceptor molecule, acceptor atom, score
      P1  H  6896  6909       L1     1  0.69
      P1  H  7997  8008       L1    16  1.00

> <Gold.PLP.Chemscore.Internal.Correction>
0.0480

> <Gold.Rescore>
     Score         DG    S(hbond)    S(metal)    S(lipo)     H(rot)  DE(clash)    DE(int)     intcor
     18.00     -19.84       1.98        0.00     133.64       3.08       0.44       1.39       ----

> <Gold.Chemscore.Fitness>
18.0001

> <Gold.Chemscore.DG>
-19.8361

> <Gold.Chemscore.ZeroCoef>
-5.4800

> <Gold.Chemscore.Hbond>
1.9784

> <Gold.Chemscore.Metal>
0.0000

> <Gold.Chemscore.Lipo>
133.6424

> <Gold.Chemscore.Internal_Hbond>
0.0000

> <Gold.Chemscore.DEClash>
0.4430

> <Gold.Chemscore.DEInternal>
1.3930

> <Gold.Chemscore.Rot>
3.0812

> <Gold.Chemscore.Internal.Correction>
   9.000000E+99

> <Gold.Chemscore.Hbonds>
donor molecule, donor type, donor heavy atom, donor atom, acceptor molecule, acceptor atom, score
      P1  H  6896  6909       L1     1  0.59
      P1  H  7997  8008       L1    16  1.00

> <Gold.Chemscore.Hbond.Weighted>
-6.6077

> <Gold.Chemscore.Metal.Weighted>
-0.0000

> <Gold.Chemscore.Lipo.Weighted>
-15.6362

> <Gold.Chemscore.Internal_Hbond.Weighted>
0.0000

> <Gold.Chemscore.DEClash.Weighted>
0.4430

> <Gold.Chemscore.DEInternal.Weighted>
1.3930

> <Gold.Chemscore.Rot.Weighted>
7.8878

> <Gold.Chemscore.Internal.Correction.Weighted>
   9.000000E+99

> <Gold.Protein.RotatedTorsions>
[ 6907 6896 6895 6894 ] final  131.91 input  -60.11 | X-H torsion
[ 7974 7965 7964 7962 ] final -158.77 input  175.53 | X-H torsion
[ 8008 7997 7996 7995 ] final  -36.53 input   59.86 | X-H torsion
[ 10167 10162 10161 10158 ] final   83.25 input  -65.29 | X-H torsion
[ 10718 10713 10712 10709 ] final    5.14 input   66.30 | X-H torsion
[ 10763 10752 10751 10750 ] final   60.47 input  -60.55 | X-H torsion
[ 11005 11000 10999 10996 ] final  122.26 input  -57.11 | X-H torsion

> <Gold.Protein.ActiveResidues>
 VAL166  LYS551  ARG553  GLY616  TRP617  ASP618  TYR619  PRO620  LYS621  CYS622 
 ASP623  PHE694  ASN695  SER759  ASP760  ASP761  ALA762  ILE779  LEU786  VAL792 
 PHE793  MET794  SER795  GLU796  ALA797  LYS798  CYS799  TRP800  GLU811  SER814 

> <Gold.Protein.RotatedAtoms>
  152.3378  133.6032  159.5854 H   0  0  0  0  0  0  0  0  0  0  0  0  # atno 6907 bound_to 6896
  150.7461  133.9768  159.3572 H   0  0  0  0  0  0  0  0  0  0  0  0  # atno 6908 bound_to 6896
  151.7636  135.0804  160.0400 H   0  0  0  0  0  0  0  0  0  0  0  0  # atno 6909 bound_to 6896
  144.7492  140.3779  143.6061 H   0  0  0  0  0  0  0  0  0  0  0  0  # atno 7974 bound_to 7965
  154.4071  140.1628  156.2389 H   0  0  0  0  0  0  0  0  0  0  0  0  # atno 8008 bound_to 7997
  155.9218  140.3420  155.6156 H   0  0  0  0  0  0  0  0  0  0  0  0  # atno 8009 bound_to 7997
  155.7213  140.0769  157.2320 H   0  0  0  0  0  0  0  0  0  0  0  0  # atno 8010 bound_to 7997
  139.9203  144.6217  150.8447 H   0  0  0  0  0  0  0  0  0  0  0  0  # atno 10167 bound_to 10162
  156.9030  130.5728  149.5648 H   0  0  0  0  0  0  0  0  0  0  0  0  # atno 10718 bound_to 10713
  152.9922  135.5535  154.5880 H   0  0  0  0  0  0  0  0  0  0  0  0  # atno 10763 bound_to 10752
  154.5247  135.2810  155.1234 H   0  0  0  0  0  0  0  0  0  0  0  0  # atno 10764 bound_to 10752
  154.2573  135.6387  153.5314 H   0  0  0  0  0  0  0  0  0  0  0  0  # atno 10765 bound_to 10752
  139.9261  134.9641  156.8082 H   0  0  0  0  0  0  0  0  0  0  0  0  # atno 11005 bound_to 11000
  145.7008  139.1661  143.2594 LP  0  0  0  0  0  0  0  0  0  0  0  0  # atno 17320 bound_to 7965
  146.1417  140.7049  142.9364 LP  0  0  0  0  0  0  0  0  0  0  0  0  # atno 17321 bound_to 7965
  140.7664  143.3301  151.2428 LP  0  0  0  0  0  0  0  0  0  0  0  0  # atno 17342 bound_to 10162
  139.6867  143.9762  152.2838 LP  0  0  0  0  0  0  0  0  0  0  0  0  # atno 17343 bound_to 10162
  156.0573  130.5632  150.9118 LP  0  0  0  0  0  0  0  0  0  0  0  0  # atno 17370 bound_to 10713
  157.6014  131.0941  150.8953 LP  0  0  0  0  0  0  0  0  0  0  0  0  # atno 17371 bound_to 10713
  140.6334  133.9885  155.7672 LP  0  0  0  0  0  0  0  0  0  0  0  0  # atno 17394 bound_to 11000
  141.0818  134.0050  157.3374 LP  0  0  0  0  0  0  0  0  0  0  0  0  # atno 17395 bound_to 11000

$$$$
