AV-unprocessed.smi:829|AV-procd|sdf|3867|dock5
  -GOLD-   22720 1323D 1   1.00000     0.00000
 Structure written by MMmdl.
 49 51  0  0  0  0  0  0  0  0  2 V2000
  144.4109  136.3766  152.3973 O   0  0  0  0  0  0  0  0  0  0  0  0
  145.6252  136.2461  152.2460 C   0  0  0  0  0  0  0  0  0  0  0  0
  146.2274  135.2259  151.6101 N   0  0  0  0  0  0  0  0  0  0  0  0
  145.6337  134.0969  150.9826 C   0  0  0  0  0  0  0  0  0  0  0  0
  146.4922  133.0868  150.5017 C   0  0  0  0  0  0  0  0  0  0  0  0
  145.9292  131.9638  149.8629 C   0  0  0  0  0  0  0  0  0  0  0  0
  144.6022  131.8048  149.6759 N   0  0  0  0  0  0  0  0  0  0  0  0
  143.7828  132.7798  150.1231 C   0  0  0  0  0  0  0  0  0  0  0  0
  144.2417  133.9420  150.7750 C   0  0  0  0  0  0  0  0  0  0  0  0
  146.5249  137.1158  152.7293 N   0  0  0  0  0  0  0  0  0  0  0  0
  146.2055  138.3272  153.4846 C   0  0  2  0  0  0  0  0  0  0  0  0
  146.9239  139.5467  152.8801 C   0  0  0  0  0  0  0  0  0  0  0  0
  148.4393  139.5271  153.1563 C   0  0  0  0  0  0  0  0  0  0  0  0
  148.7201  139.4113  154.6109 N   0  3  2  0  0  0  0  0  0  0  0  0
  150.1640  139.5445  154.9357 C   0  0  0  0  0  0  0  0  0  0  0  0
  150.3908  140.3071  156.2561 C   0  0  0  0  0  0  0  0  0  0  0  0
  150.3324  141.8276  156.0907 C   0  0  0  0  0  0  0  0  0  0  0  0
  150.9975  142.3828  157.3526 C   0  0  0  0  0  0  0  0  0  0  0  0
  151.9865  141.3050  157.8175 C   0  0  0  0  0  0  0  0  0  0  0  0
  151.7606  140.0895  156.9100 C   0  0  0  0  0  0  0  0  0  0  0  0
  148.1017  138.1886  155.1861 C   0  0  0  0  0  0  0  0  0  0  0  0
  146.5784  138.1912  154.9748 C   0  0  0  0  0  0  0  0  0  0  0  0
  147.2364  135.2232  151.6324 H   0  0  0  0  0  0  0  0  0  0  0  0
  147.5629  133.1624  150.6225 H   0  0  0  0  0  0  0  0  0  0  0  0
  146.5632  131.1728  149.4904 H   0  0  0  0  0  0  0  0  0  0  0  0
  142.7269  132.6328  149.9510 H   0  0  0  0  0  0  0  0  0  0  0  0
  143.5252  134.6861  151.0864 H   0  0  0  0  0  0  0  0  0  0  0  0
  147.5020  136.9307  152.5555 H   0  0  0  0  0  0  0  0  0  0  0  0
  145.1298  138.4953  153.4051 H   0  0  0  0  0  0  0  0  0  0  0  0
  146.7379  139.6031  151.8067 H   0  0  0  0  0  0  0  0  0  0  0  0
  146.4996  140.4567  153.3070 H   0  0  0  0  0  0  0  0  0  0  0  0
  148.9143  138.7007  152.6251 H   0  0  0  0  0  0  0  0  0  0  0  0
  148.8797  140.4470  152.7695 H   0  0  0  0  0  0  0  0  0  0  0  0
  150.6514  138.5683  154.9514 H   0  0  0  0  0  0  0  0  0  0  0  0
  150.6619  140.1068  154.1441 H   0  0  0  0  0  0  0  0  0  0  0  0
  149.6160  140.0217  156.9702 H   0  0  0  0  0  0  0  0  0  0  0  0
  150.9062  142.1304  155.2134 H   0  0  0  0  0  0  0  0  0  0  0  0
  149.3140  142.1969  155.9634 H   0  0  0  0  0  0  0  0  0  0  0  0
  151.4860  143.3398  157.1670 H   0  0  0  0  0  0  0  0  0  0  0  0
  150.2452  142.5443  158.1257 H   0  0  0  0  0  0  0  0  0  0  0  0
  153.0181  141.6523  157.7507 H   0  0  0  0  0  0  0  0  0  0  0  0
  151.7972  141.0481  158.8604 H   0  0  0  0  0  0  0  0  0  0  0  0
  151.8127  139.1524  157.4651 H   0  0  0  0  0  0  0  0  0  0  0  0
  152.5383  140.0654  156.1454 H   0  0  0  0  0  0  0  0  0  0  0  0
  148.5454  137.3032  154.7280 H   0  0  0  0  0  0  0  0  0  0  0  0
  148.3111  138.1230  156.2524 H   0  0  0  0  0  0  0  0  0  0  0  0
  146.1455  139.0254  155.5287 H   0  0  0  0  0  0  0  0  0  0  0  0
  146.1403  137.2893  155.4035 H   0  0  0  0  0  0  0  0  0  0  0  0
  148.2636  140.2016  155.0433 H   0  0  0  0  0  0  0  0  0  0  0  0
  1  2  2  0  0  0  0
  2  3  1  0  0  0  0
  2 10  1  0  0  0  0
  3  4  1  0  0  0  0
  3 23  1  0  0  0  0
  4  9  1  0  0  0  0
  4  5  2  0  0  0  0
  5  6  1  0  0  0  0
  5 24  1  0  0  0  0
  6  7  2  0  0  0  0
  6 25  1  0  0  0  0
  7  8  1  0  0  0  0
  8  9  2  0  0  0  0
  8 26  1  0  0  0  0
  9 27  1  0  0  0  0
 10 11  1  0  0  0  0
 10 28  1  0  0  0  0
 11 22  1  0  0  0  0
 11 12  1  0  0  0  0
 11 29  1  0  0  0  0
 12 13  1  0  0  0  0
 12 30  1  0  0  0  0
 12 31  1  0  0  0  0
 13 14  1  0  0  0  0
 13 32  1  0  0  0  0
 13 33  1  0  0  0  0
 14 15  1  0  0  0  0
 14 21  1  0  0  0  0
 14 49  1  0  0  0  0
 15 16  1  0  0  0  0
 15 34  1  0  0  0  0
 15 35  1  0  0  0  0
 16 20  1  0  0  0  0
 16 17  1  0  0  0  0
 16 36  1  0  0  0  0
 17 18  1  0  0  0  0
 17 37  1  0  0  0  0
 17 38  1  0  0  0  0
 18 19  1  0  0  0  0
 18 39  1  0  0  0  0
 18 40  1  0  0  0  0
 19 20  1  0  0  0  0
 19 41  1  0  0  0  0
 19 42  1  0  0  0  0
 20 43  1  0  0  0  0
 20 44  1  0  0  0  0
 21 22  1  0  0  0  0
 21 45  1  0  0  0  0
 21 46  1  0  0  0  0
 22 47  1  0  0  0  0
 22 48  1  0  0  0  0
M  CHG  1  14   1
M  END
> <s_m_source_file>
AV-unprocessed.smi

> <i_m_source_file_index>
829

> <i_lp_mmshare_version>
43012

> <i_f3d_flags>
0

> <s_epik_input>
W2NIXTFbY0hdbltjSF1bY0hdYzFbTkhdQyg9TylbTkhdW0NIXTJbQ0gyXVtDSDJdTihbQ0gyXVtDSDJdMilbQ0gyXVtDSF0zW0NIMl1bQ0gyXVtDSDJdW0NIMl0z

> <s_epik_cmdline>
J2VwaWtfcHl0aG9uJywgJy1waCcsICc3LjAnLCAnLXRuJywgJzgnLCAnLW1hJywgJzIwMCcsICctbWV0YWxfYmluZGluZycsICctaW1hZScsICc8aW5maWxlLm1hZT4nLCAnLW9tYWUnLCAnPG91dGZpbGUubWFlPic=

> <r_epik_Ionization_Penalty>
0.101981

> <r_epik_Ionization_Penalty_Charging>
0.00207989

> <r_epik_Ionization_Penalty_Neutral>
0.0999008

> <r_epik_State_Penalty>
0.0935668

> <r_epik_Charging_Adjusted_Penalty>
0.0956467

> <i_epik_Tot_Q>
1

> <i_epik_Tot_abs_Q>
1

> <r_epik_Metal_State_Penalty>
0.0787682

> <b_epik_Metal_Only>
0

> <s_lp_Force_Field>
OPLS_2005

> <r_lp_Energy>
43.3749

> <b_lp_Chiralities_Consistent>
1

> <s_lp_Variant>
AV-unprocessed.smi:829-2

> <Gold.Version>
5.8.1

> <Gold.Id.Protein>
6NUR|6NUR_protein|mol2

> <Gold.PLP.Fitness>
44.0251

> <Gold.PLP.PLP>
-33.7825

> <Gold.PLP.part.hbond>
-2.9780

> <Gold.PLP.part.metal>
0.0000

> <Gold.PLP.part.buried>
-0.5388

> <Gold.PLP.part.nonpolar>
-32.1142

> <Gold.PLP.part.repulsive>
0.4372

> <Gold.PLP.ligand.clash>
0.0000

> <Gold.PLP.ligand.torsion>
0.7543

> <Gold.PLP.Chemscore.Hbond>
2.0936

> <Gold.PLP.Chemscore.CHOScore>
1.8144

> <Gold.PLP.Chemscore.Metal>
0.0000

> <Gold.Chemscore.Hbonds>
donor molecule, donor type, donor heavy atom, donor atom, acceptor molecule, acceptor atom, score
      L1  H     3    23       P1  7948  1.00
      L1  H    10    28       P1  7948  1.00
      P1  H 10785 10796       L1     7  0.09
      L1  C     6    25       P1 10747  0.87
      L1  C     8    26       P1 10186  0.94

> <Gold.PLP.Chemscore.Internal.Correction>
0.0272

> <Gold.Rescore>
     Score         DG    S(hbond)    S(metal)    S(lipo)     H(rot)  DE(clash)    DE(int)     intcor
     17.34     -21.10       1.98        0.00     106.56       1.35       1.82       1.95       ----

> <Gold.Chemscore.Fitness>
17.3358

> <Gold.Chemscore.DG>
-21.1013

> <Gold.Chemscore.ZeroCoef>
-5.4800

> <Gold.Chemscore.Hbond>
1.9755

> <Gold.Chemscore.Metal>
0.0000

> <Gold.Chemscore.Lipo>
106.5600

> <Gold.Chemscore.Internal_Hbond>
0.0000

> <Gold.Chemscore.DEClash>
1.8192

> <Gold.Chemscore.DEInternal>
1.9464

> <Gold.Chemscore.Rot>
1.3455

> <Gold.Chemscore.Internal.Correction>
   9.000000E+99

> <Gold.Chemscore.Hbonds>
donor molecule, donor type, donor heavy atom, donor atom, acceptor molecule, acceptor atom, score
      L1  H     3    23       P1  7948  0.88
      L1  H    10    28       P1  7948  1.00
      P1  H 10785 10796       L1     7  0.06

> <Gold.Chemscore.Hbond.Weighted>
-6.5983

> <Gold.Chemscore.Metal.Weighted>
-0.0000

> <Gold.Chemscore.Lipo.Weighted>
-12.4675

> <Gold.Chemscore.Internal_Hbond.Weighted>
0.0000

> <Gold.Chemscore.DEClash.Weighted>
1.8192

> <Gold.Chemscore.DEInternal.Weighted>
1.9464

> <Gold.Chemscore.Rot.Weighted>
3.4445

> <Gold.Chemscore.Internal.Correction.Weighted>
   9.000000E+99

> <Gold.Protein.RotatedTorsions>
[ 6907 6896 6895 6894 ] final   -3.42 input  -60.11 | X-H torsion
[ 7974 7965 7964 7962 ] final  132.55 input  175.53 | X-H torsion
[ 8008 7997 7996 7995 ] final  -66.29 input   59.86 | X-H torsion
[ 10167 10162 10161 10158 ] final  -31.76 input  -65.29 | X-H torsion
[ 10718 10713 10712 10709 ] final  -73.25 input   66.30 | X-H torsion
[ 10763 10752 10751 10750 ] final    2.37 input  -60.55 | X-H torsion
[ 11005 11000 10999 10996 ] final -126.57 input  -57.11 | X-H torsion

> <Gold.Protein.ActiveResidues>
 VAL166  LYS551  ARG553  GLY616  TRP617  ASP618  TYR619  PRO620  LYS621  CYS622 
 ASP623  PHE694  ASN695  SER759  ASP760  ASP761  ALA762  ILE779  LEU786  VAL792 
 PHE793  MET794  SER795  GLU796  ALA797  LYS798  CYS799  TRP800  GLU811  SER814 

> <Gold.Protein.RotatedAtoms>
  151.5141  135.1066  159.9861 H   0  0  0  0  0  0  0  0  0  0  0  0  # atno 6907 bound_to 6896
  152.4649  133.7897  159.6906 H   0  0  0  0  0  0  0  0  0  0  0  0  # atno 6908 bound_to 6896
  150.8628  133.7555  159.3012 H   0  0  0  0  0  0  0  0  0  0  0  0  # atno 6909 bound_to 6896
  144.9957  139.4362  143.5317 H   0  0  0  0  0  0  0  0  0  0  0  0  # atno 7974 bound_to 7965
  154.4725  140.0916  156.7180 H   0  0  0  0  0  0  0  0  0  0  0  0  # atno 8008 bound_to 7997
  155.4685  140.3463  155.4304 H   0  0  0  0  0  0  0  0  0  0  0  0  # atno 8009 bound_to 7997
  156.1063  140.1435  156.9388 H   0  0  0  0  0  0  0  0  0  0  0  0  # atno 8010 bound_to 7997
  140.7231  143.3746  151.1714 H   0  0  0  0  0  0  0  0  0  0  0  0  # atno 10167 bound_to 10162
  156.0288  130.4390  150.2714 H   0  0  0  0  0  0  0  0  0  0  0  0  # atno 10718 bound_to 10713
  153.2964  135.6952  153.7244 H   0  0  0  0  0  0  0  0  0  0  0  0  # atno 10763 bound_to 10752
  153.6175  135.3433  155.3000 H   0  0  0  0  0  0  0  0  0  0  0  0  # atno 10764 bound_to 10752
  154.8538  135.4378  154.2062 H   0  0  0  0  0  0  0  0  0  0  0  0  # atno 10765 bound_to 10752
  140.9670  134.0858  157.3909 H   0  0  0  0  0  0  0  0  0  0  0  0  # atno 11005 bound_to 11000
  146.3441  139.9315  142.8753 LP  0  0  0  0  0  0  0  0  0  0  0  0  # atno 17320 bound_to 7965
  145.2223  140.9940  143.4038 LP  0  0  0  0  0  0  0  0  0  0  0  0  # atno 17321 bound_to 7965
  139.7323  143.9052  152.3023 LP  0  0  0  0  0  0  0  0  0  0  0  0  # atno 17342 bound_to 10162
  139.8846  144.6999  150.8839 LP  0  0  0  0  0  0  0  0  0  0  0  0  # atno 17343 bound_to 10162
  157.0817  131.0145  151.3154 LP  0  0  0  0  0  0  0  0  0  0  0  0  # atno 17370 bound_to 10713
  157.4922  130.7829  149.7519 LP  0  0  0  0  0  0  0  0  0  0  0  0  # atno 17371 bound_to 10713
  139.8898  135.0108  156.6700 LP  0  0  0  0  0  0  0  0  0  0  0  0  # atno 17394 bound_to 11000
  140.7384  133.8998  155.8261 LP  0  0  0  0  0  0  0  0  0  0  0  0  # atno 17395 bound_to 11000

$$$$
