AV-unprocessed.smi:2318|AV-procd|sdf|9276|dock8
  -GOLD-   2272012503D 1   1.00000     0.00000
 Structure written by MMmdl.
 37 38  0  0  0  0  0  0  0  0  1 V2000
  146.3178  142.7413  154.1533 C   0  0  0  0  0  0  0  0  0  0  0  0
  147.1703  141.5720  154.1401 N   0  0  0  0  0  0  0  0  0  0  0  0
  148.5051  141.4750  154.4791 C   0  0  0  0  0  0  0  0  0  0  0  0
  148.8775  140.1720  154.3063 C   0  0  0  0  0  0  0  0  0  0  0  0
  147.6823  139.5472  153.8547 C   0  0  0  0  0  0  0  0  0  0  0  0
  147.6590  138.1602  153.5599 N   0  0  0  0  0  0  0  0  0  0  0  0
  146.6962  137.2732  153.8639 C   0  0  0  0  0  0  0  0  0  0  0  0
  145.6577  137.5344  154.4719 O   0  0  0  0  0  0  0  0  0  0  0  0
  147.0076  136.0489  153.4141 N   0  0  0  0  0  0  0  0  0  0  0  0
  146.2003  134.8385  153.5816 C   0  0  1  0  0  0  0  0  0  0  0  0
  145.8014  134.2802  152.1905 C   0  0  0  0  0  0  0  0  0  0  0  0
  145.0640  135.2823  151.2927 C   0  0  0  0  0  0  0  0  0  0  0  0
  144.4116  134.4254  150.2081 C   0  0  0  0  0  0  0  0  0  0  0  0
  144.1239  133.0699  150.8654 C   0  0  0  0  0  0  0  0  0  0  0  0
  144.8383  133.0849  152.2239 C   0  0  0  0  0  0  0  0  0  0  0  0
  146.9902  133.8370  154.4549 C   0  0  0  0  0  0  0  0  0  0  0  0
  147.4810  134.4616  155.5262 F   0  0  0  0  0  0  0  0  0  0  0  0
  146.2038  132.8514  154.8855 F   0  0  0  0  0  0  0  0  0  0  0  0
  148.0041  133.3118  153.7659 F   0  0  0  0  0  0  0  0  0  0  0  0
  146.6592  140.3846  153.7525 N   0  0  0  0  0  0  0  0  0  0  0  0
  146.8369  143.5779  154.6220 H   0  0  0  0  0  0  0  0  0  0  0  0
  145.4071  142.5303  154.7151 H   0  0  0  0  0  0  0  0  0  0  0  0
  146.0535  143.0145  153.1314 H   0  0  0  0  0  0  0  0  0  0  0  0
  149.0723  142.3319  154.8114 H   0  0  0  0  0  0  0  0  0  0  0  0
  149.8509  139.7362  154.4771 H   0  0  0  0  0  0  0  0  0  0  0  0
  148.4619  137.8059  153.0617 H   0  0  0  0  0  0  0  0  0  0  0  0
  147.8840  135.9362  152.9259 H   0  0  0  0  0  0  0  0  0  0  0  0
  145.2846  135.0845  154.1223 H   0  0  0  0  0  0  0  0  0  0  0  0
  146.7044  133.9688  151.6628 H   0  0  0  0  0  0  0  0  0  0  0  0
  144.2913  135.7973  151.8656 H   0  0  0  0  0  0  0  0  0  0  0  0
  145.7254  136.0407  150.8726 H   0  0  0  0  0  0  0  0  0  0  0  0
  143.5125  134.8911  149.8034 H   0  0  0  0  0  0  0  0  0  0  0  0
  145.1104  134.2887  149.3820 H   0  0  0  0  0  0  0  0  0  0  0  0
  143.0528  132.9139  150.9985 H   0  0  0  0  0  0  0  0  0  0  0  0
  144.4950  132.2593  150.2371 H   0  0  0  0  0  0  0  0  0  0  0  0
  145.3545  132.1443  152.4182 H   0  0  0  0  0  0  0  0  0  0  0  0
  144.1002  133.2238  153.0152 H   0  0  0  0  0  0  0  0  0  0  0  0
  1  2  1  0  0  0  0
  1 21  1  0  0  0  0
  1 22  1  0  0  0  0
  1 23  1  0  0  0  0
  2 20  1  0  0  0  0
  2  3  1  0  0  0  0
  3  4  2  0  0  0  0
  3 24  1  0  0  0  0
  4  5  1  0  0  0  0
  4 25  1  0  0  0  0
  5  6  1  0  0  0  0
  5 20  2  0  0  0  0
  6  7  1  0  0  0  0
  6 26  1  0  0  0  0
  7  8  2  0  0  0  0
  7  9  1  0  0  0  0
  9 10  1  0  0  0  0
  9 27  1  0  0  0  0
 10 11  1  0  0  0  0
 10 16  1  0  0  0  0
 10 28  1  0  0  0  0
 11 15  1  0  0  0  0
 11 12  1  0  0  0  0
 11 29  1  0  0  0  0
 12 13  1  0  0  0  0
 12 30  1  0  0  0  0
 12 31  1  0  0  0  0
 13 14  1  0  0  0  0
 13 32  1  0  0  0  0
 13 33  1  0  0  0  0
 14 15  1  0  0  0  0
 14 34  1  0  0  0  0
 14 35  1  0  0  0  0
 15 36  1  0  0  0  0
 15 37  1  0  0  0  0
 16 17  1  0  0  0  0
 16 18  1  0  0  0  0
 16 19  1  0  0  0  0
M  END
> <s_m_source_file>
AV-unprocessed.smi

> <i_m_source_file_index>
2318

> <i_lp_mmshare_version>
43012

> <i_f3d_flags>
0

> <s_epik_input>
W0NIM11uMVtjSF1bY0hdYyhuMSlbTkhdQyg9TylbTkhdW0NAQEhdKEMoRikoRilGKVtDSF0yW0NIMl1bQ0gyXVtDSDJdW0NIMl0y

> <s_epik_cmdline>
J2VwaWtfcHl0aG9uJywgJy1waCcsICc3LjAnLCAnLXRuJywgJzgnLCAnLW1hJywgJzIwMCcsICctbWV0YWxfYmluZGluZycsICctaW1hZScsICc8aW5maWxlLm1hZT4nLCAnLW9tYWUnLCAnPG91dGZpbGUubWFlPic=

> <r_lp_tautomer_probability>
1

> <r_epik_Ionization_Penalty>
2.39546e-05

> <r_epik_Ionization_Penalty_Charging>
0

> <r_epik_Ionization_Penalty_Neutral>
2.39546e-05

> <r_epik_State_Penalty>
-0

> <r_epik_Charging_Adjusted_Penalty>
0

> <i_epik_Tot_Q>
0

> <i_epik_Tot_abs_Q>
0

> <r_epik_Metal_State_Penalty>
-0

> <b_epik_Metal_Only>
0

> <s_lp_Force_Field>
OPLS_2005

> <r_lp_Energy>
23.5829

> <b_lp_Chiralities_Consistent>
1

> <s_lp_Variant>
AV-unprocessed.smi:2318-2

> <Gold.Version>
5.8.1

> <Gold.Id.Protein>
6NUR|6NUR_protein|mol2

> <Gold.PLP.Fitness>
38.0520

> <Gold.PLP.PLP>
-30.5607

> <Gold.PLP.part.hbond>
-1.8448

> <Gold.PLP.part.metal>
0.0000

> <Gold.PLP.part.buried>
-3.6844

> <Gold.PLP.part.nonpolar>
-26.7344

> <Gold.PLP.part.repulsive>
0.2608

> <Gold.PLP.ligand.clash>
0.0000

> <Gold.PLP.ligand.torsion>
0.5715

> <Gold.PLP.Chemscore.Hbond>
1.7913

> <Gold.PLP.Chemscore.CHOScore>
1.0000

> <Gold.PLP.Chemscore.Metal>
0.0000

> <Gold.Chemscore.Hbonds>
donor molecule, donor type, donor heavy atom, donor atom, acceptor molecule, acceptor atom, score
      L1  H     6    26       P1  7948  0.80
      L1  H     9    27       P1  7948  1.00
      L1  C     3    24       P1  8028  1.00

> <Gold.PLP.Chemscore.Internal.Correction>
0.2605

> <Gold.Rescore>
     Score         DG    S(hbond)    S(metal)    S(lipo)     H(rot)  DE(clash)    DE(int)     intcor
     14.00     -14.91       1.91        0.00      54.55       1.30       0.14       0.77       ----

> <Gold.Chemscore.Fitness>
13.9959

> <Gold.Chemscore.DG>
-14.9090

> <Gold.Chemscore.ZeroCoef>
-5.4800

> <Gold.Chemscore.Hbond>
1.9089

> <Gold.Chemscore.Metal>
0.0000

> <Gold.Chemscore.Lipo>
54.5479

> <Gold.Chemscore.Internal_Hbond>
0.0000

> <Gold.Chemscore.DEClash>
0.1385

> <Gold.Chemscore.DEInternal>
0.7746

> <Gold.Chemscore.Rot>
1.3003

> <Gold.Chemscore.Internal.Correction>
   9.000000E+99

> <Gold.Chemscore.Hbonds>
donor molecule, donor type, donor heavy atom, donor atom, acceptor molecule, acceptor atom, score
      L1  H     6    26       P1  7948  0.74
      L1  H     9    27       P1  7948  0.92

> <Gold.Chemscore.Hbond.Weighted>
-6.3756

> <Gold.Chemscore.Metal.Weighted>
-0.0000

> <Gold.Chemscore.Lipo.Weighted>
-6.3821

> <Gold.Chemscore.Internal_Hbond.Weighted>
0.0000

> <Gold.Chemscore.DEClash.Weighted>
0.1385

> <Gold.Chemscore.DEInternal.Weighted>
0.7746

> <Gold.Chemscore.Rot.Weighted>
3.3287

> <Gold.Chemscore.Internal.Correction.Weighted>
   9.000000E+99

> <Gold.Protein.RotatedTorsions>
[ 6907 6896 6895 6894 ] final  -90.11 input  -60.11 | X-H torsion
[ 7974 7965 7964 7962 ] final  -70.36 input  175.53 | X-H torsion
[ 8008 7997 7996 7995 ] final    3.21 input   59.86 | X-H torsion
[ 10167 10162 10161 10158 ] final -123.07 input  -65.29 | X-H torsion
[ 10718 10713 10712 10709 ] final   83.96 input   66.30 | X-H torsion
[ 10763 10752 10751 10750 ] final   17.17 input  -60.55 | X-H torsion
[ 11005 11000 10999 10996 ] final  -36.33 input  -57.11 | X-H torsion

> <Gold.Protein.ActiveResidues>
 VAL166  LYS551  ARG553  GLY616  TRP617  ASP618  TYR619  PRO620  LYS621  CYS622 
 ASP623  PHE694  ASN695  SER759  ASP760  ASP761  ALA762  ILE779  LEU786  VAL792 
 PHE793  MET794  SER795  GLU796  ALA797  LYS798  CYS799  TRP800  GLU811  SER814 

> <Gold.Protein.RotatedAtoms>
  150.6879  134.2482  159.4499 H   0  0  0  0  0  0  0  0  0  0  0  0  # atno 6907 bound_to 6896
  152.0421  134.9702  160.0583 H   0  0  0  0  0  0  0  0  0  0  0  0  # atno 6908 bound_to 6896
  152.1200  133.4313  159.4708 H   0  0  0  0  0  0  0  0  0  0  0  0  # atno 6909 bound_to 6896
  145.6920  140.9149  143.0777 H   0  0  0  0  0  0  0  0  0  0  0  0  # atno 7974 bound_to 7965
  154.7009  140.2673  155.6721 H   0  0  0  0  0  0  0  0  0  0  0  0  # atno 8008 bound_to 7997
  156.2764  140.2772  156.1543 H   0  0  0  0  0  0  0  0  0  0  0  0  # atno 8009 bound_to 7997
  155.0766  140.0372  157.2616 H   0  0  0  0  0  0  0  0  0  0  0  0  # atno 8010 bound_to 7997
  140.0074  143.5477  152.2278 H   0  0  0  0  0  0  0  0  0  0  0  0  # atno 10167 bound_to 10162
  157.6889  131.0113  150.2602 H   0  0  0  0  0  0  0  0  0  0  0  0  # atno 10718 bound_to 10713
  153.1363  135.6750  153.9098 H   0  0  0  0  0  0  0  0  0  0  0  0  # atno 10763 bound_to 10752
  153.8569  135.3086  155.3437 H   0  0  0  0  0  0  0  0  0  0  0  0  # atno 10764 bound_to 10752
  154.7750  135.4919  153.9808 H   0  0  0  0  0  0  0  0  0  0  0  0  # atno 10765 bound_to 10752
  140.9867  133.7027  156.1777 H   0  0  0  0  0  0  0  0  0  0  0  0  # atno 11005 bound_to 11000
  144.6994  139.8834  143.7448 LP  0  0  0  0  0  0  0  0  0  0  0  0  # atno 17320 bound_to 7965
  146.0873  139.3862  143.0427 LP  0  0  0  0  0  0  0  0  0  0  0  0  # atno 17321 bound_to 7965
  139.6229  144.7632  151.2702 LP  0  0  0  0  0  0  0  0  0  0  0  0  # atno 17342 bound_to 10162
  140.7395  143.6616  150.8159 LP  0  0  0  0  0  0  0  0  0  0  0  0  # atno 17343 bound_to 10162
  156.3183  130.3782  149.7599 LP  0  0  0  0  0  0  0  0  0  0  0  0  # atno 17370 bound_to 10713
  156.5177  130.8201  151.3192 LP  0  0  0  0  0  0  0  0  0  0  0  0  # atno 17371 bound_to 10713
  140.7104  134.4468  157.5582 LP  0  0  0  0  0  0  0  0  0  0  0  0  # atno 17394 bound_to 11000
  139.8973  134.8639  156.2048 LP  0  0  0  0  0  0  0  0  0  0  0  0  # atno 17395 bound_to 11000

$$$$
