AV-unprocessed.smi:33|AV-procd|sdf|210|dock4
  -GOLD-   2262015503D 1   1.00000     0.00000
 Structure written by MMmdl.
 67 72  0  0  0  0  0  0  0  0  1 V2000
  152.7321  139.9018  158.2643 O   0  0  0  0  0  0  0  0  0  0  0  0
  152.1749  140.8755  157.7538 C   0  0  0  0  0  0  0  0  0  0  0  0
  151.6012  140.8525  156.5361 O   0  0  0  0  0  0  0  0  0  0  0  0
  151.8707  139.7858  155.6418 C   0  0  0  0  0  0  0  0  0  0  0  0
  150.7259  138.7703  155.7274 C   0  0  1  0  0  0  0  0  0  0  0  0
  149.9853  138.9394  156.9357 O   0  0  0  0  0  0  0  0  0  0  0  0
  148.6562  138.5472  156.7450 C   0  0  2  0  0  0  0  0  0  0  0  0
  148.3698  137.3873  157.6468 N   0  0  0  0  0  0  0  0  0  0  0  0
  149.1744  136.9083  158.6573 C   0  0  0  0  0  0  0  0  0  0  0  0
  148.7064  135.8794  159.3101 N   0  0  0  0  0  0  0  0  0  0  0  0
  147.4906  135.6181  158.6936 C   0  0  0  0  0  0  0  0  0  0  0  0
  146.4700  134.6505  158.8968 C   0  0  0  0  0  0  0  0  0  0  0  0
  146.5382  133.7031  159.8612 N   0  0  0  0  0  0  0  0  0  0  0  0
  146.0322  134.0676  161.1919 C   0  0  0  0  0  0  0  0  0  0  0  0
  145.6186  133.1867  161.9481 O   0  0  0  0  0  0  0  0  0  0  0  0
  145.9761  135.5082  161.6146 C   0  0  0  0  0  0  0  0  0  0  0  0
  144.9388  136.3438  161.1459 C   0  0  0  0  0  0  0  0  0  0  0  0
  144.8737  137.6905  161.5532 C   0  0  0  0  0  0  0  0  0  0  0  0
  145.8332  138.2047  162.4460 C   0  0  0  0  0  0  0  0  0  0  0  0
  146.8538  137.3695  162.9386 C   0  0  0  0  0  0  0  0  0  0  0  0
  146.9206  136.0233  162.5310 C   0  0  0  0  0  0  0  0  0  0  0  0
  147.1060  132.3987  159.4888 C   0  0  0  0  0  0  0  0  0  0  0  0
  147.0768  132.0379  158.3106 O   0  0  0  0  0  0  0  0  0  0  0  0
  147.6667  131.4821  160.5394 C   0  0  0  0  0  0  0  0  0  0  0  0
  148.1557  132.0142  161.7528 C   0  0  0  0  0  0  0  0  0  0  0  0
  148.6694  131.1595  162.7473 C   0  0  0  0  0  0  0  0  0  0  0  0
  148.6808  129.7666  162.5429 C   0  0  0  0  0  0  0  0  0  0  0  0
  148.1689  129.2274  161.3475 C   0  0  0  0  0  0  0  0  0  0  0  0
  147.6553  130.0812  160.3524 C   0  0  0  0  0  0  0  0  0  0  0  0
  145.3823  134.6897  158.0850 N   0  0  0  0  0  0  0  0  0  0  0  0
  145.3008  135.6222  157.1320 C   0  0  0  0  0  0  0  0  0  0  0  0
  146.1725  136.5879  156.8329 N   0  0  0  0  0  0  0  0  0  0  0  0
  147.2682  136.5531  157.6451 C   0  0  0  0  0  0  0  0  0  0  0  0
  148.4972  138.1644  155.2667 C   0  0  1  0  0  0  0  0  0  0  0  0
  147.2711  138.5803  154.6996 O   0  0  0  0  0  0  0  0  0  0  0  0
  149.6617  138.9160  154.6422 C   0  0  1  0  0  0  0  0  0  0  0  0
  149.3692  140.2118  154.4934 F   0  0  0  0  0  0  0  0  0  0  0  0
  152.0651  142.2053  158.4203 C   0  0  0  0  0  0  0  0  0  0  0  0
  152.4895  142.3451  159.7624 C   0  0  0  0  0  0  0  0  0  0  0  0
  152.3996  143.5889  160.4171 C   0  0  0  0  0  0  0  0  0  0  0  0
  151.8847  144.7081  159.7374 C   0  0  0  0  0  0  0  0  0  0  0  0
  151.4590  144.5822  158.4021 C   0  0  0  0  0  0  0  0  0  0  0  0
  151.5477  143.3392  157.7457 C   0  0  0  0  0  0  0  0  0  0  0  0
  151.9829  140.1576  154.6223 H   0  0  0  0  0  0  0  0  0  0  0  0
  152.8103  139.3110  155.9278 H   0  0  0  0  0  0  0  0  0  0  0  0
  151.1334  137.7608  155.6821 H   0  0  0  0  0  0  0  0  0  0  0  0
  147.9864  139.3444  157.0706 H   0  0  0  0  0  0  0  0  0  0  0  0
  150.1270  137.3546  158.9028 H   0  0  0  0  0  0  0  0  0  0  0  0
  144.1967  135.9599  160.4607 H   0  0  0  0  0  0  0  0  0  0  0  0
  144.0860  138.3288  161.1812 H   0  0  0  0  0  0  0  0  0  0  0  0
  145.7823  139.2372  162.7583 H   0  0  0  0  0  0  0  0  0  0  0  0
  147.5849  137.7603  163.6309 H   0  0  0  0  0  0  0  0  0  0  0  0
  147.7046  135.3897  162.9203 H   0  0  0  0  0  0  0  0  0  0  0  0
  148.1525  133.0814  161.9209 H   0  0  0  0  0  0  0  0  0  0  0  0
  149.0542  131.5730  163.6678 H   0  0  0  0  0  0  0  0  0  0  0  0
  149.0757  129.1119  163.3057 H   0  0  0  0  0  0  0  0  0  0  0  0
  148.1687  128.1584  161.1936 H   0  0  0  0  0  0  0  0  0  0  0  0
  147.2604  129.6553  159.4412 H   0  0  0  0  0  0  0  0  0  0  0  0
  144.4088  135.5926  156.5240 H   0  0  0  0  0  0  0  0  0  0  0  0
  148.6305  137.0900  155.1348 H   0  0  0  0  0  0  0  0  0  0  0  0
  147.1721  139.5085  154.8479 H   0  0  0  0  0  0  0  0  0  0  0  0
  149.9678  138.5225  153.6724 H   0  0  0  0  0  0  0  0  0  0  0  0
  152.8887  141.4999  160.3045 H   0  0  0  0  0  0  0  0  0  0  0  0
  152.7271  143.6836  161.4419 H   0  0  0  0  0  0  0  0  0  0  0  0
  151.8164  145.6622  160.2392 H   0  0  0  0  0  0  0  0  0  0  0  0
  151.0640  145.4408  157.8791 H   0  0  0  0  0  0  0  0  0  0  0  0
  151.2134  143.2780  156.7203 H   0  0  0  0  0  0  0  0  0  0  0  0
  1  2  2  0  0  0  0
  2  3  1  0  0  0  0
  2 38  1  0  0  0  0
  3  4  1  0  0  0  0
  4  5  1  0  0  0  0
  4 44  1  0  0  0  0
  4 45  1  0  0  0  0
  5 36  1  0  0  0  0
  5  6  1  0  0  0  0
  5 46  1  0  0  0  0
  6  7  1  0  0  0  0
  7  8  1  0  0  0  0
  7 34  1  0  0  0  0
  7 47  1  0  0  0  0
  8 33  1  0  0  0  0
  8  9  1  0  0  0  0
  9 10  2  0  0  0  0
  9 48  1  0  0  0  0
 10 11  1  0  0  0  0
 11 33  2  0  0  0  0
 11 12  1  0  0  0  0
 12 13  1  0  0  0  0
 12 30  2  0  0  0  0
 13 14  1  0  0  0  0
 13 22  1  0  0  0  0
 14 15  2  0  0  0  0
 14 16  1  0  0  0  0
 16 21  1  0  0  0  0
 16 17  2  0  0  0  0
 17 18  1  0  0  0  0
 17 49  1  0  0  0  0
 18 19  2  0  0  0  0
 18 50  1  0  0  0  0
 19 20  1  0  0  0  0
 19 51  1  0  0  0  0
 20 21  2  0  0  0  0
 20 52  1  0  0  0  0
 21 53  1  0  0  0  0
 22 23  2  0  0  0  0
 22 24  1  0  0  0  0
 24 29  1  0  0  0  0
 24 25  2  0  0  0  0
 25 26  1  0  0  0  0
 25 54  1  0  0  0  0
 26 27  2  0  0  0  0
 26 55  1  0  0  0  0
 27 28  1  0  0  0  0
 27 56  1  0  0  0  0
 28 29  2  0  0  0  0
 28 57  1  0  0  0  0
 29 58  1  0  0  0  0
 30 31  1  0  0  0  0
 31 32  2  0  0  0  0
 31 59  1  0  0  0  0
 32 33  1  0  0  0  0
 34 35  1  0  0  0  0
 34 36  1  0  0  0  0
 34 60  1  0  0  0  0
 35 61  1  0  0  0  0
 36 37  1  0  0  0  0
 36 62  1  0  0  0  0
 38 43  1  0  0  0  0
 38 39  2  0  0  0  0
 39 40  1  0  0  0  0
 39 63  1  0  0  0  0
 40 41  2  0  0  0  0
 40 64  1  0  0  0  0
 41 42  1  0  0  0  0
 41 65  1  0  0  0  0
 42 43  2  0  0  0  0
 42 66  1  0  0  0  0
 43 67  1  0  0  0  0
M  END
> <s_m_source_file>
AV-unprocessed.smi

> <i_m_source_file_index>
33

> <i_lp_mmshare_version>
43012

> <i_f3d_flags>
0

> <s_epik_input>
W2NIXTFbY0hdW2NIXVtjSF1bY0hdYzFDKD1PKU9bQ0gyXVtDQEBIXTJPW0NASF0oW0NAQEhdKFtPSF0pW0NAQEhdMkYpbihbY0hdbjMpYyhjMzQpbltjSF1uYzROKEMoPU8pYzVbY0hdW2NIXVtjSF1bY0hdW2NIXTUpQyg9TyljNltjSF1bY0hdW2NIXVtjSF1bY0hdNg==

> <s_epik_cmdline>
J2VwaWtfcHl0aG9uJywgJy1waCcsICc3LjAnLCAnLXRuJywgJzgnLCAnLW1hJywgJzIwMCcsICctbWV0YWxfYmluZGluZycsICctaW1hZScsICc8aW5maWxlLm1hZT4nLCAnLW9tYWUnLCAnPG91dGZpbGUubWFlPic=

> <r_lp_tautomer_probability>
1

> <r_epik_Ionization_Penalty>
0.00067664

> <r_epik_Ionization_Penalty_Charging>
0

> <r_epik_Ionization_Penalty_Neutral>
0.00067664

> <r_epik_State_Penalty>
0.000428095

> <r_epik_Charging_Adjusted_Penalty>
0.000428095

> <i_epik_Tot_Q>
0

> <i_epik_Tot_abs_Q>
0

> <r_epik_Metal_State_Penalty>
-0

> <b_epik_Metal_Only>
0

> <s_epik_Chemistry_Notes>
This compound has an ester and may undergo hydrolysis at high or low pH. This compound contains an acetal/aminal-like group ( X-CH(R)-Y where X, Y are N, S, or O) that may be acid/base labile, releasing an aldehyde.

> <s_lp_Force_Field>
OPLS_2005

> <r_lp_Energy>
69.9903

> <b_lp_Chiralities_Consistent>
1

> <s_lp_Variant>
AV-unprocessed.smi:33-12

> <Gold.Version>
5.8.1

> <Gold.Id.Protein>
6NUR|6NUR_protein|mol2

> <Gold.PLP.Fitness>
62.2165

> <Gold.PLP.PLP>
-61.1534

> <Gold.PLP.part.hbond>
-2.0000

> <Gold.PLP.part.metal>
0.0000

> <Gold.PLP.part.buried>
-4.3618

> <Gold.PLP.part.nonpolar>
-53.4301

> <Gold.PLP.part.repulsive>
0.0454

> <Gold.PLP.ligand.clash>
0.0000

> <Gold.PLP.ligand.torsion>
4.9023

> <Gold.PLP.Chemscore.Hbond>
2.0000

> <Gold.PLP.Chemscore.CHOScore>
0.0000

> <Gold.PLP.Chemscore.Metal>
0.0000

> <Gold.Chemscore.Hbonds>
donor molecule, donor type, donor heavy atom, donor atom, acceptor molecule, acceptor atom, score
      P1  H  6896  6907       L1    10  0.12
      P1  H  7997  8008       L1     1  0.35

> <Gold.PLP.Chemscore.Internal.Correction>
4.8678

> <Gold.Rescore>
     Score         DG    S(hbond)    S(metal)    S(lipo)     H(rot)  DE(clash)    DE(int)     intcor
     13.56     -22.37       1.53        0.00     156.01       2.52       0.47       8.34       ----

> <Gold.Chemscore.Fitness>
13.5575

> <Gold.Chemscore.DG>
-22.3685

> <Gold.Chemscore.ZeroCoef>
-5.4800

> <Gold.Chemscore.Hbond>
1.5267

> <Gold.Chemscore.Metal>
0.0000

> <Gold.Chemscore.Lipo>
156.0062

> <Gold.Chemscore.Internal_Hbond>
0.0000

> <Gold.Chemscore.DEClash>
0.4704

> <Gold.Chemscore.DEInternal>
8.3406

> <Gold.Chemscore.Rot>
2.5247

> <Gold.Chemscore.Internal.Correction>
   9.000000E+99

> <Gold.Chemscore.Hbonds>
donor molecule, donor type, donor heavy atom, donor atom, acceptor molecule, acceptor atom, score
      P1  H  6896  6907       L1    10  0.02
      P1  H  7997  8008       L1     1  0.04

> <Gold.Chemscore.Hbond.Weighted>
-5.0990

> <Gold.Chemscore.Metal.Weighted>
-0.0000

> <Gold.Chemscore.Lipo.Weighted>
-18.2527

> <Gold.Chemscore.Internal_Hbond.Weighted>
0.0000

> <Gold.Chemscore.DEClash.Weighted>
0.4704

> <Gold.Chemscore.DEInternal.Weighted>
8.3406

> <Gold.Chemscore.Rot.Weighted>
6.4633

> <Gold.Chemscore.Internal.Correction.Weighted>
   9.000000E+99

> <Gold.Protein.RotatedTorsions>
[ 6907 6896 6895 6894 ] final  -52.02 input  -60.11 | X-H torsion
[ 7974 7965 7964 7962 ] final  -13.79 input  175.53 | X-H torsion
[ 8008 7997 7996 7995 ] final  -81.40 input   59.86 | X-H torsion
[ 10167 10162 10161 10158 ] final  149.09 input  -65.29 | X-H torsion
[ 10718 10713 10712 10709 ] final   -7.36 input   66.30 | X-H torsion
[ 10763 10752 10751 10750 ] final -144.33 input  -60.55 | X-H torsion
[ 11005 11000 10999 10996 ] final -162.24 input  -57.11 | X-H torsion

> <Gold.Protein.ActiveResidues>
 VAL166  LYS551  ARG553  GLY616  TRP617  ASP618  TYR619  PRO620  LYS621  CYS622 
 ASP623  PHE694  ASN695  SER759  ASP760  ASP761  ALA762  ILE779  LEU786  VAL792 
 PHE793  MET794  SER795  GLU796  ALA797  LYS798  CYS799  TRP800  GLU811  SER814 

> <Gold.Protein.RotatedAtoms>
  150.8557  134.7895  159.7043 H   0  0  0  0  0  0  0  0  0  0  0  0  # atno 6907 bound_to 6896
  152.4609  134.5182  159.9784 H   0  0  0  0  0  0  0  0  0  0  0  0  # atno 6908 bound_to 6896
  151.5295  133.3413  159.2951 H   0  0  0  0  0  0  0  0  0  0  0  0  # atno 6909 bound_to 6896
  146.2100  140.3254  142.8394 H   0  0  0  0  0  0  0  0  0  0  0  0  # atno 7974 bound_to 7965
  154.5980  140.0648  156.9330 H   0  0  0  0  0  0  0  0  0  0  0  0  # atno 8008 bound_to 7997
  155.2181  140.3328  155.4301 H   0  0  0  0  0  0  0  0  0  0  0  0  # atno 8009 bound_to 7997
  156.2300  140.1836  156.7251 H   0  0  0  0  0  0  0  0  0  0  0  0  # atno 8010 bound_to 7997
  139.4866  144.5629  151.7198 H   0  0  0  0  0  0  0  0  0  0  0  0  # atno 10167 bound_to 10162
  156.7184  130.5143  149.5874 H   0  0  0  0  0  0  0  0  0  0  0  0  # atno 10718 bound_to 10713
  154.8433  135.3443  154.6328 H   0  0  0  0  0  0  0  0  0  0  0  0  # atno 10763 bound_to 10752
  153.6938  135.6973  153.5087 H   0  0  0  0  0  0  0  0  0  0  0  0  # atno 10764 bound_to 10752
  153.2574  135.4334  155.0815 H   0  0  0  0  0  0  0  0  0  0  0  0  # atno 10765 bound_to 10752
  140.6114  134.4845  157.5216 H   0  0  0  0  0  0  0  0  0  0  0  0  # atno 11005 bound_to 11000
  144.8890  140.7499  143.5938 LP  0  0  0  0  0  0  0  0  0  0  0  0  # atno 17320 bound_to 7965
  145.3176  139.1798  143.4605 LP  0  0  0  0  0  0  0  0  0  0  0  0  # atno 17321 bound_to 7965
  140.5202  144.0891  150.6020 LP  0  0  0  0  0  0  0  0  0  0  0  0  # atno 17342 bound_to 10162
  140.3846  143.2784  152.0131 LP  0  0  0  0  0  0  0  0  0  0  0  0  # atno 17343 bound_to 10162
  156.1612  130.6375  151.0721 LP  0  0  0  0  0  0  0  0  0  0  0  0  # atno 17370 bound_to 10713
  157.6908  131.0810  150.7113 LP  0  0  0  0  0  0  0  0  0  0  0  0  # atno 17371 bound_to 10713
  139.9190  134.8186  156.1271 LP  0  0  0  0  0  0  0  0  0  0  0  0  # atno 17394 bound_to 11000
  141.0805  133.6756  156.2326 LP  0  0  0  0  0  0  0  0  0  0  0  0  # atno 17395 bound_to 11000

$$$$
