AV-unprocessed.smi:634|AV-procd|sdf|3135|dock5
  -GOLD-   22720 0 63D 1   1.00000     0.00000
 Structure written by MMmdl.
 32 33  0  0  0  0  0  0  0  0  2 V2000
  145.9502  133.4806  162.4193 C   0  0  0  0  0  0  0  0  0  0  0  0
  146.6193  134.7165  161.9227 C   0  0  0  0  0  0  0  0  0  0  0  0
  146.7246  135.2791  160.6824 C   0  0  0  0  0  0  0  0  0  0  0  0
  147.4910  136.4523  160.9218 C   0  0  0  0  0  0  0  0  0  0  0  0
  147.8734  137.3455  159.9960 N   0  5  0  0  0  0  0  0  0  0  0  0
  148.9465  137.0954  159.2107 C   0  0  0  0  0  0  0  0  0  0  0  0
  149.4316  135.9873  158.9729 O   0  0  0  0  0  0  0  0  0  0  0  0
  149.4874  138.2027  158.6742 N   0  0  0  0  0  0  0  0  0  0  0  0
  150.6582  138.3242  157.7946 C   0  0  1  0  0  0  0  0  0  0  0  0
  151.8940  138.3561  158.7154 C   0  0  0  0  0  0  0  0  0  0  0  0
  150.7818  137.1013  156.8239 C   0  0  0  0  0  0  0  0  0  0  0  0
  150.6297  137.5368  155.3599 C   0  0  0  0  0  0  0  0  0  0  0  0
  151.2428  139.2492  155.3147 S   0  0  0  0  0  0  0  0  0  0  0  0
  152.7128  139.2259  155.3672 O   0  0  0  0  0  0  0  0  0  0  0  0
  150.5286  140.0243  154.2888 O   0  0  0  0  0  0  0  0  0  0  0  0
  150.6011  139.6438  156.9756 C   0  0  0  0  0  0  0  0  0  0  0  0
  147.8356  136.5810  162.1922 N   0  0  0  0  0  0  0  0  0  0  0  0
  147.2751  135.4748  162.8421 O   0  0  0  0  0  0  0  0  0  0  0  0
  146.4752  132.5918  162.0693 H   0  0  0  0  0  0  0  0  0  0  0  0
  144.9217  133.4298  162.0620 H   0  0  0  0  0  0  0  0  0  0  0  0
  145.9299  133.4542  163.5091 H   0  0  0  0  0  0  0  0  0  0  0  0
  146.3158  134.9140  159.7524 H   0  0  0  0  0  0  0  0  0  0  0  0
  149.0318  139.0713  158.9131 H   0  0  0  0  0  0  0  0  0  0  0  0
  152.8151  138.4694  158.1425 H   0  0  0  0  0  0  0  0  0  0  0  0
  151.9791  137.4376  159.2977 H   0  0  0  0  0  0  0  0  0  0  0  0
  151.8446  139.1868  159.4205 H   0  0  0  0  0  0  0  0  0  0  0  0
  151.7702  136.6509  156.9266 H   0  0  0  0  0  0  0  0  0  0  0  0
  150.0802  136.3011  157.0628 H   0  0  0  0  0  0  0  0  0  0  0  0
  151.1852  136.9128  154.6604 H   0  0  0  0  0  0  0  0  0  0  0  0
  149.5796  137.5481  155.0679 H   0  0  0  0  0  0  0  0  0  0  0  0
  149.5802  140.0023  156.8439 H   0  0  0  0  0  0  0  0  0  0  0  0
  151.1799  140.4582  157.4116 H   0  0  0  0  0  0  0  0  0  0  0  0
  1  2  1  0  0  0  0
  1 19  1  0  0  0  0
  1 20  1  0  0  0  0
  1 21  1  0  0  0  0
  2 18  1  0  0  0  0
  2  3  2  0  0  0  0
  3  4  1  0  0  0  0
  3 22  1  0  0  0  0
  4  5  1  0  0  0  0
  4 17  2  0  0  0  0
  5  6  1  0  0  0  0
  6  7  2  0  0  0  0
  6  8  1  0  0  0  0
  8  9  1  0  0  0  0
  8 23  1  0  0  0  0
  9 16  1  0  0  0  0
  9 10  1  0  0  0  0
  9 11  1  0  0  0  0
 10 24  1  0  0  0  0
 10 25  1  0  0  0  0
 10 26  1  0  0  0  0
 11 12  1  0  0  0  0
 11 27  1  0  0  0  0
 11 28  1  0  0  0  0
 12 13  1  0  0  0  0
 12 29  1  0  0  0  0
 12 30  1  0  0  0  0
 13 14  2  0  0  0  0
 13 15  2  0  0  0  0
 13 16  1  0  0  0  0
 16 31  1  0  0  0  0
 16 32  1  0  0  0  0
 17 18  1  0  0  0  0
M  CHG  1   5  -1
M  END
> <s_m_source_file>
AV-unprocessed.smi

> <i_m_source_file_index>
634

> <i_lp_mmshare_version>
43012

> <i_f3d_flags>
0

> <s_epik_input>
W0NIM11jMVtjSF1jKG5vMSlbTkhdQyg9TylbTkhdW0NAQF0yKFtDSDNdKVtDSDJdW0NIMl1TKD1PKSg9TylbQ0gyXTI=

> <s_epik_cmdline>
J2VwaWtfcHl0aG9uJywgJy1waCcsICc3LjAnLCAnLXRuJywgJzgnLCAnLW1hJywgJzIwMCcsICctbWV0YWxfYmluZGluZycsICctaW1hZScsICc8aW5maWxlLm1hZT4nLCAnLW9tYWUnLCAnPG91dGZpbGUubWFlPic=

> <r_lp_tautomer_probability>
1

> <r_epik_Ionization_Penalty>
6.15572

> <r_epik_Ionization_Penalty_Charging>
6.1556

> <r_epik_Ionization_Penalty_Neutral>
0.000118136

> <r_epik_State_Penalty>
6.15558

> <r_epik_Charging_Adjusted_Penalty>
12.3112

> <i_epik_Tot_Q>
-1

> <i_epik_Tot_abs_Q>
1

> <r_epik_Metal_State_Penalty>
2.10569

> <b_epik_Metal_Only>
1

> <s_lp_Force_Field>
OPLS_2005

> <r_lp_Energy>
-1.37943

> <b_lp_Chiralities_Consistent>
1

> <s_lp_Variant>
AV-unprocessed.smi:634-3

> <Gold.Version>
5.8.1

> <Gold.Id.Protein>
6NUR|6NUR_protein|mol2

> <Gold.PLP.Fitness>
40.1910

> <Gold.PLP.PLP>
-27.8061

> <Gold.PLP.part.hbond>
-5.8777

> <Gold.PLP.part.metal>
0.0000

> <Gold.PLP.part.buried>
-6.9874

> <Gold.PLP.part.nonpolar>
-17.2297

> <Gold.PLP.part.repulsive>
0.3265

> <Gold.PLP.ligand.clash>
0.0000

> <Gold.PLP.ligand.torsion>
1.3396

> <Gold.PLP.Chemscore.Hbond>
5.0196

> <Gold.PLP.Chemscore.CHOScore>
0.0000

> <Gold.PLP.Chemscore.Metal>
0.0000

> <Gold.Chemscore.Hbonds>
donor molecule, donor type, donor heavy atom, donor atom, acceptor molecule, acceptor atom, score
      P1  H  6896  6907       L1     7  1.00
      P1  H  6931  6943       L1    17  0.73
      P1  H  6934  6947       L1     5  1.40
      P1  H  7989  7998       L1    15  1.00
      P1  H  7997  8010       L1    14  0.80

> <Gold.PLP.Chemscore.Internal.Correction>
0.0053

> <Gold.Rescore>
     Score         DG    S(hbond)    S(metal)    S(lipo)     H(rot)  DE(clash)    DE(int)     intcor
     15.68     -18.44       3.16        0.00      42.56       1.00       0.00       2.76       ----

> <Gold.Chemscore.Fitness>
15.6821

> <Gold.Chemscore.DG>
-18.4442

> <Gold.Chemscore.ZeroCoef>
-5.4800

> <Gold.Chemscore.Hbond>
3.1569

> <Gold.Chemscore.Metal>
0.0000

> <Gold.Chemscore.Lipo>
42.5645

> <Gold.Chemscore.Internal_Hbond>
0.0000

> <Gold.Chemscore.DEClash>
0.0000

> <Gold.Chemscore.DEInternal>
2.7621

> <Gold.Chemscore.Rot>
1.0000

> <Gold.Chemscore.Internal.Correction>
   9.000000E+99

> <Gold.Chemscore.Hbonds>
donor molecule, donor type, donor heavy atom, donor atom, acceptor molecule, acceptor atom, score
      P1  H  6896  6907       L1     7  1.00
      P1  H  6931  6943       L1    17  0.10
      P1  H  6934  6947       L1     5  0.15
      P1  H  7989  7998       L1    15  0.59
      P1  H  7997  8010       L1    14  0.76

> <Gold.Chemscore.Hbond.Weighted>
-10.5442

> <Gold.Chemscore.Metal.Weighted>
-0.0000

> <Gold.Chemscore.Lipo.Weighted>
-4.9800

> <Gold.Chemscore.Internal_Hbond.Weighted>
0.0000

> <Gold.Chemscore.DEClash.Weighted>
0.0000

> <Gold.Chemscore.DEInternal.Weighted>
2.7621

> <Gold.Chemscore.Rot.Weighted>
2.5600

> <Gold.Chemscore.Internal.Correction.Weighted>
   9.000000E+99

> <Gold.Protein.RotatedTorsions>
[ 6907 6896 6895 6894 ] final  -60.06 input  -60.11 | X-H torsion
[ 7974 7965 7964 7962 ] final  129.48 input  175.53 | X-H torsion
[ 8008 7997 7996 7995 ] final  114.03 input   59.86 | X-H torsion
[ 10167 10162 10161 10158 ] final -165.35 input  -65.29 | X-H torsion
[ 10718 10713 10712 10709 ] final  -60.17 input   66.30 | X-H torsion
[ 10763 10752 10751 10750 ] final   49.46 input  -60.55 | X-H torsion
[ 11005 11000 10999 10996 ] final    1.46 input  -57.11 | X-H torsion

> <Gold.Protein.ActiveResidues>
 VAL166  LYS551  ARG553  GLY616  TRP617  ASP618  TYR619  PRO620  LYS621  CYS622 
 ASP623  PHE694  ASN695  SER759  ASP760  ASP761  ALA762  ILE779  LEU786  VAL792 
 PHE793  MET794  SER795  GLU796  ALA797  LYS798  CYS799  TRP800  GLU811  SER814 

> <Gold.Protein.RotatedAtoms>
  150.7884  134.6888  159.6484 H   0  0  0  0  0  0  0  0  0  0  0  0  # atno 6907 bound_to 6896
  152.3985  134.6322  160.0088 H   0  0  0  0  0  0  0  0  0  0  0  0  # atno 6908 bound_to 6896
  151.6601  133.3280  159.3208 H   0  0  0  0  0  0  0  0  0  0  0  0  # atno 6909 bound_to 6896
  145.0282  139.4070  143.5163 H   0  0  0  0  0  0  0  0  0  0  0  0  # atno 7974 bound_to 7965
  156.2295  140.2967  156.0153 H   0  0  0  0  0  0  0  0  0  0  0  0  # atno 8008 bound_to 7997
  155.2263  140.0417  157.2973 H   0  0  0  0  0  0  0  0  0  0  0  0  # atno 8009 bound_to 7997
  154.5972  140.2417  155.7848 H   0  0  0  0  0  0  0  0  0  0  0  0  # atno 8010 bound_to 7997
  139.6188  144.0666  152.1913 H   0  0  0  0  0  0  0  0  0  0  0  0  # atno 10167 bound_to 10162
  156.1009  130.4186  150.0817 H   0  0  0  0  0  0  0  0  0  0  0  0  # atno 10718 bound_to 10713
  152.9787  135.5911  154.4093 H   0  0  0  0  0  0  0  0  0  0  0  0  # atno 10763 bound_to 10752
  154.3730  135.2767  155.2257 H   0  0  0  0  0  0  0  0  0  0  0  0  # atno 10764 bound_to 10752
  154.4205  135.6060  153.6061 H   0  0  0  0  0  0  0  0  0  0  0  0  # atno 10765 bound_to 10752
  140.6152  133.9712  155.8197 H   0  0  0  0  0  0  0  0  0  0  0  0  # atno 11005 bound_to 11000
  146.3495  139.9817  142.8695 LP  0  0  0  0  0  0  0  0  0  0  0  0  # atno 17320 bound_to 7965
  145.1805  140.9765  143.4269 LP  0  0  0  0  0  0  0  0  0  0  0  0  # atno 17321 bound_to 7965
  140.0303  144.6086  150.7494 LP  0  0  0  0  0  0  0  0  0  0  0  0  # atno 17342 bound_to 10162
  140.7368  143.2758  151.3746 LP  0  0  0  0  0  0  0  0  0  0  0  0  # atno 17343 bound_to 10162
  156.8804  130.9554  151.3600 LP  0  0  0  0  0  0  0  0  0  0  0  0  # atno 17370 bound_to 10713
  157.6179  130.8633  149.9060 LP  0  0  0  0  0  0  0  0  0  0  0  0  # atno 17371 bound_to 10713
  141.0781  134.0105  157.3428 LP  0  0  0  0  0  0  0  0  0  0  0  0  # atno 17394 bound_to 11000
  139.9176  135.0198  156.7940 LP  0  0  0  0  0  0  0  0  0  0  0  0  # atno 17395 bound_to 11000

$$$$
