AV-unprocessed.smi:1179|AV-procd|sdf|4959|dock8
  -GOLD-   22720 3553D 1   1.00000     0.00000
 Structure written by MMmdl.
 47 48  0  0  0  0  0  0  0  0  2 V2000
  147.9154  141.6890  154.1493 C   0  0  0  0  0  0  0  0  0  0  0  0
  149.0905  140.8677  154.5916 C   0  0  0  0  0  0  0  0  0  0  0  0
  150.1325  141.2310  155.4901 C   0  0  0  0  0  0  0  0  0  0  0  0
  150.9361  140.1268  155.5401 C   0  0  0  0  0  0  0  0  0  0  0  0
  152.1934  139.8837  156.3083 C   0  0  0  0  0  0  0  0  0  0  0  0
  150.3703  139.1808  154.7038 N   0  0  0  0  0  0  0  0  0  0  0  0
  150.8253  137.8322  154.4019 C   0  0  0  0  0  0  0  0  0  0  0  0
  150.0562  136.7885  155.2142 C   0  0  0  0  0  0  0  0  0  0  0  0
  150.0055  136.8768  156.4409 O   0  0  0  0  0  0  0  0  0  0  0  0
  149.4641  135.8035  154.5206 N   0  0  0  0  0  0  0  0  0  0  0  0
  148.6922  134.7153  155.1068 C   0  0  0  0  0  0  0  0  0  0  0  0
  147.7321  134.0834  154.0798 C   0  0  0  0  0  0  0  0  0  0  0  0
  147.0546  135.1017  153.2380 N   0  3  2  0  0  0  0  0  0  0  0  0
  146.3747  136.1422  154.0519 C   0  0  0  0  0  0  0  0  0  0  0  0
  145.8058  137.2628  153.1628 C   0  0  0  0  0  0  0  0  0  0  0  0
  144.8582  136.7225  152.0764 C   0  0  2  0  0  0  0  0  0  0  0  0
  143.4905  136.2950  152.6370 C   0  0  0  0  0  0  0  0  0  0  0  0
  145.5611  135.5953  151.2984 C   0  0  0  0  0  0  0  0  0  0  0  0
  146.1334  134.5119  152.2302 C   0  0  0  0  0  0  0  0  0  0  0  0
  149.2373  139.6382  154.1264 N   0  0  0  0  0  0  0  0  0  0  0  0
  147.9847  142.7104  154.5238 H   0  0  0  0  0  0  0  0  0  0  0  0
  146.9804  141.2642  154.5150 H   0  0  0  0  0  0  0  0  0  0  0  0
  147.8568  141.7391  153.0617 H   0  0  0  0  0  0  0  0  0  0  0  0
  150.2697  142.1632  156.0179 H   0  0  0  0  0  0  0  0  0  0  0  0
  152.4592  140.7555  156.9066 H   0  0  0  0  0  0  0  0  0  0  0  0
  153.0253  139.6732  155.6359 H   0  0  0  0  0  0  0  0  0  0  0  0
  152.0792  139.0361  156.9842 H   0  0  0  0  0  0  0  0  0  0  0  0
  150.7009  137.6354  153.3357 H   0  0  0  0  0  0  0  0  0  0  0  0
  151.8927  137.7612  154.6135 H   0  0  0  0  0  0  0  0  0  0  0  0
  149.5575  135.8127  153.5143 H   0  0  0  0  0  0  0  0  0  0  0  0
  149.3920  133.9635  155.4722 H   0  0  0  0  0  0  0  0  0  0  0  0
  148.1576  135.0918  155.9794 H   0  0  0  0  0  0  0  0  0  0  0  0
  148.2521  133.3693  153.4392 H   0  0  0  0  0  0  0  0  0  0  0  0
  146.9820  133.5124  154.6292 H   0  0  0  0  0  0  0  0  0  0  0  0
  145.5833  135.6847  154.6472 H   0  0  0  0  0  0  0  0  0  0  0  0
  147.0841  136.5781  154.7564 H   0  0  0  0  0  0  0  0  0  0  0  0
  145.2935  138.0050  153.7761 H   0  0  0  0  0  0  0  0  0  0  0  0
  146.6342  137.7873  152.6843 H   0  0  0  0  0  0  0  0  0  0  0  0
  144.6625  137.5350  151.3750 H   0  0  0  0  0  0  0  0  0  0  0  0
  143.5760  135.4818  153.3570 H   0  0  0  0  0  0  0  0  0  0  0  0
  142.8297  135.9587  151.8375 H   0  0  0  0  0  0  0  0  0  0  0  0
  142.9971  137.1281  153.1380 H   0  0  0  0  0  0  0  0  0  0  0  0
  144.8738  135.1467  150.5799 H   0  0  0  0  0  0  0  0  0  0  0  0
  146.3750  136.0215  150.7102 H   0  0  0  0  0  0  0  0  0  0  0  0
  146.6569  133.7747  151.6232 H   0  0  0  0  0  0  0  0  0  0  0  0
  145.3274  133.9791  152.7368 H   0  0  0  0  0  0  0  0  0  0  0  0
  147.7833  135.5794  152.7274 H   0  0  0  0  0  0  0  0  0  0  0  0
  1  2  1  0  0  0  0
  1 21  1  0  0  0  0
  1 22  1  0  0  0  0
  1 23  1  0  0  0  0
  2 20  2  0  0  0  0
  2  3  1  0  0  0  0
  3  4  2  0  0  0  0
  3 24  1  0  0  0  0
  4  5  1  0  0  0  0
  4  6  1  0  0  0  0
  5 25  1  0  0  0  0
  5 26  1  0  0  0  0
  5 27  1  0  0  0  0
  6  7  1  0  0  0  0
  6 20  1  0  0  0  0
  7  8  1  0  0  0  0
  7 28  1  0  0  0  0
  7 29  1  0  0  0  0
  8  9  2  0  0  0  0
  8 10  1  0  0  0  0
 10 11  1  0  0  0  0
 10 30  1  0  0  0  0
 11 12  1  0  0  0  0
 11 31  1  0  0  0  0
 11 32  1  0  0  0  0
 12 13  1  0  0  0  0
 12 33  1  0  0  0  0
 12 34  1  0  0  0  0
 13 19  1  0  0  0  0
 13 14  1  0  0  0  0
 13 47  1  0  0  0  0
 14 15  1  0  0  0  0
 14 35  1  0  0  0  0
 14 36  1  0  0  0  0
 15 16  1  0  0  0  0
 15 37  1  0  0  0  0
 15 38  1  0  0  0  0
 16 17  1  0  0  0  0
 16 18  1  0  0  0  0
 16 39  1  0  0  0  0
 17 40  1  0  0  0  0
 17 41  1  0  0  0  0
 17 42  1  0  0  0  0
 18 19  1  0  0  0  0
 18 43  1  0  0  0  0
 18 44  1  0  0  0  0
 19 45  1  0  0  0  0
 19 46  1  0  0  0  0
M  CHG  1  13   1
M  END
> <s_m_source_file>
AV-unprocessed.smi

> <i_m_source_file_index>
1179

> <i_lp_mmshare_version>
43012

> <i_f3d_flags>
0

> <s_epik_input>
W0NIM11jMVtjSF1jKFtDSDNdKW4objEpW0NIMl1DKD1PKVtOSF1bQ0gyXVtDSDJdTjJbQ0gyXVtDSDJdW0NIXShbQ0gzXSlbQ0gyXVtDSDJdMg==

> <s_epik_cmdline>
J2VwaWtfcHl0aG9uJywgJy1waCcsICc3LjAnLCAnLXRuJywgJzgnLCAnLW1hJywgJzIwMCcsICctbWV0YWxfYmluZGluZycsICctaW1hZScsICc8aW5maWxlLm1hZT4nLCAnLW9tYWUnLCAnPG91dGZpbGUubWFlPic=

> <r_lp_tautomer_probability>
1

> <r_epik_Ionization_Penalty>
0.00206343

> <r_epik_Ionization_Penalty_Charging>
0.00187095

> <r_epik_Ionization_Penalty_Neutral>
0.000192474

> <r_epik_State_Penalty>
-0

> <r_epik_Charging_Adjusted_Penalty>
0.00187095

> <i_epik_Tot_Q>
1

> <i_epik_Tot_abs_Q>
1

> <r_epik_Metal_State_Penalty>
-0

> <b_epik_Metal_Only>
0

> <s_lp_Force_Field>
OPLS_2005

> <r_lp_Energy>
16.047

> <b_lp_Chiralities_Consistent>
1

> <s_lp_Variant>
AV-unprocessed.smi:1179-2

> <Gold.Version>
5.8.1

> <Gold.Id.Protein>
6NUR|6NUR_protein|mol2

> <Gold.PLP.Fitness>
42.1933

> <Gold.PLP.PLP>
-34.2687

> <Gold.PLP.part.hbond>
-2.0000

> <Gold.PLP.part.metal>
0.0000

> <Gold.PLP.part.buried>
-2.3100

> <Gold.PLP.part.nonpolar>
-30.4719

> <Gold.PLP.part.repulsive>
1.0628

> <Gold.PLP.ligand.clash>
0.0000

> <Gold.PLP.ligand.torsion>
0.5549

> <Gold.PLP.Chemscore.Hbond>
3.0000

> <Gold.PLP.Chemscore.CHOScore>
0.0000

> <Gold.PLP.Chemscore.Metal>
0.0000

> <Gold.Chemscore.Hbonds>
donor molecule, donor type, donor heavy atom, donor atom, acceptor molecule, acceptor atom, score
      L1  H    10    30       P1  7948  0.95
      L1  H    13    47       P1  7948  2.00

> <Gold.PLP.Chemscore.Internal.Correction>
0.0344

> <Gold.Rescore>
     Score         DG    S(hbond)    S(metal)    S(lipo)     H(rot)  DE(clash)    DE(int)     intcor
     14.41     -15.18       1.74        0.00      69.62       1.67       0.21       0.56       ----

> <Gold.Chemscore.Fitness>
14.4063

> <Gold.Chemscore.DG>
-15.1799

> <Gold.Chemscore.ZeroCoef>
-5.4800

> <Gold.Chemscore.Hbond>
1.7422

> <Gold.Chemscore.Metal>
0.0000

> <Gold.Chemscore.Lipo>
69.6160

> <Gold.Chemscore.Internal_Hbond>
0.0000

> <Gold.Chemscore.DEClash>
0.2115

> <Gold.Chemscore.DEInternal>
0.5621

> <Gold.Chemscore.Rot>
1.6657

> <Gold.Chemscore.Internal.Correction>
   9.000000E+99

> <Gold.Chemscore.Hbonds>
donor molecule, donor type, donor heavy atom, donor atom, acceptor molecule, acceptor atom, score
      L1  H    10    30       P1  7948  0.21
      L1  H    13    47       P1  7948  0.97

> <Gold.Chemscore.Hbond.Weighted>
-5.8189

> <Gold.Chemscore.Metal.Weighted>
-0.0000

> <Gold.Chemscore.Lipo.Weighted>
-8.1451

> <Gold.Chemscore.Internal_Hbond.Weighted>
0.0000

> <Gold.Chemscore.DEClash.Weighted>
0.2115

> <Gold.Chemscore.DEInternal.Weighted>
0.5621

> <Gold.Chemscore.Rot.Weighted>
4.2641

> <Gold.Chemscore.Internal.Correction.Weighted>
   9.000000E+99

> <Gold.Protein.RotatedTorsions>
[ 6907 6896 6895 6894 ] final  120.88 input  -60.11 | X-H torsion
[ 7974 7965 7964 7962 ] final  -15.20 input  175.53 | X-H torsion
[ 8008 7997 7996 7995 ] final  -35.33 input   59.86 | X-H torsion
[ 10167 10162 10161 10158 ] final   33.69 input  -65.29 | X-H torsion
[ 10718 10713 10712 10709 ] final  170.72 input   66.30 | X-H torsion
[ 10763 10752 10751 10750 ] final  163.17 input  -60.55 | X-H torsion
[ 11005 11000 10999 10996 ] final  144.40 input  -57.11 | X-H torsion

> <Gold.Protein.ActiveResidues>
 VAL166  LYS551  ARG553  GLY616  TRP617  ASP618  TYR619  PRO620  LYS621  CYS622 
 ASP623  PHE694  ASN695  SER759  ASP760  ASP761  ALA762  ILE779  LEU786  VAL792 
 PHE793  MET794  SER795  GLU796  ALA797  LYS798  CYS799  TRP800  GLU811  SER814 

> <Gold.Protein.RotatedAtoms>
  152.4364  133.7369  159.6618 H   0  0  0  0  0  0  0  0  0  0  0  0  # atno 6907 bound_to 6896
  150.8248  133.8179  159.3129 H   0  0  0  0  0  0  0  0  0  0  0  0  # atno 6908 bound_to 6896
  151.5851  135.1059  160.0078 H   0  0  0  0  0  0  0  0  0  0  0  0  # atno 6909 bound_to 6896
  146.2042  140.3458  142.8413 H   0  0  0  0  0  0  0  0  0  0  0  0  # atno 7974 bound_to 7965
  154.4098  140.1660  156.2194 H   0  0  0  0  0  0  0  0  0  0  0  0  # atno 8008 bound_to 7997
  155.9376  140.3410  155.6277 H   0  0  0  0  0  0  0  0  0  0  0  0  # atno 8009 bound_to 7997
  155.7029  140.0747  157.2393 H   0  0  0  0  0  0  0  0  0  0  0  0  # atno 8010 bound_to 7997
  140.4384  144.1223  150.6170 H   0  0  0  0  0  0  0  0  0  0  0  0  # atno 10167 bound_to 10162
  157.0040  131.0184  151.2822 H   0  0  0  0  0  0  0  0  0  0  0  0  # atno 10718 bound_to 10713
  154.2896  135.2761  155.2661 H   0  0  0  0  0  0  0  0  0  0  0  0  # atno 10763 bound_to 10752
  154.5146  135.5773  153.6635 H   0  0  0  0  0  0  0  0  0  0  0  0  # atno 10764 bound_to 10752
  152.9916  135.6189  154.3060 H   0  0  0  0  0  0  0  0  0  0  0  0  # atno 10765 bound_to 10752
  140.0629  134.9194  157.1215 H   0  0  0  0  0  0  0  0  0  0  0  0  # atno 11005 bound_to 11000
  144.8753  140.7328  143.6021 LP  0  0  0  0  0  0  0  0  0  0  0  0  # atno 17320 bound_to 7965
  145.3378  139.1741  143.4502 LP  0  0  0  0  0  0  0  0  0  0  0  0  # atno 17321 bound_to 7965
  140.4347  143.2553  151.9551 LP  0  0  0  0  0  0  0  0  0  0  0  0  # atno 17342 bound_to 10162
  139.4788  144.5711  151.8086 LP  0  0  0  0  0  0  0  0  0  0  0  0  # atno 17343 bound_to 10162
  157.5370  130.8095  149.7983 LP  0  0  0  0  0  0  0  0  0  0  0  0  # atno 17370 bound_to 10713
  156.0161  130.3813  150.2108 LP  0  0  0  0  0  0  0  0  0  0  0  0  # atno 17371 bound_to 10713
  140.3742  134.2357  155.7175 LP  0  0  0  0  0  0  0  0  0  0  0  0  # atno 17394 bound_to 11000
  141.1981  133.8044  157.0599 LP  0  0  0  0  0  0  0  0  0  0  0  0  # atno 17395 bound_to 11000

$$$$
