AV-unprocessed.smi:1824|AV-procd|sdf|7398|dock5
  -GOLD-   22720 9 73D 1   1.00000     0.00000
 Structure written by MMmdl.
 44 46  0  0  0  0  0  0  0  0  1 V2000
  144.4485  145.0351  153.6984 C   0  0  0  0  0  0  0  0  0  0  0  0
  144.9897  143.7372  154.3067 C   0  0  1  0  0  0  0  0  0  0  0  0
  146.3161  143.3026  153.6582 C   0  0  0  0  0  0  0  0  0  0  0  0
  146.8698  142.1121  154.2909 N   0  0  0  0  0  0  0  0  0  0  0  0
  148.1038  141.6921  153.6249 C   0  0  0  0  0  0  0  0  0  0  0  0
  149.1640  141.0395  154.5351 C   0  0  1  0  0  0  0  0  0  0  0  0
  150.0010  140.2183  153.7434 O   0  0  0  0  0  0  0  0  0  0  0  0
  150.0252  142.0993  155.2481 C   0  0  0  0  0  0  0  0  0  0  0  0
  150.7790  141.5449  156.3586 N   0  0  0  0  0  0  0  0  0  0  0  0
  151.3463  140.3255  156.4307 C   0  0  0  0  0  0  0  0  0  0  0  0
  151.9939  140.0200  157.5516 N   0  0  0  0  0  0  0  0  0  0  0  0
  151.8280  141.1764  158.2943 C   0  0  0  0  0  0  0  0  0  0  0  0
  152.2780  141.5056  159.5930 C   0  0  0  0  0  0  0  0  0  0  0  0
  151.9843  142.7661  160.1533 C   0  0  0  0  0  0  0  0  0  0  0  0
  152.4231  143.0652  161.3990 F   0  0  0  0  0  0  0  0  0  0  0  0
  151.2374  143.7156  159.4245 C   0  0  0  0  0  0  0  0  0  0  0  0
  150.9601  144.9234  159.9701 F   0  0  0  0  0  0  0  0  0  0  0  0
  150.7783  143.4102  158.1288 C   0  0  0  0  0  0  0  0  0  0  0  0
  151.0736  142.1513  157.5745 C   0  0  0  0  0  0  0  0  0  0  0  0
  147.0576  142.3782  155.7164 C   0  0  0  0  0  0  0  0  0  0  0  0
  145.7644  142.8519  156.4102 C   0  0  2  0  0  0  0  0  0  0  0  0
  144.7427  141.7229  156.6273 C   0  0  0  0  0  0  0  0  0  0  0  0
  145.1949  143.9535  155.7014 O   0  0  0  0  0  0  0  0  0  0  0  0
  144.2603  144.9195  152.6308 H   0  0  0  0  0  0  0  0  0  0  0  0
  145.1543  145.8560  153.8277 H   0  0  0  0  0  0  0  0  0  0  0  0
  143.5099  145.3249  154.1716 H   0  0  0  0  0  0  0  0  0  0  0  0
  144.2425  142.9556  154.1672 H   0  0  0  0  0  0  0  0  0  0  0  0
  146.1478  143.1113  152.5976 H   0  0  0  0  0  0  0  0  0  0  0  0
  147.0369  144.1201  153.7162 H   0  0  0  0  0  0  0  0  0  0  0  0
  147.8613  140.9836  152.8310 H   0  0  0  0  0  0  0  0  0  0  0  0
  148.5450  142.5545  153.1228 H   0  0  0  0  0  0  0  0  0  0  0  0
  148.6928  140.4169  155.2942 H   0  0  0  0  0  0  0  0  0  0  0  0
  149.6876  140.2396  152.8524 H   0  0  0  0  0  0  0  0  0  0  0  0
  150.7213  142.5633  154.5476 H   0  0  0  0  0  0  0  0  0  0  0  0
  149.3930  142.8991  155.6353 H   0  0  0  0  0  0  0  0  0  0  0  0
  151.2774  139.6208  155.6147 H   0  0  0  0  0  0  0  0  0  0  0  0
  152.8504  140.7869  160.1603 H   0  0  0  0  0  0  0  0  0  0  0  0
  150.2055  144.1339  157.5687 H   0  0  0  0  0  0  0  0  0  0  0  0
  147.4226  141.4908  156.2315 H   0  0  0  0  0  0  0  0  0  0  0  0
  147.8245  143.1440  155.8426 H   0  0  0  0  0  0  0  0  0  0  0  0
  146.0335  143.2302  157.3968 H   0  0  0  0  0  0  0  0  0  0  0  0
  145.1562  140.9446  157.2690 H   0  0  0  0  0  0  0  0  0  0  0  0
  144.4493  141.2493  155.6907 H   0  0  0  0  0  0  0  0  0  0  0  0
  143.8405  142.1020  157.1078 H   0  0  0  0  0  0  0  0  0  0  0  0
  1  2  1  0  0  0  0
  1 24  1  0  0  0  0
  1 25  1  0  0  0  0
  1 26  1  0  0  0  0
  2 23  1  0  0  0  0
  2  3  1  0  0  0  0
  2 27  1  0  0  0  0
  3  4  1  0  0  0  0
  3 28  1  0  0  0  0
  3 29  1  0  0  0  0
  4  5  1  0  0  0  0
  4 20  1  0  0  0  0
  5  6  1  0  0  0  0
  5 30  1  0  0  0  0
  5 31  1  0  0  0  0
  6  7  1  0  0  0  0
  6  8  1  0  0  0  0
  6 32  1  0  0  0  0
  7 33  1  0  0  0  0
  8  9  1  0  0  0  0
  8 34  1  0  0  0  0
  8 35  1  0  0  0  0
  9 19  1  0  0  0  0
  9 10  1  0  0  0  0
 10 11  2  0  0  0  0
 10 36  1  0  0  0  0
 11 12  1  0  0  0  0
 12 19  2  0  0  0  0
 12 13  1  0  0  0  0
 13 14  2  0  0  0  0
 13 37  1  0  0  0  0
 14 15  1  0  0  0  0
 14 16  1  0  0  0  0
 16 17  1  0  0  0  0
 16 18  2  0  0  0  0
 18 19  1  0  0  0  0
 18 38  1  0  0  0  0
 20 21  1  0  0  0  0
 20 39  1  0  0  0  0
 20 40  1  0  0  0  0
 21 22  1  0  0  0  0
 21 23  1  0  0  0  0
 21 41  1  0  0  0  0
 22 42  1  0  0  0  0
 22 43  1  0  0  0  0
 22 44  1  0  0  0  0
M  END
> <s_m_source_file>
AV-unprocessed.smi

> <i_m_source_file_index>
1824

> <i_lp_mmshare_version>
43012

> <i_f3d_flags>
0

> <s_epik_input>
W0NIM11bQ0BASF0xW0NIMl1OKFtDSDJdW0NASF0oTzEpW0NIM10pW0NIMl1bQ0BIXShbT0hdKVtDSDJdbihbY0hdbjIpYyhjMjMpW2NIXWMoRiljKEYpW2NIXTM=

> <s_epik_cmdline>
J2VwaWtfcHl0aG9uJywgJy1waCcsICc3LjAnLCAnLXRuJywgJzgnLCAnLW1hJywgJzIwMCcsICctbWV0YWxfYmluZGluZycsICctaW1hZScsICc8aW5maWxlLm1hZT4nLCAnLW9tYWUnLCAnPG91dGZpbGUubWFlPic=

> <r_epik_Ionization_Penalty>
0.273778

> <r_epik_Ionization_Penalty_Charging>
0

> <r_epik_Ionization_Penalty_Neutral>
0.273778

> <r_epik_State_Penalty>
0.246794

> <r_epik_Charging_Adjusted_Penalty>
0.246794

> <i_epik_Tot_Q>
0

> <i_epik_Tot_abs_Q>
0

> <r_epik_Metal_State_Penalty>
0.238234

> <b_epik_Metal_Only>
0

> <s_lp_Force_Field>
OPLS_2005

> <r_lp_Energy>
30.0542

> <b_lp_Chiralities_Consistent>
1

> <s_lp_Variant>
AV-unprocessed.smi:1824-6

> <Gold.Version>
5.8.1

> <Gold.Id.Protein>
6NUR|6NUR_protein|mol2

> <Gold.PLP.Fitness>
54.7680

> <Gold.PLP.PLP>
-48.5939

> <Gold.PLP.part.hbond>
-3.0000

> <Gold.PLP.part.metal>
0.0000

> <Gold.PLP.part.buried>
-4.9179

> <Gold.PLP.part.nonpolar>
-39.3110

> <Gold.PLP.part.repulsive>
0.2567

> <Gold.PLP.ligand.clash>
0.0000

> <Gold.PLP.ligand.torsion>
1.1552

> <Gold.PLP.Chemscore.Hbond>
2.8070

> <Gold.PLP.Chemscore.CHOScore>
0.0000

> <Gold.PLP.Chemscore.Metal>
0.0000

> <Gold.Chemscore.Hbonds>
donor molecule, donor type, donor heavy atom, donor atom, acceptor molecule, acceptor atom, score
      L1  H     7    33       P1  7957  1.00
      P1  H  7989  7998       L1     7  0.65

> <Gold.PLP.Chemscore.Internal.Correction>
0.0634

> <Gold.Rescore>
     Score         DG    S(hbond)    S(metal)    S(lipo)     H(rot)  DE(clash)    DE(int)     intcor
     13.72     -17.36       1.81        0.00      99.44       2.26       1.45       2.20       ----

> <Gold.Chemscore.Fitness>
13.7167

> <Gold.Chemscore.DG>
-17.3625

> <Gold.Chemscore.ZeroCoef>
-5.4800

> <Gold.Chemscore.Hbond>
1.8079

> <Gold.Chemscore.Metal>
0.0000

> <Gold.Chemscore.Lipo>
99.4396

> <Gold.Chemscore.Internal_Hbond>
0.0000

> <Gold.Chemscore.DEClash>
1.4493

> <Gold.Chemscore.DEInternal>
2.1965

> <Gold.Chemscore.Rot>
2.2619

> <Gold.Chemscore.Internal.Correction>
   9.000000E+99

> <Gold.Chemscore.Hbonds>
donor molecule, donor type, donor heavy atom, donor atom, acceptor molecule, acceptor atom, score
      L1  H     7    33       P1  7957  1.00
      P1  H  7989  7998       L1     7  0.11

> <Gold.Chemscore.Hbond.Weighted>
-6.0385

> <Gold.Chemscore.Metal.Weighted>
-0.0000

> <Gold.Chemscore.Lipo.Weighted>
-11.6344

> <Gold.Chemscore.Internal_Hbond.Weighted>
0.0000

> <Gold.Chemscore.DEClash.Weighted>
1.4493

> <Gold.Chemscore.DEInternal.Weighted>
2.1965

> <Gold.Chemscore.Rot.Weighted>
5.7904

> <Gold.Chemscore.Internal.Correction.Weighted>
   9.000000E+99

> <Gold.Protein.RotatedTorsions>
[ 6907 6896 6895 6894 ] final   13.39 input  -60.11 | X-H torsion
[ 7974 7965 7964 7962 ] final  -41.89 input  175.53 | X-H torsion
[ 8008 7997 7996 7995 ] final  172.48 input   59.86 | X-H torsion
[ 10167 10162 10161 10158 ] final  -99.87 input  -65.29 | X-H torsion
[ 10718 10713 10712 10709 ] final   62.26 input   66.30 | X-H torsion
[ 10763 10752 10751 10750 ] final  131.81 input  -60.55 | X-H torsion
[ 11005 11000 10999 10996 ] final  128.45 input  -57.11 | X-H torsion

> <Gold.Protein.ActiveResidues>
 VAL166  LYS551  ARG553  GLY616  TRP617  ASP618  TYR619  PRO620  LYS621  CYS622 
 ASP623  PHE694  ASN695  SER759  ASP760  ASP761  ALA762  ILE779  LEU786  VAL792 
 PHE793  MET794  SER795  GLU796  ALA797  LYS798  CYS799  TRP800  GLU811  SER814 

> <Gold.Protein.RotatedAtoms>
  151.7855  135.0750  160.0379 H   0  0  0  0  0  0  0  0  0  0  0  0  # atno 6907 bound_to 6896
  152.3193  133.5832  159.5742 H   0  0  0  0  0  0  0  0  0  0  0  0  # atno 6908 bound_to 6896
  150.7361  133.9951  159.3662 H   0  0  0  0  0  0  0  0  0  0  0  0  # atno 6909 bound_to 6896
  146.0168  140.6899  142.9198 H   0  0  0  0  0  0  0  0  0  0  0  0  # atno 7974 bound_to 7965
  156.1170  140.1485  156.9259 H   0  0  0  0  0  0  0  0  0  0  0  0  # atno 8008 bound_to 7997
  154.4808  140.0880  156.7414 H   0  0  0  0  0  0  0  0  0  0  0  0  # atno 8009 bound_to 7997
  155.4496  140.3434  155.4301 H   0  0  0  0  0  0  0  0  0  0  0  0  # atno 8010 bound_to 7997
  140.2578  143.3428  152.0654 H   0  0  0  0  0  0  0  0  0  0  0  0  # atno 10167 bound_to 10162
  157.5888  130.9040  149.9566 H   0  0  0  0  0  0  0  0  0  0  0  0  # atno 10718 bound_to 10713
  153.7804  135.3169  155.3365 H   0  0  0  0  0  0  0  0  0  0  0  0  # atno 10763 bound_to 10752
  154.8163  135.4633  154.0657 H   0  0  0  0  0  0  0  0  0  0  0  0  # atno 10764 bound_to 10752
  153.1943  135.6913  153.8397 H   0  0  0  0  0  0  0  0  0  0  0  0  # atno 10765 bound_to 10752
  139.9561  134.9612  156.9003 H   0  0  0  0  0  0  0  0  0  0  0  0  # atno 11005 bound_to 11000
  144.6974  140.3495  143.7184 LP  0  0  0  0  0  0  0  0  0  0  0  0  # atno 17320 bound_to 7965
  145.7257  139.1722  143.2459 LP  0  0  0  0  0  0  0  0  0  0  0  0  # atno 17321 bound_to 7965
  139.5026  144.6738  151.6179 LP  0  0  0  0  0  0  0  0  0  0  0  0  # atno 17342 bound_to 10162
  140.5989  143.9645  150.6373 LP  0  0  0  0  0  0  0  0  0  0  0  0  # atno 17343 bound_to 10162
  156.0940  130.3661  150.0341 LP  0  0  0  0  0  0  0  0  0  0  0  0  # atno 17370 bound_to 10713
  156.8467  130.9445  151.3628 LP  0  0  0  0  0  0  0  0  0  0  0  0  # atno 17371 bound_to 10713
  140.5606  134.0539  155.7397 LP  0  0  0  0  0  0  0  0  0  0  0  0  # atno 17394 bound_to 11000
  141.1233  133.9426  157.2687 LP  0  0  0  0  0  0  0  0  0  0  0  0  # atno 17395 bound_to 11000

$$$$
