AV-unprocessed.smi:91|AV-procd|sdf|840|dock4
  -GOLD-   2262017273D 1   1.00000     0.00000
 Structure written by MMmdl.
 60 63  0  0  0  0  0  0  0  0  1 V2000
  147.4608  133.0937  158.5704 C   0  0  0  0  0  0  0  0  0  0  0  0
  148.3765  133.5071  157.5718 O   0  0  0  0  0  0  0  0  0  0  0  0
  147.7306  133.9219  156.3793 C   0  0  0  0  0  0  0  0  0  0  0  0
  148.7884  134.3246  155.3443 C   0  0  1  0  0  0  0  0  0  0  0  0
  149.4318  135.6833  155.6694 C   0  0  0  0  0  0  0  0  0  0  0  0
  150.5028  135.9566  154.7230 N   0  0  0  0  0  0  0  0  0  0  0  0
  151.0165  137.2026  154.7805 C   0  0  0  0  0  0  0  0  0  0  0  0
  152.1389  137.4372  154.0581 N   0  0  0  0  0  0  0  0  0  0  0  0
  152.7073  138.6467  154.0815 C   0  0  0  0  0  0  0  0  0  0  0  0
  152.3254  139.7368  154.7510 N   0  0  0  0  0  0  0  0  0  0  0  0
  151.1983  139.4999  155.4821 C   0  0  0  0  0  0  0  0  0  0  0  0
  150.4845  138.2710  155.5570 C   0  0  0  0  0  0  0  0  0  0  0  0
  149.3980  138.4061  156.4137 N   0  0  0  0  0  0  0  0  0  0  0  0
  149.4615  139.6465  156.8154 C   0  0  0  0  0  0  0  0  0  0  0  0
  150.5082  140.3768  156.2998 N   0  0  0  0  0  0  0  0  0  0  0  0
  150.8248  141.7657  156.5803 C   0  0  0  0  0  0  0  0  0  0  0  0
  151.2386  142.0176  158.0566 C   0  0  1  0  0  0  0  0  0  0  0  0
  152.1957  140.9343  158.6058 C   0  0  0  0  0  0  0  0  0  0  0  0
  153.0904  140.4677  157.6177 O   0  0  0  0  0  0  0  0  0  0  0  0
  151.8331  143.4318  158.2883 C   0  0  1  0  0  0  0  0  0  0  0  0
  150.8369  144.5897  158.2516 C   0  0  0  0  0  0  0  0  0  0  0  0
  151.4106  145.5643  159.2714 C   0  0  0  0  0  0  0  0  0  0  0  0
  151.9093  144.6992  160.2768 O   0  0  0  0  0  0  0  0  0  0  0  0
  152.5712  143.6228  159.6256 C   0  0  0  0  0  0  0  0  0  0  0  0
  151.5203  134.9155  154.7130 C   0  0  0  0  0  0  0  0  0  0  0  0
  150.8912  133.5322  154.4311 C   0  0  0  0  0  0  0  0  0  0  0  0
  150.4333  133.3965  152.9634 C   0  0  0  0  0  0  0  0  0  0  0  0
  151.9095  132.4261  154.7473 C   0  0  0  0  0  0  0  0  0  0  0  0
  149.7987  133.3140  155.3326 O   0  0  0  0  0  0  0  0  0  0  0  0
  148.0067  132.7834  159.4613 H   0  0  0  0  0  0  0  0  0  0  0  0
  146.8621  132.2475  158.2306 H   0  0  0  0  0  0  0  0  0  0  0  0
  146.7909  133.9069  158.8521 H   0  0  0  0  0  0  0  0  0  0  0  0
  147.0948  133.1267  155.9863 H   0  0  0  0  0  0  0  0  0  0  0  0
  147.0879  134.7767  156.5969 H   0  0  0  0  0  0  0  0  0  0  0  0
  148.3062  134.3661  154.3675 H   0  0  0  0  0  0  0  0  0  0  0  0
  148.6847  136.4770  155.6236 H   0  0  0  0  0  0  0  0  0  0  0  0
  149.8268  135.6667  156.6854 H   0  0  0  0  0  0  0  0  0  0  0  0
  153.5963  138.7565  153.4784 H   0  0  0  0  0  0  0  0  0  0  0  0
  148.7396  140.0662  157.5007 H   0  0  0  0  0  0  0  0  0  0  0  0
  151.6165  142.0772  155.8990 H   0  0  0  0  0  0  0  0  0  0  0  0
  149.9473  142.3527  156.3118 H   0  0  0  0  0  0  0  0  0  0  0  0
  150.3350  141.9844  158.6672 H   0  0  0  0  0  0  0  0  0  0  0  0
  152.7597  141.3101  159.4600 H   0  0  0  0  0  0  0  0  0  0  0  0
  151.6313  140.0696  158.9560 H   0  0  0  0  0  0  0  0  0  0  0  0
  152.6283  139.8675  157.0528 H   0  0  0  0  0  0  0  0  0  0  0  0
  152.5736  143.6125  157.5071 H   0  0  0  0  0  0  0  0  0  0  0  0
  150.7376  145.0310  157.2596 H   0  0  0  0  0  0  0  0  0  0  0  0
  149.8447  144.2820  158.5771 H   0  0  0  0  0  0  0  0  0  0  0  0
  152.2289  146.1455  158.8433 H   0  0  0  0  0  0  0  0  0  0  0  0
  150.6633  146.2536  159.6647 H   0  0  0  0  0  0  0  0  0  0  0  0
  152.5802  142.7333  160.2558 H   0  0  0  0  0  0  0  0  0  0  0  0
  153.6105  143.9029  159.4472 H   0  0  0  0  0  0  0  0  0  0  0  0
  152.2831  135.1426  153.9664 H   0  0  0  0  0  0  0  0  0  0  0  0
  152.0195  134.9065  155.6833 H   0  0  0  0  0  0  0  0  0  0  0  0
  151.2851  133.4424  152.2841 H   0  0  0  0  0  0  0  0  0  0  0  0
  149.7495  134.1904  152.6643 H   0  0  0  0  0  0  0  0  0  0  0  0
  149.9290  132.4445  152.7955 H   0  0  0  0  0  0  0  0  0  0  0  0
  152.8016  132.5189  154.1270 H   0  0  0  0  0  0  0  0  0  0  0  0
  151.4853  131.4367  154.5733 H   0  0  0  0  0  0  0  0  0  0  0  0
  152.2262  132.4677  155.7900 H   0  0  0  0  0  0  0  0  0  0  0  0
  1  2  1  0  0  0  0
  1 30  1  0  0  0  0
  1 31  1  0  0  0  0
  1 32  1  0  0  0  0
  2  3  1  0  0  0  0
  3  4  1  0  0  0  0
  3 33  1  0  0  0  0
  3 34  1  0  0  0  0
  4 29  1  0  0  0  0
  4  5  1  0  0  0  0
  4 35  1  0  0  0  0
  5  6  1  0  0  0  0
  5 36  1  0  0  0  0
  5 37  1  0  0  0  0
  6  7  1  0  0  0  0
  6 25  1  0  0  0  0
  7 12  1  0  0  0  0
  7  8  2  0  0  0  0
  8  9  1  0  0  0  0
  9 10  2  0  0  0  0
  9 38  1  0  0  0  0
 10 11  1  0  0  0  0
 11 15  1  0  0  0  0
 11 12  2  0  0  0  0
 12 13  1  0  0  0  0
 13 14  2  0  0  0  0
 14 15  1  0  0  0  0
 14 39  1  0  0  0  0
 15 16  1  0  0  0  0
 16 17  1  0  0  0  0
 16 40  1  0  0  0  0
 16 41  1  0  0  0  0
 17 18  1  0  0  0  0
 17 20  1  0  0  0  0
 17 42  1  0  0  0  0
 18 19  1  0  0  0  0
 18 43  1  0  0  0  0
 18 44  1  0  0  0  0
 19 45  1  0  0  0  0
 20 24  1  0  0  0  0
 20 21  1  0  0  0  0
 20 46  1  0  0  0  0
 21 22  1  0  0  0  0
 21 47  1  0  0  0  0
 21 48  1  0  0  0  0
 22 23  1  0  0  0  0
 22 49  1  0  0  0  0
 22 50  1  0  0  0  0
 23 24  1  0  0  0  0
 24 51  1  0  0  0  0
 24 52  1  0  0  0  0
 25 26  1  0  0  0  0
 25 53  1  0  0  0  0
 25 54  1  0  0  0  0
 26 27  1  0  0  0  0
 26 28  1  0  0  0  0
 26 29  1  0  0  0  0
 27 55  1  0  0  0  0
 27 56  1  0  0  0  0
 27 57  1  0  0  0  0
 28 58  1  0  0  0  0
 28 59  1  0  0  0  0
 28 60  1  0  0  0  0
M  END
> <s_m_source_file>
AV-unprocessed.smi

> <i_m_source_file_index>
91

> <i_lp_mmshare_version>
43012

> <i_f3d_flags>
0

> <s_epik_input>
W0NIM11PW0NIMl1bQ0BASF0oTzEpW0NIMl1OKFtDSDJdQzEoW0NIM10pW0NIM10pYyhuW2NIXW4yKWMoYzIzKW5bY0hdbjNbQ0gyXVtDQEhdKFtDSDJdW09IXSlbQ0BASF00W0NIMl1bQ0gyXU9bQ0gyXTQ=

> <s_epik_cmdline>
J2VwaWtfcHl0aG9uJywgJy1waCcsICc3LjAnLCAnLXRuJywgJzgnLCAnLW1hJywgJzIwMCcsICctbWV0YWxfYmluZGluZycsICctaW1hZScsICc8aW5maWxlLm1hZT4nLCAnLW9tYWUnLCAnPG91dGZpbGUubWFlPic=

> <r_lp_tautomer_probability>
1

> <r_epik_Ionization_Penalty>
8.63591e-05

> <r_epik_Ionization_Penalty_Charging>
0

> <r_epik_Ionization_Penalty_Neutral>
8.63591e-05

> <r_epik_State_Penalty>
-0

> <r_epik_Charging_Adjusted_Penalty>
0

> <i_epik_Tot_Q>
0

> <i_epik_Tot_abs_Q>
0

> <r_epik_Metal_State_Penalty>
-0

> <b_epik_Metal_Only>
0

> <s_lp_Force_Field>
OPLS_2005

> <r_lp_Energy>
49.4407

> <b_lp_Chiralities_Consistent>
1

> <s_lp_Variant>
AV-unprocessed.smi:91-8

> <Gold.Version>
5.8.1

> <Gold.Id.Protein>
6NUR|6NUR_protein|mol2

> <Gold.PLP.Fitness>
50.2829

> <Gold.PLP.PLP>
-44.3150

> <Gold.PLP.part.hbond>
-3.0000

> <Gold.PLP.part.metal>
0.0000

> <Gold.PLP.part.buried>
-5.7825

> <Gold.PLP.part.nonpolar>
-36.0218

> <Gold.PLP.part.repulsive>
0.4494

> <Gold.PLP.ligand.clash>
0.0000

> <Gold.PLP.ligand.torsion>
1.2356

> <Gold.PLP.Chemscore.Hbond>
2.6878

> <Gold.PLP.Chemscore.CHOScore>
0.0000

> <Gold.PLP.Chemscore.Metal>
0.0000

> <Gold.Chemscore.Hbonds>
donor molecule, donor type, donor heavy atom, donor atom, acceptor molecule, acceptor atom, score
      P1  H  7989  7998       L1    10  0.70
      P1  H  7997  8009       L1    19  0.40
      P1  H 10752 10763       L1     8  0.68

> <Gold.PLP.Chemscore.Internal.Correction>
0.3758

> <Gold.Rescore>
     Score         DG    S(hbond)    S(metal)    S(lipo)     H(rot)  DE(clash)    DE(int)     intcor
      8.38     -11.29       0.84        0.00      91.93       3.03       0.32       2.59       ----

> <Gold.Chemscore.Fitness>
8.3775

> <Gold.Chemscore.DG>
-11.2899

> <Gold.Chemscore.ZeroCoef>
-5.4800

> <Gold.Chemscore.Hbond>
0.8405

> <Gold.Chemscore.Metal>
0.0000

> <Gold.Chemscore.Lipo>
91.9272

> <Gold.Chemscore.Internal_Hbond>
0.0000

> <Gold.Chemscore.DEClash>
0.3231

> <Gold.Chemscore.DEInternal>
2.5892

> <Gold.Chemscore.Rot>
3.0284

> <Gold.Chemscore.Internal.Correction>
   9.000000E+99

> <Gold.Chemscore.Hbonds>
donor molecule, donor type, donor heavy atom, donor atom, acceptor molecule, acceptor atom, score
      P1  H  7989  7998       L1    10  0.10
      P1  H  7997  8009       L1    19  0.02
      P1  H 10752 10763       L1     8  0.11

> <Gold.Chemscore.Hbond.Weighted>
-2.8072

> <Gold.Chemscore.Metal.Weighted>
-0.0000

> <Gold.Chemscore.Lipo.Weighted>
-10.7555

> <Gold.Chemscore.Internal_Hbond.Weighted>
0.0000

> <Gold.Chemscore.DEClash.Weighted>
0.3231

> <Gold.Chemscore.DEInternal.Weighted>
2.5892

> <Gold.Chemscore.Rot.Weighted>
7.7528

> <Gold.Chemscore.Internal.Correction.Weighted>
   9.000000E+99

> <Gold.Protein.RotatedTorsions>
[ 6907 6896 6895 6894 ] final   70.02 input  -60.11 | X-H torsion
[ 7974 7965 7964 7962 ] final  -77.52 input  175.53 | X-H torsion
[ 8008 7997 7996 7995 ] final  163.83 input   59.86 | X-H torsion
[ 10167 10162 10161 10158 ] final  107.63 input  -65.29 | X-H torsion
[ 10718 10713 10712 10709 ] final -146.93 input   66.30 | X-H torsion
[ 10763 10752 10751 10750 ] final   45.24 input  -60.55 | X-H torsion
[ 11005 11000 10999 10996 ] final -111.59 input  -57.11 | X-H torsion

> <Gold.Protein.ActiveResidues>
 VAL166  LYS551  ARG553  GLY616  TRP617  ASP618  TYR619  PRO620  LYS621  CYS622 
 ASP623  PHE694  ASN695  SER759  ASP760  ASP761  ALA762  ILE779  LEU786  VAL792 
 PHE793  MET794  SER795  GLU796  ALA797  LYS798  CYS799  TRP800  GLU811  SER814 

> <Gold.Protein.RotatedAtoms>
  152.4723  134.4930  159.9700 H   0  0  0  0  0  0  0  0  0  0  0  0  # atno 6907 bound_to 6896
  151.4954  133.3510  159.2868 H   0  0  0  0  0  0  0  0  0  0  0  0  # atno 6908 bound_to 6896
  150.8740  134.8147  159.7237 H   0  0  0  0  0  0  0  0  0  0  0  0  # atno 6909 bound_to 6896
  145.5986  140.9414  143.1253 H   0  0  0  0  0  0  0  0  0  0  0  0  # atno 7974 bound_to 7965
  156.1927  140.1713  156.8060 H   0  0  0  0  0  0  0  0  0  0  0  0  # atno 8008 bound_to 7997
  154.5491  140.0721  156.8670 H   0  0  0  0  0  0  0  0  0  0  0  0  # atno 8009 bound_to 7997
  155.3064  140.3365  155.4248 H   0  0  0  0  0  0  0  0  0  0  0  0  # atno 8010 bound_to 7997
  139.6912  144.7107  151.1346 H   0  0  0  0  0  0  0  0  0  0  0  0  # atno 10167 bound_to 10162
  156.4011  130.7934  151.2145 H   0  0  0  0  0  0  0  0  0  0  0  0  # atno 10718 bound_to 10713
  152.9828  135.6046  154.3404 H   0  0  0  0  0  0  0  0  0  0  0  0  # atno 10763 bound_to 10752
  154.3101  135.2771  155.2572 H   0  0  0  0  0  0  0  0  0  0  0  0  # atno 10764 bound_to 10752
  154.4785  135.5923  153.6428 H   0  0  0  0  0  0  0  0  0  0  0  0  # atno 10765 bound_to 10752
  141.0725  133.9356  157.2456 H   0  0  0  0  0  0  0  0  0  0  0  0  # atno 11005 bound_to 11000
  144.7320  139.7698  143.7343 LP  0  0  0  0  0  0  0  0  0  0  0  0  # atno 17320 bound_to 7965
  146.1593  139.4702  142.9998 LP  0  0  0  0  0  0  0  0  0  0  0  0  # atno 17321 bound_to 7965
  140.7683  143.5557  150.9155 LP  0  0  0  0  0  0  0  0  0  0  0  0  # atno 17342 bound_to 10162
  139.9234  143.6578  152.3092 LP  0  0  0  0  0  0  0  0  0  0  0  0  # atno 17343 bound_to 10162
  157.7504  131.0286  150.4057 LP  0  0  0  0  0  0  0  0  0  0  0  0  # atno 17370 bound_to 10713
  156.4337  130.3977  149.6743 LP  0  0  0  0  0  0  0  0  0  0  0  0  # atno 17371 bound_to 10713
  139.9538  135.0170  156.9070 LP  0  0  0  0  0  0  0  0  0  0  0  0  # atno 17394 bound_to 11000
  140.5643  134.0505  155.7409 LP  0  0  0  0  0  0  0  0  0  0  0  0  # atno 17395 bound_to 11000

$$$$
