AV-unprocessed.smi:3349|AV-procd|sdf|12932|dock2
  -GOLD-   2272019363D 1   1.00000     0.00000
 Structure written by MMmdl.
 40 41  0  0  0  0  0  0  0  0  1 V2000
  150.5750  142.2571  156.3391 C   0  0  0  0  0  0  0  0  0  0  0  0
  151.3828  140.9345  156.3050 C   0  0  1  0  0  0  0  0  0  0  0  0
  151.4027  140.3250  157.7370 C   0  0  0  0  0  0  0  0  0  0  0  0
  151.9274  141.2407  158.7465 N   0  0  0  0  0  0  0  0  0  0  0  0
  153.1745  141.2061  159.2434 C   0  0  0  0  0  0  0  0  0  0  0  0
  154.0137  140.3773  158.8882 O   0  0  0  0  0  0  0  0  0  0  0  0
  153.5197  142.2752  160.2932 C   0  0  2  0  0  0  0  0  0  0  0  0
  153.4814  141.7329  161.7367 C   0  0  0  0  0  0  0  0  0  0  0  0
  152.6664  143.4455  160.1271 N   0  0  0  0  0  0  0  0  0  0  0  0
  152.4318  144.1902  159.0445 C   0  0  0  0  0  0  0  0  0  0  0  0
  151.5570  145.1666  159.2411 N   0  0  0  0  0  0  0  0  0  0  0  0
  151.2622  144.9467  160.5568 C   0  0  0  0  0  0  0  0  0  0  0  0
  151.8924  143.9237  161.1334 N   0  0  0  0  0  0  0  0  0  0  0  0
  150.8958  139.9927  155.2701 N   0  0  0  0  0  0  0  0  0  0  0  0
  151.6000  138.7055  155.3103 C   0  0  0  0  0  0  0  0  0  0  0  0
  151.0812  137.7048  154.2635 C   0  0  0  0  0  0  0  0  0  0  0  0
  149.6873  137.5013  154.4470 O   0  0  0  0  0  0  0  0  0  0  0  0
  148.9541  138.7128  154.3348 C   0  0  0  0  0  0  0  0  0  0  0  0
  149.4569  139.7235  155.3805 C   0  0  0  0  0  0  0  0  0  0  0  0
  150.8997  142.9235  157.1374 H   0  0  0  0  0  0  0  0  0  0  0  0
  149.5115  142.0654  156.4852 H   0  0  0  0  0  0  0  0  0  0  0  0
  150.6910  142.8355  155.4237 H   0  0  0  0  0  0  0  0  0  0  0  0
  152.4113  141.1979  156.0542 H   0  0  0  0  0  0  0  0  0  0  0  0
  150.3934  140.0363  158.0317 H   0  0  0  0  0  0  0  0  0  0  0  0
  152.0079  139.4213  157.7915 H   0  0  0  0  0  0  0  0  0  0  0  0
  151.2972  141.9515  159.0883 H   0  0  0  0  0  0  0  0  0  0  0  0
  154.5444  142.5957  160.0973 H   0  0  0  0  0  0  0  0  0  0  0  0
  154.1667  140.8937  161.8601 H   0  0  0  0  0  0  0  0  0  0  0  0
  152.4852  141.3901  162.0194 H   0  0  0  0  0  0  0  0  0  0  0  0
  153.7785  142.5035  162.4485 H   0  0  0  0  0  0  0  0  0  0  0  0
  152.9085  144.0126  158.0916 H   0  0  0  0  0  0  0  0  0  0  0  0
  150.5585  145.5557  161.1049 H   0  0  0  0  0  0  0  0  0  0  0  0
  152.6624  138.8433  155.1183 H   0  0  0  0  0  0  0  0  0  0  0  0
  151.5109  138.2663  156.3050 H   0  0  0  0  0  0  0  0  0  0  0  0
  151.2756  138.0663  153.2525 H   0  0  0  0  0  0  0  0  0  0  0  0
  151.5962  136.7496  154.3661 H   0  0  0  0  0  0  0  0  0  0  0  0
  149.0561  139.1173  153.3264 H   0  0  0  0  0  0  0  0  0  0  0  0
  147.8956  138.5032  154.4895 H   0  0  0  0  0  0  0  0  0  0  0  0
  149.2248  139.3554  156.3811 H   0  0  0  0  0  0  0  0  0  0  0  0
  148.8813  140.6349  155.2357 H   0  0  0  0  0  0  0  0  0  0  0  0
  1  2  1  0  0  0  0
  1 20  1  0  0  0  0
  1 21  1  0  0  0  0
  1 22  1  0  0  0  0
  2  3  1  0  0  0  0
  2 14  1  0  0  0  0
  2 23  1  0  0  0  0
  3  4  1  0  0  0  0
  3 24  1  0  0  0  0
  3 25  1  0  0  0  0
  4  5  1  0  0  0  0
  4 26  1  0  0  0  0
  5  6  2  0  0  0  0
  5  7  1  0  0  0  0
  7  8  1  0  0  0  0
  7  9  1  0  0  0  0
  7 27  1  0  0  0  0
  8 28  1  0  0  0  0
  8 29  1  0  0  0  0
  8 30  1  0  0  0  0
  9 13  1  0  0  0  0
  9 10  1  0  0  0  0
 10 11  2  0  0  0  0
 10 31  1  0  0  0  0
 11 12  1  0  0  0  0
 12 13  2  0  0  0  0
 12 32  1  0  0  0  0
 14 19  1  0  0  0  0
 14 15  1  0  0  0  0
 15 16  1  0  0  0  0
 15 33  1  0  0  0  0
 15 34  1  0  0  0  0
 16 17  1  0  0  0  0
 16 35  1  0  0  0  0
 16 36  1  0  0  0  0
 17 18  1  0  0  0  0
 18 19  1  0  0  0  0
 18 37  1  0  0  0  0
 18 38  1  0  0  0  0
 19 39  1  0  0  0  0
 19 40  1  0  0  0  0
M  END
> <s_m_source_file>
AV-unprocessed.smi

> <i_m_source_file_index>
3349

> <i_lp_mmshare_version>
43012

> <i_f3d_flags>
0

> <s_epik_input>
W0NIMl0xW0NIMl1PW0NIMl1bQ0gyXU4xW0NASF0oW0NIM10pW0NIMl1bTkhdQyg9TylbQ0BIXShbQ0gzXSluMltjSF1uW2NIXW4y

> <s_epik_cmdline>
J2VwaWtfcHl0aG9uJywgJy1waCcsICc3LjAnLCAnLXRuJywgJzgnLCAnLW1hJywgJzIwMCcsICctbWV0YWxfYmluZGluZycsICctaW1hZScsICc8aW5maWxlLm1hZT4nLCAnLW9tYWUnLCAnPG91dGZpbGUubWFlPic=

> <r_lp_tautomer_probability>
1

> <r_epik_Ionization_Penalty>
0.211373

> <r_epik_Ionization_Penalty_Charging>
0

> <r_epik_Ionization_Penalty_Neutral>
0.211373

> <r_epik_State_Penalty>
0.201459

> <r_epik_Charging_Adjusted_Penalty>
0.201459

> <i_epik_Tot_Q>
0

> <i_epik_Tot_abs_Q>
0

> <r_epik_Metal_State_Penalty>
0.201458

> <b_epik_Metal_Only>
0

> <s_lp_Force_Field>
OPLS_2005

> <r_lp_Energy>
34.2526

> <b_lp_Chiralities_Consistent>
1

> <s_lp_Variant>
AV-unprocessed.smi:3349-2

> <Gold.Version>
5.8.1

> <Gold.Id.Protein>
6NUR|6NUR_protein|mol2

> <Gold.PLP.Fitness>
43.6276

> <Gold.PLP.PLP>
-39.5005

> <Gold.PLP.part.hbond>
-2.0000

> <Gold.PLP.part.metal>
0.0000

> <Gold.PLP.part.buried>
-7.0435

> <Gold.PLP.part.nonpolar>
-31.8667

> <Gold.PLP.part.repulsive>
1.4582

> <Gold.PLP.ligand.clash>
0.0000

> <Gold.PLP.ligand.torsion>
0.8530

> <Gold.PLP.Chemscore.Hbond>
1.8960

> <Gold.PLP.Chemscore.CHOScore>
0.0000

> <Gold.PLP.Chemscore.Metal>
0.0000

> <Gold.Chemscore.Hbonds>
donor molecule, donor type, donor heavy atom, donor atom, acceptor molecule, acceptor atom, score
      P1  H  7989  7998       L1    14  0.81
      P1  H  7997  8009       L1     6  0.83

> <Gold.PLP.Chemscore.Internal.Correction>
0.1450

> <Gold.Rescore>
     Score         DG    S(hbond)    S(metal)    S(lipo)     H(rot)  DE(clash)    DE(int)     intcor
      8.68      -9.69       1.01        0.00      63.00       2.56       0.02       0.98       ----

> <Gold.Chemscore.Fitness>
8.6808

> <Gold.Chemscore.DG>
-9.6888

> <Gold.Chemscore.ZeroCoef>
-5.4800

> <Gold.Chemscore.Hbond>
1.0133

> <Gold.Chemscore.Metal>
0.0000

> <Gold.Chemscore.Lipo>
62.9950

> <Gold.Chemscore.Internal_Hbond>
0.0000

> <Gold.Chemscore.DEClash>
0.0238

> <Gold.Chemscore.DEInternal>
0.9843

> <Gold.Chemscore.Rot>
2.5570

> <Gold.Chemscore.Internal.Correction>
   9.000000E+99

> <Gold.Chemscore.Hbonds>
donor molecule, donor type, donor heavy atom, donor atom, acceptor molecule, acceptor atom, score
      P1  H  7989  7998       L1    14  0.10
      P1  H  7997  8009       L1     6  0.81

> <Gold.Chemscore.Hbond.Weighted>
-3.3843

> <Gold.Chemscore.Metal.Weighted>
-0.0000

> <Gold.Chemscore.Lipo.Weighted>
-7.3704

> <Gold.Chemscore.Internal_Hbond.Weighted>
0.0000

> <Gold.Chemscore.DEClash.Weighted>
0.0238

> <Gold.Chemscore.DEInternal.Weighted>
0.9843

> <Gold.Chemscore.Rot.Weighted>
6.5459

> <Gold.Chemscore.Internal.Correction.Weighted>
   9.000000E+99

> <Gold.Protein.RotatedTorsions>
[ 6907 6896 6895 6894 ] final  -55.40 input  -60.11 | X-H torsion
[ 7974 7965 7964 7962 ] final  -96.44 input  175.53 | X-H torsion
[ 8008 7997 7996 7995 ] final  133.56 input   59.86 | X-H torsion
[ 10167 10162 10161 10158 ] final  -12.34 input  -65.29 | X-H torsion
[ 10718 10713 10712 10709 ] final   65.23 input   66.30 | X-H torsion
[ 10763 10752 10751 10750 ] final   68.20 input  -60.55 | X-H torsion
[ 11005 11000 10999 10996 ] final  148.48 input  -57.11 | X-H torsion

> <Gold.Protein.ActiveResidues>
 VAL166  LYS551  ARG553  GLY616  TRP617  ASP618  TYR619  PRO620  LYS621  CYS622 
 ASP623  PHE694  ASN695  SER759  ASP760  ASP761  ALA762  ILE779  LEU786  VAL792 
 PHE793  MET794  SER795  GLU796  ALA797  LYS798  CYS799  TRP800  GLU811  SER814 

> <Gold.Protein.RotatedAtoms>
  150.8255  134.7483  159.6808 H   0  0  0  0  0  0  0  0  0  0  0  0  # atno 6907 bound_to 6896
  152.4366  134.5671  159.9920 H   0  0  0  0  0  0  0  0  0  0  0  0  # atno 6908 bound_to 6896
  151.5844  133.3336  159.3051 H   0  0  0  0  0  0  0  0  0  0  0  0  # atno 6909 bound_to 6896
  145.3468  140.9469  143.2577 H   0  0  0  0  0  0  0  0  0  0  0  0  # atno 7974 bound_to 7965
  156.2993  140.2518  156.3274 H   0  0  0  0  0  0  0  0  0  0  0  0  # atno 8008 bound_to 7997
  154.9178  140.0401  157.2000 H   0  0  0  0  0  0  0  0  0  0  0  0  # atno 8009 bound_to 7997
  154.8341  140.2880  155.5706 H   0  0  0  0  0  0  0  0  0  0  0  0  # atno 8010 bound_to 7997
  140.7159  143.5543  150.9266 H   0  0  0  0  0  0  0  0  0  0  0  0  # atno 10167 bound_to 10162
  157.6091  130.9202  149.9949 H   0  0  0  0  0  0  0  0  0  0  0  0  # atno 10718 bound_to 10713
  153.0223  135.5256  154.7098 H   0  0  0  0  0  0  0  0  0  0  0  0  # atno 10763 bound_to 10752
  154.6183  135.2886  155.0357 H   0  0  0  0  0  0  0  0  0  0  0  0  # atno 10764 bound_to 10752
  154.1353  135.6586  153.4983 H   0  0  0  0  0  0  0  0  0  0  0  0  # atno 10765 bound_to 10752
  140.0963  134.9010  157.1728 H   0  0  0  0  0  0  0  0  0  0  0  0  # atno 11005 bound_to 11000
  144.8748  139.4987  143.6751 LP  0  0  0  0  0  0  0  0  0  0  0  0  # atno 17320 bound_to 7965
  146.2984  139.7351  142.9109 LP  0  0  0  0  0  0  0  0  0  0  0  0  # atno 17321 bound_to 7965
  139.9268  143.6541  152.3085 LP  0  0  0  0  0  0  0  0  0  0  0  0  # atno 17342 bound_to 10162
  139.6977  144.7639  151.1327 LP  0  0  0  0  0  0  0  0  0  0  0  0  # atno 17343 bound_to 10162
  156.1188  130.3646  149.9922 LP  0  0  0  0  0  0  0  0  0  0  0  0  # atno 17370 bound_to 10713
  156.8007  130.9289  151.3646 LP  0  0  0  0  0  0  0  0  0  0  0  0  # atno 17371 bound_to 10713
  140.3282  134.2840  155.7233 LP  0  0  0  0  0  0  0  0  0  0  0  0  # atno 17394 bound_to 11000
  141.2093  133.7753  157.0006 LP  0  0  0  0  0  0  0  0  0  0  0  0  # atno 17395 bound_to 11000

$$$$
