AV-unprocessed.smi:1027|AV-procd|sdf|4470|dock1
  -GOLD-   22720 2443D 1   1.00000     0.00000
 Structure written by MMmdl.
 35 36  0  0  0  0  0  0  0  0  1 V2000
  149.3046  140.0828  153.7288 C   0  0  0  0  0  0  0  0  0  0  0  0
  147.8109  140.1298  154.1065 C   0  0  0  0  0  0  0  0  0  0  0  0
  146.9788  139.4915  152.9795 C   0  0  0  0  0  0  0  0  0  0  0  0
  147.3344  141.5663  154.4505 C   0  0  1  0  0  0  0  0  0  0  0  0
  145.9802  141.5991  155.1845 C   0  0  0  0  0  0  0  0  0  0  0  0
  148.3335  142.2472  155.2741 N   0  0  0  0  0  0  0  0  0  0  0  0
  149.0412  141.6853  156.2653 C   0  0  0  0  0  0  0  0  0  0  0  0
  148.9402  140.5011  156.5863 O   0  0  0  0  0  0  0  0  0  0  0  0
  149.8595  142.5808  156.8456 N   0  0  0  0  0  0  0  0  0  0  0  0
  150.7597  142.3793  157.9250 C   0  0  0  0  0  0  0  0  0  0  0  0
  150.8926  141.2160  158.5769 N   0  0  0  0  0  0  0  0  0  0  0  0
  151.8417  141.2934  159.5861 N   0  0  0  0  0  0  0  0  0  0  0  0
  152.3962  142.5085  159.6701 C   0  0  0  0  0  0  0  0  0  0  0  0
  153.4440  142.8365  160.6808 C   0  0  0  0  0  0  0  0  0  0  0  0
  153.9506  141.7817  161.6374 C   0  0  0  0  0  0  0  0  0  0  0  0
  153.1215  142.9283  162.1564 C   0  0  0  0  0  0  0  0  0  0  0  0
  151.7921  143.6769  158.4995 S   0  0  0  0  0  0  0  0  0  0  0  0
  149.5157  140.7242  152.8728 H   0  0  0  0  0  0  0  0  0  0  0  0
  149.6115  139.0700  153.4663 H   0  0  0  0  0  0  0  0  0  0  0  0
  149.9444  140.4034  154.5511 H   0  0  0  0  0  0  0  0  0  0  0  0
  147.6836  139.5097  154.9951 H   0  0  0  0  0  0  0  0  0  0  0  0
  147.0074  140.0979  152.0737 H   0  0  0  0  0  0  0  0  0  0  0  0
  145.9355  139.3644  153.2659 H   0  0  0  0  0  0  0  0  0  0  0  0
  147.3575  138.5010  152.7255 H   0  0  0  0  0  0  0  0  0  0  0  0
  147.2250  142.1127  153.5117 H   0  0  0  0  0  0  0  0  0  0  0  0
  145.1733  141.2137  154.5621 H   0  0  0  0  0  0  0  0  0  0  0  0
  145.7048  142.6182  155.4584 H   0  0  0  0  0  0  0  0  0  0  0  0
  146.0104  141.0076  156.1000 H   0  0  0  0  0  0  0  0  0  0  0  0
  148.4861  143.2259  155.0796 H   0  0  0  0  0  0  0  0  0  0  0  0
  149.8360  143.5179  156.4715 H   0  0  0  0  0  0  0  0  0  0  0  0
  154.1638  143.5432  160.2722 H   0  0  0  0  0  0  0  0  0  0  0  0
  153.4820  140.7999  161.6024 H   0  0  0  0  0  0  0  0  0  0  0  0
  155.0137  141.7834  161.8686 H   0  0  0  0  0  0  0  0  0  0  0  0
  153.6321  143.6956  162.7348 H   0  0  0  0  0  0  0  0  0  0  0  0
  152.1074  142.7005  162.4782 H   0  0  0  0  0  0  0  0  0  0  0  0
  1  2  1  0  0  0  0
  1 18  1  0  0  0  0
  1 19  1  0  0  0  0
  1 20  1  0  0  0  0
  2  3  1  0  0  0  0
  2  4  1  0  0  0  0
  2 21  1  0  0  0  0
  3 22  1  0  0  0  0
  3 23  1  0  0  0  0
  3 24  1  0  0  0  0
  4  5  1  0  0  0  0
  4  6  1  0  0  0  0
  4 25  1  0  0  0  0
  5 26  1  0  0  0  0
  5 27  1  0  0  0  0
  5 28  1  0  0  0  0
  6  7  1  0  0  0  0
  6 29  1  0  0  0  0
  7  8  2  0  0  0  0
  7  9  1  0  0  0  0
  9 10  1  0  0  0  0
  9 30  1  0  0  0  0
 10 17  1  0  0  0  0
 10 11  2  0  0  0  0
 11 12  1  0  0  0  0
 12 13  2  0  0  0  0
 13 14  1  0  0  0  0
 13 17  1  0  0  0  0
 14 16  1  0  0  0  0
 14 15  1  0  0  0  0
 14 31  1  0  0  0  0
 15 16  1  0  0  0  0
 15 32  1  0  0  0  0
 15 33  1  0  0  0  0
 16 34  1  0  0  0  0
 16 35  1  0  0  0  0
M  END
> <s_m_source_file>
AV-unprocessed.smi

> <i_m_source_file_index>
1027

> <i_lp_mmshare_version>
43012

> <i_f3d_flags>
0

> <s_epik_input>
W0NIM11bQ0hdKFtDSDNdKVtDQEhdKFtDSDNdKVtOSF1DKD1PKVtOSF1jMW5uYyhzMSlbQ0hdMltDSDJdW0NIMl0y

> <s_epik_cmdline>
J2VwaWtfcHl0aG9uJywgJy1waCcsICc3LjAnLCAnLXRuJywgJzgnLCAnLW1hJywgJzIwMCcsICctbWV0YWxfYmluZGluZycsICctaW1hZScsICc8aW5maWxlLm1hZT4nLCAnLW9tYWUnLCAnPG91dGZpbGUubWFlPic=

> <r_lp_tautomer_probability>
1

> <r_epik_Ionization_Penalty>
0.000943246

> <r_epik_Ionization_Penalty_Charging>
0

> <r_epik_Ionization_Penalty_Neutral>
0.000943246

> <r_epik_State_Penalty>
-0

> <r_epik_Charging_Adjusted_Penalty>
0

> <i_epik_Tot_Q>
0

> <i_epik_Tot_abs_Q>
0

> <r_epik_Metal_State_Penalty>
0.281646

> <b_epik_Metal_Only>
0

> <s_lp_Force_Field>
OPLS_2005

> <r_lp_Energy>
3.72906

> <b_lp_Chiralities_Consistent>
1

> <s_lp_Variant>
AV-unprocessed.smi:1027-2

> <Gold.Version>
5.8.1

> <Gold.Id.Protein>
6NUR|6NUR_protein|mol2

> <Gold.PLP.Fitness>
37.8326

> <Gold.PLP.PLP>
-33.0826

> <Gold.PLP.part.hbond>
-2.6600

> <Gold.PLP.part.metal>
0.0000

> <Gold.PLP.part.buried>
-1.7285

> <Gold.PLP.part.nonpolar>
-29.1545

> <Gold.PLP.part.repulsive>
0.1771

> <Gold.PLP.ligand.clash>
0.0000

> <Gold.PLP.ligand.torsion>
0.6234

> <Gold.PLP.Chemscore.Hbond>
1.9360

> <Gold.PLP.Chemscore.CHOScore>
0.0000

> <Gold.PLP.Chemscore.Metal>
0.0000

> <Gold.Chemscore.Hbonds>
donor molecule, donor type, donor heavy atom, donor atom, acceptor molecule, acceptor atom, score
      L1  H     6    29       P1  8028  0.98
      L1  H     9    30       P1  8028  0.94

> <Gold.PLP.Chemscore.Internal.Correction>
0.1888

> <Gold.Rescore>
     Score         DG    S(hbond)    S(metal)    S(lipo)     H(rot)  DE(clash)    DE(int)     intcor
     13.63     -18.67       1.94        0.00      87.62       1.39       2.01       3.02       ----

> <Gold.Chemscore.Fitness>
13.6329

> <Gold.Chemscore.DG>
-18.6698

> <Gold.Chemscore.ZeroCoef>
-5.4800

> <Gold.Chemscore.Hbond>
1.9442

> <Gold.Chemscore.Metal>
0.0000

> <Gold.Chemscore.Lipo>
87.6250

> <Gold.Chemscore.Internal_Hbond>
0.0000

> <Gold.Chemscore.DEClash>
2.0132

> <Gold.Chemscore.DEInternal>
3.0236

> <Gold.Chemscore.Rot>
1.3890

> <Gold.Chemscore.Internal.Correction>
   9.000000E+99

> <Gold.Chemscore.Hbonds>
donor molecule, donor type, donor heavy atom, donor atom, acceptor molecule, acceptor atom, score
      L1  H     6    29       P1  8028  0.93
      L1  H     9    30       P1  8028  0.91

> <Gold.Chemscore.Hbond.Weighted>
-6.4935

> <Gold.Chemscore.Metal.Weighted>
-0.0000

> <Gold.Chemscore.Lipo.Weighted>
-10.2521

> <Gold.Chemscore.Internal_Hbond.Weighted>
0.0000

> <Gold.Chemscore.DEClash.Weighted>
2.0132

> <Gold.Chemscore.DEInternal.Weighted>
3.0236

> <Gold.Chemscore.Rot.Weighted>
3.5559

> <Gold.Chemscore.Internal.Correction.Weighted>
   9.000000E+99

> <Gold.Protein.RotatedTorsions>
[ 6907 6896 6895 6894 ] final   65.39 input  -60.11 | X-H torsion
[ 7974 7965 7964 7962 ] final  158.41 input  175.53 | X-H torsion
[ 8008 7997 7996 7995 ] final -163.38 input   59.86 | X-H torsion
[ 10167 10162 10161 10158 ] final -131.56 input  -65.29 | X-H torsion
[ 10718 10713 10712 10709 ] final  164.98 input   66.30 | X-H torsion
[ 10763 10752 10751 10750 ] final  123.91 input  -60.55 | X-H torsion
[ 11005 11000 10999 10996 ] final  158.16 input  -57.11 | X-H torsion

> <Gold.Protein.ActiveResidues>
 VAL166  LYS551  ARG553  GLY616  TRP617  ASP618  TYR619  PRO620  LYS621  CYS622 
 ASP623  PHE694  ASN695  SER759  ASP760  ASP761  ALA762  ILE779  LEU786  VAL792 
 PHE793  MET794  SER795  GLU796  ALA797  LYS798  CYS799  TRP800  GLU811  SER814 

> <Gold.Protein.RotatedAtoms>
  152.4404  134.5602  159.9891 H   0  0  0  0  0  0  0  0  0  0  0  0  # atno 6907 bound_to 6896
  151.5701  133.3385  159.2996 H   0  0  0  0  0  0  0  0  0  0  0  0  # atno 6908 bound_to 6896
  150.8309  134.7596  159.6917 H   0  0  0  0  0  0  0  0  0  0  0  0  # atno 6909 bound_to 6896
  144.7848  139.7474  143.6245 H   0  0  0  0  0  0  0  0  0  0  0  0  # atno 7974 bound_to 7965
  155.8205  140.0919  157.1852 H   0  0  0  0  0  0  0  0  0  0  0  0  # atno 8008 bound_to 7997
  154.3979  140.1437  156.3554 H   0  0  0  0  0  0  0  0  0  0  0  0  # atno 8009 bound_to 7997
  155.8271  140.3444  155.5552 H   0  0  0  0  0  0  0  0  0  0  0  0  # atno 8010 bound_to 7997
  139.9176  143.6420  152.2561 H   0  0  0  0  0  0  0  0  0  0  0  0  # atno 10167 bound_to 10162
  157.0867  131.0406  151.2554 H   0  0  0  0  0  0  0  0  0  0  0  0  # atno 10718 bound_to 10713
  153.6530  135.3359  155.3105 H   0  0  0  0  0  0  0  0  0  0  0  0  # atno 10763 bound_to 10752
  154.8533  135.4345  154.1884 H   0  0  0  0  0  0  0  0  0  0  0  0  # atno 10764 bound_to 10752
  153.2831  135.7010  153.7440 H   0  0  0  0  0  0  0  0  0  0  0  0  # atno 10765 bound_to 10752
  140.1839  134.8456  157.2834 H   0  0  0  0  0  0  0  0  0  0  0  0  # atno 11005 bound_to 11000
  146.2074  139.5407  142.9704 LP  0  0  0  0  0  0  0  0  0  0  0  0  # atno 17320 bound_to 7965
  145.5953  141.0363  143.2048 LP  0  0  0  0  0  0  0  0  0  0  0  0  # atno 17321 bound_to 7965
  139.6889  144.7649  151.1474 LP  0  0  0  0  0  0  0  0  0  0  0  0  # atno 17342 bound_to 10162
  140.7670  143.5617  150.9091 LP  0  0  0  0  0  0  0  0  0  0  0  0  # atno 17343 bound_to 10162
  157.4755  130.7734  149.7364 LP  0  0  0  0  0  0  0  0  0  0  0  0  # atno 17370 bound_to 10713
  155.9909  130.3941  150.3008 LP  0  0  0  0  0  0  0  0  0  0  0  0  # atno 17371 bound_to 10713
  140.2236  134.3993  155.7554 LP  0  0  0  0  0  0  0  0  0  0  0  0  # atno 17394 bound_to 11000
  141.2224  133.7179  156.8530 LP  0  0  0  0  0  0  0  0  0  0  0  0  # atno 17395 bound_to 11000

$$$$
