AV-unprocessed.smi:2329|AV-procd|sdf|9304|dock2
  -GOLD-   2272012523D 1   1.00000     0.00000
 Structure written by MMmdl.
 45 48  0  0  0  0  0  0  0  0  1 V2000
  153.7982  141.0571  159.7171 C   0  0  0  0  0  0  0  0  0  0  0  0
  152.9482  142.2423  159.3104 C   0  0  0  0  0  0  0  0  0  0  0  0
  153.1110  143.4974  159.9287 C   0  0  0  0  0  0  0  0  0  0  0  0
  152.2916  144.5575  159.5014 C   0  0  0  0  0  0  0  0  0  0  0  0
  151.3509  144.3208  158.4806 C   0  0  0  0  0  0  0  0  0  0  0  0
  151.2517  143.0310  157.9122 C   0  0  0  0  0  0  0  0  0  0  0  0
  150.2752  142.8976  156.8905 N   0  0  0  0  0  0  0  0  0  0  0  0
  150.0577  141.8483  156.0728 C   0  0  0  0  0  0  0  0  0  0  0  0
  150.6811  140.7890  156.1080 O   0  0  0  0  0  0  0  0  0  0  0  0
  149.0516  142.0344  155.2006 N   0  0  0  0  0  0  0  0  0  0  0  0
  148.5597  141.0987  154.1814 C   0  0  2  0  0  0  0  0  0  0  0  0
  147.1764  141.4790  153.5993 C   0  0  2  0  0  0  0  0  0  0  0  0
  146.5234  142.8215  153.8256 C   0  0  0  0  0  0  0  0  0  0  0  0
  145.5872  142.5520  155.0072 C   0  0  0  0  0  0  0  0  0  0  0  0
  146.1029  141.3736  155.6228 O   0  0  0  0  0  0  0  0  0  0  0  0
  146.5580  140.5042  154.5890 C   0  0  2  0  0  0  0  0  0  0  0  0
  147.9293  139.8339  154.8111 C   0  0  0  0  0  0  0  0  0  0  0  0
  148.2923  139.4135  156.2361 C   0  0  0  0  0  0  0  0  0  0  0  0
  147.7953  137.9780  156.4164 C   0  0  0  0  0  0  0  0  0  0  0  0
  147.7469  137.3814  155.0068 C   0  0  0  0  0  0  0  0  0  0  0  0
  148.1379  138.5199  154.0587 C   0  0  0  0  0  0  0  0  0  0  0  0
  152.0464  142.0151  158.3312 N   0  0  0  0  0  0  0  0  0  0  0  0
  154.3669  141.2710  160.6226 H   0  0  0  0  0  0  0  0  0  0  0  0
  154.5013  140.8077  158.9220 H   0  0  0  0  0  0  0  0  0  0  0  0
  153.1716  140.1853  159.9081 H   0  0  0  0  0  0  0  0  0  0  0  0
  153.8435  143.6465  160.7085 H   0  0  0  0  0  0  0  0  0  0  0  0
  152.3830  145.5366  159.9479 H   0  0  0  0  0  0  0  0  0  0  0  0
  150.7141  145.1244  158.1403 H   0  0  0  0  0  0  0  0  0  0  0  0
  149.6707  143.6951  156.7601 H   0  0  0  0  0  0  0  0  0  0  0  0
  148.5384  142.9003  155.2822 H   0  0  0  0  0  0  0  0  0  0  0  0
  149.2931  140.8507  153.4123 H   0  0  0  0  0  0  0  0  0  0  0  0
  147.0758  141.1111  152.5770 H   0  0  0  0  0  0  0  0  0  0  0  0
  147.2469  143.5998  154.0638 H   0  0  0  0  0  0  0  0  0  0  0  0
  145.9635  143.1586  152.9529 H   0  0  0  0  0  0  0  0  0  0  0  0
  145.5470  143.3847  155.7098 H   0  0  0  0  0  0  0  0  0  0  0  0
  144.5740  142.3532  154.6548 H   0  0  0  0  0  0  0  0  0  0  0  0
  145.7723  139.8750  154.1681 H   0  0  0  0  0  0  0  0  0  0  0  0
  149.3753  139.4371  156.3653 H   0  0  0  0  0  0  0  0  0  0  0  0
  147.8718  140.0750  156.9942 H   0  0  0  0  0  0  0  0  0  0  0  0
  148.4405  137.4078  157.0852 H   0  0  0  0  0  0  0  0  0  0  0  0
  146.7938  137.9815  156.8485 H   0  0  0  0  0  0  0  0  0  0  0  0
  148.4216  136.5312  154.9014 H   0  0  0  0  0  0  0  0  0  0  0  0
  146.7386  137.0295  154.7857 H   0  0  0  0  0  0  0  0  0  0  0  0
  147.5688  138.4748  153.1294 H   0  0  0  0  0  0  0  0  0  0  0  0
  149.1887  138.4126  153.7859 H   0  0  0  0  0  0  0  0  0  0  0  0
  1  2  1  0  0  0  0
  1 23  1  0  0  0  0
  1 24  1  0  0  0  0
  1 25  1  0  0  0  0
  2 22  1  0  0  0  0
  2  3  2  0  0  0  0
  3  4  1  0  0  0  0
  3 26  1  0  0  0  0
  4  5  2  0  0  0  0
  4 27  1  0  0  0  0
  5  6  1  0  0  0  0
  5 28  1  0  0  0  0
  6  7  1  0  0  0  0
  6 22  2  0  0  0  0
  7  8  1  0  0  0  0
  7 29  1  0  0  0  0
  8  9  2  0  0  0  0
  8 10  1  0  0  0  0
 10 11  1  0  0  0  0
 10 30  1  0  0  0  0
 11 17  1  0  0  0  0
 11 12  1  0  0  0  0
 11 31  1  0  0  0  0
 12 16  1  0  0  0  0
 12 13  1  0  0  0  0
 12 32  1  0  0  0  0
 13 14  1  0  0  0  0
 13 33  1  0  0  0  0
 13 34  1  0  0  0  0
 14 15  1  0  0  0  0
 14 35  1  0  0  0  0
 14 36  1  0  0  0  0
 15 16  1  0  0  0  0
 16 17  1  0  0  0  0
 16 37  1  0  0  0  0
 17 21  1  0  0  0  0
 17 18  1  0  0  0  0
 18 19  1  0  0  0  0
 18 38  1  0  0  0  0
 18 39  1  0  0  0  0
 19 20  1  0  0  0  0
 19 40  1  0  0  0  0
 19 41  1  0  0  0  0
 20 21  1  0  0  0  0
 20 42  1  0  0  0  0
 20 43  1  0  0  0  0
 21 44  1  0  0  0  0
 21 45  1  0  0  0  0
M  END
> <s_m_source_file>
AV-unprocessed.smi

> <i_m_source_file_index>
2329

> <i_lp_mmshare_version>
43012

> <i_f3d_flags>
0

> <s_epik_input>
W0NIM11jMVtjSF1bY0hdW2NIXWMobjEpW05IXUMoPU8pW05IXVtDQEBIXTJbQ0BASF0oW0NIMl1bQ0gyXU8zKVtDQEhdM0MyNFtDSDJdW0NIMl1bQ0gyXVtDSDJdNA==

> <s_epik_cmdline>
J2VwaWtfcHl0aG9uJywgJy1waCcsICc3LjAnLCAnLXRuJywgJzgnLCAnLW1hJywgJzIwMCcsICctbWV0YWxfYmluZGluZycsICctaW1hZScsICc8aW5maWxlLm1hZT4nLCAnLW9tYWUnLCAnPG91dGZpbGUubWFlPic=

> <r_lp_tautomer_probability>
1

> <r_epik_Ionization_Penalty>
8.97002e-05

> <r_epik_Ionization_Penalty_Charging>
0

> <r_epik_Ionization_Penalty_Neutral>
8.97002e-05

> <r_epik_State_Penalty>
-0

> <r_epik_Charging_Adjusted_Penalty>
0

> <i_epik_Tot_Q>
0

> <i_epik_Tot_abs_Q>
0

> <r_epik_Metal_State_Penalty>
-0

> <b_epik_Metal_Only>
0

> <s_lp_Force_Field>
OPLS_2005

> <r_lp_Energy>
67.4264

> <b_lp_Chiralities_Consistent>
1

> <s_lp_Variant>
AV-unprocessed.smi:2329-3

> <Gold.Version>
5.8.1

> <Gold.Id.Protein>
6NUR|6NUR_protein|mol2

> <Gold.PLP.Fitness>
46.1118

> <Gold.PLP.PLP>
-40.6173

> <Gold.PLP.part.hbond>
-2.0000

> <Gold.PLP.part.metal>
0.0000

> <Gold.PLP.part.buried>
-6.8906

> <Gold.PLP.part.nonpolar>
-32.2670

> <Gold.PLP.part.repulsive>
0.3351

> <Gold.PLP.ligand.clash>
0.0000

> <Gold.PLP.ligand.torsion>
0.1221

> <Gold.PLP.Chemscore.Hbond>
1.8480

> <Gold.PLP.Chemscore.CHOScore>
0.0000

> <Gold.PLP.Chemscore.Metal>
0.0000

> <Gold.Chemscore.Hbonds>
donor molecule, donor type, donor heavy atom, donor atom, acceptor molecule, acceptor atom, score
      L1  H     7    29       P1  8028  0.96
      L1  H    10    30       P1  8028  0.78

> <Gold.PLP.Chemscore.Internal.Correction>
0.1947

> <Gold.Rescore>
     Score         DG    S(hbond)    S(metal)    S(lipo)     H(rot)  DE(clash)    DE(int)     intcor
     17.19     -20.42       1.80        0.00      98.10       1.00       0.72       2.51       ----

> <Gold.Chemscore.Fitness>
17.1867

> <Gold.Chemscore.DG>
-20.4248

> <Gold.Chemscore.ZeroCoef>
-5.4800

> <Gold.Chemscore.Hbond>
1.8046

> <Gold.Chemscore.Metal>
0.0000

> <Gold.Chemscore.Lipo>
98.0978

> <Gold.Chemscore.Internal_Hbond>
0.0000

> <Gold.Chemscore.DEClash>
0.7245

> <Gold.Chemscore.DEInternal>
2.5135

> <Gold.Chemscore.Rot>
1.0000

> <Gold.Chemscore.Internal.Correction>
   9.000000E+99

> <Gold.Chemscore.Hbonds>
donor molecule, donor type, donor heavy atom, donor atom, acceptor molecule, acceptor atom, score
      L1  H     7    29       P1  8028  0.91
      L1  H    10    30       P1  8028  0.80

> <Gold.Chemscore.Hbond.Weighted>
-6.0273

> <Gold.Chemscore.Metal.Weighted>
-0.0000

> <Gold.Chemscore.Lipo.Weighted>
-11.4774

> <Gold.Chemscore.Internal_Hbond.Weighted>
0.0000

> <Gold.Chemscore.DEClash.Weighted>
0.7245

> <Gold.Chemscore.DEInternal.Weighted>
2.5135

> <Gold.Chemscore.Rot.Weighted>
2.5600

> <Gold.Chemscore.Internal.Correction.Weighted>
   9.000000E+99

> <Gold.Protein.RotatedTorsions>
[ 6907 6896 6895 6894 ] final   17.92 input  -60.11 | X-H torsion
[ 7974 7965 7964 7962 ] final  -48.28 input  175.53 | X-H torsion
[ 8008 7997 7996 7995 ] final  163.21 input   59.86 | X-H torsion
[ 10167 10162 10161 10158 ] final   65.63 input  -65.29 | X-H torsion
[ 10718 10713 10712 10709 ] final  -62.46 input   66.30 | X-H torsion
[ 10763 10752 10751 10750 ] final  169.42 input  -60.55 | X-H torsion
[ 11005 11000 10999 10996 ] final  108.25 input  -57.11 | X-H torsion

> <Gold.Protein.ActiveResidues>
 VAL166  LYS551  ARG553  GLY616  TRP617  ASP618  TYR619  PRO620  LYS621  CYS622 
 ASP623  PHE694  ASN695  SER759  ASP760  ASP761  ALA762  ILE779  LEU786  VAL792 
 PHE793  MET794  SER795  GLU796  ALA797  LYS798  CYS799  TRP800  GLU811  SER814 

> <Gold.Protein.RotatedAtoms>
  151.8571  135.0537  160.0465 H   0  0  0  0  0  0  0  0  0  0  0  0  # atno 6907 bound_to 6896
  152.2691  133.5362  159.5437 H   0  0  0  0  0  0  0  0  0  0  0  0  # atno 6908 bound_to 6896
  150.7145  134.0639  159.3883 H   0  0  0  0  0  0  0  0  0  0  0  0  # atno 6909 bound_to 6896
  145.9528  140.7555  142.9496 H   0  0  0  0  0  0  0  0  0  0  0  0  # atno 7974 bound_to 7965
  156.1974  140.1730  156.7969 H   0  0  0  0  0  0  0  0  0  0  0  0  # atno 8008 bound_to 7997
  154.5547  140.0711  156.8756 H   0  0  0  0  0  0  0  0  0  0  0  0  # atno 8009 bound_to 7997
  155.2960  140.3358  155.4252 H   0  0  0  0  0  0  0  0  0  0  0  0  # atno 8010 bound_to 7997
  140.1091  144.4834  150.6989 H   0  0  0  0  0  0  0  0  0  0  0  0  # atno 10167 bound_to 10162
  156.0854  130.4209  150.1138 H   0  0  0  0  0  0  0  0  0  0  0  0  # atno 10718 bound_to 10713
  154.3828  135.2753  155.2201 H   0  0  0  0  0  0  0  0  0  0  0  0  # atno 10763 bound_to 10752
  154.4300  135.5979  153.6066 H   0  0  0  0  0  0  0  0  0  0  0  0  # atno 10764 bound_to 10752
  152.9834  135.5993  154.4073 H   0  0  0  0  0  0  0  0  0  0  0  0  # atno 10765 bound_to 10752
  139.8841  134.9425  156.5943 H   0  0  0  0  0  0  0  0  0  0  0  0  # atno 11005 bound_to 11000
  144.6799  140.2463  143.7337 LP  0  0  0  0  0  0  0  0  0  0  0  0  # atno 17320 bound_to 7965
  145.8147  139.2018  143.1972 LP  0  0  0  0  0  0  0  0  0  0  0  0  # atno 17321 bound_to 7965
  140.6935  143.2390  151.5065 LP  0  0  0  0  0  0  0  0  0  0  0  0  # atno 17342 bound_to 10162
  139.5629  144.2113  152.1719 LP  0  0  0  0  0  0  0  0  0  0  0  0  # atno 17343 bound_to 10162
  156.9160  130.9667  151.3556 LP  0  0  0  0  0  0  0  0  0  0  0  0  # atno 17370 bound_to 10713
  157.5986  130.8496  149.8768 LP  0  0  0  0  0  0  0  0  0  0  0  0  # atno 17371 bound_to 10713
  140.7932  133.8565  155.8663 LP  0  0  0  0  0  0  0  0  0  0  0  0  # atno 17394 bound_to 11000
  140.9659  134.1595  157.4616 LP  0  0  0  0  0  0  0  0  0  0  0  0  # atno 17395 bound_to 11000

$$$$
