AV-unprocessed.smi:2399|AV-procd|sdf|9499|dock1
  -GOLD-   2272013133D 1   1.00000     0.00000
 Structure written by MMmdl.
 53 55  0  0  0  0  0  0  0  0  2 V2000
  154.1603  139.5615  159.7081 C   0  0  0  0  0  0  0  0  0  0  0  0
  153.2513  140.0467  158.7310 O   0  0  0  0  0  0  0  0  0  0  0  0
  152.7732  141.3356  158.8659 C   0  0  0  0  0  0  0  0  0  0  0  0
  153.2793  142.2657  159.8096 C   0  0  0  0  0  0  0  0  0  0  0  0
  152.7277  143.5571  159.8711 C   0  0  0  0  0  0  0  0  0  0  0  0
  151.6848  143.8771  158.9841 C   0  0  0  0  0  0  0  0  0  0  0  0
  151.0461  145.2499  158.9924 C   0  0  0  0  0  0  0  0  0  0  0  0
  151.1966  143.0023  158.0820 N   0  0  0  0  0  0  0  0  0  0  0  0
  151.7194  141.7530  158.0125 C   0  0  0  0  0  0  0  0  0  0  0  0
  151.2550  140.7738  157.0917 N   0  0  0  0  0  0  0  0  0  0  0  0
  150.7428  139.5588  157.3524 C   0  0  0  0  0  0  0  0  0  0  0  0
  150.5745  139.0794  158.4743 O   0  0  0  0  0  0  0  0  0  0  0  0
  150.4182  138.9164  156.2207 N   0  0  0  0  0  0  0  0  0  0  0  0
  149.8220  137.5855  156.1553 C   0  0  2  0  0  0  0  0  0  0  0  0
  150.7957  136.6059  155.4861 C   0  0  0  0  0  0  0  0  0  0  0  0
  150.1641  135.2125  155.3281 C   0  0  0  0  0  0  0  0  0  0  0  0
  148.8892  135.2719  154.5596 N   0  3  1  0  0  0  0  0  0  0  0  0
  148.3035  133.9265  154.2889 C   0  0  0  0  0  0  0  0  0  0  0  0
  149.3125  132.9014  153.7521 C   0  0  0  0  0  0  0  0  0  0  0  0
  148.4543  131.8068  153.1153 C   0  0  0  0  0  0  0  0  0  0  0  0
  147.1658  132.4983  152.6524 C   0  0  0  0  0  0  0  0  0  0  0  0
  147.2310  133.9343  153.1876 C   0  0  0  0  0  0  0  0  0  0  0  0
  147.9208  136.2007  155.2066 C   0  0  0  0  0  0  0  0  0  0  0  0
  148.5066  137.6132  155.3600 C   0  0  0  0  0  0  0  0  0  0  0  0
  154.4512  138.5425  159.4534 H   0  0  0  0  0  0  0  0  0  0  0  0
  153.7053  139.5360  160.6991 H   0  0  0  0  0  0  0  0  0  0  0  0
  155.0687  140.1645  159.7420 H   0  0  0  0  0  0  0  0  0  0  0  0
  154.0800  142.0152  160.4886 H   0  0  0  0  0  0  0  0  0  0  0  0
  153.0988  144.2806  160.5819 H   0  0  0  0  0  0  0  0  0  0  0  0
  151.3361  145.8143  159.8792 H   0  0  0  0  0  0  0  0  0  0  0  0
  149.9588  145.1669  158.9844 H   0  0  0  0  0  0  0  0  0  0  0  0
  151.3540  145.8139  158.1118 H   0  0  0  0  0  0  0  0  0  0  0  0
  151.3153  141.0385  156.1196 H   0  0  0  0  0  0  0  0  0  0  0  0
  150.5922  139.3839  155.3429 H   0  0  0  0  0  0  0  0  0  0  0  0
  149.6214  137.2320  157.1689 H   0  0  0  0  0  0  0  0  0  0  0  0
  151.0894  136.9833  154.5053 H   0  0  0  0  0  0  0  0  0  0  0  0
  151.7110  136.5293  156.0746 H   0  0  0  0  0  0  0  0  0  0  0  0
  150.8877  134.5728  154.8244 H   0  0  0  0  0  0  0  0  0  0  0  0
  149.9786  134.7700  156.3083 H   0  0  0  0  0  0  0  0  0  0  0  0
  147.8644  133.5365  155.2092 H   0  0  0  0  0  0  0  0  0  0  0  0
  149.9430  133.3595  152.9885 H   0  0  0  0  0  0  0  0  0  0  0  0
  149.9644  132.4972  154.5271 H   0  0  0  0  0  0  0  0  0  0  0  0
  148.9731  131.3061  152.2973 H   0  0  0  0  0  0  0  0  0  0  0  0
  148.2128  131.0488  153.8614 H   0  0  0  0  0  0  0  0  0  0  0  0
  147.0776  132.4936  151.5653 H   0  0  0  0  0  0  0  0  0  0  0  0
  146.2957  131.9753  153.0511 H   0  0  0  0  0  0  0  0  0  0  0  0
  146.2593  134.2723  153.5492 H   0  0  0  0  0  0  0  0  0  0  0  0
  147.5326  134.6029  152.3796 H   0  0  0  0  0  0  0  0  0  0  0  0
  147.0083  136.2763  154.6167 H   0  0  0  0  0  0  0  0  0  0  0  0
  147.6338  135.8061  156.1826 H   0  0  0  0  0  0  0  0  0  0  0  0
  147.7792  138.2566  155.8565 H   0  0  0  0  0  0  0  0  0  0  0  0
  148.6773  138.0449  154.3726 H   0  0  0  0  0  0  0  0  0  0  0  0
  149.1151  135.6711  153.6598 H   0  0  0  0  0  0  0  0  0  0  0  0
  1  2  1  0  0  0  0
  1 25  1  0  0  0  0
  1 26  1  0  0  0  0
  1 27  1  0  0  0  0
  2  3  1  0  0  0  0
  3  9  1  0  0  0  0
  3  4  2  0  0  0  0
  4  5  1  0  0  0  0
  4 28  1  0  0  0  0
  5  6  2  0  0  0  0
  5 29  1  0  0  0  0
  6  7  1  0  0  0  0
  6  8  1  0  0  0  0
  7 30  1  0  0  0  0
  7 31  1  0  0  0  0
  7 32  1  0  0  0  0
  8  9  2  0  0  0  0
  9 10  1  0  0  0  0
 10 11  1  0  0  0  0
 10 33  1  0  0  0  0
 11 12  2  0  0  0  0
 11 13  1  0  0  0  0
 13 14  1  0  0  0  0
 13 34  1  0  0  0  0
 14 24  1  0  0  0  0
 14 15  1  0  0  0  0
 14 35  1  0  0  0  0
 15 16  1  0  0  0  0
 15 36  1  0  0  0  0
 15 37  1  0  0  0  0
 16 17  1  0  0  0  0
 16 38  1  0  0  0  0
 16 39  1  0  0  0  0
 17 18  1  0  0  0  0
 17 23  1  0  0  0  0
 17 53  1  0  0  0  0
 18 22  1  0  0  0  0
 18 19  1  0  0  0  0
 18 40  1  0  0  0  0
 19 20  1  0  0  0  0
 19 41  1  0  0  0  0
 19 42  1  0  0  0  0
 20 21  1  0  0  0  0
 20 43  1  0  0  0  0
 20 44  1  0  0  0  0
 21 22  1  0  0  0  0
 21 45  1  0  0  0  0
 21 46  1  0  0  0  0
 22 47  1  0  0  0  0
 22 48  1  0  0  0  0
 23 24  1  0  0  0  0
 23 49  1  0  0  0  0
 23 50  1  0  0  0  0
 24 51  1  0  0  0  0
 24 52  1  0  0  0  0
M  CHG  1  17   1
M  END
> <s_m_source_file>
AV-unprocessed.smi

> <i_m_source_file_index>
2399

> <i_lp_mmshare_version>
43012

> <i_f3d_flags>
0

> <s_epik_input>
W0NIM11PYzFbY0hdW2NIXWMoW0NIM10pbmMxW05IXUMoPU8pW05IXVtDSF0yW0NIMl1bQ0gyXU4oW0NIMl1bQ0gyXTIpW0NIXTNbQ0gyXVtDSDJdW0NIMl1bQ0gyXTM=

> <s_epik_cmdline>
J2VwaWtfcHl0aG9uJywgJy1waCcsICc3LjAnLCAnLXRuJywgJzgnLCAnLW1hJywgJzIwMCcsICctbWV0YWxfYmluZGluZycsICctaW1hZScsICc8aW5maWxlLm1hZT4nLCAnLW9tYWUnLCAnPG91dGZpbGUubWFlPic=

> <r_lp_tautomer_probability>
1

> <r_epik_Ionization_Penalty>
0.00183805

> <r_epik_Ionization_Penalty_Charging>
0.00179121

> <r_epik_Ionization_Penalty_Neutral>
4.68398e-05

> <r_epik_State_Penalty>
0.00121448

> <r_epik_Charging_Adjusted_Penalty>
0.0030057

> <i_epik_Tot_Q>
1

> <i_epik_Tot_abs_Q>
1

> <r_epik_Metal_State_Penalty>
-0

> <b_epik_Metal_Only>
0

> <s_lp_Force_Field>
OPLS_2005

> <r_lp_Energy>
41.4811

> <b_lp_Chiralities_Consistent>
1

> <s_lp_Variant>
AV-unprocessed.smi:2399-1

> <Gold.Version>
5.8.1

> <Gold.Id.Protein>
6NUR|6NUR_protein|mol2

> <Gold.PLP.Fitness>
45.4998

> <Gold.PLP.PLP>
-38.0368

> <Gold.PLP.part.hbond>
-2.0000

> <Gold.PLP.part.metal>
0.0000

> <Gold.PLP.part.buried>
-3.9159

> <Gold.PLP.part.nonpolar>
-31.5767

> <Gold.PLP.part.repulsive>
0.1800

> <Gold.PLP.ligand.clash>
0.0000

> <Gold.PLP.ligand.torsion>
0.7897

> <Gold.PLP.Chemscore.Hbond>
2.9913

> <Gold.PLP.Chemscore.CHOScore>
0.0000

> <Gold.PLP.Chemscore.Metal>
0.0000

> <Gold.Chemscore.Hbonds>
donor molecule, donor type, donor heavy atom, donor atom, acceptor molecule, acceptor atom, score
      L1  H    17    53       P1  7948  2.00
      P1  H  7997  8008       L1     2  0.52

> <Gold.PLP.Chemscore.Internal.Correction>
0.0686

> <Gold.Rescore>
     Score         DG    S(hbond)    S(metal)    S(lipo)     H(rot)  DE(clash)    DE(int)     intcor
     14.70     -18.64       1.40        0.00     102.94       1.38       0.23       3.72       ----

> <Gold.Chemscore.Fitness>
14.6969

> <Gold.Chemscore.DG>
-18.6434

> <Gold.Chemscore.ZeroCoef>
-5.4800

> <Gold.Chemscore.Hbond>
1.3952

> <Gold.Chemscore.Metal>
0.0000

> <Gold.Chemscore.Lipo>
102.9362

> <Gold.Chemscore.Internal_Hbond>
0.0000

> <Gold.Chemscore.DEClash>
0.2306

> <Gold.Chemscore.DEInternal>
3.7159

> <Gold.Chemscore.Rot>
1.3828

> <Gold.Chemscore.Internal.Correction>
   9.000000E+99

> <Gold.Chemscore.Hbonds>
donor molecule, donor type, donor heavy atom, donor atom, acceptor molecule, acceptor atom, score
      L1  H    17    53       P1  7948  0.74
      P1  H  7997  8008       L1     2  0.04

> <Gold.Chemscore.Hbond.Weighted>
-4.6598

> <Gold.Chemscore.Metal.Weighted>
-0.0000

> <Gold.Chemscore.Lipo.Weighted>
-12.0435

> <Gold.Chemscore.Internal_Hbond.Weighted>
0.0000

> <Gold.Chemscore.DEClash.Weighted>
0.2306

> <Gold.Chemscore.DEInternal.Weighted>
3.7159

> <Gold.Chemscore.Rot.Weighted>
3.5399

> <Gold.Chemscore.Internal.Correction.Weighted>
   9.000000E+99

> <Gold.Protein.RotatedTorsions>
[ 6907 6896 6895 6894 ] final  152.37 input  -60.11 | X-H torsion
[ 7974 7965 7964 7962 ] final -106.44 input  175.53 | X-H torsion
[ 8008 7997 7996 7995 ] final  -93.31 input   59.86 | X-H torsion
[ 10167 10162 10161 10158 ] final   78.75 input  -65.29 | X-H torsion
[ 10718 10713 10712 10709 ] final -107.10 input   66.30 | X-H torsion
[ 10763 10752 10751 10750 ] final  -50.28 input  -60.55 | X-H torsion
[ 11005 11000 10999 10996 ] final  169.92 input  -57.11 | X-H torsion

> <Gold.Protein.ActiveResidues>
 VAL166  LYS551  ARG553  GLY616  TRP617  ASP618  TYR619  PRO620  LYS621  CYS622 
 ASP623  PHE694  ASN695  SER759  ASP760  ASP761  ALA762  ILE779  LEU786  VAL792 
 PHE793  MET794  SER795  GLU796  ALA797  LYS798  CYS799  TRP800  GLU811  SER814 

> <Gold.Protein.RotatedAtoms>
  152.0876  133.4184  159.4529 H   0  0  0  0  0  0  0  0  0  0  0  0  # atno 6907 bound_to 6896
  150.6862  134.2909  159.4675 H   0  0  0  0  0  0  0  0  0  0  0  0  # atno 6908 bound_to 6896
  152.0757  134.9504  160.0624 H   0  0  0  0  0  0  0  0  0  0  0  0  # atno 6909 bound_to 6896
  145.2178  140.9122  143.3277 H   0  0  0  0  0  0  0  0  0  0  0  0  # atno 7974 bound_to 7965
  154.7340  140.0500  157.0752 H   0  0  0  0  0  0  0  0  0  0  0  0  # atno 8008 bound_to 7997
  155.0264  140.3153  155.4755 H   0  0  0  0  0  0  0  0  0  0  0  0  # atno 8009 bound_to 7997
  156.2848  140.2158  156.5384 H   0  0  0  0  0  0  0  0  0  0  0  0  # atno 8010 bound_to 7997
  139.9676  144.5917  150.8015 H   0  0  0  0  0  0  0  0  0  0  0  0  # atno 10167 bound_to 10162
  156.0421  130.5646  150.7774 H   0  0  0  0  0  0  0  0  0  0  0  0  # atno 10718 bound_to 10713
  154.1078  135.6554  153.4879 H   0  0  0  0  0  0  0  0  0  0  0  0  # atno 10763 bound_to 10752
  153.0267  135.5240  154.7222 H   0  0  0  0  0  0  0  0  0  0  0  0  # atno 10764 bound_to 10752
  154.6393  135.2986  155.0092 H   0  0  0  0  0  0  0  0  0  0  0  0  # atno 10765 bound_to 10752
  140.3029  134.7581  157.3930 H   0  0  0  0  0  0  0  0  0  0  0  0  # atno 11005 bound_to 11000
  144.9794  139.3799  143.6269 LP  0  0  0  0  0  0  0  0  0  0  0  0  # atno 17320 bound_to 7965
  146.3383  139.8928  142.8806 LP  0  0  0  0  0  0  0  0  0  0  0  0  # atno 17321 bound_to 7965
  140.7533  143.3005  151.3092 LP  0  0  0  0  0  0  0  0  0  0  0  0  # atno 17342 bound_to 10162
  139.6506  144.0369  152.2623 LP  0  0  0  0  0  0  0  0  0  0  0  0  # atno 17343 bound_to 10162
  157.5251  131.0933  151.0028 LP  0  0  0  0  0  0  0  0  0  0  0  0  # atno 17370 bound_to 10713
  157.0348  130.5726  149.5348 LP  0  0  0  0  0  0  0  0  0  0  0  0  # atno 17371 bound_to 10713
  140.1093  134.5367  155.8280 LP  0  0  0  0  0  0  0  0  0  0  0  0  # atno 17394 bound_to 11000
  141.2124  133.6719  156.6659 LP  0  0  0  0  0  0  0  0  0  0  0  0  # atno 17395 bound_to 11000

$$$$
