AV-unprocessed.smi:354|AV-procd|sdf|2405|dock5
  -GOLD-   2262022343D 1   1.00000     0.00000
 Structure written by MMmdl.
 37 39  0  0  0  0  0  0  0  0  2 V2000
  151.3998  136.4938  154.3649 O   0  0  0  0  0  0  0  0  0  0  0  0
  151.7881  137.8481  154.3047 C   0  0  0  0  0  0  0  0  0  0  0  0
  150.6156  138.7737  154.2669 C   0  0  0  0  0  0  0  0  0  0  0  0
  149.5110  138.6126  153.4846 N   0  3  0  0  0  0  0  0  0  0  0  0
  148.6236  139.6685  153.6930 C   0  0  0  0  0  0  0  0  0  0  0  0
  147.3806  139.9400  153.1296 C   0  0  0  0  0  0  0  0  0  0  0  0
  146.7323  141.1149  153.5639 C   0  0  0  0  0  0  0  0  0  0  0  0
  147.3201  141.9672  154.5211 C   0  0  0  0  0  0  0  0  0  0  0  0
  148.5813  141.6817  155.0844 C   0  0  0  0  0  0  0  0  0  0  0  0
  149.2153  140.5178  154.6496 C   0  0  0  0  0  0  0  0  0  0  0  0
  150.4427  139.9296  154.9740 N   0  0  0  0  0  0  0  0  0  0  0  0
  151.3127  140.6017  155.9528 C   0  0  0  0  0  0  0  0  0  0  0  0
  150.9822  140.2216  157.4100 C   0  0  2  0  0  0  0  0  0  0  0  0
  149.5848  140.3006  157.6203 O   0  0  0  0  0  0  0  0  0  0  0  0
  151.7786  141.0724  158.3905 C   0  0  0  0  0  0  0  0  0  0  0  0
  151.6841  142.4824  158.3666 C   0  0  0  0  0  0  0  0  0  0  0  0
  152.4342  143.2615  159.2685 C   0  0  0  0  0  0  0  0  0  0  0  0
  153.2883  142.6376  160.1973 C   0  0  0  0  0  0  0  0  0  0  0  0
  153.3939  141.2341  160.2215 C   0  0  0  0  0  0  0  0  0  0  0  0
  152.6437  140.4528  159.3209 C   0  0  0  0  0  0  0  0  0  0  0  0
  152.7642  139.1034  159.3503 F   0  0  0  0  0  0  0  0  0  0  0  0
  151.2064  136.1967  153.4888 H   0  0  0  0  0  0  0  0  0  0  0  0
  152.3983  138.0795  155.1780 H   0  0  0  0  0  0  0  0  0  0  0  0
  152.4198  138.0000  153.4306 H   0  0  0  0  0  0  0  0  0  0  0  0
  146.9287  139.2890  152.3957 H   0  0  0  0  0  0  0  0  0  0  0  0
  145.7651  141.3678  153.1539 H   0  0  0  0  0  0  0  0  0  0  0  0
  146.7938  142.8591  154.8292 H   0  0  0  0  0  0  0  0  0  0  0  0
  149.0244  142.3424  155.8150 H   0  0  0  0  0  0  0  0  0  0  0  0
  152.3484  140.3573  155.7136 H   0  0  0  0  0  0  0  0  0  0  0  0
  151.2190  141.6781  155.8114 H   0  0  0  0  0  0  0  0  0  0  0  0
  151.2500  139.1776  157.5750 H   0  0  0  0  0  0  0  0  0  0  0  0
  149.3052  141.1866  157.4464 H   0  0  0  0  0  0  0  0  0  0  0  0
  151.0395  142.9763  157.6543 H   0  0  0  0  0  0  0  0  0  0  0  0
  152.3561  144.3384  159.2455 H   0  0  0  0  0  0  0  0  0  0  0  0
  153.8653  143.2350  160.8874 H   0  0  0  0  0  0  0  0  0  0  0  0
  154.0540  140.7556  160.9297 H   0  0  0  0  0  0  0  0  0  0  0  0
  149.3817  137.8367  152.8481 H   0  0  0  0  0  0  0  0  0  0  0  0
  1  2  1  0  0  0  0
  1 22  1  0  0  0  0
  2  3  1  0  0  0  0
  2 23  1  0  0  0  0
  2 24  1  0  0  0  0
  3 11  1  0  0  0  0
  3  4  2  0  0  0  0
  4  5  1  0  0  0  0
  4 37  1  0  0  0  0
  5 10  2  0  0  0  0
  5  6  1  0  0  0  0
  6  7  2  0  0  0  0
  6 25  1  0  0  0  0
  7  8  1  0  0  0  0
  7 26  1  0  0  0  0
  8  9  2  0  0  0  0
  8 27  1  0  0  0  0
  9 10  1  0  0  0  0
  9 28  1  0  0  0  0
 10 11  1  0  0  0  0
 11 12  1  0  0  0  0
 12 13  1  0  0  0  0
 12 29  1  0  0  0  0
 12 30  1  0  0  0  0
 13 14  1  0  0  0  0
 13 15  1  0  0  0  0
 13 31  1  0  0  0  0
 14 32  1  0  0  0  0
 15 20  1  0  0  0  0
 15 16  2  0  0  0  0
 16 17  1  0  0  0  0
 16 33  1  0  0  0  0
 17 18  2  0  0  0  0
 17 34  1  0  0  0  0
 18 19  1  0  0  0  0
 18 35  1  0  0  0  0
 19 20  2  0  0  0  0
 19 36  1  0  0  0  0
 20 21  1  0  0  0  0
M  CHG  1   4   1
M  END
> <s_m_source_file>
AV-unprocessed.smi

> <i_m_source_file_index>
354

> <i_lp_mmshare_version>
43012

> <i_f3d_flags>
0

> <s_epik_input>
W2NIXTFbY0hdW2NIXVtjSF1jKGMxMiluKGMobjIpW0NIMl1bT0hdKVtDSDJdW0NASF0oW09IXSljM1tjSF1bY0hdW2NIXVtjSF1jM0Y=

> <s_epik_cmdline>
J2VwaWtfcHl0aG9uJywgJy1waCcsICc3LjAnLCAnLXRuJywgJzgnLCAnLW1hJywgJzIwMCcsICctbWV0YWxfYmluZGluZycsICctaW1hZScsICc8aW5maWxlLm1hZT4nLCAnLW9tYWUnLCAnPG91dGZpbGUubWFlPic=

> <r_epik_Ionization_Penalty>
1.35643

> <r_epik_Ionization_Penalty_Charging>
1.35557

> <r_epik_Ionization_Penalty_Neutral>
0.000857128

> <r_epik_State_Penalty>
1.43401

> <r_epik_Charging_Adjusted_Penalty>
2.78958

> <i_epik_Tot_Q>
1

> <i_epik_Tot_abs_Q>
1

> <r_epik_Metal_State_Penalty>
5.47166

> <b_epik_Metal_Only>
0

> <s_lp_Force_Field>
OPLS_2005

> <r_lp_Energy>
14.4216

> <b_lp_Chiralities_Consistent>
1

> <s_lp_Variant>
AV-unprocessed.smi:354-3

> <Gold.Version>
5.8.1

> <Gold.Id.Protein>
6NUR|6NUR_protein|mol2

> <Gold.PLP.Fitness>
59.2440

> <Gold.PLP.PLP>
-48.4945

> <Gold.PLP.part.hbond>
-4.0000

> <Gold.PLP.part.metal>
0.0000

> <Gold.PLP.part.buried>
0.3499

> <Gold.PLP.part.nonpolar>
-45.2648

> <Gold.PLP.part.repulsive>
0.0785

> <Gold.PLP.ligand.clash>
0.0000

> <Gold.PLP.ligand.torsion>
0.6425

> <Gold.PLP.Chemscore.Hbond>
4.0000

> <Gold.PLP.Chemscore.CHOScore>
0.0000

> <Gold.PLP.Chemscore.Metal>
0.0000

> <Gold.Chemscore.Hbonds>
donor molecule, donor type, donor heavy atom, donor atom, acceptor molecule, acceptor atom, score
      L1  H     1    22       P1  7949  1.00
      L1  H     4    37       P1  7948  2.00
      P1  H 10752 10763       L1     1  0.98

> <Gold.PLP.Chemscore.Internal.Correction>
0.0345

> <Gold.Rescore>
     Score         DG    S(hbond)    S(metal)    S(lipo)     H(rot)  DE(clash)    DE(int)     intcor
     18.46     -19.32       2.43        0.00     110.59       2.82       0.08       0.79       ----

> <Gold.Chemscore.Fitness>
18.4570

> <Gold.Chemscore.DG>
-19.3215

> <Gold.Chemscore.ZeroCoef>
-5.4800

> <Gold.Chemscore.Hbond>
2.4330

> <Gold.Chemscore.Metal>
0.0000

> <Gold.Chemscore.Lipo>
110.5930

> <Gold.Chemscore.Internal_Hbond>
0.0000

> <Gold.Chemscore.DEClash>
0.0760

> <Gold.Chemscore.DEInternal>
0.7885

> <Gold.Chemscore.Rot>
2.8219

> <Gold.Chemscore.Internal.Correction>
   9.000000E+99

> <Gold.Chemscore.Hbonds>
donor molecule, donor type, donor heavy atom, donor atom, acceptor molecule, acceptor atom, score
      L1  H     1    22       P1  7949  0.43
      L1  H     4    37       P1  7948  0.91
      P1  H 10752 10763       L1     1  0.12

> <Gold.Chemscore.Hbond.Weighted>
-8.1261

> <Gold.Chemscore.Metal.Weighted>
-0.0000

> <Gold.Chemscore.Lipo.Weighted>
-12.9394

> <Gold.Chemscore.Internal_Hbond.Weighted>
0.0000

> <Gold.Chemscore.DEClash.Weighted>
0.0760

> <Gold.Chemscore.DEInternal.Weighted>
0.7885

> <Gold.Chemscore.Rot.Weighted>
7.2240

> <Gold.Chemscore.Internal.Correction.Weighted>
   9.000000E+99

> <Gold.Protein.RotatedTorsions>
[ 6907 6896 6895 6894 ] final   73.13 input  -60.11 | X-H torsion
[ 7974 7965 7964 7962 ] final -123.79 input  175.53 | X-H torsion
[ 8008 7997 7996 7995 ] final   72.93 input   59.86 | X-H torsion
[ 10167 10162 10161 10158 ] final   75.24 input  -65.29 | X-H torsion
[ 10718 10713 10712 10709 ] final  -94.21 input   66.30 | X-H torsion
[ 10763 10752 10751 10750 ] final   67.01 input  -60.55 | X-H torsion
[ 11005 11000 10999 10996 ] final   86.36 input  -57.11 | X-H torsion

> <Gold.Protein.ActiveResidues>
 VAL166  LYS551  ARG553  GLY616  TRP617  ASP618  TYR619  PRO620  LYS621  CYS622 
 ASP623  PHE694  ASN695  SER759  ASP760  ASP761  ALA762  ILE779  LEU786  VAL792 
 PHE793  MET794  SER795  GLU796  ALA797  LYS798  CYS799  TRP800  GLU811  SER814 

> <Gold.Protein.RotatedAtoms>
  152.4906  134.4468  159.9561 H   0  0  0  0  0  0  0  0  0  0  0  0  # atno 6907 bound_to 6896
  151.4456  133.3625  159.2795 H   0  0  0  0  0  0  0  0  0  0  0  0  # atno 6908 bound_to 6896
  150.9057  134.8496  159.7451 H   0  0  0  0  0  0  0  0  0  0  0  0  # atno 6909 bound_to 6896
  145.0150  140.7939  143.4415 H   0  0  0  0  0  0  0  0  0  0  0  0  # atno 7974 bound_to 7965
  155.7761  140.3483  155.5272 H   0  0  0  0  0  0  0  0  0  0  0  0  # atno 8008 bound_to 7997
  155.8774  140.0996  157.1529 H   0  0  0  0  0  0  0  0  0  0  0  0  # atno 8009 bound_to 7997
  154.4022  140.1329  156.4141 H   0  0  0  0  0  0  0  0  0  0  0  0  # atno 8010 bound_to 7997
  140.0051  144.5657  150.7705 H   0  0  0  0  0  0  0  0  0  0  0  0  # atno 10167 bound_to 10162
  156.0024  130.5058  150.5892 H   0  0  0  0  0  0  0  0  0  0  0  0  # atno 10718 bound_to 10713
  153.0166  135.5299  154.6913 H   0  0  0  0  0  0  0  0  0  0  0  0  # atno 10763 bound_to 10752
  154.6047  135.2872  155.0499 H   0  0  0  0  0  0  0  0  0  0  0  0  # atno 10764 bound_to 10752
  154.1543  135.6558  153.5023 H   0  0  0  0  0  0  0  0  0  0  0  0  # atno 10765 bound_to 10752
  139.8946  134.8350  156.2710 H   0  0  0  0  0  0  0  0  0  0  0  0  # atno 11005 bound_to 11000
  145.1972  139.2270  143.5212 LP  0  0  0  0  0  0  0  0  0  0  0  0  # atno 17320 bound_to 7965
  146.3476  140.1781  142.8589 LP  0  0  0  0  0  0  0  0  0  0  0  0  # atno 17321 bound_to 7965
  140.7404  143.2804  151.3617 LP  0  0  0  0  0  0  0  0  0  0  0  0  # atno 17342 bound_to 10162
  139.6244  144.0842  152.2421 LP  0  0  0  0  0  0  0  0  0  0  0  0  # atno 17343 bound_to 10162
  157.3760  131.0773  151.1518 LP  0  0  0  0  0  0  0  0  0  0  0  0  # atno 17370 bound_to 10713
  157.2256  130.6501  149.5828 LP  0  0  0  0  0  0  0  0  0  0  0  0  # atno 17371 bound_to 10713
  141.0101  133.7101  156.1097 LP  0  0  0  0  0  0  0  0  0  0  0  0  # atno 17394 bound_to 11000
  140.7379  134.4182  157.5558 LP  0  0  0  0  0  0  0  0  0  0  0  0  # atno 17395 bound_to 11000

$$$$
