AV-unprocessed.smi:224|AV-procd|sdf|1711|dock2
  -GOLD-   2262020173D 1   1.00000     0.00000
 Structure written by MMmdl.
 56 59  0  0  0  0  0  0  0  0  2 V2000
  145.7266  132.0503  149.5409 C   0  0  0  0  0  0  0  0  0  0  0  0
  145.8280  132.8872  150.8249 C   0  0  2  0  0  0  0  0  0  0  0  0
  147.1884  132.9637  151.1956 O   0  0  0  0  0  0  0  0  0  0  0  0
  145.0353  132.2810  152.0004 C   0  0  0  0  0  0  0  0  0  0  0  0
  144.5248  133.3211  152.9390 N   0  3  2  0  0  0  0  0  0  0  0  0
  143.8312  134.4140  152.1978 C   0  0  0  0  0  0  0  0  0  0  0  0
  143.2795  135.5041  153.1324 C   0  0  0  0  0  0  0  0  0  0  0  0
  144.3147  135.9980  154.0332 N   0  0  0  0  0  0  0  0  0  0  0  0
  145.1235  137.0169  153.6337 C   0  0  0  0  0  0  0  0  0  0  0  0
  145.4500  137.1462  152.3199 N   0  0  0  0  0  0  0  0  0  0  0  0
  146.2624  138.1263  151.9147 C   0  0  0  0  0  0  0  0  0  0  0  0
  146.8512  139.0746  152.6439 N   0  0  0  0  0  0  0  0  0  0  0  0
  146.5182  138.9636  153.9611 C   0  0  0  0  0  0  0  0  0  0  0  0
  145.6640  137.9792  154.5350 C   0  0  0  0  0  0  0  0  0  0  0  0
  145.5434  138.2023  155.9021 N   0  0  0  0  0  0  0  0  0  0  0  0
  146.2949  139.2454  156.1252 C   0  0  0  0  0  0  0  0  0  0  0  0
  146.9290  139.7583  155.0167 N   0  0  0  0  0  0  0  0  0  0  0  0
  147.8309  140.8986  154.9762 C   0  0  0  0  0  0  0  0  0  0  0  0
  149.2738  140.5217  154.5660 C   0  0  2  0  0  0  0  0  0  0  0  0
  149.5398  141.0407  153.2742 O   0  0  0  0  0  0  0  0  0  0  0  0
  149.5440  139.0192  154.5479 C   0  0  0  0  0  0  0  0  0  0  0  0
  151.0085  138.9311  154.9538 C   0  0  0  0  0  0  0  0  0  0  0  0
  151.1092  139.9314  155.9524 O   0  0  0  0  0  0  0  0  0  0  0  0
  150.3435  141.0581  155.5385 C   0  0  0  0  0  0  0  0  0  0  0  0
  144.9432  134.9384  154.8114 C   0  0  0  0  0  0  0  0  0  0  0  0
  145.5453  133.8385  153.9073 C   0  0  1  0  0  0  0  0  0  0  0  0
  146.1200  132.7359  154.8212 C   0  0  0  0  0  0  0  0  0  0  0  0
  144.6969  131.9928  149.1870 H   0  0  0  0  0  0  0  0  0  0  0  0
  146.0797  131.0307  149.7000 H   0  0  0  0  0  0  0  0  0  0  0  0
  146.3224  132.4877  148.7390 H   0  0  0  0  0  0  0  0  0  0  0  0
  145.4996  133.9054  150.6201 H   0  0  0  0  0  0  0  0  0  0  0  0
  147.2472  133.0064  152.1380 H   0  0  0  0  0  0  0  0  0  0  0  0
  144.2319  131.6850  151.5757 H   0  0  0  0  0  0  0  0  0  0  0  0
  145.6541  131.5725  152.5539 H   0  0  0  0  0  0  0  0  0  0  0  0
  144.5274  134.8576  151.4852 H   0  0  0  0  0  0  0  0  0  0  0  0
  143.0067  134.0118  151.6109 H   0  0  0  0  0  0  0  0  0  0  0  0
  142.8382  136.3203  152.5587 H   0  0  0  0  0  0  0  0  0  0  0  0
  142.4720  135.0915  153.7384 H   0  0  0  0  0  0  0  0  0  0  0  0
  146.4730  138.1529  150.8557 H   0  0  0  0  0  0  0  0  0  0  0  0
  146.4126  139.6678  157.1125 H   0  0  0  0  0  0  0  0  0  0  0  0
  147.4228  141.6389  154.2865 H   0  0  0  0  0  0  0  0  0  0  0  0
  147.8300  141.3666  155.9615 H   0  0  0  0  0  0  0  0  0  0  0  0
  148.9776  140.6029  152.6533 H   0  0  0  0  0  0  0  0  0  0  0  0
  148.9423  138.5181  155.3070 H   0  0  0  0  0  0  0  0  0  0  0  0
  149.3327  138.5434  153.5892 H   0  0  0  0  0  0  0  0  0  0  0  0
  151.2831  137.9485  155.3373 H   0  0  0  0  0  0  0  0  0  0  0  0
  151.6654  139.1751  154.1174 H   0  0  0  0  0  0  0  0  0  0  0  0
  151.0004  141.7889  155.0637 H   0  0  0  0  0  0  0  0  0  0  0  0
  149.9066  141.5356  156.4161 H   0  0  0  0  0  0  0  0  0  0  0  0
  145.7131  135.3291  155.4744 H   0  0  0  0  0  0  0  0  0  0  0  0
  144.1821  134.5052  155.4617 H   0  0  0  0  0  0  0  0  0  0  0  0
  146.3634  134.2767  153.3328 H   0  0  0  0  0  0  0  0  0  0  0  0
  146.7231  133.1714  155.6187 H   0  0  0  0  0  0  0  0  0  0  0  0
  146.7773  132.0454  154.2956 H   0  0  0  0  0  0  0  0  0  0  0  0
  145.3252  132.1571  155.2933 H   0  0  0  0  0  0  0  0  0  0  0  0
  143.8232  132.8702  153.5086 H   0  0  0  0  0  0  0  0  0  0  0  0
  1  2  1  0  0  0  0
  1 28  1  0  0  0  0
  1 29  1  0  0  0  0
  1 30  1  0  0  0  0
  2  3  1  0  0  0  0
  2  4  1  0  0  0  0
  2 31  1  0  0  0  0
  3 32  1  0  0  0  0
  4  5  1  0  0  0  0
  4 33  1  0  0  0  0
  4 34  1  0  0  0  0
  5 26  1  0  0  0  0
  5  6  1  0  0  0  0
  5 56  1  0  0  0  0
  6  7  1  0  0  0  0
  6 35  1  0  0  0  0
  6 36  1  0  0  0  0
  7  8  1  0  0  0  0
  7 37  1  0  0  0  0
  7 38  1  0  0  0  0
  8  9  1  0  0  0  0
  8 25  1  0  0  0  0
  9 14  1  0  0  0  0
  9 10  2  0  0  0  0
 10 11  1  0  0  0  0
 11 12  2  0  0  0  0
 11 39  1  0  0  0  0
 12 13  1  0  0  0  0
 13 17  1  0  0  0  0
 13 14  2  0  0  0  0
 14 15  1  0  0  0  0
 15 16  2  0  0  0  0
 16 17  1  0  0  0  0
 16 40  1  0  0  0  0
 17 18  1  0  0  0  0
 18 19  1  0  0  0  0
 18 41  1  0  0  0  0
 18 42  1  0  0  0  0
 19 24  1  0  0  0  0
 19 20  1  0  0  0  0
 19 21  1  0  0  0  0
 20 43  1  0  0  0  0
 21 22  1  0  0  0  0
 21 44  1  0  0  0  0
 21 45  1  0  0  0  0
 22 23  1  0  0  0  0
 22 46  1  0  0  0  0
 22 47  1  0  0  0  0
 23 24  1  0  0  0  0
 24 48  1  0  0  0  0
 24 49  1  0  0  0  0
 25 26  1  0  0  0  0
 25 50  1  0  0  0  0
 25 51  1  0  0  0  0
 26 27  1  0  0  0  0
 26 52  1  0  0  0  0
 27 53  1  0  0  0  0
 27 54  1  0  0  0  0
 27 55  1  0  0  0  0
M  CHG  1   5   1
M  END
> <s_m_source_file>
AV-unprocessed.smi

> <i_m_source_file_index>
224

> <i_lp_mmshare_version>
43012

> <i_f3d_flags>
0

> <s_epik_input>
W0NIM11bQ0BIXShbT0hdKVtDSDJdTjFbQ0gyXVtDSDJdTihbQ0gyXVtDQEhdMVtDSDNdKWMobltjSF1uMiljKGMyMyluW2NIXW4zW0NIMl1bQ0BAXTQoW09IXSlbQ0gyXVtDSDJdT1tDSDJdNA==

> <s_epik_cmdline>
J2VwaWtfcHl0aG9uJywgJy1waCcsICc3LjAnLCAnLXRuJywgJzgnLCAnLW1hJywgJzIwMCcsICctbWV0YWxfYmluZGluZycsICctaW1hZScsICc8aW5maWxlLm1hZT4nLCAnLW9tYWUnLCAnPG91dGZpbGUubWFlPic=

> <r_lp_tautomer_probability>
1

> <r_epik_Ionization_Penalty>
0.00516958

> <r_epik_Ionization_Penalty_Charging>
0.00509693

> <r_epik_Ionization_Penalty_Neutral>
7.26542e-05

> <r_epik_State_Penalty>
-0

> <r_epik_Charging_Adjusted_Penalty>
0.00509693

> <i_epik_Tot_Q>
1

> <i_epik_Tot_abs_Q>
1

> <r_epik_Metal_State_Penalty>
-0

> <b_epik_Metal_Only>
0

> <s_lp_Force_Field>
OPLS_2005

> <r_lp_Energy>
47.9311

> <b_lp_Chiralities_Consistent>
1

> <s_lp_Variant>
AV-unprocessed.smi:224-5

> <Gold.Version>
5.8.1

> <Gold.Id.Protein>
6NUR|6NUR_protein|mol2

> <Gold.PLP.Fitness>
44.5240

> <Gold.PLP.PLP>
-37.0527

> <Gold.PLP.part.hbond>
-4.1200

> <Gold.PLP.part.metal>
0.0000

> <Gold.PLP.part.buried>
-6.3760

> <Gold.PLP.part.nonpolar>
-26.7928

> <Gold.PLP.part.repulsive>
0.5688

> <Gold.PLP.ligand.clash>
0.0000

> <Gold.PLP.ligand.torsion>
2.0451

> <Gold.PLP.Chemscore.Hbond>
3.3478

> <Gold.PLP.Chemscore.CHOScore>
0.2699

> <Gold.PLP.Chemscore.Metal>
0.0000

> <Gold.Chemscore.Hbonds>
donor molecule, donor type, donor heavy atom, donor atom, acceptor molecule, acceptor atom, score
      L1  H     5    56       P1 10957  1.95
      L1  H    20    43       P1  7957  0.42
      P1  H  7989  7998       L1    20  0.11
      P1  H  8011  8017       L1    20  0.80
      L1  C    11    39       P1 10171  0.12

> <Gold.PLP.Chemscore.Internal.Correction>
0.7085

> <Gold.Rescore>
     Score         DG    S(hbond)    S(metal)    S(lipo)     H(rot)  DE(clash)    DE(int)     intcor
      9.60     -11.46       2.08        0.00      65.14       3.36       0.04       1.82       ----

> <Gold.Chemscore.Fitness>
9.5998

> <Gold.Chemscore.DG>
-11.4554

> <Gold.Chemscore.ZeroCoef>
-5.4800

> <Gold.Chemscore.Hbond>
2.0835

> <Gold.Chemscore.Metal>
0.0000

> <Gold.Chemscore.Lipo>
65.1379

> <Gold.Chemscore.Internal_Hbond>
0.0000

> <Gold.Chemscore.DEClash>
0.0385

> <Gold.Chemscore.DEInternal>
1.8171

> <Gold.Chemscore.Rot>
3.3611

> <Gold.Chemscore.Internal.Correction>
   9.000000E+99

> <Gold.Chemscore.Hbonds>
donor molecule, donor type, donor heavy atom, donor atom, acceptor molecule, acceptor atom, score
      L1  H     5    56       P1 10957  0.69
      L1  H    20    43       P1  7957  0.40
      P1  H  7989  7998       L1    20  0.01
      P1  H  8011  8017       L1    20  0.12

> <Gold.Chemscore.Hbond.Weighted>
-6.9588

> <Gold.Chemscore.Metal.Weighted>
-0.0000

> <Gold.Chemscore.Lipo.Weighted>
-7.6211

> <Gold.Chemscore.Internal_Hbond.Weighted>
0.0000

> <Gold.Chemscore.DEClash.Weighted>
0.0385

> <Gold.Chemscore.DEInternal.Weighted>
1.8171

> <Gold.Chemscore.Rot.Weighted>
8.6045

> <Gold.Chemscore.Internal.Correction.Weighted>
   9.000000E+99

> <Gold.Protein.RotatedTorsions>
[ 6907 6896 6895 6894 ] final  148.84 input  -60.11 | X-H torsion
[ 7974 7965 7964 7962 ] final -105.99 input  175.53 | X-H torsion
[ 8008 7997 7996 7995 ] final   45.10 input   59.86 | X-H torsion
[ 10167 10162 10161 10158 ] final   15.32 input  -65.29 | X-H torsion
[ 10718 10713 10712 10709 ] final   26.09 input   66.30 | X-H torsion
[ 10763 10752 10751 10750 ] final  170.14 input  -60.55 | X-H torsion
[ 11005 11000 10999 10996 ] final -162.55 input  -57.11 | X-H torsion

> <Gold.Protein.ActiveResidues>
 VAL166  LYS551  ARG553  GLY616  TRP617  ASP618  TYR619  PRO620  LYS621  CYS622 
 ASP623  PHE694  ASN695  SER759  ASP760  ASP761  ALA762  ILE779  LEU786  VAL792 
 PHE793  MET794  SER795  GLU796  ALA797  LYS798  CYS799  TRP800  GLU811  SER814 

> <Gold.Protein.RotatedAtoms>
  152.1360  133.4436  159.4743 H   0  0  0  0  0  0  0  0  0  0  0  0  # atno 6907 bound_to 6896
  150.6882  134.2363  159.4463 H   0  0  0  0  0  0  0  0  0  0  0  0  # atno 6908 bound_to 6896
  152.0250  134.9800  160.0622 H   0  0  0  0  0  0  0  0  0  0  0  0  # atno 6909 bound_to 6896
  145.2235  140.9143  143.3246 H   0  0  0  0  0  0  0  0  0  0  0  0  # atno 7974 bound_to 7965
  155.3303  140.3402  155.4239 H   0  0  0  0  0  0  0  0  0  0  0  0  # atno 8008 bound_to 7997
  156.1865  140.1682  156.8212 H   0  0  0  0  0  0  0  0  0  0  0  0  # atno 8009 bound_to 7997
  154.5392  140.0728  156.8464 H   0  0  0  0  0  0  0  0  0  0  0  0  # atno 8010 bound_to 7997
  140.5875  143.8861  150.6843 H   0  0  0  0  0  0  0  0  0  0  0  0  # atno 10167 bound_to 10162
  157.2021  130.6895  149.6193 H   0  0  0  0  0  0  0  0  0  0  0  0  # atno 10718 bound_to 10713
  154.3933  135.2754  155.2141 H   0  0  0  0  0  0  0  0  0  0  0  0  # atno 10763 bound_to 10752
  154.4198  135.6003  153.6006 H   0  0  0  0  0  0  0  0  0  0  0  0  # atno 10764 bound_to 10752
  152.9832  135.5969  154.4191 H   0  0  0  0  0  0  0  0  0  0  0  0  # atno 10765 bound_to 10752
  140.6080  134.4878  157.5212 H   0  0  0  0  0  0  0  0  0  0  0  0  # atno 11005 bound_to 11000
  144.9743  139.3848  143.6293 LP  0  0  0  0  0  0  0  0  0  0  0  0  # atno 17320 bound_to 7965
  146.3370  139.8855  142.8817 LP  0  0  0  0  0  0  0  0  0  0  0  0  # atno 17321 bound_to 7965
  140.2375  143.3688  152.1514 LP  0  0  0  0  0  0  0  0  0  0  0  0  # atno 17342 bound_to 10162
  139.5207  144.7036  151.5421 LP  0  0  0  0  0  0  0  0  0  0  0  0  # atno 17343 bound_to 10162
  155.9699  130.4579  150.5980 LP  0  0  0  0  0  0  0  0  0  0  0  0  # atno 17370 bound_to 10713
  157.3756  131.0772  151.1520 LP  0  0  0  0  0  0  0  0  0  0  0  0  # atno 17371 bound_to 10713
  139.9204  134.8161  156.1230 LP  0  0  0  0  0  0  0  0  0  0  0  0  # atno 17394 bound_to 11000
  141.0827  133.6747  156.2370 LP  0  0  0  0  0  0  0  0  0  0  0  0  # atno 17395 bound_to 11000

$$$$
