AV-unprocessed.smi:3117|AV-procd|sdf|11885|dock1
  -GOLD-   2272017273D 1   1.00000     0.00000
 Structure written by MMmdl.
 36 36  0  0  0  0  0  0  0  0  1 V2000
  150.7733  140.2812  157.9054 C   0  0  0  0  0  0  0  0  0  0  0  0
  151.1049  141.6130  157.2122 C   0  0  1  0  0  0  0  0  0  0  0  0
  150.6461  141.5257  155.8186 N   0  0  0  0  0  0  0  0  0  0  0  0
  149.2025  141.4170  155.6084 C   0  0  0  0  0  0  0  0  0  0  0  0
  148.8614  140.4918  154.4225 C   0  0  0  0  0  0  0  0  0  0  0  0
  149.5236  139.1083  154.5498 C   0  0  0  0  0  0  0  0  0  0  0  0
  147.3438  140.3819  154.1902 C   0  0  0  0  0  0  0  0  0  0  0  0
  149.4084  141.1008  153.2706 O   0  0  0  0  0  0  0  0  0  0  0  0
  150.5361  142.8231  158.0162 C   0  0  1  0  0  0  0  0  0  0  0  0
  149.0268  142.7318  158.3238 C   0  0  0  0  0  0  0  0  0  0  0  0
  151.3429  143.1877  159.1801 N   0  0  0  0  0  0  0  0  0  0  0  0
  151.1994  144.2907  159.9976 C   0  0  0  0  0  0  0  0  0  0  0  0
  152.1908  144.2427  160.9352 C   0  0  0  0  0  0  0  0  0  0  0  0
  152.9101  143.0616  160.6039 C   0  0  0  0  0  0  0  0  0  0  0  0
  152.4035  142.4351  159.5554 N   0  0  0  0  0  0  0  0  0  0  0  0
  151.1487  140.2625  158.9289 H   0  0  0  0  0  0  0  0  0  0  0  0
  151.2294  139.4419  157.3794 H   0  0  0  0  0  0  0  0  0  0  0  0
  149.6987  140.1018  157.9405 H   0  0  0  0  0  0  0  0  0  0  0  0
  152.1928  141.6905  157.2152 H   0  0  0  0  0  0  0  0  0  0  0  0
  150.9992  142.3219  155.2979 H   0  0  0  0  0  0  0  0  0  0  0  0
  148.7192  141.0226  156.4986 H   0  0  0  0  0  0  0  0  0  0  0  0
  148.7798  142.4071  155.4325 H   0  0  0  0  0  0  0  0  0  0  0  0
  149.1294  138.5545  155.4025 H   0  0  0  0  0  0  0  0  0  0  0  0
  150.6027  139.1945  154.6826 H   0  0  0  0  0  0  0  0  0  0  0  0
  149.3480  138.5019  153.6604 H   0  0  0  0  0  0  0  0  0  0  0  0
  146.8476  139.8944  155.0298 H   0  0  0  0  0  0  0  0  0  0  0  0
  147.1202  139.7981  153.2965 H   0  0  0  0  0  0  0  0  0  0  0  0
  146.8881  141.3650  154.0665 H   0  0  0  0  0  0  0  0  0  0  0  0
  149.3880  140.4744  152.5633 H   0  0  0  0  0  0  0  0  0  0  0  0
  150.6007  143.6830  157.3477 H   0  0  0  0  0  0  0  0  0  0  0  0
  148.4556  142.5563  157.4121 H   0  0  0  0  0  0  0  0  0  0  0  0
  148.6660  143.6657  158.7558 H   0  0  0  0  0  0  0  0  0  0  0  0
  148.7748  141.9381  159.0229 H   0  0  0  0  0  0  0  0  0  0  0  0
  150.4109  145.0127  159.8449 H   0  0  0  0  0  0  0  0  0  0  0  0
  152.3766  144.9465  161.7329 H   0  0  0  0  0  0  0  0  0  0  0  0
  153.7799  142.6445  161.0895 H   0  0  0  0  0  0  0  0  0  0  0  0
  1  2  1  0  0  0  0
  1 16  1  0  0  0  0
  1 17  1  0  0  0  0
  1 18  1  0  0  0  0
  2  3  1  0  0  0  0
  2  9  1  0  0  0  0
  2 19  1  0  0  0  0
  3  4  1  0  0  0  0
  3 20  1  0  0  0  0
  4  5  1  0  0  0  0
  4 21  1  0  0  0  0
  4 22  1  0  0  0  0
  5  6  1  0  0  0  0
  5  7  1  0  0  0  0
  5  8  1  0  0  0  0
  6 23  1  0  0  0  0
  6 24  1  0  0  0  0
  6 25  1  0  0  0  0
  7 26  1  0  0  0  0
  7 27  1  0  0  0  0
  7 28  1  0  0  0  0
  8 29  1  0  0  0  0
  9 10  1  0  0  0  0
  9 11  1  0  0  0  0
  9 30  1  0  0  0  0
 10 31  1  0  0  0  0
 10 32  1  0  0  0  0
 10 33  1  0  0  0  0
 11 15  1  0  0  0  0
 11 12  1  0  0  0  0
 12 13  2  0  0  0  0
 12 34  1  0  0  0  0
 13 14  1  0  0  0  0
 13 35  1  0  0  0  0
 14 15  2  0  0  0  0
 14 36  1  0  0  0  0
M  END
> <s_m_source_file>
AV-unprocessed.smi

> <i_m_source_file_index>
3117

> <i_lp_mmshare_version>
43012

> <i_f3d_flags>
0

> <s_epik_input>
W0NIM11DKFtDSDNdKShbT0hdKVtDSDJdW05IXVtDQEBIXShbQ0gzXSlbQ0BIXShbQ0gzXSluMVtjSF1bY0hdW2NIXW4x

> <s_epik_cmdline>
J2VwaWtfcHl0aG9uJywgJy1waCcsICc3LjAnLCAnLXRuJywgJzgnLCAnLW1hJywgJzIwMCcsICctbWV0YWxfYmluZGluZycsICctaW1hZScsICc8aW5maWxlLm1hZT4nLCAnLW9tYWUnLCAnPG91dGZpbGUubWFlPic=

> <r_lp_tautomer_probability>
1

> <r_epik_Ionization_Penalty>
2.13419

> <r_epik_Ionization_Penalty_Charging>
0

> <r_epik_Ionization_Penalty_Neutral>
2.13419

> <r_epik_State_Penalty>
2.27148

> <r_epik_Charging_Adjusted_Penalty>
2.27148

> <i_epik_Tot_Q>
0

> <i_epik_Tot_abs_Q>
0

> <r_epik_Metal_State_Penalty>
2.27029

> <b_epik_Metal_Only>
0

> <s_lp_Force_Field>
OPLS_2005

> <r_lp_Energy>
16.3619

> <b_lp_Chiralities_Consistent>
1

> <s_lp_Variant>
AV-unprocessed.smi:3117-8

> <Gold.Version>
5.8.1

> <Gold.Id.Protein>
6NUR|6NUR_protein|mol2

> <Gold.PLP.Fitness>
36.9569

> <Gold.PLP.PLP>
-32.0332

> <Gold.PLP.part.hbond>
-2.5348

> <Gold.PLP.part.metal>
0.0000

> <Gold.PLP.part.buried>
-5.2611

> <Gold.PLP.part.nonpolar>
-24.1085

> <Gold.PLP.part.repulsive>
0.0000

> <Gold.PLP.ligand.clash>
0.0000

> <Gold.PLP.ligand.torsion>
0.5754

> <Gold.PLP.Chemscore.Hbond>
1.8677

> <Gold.PLP.Chemscore.CHOScore>
0.0000

> <Gold.PLP.Chemscore.Metal>
0.0000

> <Gold.Chemscore.Hbonds>
donor molecule, donor type, donor heavy atom, donor atom, acceptor molecule, acceptor atom, score
      L1  H     8    29       P1  7957  0.88
      P1  H  7989  7998       L1     8  0.05
      P1  H  8011  8017       L1     8  0.80

> <Gold.PLP.Chemscore.Internal.Correction>
0.4715

> <Gold.Rescore>
     Score         DG    S(hbond)    S(metal)    S(lipo)     H(rot)  DE(clash)    DE(int)     intcor
     12.29     -13.94       1.38        0.00      80.70       2.19       0.02       1.63       ----

> <Gold.Chemscore.Fitness>
12.2864

> <Gold.Chemscore.DG>
-13.9386

> <Gold.Chemscore.ZeroCoef>
-5.4800

> <Gold.Chemscore.Hbond>
1.3827

> <Gold.Chemscore.Metal>
0.0000

> <Gold.Chemscore.Lipo>
80.7019

> <Gold.Chemscore.Internal_Hbond>
0.0000

> <Gold.Chemscore.DEClash>
0.0207

> <Gold.Chemscore.DEInternal>
1.6315

> <Gold.Chemscore.Rot>
2.1882

> <Gold.Chemscore.Internal.Correction>
   9.000000E+99

> <Gold.Chemscore.Hbonds>
donor molecule, donor type, donor heavy atom, donor atom, acceptor molecule, acceptor atom, score
      L1  H     8    29       P1  7957  0.83
      P1  H  8011  8017       L1     8  0.12

> <Gold.Chemscore.Hbond.Weighted>
-4.6183

> <Gold.Chemscore.Metal.Weighted>
-0.0000

> <Gold.Chemscore.Lipo.Weighted>
-9.4421

> <Gold.Chemscore.Internal_Hbond.Weighted>
0.0000

> <Gold.Chemscore.DEClash.Weighted>
0.0207

> <Gold.Chemscore.DEInternal.Weighted>
1.6315

> <Gold.Chemscore.Rot.Weighted>
5.6018

> <Gold.Chemscore.Internal.Correction.Weighted>
   9.000000E+99

> <Gold.Protein.RotatedTorsions>
[ 6907 6896 6895 6894 ] final  177.15 input  -60.11 | X-H torsion
[ 7974 7965 7964 7962 ] final    9.30 input  175.53 | X-H torsion
[ 8008 7997 7996 7995 ] final  -34.68 input   59.86 | X-H torsion
[ 10167 10162 10161 10158 ] final  145.96 input  -65.29 | X-H torsion
[ 10718 10713 10712 10709 ] final -104.16 input   66.30 | X-H torsion
[ 10763 10752 10751 10750 ] final  100.36 input  -60.55 | X-H torsion
[ 11005 11000 10999 10996 ] final  159.25 input  -57.11 | X-H torsion

> <Gold.Protein.ActiveResidues>
 VAL166  LYS551  ARG553  GLY616  TRP617  ASP618  TYR619  PRO620  LYS621  CYS622 
 ASP623  PHE694  ASN695  SER759  ASP760  ASP761  ALA762  ILE779  LEU786  VAL792 
 PHE793  MET794  SER795  GLU796  ALA797  LYS798  CYS799  TRP800  GLU811  SER814 

> <Gold.Protein.RotatedAtoms>
  151.7087  133.3312  159.3284 H   0  0  0  0  0  0  0  0  0  0  0  0  # atno 6907 bound_to 6896
  150.7703  134.6551  159.6319 H   0  0  0  0  0  0  0  0  0  0  0  0  # atno 6908 bound_to 6896
  152.3725  134.6716  160.0223 H   0  0  0  0  0  0  0  0  0  0  0  0  # atno 6909 bound_to 6896
  146.2405  139.9804  142.8437 H   0  0  0  0  0  0  0  0  0  0  0  0  # atno 7974 bound_to 7965
  154.4114  140.1677  156.2089 H   0  0  0  0  0  0  0  0  0  0  0  0  # atno 8008 bound_to 7997
  155.9461  140.3404  155.6345 H   0  0  0  0  0  0  0  0  0  0  0  0  # atno 8009 bound_to 7997
  155.6928  140.0736  157.2432 H   0  0  0  0  0  0  0  0  0  0  0  0  # atno 8010 bound_to 7997
  139.4916  144.5864  151.6770 H   0  0  0  0  0  0  0  0  0  0  0  0  # atno 10167 bound_to 10162
  156.0293  130.5502  150.7357 H   0  0  0  0  0  0  0  0  0  0  0  0  # atno 10718 bound_to 10713
  153.3130  135.4081  155.1352 H   0  0  0  0  0  0  0  0  0  0  0  0  # atno 10763 bound_to 10752
  154.8581  135.3569  154.5698 H   0  0  0  0  0  0  0  0  0  0  0  0  # atno 10764 bound_to 10752
  153.6128  135.7067  153.5399 H   0  0  0  0  0  0  0  0  0  0  0  0  # atno 10765 bound_to 10752
  140.1943  134.8384  157.2948 H   0  0  0  0  0  0  0  0  0  0  0  0  # atno 11005 bound_to 11000
  145.1597  140.9666  143.4384 LP  0  0  0  0  0  0  0  0  0  0  0  0  # atno 17320 bound_to 7965
  145.0128  139.3495  143.6111 LP  0  0  0  0  0  0  0  0  0  0  0  0  # atno 17321 bound_to 7965
  140.5481  144.0471  150.6115 LP  0  0  0  0  0  0  0  0  0  0  0  0  # atno 17342 bound_to 10162
  140.3515  143.2960  152.0481 LP  0  0  0  0  0  0  0  0  0  0  0  0  # atno 17343 bound_to 10162
  157.4938  131.0913  151.0395 LP  0  0  0  0  0  0  0  0  0  0  0  0  # atno 17370 bound_to 10713
  157.0794  130.5897  149.5417 LP  0  0  0  0  0  0  0  0  0  0  0  0  # atno 17371 bound_to 10713
  140.2124  134.4122  155.7606 LP  0  0  0  0  0  0  0  0  0  0  0  0  # atno 17394 bound_to 11000
  141.2227  133.7125  156.8359 LP  0  0  0  0  0  0  0  0  0  0  0  0  # atno 17395 bound_to 11000

$$$$
