AV-unprocessed.smi:3316|AV-procd|sdf|12758|dock4
  -GOLD-   2272019 93D 1   1.00000     0.00000
 Structure written by MMmdl.
 41 43  0  0  0  0  0  0  0  0  2 V2000
  148.5071  141.7046  153.6045 C   0  0  0  0  0  0  0  0  0  0  0  0
  149.4079  141.5277  154.8366 C   0  0  1  0  0  0  0  0  0  0  0  0
  148.6015  141.6275  156.1463 C   0  0  0  0  0  0  0  0  0  0  0  0
  149.2153  142.5904  157.0833 N   0  3  0  0  0  0  0  0  0  0  0  0
  150.6403  142.3383  157.3699 C   0  0  0  0  0  0  0  0  0  0  0  0
  150.9695  142.6618  158.8386 C   0  0  2  0  0  0  0  0  0  0  0  0
  150.6069  144.1225  159.2568 C   0  0  0  0  0  0  0  0  0  0  0  0
  151.9404  144.6723  159.8133 C   0  0  1  0  0  0  0  0  0  0  0  0
  152.2913  143.8867  161.0590 C   0  0  0  0  0  0  0  0  0  0  0  0
  152.6237  142.6542  160.6702 C   0  0  0  0  0  0  0  0  0  0  0  0
  152.4853  142.6045  159.1624 C   0  0  2  0  0  0  0  0  0  0  0  0
  152.9136  144.0371  158.8165 C   0  0  0  0  0  0  0  0  0  0  0  0
  150.2029  140.2294  154.7569 C   0  0  0  0  0  0  0  0  0  0  0  0
  151.3256  140.0234  155.5866 C   0  0  0  0  0  0  0  0  0  0  0  0
  152.0200  138.8006  155.4918 C   0  0  0  0  0  0  0  0  0  0  0  0
  151.6638  137.8093  154.6478 N   0  0  0  0  0  0  0  0  0  0  0  0
  150.5909  138.0111  153.8540 C   0  0  0  0  0  0  0  0  0  0  0  0
  149.8293  139.1966  153.8694 C   0  0  0  0  0  0  0  0  0  0  0  0
  149.0937  141.6844  152.6853 H   0  0  0  0  0  0  0  0  0  0  0  0
  147.9806  142.6589  153.6361 H   0  0  0  0  0  0  0  0  0  0  0  0
  147.7571  140.9160  153.5376 H   0  0  0  0  0  0  0  0  0  0  0  0
  150.1214  142.3534  154.8286 H   0  0  0  0  0  0  0  0  0  0  0  0
  147.5794  141.9451  155.9363 H   0  0  0  0  0  0  0  0  0  0  0  0
  148.5357  140.6489  156.6238 H   0  0  0  0  0  0  0  0  0  0  0  0
  149.1383  143.5124  156.6776 H   0  0  0  0  0  0  0  0  0  0  0  0
  150.8604  141.2907  157.1612 H   0  0  0  0  0  0  0  0  0  0  0  0
  151.2563  142.9340  156.6956 H   0  0  0  0  0  0  0  0  0  0  0  0
  150.4413  141.9470  159.4729 H   0  0  0  0  0  0  0  0  0  0  0  0
  150.2796  144.7158  158.4018 H   0  0  0  0  0  0  0  0  0  0  0  0
  149.8101  144.1512  160.0011 H   0  0  0  0  0  0  0  0  0  0  0  0
  152.0132  145.7554  159.9158 H   0  0  0  0  0  0  0  0  0  0  0  0
  152.2445  144.2738  162.0663 H   0  0  0  0  0  0  0  0  0  0  0  0
  152.9037  141.8173  161.2929 H   0  0  0  0  0  0  0  0  0  0  0  0
  153.0584  141.8114  158.6813 H   0  0  0  0  0  0  0  0  0  0  0  0
  152.7351  144.3247  157.7794 H   0  0  0  0  0  0  0  0  0  0  0  0
  153.9597  144.2381  159.0576 H   0  0  0  0  0  0  0  0  0  0  0  0
  151.6538  140.7815  156.2826 H   0  0  0  0  0  0  0  0  0  0  0  0
  152.8832  138.6132  156.1133 H   0  0  0  0  0  0  0  0  0  0  0  0
  150.3289  137.2027  153.1877 H   0  0  0  0  0  0  0  0  0  0  0  0
  148.9786  139.3038  153.2126 H   0  0  0  0  0  0  0  0  0  0  0  0
  148.6993  142.5769  157.9515 H   0  0  0  0  0  0  0  0  0  0  0  0
  1  2  1  0  0  0  0
  1 19  1  0  0  0  0
  1 20  1  0  0  0  0
  1 21  1  0  0  0  0
  2  3  1  0  0  0  0
  2 13  1  0  0  0  0
  2 22  1  0  0  0  0
  3  4  1  0  0  0  0
  3 23  1  0  0  0  0
  3 24  1  0  0  0  0
  4  5  1  0  0  0  0
  4 25  1  0  0  0  0
  4 41  1  0  0  0  0
  5  6  1  0  0  0  0
  5 26  1  0  0  0  0
  5 27  1  0  0  0  0
  6 11  1  0  0  0  0
  6  7  1  0  0  0  0
  6 28  1  0  0  0  0
  7  8  1  0  0  0  0
  7 29  1  0  0  0  0
  7 30  1  0  0  0  0
  8 12  1  0  0  0  0
  8  9  1  0  0  0  0
  8 31  1  0  0  0  0
  9 10  2  0  0  0  0
  9 32  1  0  0  0  0
 10 11  1  0  0  0  0
 10 33  1  0  0  0  0
 11 12  1  0  0  0  0
 11 34  1  0  0  0  0
 12 35  1  0  0  0  0
 12 36  1  0  0  0  0
 13 18  1  0  0  0  0
 13 14  2  0  0  0  0
 14 15  1  0  0  0  0
 14 37  1  0  0  0  0
 15 16  2  0  0  0  0
 15 38  1  0  0  0  0
 16 17  1  0  0  0  0
 17 18  2  0  0  0  0
 17 39  1  0  0  0  0
 18 40  1  0  0  0  0
M  CHG  1   4   1
M  END
> <s_m_source_file>
AV-unprocessed.smi

> <i_m_source_file_index>
3316

> <i_lp_mmshare_version>
43012

> <i_f3d_flags>
0

> <s_epik_input>
W2NIXTFbY0hdbltjSF1bY0hdYzFbQ0BIXShbQ0gzXSlbQ0gyXVtOSF1bQ0gyXVtDQEhdKFtDSDJdW0NASF0yMylbQ0BIXShbQ0gyXTMpW0NIXT1bQ0hdMg==

> <s_epik_cmdline>
J2VwaWtfcHl0aG9uJywgJy1waCcsICc3LjAnLCAnLXRuJywgJzgnLCAnLW1hJywgJzIwMCcsICctbWV0YWxfYmluZGluZycsICctaW1hZScsICc8aW5maWxlLm1hZT4nLCAnLW9tYWUnLCAnPG91dGZpbGUubWFlPic=

> <r_lp_tautomer_probability>
1

> <r_epik_Ionization_Penalty>
0.00280406

> <r_epik_Ionization_Penalty_Charging>
0.000446589

> <r_epik_Ionization_Penalty_Neutral>
0.00235747

> <r_epik_State_Penalty>
-0

> <r_epik_Charging_Adjusted_Penalty>
0.000446589

> <i_epik_Tot_Q>
1

> <i_epik_Tot_abs_Q>
1

> <r_epik_Metal_State_Penalty>
-0

> <b_epik_Metal_Only>
0

> <s_lp_Force_Field>
OPLS_2005

> <r_lp_Energy>
65.494

> <b_lp_Chiralities_Consistent>
1

> <s_lp_Variant>
AV-unprocessed.smi:3316-6

> <Gold.Version>
5.8.1

> <Gold.Id.Protein>
6NUR|6NUR_protein|mol2

> <Gold.PLP.Fitness>
56.3033

> <Gold.PLP.PLP>
-48.9063

> <Gold.PLP.part.hbond>
-1.8140

> <Gold.PLP.part.metal>
0.0000

> <Gold.PLP.part.buried>
-2.6735

> <Gold.PLP.part.nonpolar>
-45.2957

> <Gold.PLP.part.repulsive>
0.0821

> <Gold.PLP.ligand.clash>
0.0000

> <Gold.PLP.ligand.torsion>
1.2976

> <Gold.PLP.Chemscore.Hbond>
2.1924

> <Gold.PLP.Chemscore.CHOScore>
1.0876

> <Gold.PLP.Chemscore.Metal>
0.0000

> <Gold.Chemscore.Hbonds>
donor molecule, donor type, donor heavy atom, donor atom, acceptor molecule, acceptor atom, score
      L1  H     4    25       P1  8028  2.00
      L1  C    17    39       P1  7948  0.56
      L1  C    17    39       P1  7949  0.20

> <Gold.PLP.Chemscore.Internal.Correction>
0.1521

> <Gold.Rescore>
     Score         DG    S(hbond)    S(metal)    S(lipo)     H(rot)  DE(clash)    DE(int)     intcor
     22.37     -23.68       1.60        0.00     139.83       1.36       0.02       1.29       ----

> <Gold.Chemscore.Fitness>
22.3702

> <Gold.Chemscore.DG>
-23.6828

> <Gold.Chemscore.ZeroCoef>
-5.4800

> <Gold.Chemscore.Hbond>
1.5972

> <Gold.Chemscore.Metal>
0.0000

> <Gold.Chemscore.Lipo>
139.8289

> <Gold.Chemscore.Internal_Hbond>
0.0000

> <Gold.Chemscore.DEClash>
0.0233

> <Gold.Chemscore.DEInternal>
1.2892

> <Gold.Chemscore.Rot>
1.3640

> <Gold.Chemscore.Internal.Correction>
   9.000000E+99

> <Gold.Chemscore.Hbonds>
donor molecule, donor type, donor heavy atom, donor atom, acceptor molecule, acceptor atom, score
      L1  H     4    25       P1  8028  0.93

> <Gold.Chemscore.Hbond.Weighted>
-5.3347

> <Gold.Chemscore.Metal.Weighted>
-0.0000

> <Gold.Chemscore.Lipo.Weighted>
-16.3600

> <Gold.Chemscore.Internal_Hbond.Weighted>
0.0000

> <Gold.Chemscore.DEClash.Weighted>
0.0233

> <Gold.Chemscore.DEInternal.Weighted>
1.2892

> <Gold.Chemscore.Rot.Weighted>
3.4919

> <Gold.Chemscore.Internal.Correction.Weighted>
   9.000000E+99

> <Gold.Protein.RotatedTorsions>
[ 6907 6896 6895 6894 ] final   71.71 input  -60.11 | X-H torsion
[ 7974 7965 7964 7962 ] final  157.02 input  175.53 | X-H torsion
[ 8008 7997 7996 7995 ] final  113.13 input   59.86 | X-H torsion
[ 10167 10162 10161 10158 ] final   92.97 input  -65.29 | X-H torsion
[ 10718 10713 10712 10709 ] final  164.92 input   66.30 | X-H torsion
[ 10763 10752 10751 10750 ] final -176.82 input  -60.55 | X-H torsion
[ 11005 11000 10999 10996 ] final   84.24 input  -57.11 | X-H torsion

> <Gold.Protein.ActiveResidues>
 VAL166  LYS551  ARG553  GLY616  TRP617  ASP618  TYR619  PRO620  LYS621  CYS622 
 ASP623  PHE694  ASN695  SER759  ASP760  ASP761  ALA762  ILE779  LEU786  VAL792 
 PHE793  MET794  SER795  GLU796  ALA797  LYS798  CYS799  TRP800  GLU811  SER814 

> <Gold.Protein.RotatedAtoms>
  152.4826  134.4679  159.9625 H   0  0  0  0  0  0  0  0  0  0  0  0  # atno 6907 bound_to 6896
  151.4682  133.3569  159.2827 H   0  0  0  0  0  0  0  0  0  0  0  0  # atno 6908 bound_to 6896
  150.8910  134.8339  159.7354 H   0  0  0  0  0  0  0  0  0  0  0  0  # atno 6909 bound_to 6896
  144.7928  139.7283  143.6214 H   0  0  0  0  0  0  0  0  0  0  0  0  # atno 7974 bound_to 7965
  156.2238  140.2986  156.0016 H   0  0  0  0  0  0  0  0  0  0  0  0  # atno 8008 bound_to 7997
  155.2412  140.0422  157.2992 H   0  0  0  0  0  0  0  0  0  0  0  0  # atno 8009 bound_to 7997
  154.5882  140.2394  155.7965 H   0  0  0  0  0  0  0  0  0  0  0  0  # atno 8010 bound_to 7997
  139.8225  144.6724  150.9501 H   0  0  0  0  0  0  0  0  0  0  0  0  # atno 10167 bound_to 10162
  157.0875  131.0409  151.2550 H   0  0  0  0  0  0  0  0  0  0  0  0  # atno 10718 bound_to 10713
  154.5676  135.2825  155.0858 H   0  0  0  0  0  0  0  0  0  0  0  0  # atno 10763 bound_to 10752
  154.2243  135.6385  153.5158 H   0  0  0  0  0  0  0  0  0  0  0  0  # atno 10764 bound_to 10752
  153.0048  135.5522  154.6290 H   0  0  0  0  0  0  0  0  0  0  0  0  # atno 10765 bound_to 10752
  139.9006  134.8203  156.2419 H   0  0  0  0  0  0  0  0  0  0  0  0  # atno 11005 bound_to 11000
  146.2186  139.5595  142.9633 LP  0  0  0  0  0  0  0  0  0  0  0  0  # atno 17320 bound_to 7965
  145.5750  141.0389  143.2153 LP  0  0  0  0  0  0  0  0  0  0  0  0  # atno 17321 bound_to 7965
  140.7812  143.4078  151.1043 LP  0  0  0  0  0  0  0  0  0  0  0  0  # atno 17342 bound_to 10162
  139.7737  143.8456  152.3125 LP  0  0  0  0  0  0  0  0  0  0  0  0  # atno 17343 bound_to 10162
  157.4748  130.7730  149.7358 LP  0  0  0  0  0  0  0  0  0  0  0  0  # atno 17370 bound_to 10713
  155.9907  130.3943  150.3018 LP  0  0  0  0  0  0  0  0  0  0  0  0  # atno 17371 bound_to 10713
  141.0279  133.7005  156.1380 LP  0  0  0  0  0  0  0  0  0  0  0  0  # atno 17394 bound_to 11000
  140.7139  134.4432  157.5580 LP  0  0  0  0  0  0  0  0  0  0  0  0  # atno 17395 bound_to 11000

$$$$
