AV-unprocessed.smi:283|AV-procd|sdf|2136|dock2
  -GOLD-   2262021453D 1   1.00000     0.00000
 Structure written by MMmdl.
 48 51  0  0  0  0  0  0  0  0  1 V2000
  149.9232  141.9443  156.7597 C   0  0  0  0  0  0  0  0  0  0  0  0
  150.9427  141.1578  157.5946 C   0  0  1  0  0  0  0  0  0  0  0  0
  151.9006  140.5007  156.7082 N   0  0  0  0  0  0  0  0  0  0  0  0
  151.5697  139.3891  156.0144 C   0  0  0  0  0  0  0  0  0  0  0  0
  151.1322  139.6016  154.7509 N   0  0  0  0  0  0  0  0  0  0  0  0
  150.7956  138.5682  153.9756 C   0  0  0  0  0  0  0  0  0  0  0  0
  150.8183  137.2673  154.2665 N   0  0  0  0  0  0  0  0  0  0  0  0
  151.2432  137.0404  155.5428 C   0  0  0  0  0  0  0  0  0  0  0  0
  151.6335  138.0419  156.4791 C   0  0  0  0  0  0  0  0  0  0  0  0
  151.9925  137.4341  157.6763 N   0  0  0  0  0  0  0  0  0  0  0  0
  151.8378  136.1588  157.4530 C   0  0  0  0  0  0  0  0  0  0  0  0
  151.3923  135.8298  156.1936 N   0  0  0  0  0  0  0  0  0  0  0  0
  151.1339  134.4492  155.6655 C   0  0  1  0  0  0  0  0  0  0  0  0
  151.2716  133.5132  156.6936 O   0  0  0  0  0  0  0  0  0  0  0  0
  150.0354  132.8393  156.9256 C   0  0  2  0  0  0  0  0  0  0  0  0
  150.2699  131.4247  157.4819 C   0  0  0  0  0  0  0  0  0  0  0  0
  151.3544  131.4366  158.3851 O   0  0  0  0  0  0  0  0  0  0  0  0
  149.3207  132.9113  155.5701 C   0  0  2  0  0  0  0  0  0  0  0  0
  149.7797  131.8974  154.6937 O   0  0  0  0  0  0  0  0  0  0  0  0
  149.7254  134.2851  155.0592 C   0  0  1  0  0  0  0  0  0  0  0  0
  148.7984  135.2676  155.4877 O   0  0  0  0  0  0  0  0  0  0  0  0
  151.5696  142.0646  158.6577 C   0  0  0  0  0  0  0  0  0  0  0  0
  151.1417  143.4073  158.7823 C   0  0  0  0  0  0  0  0  0  0  0  0
  151.7038  144.2534  159.7563 C   0  0  0  0  0  0  0  0  0  0  0  0
  152.6957  143.7637  160.6244 C   0  0  0  0  0  0  0  0  0  0  0  0
  153.1196  142.4263  160.5196 C   0  0  0  0  0  0  0  0  0  0  0  0
  152.5605  141.5747  159.5456 C   0  0  0  0  0  0  0  0  0  0  0  0
  153.1102  139.9369  159.4733 Cl  0  0  0  0  0  0  0  0  0  0  0  0
  151.9274  134.2841  154.9358 H   0  0  0  0  0  0  0  0  0  0  0  0
  149.4449  133.4188  157.6364 H   0  0  0  0  0  0  0  0  0  0  0  0
  148.2399  132.8042  155.6723 H   0  0  0  0  0  0  0  0  0  0  0  0
  149.7849  134.3271  153.9709 H   0  0  0  0  0  0  0  0  0  0  0  0
  149.1452  142.3735  157.3917 H   0  0  0  0  0  0  0  0  0  0  0  0
  149.4332  141.3005  156.0288 H   0  0  0  0  0  0  0  0  0  0  0  0
  150.3997  142.7622  156.2179 H   0  0  0  0  0  0  0  0  0  0  0  0
  150.3921  140.3591  158.0886 H   0  0  0  0  0  0  0  0  0  0  0  0
  152.8636  140.7601  156.8650 H   0  0  0  0  0  0  0  0  0  0  0  0
  150.4611  138.8188  152.9796 H   0  0  0  0  0  0  0  0  0  0  0  0
  152.0487  135.4156  158.2083 H   0  0  0  0  0  0  0  0  0  0  0  0
  149.3912  131.0862  158.0321 H   0  0  0  0  0  0  0  0  0  0  0  0
  150.4521  130.7059  156.6826 H   0  0  0  0  0  0  0  0  0  0  0  0
  151.4039  130.5910  158.8043 H   0  0  0  0  0  0  0  0  0  0  0  0
  149.1504  131.1924  154.6945 H   0  0  0  0  0  0  0  0  0  0  0  0
  148.0730  135.2792  154.8820 H   0  0  0  0  0  0  0  0  0  0  0  0
  150.3766  143.7996  158.1286 H   0  0  0  0  0  0  0  0  0  0  0  0
  151.3711  145.2777  159.8386 H   0  0  0  0  0  0  0  0  0  0  0  0
  153.1266  144.4108  161.3738 H   0  0  0  0  0  0  0  0  0  0  0  0
  153.8757  142.0510  161.1933 H   0  0  0  0  0  0  0  0  0  0  0  0
  1  2  1  0  0  0  0
  1 33  1  0  0  0  0
  1 34  1  0  0  0  0
  1 35  1  0  0  0  0
  2  3  1  0  0  0  0
  2 22  1  0  0  0  0
  2 36  1  0  0  0  0
  3  4  1  0  0  0  0
  3 37  1  0  0  0  0
  4  9  1  0  0  0  0
  4  5  2  0  0  0  0
  5  6  1  0  0  0  0
  6  7  2  0  0  0  0
  6 38  1  0  0  0  0
  7  8  1  0  0  0  0
  8 12  1  0  0  0  0
  8  9  2  0  0  0  0
  9 10  1  0  0  0  0
 10 11  2  0  0  0  0
 11 12  1  0  0  0  0
 11 39  1  0  0  0  0
 12 13  1  0  0  0  0
 13 29  1  0  0  0  0
 13 20  1  0  0  0  0
 13 14  1  0  0  0  0
 14 15  1  0  0  0  0
 15 30  1  0  0  0  0
 15 16  1  0  0  0  0
 15 18  1  0  0  0  0
 16 17  1  0  0  0  0
 16 40  1  0  0  0  0
 16 41  1  0  0  0  0
 17 42  1  0  0  0  0
 18 31  1  0  0  0  0
 18 19  1  0  0  0  0
 18 20  1  0  0  0  0
 19 43  1  0  0  0  0
 20 32  1  0  0  0  0
 20 21  1  0  0  0  0
 21 44  1  0  0  0  0
 22 27  1  0  0  0  0
 22 23  2  0  0  0  0
 23 24  1  0  0  0  0
 23 45  1  0  0  0  0
 24 25  2  0  0  0  0
 24 46  1  0  0  0  0
 25 26  1  0  0  0  0
 25 47  1  0  0  0  0
 26 27  2  0  0  0  0
 26 48  1  0  0  0  0
 27 28  1  0  0  0  0
M  END
> <s_m_source_file>
AV-unprocessed.smi

> <i_m_source_file_index>
283

> <i_lp_mmshare_version>
43012

> <i_f3d_flags>
0

> <s_epik_input>
Q2xjMVtjSF1bY0hdW2NIXVtjSF1jMVtDQEhdKFtDSDNdKVtOSF1jKG5bY0hdbjIpYyhjMjMpbltjSF1uM1tDQEBIXTRPW0NASF0oW0NIMl1bT0hdKVtDQEBIXShbT0hdKVtDQEhdNFtPSF0=

> <s_epik_cmdline>
J2VwaWtfcHl0aG9uJywgJy1waCcsICc3LjAnLCAnLXRuJywgJzgnLCAnLW1hJywgJzIwMCcsICctbWV0YWxfYmluZGluZycsICctaW1hZScsICc8aW5maWxlLm1hZT4nLCAnLW9tYWUnLCAnPG91dGZpbGUubWFlPic=

> <r_lp_tautomer_probability>
1

> <r_epik_Ionization_Penalty>
0.000266407

> <r_epik_Ionization_Penalty_Charging>
0

> <r_epik_Ionization_Penalty_Neutral>
0.000266407

> <r_epik_State_Penalty>
-0

> <r_epik_Charging_Adjusted_Penalty>
0

> <i_epik_Tot_Q>
0

> <i_epik_Tot_abs_Q>
0

> <r_epik_Metal_State_Penalty>
-0

> <b_epik_Metal_Only>
0

> <s_epik_Chemistry_Notes>
This compound contains an acetal/aminal-like group ( X-CH(R)-Y where X, Y are N, S, or O) that may be acid/base labile, releasing an aldehyde.

> <s_lp_Force_Field>
OPLS_2005

> <r_lp_Energy>
46.6605

> <b_lp_Chiralities_Consistent>
1

> <s_lp_Variant>
AV-unprocessed.smi:283-12

> <Gold.Version>
5.8.1

> <Gold.Id.Protein>
6NUR|6NUR_protein|mol2

> <Gold.PLP.Fitness>
45.1953

> <Gold.PLP.PLP>
-38.8349

> <Gold.PLP.part.hbond>
-2.6702

> <Gold.PLP.part.metal>
0.0000

> <Gold.PLP.part.buried>
-4.6960

> <Gold.PLP.part.nonpolar>
-32.1833

> <Gold.PLP.part.repulsive>
0.6969

> <Gold.PLP.ligand.clash>
0.0000

> <Gold.PLP.ligand.torsion>
1.3611

> <Gold.PLP.Chemscore.Hbond>
2.0000

> <Gold.PLP.Chemscore.CHOScore>
1.0000

> <Gold.PLP.Chemscore.Metal>
0.0000

> <Gold.Chemscore.Hbonds>
donor molecule, donor type, donor heavy atom, donor atom, acceptor molecule, acceptor atom, score
      P1  H  6896  6907       L1    17  0.94
      P1  H  7989  7998       L1     5  1.00
      L1  C     6    38       P1  7957  1.00

> <Gold.PLP.Chemscore.Internal.Correction>
0.0826

> <Gold.Rescore>
     Score         DG    S(hbond)    S(metal)    S(lipo)     H(rot)  DE(clash)    DE(int)     intcor
      9.44     -12.32       1.60        0.00     102.30       4.10       0.39       2.49       ----

> <Gold.Chemscore.Fitness>
9.4423

> <Gold.Chemscore.DG>
-12.3156

> <Gold.Chemscore.ZeroCoef>
-5.4800

> <Gold.Chemscore.Hbond>
1.6031

> <Gold.Chemscore.Metal>
0.0000

> <Gold.Chemscore.Lipo>
102.3014

> <Gold.Chemscore.Internal_Hbond>
0.0000

> <Gold.Chemscore.DEClash>
0.3870

> <Gold.Chemscore.DEInternal>
2.4862

> <Gold.Chemscore.Rot>
4.0968

> <Gold.Chemscore.Internal.Correction>
   9.000000E+99

> <Gold.Chemscore.Hbonds>
donor molecule, donor type, donor heavy atom, donor atom, acceptor molecule, acceptor atom, score
      P1  H  6896  6907       L1    17  0.74
      P1  H  7989  7998       L1     5  0.35

> <Gold.Chemscore.Hbond.Weighted>
-5.3542

> <Gold.Chemscore.Metal.Weighted>
-0.0000

> <Gold.Chemscore.Lipo.Weighted>
-11.9693

> <Gold.Chemscore.Internal_Hbond.Weighted>
0.0000

> <Gold.Chemscore.DEClash.Weighted>
0.3870

> <Gold.Chemscore.DEInternal.Weighted>
2.4862

> <Gold.Chemscore.Rot.Weighted>
10.4879

> <Gold.Chemscore.Internal.Correction.Weighted>
   9.000000E+99

> <Gold.Protein.RotatedTorsions>
[ 6907 6896 6895 6894 ] final -176.61 input  -60.11 | X-H torsion
[ 7974 7965 7964 7962 ] final  123.76 input  175.53 | X-H torsion
[ 8008 7997 7996 7995 ] final -162.69 input   59.86 | X-H torsion
[ 10167 10162 10161 10158 ] final  163.24 input  -65.29 | X-H torsion
[ 10718 10713 10712 10709 ] final    5.76 input   66.30 | X-H torsion
[ 10763 10752 10751 10750 ] final  -19.07 input  -60.55 | X-H torsion
[ 11005 11000 10999 10996 ] final   86.96 input  -57.11 | X-H torsion

> <Gold.Protein.ActiveResidues>
 VAL166  LYS551  ARG553  GLY616  TRP617  ASP618  TYR619  PRO620  LYS621  CYS622 
 ASP623  PHE694  ASN695  SER759  ASP760  ASP761  ALA762  ILE779  LEU786  VAL792 
 PHE793  MET794  SER795  GLU796  ALA797  LYS798  CYS799  TRP800  GLU811  SER814 

> <Gold.Protein.RotatedAtoms>
  151.6075  133.3350  159.3060 H   0  0  0  0  0  0  0  0  0  0  0  0  # atno 6907 bound_to 6896
  150.8174  134.7367  159.6753 H   0  0  0  0  0  0  0  0  0  0  0  0  # atno 6908 bound_to 6896
  152.4269  134.5856  160.0011 H   0  0  0  0  0  0  0  0  0  0  0  0  # atno 6909 bound_to 6896
  145.0922  139.3578  143.4854 H   0  0  0  0  0  0  0  0  0  0  0  0  # atno 7974 bound_to 7965
  155.8105  140.0905  157.1906 H   0  0  0  0  0  0  0  0  0  0  0  0  # atno 8008 bound_to 7997
  154.3980  140.1455  156.3440 H   0  0  0  0  0  0  0  0  0  0  0  0  # atno 8009 bound_to 7997
  155.8370  140.3440  155.5610 H   0  0  0  0  0  0  0  0  0  0  0  0  # atno 8010 bound_to 7997
  139.4871  144.4357  151.9015 H   0  0  0  0  0  0  0  0  0  0  0  0  # atno 10167 bound_to 10162
  156.9122  130.5760  149.5647 H   0  0  0  0  0  0  0  0  0  0  0  0  # atno 10718 bound_to 10713
  153.5992  135.7000  153.5391 H   0  0  0  0  0  0  0  0  0  0  0  0  # atno 10763 bound_to 10752
  153.3112  135.4101  155.1337 H   0  0  0  0  0  0  0  0  0  0  0  0  # atno 10764 bound_to 10752
  154.8586  135.3672  154.5526 H   0  0  0  0  0  0  0  0  0  0  0  0  # atno 10765 bound_to 10752
  139.8931  134.8390  156.2793 H   0  0  0  0  0  0  0  0  0  0  0  0  # atno 11005 bound_to 11000
  146.3531  140.0762  142.8620 LP  0  0  0  0  0  0  0  0  0  0  0  0  # atno 17320 bound_to 7965
  145.1052  140.9371  143.4689 LP  0  0  0  0  0  0  0  0  0  0  0  0  # atno 17321 bound_to 7965
  140.3807  144.2740  150.5909 LP  0  0  0  0  0  0  0  0  0  0  0  0  # atno 17342 bound_to 10162
  140.5236  143.2260  151.8350 LP  0  0  0  0  0  0  0  0  0  0  0  0  # atno 17343 bound_to 10162
  156.0531  130.5597  150.9032 LP  0  0  0  0  0  0  0  0  0  0  0  0  # atno 17370 bound_to 10713
  157.5960  131.0943  150.9039 LP  0  0  0  0  0  0  0  0  0  0  0  0  # atno 17371 bound_to 10713
  141.0049  133.7129  156.1019 LP  0  0  0  0  0  0  0  0  0  0  0  0  # atno 17394 bound_to 11000
  140.7447  134.4111  157.5550 LP  0  0  0  0  0  0  0  0  0  0  0  0  # atno 17395 bound_to 11000

$$$$
