AV-unprocessed.smi:2146|AV-procd|sdf|8738|dock3
  -GOLD-   2272011513D 1   1.00000     0.00000
 Structure written by MMmdl.
 44 45  0  0  0  0  0  0  0  0  1 V2000
  148.1826  141.3617  153.8099 C   0  0  0  0  0  0  0  0  0  0  0  0
  148.1134  141.9699  155.2338 C   0  0  2  0  0  0  0  0  0  0  0  0
  149.2284  141.3270  156.1100 C   0  0  0  0  0  0  0  0  0  0  0  0
  150.0827  142.3044  156.7790 N   0  0  0  0  0  0  0  0  0  0  0  0
  151.1497  142.0078  157.5360 C   0  0  0  0  0  0  0  0  0  0  0  0
  151.5204  140.8535  157.7551 O   0  0  0  0  0  0  0  0  0  0  0  0
  151.8895  143.2056  158.1489 C   0  0  0  0  0  0  0  0  0  0  0  0
  152.4874  142.9151  159.4629 N   0  0  0  0  0  0  0  0  0  0  0  0
  153.4263  141.8664  159.5229 C   0  0  0  0  0  0  0  0  0  0  0  0
  154.0571  141.5114  160.6585 C   0  0  0  0  0  0  0  0  0  0  0  0
  155.0294  140.3429  160.6979 C   0  0  0  0  0  0  0  0  0  0  0  0
  156.0601  140.5841  159.8891 F   0  0  0  0  0  0  0  0  0  0  0  0
  155.5026  140.1497  161.9292 F   0  0  0  0  0  0  0  0  0  0  0  0
  154.4404  139.2168  160.2940 F   0  0  0  0  0  0  0  0  0  0  0  0
  153.6977  142.2488  161.8540 C   0  0  0  0  0  0  0  0  0  0  0  0
  152.7980  143.2508  161.8149 C   0  0  0  0  0  0  0  0  0  0  0  0
  152.1384  143.6413  160.5668 C   0  0  0  0  0  0  0  0  0  0  0  0
  151.3227  144.5621  160.5171 O   0  0  0  0  0  0  0  0  0  0  0  0
  146.7634  141.8663  155.8360 N   0  0  0  0  0  0  0  0  0  0  0  0
  146.7125  142.3842  157.2083 C   0  0  0  0  0  0  0  0  0  0  0  0
  145.3052  142.3072  157.8251 C   0  0  0  0  0  0  0  0  0  0  0  0
  144.3821  143.0093  157.0043 O   0  0  0  0  0  0  0  0  0  0  0  0
  144.3413  142.4890  155.6831 C   0  0  0  0  0  0  0  0  0  0  0  0
  145.7417  142.5692  155.0513 C   0  0  0  0  0  0  0  0  0  0  0  0
  149.1868  141.3986  153.3897 H   0  0  0  0  0  0  0  0  0  0  0  0
  147.5601  141.9023  153.0984 H   0  0  0  0  0  0  0  0  0  0  0  0
  147.8663  140.3180  153.8114 H   0  0  0  0  0  0  0  0  0  0  0  0
  148.3522  143.0301  155.1363 H   0  0  0  0  0  0  0  0  0  0  0  0
  148.8185  140.6870  156.8899 H   0  0  0  0  0  0  0  0  0  0  0  0
  149.8631  140.6907  155.4926 H   0  0  0  0  0  0  0  0  0  0  0  0
  149.8441  143.2778  156.6552 H   0  0  0  0  0  0  0  0  0  0  0  0
  152.6586  143.5472  157.4538 H   0  0  0  0  0  0  0  0  0  0  0  0
  151.1860  144.0356  158.2240 H   0  0  0  0  0  0  0  0  0  0  0  0
  153.6064  141.3691  158.5808 H   0  0  0  0  0  0  0  0  0  0  0  0
  154.1606  141.9977  162.7969 H   0  0  0  0  0  0  0  0  0  0  0  0
  152.5568  143.7808  162.7246 H   0  0  0  0  0  0  0  0  0  0  0  0
  147.3716  141.8160  157.8609 H   0  0  0  0  0  0  0  0  0  0  0  0
  147.0602  143.4182  157.2263 H   0  0  0  0  0  0  0  0  0  0  0  0
  144.9886  141.2689  157.9370 H   0  0  0  0  0  0  0  0  0  0  0  0
  145.3039  142.7504  158.8208 H   0  0  0  0  0  0  0  0  0  0  0  0
  143.9822  141.4587  155.6991 H   0  0  0  0  0  0  0  0  0  0  0  0
  143.6281  143.0671  155.0956 H   0  0  0  0  0  0  0  0  0  0  0  0
  146.0239  143.6163  154.9301 H   0  0  0  0  0  0  0  0  0  0  0  0
  145.6640  142.1446  154.0523 H   0  0  0  0  0  0  0  0  0  0  0  0
  1  2  1  0  0  0  0
  1 25  1  0  0  0  0
  1 26  1  0  0  0  0
  1 27  1  0  0  0  0
  2  3  1  0  0  0  0
  2 19  1  0  0  0  0
  2 28  1  0  0  0  0
  3  4  1  0  0  0  0
  3 29  1  0  0  0  0
  3 30  1  0  0  0  0
  4  5  1  0  0  0  0
  4 31  1  0  0  0  0
  5  6  2  0  0  0  0
  5  7  1  0  0  0  0
  7  8  1  0  0  0  0
  7 32  1  0  0  0  0
  7 33  1  0  0  0  0
  8 17  1  0  0  0  0
  8  9  1  0  0  0  0
  9 10  2  0  0  0  0
  9 34  1  0  0  0  0
 10 11  1  0  0  0  0
 10 15  1  0  0  0  0
 11 12  1  0  0  0  0
 11 13  1  0  0  0  0
 11 14  1  0  0  0  0
 15 16  2  0  0  0  0
 15 35  1  0  0  0  0
 16 17  1  0  0  0  0
 16 36  1  0  0  0  0
 17 18  2  0  0  0  0
 19 24  1  0  0  0  0
 19 20  1  0  0  0  0
 20 21  1  0  0  0  0
 20 37  1  0  0  0  0
 20 38  1  0  0  0  0
 21 22  1  0  0  0  0
 21 39  1  0  0  0  0
 21 40  1  0  0  0  0
 22 23  1  0  0  0  0
 23 24  1  0  0  0  0
 23 41  1  0  0  0  0
 23 42  1  0  0  0  0
 24 43  1  0  0  0  0
 24 44  1  0  0  0  0
M  END
> <s_m_source_file>
AV-unprocessed.smi

> <i_m_source_file_index>
2146

> <i_lp_mmshare_version>
43012

> <i_f3d_flags>
0

> <s_epik_input>
W0NIMl0xW0NIMl1PW0NIMl1bQ0gyXU4xW0NASF0oW0NIM10pW0NIMl1bTkhdQyg9TylbQ0gyXW4yW2NIXWMoQyhGKShGKUYpW2NIXVtjSF1jMj1P

> <s_epik_cmdline>
J2VwaWtfcHl0aG9uJywgJy1waCcsICc3LjAnLCAnLXRuJywgJzgnLCAnLW1hJywgJzIwMCcsICctbWV0YWxfYmluZGluZycsICctaW1hZScsICc8aW5maWxlLm1hZT4nLCAnLW9tYWUnLCAnPG91dGZpbGUubWFlPic=

> <r_lp_tautomer_probability>
1

> <r_epik_Ionization_Penalty>
0.237382

> <r_epik_Ionization_Penalty_Charging>
1.80451e-08

> <r_epik_Ionization_Penalty_Neutral>
0.237382

> <r_epik_State_Penalty>
0.228245

> <r_epik_Charging_Adjusted_Penalty>
0.228245

> <i_epik_Tot_Q>
0

> <i_epik_Tot_abs_Q>
0

> <r_epik_Metal_State_Penalty>
0.22822

> <b_epik_Metal_Only>
0

> <s_lp_Force_Field>
OPLS_2005

> <r_lp_Energy>
40.571

> <b_lp_Chiralities_Consistent>
1

> <s_lp_Variant>
AV-unprocessed.smi:2146-1

> <Gold.Version>
5.8.1

> <Gold.Id.Protein>
6NUR|6NUR_protein|mol2

> <Gold.PLP.Fitness>
50.1991

> <Gold.PLP.PLP>
-49.2932

> <Gold.PLP.part.hbond>
-1.0000

> <Gold.PLP.part.metal>
0.0000

> <Gold.PLP.part.buried>
-3.2942

> <Gold.PLP.part.nonpolar>
-45.0977

> <Gold.PLP.part.repulsive>
0.3614

> <Gold.PLP.ligand.clash>
0.0000

> <Gold.PLP.ligand.torsion>
1.0984

> <Gold.PLP.Chemscore.Hbond>
1.0000

> <Gold.PLP.Chemscore.CHOScore>
0.0000

> <Gold.PLP.Chemscore.Metal>
0.0000

> <Gold.Chemscore.Hbonds>
donor molecule, donor type, donor heavy atom, donor atom, acceptor molecule, acceptor atom, score
      L1  H     4    31       P1  8028  1.00

> <Gold.PLP.Chemscore.Internal.Correction>
0.1026

> <Gold.Rescore>
     Score         DG    S(hbond)    S(metal)    S(lipo)     H(rot)  DE(clash)    DE(int)     intcor
     11.97     -14.61       0.99        0.00      95.93       2.10       0.17       2.47       ----

> <Gold.Chemscore.Fitness>
11.9725

> <Gold.Chemscore.DG>
-14.6142

> <Gold.Chemscore.ZeroCoef>
-5.4800

> <Gold.Chemscore.Hbond>
0.9868

> <Gold.Chemscore.Metal>
0.0000

> <Gold.Chemscore.Lipo>
95.9328

> <Gold.Chemscore.Internal_Hbond>
0.0000

> <Gold.Chemscore.DEClash>
0.1724

> <Gold.Chemscore.DEInternal>
2.4693

> <Gold.Chemscore.Rot>
2.1039

> <Gold.Chemscore.Internal.Correction>
   9.000000E+99

> <Gold.Chemscore.Hbonds>
donor molecule, donor type, donor heavy atom, donor atom, acceptor molecule, acceptor atom, score
      L1  H     4    31       P1  8028  0.92

> <Gold.Chemscore.Hbond.Weighted>
-3.2960

> <Gold.Chemscore.Metal.Weighted>
-0.0000

> <Gold.Chemscore.Lipo.Weighted>
-11.2241

> <Gold.Chemscore.Internal_Hbond.Weighted>
0.0000

> <Gold.Chemscore.DEClash.Weighted>
0.1724

> <Gold.Chemscore.DEInternal.Weighted>
2.4693

> <Gold.Chemscore.Rot.Weighted>
5.3860

> <Gold.Chemscore.Internal.Correction.Weighted>
   9.000000E+99

> <Gold.Protein.RotatedTorsions>
[ 6907 6896 6895 6894 ] final   -0.09 input  -60.11 | X-H torsion
[ 7974 7965 7964 7962 ] final   47.99 input  175.53 | X-H torsion
[ 8008 7997 7996 7995 ] final  148.37 input   59.86 | X-H torsion
[ 10167 10162 10161 10158 ] final  -76.80 input  -65.29 | X-H torsion
[ 10718 10713 10712 10709 ] final -147.79 input   66.30 | X-H torsion
[ 10763 10752 10751 10750 ] final  145.72 input  -60.55 | X-H torsion
[ 11005 11000 10999 10996 ] final  -45.80 input  -57.11 | X-H torsion

> <Gold.Protein.ActiveResidues>
 VAL166  LYS551  ARG553  GLY616  TRP617  ASP618  TYR619  PRO620  LYS621  CYS622 
 ASP623  PHE694  ASN695  SER759  ASP760  ASP761  ALA762  ILE779  LEU786  VAL792 
 PHE793  MET794  SER795  GLU796  ALA797  LYS798  CYS799  TRP800  GLU811  SER814 

> <Gold.Protein.RotatedAtoms>
  151.5678  135.1063  159.9987 H   0  0  0  0  0  0  0  0  0  0  0  0  # atno 6907 bound_to 6896
  152.4415  133.7453  159.6674 H   0  0  0  0  0  0  0  0  0  0  0  0  # atno 6908 bound_to 6896
  150.8322  133.8004  159.3117 H   0  0  0  0  0  0  0  0  0  0  0  0  # atno 6909 bound_to 6896
  146.0246  139.4691  142.9875 H   0  0  0  0  0  0  0  0  0  0  0  0  # atno 7974 bound_to 7965
  156.2793  140.2130  156.5687 H   0  0  0  0  0  0  0  0  0  0  0  0  # atno 8008 bound_to 7997
  154.7153  140.0508  157.0612 H   0  0  0  0  0  0  0  0  0  0  0  0  # atno 8009 bound_to 7997
  155.0550  140.3160  155.4682 H   0  0  0  0  0  0  0  0  0  0  0  0  # atno 8010 bound_to 7997
  140.4826  143.2399  151.8035 H   0  0  0  0  0  0  0  0  0  0  0  0  # atno 10167 bound_to 10162
  156.4120  130.7986  151.2204 H   0  0  0  0  0  0  0  0  0  0  0  0  # atno 10718 bound_to 10713
  154.0101  135.2915  155.3393 H   0  0  0  0  0  0  0  0  0  0  0  0  # atno 10763 bound_to 10752
  154.7108  135.5150  153.8667 H   0  0  0  0  0  0  0  0  0  0  0  0  # atno 10764 bound_to 10752
  153.0727  135.6653  154.0333 H   0  0  0  0  0  0  0  0  0  0  0  0  # atno 10765 bound_to 10752
  141.0539  133.6733  156.3065 H   0  0  0  0  0  0  0  0  0  0  0  0  # atno 11005 bound_to 11000
  145.7138  141.0097  143.1439 LP  0  0  0  0  0  0  0  0  0  0  0  0  # atno 17320 bound_to 7965
  144.7004  139.8789  143.7446 LP  0  0  0  0  0  0  0  0  0  0  0  0  # atno 17321 bound_to 7965
  139.4836  144.4753  151.9374 LP  0  0  0  0  0  0  0  0  0  0  0  0  # atno 17342 bound_to 10162
  140.3839  144.2701  150.5906 LP  0  0  0  0  0  0  0  0  0  0  0  0  # atno 17343 bound_to 10162
  157.7507  131.0254  150.3919 LP  0  0  0  0  0  0  0  0  0  0  0  0  # atno 17370 bound_to 10713
  156.4220  130.3954  149.6819 LP  0  0  0  0  0  0  0  0  0  0  0  0  # atno 17371 bound_to 10713
  140.6002  134.5562  157.5516 LP  0  0  0  0  0  0  0  0  0  0  0  0  # atno 17394 bound_to 11000
  139.9373  134.7851  156.0769 LP  0  0  0  0  0  0  0  0  0  0  0  0  # atno 17395 bound_to 11000

$$$$
