AV-unprocessed.smi:760|AV-procd|sdf|3628|dock1
  -GOLD-   22720 1 23D 1   1.00000     0.00000
 Structure written by MMmdl.
 44 45  0  0  0  0  0  0  0  0  2 V2000
  147.8023  127.6735  151.0728 C   0  0  0  0  0  0  0  0  0  0  0  0
  147.9647  128.1221  152.3287 C   0  0  0  0  0  0  0  0  0  0  0  0
  149.1881  127.7650  153.1546 C   0  0  0  0  0  0  0  0  0  0  0  0
  146.9463  129.0413  152.9859 C   0  0  0  0  0  0  0  0  0  0  0  0
  146.7405  130.3068  152.2332 N   0  3  2  0  0  0  0  0  0  0  0  0
  147.0486  131.4954  153.0701 C   0  0  0  0  0  0  0  0  0  0  0  0
  146.9849  132.7938  152.2477 C   0  0  0  0  0  0  0  0  0  0  0  0
  145.6200  132.9689  151.5562 C   0  0  2  0  0  0  0  0  0  0  0  0
  144.5573  133.2614  152.5182 N   0  0  0  0  0  0  0  0  0  0  0  0
  143.8509  134.4004  152.5643 C   0  0  0  0  0  0  0  0  0  0  0  0
  144.0264  135.3398  151.7886 O   0  0  0  0  0  0  0  0  0  0  0  0
  142.9477  134.3774  153.5578 N   0  0  0  0  0  0  0  0  0  0  0  0
  142.0313  135.4018  153.9052 C   0  0  0  0  0  0  0  0  0  0  0  0
  142.2332  136.5578  154.7119 C   0  0  0  0  0  0  0  0  0  0  0  0
  141.1241  137.2773  154.7974 N   0  0  0  0  0  0  0  0  0  0  0  0
  140.2089  136.6027  154.0602 N   0  0  0  0  0  0  0  0  0  0  0  0
  138.8654  137.1281  153.9421 C   0  0  0  0  0  0  0  0  0  0  0  0
  140.7316  135.4544  153.4994 C   0  0  0  0  0  0  0  0  0  0  0  0
  145.2883  131.7046  150.7469 C   0  0  0  0  0  0  0  0  0  0  0  0
  145.4045  130.4201  151.5887 C   0  0  0  0  0  0  0  0  0  0  0  0
  148.5343  127.0301  150.6065 H   0  0  0  0  0  0  0  0  0  0  0  0
  146.9333  127.9435  150.4906 H   0  0  0  0  0  0  0  0  0  0  0  0
  149.7618  128.6644  153.3793 H   0  0  0  0  0  0  0  0  0  0  0  0
  149.8416  127.0776  152.6161 H   0  0  0  0  0  0  0  0  0  0  0  0
  148.9145  127.2968  154.0987 H   0  0  0  0  0  0  0  0  0  0  0  0
  145.9978  128.5207  153.1278 H   0  0  0  0  0  0  0  0  0  0  0  0
  147.3194  129.2779  153.9835 H   0  0  0  0  0  0  0  0  0  0  0  0
  146.3522  131.5431  153.9088 H   0  0  0  0  0  0  0  0  0  0  0  0
  148.0474  131.3956  153.4967 H   0  0  0  0  0  0  0  0  0  0  0  0
  147.2066  133.6516  152.8839 H   0  0  0  0  0  0  0  0  0  0  0  0
  147.7690  132.7727  151.4895 H   0  0  0  0  0  0  0  0  0  0  0  0
  145.6837  133.8065  150.8590 H   0  0  0  0  0  0  0  0  0  0  0  0
  144.3393  132.5422  153.1923 H   0  0  0  0  0  0  0  0  0  0  0  0
  142.9126  133.5441  154.1261 H   0  0  0  0  0  0  0  0  0  0  0  0
  143.1177  136.9002  155.2281 H   0  0  0  0  0  0  0  0  0  0  0  0
  138.1855  136.3419  153.6124 H   0  0  0  0  0  0  0  0  0  0  0  0
  138.8517  137.9391  153.2137 H   0  0  0  0  0  0  0  0  0  0  0  0
  138.5250  137.5067  154.9068 H   0  0  0  0  0  0  0  0  0  0  0  0
  140.1464  134.7929  152.8775 H   0  0  0  0  0  0  0  0  0  0  0  0
  144.2889  131.7818  150.3166 H   0  0  0  0  0  0  0  0  0  0  0  0
  145.9748  131.6349  149.9017 H   0  0  0  0  0  0  0  0  0  0  0  0
  145.2356  129.5730  150.9262 H   0  0  0  0  0  0  0  0  0  0  0  0
  144.6253  130.3910  152.3517 H   0  0  0  0  0  0  0  0  0  0  0  0
  147.4214  130.3039  151.4870 H   0  0  0  0  0  0  0  0  0  0  0  0
  1  2  2  0  0  0  0
  1 21  1  0  0  0  0
  1 22  1  0  0  0  0
  2  3  1  0  0  0  0
  2  4  1  0  0  0  0
  3 23  1  0  0  0  0
  3 24  1  0  0  0  0
  3 25  1  0  0  0  0
  4  5  1  0  0  0  0
  4 26  1  0  0  0  0
  4 27  1  0  0  0  0
  5 20  1  0  0  0  0
  5  6  1  0  0  0  0
  5 44  1  0  0  0  0
  6  7  1  0  0  0  0
  6 28  1  0  0  0  0
  6 29  1  0  0  0  0
  7  8  1  0  0  0  0
  7 30  1  0  0  0  0
  7 31  1  0  0  0  0
  8  9  1  0  0  0  0
  8 19  1  0  0  0  0
  8 32  1  0  0  0  0
  9 10  1  0  0  0  0
  9 33  1  0  0  0  0
 10 11  2  0  0  0  0
 10 12  1  0  0  0  0
 12 13  1  0  0  0  0
 12 34  1  0  0  0  0
 13 18  2  0  0  0  0
 13 14  1  0  0  0  0
 14 15  2  0  0  0  0
 14 35  1  0  0  0  0
 15 16  1  0  0  0  0
 16 17  1  0  0  0  0
 16 18  1  0  0  0  0
 17 36  1  0  0  0  0
 17 37  1  0  0  0  0
 17 38  1  0  0  0  0
 18 39  1  0  0  0  0
 19 20  1  0  0  0  0
 19 40  1  0  0  0  0
 19 41  1  0  0  0  0
 20 42  1  0  0  0  0
 20 43  1  0  0  0  0
M  CHG  1   5   1
M  END
> <s_m_source_file>
AV-unprocessed.smi

> <i_m_source_file_index>
760

> <i_lp_mmshare_version>
43012

> <i_f3d_flags>
0

> <s_epik_input>
W0NIMl09QyhbQ0gzXSlbQ0gyXU4xW0NIMl1bQ0gyXVtDSF0oW0NIMl1bQ0gyXTEpW05IXUMoPU8pW05IXWMyW2NIXW5uKFtDSDNdKVtjSF0y

> <s_epik_cmdline>
J2VwaWtfcHl0aG9uJywgJy1waCcsICc3LjAnLCAnLXRuJywgJzgnLCAnLW1hJywgJzIwMCcsICctbWV0YWxfYmluZGluZycsICctaW1hZScsICc8aW5maWxlLm1hZT4nLCAnLW9tYWUnLCAnPG91dGZpbGUubWFlPic=

> <r_lp_tautomer_probability>
1

> <r_epik_Ionization_Penalty>
0.0194996

> <r_epik_Ionization_Penalty_Charging>
0.0193505

> <r_epik_Ionization_Penalty_Neutral>
0.000149098

> <r_epik_State_Penalty>
0.0154499

> <r_epik_Charging_Adjusted_Penalty>
0.0348004

> <i_epik_Tot_Q>
1

> <i_epik_Tot_abs_Q>
1

> <r_epik_Metal_State_Penalty>
0.0154507

> <b_epik_Metal_Only>
0

> <s_lp_Force_Field>
OPLS_2005

> <r_lp_Energy>
20.0822

> <b_lp_Chiralities_Consistent>
1

> <s_lp_Variant>
AV-unprocessed.smi:760-2

> <Gold.Version>
5.8.1

> <Gold.Id.Protein>
6NUR|6NUR_protein|mol2

> <Gold.PLP.Fitness>
44.3630

> <Gold.PLP.PLP>
-38.6725

> <Gold.PLP.part.hbond>
-2.1101

> <Gold.PLP.part.metal>
0.0000

> <Gold.PLP.part.buried>
-6.1577

> <Gold.PLP.part.nonpolar>
-30.7210

> <Gold.PLP.part.repulsive>
0.1712

> <Gold.PLP.ligand.clash>
0.0000

> <Gold.PLP.ligand.torsion>
1.4791

> <Gold.PLP.Chemscore.Hbond>
2.0175

> <Gold.PLP.Chemscore.CHOScore>
0.8409

> <Gold.PLP.Chemscore.Metal>
0.0000

> <Gold.Chemscore.Hbonds>
donor molecule, donor type, donor heavy atom, donor atom, acceptor molecule, acceptor atom, score
      L1  H     5    44       P1 10747  0.99
      L1  H     9    33       P1 10957  0.03
      L1  H    12    34       P1 10957  1.00
      L1  C    18    39       P1 10187  0.84

> <Gold.PLP.Chemscore.Internal.Correction>
0.0735

> <Gold.Rescore>
     Score         DG    S(hbond)    S(metal)    S(lipo)     H(rot)  DE(clash)    DE(int)     intcor
     18.06     -19.68       1.99        0.00      94.71       1.38       0.14       1.47       ----

> <Gold.Chemscore.Fitness>
18.0592

> <Gold.Chemscore.DG>
-19.6774

> <Gold.Chemscore.ZeroCoef>
-5.4800

> <Gold.Chemscore.Hbond>
1.9870

> <Gold.Chemscore.Metal>
0.0000

> <Gold.Chemscore.Lipo>
94.7111

> <Gold.Chemscore.Internal_Hbond>
0.0000

> <Gold.Chemscore.DEClash>
0.1439

> <Gold.Chemscore.DEInternal>
1.4742

> <Gold.Chemscore.Rot>
1.3752

> <Gold.Chemscore.Internal.Correction>
   9.000000E+99

> <Gold.Chemscore.Hbonds>
donor molecule, donor type, donor heavy atom, donor atom, acceptor molecule, acceptor atom, score
      L1  H     5    44       P1 10747  0.92
      L1  H     9    33       P1 10957  0.01
      L1  H    12    34       P1 10957  1.00

> <Gold.Chemscore.Hbond.Weighted>
-6.6366

> <Gold.Chemscore.Metal.Weighted>
-0.0000

> <Gold.Chemscore.Lipo.Weighted>
-11.0812

> <Gold.Chemscore.Internal_Hbond.Weighted>
0.0000

> <Gold.Chemscore.DEClash.Weighted>
0.1439

> <Gold.Chemscore.DEInternal.Weighted>
1.4742

> <Gold.Chemscore.Rot.Weighted>
3.5204

> <Gold.Chemscore.Internal.Correction.Weighted>
   9.000000E+99

> <Gold.Protein.RotatedTorsions>
[ 6907 6896 6895 6894 ] final  117.04 input  -60.11 | X-H torsion
[ 7974 7965 7964 7962 ] final -150.77 input  175.53 | X-H torsion
[ 8008 7997 7996 7995 ] final  -53.43 input   59.86 | X-H torsion
[ 10167 10162 10161 10158 ] final -168.24 input  -65.29 | X-H torsion
[ 10718 10713 10712 10709 ] final  -88.73 input   66.30 | X-H torsion
[ 10763 10752 10751 10750 ] final  178.65 input  -60.55 | X-H torsion
[ 11005 11000 10999 10996 ] final  -90.03 input  -57.11 | X-H torsion

> <Gold.Protein.ActiveResidues>
 VAL166  LYS551  ARG553  GLY616  TRP617  ASP618  TYR619  PRO620  LYS621  CYS622 
 ASP623  PHE694  ASN695  SER759  ASP760  ASP761  ALA762  ILE779  LEU786  VAL792 
 PHE793  MET794  SER795  GLU796  ALA797  LYS798  CYS799  TRP800  GLU811  SER814 

> <Gold.Protein.RotatedAtoms>
  152.4638  133.7880  159.6886 H   0  0  0  0  0  0  0  0  0  0  0  0  # atno 6907 bound_to 6896
  150.8594  133.7656  159.3004 H   0  0  0  0  0  0  0  0  0  0  0  0  # atno 6908 bound_to 6896
  151.5227  135.1070  159.9934 H   0  0  0  0  0  0  0  0  0  0  0  0  # atno 6909 bound_to 6896
  144.7888  140.4887  143.5787 H   0  0  0  0  0  0  0  0  0  0  0  0  # atno 7974 bound_to 7965
  154.4133  140.1200  156.5152 H   0  0  0  0  0  0  0  0  0  0  0  0  # atno 8008 bound_to 7997
  155.6758  140.3496  155.4817 H   0  0  0  0  0  0  0  0  0  0  0  0  # atno 8009 bound_to 7997
  155.9593  140.1120  157.0899 H   0  0  0  0  0  0  0  0  0  0  0  0  # atno 8010 bound_to 7997
  139.5998  144.1035  152.1730 H   0  0  0  0  0  0  0  0  0  0  0  0  # atno 10167 bound_to 10162
  155.9983  130.4846  150.5064 H   0  0  0  0  0  0  0  0  0  0  0  0  # atno 10718 bound_to 10713
  154.5104  135.2788  155.1347 H   0  0  0  0  0  0  0  0  0  0  0  0  # atno 10763 bound_to 10752
  154.2945  135.6260  153.5403 H   0  0  0  0  0  0  0  0  0  0  0  0  # atno 10764 bound_to 10752
  152.9917  135.5682  154.5568 H   0  0  0  0  0  0  0  0  0  0  0  0  # atno 10765 bound_to 10752
  141.1573  133.7667  156.9680 H   0  0  0  0  0  0  0  0  0  0  0  0  # atno 11005 bound_to 11000
  145.5850  139.1491  143.3214 LP  0  0  0  0  0  0  0  0  0  0  0  0  # atno 17320 bound_to 7965
  146.2131  140.5978  142.9050 LP  0  0  0  0  0  0  0  0  0  0  0  0  # atno 17321 bound_to 7965
  140.0629  144.5842  150.7249 LP  0  0  0  0  0  0  0  0  0  0  0  0  # atno 17342 bound_to 10162
  140.7240  143.2617  151.4182 LP  0  0  0  0  0  0  0  0  0  0  0  0  # atno 17343 bound_to 10162
  157.3042  131.0651  151.2047 LP  0  0  0  0  0  0  0  0  0  0  0  0  # atno 17370 bound_to 10713
  157.3015  130.6845  149.6167 LP  0  0  0  0  0  0  0  0  0  0  0  0  # atno 17371 bound_to 10713
  140.1148  134.9454  157.2118 LP  0  0  0  0  0  0  0  0  0  0  0  0  # atno 17394 bound_to 11000
  140.3147  134.2984  155.7259 LP  0  0  0  0  0  0  0  0  0  0  0  0  # atno 17395 bound_to 11000

$$$$
