AV-unprocessed.smi:2504|AV-procd|sdf|9850|dock4
  -GOLD-   2272013483D 1   1.00000     0.00000
 Structure written by MMmdl.
 47 49  0  0  0  0  0  0  0  0  2 V2000
  150.1807  143.2480  158.0900 O   0  0  0  0  0  0  0  0  0  0  0  0
  151.1643  142.6008  158.4512 C   0  0  0  0  0  0  0  0  0  0  0  0
  152.4357  143.3128  158.9588 C   0  0  0  0  0  0  0  0  0  0  0  0
  152.8961  142.7956  160.3324 C   0  0  0  0  0  0  0  0  0  0  0  0
  152.2594  143.7112  161.3900 C   0  0  0  0  0  0  0  0  0  0  0  0
  151.6826  144.9189  160.6388 C   0  0  0  0  0  0  0  0  0  0  0  0
  152.2024  144.8110  159.2023 C   0  0  0  0  0  0  0  0  0  0  0  0
  151.1995  141.2077  158.3379 N   0  0  0  0  0  0  0  0  0  0  0  0
  150.3515  140.5107  157.3825 C   0  0  0  0  0  0  0  0  0  0  0  0
  151.4502  139.4421  157.3589 C   0  0  0  0  0  0  0  0  0  0  0  0
  151.8650  138.8791  155.6490 S   0  0  0  0  0  0  0  0  0  0  0  0
  151.1313  139.7233  154.6937 O   0  0  0  0  0  0  0  0  0  0  0  0
  153.3200  138.7147  155.5119 O   0  0  0  0  0  0  0  0  0  0  0  0
  151.1641  137.3021  155.6048 N   0  0  0  0  0  0  0  0  0  0  0  0
  151.6291  136.2895  156.5561 C   0  0  0  0  0  0  0  0  0  0  0  0
  150.4750  135.3831  157.0182 C   0  0  0  0  0  0  0  0  0  0  0  0
  150.1456  134.2784  156.0311 C   0  0  0  0  0  0  0  0  0  0  0  0
  149.8112  134.5884  154.6942 C   0  0  0  0  0  0  0  0  0  0  0  0
  149.4907  133.5448  153.8015 C   0  0  0  0  0  0  0  0  0  0  0  0
  149.5109  132.2140  154.2661 C   0  0  0  0  0  0  0  0  0  0  0  0
  149.8372  131.9552  155.5514 N   0  3  0  0  0  0  0  0  0  0  0  0
  150.1531  132.9259  156.4365 C   0  0  0  0  0  0  0  0  0  0  0  0
  152.4042  140.4964  157.9366 C   0  0  0  0  0  0  0  0  0  0  0  0
  153.2359  143.1640  158.2327 H   0  0  0  0  0  0  0  0  0  0  0  0
  152.6436  141.7474  160.4999 H   0  0  0  0  0  0  0  0  0  0  0  0
  153.9823  142.8694  160.3970 H   0  0  0  0  0  0  0  0  0  0  0  0
  151.4688  143.1903  161.9312 H   0  0  0  0  0  0  0  0  0  0  0  0
  153.0040  144.0218  162.1236 H   0  0  0  0  0  0  0  0  0  0  0  0
  150.5933  144.8618  160.6398 H   0  0  0  0  0  0  0  0  0  0  0  0
  151.9583  145.8662  161.1030 H   0  0  0  0  0  0  0  0  0  0  0  0
  153.1513  145.3416  159.1140 H   0  0  0  0  0  0  0  0  0  0  0  0
  151.5134  145.2641  158.4884 H   0  0  0  0  0  0  0  0  0  0  0  0
  149.3997  140.1760  157.7956 H   0  0  0  0  0  0  0  0  0  0  0  0
  150.2365  141.0415  156.4349 H   0  0  0  0  0  0  0  0  0  0  0  0
  151.2458  138.6033  158.0263 H   0  0  0  0  0  0  0  0  0  0  0  0
  150.1452  137.3528  155.5894 H   0  0  0  0  0  0  0  0  0  0  0  0
  152.4319  135.6995  156.1118 H   0  0  0  0  0  0  0  0  0  0  0  0
  152.0589  136.8026  157.4167 H   0  0  0  0  0  0  0  0  0  0  0  0
  150.7341  134.9265  157.9741 H   0  0  0  0  0  0  0  0  0  0  0  0
  149.5813  135.9810  157.2028 H   0  0  0  0  0  0  0  0  0  0  0  0
  149.7938  135.6147  154.3570 H   0  0  0  0  0  0  0  0  0  0  0  0
  149.2296  133.7628  152.7762 H   0  0  0  0  0  0  0  0  0  0  0  0
  149.2767  131.3555  153.6537 H   0  0  0  0  0  0  0  0  0  0  0  0
  150.3882  132.5945  157.4372 H   0  0  0  0  0  0  0  0  0  0  0  0
  152.9941  141.0298  157.1906 H   0  0  0  0  0  0  0  0  0  0  0  0
  153.0087  140.1449  158.7731 H   0  0  0  0  0  0  0  0  0  0  0  0
  149.8440  130.9852  155.8673 H   0  0  0  0  0  0  0  0  0  0  0  0
  1  2  2  0  0  0  0
  2  3  1  0  0  0  0
  2  8  1  0  0  0  0
  3  7  1  0  0  0  0
  3  4  1  0  0  0  0
  3 24  1  0  0  0  0
  4  5  1  0  0  0  0
  4 25  1  0  0  0  0
  4 26  1  0  0  0  0
  5  6  1  0  0  0  0
  5 27  1  0  0  0  0
  5 28  1  0  0  0  0
  6  7  1  0  0  0  0
  6 29  1  0  0  0  0
  6 30  1  0  0  0  0
  7 31  1  0  0  0  0
  7 32  1  0  0  0  0
  8 23  1  0  0  0  0
  8  9  1  0  0  0  0
  9 10  1  0  0  0  0
  9 33  1  0  0  0  0
  9 34  1  0  0  0  0
 10 11  1  0  0  0  0
 10 23  1  0  0  0  0
 10 35  1  0  0  0  0
 11 12  2  0  0  0  0
 11 13  2  0  0  0  0
 11 14  1  0  0  0  0
 14 15  1  0  0  0  0
 14 36  1  0  0  0  0
 15 16  1  0  0  0  0
 15 37  1  0  0  0  0
 15 38  1  0  0  0  0
 16 17  1  0  0  0  0
 16 39  1  0  0  0  0
 16 40  1  0  0  0  0
 17 22  1  0  0  0  0
 17 18  2  0  0  0  0
 18 19  1  0  0  0  0
 18 41  1  0  0  0  0
 19 20  2  0  0  0  0
 19 42  1  0  0  0  0
 20 21  1  0  0  0  0
 20 43  1  0  0  0  0
 21 22  2  0  0  0  0
 21 47  1  0  0  0  0
 22 44  1  0  0  0  0
 23 45  1  0  0  0  0
 23 46  1  0  0  0  0
M  CHG  1  21   1
M  END
> <s_m_source_file>
AV-unprocessed.smi

> <i_m_source_file_index>
2504

> <i_lp_mmshare_version>
43012

> <i_f3d_flags>
0

> <s_epik_input>
W0NIMl0xW0NIMl1bQ0gyXVtDSDJdW0NIXTFDKD1PKU4yW0NIMl1bQ0hdKFtDSDJdMilTKD1PKSg9TylbTkhdW0NIMl1bQ0gyXWMzW2NIXVtjSF1bY0hdbltjSF0z

> <s_epik_cmdline>
J2VwaWtfcHl0aG9uJywgJy1waCcsICc3LjAnLCAnLXRuJywgJzgnLCAnLW1hJywgJzIwMCcsICctbWV0YWxfYmluZGluZycsICctaW1hZScsICc8aW5maWxlLm1hZT4nLCAnLW9tYWUnLCAnPG91dGZpbGUubWFlPic=

> <r_epik_Ionization_Penalty>
2.38216

> <r_epik_Ionization_Penalty_Charging>
2.38209

> <r_epik_Ionization_Penalty_Neutral>
6.7549e-05

> <r_epik_State_Penalty>
2.53866

> <r_epik_Charging_Adjusted_Penalty>
4.92075

> <i_epik_Tot_Q>
1

> <i_epik_Tot_abs_Q>
1

> <r_epik_Metal_State_Penalty>
2.64273

> <b_epik_Metal_Only>
0

> <s_lp_Force_Field>
OPLS_2005

> <r_lp_Energy>
40.9078

> <b_lp_Chiralities_Consistent>
1

> <s_lp_Variant>
AV-unprocessed.smi:2504-2

> <Gold.Version>
5.8.1

> <Gold.Id.Protein>
6NUR|6NUR_protein|mol2

> <Gold.PLP.Fitness>
51.2737

> <Gold.PLP.PLP>
-46.9135

> <Gold.PLP.part.hbond>
-2.0000

> <Gold.PLP.part.metal>
0.0000

> <Gold.PLP.part.buried>
-6.8863

> <Gold.PLP.part.nonpolar>
-39.8760

> <Gold.PLP.part.repulsive>
0.6221

> <Gold.PLP.ligand.clash>
0.0000

> <Gold.PLP.ligand.torsion>
1.6373

> <Gold.PLP.Chemscore.Hbond>
1.9920

> <Gold.PLP.Chemscore.CHOScore>
0.0000

> <Gold.PLP.Chemscore.Metal>
0.0000

> <Gold.Chemscore.Hbonds>
donor molecule, donor type, donor heavy atom, donor atom, acceptor molecule, acceptor atom, score
      P1  H  7989  7998       L1    12  1.00
      P1  H  7997  8010       L1    13  0.99

> <Gold.PLP.Chemscore.Internal.Correction>
1.6588

> <Gold.Rescore>
     Score         DG    S(hbond)    S(metal)    S(lipo)     H(rot)  DE(clash)    DE(int)     intcor
     18.36     -20.01       1.96        0.00     111.52       1.97       0.00       1.66       ----

> <Gold.Chemscore.Fitness>
18.3554

> <Gold.Chemscore.DG>
-20.0130

> <Gold.Chemscore.ZeroCoef>
-5.4800

> <Gold.Chemscore.Hbond>
1.9584

> <Gold.Chemscore.Metal>
0.0000

> <Gold.Chemscore.Lipo>
111.5170

> <Gold.Chemscore.Internal_Hbond>
0.0000

> <Gold.Chemscore.DEClash>
0.0009

> <Gold.Chemscore.DEInternal>
1.6567

> <Gold.Chemscore.Rot>
1.9749

> <Gold.Chemscore.Internal.Correction>
   9.000000E+99

> <Gold.Chemscore.Hbonds>
donor molecule, donor type, donor heavy atom, donor atom, acceptor molecule, acceptor atom, score
      P1  H  7989  7998       L1    12  1.00
      P1  H  7997  8010       L1    13  0.90

> <Gold.Chemscore.Hbond.Weighted>
-6.5411

> <Gold.Chemscore.Metal.Weighted>
-0.0000

> <Gold.Chemscore.Lipo.Weighted>
-13.0475

> <Gold.Chemscore.Internal_Hbond.Weighted>
0.0000

> <Gold.Chemscore.DEClash.Weighted>
0.0009

> <Gold.Chemscore.DEInternal.Weighted>
1.6567

> <Gold.Chemscore.Rot.Weighted>
5.0556

> <Gold.Chemscore.Internal.Correction.Weighted>
   9.000000E+99

> <Gold.Protein.RotatedTorsions>
[ 6907 6896 6895 6894 ] final  -37.25 input  -60.11 | X-H torsion
[ 7974 7965 7964 7962 ] final   12.76 input  175.53 | X-H torsion
[ 8008 7997 7996 7995 ] final   94.79 input   59.86 | X-H torsion
[ 10167 10162 10161 10158 ] final   91.01 input  -65.29 | X-H torsion
[ 10718 10713 10712 10709 ] final  -72.22 input   66.30 | X-H torsion
[ 10763 10752 10751 10750 ] final  -80.29 input  -60.55 | X-H torsion
[ 11005 11000 10999 10996 ] final -158.22 input  -57.11 | X-H torsion

> <Gold.Protein.ActiveResidues>
 VAL166  LYS551  ARG553  GLY616  TRP617  ASP618  TYR619  PRO620  LYS621  CYS622 
 ASP623  PHE694  ASN695  SER759  ASP760  ASP761  ALA762  ILE779  LEU786  VAL792 
 PHE793  MET794  SER795  GLU796  ALA797  LYS798  CYS799  TRP800  GLU811  SER814 

> <Gold.Protein.RotatedAtoms>
  151.0170  134.9440  159.8038 H   0  0  0  0  0  0  0  0  0  0  0  0  # atno 6907 bound_to 6896
  152.5316  134.2953  159.9068 H   0  0  0  0  0  0  0  0  0  0  0  0  # atno 6908 bound_to 6896
  151.2960  133.4102  159.2670 H   0  0  0  0  0  0  0  0  0  0  0  0  # atno 6909 bound_to 6896
  146.2344  139.9289  142.8499 H   0  0  0  0  0  0  0  0  0  0  0  0  # atno 7974 bound_to 7965
  156.0618  140.3295  155.7471 H   0  0  0  0  0  0  0  0  0  0  0  0  # atno 8008 bound_to 7997
  155.5442  140.0604  157.2881 H   0  0  0  0  0  0  0  0  0  0  0  0  # atno 8009 bound_to 7997
  154.4485  140.1905  156.0610 H   0  0  0  0  0  0  0  0  0  0  0  0  # atno 8010 bound_to 7997
  139.8417  144.6638  150.9275 H   0  0  0  0  0  0  0  0  0  0  0  0  # atno 10167 bound_to 10162
  156.0329  130.4367  150.2560 H   0  0  0  0  0  0  0  0  0  0  0  0  # atno 10718 bound_to 10713
  154.5494  135.5666  153.6908 H   0  0  0  0  0  0  0  0  0  0  0  0  # atno 10763 bound_to 10752
  152.9985  135.6247  154.2395 H   0  0  0  0  0  0  0  0  0  0  0  0  # atno 10764 bound_to 10752
  154.2329  135.2865  155.2863 H   0  0  0  0  0  0  0  0  0  0  0  0  # atno 10765 bound_to 10752
  140.6560  134.4400  157.5235 H   0  0  0  0  0  0  0  0  0  0  0  0  # atno 11005 bound_to 11000
  145.2064  140.9876  143.4126 LP  0  0  0  0  0  0  0  0  0  0  0  0  # atno 17320 bound_to 7965
  144.9729  139.3861  143.6300 LP  0  0  0  0  0  0  0  0  0  0  0  0  # atno 17321 bound_to 7965
  140.7797  143.3907  151.1315 LP  0  0  0  0  0  0  0  0  0  0  0  0  # atno 17342 bound_to 10162
  139.7552  143.8718  152.3087 LP  0  0  0  0  0  0  0  0  0  0  0  0  # atno 17343 bound_to 10162
  157.0661  131.0103  151.3206 LP  0  0  0  0  0  0  0  0  0  0  0  0  # atno 17370 bound_to 10713
  157.5034  130.7894  149.7628 LP  0  0  0  0  0  0  0  0  0  0  0  0  # atno 17371 bound_to 10713
  139.9029  134.8514  156.1822 LP  0  0  0  0  0  0  0  0  0  0  0  0  # atno 17394 bound_to 11000
  141.0501  133.6893  156.1756 LP  0  0  0  0  0  0  0  0  0  0  0  0  # atno 17395 bound_to 11000

$$$$
