AV-unprocessed.smi:2446|AV-procd|sdf|9646|dock5
  -GOLD-   2272013283D 1   1.00000     0.00000
 Structure written by MMmdl.
 40 41  0  0  0  0  0  0  0  0  2 V2000
  152.2061  144.5882  160.5004 C   0  0  0  0  0  0  0  0  0  0  0  0
  151.7519  143.8909  159.2291 C   0  0  0  0  0  0  0  0  0  0  0  0
  151.0518  144.6240  158.2462 C   0  0  0  0  0  0  0  0  0  0  0  0
  150.6395  144.0173  157.1135 N   0  3  0  0  0  0  0  0  0  0  0  0
  150.8606  142.7101  156.8640 C   0  0  0  0  0  0  0  0  0  0  0  0
  151.5531  141.9221  157.8046 C   0  0  0  0  0  0  0  0  0  0  0  0
  152.0220  142.5162  159.0045 C   0  0  0  0  0  0  0  0  0  0  0  0
  152.7156  141.7919  160.0145 N   0  0  0  0  0  0  0  0  0  0  0  0
  153.4487  140.6664  159.9068 C   0  0  0  0  0  0  0  0  0  0  0  0
  153.6176  140.0372  158.8649 O   0  0  0  0  0  0  0  0  0  0  0  0
  154.0191  140.2693  161.0594 N   0  0  0  0  0  0  0  0  0  0  0  0
  154.8714  139.1019  161.2990 C   0  0  1  0  0  0  0  0  0  0  0  0
  156.3460  139.5415  161.3340 C   0  0  0  0  0  0  0  0  0  0  0  0
  157.2743  138.3570  161.6429 C   0  0  0  0  0  0  0  0  0  0  0  0
  156.8765  137.6621  162.9548 C   0  0  0  0  0  0  0  0  0  0  0  0
  155.4028  137.2048  162.9306 C   0  0  1  0  0  0  0  0  0  0  0  0
  154.9951  136.4875  164.2339 C   0  0  0  0  0  0  0  0  0  0  0  0
  153.7221  136.0943  164.1815 F   0  0  0  0  0  0  0  0  0  0  0  0
  155.7690  135.4191  164.4259 F   0  0  0  0  0  0  0  0  0  0  0  0
  155.1513  137.3064  165.2741 F   0  0  0  0  0  0  0  0  0  0  0  0
  154.4826  138.4041  162.6199 C   0  0  0  0  0  0  0  0  0  0  0  0
  151.8906  145.6318  160.5137 H   0  0  0  0  0  0  0  0  0  0  0  0
  153.2932  144.5641  160.5807 H   0  0  0  0  0  0  0  0  0  0  0  0
  151.7839  144.0980  161.3782 H   0  0  0  0  0  0  0  0  0  0  0  0
  150.8083  145.6731  158.3316 H   0  0  0  0  0  0  0  0  0  0  0  0
  150.4743  142.3335  155.9280 H   0  0  0  0  0  0  0  0  0  0  0  0
  151.6980  140.8746  157.5902 H   0  0  0  0  0  0  0  0  0  0  0  0
  152.7262  142.2295  160.9242 H   0  0  0  0  0  0  0  0  0  0  0  0
  153.8286  140.8408  161.8701 H   0  0  0  0  0  0  0  0  0  0  0  0
  154.7601  138.3947  160.4749 H   0  0  0  0  0  0  0  0  0  0  0  0
  156.6266  139.9873  160.3789 H   0  0  0  0  0  0  0  0  0  0  0  0
  156.4855  140.3161  162.0897 H   0  0  0  0  0  0  0  0  0  0  0  0
  157.2364  137.6392  160.8228 H   0  0  0  0  0  0  0  0  0  0  0  0
  158.3070  138.7016  161.7042 H   0  0  0  0  0  0  0  0  0  0  0  0
  157.5325  136.8078  163.1236 H   0  0  0  0  0  0  0  0  0  0  0  0
  157.0394  138.3444  163.7900 H   0  0  0  0  0  0  0  0  0  0  0  0
  155.2934  136.4850  162.1175 H   0  0  0  0  0  0  0  0  0  0  0  0
  154.5286  139.1221  163.4402 H   0  0  0  0  0  0  0  0  0  0  0  0
  153.4476  138.0660  162.5705 H   0  0  0  0  0  0  0  0  0  0  0  0
  150.1348  144.5688  156.4191 H   0  0  0  0  0  0  0  0  0  0  0  0
  1  2  1  0  0  0  0
  1 22  1  0  0  0  0
  1 23  1  0  0  0  0
  1 24  1  0  0  0  0
  2  7  1  0  0  0  0
  2  3  2  0  0  0  0
  3  4  1  0  0  0  0
  3 25  1  0  0  0  0
  4  5  2  0  0  0  0
  4 40  1  0  0  0  0
  5  6  1  0  0  0  0
  5 26  1  0  0  0  0
  6  7  2  0  0  0  0
  6 27  1  0  0  0  0
  7  8  1  0  0  0  0
  8  9  1  0  0  0  0
  8 28  1  0  0  0  0
  9 10  2  0  0  0  0
  9 11  1  0  0  0  0
 11 12  1  0  0  0  0
 11 29  1  0  0  0  0
 12 21  1  0  0  0  0
 12 13  1  0  0  0  0
 12 30  1  0  0  0  0
 13 14  1  0  0  0  0
 13 31  1  0  0  0  0
 13 32  1  0  0  0  0
 14 15  1  0  0  0  0
 14 33  1  0  0  0  0
 14 34  1  0  0  0  0
 15 16  1  0  0  0  0
 15 35  1  0  0  0  0
 15 36  1  0  0  0  0
 16 17  1  0  0  0  0
 16 21  1  0  0  0  0
 16 37  1  0  0  0  0
 17 18  1  0  0  0  0
 17 19  1  0  0  0  0
 17 20  1  0  0  0  0
 21 38  1  0  0  0  0
 21 39  1  0  0  0  0
M  CHG  1   4   1
M  END
> <s_m_source_file>
AV-unprocessed.smi

> <i_m_source_file_index>
2446

> <i_lp_mmshare_version>
43012

> <i_f3d_flags>
0

> <s_epik_input>
W0NIM11jMVtjSF1uW2NIXVtjSF1jMVtOSF1DKD1PKVtOSF1bQ0BASF0yW0NIMl1bQ0gyXVtDSDJdW0NAQEhdKEMoRikoRilGKVtDSDJdMg==

> <s_epik_cmdline>
J2VwaWtfcHl0aG9uJywgJy1waCcsICc3LjAnLCAnLXRuJywgJzgnLCAnLW1hJywgJzIwMCcsICctbWV0YWxfYmluZGluZycsICctaW1hZScsICc8aW5maWxlLm1hZT4nLCAnLW9tYWUnLCAnPG91dGZpbGUubWFlPic=

> <r_epik_Ionization_Penalty>
0.736582

> <r_epik_Ionization_Penalty_Charging>
0.736562

> <r_epik_Ionization_Penalty_Neutral>
1.98379e-05

> <r_epik_State_Penalty>
0.762314

> <r_epik_Charging_Adjusted_Penalty>
1.49888

> <i_epik_Tot_Q>
1

> <i_epik_Tot_abs_Q>
1

> <r_epik_Metal_State_Penalty>
0.914579

> <b_epik_Metal_Only>
0

> <s_lp_Force_Field>
OPLS_2005

> <r_lp_Energy>
31.4788

> <b_lp_Chiralities_Consistent>
1

> <s_lp_Variant>
AV-unprocessed.smi:2446-6

> <Gold.Version>
5.8.1

> <Gold.Id.Protein>
6NUR|6NUR_protein|mol2

> <Gold.PLP.Fitness>
42.4766

> <Gold.PLP.PLP>
-34.3637

> <Gold.PLP.part.hbond>
-1.8675

> <Gold.PLP.part.metal>
0.0000

> <Gold.PLP.part.buried>
-3.6573

> <Gold.PLP.part.nonpolar>
-28.8211

> <Gold.PLP.part.repulsive>
0.0988

> <Gold.PLP.ligand.clash>
0.0000

> <Gold.PLP.ligand.torsion>
0.3939

> <Gold.PLP.Chemscore.Hbond>
2.9600

> <Gold.PLP.Chemscore.CHOScore>
0.0000

> <Gold.PLP.Chemscore.Metal>
0.0000

> <Gold.Chemscore.Hbonds>
donor molecule, donor type, donor heavy atom, donor atom, acceptor molecule, acceptor atom, score
      L1  H     4    40       P1  8028  1.47
      P1  H  7997  8008       L1    10  0.87

> <Gold.PLP.Chemscore.Internal.Correction>
0.0206

> <Gold.Rescore>
     Score         DG    S(hbond)    S(metal)    S(lipo)     H(rot)  DE(clash)    DE(int)     intcor
     18.28     -19.85       1.89        0.00      90.85       1.00       0.02       1.55       ----

> <Gold.Chemscore.Fitness>
18.2820

> <Gold.Chemscore.DG>
-19.8495

> <Gold.Chemscore.ZeroCoef>
-5.4800

> <Gold.Chemscore.Hbond>
1.8862

> <Gold.Chemscore.Metal>
0.0000

> <Gold.Chemscore.Lipo>
90.8517

> <Gold.Chemscore.Internal_Hbond>
0.0000

> <Gold.Chemscore.DEClash>
0.0213

> <Gold.Chemscore.DEInternal>
1.5462

> <Gold.Chemscore.Rot>
1.0000

> <Gold.Chemscore.Internal.Correction>
   9.000000E+99

> <Gold.Chemscore.Hbonds>
donor molecule, donor type, donor heavy atom, donor atom, acceptor molecule, acceptor atom, score
      L1  H     4    40       P1  8028  0.67
      P1  H  7997  8008       L1    10  0.81

> <Gold.Chemscore.Hbond.Weighted>
-6.2999

> <Gold.Chemscore.Metal.Weighted>
-0.0000

> <Gold.Chemscore.Lipo.Weighted>
-10.6296

> <Gold.Chemscore.Internal_Hbond.Weighted>
0.0000

> <Gold.Chemscore.DEClash.Weighted>
0.0213

> <Gold.Chemscore.DEInternal.Weighted>
1.5462

> <Gold.Chemscore.Rot.Weighted>
2.5600

> <Gold.Chemscore.Internal.Correction.Weighted>
   9.000000E+99

> <Gold.Protein.RotatedTorsions>
[ 6907 6896 6895 6894 ] final -135.96 input  -60.11 | X-H torsion
[ 7974 7965 7964 7962 ] final   98.97 input  175.53 | X-H torsion
[ 8008 7997 7996 7995 ] final -110.75 input   59.86 | X-H torsion
[ 10167 10162 10161 10158 ] final  121.73 input  -65.29 | X-H torsion
[ 10718 10713 10712 10709 ] final   -2.43 input   66.30 | X-H torsion
[ 10763 10752 10751 10750 ] final   76.70 input  -60.55 | X-H torsion
[ 11005 11000 10999 10996 ] final   99.23 input  -57.11 | X-H torsion

> <Gold.Protein.ActiveResidues>
 VAL166  LYS551  ARG553  GLY616  TRP617  ASP618  TYR619  PRO620  LYS621  CYS622 
 ASP623  PHE694  ASN695  SER759  ASP760  ASP761  ALA762  ILE779  LEU786  VAL792 
 PHE793  MET794  SER795  GLU796  ALA797  LYS798  CYS799  TRP800  GLU811  SER814 

> <Gold.Protein.RotatedAtoms>
  151.0042  133.6027  159.2690 H   0  0  0  0  0  0  0  0  0  0  0  0  # atno 6907 bound_to 6896
  151.3202  135.0815  159.9313 H   0  0  0  0  0  0  0  0  0  0  0  0  # atno 6908 bound_to 6896
  152.5282  133.9691  159.7807 H   0  0  0  0  0  0  0  0  0  0  0  0  # atno 6909 bound_to 6896
  145.4051  139.2342  143.3279 H   0  0  0  0  0  0  0  0  0  0  0  0  # atno 7974 bound_to 7965
  154.9793  140.0396  157.2270 H   0  0  0  0  0  0  0  0  0  0  0  0  # atno 8008 bound_to 7997
  154.7728  140.2805  155.6101 H   0  0  0  0  0  0  0  0  0  0  0  0  # atno 8009 bound_to 7997
  156.2924  140.2606  156.2535 H   0  0  0  0  0  0  0  0  0  0  0  0  # atno 8010 bound_to 7997
  139.5902  144.7022  151.3310 H   0  0  0  0  0  0  0  0  0  0  0  0  # atno 10167 bound_to 10162
  156.7910  130.5361  149.5736 H   0  0  0  0  0  0  0  0  0  0  0  0  # atno 10718 bound_to 10713
  153.0745  135.4941  154.8374 H   0  0  0  0  0  0  0  0  0  0  0  0  # atno 10763 bound_to 10752
  154.7068  135.3012  154.9260 H   0  0  0  0  0  0  0  0  0  0  0  0  # atno 10764 bound_to 10752
  153.9967  135.6771  153.4810 H   0  0  0  0  0  0  0  0  0  0  0  0  # atno 10765 bound_to 10752
  139.8771  134.9086  156.4575 H   0  0  0  0  0  0  0  0  0  0  0  0  # atno 11005 bound_to 11000
  146.2733  140.4754  142.8806 LP  0  0  0  0  0  0  0  0  0  0  0  0  # atno 17320 bound_to 7965
  144.8347  140.6763  143.6268 LP  0  0  0  0  0  0  0  0  0  0  0  0  # atno 17321 bound_to 7965
  140.7166  143.7249  150.7667 LP  0  0  0  0  0  0  0  0  0  0  0  0  # atno 17342 bound_to 10162
  140.0803  143.4975  152.2533 LP  0  0  0  0  0  0  0  0  0  0  0  0  # atno 17343 bound_to 10162
  156.1159  130.6075  151.0120 LP  0  0  0  0  0  0  0  0  0  0  0  0  # atno 17370 bound_to 10713
  157.6601  131.0882  150.7859 LP  0  0  0  0  0  0  0  0  0  0  0  0  # atno 17371 bound_to 10713
  140.8888  133.7863  155.9548 LP  0  0  0  0  0  0  0  0  0  0  0  0  # atno 17394 bound_to 11000
  140.8776  134.2651  157.5160 LP  0  0  0  0  0  0  0  0  0  0  0  0  # atno 17395 bound_to 11000

$$$$
