AV-unprocessed.smi:163|AV-procd|sdf|1380|dock10
  -GOLD-   2262019103D 1   1.00000     0.00000
 Structure written by MMmdl.
 48 51  0  0  0  0  0  0  0  0  1 V2000
  152.7774  144.4014  158.3860 N   0  0  0  0  0  0  0  0  0  0  0  0
  152.0603  143.4986  158.2850 C   0  0  0  0  0  0  0  0  0  0  0  0
  151.1484  142.3498  158.1535 C   0  0  0  0  0  0  0  0  0  0  0  0
  151.7843  141.1375  157.4605 C   0  0  0  0  0  0  0  0  0  0  0  0
  152.7689  140.6053  157.9747 O   0  0  0  0  0  0  0  0  0  0  0  0
  151.2416  140.6933  156.3028 N   0  0  0  0  0  0  0  0  0  0  0  0
  151.6866  139.5101  155.5577 C   0  0  0  0  0  0  0  0  0  0  0  0
  150.5945  138.4283  155.6438 C   0  0  0  0  0  0  0  0  0  0  0  0
  149.3025  138.9560  155.1980 N   0  0  0  0  0  0  0  0  0  0  0  0
  148.3417  138.0200  154.9869 C   0  0  0  0  0  0  0  0  0  0  0  0
  148.1732  137.0100  155.8824 N   0  0  0  0  0  0  0  0  0  0  0  0
  147.2365  136.0784  155.6829 C   0  0  0  0  0  0  0  0  0  0  0  0
  146.3713  135.9683  154.6737 N   0  0  0  0  0  0  0  0  0  0  0  0
  146.5297  136.9804  153.7737 C   0  0  0  0  0  0  0  0  0  0  0  0
  147.4783  138.0392  153.8543 C   0  0  0  0  0  0  0  0  0  0  0  0
  147.3234  138.8931  152.7682 N   0  0  0  0  0  0  0  0  0  0  0  0
  146.3484  138.3643  152.0812 C   0  0  0  0  0  0  0  0  0  0  0  0
  145.8199  137.2068  152.6068 N   0  0  0  0  0  0  0  0  0  0  0  0
  144.7321  136.4127  152.0547 C   0  0  0  0  0  0  0  0  0  0  0  0
  145.1524  135.5246  150.8579 C   0  0  1  0  0  0  0  0  0  0  0  0
  145.6296  136.3536  149.8141 O   0  0  0  0  0  0  0  0  0  0  0  0
  146.2435  134.5192  151.2333 C   0  0  0  0  0  0  0  0  0  0  0  0
  145.5153  133.1807  151.2315 C   0  0  0  0  0  0  0  0  0  0  0  0
  144.5798  133.3394  150.1803 O   0  0  0  0  0  0  0  0  0  0  0  0
  144.0143  134.6348  150.3182 C   0  0  0  0  0  0  0  0  0  0  0  0
  148.8934  140.2292  155.7999 C   0  0  0  0  0  0  0  0  0  0  0  0
  150.0270  141.2677  155.7128 C   0  0  0  0  0  0  0  0  0  0  0  0
  150.8227  142.0772  159.1576 H   0  0  0  0  0  0  0  0  0  0  0  0
  150.2783  142.6895  157.5904 H   0  0  0  0  0  0  0  0  0  0  0  0
  151.8514  139.7882  154.5156 H   0  0  0  0  0  0  0  0  0  0  0  0
  152.6355  139.1051  155.9052 H   0  0  0  0  0  0  0  0  0  0  0  0
  150.8991  137.5661  155.0526 H   0  0  0  0  0  0  0  0  0  0  0  0
  150.4947  138.0817  156.6735 H   0  0  0  0  0  0  0  0  0  0  0  0
  147.1710  135.3115  156.4405 H   0  0  0  0  0  0  0  0  0  0  0  0
  145.9859  138.8094  151.1661 H   0  0  0  0  0  0  0  0  0  0  0  0
  144.3195  135.7963  152.8545 H   0  0  0  0  0  0  0  0  0  0  0  0
  143.9345  137.0932  151.7538 H   0  0  0  0  0  0  0  0  0  0  0  0
  146.0078  135.8047  149.1441 H   0  0  0  0  0  0  0  0  0  0  0  0
  147.0307  134.4942  150.4777 H   0  0  0  0  0  0  0  0  0  0  0  0
  146.7194  134.7303  152.1915 H   0  0  0  0  0  0  0  0  0  0  0  0
  146.1823  132.3365  151.0554 H   0  0  0  0  0  0  0  0  0  0  0  0
  144.9899  133.0180  152.1740 H   0  0  0  0  0  0  0  0  0  0  0  0
  143.1987  134.5583  151.0378 H   0  0  0  0  0  0  0  0  0  0  0  0
  143.5909  134.9881  149.3770 H   0  0  0  0  0  0  0  0  0  0  0  0
  148.0080  140.6132  155.2914 H   0  0  0  0  0  0  0  0  0  0  0  0
  148.6227  140.0658  156.8441 H   0  0  0  0  0  0  0  0  0  0  0  0
  149.7163  142.1948  156.1958 H   0  0  0  0  0  0  0  0  0  0  0  0
  150.2212  141.5239  154.6703 H   0  0  0  0  0  0  0  0  0  0  0  0
  1  2  3  0  0  0  0
  2  3  1  0  0  0  0
  3  4  1  0  0  0  0
  3 28  1  0  0  0  0
  3 29  1  0  0  0  0
  4  5  2  0  0  0  0
  4  6  1  0  0  0  0
  6 27  1  0  0  0  0
  6  7  1  0  0  0  0
  7  8  1  0  0  0  0
  7 30  1  0  0  0  0
  7 31  1  0  0  0  0
  8  9  1  0  0  0  0
  8 32  1  0  0  0  0
  8 33  1  0  0  0  0
  9 10  1  0  0  0  0
  9 26  1  0  0  0  0
 10 15  1  0  0  0  0
 10 11  2  0  0  0  0
 11 12  1  0  0  0  0
 12 13  2  0  0  0  0
 12 34  1  0  0  0  0
 13 14  1  0  0  0  0
 14 18  1  0  0  0  0
 14 15  2  0  0  0  0
 15 16  1  0  0  0  0
 16 17  2  0  0  0  0
 17 18  1  0  0  0  0
 17 35  1  0  0  0  0
 18 19  1  0  0  0  0
 19 20  1  0  0  0  0
 19 36  1  0  0  0  0
 19 37  1  0  0  0  0
 20 25  1  0  0  0  0
 20 21  1  0  0  0  0
 20 22  1  0  0  0  0
 21 38  1  0  0  0  0
 22 23  1  0  0  0  0
 22 39  1  0  0  0  0
 22 40  1  0  0  0  0
 23 24  1  0  0  0  0
 23 41  1  0  0  0  0
 23 42  1  0  0  0  0
 24 25  1  0  0  0  0
 25 43  1  0  0  0  0
 25 44  1  0  0  0  0
 26 27  1  0  0  0  0
 26 45  1  0  0  0  0
 26 46  1  0  0  0  0
 27 47  1  0  0  0  0
 27 48  1  0  0  0  0
M  END
> <s_m_source_file>
AV-unprocessed.smi

> <i_m_source_file_index>
163

> <i_lp_mmshare_version>
43012

> <i_f3d_flags>
0

> <s_epik_input>
TiNDW0NIMl1DKD1PKU4xW0NIMl1bQ0gyXU4oW0NIMl1bQ0gyXTEpYyhuW2NIXW4yKWMoYzIzKW5bY0hdbjNbQ0gyXVtDQEBdNChbT0hdKVtDSDJdW0NIMl1PW0NIMl00

> <s_epik_cmdline>
J2VwaWtfcHl0aG9uJywgJy1waCcsICc3LjAnLCAnLXRuJywgJzgnLCAnLW1hJywgJzIwMCcsICctbWV0YWxfYmluZGluZycsICctaW1hZScsICc8aW5maWxlLm1hZT4nLCAnLW9tYWUnLCAnPG91dGZpbGUubWFlPic=

> <r_lp_tautomer_probability>
1

> <r_epik_Ionization_Penalty>
0.000981096

> <r_epik_Ionization_Penalty_Charging>
0

> <r_epik_Ionization_Penalty_Neutral>
0.000981096

> <r_epik_State_Penalty>
0.000482875

> <r_epik_Charging_Adjusted_Penalty>
0.000482875

> <i_epik_Tot_Q>
0

> <i_epik_Tot_abs_Q>
0

> <r_epik_Metal_State_Penalty>
-0

> <b_epik_Metal_Only>
0

> <s_lp_Force_Field>
OPLS_2005

> <r_lp_Energy>
52.1528

> <b_lp_Chiralities_Consistent>
1

> <s_lp_Variant>
AV-unprocessed.smi:163-1

> <Gold.Version>
5.8.1

> <Gold.Id.Protein>
6NUR|6NUR_protein|mol2

> <Gold.PLP.Fitness>
42.8707

> <Gold.PLP.PLP>
-35.5806

> <Gold.PLP.part.hbond>
-3.0000

> <Gold.PLP.part.metal>
0.0000

> <Gold.PLP.part.buried>
-2.3054

> <Gold.PLP.part.nonpolar>
-31.4792

> <Gold.PLP.part.repulsive>
1.2390

> <Gold.PLP.ligand.clash>
0.0000

> <Gold.PLP.ligand.torsion>
0.7555

> <Gold.PLP.Chemscore.Hbond>
1.7800

> <Gold.PLP.Chemscore.CHOScore>
1.0000

> <Gold.PLP.Chemscore.Metal>
0.0000

> <Gold.Chemscore.Hbonds>
donor molecule, donor type, donor heavy atom, donor atom, acceptor molecule, acceptor atom, score
      L1  H    21    38       P1  7921  1.00
      P1  H  7997  8008       L1     5  0.66
      L1  C    17    35       P1 10171  1.00

> <Gold.PLP.Chemscore.Internal.Correction>
0.4611

> <Gold.Rescore>
     Score         DG    S(hbond)    S(metal)    S(lipo)     H(rot)  DE(clash)    DE(int)     intcor
     10.79     -12.23       1.84        0.00      64.63       2.72       0.68       0.76       ----

> <Gold.Chemscore.Fitness>
10.7911

> <Gold.Chemscore.DG>
-12.2297

> <Gold.Chemscore.ZeroCoef>
-5.4800

> <Gold.Chemscore.Hbond>
1.8440

> <Gold.Chemscore.Metal>
0.0000

> <Gold.Chemscore.Lipo>
64.6302

> <Gold.Chemscore.Internal_Hbond>
0.0000

> <Gold.Chemscore.DEClash>
0.6793

> <Gold.Chemscore.DEInternal>
0.7592

> <Gold.Chemscore.Rot>
2.7230

> <Gold.Chemscore.Internal.Correction>
   9.000000E+99

> <Gold.Chemscore.Hbonds>
donor molecule, donor type, donor heavy atom, donor atom, acceptor molecule, acceptor atom, score
      L1  H    21    38       P1  7921  0.98
      P1  H  7997  8008       L1     5  0.63

> <Gold.Chemscore.Hbond.Weighted>
-6.1589

> <Gold.Chemscore.Metal.Weighted>
-0.0000

> <Gold.Chemscore.Lipo.Weighted>
-7.5617

> <Gold.Chemscore.Internal_Hbond.Weighted>
0.0000

> <Gold.Chemscore.DEClash.Weighted>
0.6793

> <Gold.Chemscore.DEInternal.Weighted>
0.7592

> <Gold.Chemscore.Rot.Weighted>
6.9709

> <Gold.Chemscore.Internal.Correction.Weighted>
   9.000000E+99

> <Gold.Protein.RotatedTorsions>
[ 6907 6896 6895 6894 ] final  114.57 input  -60.11 | X-H torsion
[ 7974 7965 7964 7962 ] final  -73.51 input  175.53 | X-H torsion
[ 8008 7997 7996 7995 ] final  -75.05 input   59.86 | X-H torsion
[ 10167 10162 10161 10158 ] final  101.21 input  -65.29 | X-H torsion
[ 10718 10713 10712 10709 ] final  -94.45 input   66.30 | X-H torsion
[ 10763 10752 10751 10750 ] final  122.96 input  -60.55 | X-H torsion
[ 11005 11000 10999 10996 ] final -116.91 input  -57.11 | X-H torsion

> <Gold.Protein.ActiveResidues>
 VAL166  LYS551  ARG553  GLY616  TRP617  ASP618  TYR619  PRO620  LYS621  CYS622 
 ASP623  PHE694  ASN695  SER759  ASP760  ASP761  ALA762  ILE779  LEU786  VAL792 
 PHE793  MET794  SER795  GLU796  ALA797  LYS798  CYS799  TRP800  GLU811  SER814 

> <Gold.Protein.RotatedAtoms>
  152.4794  133.8218  159.7057 H   0  0  0  0  0  0  0  0  0  0  0  0  # atno 6907 bound_to 6896
  150.8834  133.7332  159.2932 H   0  0  0  0  0  0  0  0  0  0  0  0  # atno 6908 bound_to 6896
  151.4829  135.1057  159.9834 H   0  0  0  0  0  0  0  0  0  0  0  0  # atno 6909 bound_to 6896
  145.6512  140.9282  143.0983 H   0  0  0  0  0  0  0  0  0  0  0  0  # atno 7974 bound_to 7965
  154.5383  140.0751  156.8466 H   0  0  0  0  0  0  0  0  0  0  0  0  # atno 8008 bound_to 7997
  155.3232  140.3397  155.4222 H   0  0  0  0  0  0  0  0  0  0  0  0  # atno 8009 bound_to 7997
  156.1850  140.1665  156.8189 H   0  0  0  0  0  0  0  0  0  0  0  0  # atno 8010 bound_to 7997
  139.7458  144.6998  151.0506 H   0  0  0  0  0  0  0  0  0  0  0  0  # atno 10167 bound_to 10162
  156.0027  130.5068  150.5928 H   0  0  0  0  0  0  0  0  0  0  0  0  # atno 10718 bound_to 10713
  153.6381  135.3384  155.3063 H   0  0  0  0  0  0  0  0  0  0  0  0  # atno 10763 bound_to 10752
  154.8565  135.4311  154.2034 H   0  0  0  0  0  0  0  0  0  0  0  0  # atno 10764 bound_to 10752
  153.2946  135.7020  153.7334 H   0  0  0  0  0  0  0  0  0  0  0  0  # atno 10765 bound_to 10752
  141.0390  133.9864  157.3024 H   0  0  0  0  0  0  0  0  0  0  0  0  # atno 11005 bound_to 11000
  144.7122  139.8329  143.7411 LP  0  0  0  0  0  0  0  0  0  0  0  0  # atno 17320 bound_to 7965
  146.1202  139.4219  143.0233 LP  0  0  0  0  0  0  0  0  0  0  0  0  # atno 17321 bound_to 7965
  140.7792  143.4868  150.9945 LP  0  0  0  0  0  0  0  0  0  0  0  0  # atno 17342 bound_to 10162
  139.8556  143.7381  152.3176 LP  0  0  0  0  0  0  0  0  0  0  0  0  # atno 17343 bound_to 10162
  157.3790  131.0778  151.1493 LP  0  0  0  0  0  0  0  0  0  0  0  0  # atno 17370 bound_to 10713
  157.2222  130.6486  149.5816 LP  0  0  0  0  0  0  0  0  0  0  0  0  # atno 17371 bound_to 10713
  139.9262  135.0201  156.8242 LP  0  0  0  0  0  0  0  0  0  0  0  0  # atno 17394 bound_to 11000
  140.6268  133.9942  155.7643 LP  0  0  0  0  0  0  0  0  0  0  0  0  # atno 17395 bound_to 11000

$$$$
