AV-unprocessed.smi:229|AV-procd|sdf|1749|dock7
  -GOLD-   2262020273D 1   1.00000     0.00000
 Structure written by MMmdl.
 58 62  0  0  0  0  0  0  0  0  1 V2000
  154.3394  139.6430  161.6470 C   0  0  0  0  0  0  0  0  0  0  0  0
  154.3356  141.0685  161.0790 C   0  0  0  0  0  0  0  0  0  0  0  0
  153.1088  141.3851  160.2078 C   0  0  2  0  0  0  0  0  0  0  0  0
  153.1228  140.6426  158.8593 C   0  0  0  0  0  0  0  0  0  0  0  0
  151.9990  141.0771  158.0389 N   0  0  0  0  0  0  0  0  0  0  0  0
  151.7168  140.2728  156.9825 C   0  0  0  0  0  0  0  0  0  0  0  0
  152.6762  139.4524  156.4756 N   0  0  0  0  0  0  0  0  0  0  0  0
  152.4012  138.6453  155.4463 C   0  0  0  0  0  0  0  0  0  0  0  0
  151.2533  138.5019  154.7815 N   0  0  0  0  0  0  0  0  0  0  0  0
  150.2902  139.3300  155.2772 C   0  0  0  0  0  0  0  0  0  0  0  0
  150.4354  140.2399  156.3627 C   0  0  0  0  0  0  0  0  0  0  0  0
  149.2414  140.9220  156.5694 N   0  0  0  0  0  0  0  0  0  0  0  0
  148.4338  140.4328  155.6683 C   0  0  0  0  0  0  0  0  0  0  0  0
  148.9817  139.4699  154.8521 N   0  0  0  0  0  0  0  0  0  0  0  0
  148.3145  138.7562  153.7777 C   0  0  0  0  0  0  0  0  0  0  0  0
  147.0916  139.5229  153.2362 C   0  0  1  0  0  0  0  0  0  0  0  0
  147.5341  140.5767  152.4011 O   0  0  0  0  0  0  0  0  0  0  0  0
  146.1453  138.6165  152.4282 C   0  0  2  0  0  0  0  0  0  0  0  0
  145.7421  137.3265  153.1403 C   0  0  0  0  0  0  0  0  0  0  0  0
  145.2912  136.4441  151.9927 C   0  0  0  0  0  0  0  0  0  0  0  0
  146.0782  136.9817  150.7938 C   0  0  0  0  0  0  0  0  0  0  0  0
  146.7968  138.1145  151.2708 O   0  0  0  0  0  0  0  0  0  0  0  0
  151.9768  142.5215  157.8308 C   0  0  0  0  0  0  0  0  0  0  0  0
  152.0123  143.2720  159.1823 C   0  0  1  0  0  0  0  0  0  0  0  0
  152.2114  144.7695  158.9721 C   0  0  0  0  0  0  0  0  0  0  0  0
  150.7925  145.3167  158.9924 C   0  0  0  0  0  0  0  0  0  0  0  0
  150.1934  144.5643  160.0306 O   0  0  0  0  0  0  0  0  0  0  0  0
  150.6643  143.2244  159.9400 C   0  0  0  0  0  0  0  0  0  0  0  0
  153.1098  142.7932  159.9657 O   0  0  0  0  0  0  0  0  0  0  0  0
  155.1953  139.4930  162.3053 H   0  0  0  0  0  0  0  0  0  0  0  0
  154.4002  138.8952  160.8565 H   0  0  0  0  0  0  0  0  0  0  0  0
  153.4369  139.4479  162.2266 H   0  0  0  0  0  0  0  0  0  0  0  0
  154.3638  141.7702  161.9133 H   0  0  0  0  0  0  0  0  0  0  0  0
  155.2494  141.2394  160.5087 H   0  0  0  0  0  0  0  0  0  0  0  0
  152.2116  141.1091  160.7626 H   0  0  0  0  0  0  0  0  0  0  0  0
  154.0509  140.8500  158.3247 H   0  0  0  0  0  0  0  0  0  0  0  0
  153.0916  139.5680  159.0302 H   0  0  0  0  0  0  0  0  0  0  0  0
  153.2177  138.0240  155.1090 H   0  0  0  0  0  0  0  0  0  0  0  0
  147.4082  140.7593  155.5766 H   0  0  0  0  0  0  0  0  0  0  0  0
  149.0359  138.5732  152.9800 H   0  0  0  0  0  0  0  0  0  0  0  0
  148.0131  137.7785  154.1556 H   0  0  0  0  0  0  0  0  0  0  0  0
  146.5451  139.9637  154.0713 H   0  0  0  0  0  0  0  0  0  0  0  0
  148.4202  140.3909  152.1300 H   0  0  0  0  0  0  0  0  0  0  0  0
  145.2538  139.1665  152.1203 H   0  0  0  0  0  0  0  0  0  0  0  0
  146.6076  136.8794  153.6316 H   0  0  0  0  0  0  0  0  0  0  0  0
  144.9647  137.4770  153.8898 H   0  0  0  0  0  0  0  0  0  0  0  0
  145.4859  135.3885  152.1844 H   0  0  0  0  0  0  0  0  0  0  0  0
  144.2208  136.5639  151.8207 H   0  0  0  0  0  0  0  0  0  0  0  0
  146.7732  136.2424  150.3944 H   0  0  0  0  0  0  0  0  0  0  0  0
  145.4039  137.2816  149.9908 H   0  0  0  0  0  0  0  0  0  0  0  0
  152.8454  142.7977  157.2310 H   0  0  0  0  0  0  0  0  0  0  0  0
  151.0904  142.8106  157.2643 H   0  0  0  0  0  0  0  0  0  0  0  0
  152.7669  145.1962  159.8087 H   0  0  0  0  0  0  0  0  0  0  0  0
  152.7510  145.0177  158.0575 H   0  0  0  0  0  0  0  0  0  0  0  0
  150.7540  146.3869  159.1961 H   0  0  0  0  0  0  0  0  0  0  0  0
  150.2801  145.1223  158.0488 H   0  0  0  0  0  0  0  0  0  0  0  0
  149.9288  142.6184  159.4097 H   0  0  0  0  0  0  0  0  0  0  0  0
  150.7580  142.8219  160.9483 H   0  0  0  0  0  0  0  0  0  0  0  0
  1  2  1  0  0  0  0
  1 30  1  0  0  0  0
  1 31  1  0  0  0  0
  1 32  1  0  0  0  0
  2  3  1  0  0  0  0
  2 33  1  0  0  0  0
  2 34  1  0  0  0  0
  3 29  1  0  0  0  0
  3  4  1  0  0  0  0
  3 35  1  0  0  0  0
  4  5  1  0  0  0  0
  4 36  1  0  0  0  0
  4 37  1  0  0  0  0
  5  6  1  0  0  0  0
  5 23  1  0  0  0  0
  6 11  1  0  0  0  0
  6  7  2  0  0  0  0
  7  8  1  0  0  0  0
  8  9  2  0  0  0  0
  8 38  1  0  0  0  0
  9 10  1  0  0  0  0
 10 14  1  0  0  0  0
 10 11  2  0  0  0  0
 11 12  1  0  0  0  0
 12 13  2  0  0  0  0
 13 14  1  0  0  0  0
 13 39  1  0  0  0  0
 14 15  1  0  0  0  0
 15 16  1  0  0  0  0
 15 40  1  0  0  0  0
 15 41  1  0  0  0  0
 16 17  1  0  0  0  0
 16 18  1  0  0  0  0
 16 42  1  0  0  0  0
 17 43  1  0  0  0  0
 18 22  1  0  0  0  0
 18 19  1  0  0  0  0
 18 44  1  0  0  0  0
 19 20  1  0  0  0  0
 19 45  1  0  0  0  0
 19 46  1  0  0  0  0
 20 21  1  0  0  0  0
 20 47  1  0  0  0  0
 20 48  1  0  0  0  0
 21 22  1  0  0  0  0
 21 49  1  0  0  0  0
 21 50  1  0  0  0  0
 23 24  1  0  0  0  0
 23 51  1  0  0  0  0
 23 52  1  0  0  0  0
 24 28  1  0  0  0  0
 24 25  1  0  0  0  0
 24 29  1  0  0  0  0
 25 26  1  0  0  0  0
 25 53  1  0  0  0  0
 25 54  1  0  0  0  0
 26 27  1  0  0  0  0
 26 55  1  0  0  0  0
 26 56  1  0  0  0  0
 27 28  1  0  0  0  0
 28 57  1  0  0  0  0
 28 58  1  0  0  0  0
M  END
> <s_m_source_file>
AV-unprocessed.smi

> <i_m_source_file_index>
229

> <i_lp_mmshare_version>
43012

> <i_f3d_flags>
0

> <s_epik_input>
W0NIMl0xT1tDSDJdW0NIMl1bQ0BdMTJbQ0gyXU4oW0NIMl1bQ0BIXShPMilbQ0gyXVtDSDNdKWMobltjSF1uMyljKGMzNCluW2NIXW40W0NIMl1bQ0BIXShbT0hdKVtDQEBIXTVbQ0gyXVtDSDJdW0NIMl1PNQ==

> <s_epik_cmdline>
J2VwaWtfcHl0aG9uJywgJy1waCcsICc3LjAnLCAnLXRuJywgJzgnLCAnLW1hJywgJzIwMCcsICctbWV0YWxfYmluZGluZycsICctaW1hZScsICc8aW5maWxlLm1hZT4nLCAnLW9tYWUnLCAnPG91dGZpbGUubWFlPic=

> <r_lp_tautomer_probability>
1

> <r_epik_Ionization_Penalty>
0.00318402

> <r_epik_Ionization_Penalty_Charging>
0

> <r_epik_Ionization_Penalty_Neutral>
0.00318402

> <r_epik_State_Penalty>
0.00215642

> <r_epik_Charging_Adjusted_Penalty>
0.00215642

> <i_epik_Tot_Q>
0

> <i_epik_Tot_abs_Q>
0

> <r_epik_Metal_State_Penalty>
-0

> <b_epik_Metal_Only>
0

> <s_lp_Force_Field>
OPLS_2005

> <r_lp_Energy>
54.6587

> <b_lp_Chiralities_Consistent>
1

> <s_lp_Variant>
AV-unprocessed.smi:229-3

> <Gold.Version>
5.8.1

> <Gold.Id.Protein>
6NUR|6NUR_protein|mol2

> <Gold.PLP.Fitness>
46.0059

> <Gold.PLP.PLP>
-39.8078

> <Gold.PLP.part.hbond>
-2.8316

> <Gold.PLP.part.metal>
0.0000

> <Gold.PLP.part.buried>
1.3231

> <Gold.PLP.part.nonpolar>
-41.8190

> <Gold.PLP.part.repulsive>
2.2300

> <Gold.PLP.ligand.clash>
0.0000

> <Gold.PLP.ligand.torsion>
0.9102

> <Gold.PLP.Chemscore.Hbond>
2.5500

> <Gold.PLP.Chemscore.CHOScore>
0.0000

> <Gold.PLP.Chemscore.Metal>
0.0000

> <Gold.Chemscore.Hbonds>
donor molecule, donor type, donor heavy atom, donor atom, acceptor molecule, acceptor atom, score
      L1  H    17    43       P1  7957  1.00
      P1  H  7954  7966       L1    22  0.55
      P1  H  7997  8008       L1     7  1.00

> <Gold.PLP.Chemscore.Internal.Correction>
0.3686

> <Gold.Rescore>
     Score         DG    S(hbond)    S(metal)    S(lipo)     H(rot)  DE(clash)    DE(int)     intcor
     16.85     -21.19       2.11        0.00     127.78       2.46       3.46       0.88       ----

> <Gold.Chemscore.Fitness>
16.8483

> <Gold.Chemscore.DG>
-21.1880

> <Gold.Chemscore.ZeroCoef>
-5.4800

> <Gold.Chemscore.Hbond>
2.1117

> <Gold.Chemscore.Metal>
0.0000

> <Gold.Chemscore.Lipo>
127.7792

> <Gold.Chemscore.Internal_Hbond>
0.0000

> <Gold.Chemscore.DEClash>
3.4616

> <Gold.Chemscore.DEInternal>
0.8780

> <Gold.Chemscore.Rot>
2.4591

> <Gold.Chemscore.Internal.Correction>
   9.000000E+99

> <Gold.Chemscore.Hbonds>
donor molecule, donor type, donor heavy atom, donor atom, acceptor molecule, acceptor atom, score
      L1  H    17    43       P1  7957  0.95
      P1  H  7954  7966       L1    22  0.03
      P1  H  7997  8008       L1     7  0.79

> <Gold.Chemscore.Hbond.Weighted>
-7.0531

> <Gold.Chemscore.Metal.Weighted>
-0.0000

> <Gold.Chemscore.Lipo.Weighted>
-14.9502

> <Gold.Chemscore.Internal_Hbond.Weighted>
0.0000

> <Gold.Chemscore.DEClash.Weighted>
3.4616

> <Gold.Chemscore.DEInternal.Weighted>
0.8780

> <Gold.Chemscore.Rot.Weighted>
6.2953

> <Gold.Chemscore.Internal.Correction.Weighted>
   9.000000E+99

> <Gold.Protein.RotatedTorsions>
[ 6907 6896 6895 6894 ] final  -79.59 input  -60.11 | X-H torsion
[ 7974 7965 7964 7962 ] final  -21.27 input  175.53 | X-H torsion
[ 8008 7997 7996 7995 ] final  -48.55 input   59.86 | X-H torsion
[ 10167 10162 10161 10158 ] final  -33.63 input  -65.29 | X-H torsion
[ 10718 10713 10712 10709 ] final  -86.20 input   66.30 | X-H torsion
[ 10763 10752 10751 10750 ] final   73.88 input  -60.55 | X-H torsion
[ 11005 11000 10999 10996 ] final  -23.72 input  -57.11 | X-H torsion

> <Gold.Protein.ActiveResidues>
 VAL166  LYS551  ARG553  GLY616  TRP617  ASP618  TYR619  PRO620  LYS621  CYS622 
 ASP623  PHE694  ASN695  SER759  ASP760  ASP761  ALA762  ILE779  LEU786  VAL792 
 PHE793  MET794  SER795  GLU796  ALA797  LYS798  CYS799  TRP800  GLU811  SER814 

> <Gold.Protein.RotatedAtoms>
  150.6946  134.4098  159.5156 H   0  0  0  0  0  0  0  0  0  0  0  0  # atno 6907 bound_to 6896
  152.1858  134.8712  160.0531 H   0  0  0  0  0  0  0  0  0  0  0  0  # atno 6908 bound_to 6896
  151.9685  133.3683  159.4099 H   0  0  0  0  0  0  0  0  0  0  0  0  # atno 6909 bound_to 6896
  146.1742  140.4317  142.8520 H   0  0  0  0  0  0  0  0  0  0  0  0  # atno 7974 bound_to 7965
  154.4030  140.1319  156.4357 H   0  0  0  0  0  0  0  0  0  0  0  0  # atno 8008 bound_to 7997
  155.7508  140.3488  155.5129 H   0  0  0  0  0  0  0  0  0  0  0  0  # atno 8009 bound_to 7997
  155.8951  140.1010  157.1380 H   0  0  0  0  0  0  0  0  0  0  0  0  # atno 8010 bound_to 7997
  140.7201  143.3606  151.1970 H   0  0  0  0  0  0  0  0  0  0  0  0  # atno 10167 bound_to 10162
  155.9991  130.4757  150.4678 H   0  0  0  0  0  0  0  0  0  0  0  0  # atno 10718 bound_to 10713
  153.0550  135.5046  154.7959 H   0  0  0  0  0  0  0  0  0  0  0  0  # atno 10763 bound_to 10752
  154.6792  135.2965  154.9639 H   0  0  0  0  0  0  0  0  0  0  0  0  # atno 10764 bound_to 10752
  154.0431  135.6714  153.4845 H   0  0  0  0  0  0  0  0  0  0  0  0  # atno 10765 bound_to 10752
  140.8778  133.7675  156.0265 H   0  0  0  0  0  0  0  0  0  0  0  0  # atno 11005 bound_to 11000
  144.8210  140.6550  143.6353 LP  0  0  0  0  0  0  0  0  0  0  0  0  # atno 17320 bound_to 7965
  145.4256  139.1557  143.4050 LP  0  0  0  0  0  0  0  0  0  0  0  0  # atno 17321 bound_to 7965
  139.7157  143.9304  152.2966 LP  0  0  0  0  0  0  0  0  0  0  0  0  # atno 17342 bound_to 10162
  139.9044  144.6893  150.8630 LP  0  0  0  0  0  0  0  0  0  0  0  0  # atno 17343 bound_to 10162
  157.2696  131.0584  151.2268 LP  0  0  0  0  0  0  0  0  0  0  0  0  # atno 17370 bound_to 10713
  157.3353  130.7006  149.6349 LP  0  0  0  0  0  0  0  0  0  0  0  0  # atno 17371 bound_to 10713
  140.8497  134.2968  157.5280 LP  0  0  0  0  0  0  0  0  0  0  0  0  # atno 17394 bound_to 11000
  139.8717  134.9461  156.3929 LP  0  0  0  0  0  0  0  0  0  0  0  0  # atno 17395 bound_to 11000

$$$$
