AV-unprocessed.smi:1464|AV-procd|sdf|5939|dock6
  -GOLD-   22720 6 23D 1   1.00000     0.00000
 Structure written by MMmdl.
 40 41  0  0  0  0  0  0  0  0  2 V2000
  152.7505  142.3810  159.4903 C   0  0  0  0  0  0  0  0  0  0  0  0
  152.1995  143.2896  158.3719 C   0  0  2  0  0  0  0  0  0  0  0  0
  152.5590  144.7698  158.6136 C   0  0  0  0  0  0  0  0  0  0  0  0
  151.7392  145.3881  159.7569 C   0  0  0  0  0  0  0  0  0  0  0  0
  150.2330  145.2331  159.5048 C   0  0  0  0  0  0  0  0  0  0  0  0
  149.8365  143.7635  159.2638 C   0  0  1  0  0  0  0  0  0  0  0  0
  148.4099  143.7085  158.9470 N   0  0  0  0  0  0  0  0  0  0  0  0
  147.3998  143.9278  159.8035 C   0  0  0  0  0  0  0  0  0  0  0  0
  147.5689  144.2074  160.9916 O   0  0  0  0  0  0  0  0  0  0  0  0
  145.9899  143.8015  159.2046 C   0  0  0  0  0  0  0  0  0  0  0  0
  144.9015  144.0329  160.1658 N   0  0  0  0  0  0  0  0  0  0  0  0
  143.9265  145.0268  159.7246 N   0  5  0  0  0  0  0  0  0  0  0  0
  142.8563  145.3020  160.5166 C   0  0  0  0  0  0  0  0  0  0  0  0
  141.9845  146.1088  160.2022 O   0  0  0  0  0  0  0  0  0  0  0  0
  142.7518  144.6096  161.7904 C   0  0  0  0  0  0  0  0  0  0  0  0
  143.6822  143.7182  162.1850 C   0  0  0  0  0  0  0  0  0  0  0  0
  144.8411  143.3863  161.3650 C   0  0  0  0  0  0  0  0  0  0  0  0
  145.6990  142.5790  161.7233 O   0  0  0  0  0  0  0  0  0  0  0  0
  150.6753  143.1358  158.1201 C   0  0  2  0  0  0  0  0  0  0  0  0
  150.2749  141.6799  157.8079 C   0  0  0  0  0  0  0  0  0  0  0  0
  152.2663  142.5656  160.4487 H   0  0  0  0  0  0  0  0  0  0  0  0
  153.8200  142.5412  159.6287 H   0  0  0  0  0  0  0  0  0  0  0  0
  152.6181  141.3260  159.2515 H   0  0  0  0  0  0  0  0  0  0  0  0
  152.7113  142.9883  157.4568 H   0  0  0  0  0  0  0  0  0  0  0  0
  153.6246  144.8714  158.8219 H   0  0  0  0  0  0  0  0  0  0  0  0
  152.3756  145.3370  157.7001 H   0  0  0  0  0  0  0  0  0  0  0  0
  152.0045  144.9190  160.7047 H   0  0  0  0  0  0  0  0  0  0  0  0
  151.9883  146.4446  159.8603 H   0  0  0  0  0  0  0  0  0  0  0  0
  149.6768  145.6352  160.3528 H   0  0  0  0  0  0  0  0  0  0  0  0
  149.9528  145.8362  158.6398 H   0  0  0  0  0  0  0  0  0  0  0  0
  150.0351  143.2059  160.1801 H   0  0  0  0  0  0  0  0  0  0  0  0
  148.1688  143.4795  157.9936 H   0  0  0  0  0  0  0  0  0  0  0  0
  145.8989  144.5010  158.3719 H   0  0  0  0  0  0  0  0  0  0  0  0
  145.8965  142.8082  158.7616 H   0  0  0  0  0  0  0  0  0  0  0  0
  141.9106  144.8166  162.4355 H   0  0  0  0  0  0  0  0  0  0  0  0
  143.5651  143.2286  163.1402 H   0  0  0  0  0  0  0  0  0  0  0  0
  150.4567  143.7079  157.2165 H   0  0  0  0  0  0  0  0  0  0  0  0
  150.3335  141.0486  158.6946 H   0  0  0  0  0  0  0  0  0  0  0  0
  150.9230  141.2483  157.0449 H   0  0  0  0  0  0  0  0  0  0  0  0
  149.2532  141.6184  157.4328 H   0  0  0  0  0  0  0  0  0  0  0  0
  1  2  1  0  0  0  0
  1 21  1  0  0  0  0
  1 22  1  0  0  0  0
  1 23  1  0  0  0  0
  2 19  1  0  0  0  0
  2  3  1  0  0  0  0
  2 24  1  0  0  0  0
  3  4  1  0  0  0  0
  3 25  1  0  0  0  0
  3 26  1  0  0  0  0
  4  5  1  0  0  0  0
  4 27  1  0  0  0  0
  4 28  1  0  0  0  0
  5  6  1  0  0  0  0
  5 29  1  0  0  0  0
  5 30  1  0  0  0  0
  6  7  1  0  0  0  0
  6 19  1  0  0  0  0
  6 31  1  0  0  0  0
  7  8  1  0  0  0  0
  7 32  1  0  0  0  0
  8  9  2  0  0  0  0
  8 10  1  0  0  0  0
 10 33  1  0  0  0  0
 10 34  1  0  0  0  0
 10 11  1  0  0  0  0
 11 12  1  0  0  0  0
 11 17  1  0  0  0  0
 12 13  1  0  0  0  0
 13 14  2  0  0  0  0
 13 15  1  0  0  0  0
 15 35  1  0  0  0  0
 15 16  2  0  0  0  0
 16 36  1  0  0  0  0
 16 17  1  0  0  0  0
 17 18  2  0  0  0  0
 19 20  1  0  0  0  0
 19 37  1  0  0  0  0
 20 38  1  0  0  0  0
 20 39  1  0  0  0  0
 20 40  1  0  0  0  0
M  CHG  1  12  -1
M  END
> <s_m_source_file>
AV-unprocessed.smi

> <i_m_source_file_index>
1464

> <i_lp_mmshare_version>
43012

> <i_f3d_flags>
0

> <s_epik_input>
W0NIM11bQ0BASF0xW0NIMl1bQ0gyXVtDSDJdW0NASF0oW0NASF0xW0NIM10pW05IXUMoPU8pW0NIMl1uMltuSF1jKD1PKVtjSF1bY0hdYzI9Tw==

> <s_epik_cmdline>
J2VwaWtfcHl0aG9uJywgJy1waCcsICc3LjAnLCAnLXRuJywgJzgnLCAnLW1hJywgJzIwMCcsICctbWV0YWxfYmluZGluZycsICctaW1hZScsICc8aW5maWxlLm1hZT4nLCAnLW9tYWUnLCAnPG91dGZpbGUubWFlPic=

> <r_lp_tautomer_probability>
1

> <r_epik_Ionization_Penalty>
0.101366

> <r_epik_Ionization_Penalty_Charging>
0.101366

> <r_epik_Ionization_Penalty_Neutral>
1.90469e-08

> <r_epik_State_Penalty>
0.035861

> <r_epik_Charging_Adjusted_Penalty>
0.137227

> <i_epik_Tot_Q>
-1

> <i_epik_Tot_abs_Q>
1

> <r_epik_Metal_State_Penalty>
0.035861

> <b_epik_Metal_Only>
0

> <s_lp_Force_Field>
OPLS_2005

> <r_lp_Energy>
29.8831

> <b_lp_Chiralities_Consistent>
1

> <s_lp_Variant>
AV-unprocessed.smi:1464-5

> <Gold.Version>
5.8.1

> <Gold.Id.Protein>
6NUR|6NUR_protein|mol2

> <Gold.PLP.Fitness>
46.1279

> <Gold.PLP.PLP>
-41.3005

> <Gold.PLP.part.hbond>
-3.0000

> <Gold.PLP.part.metal>
0.0000

> <Gold.PLP.part.buried>
-5.6203

> <Gold.PLP.part.nonpolar>
-32.2141

> <Gold.PLP.part.repulsive>
0.3737

> <Gold.PLP.ligand.clash>
0.0000

> <Gold.PLP.ligand.torsion>
0.1930

> <Gold.PLP.Chemscore.Hbond>
1.7360

> <Gold.PLP.Chemscore.CHOScore>
0.0000

> <Gold.PLP.Chemscore.Metal>
0.0000

> <Gold.Chemscore.Hbonds>
donor molecule, donor type, donor heavy atom, donor atom, acceptor molecule, acceptor atom, score
      P1  H  6933  6944       L1     9  0.56
      P1  H  6934  6946       L1    18  0.23

> <Gold.PLP.Chemscore.Internal.Correction>
0.0054

> <Gold.Rescore>
     Score         DG    S(hbond)    S(metal)    S(lipo)     H(rot)  DE(clash)    DE(int)     intcor
     17.16     -21.20       2.77        0.00      91.34       1.64       0.37       3.67       ----

> <Gold.Chemscore.Fitness>
17.1563

> <Gold.Chemscore.DG>
-21.2011

> <Gold.Chemscore.ZeroCoef>
-5.4800

> <Gold.Chemscore.Hbond>
2.7672

> <Gold.Chemscore.Metal>
0.0000

> <Gold.Chemscore.Lipo>
91.3400

> <Gold.Chemscore.Internal_Hbond>
0.0000

> <Gold.Chemscore.DEClash>
0.3739

> <Gold.Chemscore.DEInternal>
3.6709

> <Gold.Chemscore.Rot>
1.6438

> <Gold.Chemscore.Internal.Correction>
   9.000000E+99

> <Gold.Chemscore.Hbonds>
donor molecule, donor type, donor heavy atom, donor atom, acceptor molecule, acceptor atom, score
      P1  H  6933  6944       L1     9  0.06
      P1  H  6934  6946       L1    18  0.23

> <Gold.Chemscore.Hbond.Weighted>
-9.2423

> <Gold.Chemscore.Metal.Weighted>
-0.0000

> <Gold.Chemscore.Lipo.Weighted>
-10.6868

> <Gold.Chemscore.Internal_Hbond.Weighted>
0.0000

> <Gold.Chemscore.DEClash.Weighted>
0.3739

> <Gold.Chemscore.DEInternal.Weighted>
3.6709

> <Gold.Chemscore.Rot.Weighted>
4.2080

> <Gold.Chemscore.Internal.Correction.Weighted>
   9.000000E+99

> <Gold.Protein.RotatedTorsions>
[ 6907 6896 6895 6894 ] final -144.96 input  -60.11 | X-H torsion
[ 7974 7965 7964 7962 ] final  155.32 input  175.53 | X-H torsion
[ 8008 7997 7996 7995 ] final   95.58 input   59.86 | X-H torsion
[ 10167 10162 10161 10158 ] final   56.55 input  -65.29 | X-H torsion
[ 10718 10713 10712 10709 ] final  120.39 input   66.30 | X-H torsion
[ 10763 10752 10751 10750 ] final  138.21 input  -60.55 | X-H torsion
[ 11005 11000 10999 10996 ] final   34.71 input  -57.11 | X-H torsion

> <Gold.Protein.ActiveResidues>
 VAL166  LYS551  ARG553  GLY616  TRP617  ASP618  TYR619  PRO620  LYS621  CYS622 
 ASP623  PHE694  ASN695  SER759  ASP760  ASP761  ALA762  ILE779  LEU786  VAL792 
 PHE793  MET794  SER795  GLU796  ALA797  LYS798  CYS799  TRP800  GLU811  SER814 

> <Gold.Protein.RotatedAtoms>
  151.1211  133.5103  159.2601 H   0  0  0  0  0  0  0  0  0  0  0  0  # atno 6907 bound_to 6896
  151.1860  135.0381  159.8822 H   0  0  0  0  0  0  0  0  0  0  0  0  # atno 6908 bound_to 6896
  152.5456  134.1057  159.8390 H   0  0  0  0  0  0  0  0  0  0  0  0  # atno 6909 bound_to 6896
  144.8032  139.7052  143.6173 H   0  0  0  0  0  0  0  0  0  0  0  0  # atno 7974 bound_to 7965
  156.0704  140.3284  155.7569 H   0  0  0  0  0  0  0  0  0  0  0  0  # atno 8008 bound_to 7997
  155.5314  140.0593  157.2905 H   0  0  0  0  0  0  0  0  0  0  0  0  # atno 8009 bound_to 7997
  154.4527  140.1927  156.0488 H   0  0  0  0  0  0  0  0  0  0  0  0  # atno 8010 bound_to 7997
  140.2075  144.3924  150.6503 H   0  0  0  0  0  0  0  0  0  0  0  0  # atno 10167 bound_to 10162
  157.5894  131.1066  150.8029 H   0  0  0  0  0  0  0  0  0  0  0  0  # atno 10718 bound_to 10713
  153.8858  135.3039  155.3446 H   0  0  0  0  0  0  0  0  0  0  0  0  # atno 10763 bound_to 10752
  154.7740  135.4871  153.9709 H   0  0  0  0  0  0  0  0  0  0  0  0  # atno 10764 bound_to 10752
  153.1326  135.6807  153.9252 H   0  0  0  0  0  0  0  0  0  0  0  0  # atno 10765 bound_to 10752
  140.2501  134.3313  155.7893 H   0  0  0  0  0  0  0  0  0  0  0  0  # atno 11005 bound_to 11000
  146.2319  139.5829  142.9550 LP  0  0  0  0  0  0  0  0  0  0  0  0  # atno 17320 bound_to 7965
  145.5501  141.0414  143.2283 LP  0  0  0  0  0  0  0  0  0  0  0  0  # atno 17321 bound_to 7965
  140.6347  143.2193  151.6421 LP  0  0  0  0  0  0  0  0  0  0  0  0  # atno 17342 bound_to 10162
  139.5193  144.3258  152.0870 LP  0  0  0  0  0  0  0  0  0  0  0  0  # atno 17343 bound_to 10162
  156.8454  130.5062  149.5317 LP  0  0  0  0  0  0  0  0  0  0  0  0  # atno 17370 bound_to 10713
  156.0947  130.5923  150.9793 LP  0  0  0  0  0  0  0  0  0  0  0  0  # atno 17371 bound_to 10713
  141.2202  133.7348  156.9023 LP  0  0  0  0  0  0  0  0  0  0  0  0  # atno 17394 bound_to 11000
  140.1567  134.9194  157.2662 LP  0  0  0  0  0  0  0  0  0  0  0  0  # atno 17395 bound_to 11000

$$$$
