AV-unprocessed.smi:1322|AV-procd|sdf|5463|dock6
  -GOLD-   22720 5 33D 1   1.00000     0.00000
 Structure written by MMmdl.
 32 33  0  0  0  0  0  0  0  0  1 V2000
  151.2401  144.3774  158.3638 C   0  0  0  0  0  0  0  0  0  0  0  0
  150.9012  142.8820  158.2153 C   0  0  2  0  0  0  0  0  0  0  0  0
  152.1145  141.9618  158.4602 C   0  0  0  0  0  0  0  0  0  0  0  0
  152.6645  142.0891  159.7980 N   0  0  0  0  0  0  0  0  0  0  0  0
  153.8321  141.5542  160.3006 C   0  0  0  0  0  0  0  0  0  0  0  0
  153.9246  141.9371  161.6080 C   0  0  0  0  0  0  0  0  0  0  0  0
  152.7483  142.7101  161.8176 C   0  0  0  0  0  0  0  0  0  0  0  0
  151.9951  142.7971  160.7332 N   0  0  0  0  0  0  0  0  0  0  0  0
  150.3624  142.6122  156.8849 N   0  0  0  0  0  0  0  0  0  0  0  0
  150.1935  141.3965  156.3424 C   0  0  0  0  0  0  0  0  0  0  0  0
  150.4648  140.3496  156.9319 O   0  0  0  0  0  0  0  0  0  0  0  0
  149.6380  141.3728  154.9122 C   0  0  0  0  0  0  0  0  0  0  0  0
  148.1130  141.5537  154.8195 C   0  0  0  0  0  0  0  0  0  0  0  0
  148.0847  140.4267  153.7827 C   0  0  0  0  0  0  0  0  0  0  0  0
  149.4449  139.9666  154.3154 C   0  0  0  0  0  0  0  0  0  0  0  0
  151.5845  144.6103  159.3715 H   0  0  0  0  0  0  0  0  0  0  0  0
  150.3678  145.0027  158.1721 H   0  0  0  0  0  0  0  0  0  0  0  0
  152.0233  144.6764  157.6666 H   0  0  0  0  0  0  0  0  0  0  0  0
  150.1371  142.6307  158.9534 H   0  0  0  0  0  0  0  0  0  0  0  0
  151.8365  140.9182  158.3043 H   0  0  0  0  0  0  0  0  0  0  0  0
  152.9058  142.1824  157.7422 H   0  0  0  0  0  0  0  0  0  0  0  0
  154.4932  140.9543  159.6926 H   0  0  0  0  0  0  0  0  0  0  0  0
  154.7114  141.7001  162.3086 H   0  0  0  0  0  0  0  0  0  0  0  0
  152.4210  143.2061  162.7194 H   0  0  0  0  0  0  0  0  0  0  0  0
  150.1113  143.4147  156.3263 H   0  0  0  0  0  0  0  0  0  0  0  0
  150.1703  142.0357  154.2274 H   0  0  0  0  0  0  0  0  0  0  0  0
  147.5753  141.2984  155.7346 H   0  0  0  0  0  0  0  0  0  0  0  0
  147.7980  142.5222  154.4304 H   0  0  0  0  0  0  0  0  0  0  0  0
  147.2763  139.7069  153.9144 H   0  0  0  0  0  0  0  0  0  0  0  0
  148.1364  140.7955  152.7570 H   0  0  0  0  0  0  0  0  0  0  0  0
  150.1611  139.7069  153.5354 H   0  0  0  0  0  0  0  0  0  0  0  0
  149.3578  139.1686  155.0550 H   0  0  0  0  0  0  0  0  0  0  0  0
  1  2  1  0  0  0  0
  1 16  1  0  0  0  0
  1 17  1  0  0  0  0
  1 18  1  0  0  0  0
  2  3  1  0  0  0  0
  2  9  1  0  0  0  0
  2 19  1  0  0  0  0
  3  4  1  0  0  0  0
  3 20  1  0  0  0  0
  3 21  1  0  0  0  0
  4  8  1  0  0  0  0
  4  5  1  0  0  0  0
  5  6  2  0  0  0  0
  5 22  1  0  0  0  0
  6  7  1  0  0  0  0
  6 23  1  0  0  0  0
  7  8  2  0  0  0  0
  7 24  1  0  0  0  0
  9 10  1  0  0  0  0
  9 25  1  0  0  0  0
 10 11  2  0  0  0  0
 10 12  1  0  0  0  0
 12 15  1  0  0  0  0
 12 13  1  0  0  0  0
 12 26  1  0  0  0  0
 13 14  1  0  0  0  0
 13 27  1  0  0  0  0
 13 28  1  0  0  0  0
 14 15  1  0  0  0  0
 14 29  1  0  0  0  0
 14 30  1  0  0  0  0
 15 31  1  0  0  0  0
 15 32  1  0  0  0  0
M  END
> <s_m_source_file>
AV-unprocessed.smi

> <i_m_source_file_index>
1322

> <i_lp_mmshare_version>
43012

> <i_f3d_flags>
0

> <s_epik_input>
W0NIMl0xW0NIMl1bQ0gyXVtDSF0xQyg9TylbTkhdW0NASF0oW0NIM10pW0NIMl1uMltjSF1bY0hdW2NIXW4y

> <s_epik_cmdline>
J2VwaWtfcHl0aG9uJywgJy1waCcsICc3LjAnLCAnLXRuJywgJzgnLCAnLW1hJywgJzIwMCcsICctbWV0YWxfYmluZGluZycsICctaW1hZScsICc8aW5maWxlLm1hZT4nLCAnLW9tYWUnLCAnPG91dGZpbGUubWFlPic=

> <r_lp_tautomer_probability>
1

> <r_epik_Ionization_Penalty>
0.000326653

> <r_epik_Ionization_Penalty_Charging>
0

> <r_epik_Ionization_Penalty_Neutral>
0.000326653

> <r_epik_State_Penalty>
-0

> <r_epik_Charging_Adjusted_Penalty>
0

> <i_epik_Tot_Q>
0

> <i_epik_Tot_abs_Q>
0

> <r_epik_Metal_State_Penalty>
-0

> <b_epik_Metal_Only>
0

> <s_lp_Force_Field>
OPLS_2005

> <r_lp_Energy>
10.8536

> <b_lp_Chiralities_Consistent>
1

> <s_lp_Variant>
AV-unprocessed.smi:1322-1

> <Gold.Version>
5.8.1

> <Gold.Id.Protein>
6NUR|6NUR_protein|mol2

> <Gold.PLP.Fitness>
40.4759

> <Gold.PLP.PLP>
-38.5439

> <Gold.PLP.part.hbond>
-1.5584

> <Gold.PLP.part.metal>
0.0000

> <Gold.PLP.part.buried>
-3.2017

> <Gold.PLP.part.nonpolar>
-33.8051

> <Gold.PLP.part.repulsive>
0.1022

> <Gold.PLP.ligand.clash>
0.0000

> <Gold.PLP.ligand.torsion>
0.5628

> <Gold.PLP.Chemscore.Hbond>
0.8800

> <Gold.PLP.Chemscore.CHOScore>
0.0000

> <Gold.PLP.Chemscore.Metal>
0.0000

> <Gold.Chemscore.Hbonds>
donor molecule, donor type, donor heavy atom, donor atom, acceptor molecule, acceptor atom, score
      L1  H     9    25       P1  8028  1.00

> <Gold.PLP.Chemscore.Internal.Correction>
0.4176

> <Gold.Rescore>
     Score         DG    S(hbond)    S(metal)    S(lipo)     H(rot)  DE(clash)    DE(int)     intcor
     12.45     -15.47       0.97        0.00      91.40       1.55       0.00       3.01       ----

> <Gold.Chemscore.Fitness>
12.4550

> <Gold.Chemscore.DG>
-15.4670

> <Gold.Chemscore.ZeroCoef>
-5.4800

> <Gold.Chemscore.Hbond>
0.9743

> <Gold.Chemscore.Metal>
0.0000

> <Gold.Chemscore.Lipo>
91.3965

> <Gold.Chemscore.Internal_Hbond>
0.0000

> <Gold.Chemscore.DEClash>
0.0047

> <Gold.Chemscore.DEInternal>
3.0074

> <Gold.Chemscore.Rot>
1.5471

> <Gold.Chemscore.Internal.Correction>
   9.000000E+99

> <Gold.Chemscore.Hbonds>
donor molecule, donor type, donor heavy atom, donor atom, acceptor molecule, acceptor atom, score
      L1  H     9    25       P1  8028  0.97

> <Gold.Chemscore.Hbond.Weighted>
-3.2543

> <Gold.Chemscore.Metal.Weighted>
-0.0000

> <Gold.Chemscore.Lipo.Weighted>
-10.6934

> <Gold.Chemscore.Internal_Hbond.Weighted>
0.0000

> <Gold.Chemscore.DEClash.Weighted>
0.0047

> <Gold.Chemscore.DEInternal.Weighted>
3.0074

> <Gold.Chemscore.Rot.Weighted>
3.9606

> <Gold.Chemscore.Internal.Correction.Weighted>
   9.000000E+99

> <Gold.Protein.RotatedTorsions>
[ 6907 6896 6895 6894 ] final -142.08 input  -60.11 | X-H torsion
[ 7974 7965 7964 7962 ] final  -49.94 input  175.53 | X-H torsion
[ 8008 7997 7996 7995 ] final  151.58 input   59.86 | X-H torsion
[ 10167 10162 10161 10158 ] final  127.28 input  -65.29 | X-H torsion
[ 10718 10713 10712 10709 ] final  -72.32 input   66.30 | X-H torsion
[ 10763 10752 10751 10750 ] final  105.97 input  -60.55 | X-H torsion
[ 11005 11000 10999 10996 ] final   63.62 input  -57.11 | X-H torsion

> <Gold.Protein.ActiveResidues>
 VAL166  LYS551  ARG553  GLY616  TRP617  ASP618  TYR619  PRO620  LYS621  CYS622 
 ASP623  PHE694  ASN695  SER759  ASP760  ASP761  ALA762  ILE779  LEU786  VAL792 
 PHE793  MET794  SER795  GLU796  ALA797  LYS798  CYS799  TRP800  GLU811  SER814 

> <Gold.Protein.RotatedAtoms>
  151.0823  133.5380  159.2619 H   0  0  0  0  0  0  0  0  0  0  0  0  # atno 6907 bound_to 6896
  151.2279  135.0542  159.8985 H   0  0  0  0  0  0  0  0  0  0  0  0  # atno 6908 bound_to 6896
  152.5425  134.0617  159.8208 H   0  0  0  0  0  0  0  0  0  0  0  0  # atno 6909 bound_to 6896
  145.9352  140.7713  142.9580 H   0  0  0  0  0  0  0  0  0  0  0  0  # atno 7974 bound_to 7965
  156.2667  140.2044  156.6198 H   0  0  0  0  0  0  0  0  0  0  0  0  # atno 8008 bound_to 7997
  154.6766  140.0544  157.0246 H   0  0  0  0  0  0  0  0  0  0  0  0  # atno 8009 bound_to 7997
  155.1060  140.3211  155.4537 H   0  0  0  0  0  0  0  0  0  0  0  0  # atno 8010 bound_to 7997
  139.5586  144.6866  151.4108 H   0  0  0  0  0  0  0  0  0  0  0  0  # atno 10167 bound_to 10162
  156.0325  130.4370  150.2575 H   0  0  0  0  0  0  0  0  0  0  0  0  # atno 10718 bound_to 10713
  153.3866  135.3892  155.1894 H   0  0  0  0  0  0  0  0  0  0  0  0  # atno 10763 bound_to 10752
  154.8714  135.3738  154.4790 H   0  0  0  0  0  0  0  0  0  0  0  0  # atno 10764 bound_to 10752
  153.5272  135.7086  153.5763 H   0  0  0  0  0  0  0  0  0  0  0  0  # atno 10765 bound_to 10752
  140.0012  134.6439  155.9927 H   0  0  0  0  0  0  0  0  0  0  0  0  # atno 11005 bound_to 11000
  144.6770  140.2191  143.7368 LP  0  0  0  0  0  0  0  0  0  0  0  0  # atno 17320 bound_to 7965
  145.8374  139.2114  143.1847 LP  0  0  0  0  0  0  0  0  0  0  0  0  # atno 17321 bound_to 7965
  140.6863  143.7966  150.7191 LP  0  0  0  0  0  0  0  0  0  0  0  0  # atno 17342 bound_to 10162
  140.1435  143.4420  152.2178 LP  0  0  0  0  0  0  0  0  0  0  0  0  # atno 17343 bound_to 10162
  157.0676  131.0107  151.3201 LP  0  0  0  0  0  0  0  0  0  0  0  0  # atno 17370 bound_to 10713
  157.5024  130.7888  149.7618 LP  0  0  0  0  0  0  0  0  0  0  0  0  # atno 17371 bound_to 10713
  141.1643  133.6537  156.4426 LP  0  0  0  0  0  0  0  0  0  0  0  0  # atno 17394 bound_to 11000
  140.4724  134.6741  157.5135 LP  0  0  0  0  0  0  0  0  0  0  0  0  # atno 17395 bound_to 11000

$$$$
