AV-unprocessed.smi:2519|AV-procd|sdf|9903|dock9
  -GOLD-   2272013543D 1   1.00000     0.00000
 Structure written by MMmdl.
 43 44  0  0  0  0  0  0  0  0  1 V2000
  144.0450  136.5215  156.4411 C   0  0  0  0  0  0  0  0  0  0  0  0
  145.0998  137.3684  155.9066 N   0  0  0  0  0  0  0  0  0  0  0  0
  145.6895  138.3682  156.5827 C   0  0  0  0  0  0  0  0  0  0  0  0
  145.3928  138.6590  157.7425 O   0  0  0  0  0  0  0  0  0  0  0  0
  146.7610  139.1267  155.8420 C   0  0  0  0  0  0  0  0  0  0  0  0
  147.1416  138.7260  154.5418 C   0  0  0  0  0  0  0  0  0  0  0  0
  148.1492  139.4488  153.8787 C   0  0  0  0  0  0  0  0  0  0  0  0
  148.7423  140.5447  154.5320 C   0  0  0  0  0  0  0  0  0  0  0  0
  148.3128  140.8895  155.8313 C   0  0  0  0  0  0  0  0  0  0  0  0
  148.9655  142.0116  156.4053 N   0  0  0  0  0  0  0  0  0  0  0  0
  149.3452  142.1926  157.6861 C   0  0  0  0  0  0  0  0  0  0  0  0
  149.2299  141.3520  158.5765 O   0  0  0  0  0  0  0  0  0  0  0  0
  149.8889  143.3980  157.9367 N   0  0  0  0  0  0  0  0  0  0  0  0
  150.4049  143.9271  159.2040 C   0  0  2  0  0  0  0  0  0  0  0  0
  151.2475  145.1903  158.9428 C   0  0  0  0  0  0  0  0  0  0  0  0
  152.5803  144.8657  158.2467 C   0  0  0  0  0  0  0  0  0  0  0  0
  153.3830  143.8150  159.0299 C   0  0  0  0  0  0  0  0  0  0  0  0
  152.5642  142.5287  159.2663 C   0  0  1  0  0  0  0  0  0  0  0  0
  153.3690  141.4647  160.0404 C   0  0  0  0  0  0  0  0  0  0  0  0
  153.4074  141.7522  161.3418 F   0  0  0  0  0  0  0  0  0  0  0  0
  152.8110  140.2646  159.8805 F   0  0  0  0  0  0  0  0  0  0  0  0
  154.6168  141.4078  159.5744 F   0  0  0  0  0  0  0  0  0  0  0  0
  151.2330  142.8716  159.9721 C   0  0  0  0  0  0  0  0  0  0  0  0
  147.3414  140.1842  156.4599 N   0  0  0  0  0  0  0  0  0  0  0  0
  143.7935  135.7430  155.7208 H   0  0  0  0  0  0  0  0  0  0  0  0
  143.1457  137.1051  156.6415 H   0  0  0  0  0  0  0  0  0  0  0  0
  144.3616  136.0396  157.3669 H   0  0  0  0  0  0  0  0  0  0  0  0
  145.4043  137.1930  154.9592 H   0  0  0  0  0  0  0  0  0  0  0  0
  146.6762  137.8819  154.0538 H   0  0  0  0  0  0  0  0  0  0  0  0
  148.4628  139.1671  152.8844 H   0  0  0  0  0  0  0  0  0  0  0  0
  149.5175  141.1113  154.0366 H   0  0  0  0  0  0  0  0  0  0  0  0
  149.1406  142.7807  155.7757 H   0  0  0  0  0  0  0  0  0  0  0  0
  149.9722  144.0186  157.1445 H   0  0  0  0  0  0  0  0  0  0  0  0
  149.5561  144.2260  159.8213 H   0  0  0  0  0  0  0  0  0  0  0  0
  150.6803  145.9080  158.3488 H   0  0  0  0  0  0  0  0  0  0  0  0
  151.4553  145.6830  159.8935 H   0  0  0  0  0  0  0  0  0  0  0  0
  152.3917  144.5029  157.2357 H   0  0  0  0  0  0  0  0  0  0  0  0
  153.1709  145.7757  158.1389 H   0  0  0  0  0  0  0  0  0  0  0  0
  154.2985  143.5823  158.4855 H   0  0  0  0  0  0  0  0  0  0  0  0
  153.6931  144.2361  159.9870 H   0  0  0  0  0  0  0  0  0  0  0  0
  152.3265  142.1033  158.2899 H   0  0  0  0  0  0  0  0  0  0  0  0
  151.4465  143.2533  160.9713 H   0  0  0  0  0  0  0  0  0  0  0  0
  150.6454  141.9658  160.1222 H   0  0  0  0  0  0  0  0  0  0  0  0
  1  2  1  0  0  0  0
  1 25  1  0  0  0  0
  1 26  1  0  0  0  0
  1 27  1  0  0  0  0
  2  3  1  0  0  0  0
  2 28  1  0  0  0  0
  3  4  2  0  0  0  0
  3  5  1  0  0  0  0
  5 24  1  0  0  0  0
  5  6  2  0  0  0  0
  6  7  1  0  0  0  0
  6 29  1  0  0  0  0
  7  8  2  0  0  0  0
  7 30  1  0  0  0  0
  8  9  1  0  0  0  0
  8 31  1  0  0  0  0
  9 10  1  0  0  0  0
  9 24  2  0  0  0  0
 10 11  1  0  0  0  0
 10 32  1  0  0  0  0
 11 12  2  0  0  0  0
 11 13  1  0  0  0  0
 13 14  1  0  0  0  0
 13 33  1  0  0  0  0
 14 23  1  0  0  0  0
 14 15  1  0  0  0  0
 14 34  1  0  0  0  0
 15 16  1  0  0  0  0
 15 35  1  0  0  0  0
 15 36  1  0  0  0  0
 16 17  1  0  0  0  0
 16 37  1  0  0  0  0
 16 38  1  0  0  0  0
 17 18  1  0  0  0  0
 17 39  1  0  0  0  0
 17 40  1  0  0  0  0
 18 19  1  0  0  0  0
 18 23  1  0  0  0  0
 18 41  1  0  0  0  0
 19 20  1  0  0  0  0
 19 21  1  0  0  0  0
 19 22  1  0  0  0  0
 23 42  1  0  0  0  0
 23 43  1  0  0  0  0
M  END
> <s_m_source_file>
AV-unprocessed.smi

> <i_m_source_file_index>
2519

> <i_lp_mmshare_version>
43012

> <i_f3d_flags>
0

> <s_epik_input>
W0NIM11bTkhdQyg9TyljMVtjSF1bY0hdW2NIXWMobjEpW05IXUMoPU8pW05IXVtDQEBIXTJbQ0gyXVtDSDJdW0NIMl1bQ0BASF0oQyhGKShGKUYpW0NIMl0y

> <s_epik_cmdline>
J2VwaWtfcHl0aG9uJywgJy1waCcsICc3LjAnLCAnLXRuJywgJzgnLCAnLW1hJywgJzIwMCcsICctbWV0YWxfYmluZGluZycsICctaW1hZScsICc8aW5maWxlLm1hZT4nLCAnLW9tYWUnLCAnPG91dGZpbGUubWFlPic=

> <r_lp_tautomer_probability>
1

> <r_epik_Ionization_Penalty>
3.74915e-05

> <r_epik_Ionization_Penalty_Charging>
0

> <r_epik_Ionization_Penalty_Neutral>
3.74915e-05

> <r_epik_State_Penalty>
-0

> <r_epik_Charging_Adjusted_Penalty>
0

> <i_epik_Tot_Q>
0

> <i_epik_Tot_abs_Q>
0

> <r_epik_Metal_State_Penalty>
-0

> <b_epik_Metal_Only>
0

> <s_lp_Force_Field>
OPLS_2005

> <r_lp_Energy>
26.8043

> <b_lp_Chiralities_Consistent>
1

> <s_lp_Variant>
AV-unprocessed.smi:2519-1

> <Gold.Version>
5.8.1

> <Gold.Id.Protein>
6NUR|6NUR_protein|mol2

> <Gold.PLP.Fitness>
37.9831

> <Gold.PLP.PLP>
-34.8133

> <Gold.PLP.part.hbond>
-3.0560

> <Gold.PLP.part.metal>
0.0000

> <Gold.PLP.part.buried>
-2.0134

> <Gold.PLP.part.nonpolar>
-29.5229

> <Gold.PLP.part.repulsive>
0.0969

> <Gold.PLP.ligand.clash>
0.0000

> <Gold.PLP.ligand.torsion>
0.8796

> <Gold.PLP.Chemscore.Hbond>
1.6320

> <Gold.PLP.Chemscore.CHOScore>
0.0000

> <Gold.PLP.Chemscore.Metal>
0.0000

> <Gold.Chemscore.Hbonds>
donor molecule, donor type, donor heavy atom, donor atom, acceptor molecule, acceptor atom, score
      L1  H    10    32       P1  8028  0.80
      L1  H    13    33       P1  8028  0.82

> <Gold.PLP.Chemscore.Internal.Correction>
0.0329

> <Gold.Rescore>
     Score         DG    S(hbond)    S(metal)    S(lipo)     H(rot)  DE(clash)    DE(int)     intcor
     15.51     -19.13       1.54        0.00      94.58       1.00       0.77       2.85       ----

> <Gold.Chemscore.Fitness>
15.5071

> <Gold.Chemscore.DG>
-19.1333

> <Gold.Chemscore.ZeroCoef>
-5.4800

> <Gold.Chemscore.Hbond>
1.5411

> <Gold.Chemscore.Metal>
0.0000

> <Gold.Chemscore.Lipo>
94.5819

> <Gold.Chemscore.Internal_Hbond>
0.0000

> <Gold.Chemscore.DEClash>
0.7748

> <Gold.Chemscore.DEInternal>
2.8514

> <Gold.Chemscore.Rot>
1.0000

> <Gold.Chemscore.Internal.Correction>
   9.000000E+99

> <Gold.Chemscore.Hbonds>
donor molecule, donor type, donor heavy atom, donor atom, acceptor molecule, acceptor atom, score
      L1  H    10    32       P1  8028  0.78
      L1  H    13    33       P1  8028  0.69

> <Gold.Chemscore.Hbond.Weighted>
-5.1472

> <Gold.Chemscore.Metal.Weighted>
-0.0000

> <Gold.Chemscore.Lipo.Weighted>
-11.0661

> <Gold.Chemscore.Internal_Hbond.Weighted>
0.0000

> <Gold.Chemscore.DEClash.Weighted>
0.7748

> <Gold.Chemscore.DEInternal.Weighted>
2.8514

> <Gold.Chemscore.Rot.Weighted>
2.5600

> <Gold.Chemscore.Internal.Correction.Weighted>
   9.000000E+99

> <Gold.Protein.RotatedTorsions>
[ 6907 6896 6895 6894 ] final  166.72 input  -60.11 | X-H torsion
[ 7974 7965 7964 7962 ] final   -6.33 input  175.53 | X-H torsion
[ 8008 7997 7996 7995 ] final   36.15 input   59.86 | X-H torsion
[ 10167 10162 10161 10158 ] final  113.17 input  -65.29 | X-H torsion
[ 10718 10713 10712 10709 ] final -134.54 input   66.30 | X-H torsion
[ 10763 10752 10751 10750 ] final  -49.11 input  -60.55 | X-H torsion
[ 11005 11000 10999 10996 ] final -120.56 input  -57.11 | X-H torsion

> <Gold.Protein.ActiveResidues>
 VAL166  LYS551  ARG553  GLY616  TRP617  ASP618  TYR619  PRO620  LYS621  CYS622 
 ASP623  PHE694  ASN695  SER759  ASP760  ASP761  ALA762  ILE779  LEU786  VAL792 
 PHE793  MET794  SER795  GLU796  ALA797  LYS798  CYS799  TRP800  GLU811  SER814 

> <Gold.Protein.RotatedAtoms>
  151.8745  133.3482  159.3745 H   0  0  0  0  0  0  0  0  0  0  0  0  # atno 6907 bound_to 6896
  150.7144  134.5080  159.5603 H   0  0  0  0  0  0  0  0  0  0  0  0  # atno 6908 bound_to 6896
  152.2619  134.8025  160.0480 H   0  0  0  0  0  0  0  0  0  0  0  0  # atno 6909 bound_to 6896
  146.2333  140.2154  142.8336 H   0  0  0  0  0  0  0  0  0  0  0  0  # atno 7974 bound_to 7965
  155.1826  140.3301  155.4372 H   0  0  0  0  0  0  0  0  0  0  0  0  # atno 8008 bound_to 7997
  156.2471  140.1924  156.6874 H   0  0  0  0  0  0  0  0  0  0  0  0  # atno 8009 bound_to 7997
  154.6260  140.0589  156.9660 H   0  0  0  0  0  0  0  0  0  0  0  0  # atno 8010 bound_to 7997
  139.6481  144.7127  151.2102 H   0  0  0  0  0  0  0  0  0  0  0  0  # atno 10167 bound_to 10162
  156.2565  130.7184  151.1103 H   0  0  0  0  0  0  0  0  0  0  0  0  # atno 10718 bound_to 10713
  154.0887  135.6580  153.4849 H   0  0  0  0  0  0  0  0  0  0  0  0  # atno 10763 bound_to 10752
  153.0329  135.5197  154.7402 H   0  0  0  0  0  0  0  0  0  0  0  0  # atno 10764 bound_to 10752
  154.6519  135.3002  154.9945 H   0  0  0  0  0  0  0  0  0  0  0  0  # atno 10765 bound_to 10752
  141.0134  134.0231  157.3383 H   0  0  0  0  0  0  0  0  0  0  0  0  # atno 11005 bound_to 11000
  144.9673  140.8335  143.5476 LP  0  0  0  0  0  0  0  0  0  0  0  0  # atno 17320 bound_to 7965
  145.2132  139.2194  143.5132 LP  0  0  0  0  0  0  0  0  0  0  0  0  # atno 17321 bound_to 7965
  140.7524  143.6196  150.8526 LP  0  0  0  0  0  0  0  0  0  0  0  0  # atno 17342 bound_to 10162
  139.9841  143.5919  152.2933 LP  0  0  0  0  0  0  0  0  0  0  0  0  # atno 17343 bound_to 10162
  157.7234  131.0666  150.6036 LP  0  0  0  0  0  0  0  0  0  0  0  0  # atno 17370 bound_to 10713
  156.6120  130.4382  149.5855 LP  0  0  0  0  0  0  0  0  0  0  0  0  # atno 17371 bound_to 10713
  139.9103  135.0188  156.7663 LP  0  0  0  0  0  0  0  0  0  0  0  0  # atno 17394 bound_to 11000
  140.6695  133.9572  155.7849 LP  0  0  0  0  0  0  0  0  0  0  0  0  # atno 17395 bound_to 11000

$$$$
