AV-unprocessed.smi:1161|AV-procd|sdf|4917|dock1
  -GOLD-   22720 3493D 1   1.00000     0.00000
 Structure written by MMmdl.
 46 47  0  0  0  0  0  0  0  0  1 V2000
  144.7010  134.8498  150.7133 C   0  0  0  0  0  0  0  0  0  0  0  0
  145.5085  136.1565  150.6452 C   0  0  0  0  0  0  0  0  0  0  0  0
  145.5078  137.0112  151.9407 C   0  0  1  0  0  0  0  0  0  0  0  0
  144.0828  137.2438  152.4796 C   0  0  0  0  0  0  0  0  0  0  0  0
  146.2118  136.3172  152.9539 O   0  0  0  0  0  0  0  0  0  0  0  0
  146.2066  138.3833  151.7627 C   0  0  0  0  0  0  0  0  0  0  0  0
  147.4733  138.4867  152.4862 N   0  0  0  0  0  0  0  0  0  0  0  0
  147.7827  139.4256  153.3920 C   0  0  0  0  0  0  0  0  0  0  0  0
  147.0098  140.3190  153.7367 O   0  0  0  0  0  0  0  0  0  0  0  0
  149.0280  139.2481  153.8657 N   0  0  0  0  0  0  0  0  0  0  0  0
  149.7263  140.0152  154.8375 C   0  0  0  0  0  0  0  0  0  0  0  0
  149.0501  141.0998  155.4314 C   0  0  0  0  0  0  0  0  0  0  0  0
  149.7113  141.8751  156.4025 C   0  0  0  0  0  0  0  0  0  0  0  0
  151.0359  141.5318  156.7563 C   0  0  0  0  0  0  0  0  0  0  0  0
  151.7572  142.2669  157.7062 N   0  0  0  0  0  0  0  0  0  0  0  0
  151.6841  143.7082  157.5047 C   0  0  0  0  0  0  0  0  0  0  0  0
  152.6074  144.4249  158.5046 C   0  0  0  0  0  0  0  0  0  0  0  0
  152.2579  144.0442  159.8328 O   0  0  0  0  0  0  0  0  0  0  0  0
  152.4037  142.6423  160.0431 C   0  0  0  0  0  0  0  0  0  0  0  0
  151.4778  141.8762  159.0821 C   0  0  0  0  0  0  0  0  0  0  0  0
  151.6851  140.4832  156.2072 N   0  0  0  0  0  0  0  0  0  0  0  0
  151.0455  139.7436  155.2759 C   0  0  0  0  0  0  0  0  0  0  0  0
  144.8182  134.2808  149.7909 H   0  0  0  0  0  0  0  0  0  0  0  0
  143.6355  135.0385  150.8414 H   0  0  0  0  0  0  0  0  0  0  0  0
  145.0345  134.2149  151.5342 H   0  0  0  0  0  0  0  0  0  0  0  0
  146.5321  135.8948  150.3756 H   0  0  0  0  0  0  0  0  0  0  0  0
  145.1276  136.7584  149.8190 H   0  0  0  0  0  0  0  0  0  0  0  0
  143.4549  137.7302  151.7323 H   0  0  0  0  0  0  0  0  0  0  0  0
  144.0927  137.8820  153.3641 H   0  0  0  0  0  0  0  0  0  0  0  0
  143.5944  136.3123  152.7663 H   0  0  0  0  0  0  0  0  0  0  0  0
  147.1361  136.4759  152.8390 H   0  0  0  0  0  0  0  0  0  0  0  0
  146.3688  138.5712  150.6998 H   0  0  0  0  0  0  0  0  0  0  0  0
  145.5546  139.1892  152.1026 H   0  0  0  0  0  0  0  0  0  0  0  0
  148.1741  137.7949  152.2639 H   0  0  0  0  0  0  0  0  0  0  0  0
  149.5147  138.4297  153.5309 H   0  0  0  0  0  0  0  0  0  0  0  0
  148.0376  141.3420  155.1429 H   0  0  0  0  0  0  0  0  0  0  0  0
  149.2098  142.7149  156.8606 H   0  0  0  0  0  0  0  0  0  0  0  0
  151.9751  143.9536  156.4826 H   0  0  0  0  0  0  0  0  0  0  0  0
  150.6573  144.0507  157.6404 H   0  0  0  0  0  0  0  0  0  0  0  0
  153.6536  144.1846  158.3088 H   0  0  0  0  0  0  0  0  0  0  0  0
  152.5039  145.5053  158.4047 H   0  0  0  0  0  0  0  0  0  0  0  0
  153.4445  142.3486  159.8970 H   0  0  0  0  0  0  0  0  0  0  0  0
  152.1490  142.4095  161.0769 H   0  0  0  0  0  0  0  0  0  0  0  0
  150.4360  142.0894  159.3239 H   0  0  0  0  0  0  0  0  0  0  0  0
  151.6240  140.8015  159.1979 H   0  0  0  0  0  0  0  0  0  0  0  0
  151.6160  138.9096  154.8994 H   0  0  0  0  0  0  0  0  0  0  0  0
  1  2  1  0  0  0  0
  1 23  1  0  0  0  0
  1 24  1  0  0  0  0
  1 25  1  0  0  0  0
  2  3  1  0  0  0  0
  2 26  1  0  0  0  0
  2 27  1  0  0  0  0
  3  4  1  0  0  0  0
  3  5  1  0  0  0  0
  3  6  1  0  0  0  0
  4 28  1  0  0  0  0
  4 29  1  0  0  0  0
  4 30  1  0  0  0  0
  5 31  1  0  0  0  0
  6  7  1  0  0  0  0
  6 32  1  0  0  0  0
  6 33  1  0  0  0  0
  7  8  1  0  0  0  0
  7 34  1  0  0  0  0
  8  9  2  0  0  0  0
  8 10  1  0  0  0  0
 10 11  1  0  0  0  0
 10 35  1  0  0  0  0
 11 22  1  0  0  0  0
 11 12  2  0  0  0  0
 12 13  1  0  0  0  0
 12 36  1  0  0  0  0
 13 14  2  0  0  0  0
 13 37  1  0  0  0  0
 14 15  1  0  0  0  0
 14 21  1  0  0  0  0
 15 20  1  0  0  0  0
 15 16  1  0  0  0  0
 16 17  1  0  0  0  0
 16 38  1  0  0  0  0
 16 39  1  0  0  0  0
 17 18  1  0  0  0  0
 17 40  1  0  0  0  0
 17 41  1  0  0  0  0
 18 19  1  0  0  0  0
 19 20  1  0  0  0  0
 19 42  1  0  0  0  0
 19 43  1  0  0  0  0
 20 44  1  0  0  0  0
 20 45  1  0  0  0  0
 21 22  2  0  0  0  0
 22 46  1  0  0  0  0
M  END
> <s_m_source_file>
AV-unprocessed.smi

> <i_m_source_file_index>
1161

> <i_lp_mmshare_version>
43012

> <i_f3d_flags>
0

> <s_epik_input>
W0NIM11bQ0gyXVtDQEBdKFtDSDNdKShbT0hdKVtDSDJdW05IXUMoPU8pW05IXWMxW2NIXVtjSF1jKG5bY0hdMSlOMltDSDJdW0NIMl1PW0NIMl1bQ0gyXTI=

> <s_epik_cmdline>
J2VwaWtfcHl0aG9uJywgJy1waCcsICc3LjAnLCAnLXRuJywgJzgnLCAnLW1hJywgJzIwMCcsICctbWV0YWxfYmluZGluZycsICctaW1hZScsICc8aW5maWxlLm1hZT4nLCAnLW9tYWUnLCAnPG91dGZpbGUubWFlPic=

> <r_lp_tautomer_probability>
1

> <r_epik_Ionization_Penalty>
0.00208949

> <r_epik_Ionization_Penalty_Charging>
0

> <r_epik_Ionization_Penalty_Neutral>
0.00208949

> <r_epik_State_Penalty>
0.00140033

> <r_epik_Charging_Adjusted_Penalty>
0.00140033

> <i_epik_Tot_Q>
0

> <i_epik_Tot_abs_Q>
0

> <r_epik_Metal_State_Penalty>
-0

> <b_epik_Metal_Only>
0

> <s_lp_Force_Field>
OPLS_2005

> <r_lp_Energy>
26.851

> <b_lp_Chiralities_Consistent>
1

> <s_lp_Variant>
AV-unprocessed.smi:1161-1

> <Gold.Version>
5.8.1

> <Gold.Id.Protein>
6NUR|6NUR_protein|mol2

> <Gold.PLP.Fitness>
46.5472

> <Gold.PLP.PLP>
-43.4473

> <Gold.PLP.part.hbond>
-4.0000

> <Gold.PLP.part.metal>
0.0000

> <Gold.PLP.part.buried>
-1.4951

> <Gold.PLP.part.nonpolar>
-38.7675

> <Gold.PLP.part.repulsive>
0.3396

> <Gold.PLP.ligand.clash>
0.0000

> <Gold.PLP.ligand.torsion>
1.6092

> <Gold.PLP.Chemscore.Hbond>
2.0000

> <Gold.PLP.Chemscore.CHOScore>
0.0000

> <Gold.PLP.Chemscore.Metal>
0.0000

> <Gold.Chemscore.Hbonds>
donor molecule, donor type, donor heavy atom, donor atom, acceptor molecule, acceptor atom, score
      L1  H     5    31       P1  7948  0.89
      L1  H     7    34       P1  7948  1.00

> <Gold.PLP.Chemscore.Internal.Correction>
0.3183

> <Gold.Rescore>
     Score         DG    S(hbond)    S(metal)    S(lipo)     H(rot)  DE(clash)    DE(int)     intcor
     15.05     -18.32       1.95        0.00     101.41       2.16       0.10       3.17       ----

> <Gold.Chemscore.Fitness>
15.0538

> <Gold.Chemscore.DG>
-18.3221

> <Gold.Chemscore.ZeroCoef>
-5.4800

> <Gold.Chemscore.Hbond>
1.9506

> <Gold.Chemscore.Metal>
0.0000

> <Gold.Chemscore.Lipo>
101.4109

> <Gold.Chemscore.Internal_Hbond>
0.0000

> <Gold.Chemscore.DEClash>
0.1011

> <Gold.Chemscore.DEInternal>
3.1672

> <Gold.Chemscore.Rot>
2.1633

> <Gold.Chemscore.Internal.Correction>
   9.000000E+99

> <Gold.Chemscore.Hbonds>
donor molecule, donor type, donor heavy atom, donor atom, acceptor molecule, acceptor atom, score
      L1  H     5    31       P1  7948  0.84
      L1  H     7    34       P1  7948  1.00

> <Gold.Chemscore.Hbond.Weighted>
-6.5150

> <Gold.Chemscore.Metal.Weighted>
-0.0000

> <Gold.Chemscore.Lipo.Weighted>
-11.8651

> <Gold.Chemscore.Internal_Hbond.Weighted>
0.0000

> <Gold.Chemscore.DEClash.Weighted>
0.1011

> <Gold.Chemscore.DEInternal.Weighted>
3.1672

> <Gold.Chemscore.Rot.Weighted>
5.5379

> <Gold.Chemscore.Internal.Correction.Weighted>
   9.000000E+99

> <Gold.Protein.RotatedTorsions>
[ 6907 6896 6895 6894 ] final  -56.19 input  -60.11 | X-H torsion
[ 7974 7965 7964 7962 ] final  164.74 input  175.53 | X-H torsion
[ 8008 7997 7996 7995 ] final  -72.41 input   59.86 | X-H torsion
[ 10167 10162 10161 10158 ] final   46.98 input  -65.29 | X-H torsion
[ 10718 10713 10712 10709 ] final   56.36 input   66.30 | X-H torsion
[ 10763 10752 10751 10750 ] final  -67.93 input  -60.55 | X-H torsion
[ 11005 11000 10999 10996 ] final -132.00 input  -57.11 | X-H torsion

> <Gold.Protein.ActiveResidues>
 VAL166  LYS551  ARG553  GLY616  TRP617  ASP618  TYR619  PRO620  LYS621  CYS622 
 ASP623  PHE694  ASN695  SER759  ASP760  ASP761  ALA762  ILE779  LEU786  VAL792 
 PHE793  MET794  SER795  GLU796  ALA797  LYS798  CYS799  TRP800  GLU811  SER814 

> <Gold.Protein.RotatedAtoms>
  150.8188  134.7385  159.6753 H   0  0  0  0  0  0  0  0  0  0  0  0  # atno 6907 bound_to 6896
  152.4305  134.5783  159.9950 H   0  0  0  0  0  0  0  0  0  0  0  0  # atno 6908 bound_to 6896
  151.5972  133.3323  159.3076 H   0  0  0  0  0  0  0  0  0  0  0  0  # atno 6909 bound_to 6896
  144.7532  139.8369  143.6359 H   0  0  0  0  0  0  0  0  0  0  0  0  # atno 7974 bound_to 7965
  154.5164  140.0798  156.8089 H   0  0  0  0  0  0  0  0  0  0  0  0  # atno 8008 bound_to 7997
  155.3671  140.3421  155.4224 H   0  0  0  0  0  0  0  0  0  0  0  0  # atno 8009 bound_to 7997
  156.1632  140.1595  156.8563 H   0  0  0  0  0  0  0  0  0  0  0  0  # atno 8010 bound_to 7997
  140.3083  144.2851  150.6205 H   0  0  0  0  0  0  0  0  0  0  0  0  # atno 10167 bound_to 10162
  157.5424  130.8706  149.8841 H   0  0  0  0  0  0  0  0  0  0  0  0  # atno 10718 bound_to 10713
  154.3816  135.6073  153.5794 H   0  0  0  0  0  0  0  0  0  0  0  0  # atno 10763 bound_to 10752
  152.9788  135.5862  154.4403 H   0  0  0  0  0  0  0  0  0  0  0  0  # atno 10764 bound_to 10752
  154.4173  135.2845  155.1976 H   0  0  0  0  0  0  0  0  0  0  0  0  # atno 10765 bound_to 10752
  140.9209  134.1445  157.4314 H   0  0  0  0  0  0  0  0  0  0  0  0  # atno 11005 bound_to 11000
  146.1509  139.4593  143.0049 LP  0  0  0  0  0  0  0  0  0  0  0  0  # atno 17320 bound_to 7965
  145.6870  141.0175  143.1576 LP  0  0  0  0  0  0  0  0  0  0  0  0  # atno 17321 bound_to 7965
  140.5590  143.2195  151.7797 LP  0  0  0  0  0  0  0  0  0  0  0  0  # atno 17342 bound_to 10162
  139.4899  144.4374  151.9804 LP  0  0  0  0  0  0  0  0  0  0  0  0  # atno 17343 bound_to 10162
  156.0507  130.3718  150.1207 LP  0  0  0  0  0  0  0  0  0  0  0  0  # atno 17370 bound_to 10713
  156.9386  130.9737  151.3520 LP  0  0  0  0  0  0  0  0  0  0  0  0  # atno 17371 bound_to 10713
  139.8775  134.9971  156.5829 LP  0  0  0  0  0  0  0  0  0  0  0  0  # atno 17394 bound_to 11000
  140.7989  133.8522  155.8709 LP  0  0  0  0  0  0  0  0  0  0  0  0  # atno 17395 bound_to 11000

$$$$
