AV-unprocessed.smi:1445|AV-procd|sdf|5888|dock5
  -GOLD-   22720 5573D 1   1.00000     0.00000
 Structure written by MMmdl.
 46 47  0  0  0  0  0  0  0  0  2 V2000
  151.7425  138.3426  153.8203 C   0  0  0  0  0  0  0  0  0  0  0  0
  150.3255  138.2777  153.7017 O   0  0  0  0  0  0  0  0  0  0  0  0
  149.5917  139.4283  153.9204 C   0  0  0  0  0  0  0  0  0  0  0  0
  150.2455  140.5424  154.3352 N   0  0  0  0  0  0  0  0  0  0  0  0
  149.5302  141.6663  154.5462 C   0  0  0  0  0  0  0  0  0  0  0  0
  148.1389  141.7422  154.3512 C   0  0  0  0  0  0  0  0  0  0  0  0
  147.4585  140.5883  153.9208 C   0  0  0  0  0  0  0  0  0  0  0  0
  148.1933  139.3965  153.7098 C   0  0  0  0  0  0  0  0  0  0  0  0
  147.6082  138.1820  153.2581 N   0  0  0  0  0  0  0  0  0  0  0  0
  146.3756  137.7077  153.5036 C   0  0  0  0  0  0  0  0  0  0  0  0
  145.5190  138.2668  154.1884 O   0  0  0  0  0  0  0  0  0  0  0  0
  146.1903  136.5140  152.9226 N   0  0  0  0  0  0  0  0  0  0  0  0
  144.9677  135.7241  153.0110 C   0  0  0  0  0  0  0  0  0  0  0  0
  145.1682  134.4702  153.8840 C   0  0  0  0  0  0  0  0  0  0  0  0
  144.9976  133.2108  153.1165 N   0  3  2  0  0  0  0  0  0  0  0  0
  146.2522  132.4163  153.0590 C   0  0  0  0  0  0  0  0  0  0  0  0
  146.0171  131.0565  152.3831 C   0  0  0  0  0  0  0  0  0  0  0  0
  145.4253  131.2368  150.9799 C   0  0  0  0  0  0  0  0  0  0  0  0
  144.1435  132.0837  151.0477 C   0  0  2  0  0  0  0  0  0  0  0  0
  143.5436  132.3052  149.6520 C   0  0  0  0  0  0  0  0  0  0  0  0
  144.4236  133.4228  151.7599 C   0  0  0  0  0  0  0  0  0  0  0  0
  152.1663  137.3592  153.6173 H   0  0  0  0  0  0  0  0  0  0  0  0
  152.0449  138.6311  154.8280 H   0  0  0  0  0  0  0  0  0  0  0  0
  152.1724  139.0422  153.1021 H   0  0  0  0  0  0  0  0  0  0  0  0
  150.0847  142.5330  154.8744 H   0  0  0  0  0  0  0  0  0  0  0  0
  147.6065  142.6661  154.5224 H   0  0  0  0  0  0  0  0  0  0  0  0
  146.3947  140.6433  153.7480 H   0  0  0  0  0  0  0  0  0  0  0  0
  148.2300  137.5678  152.7525 H   0  0  0  0  0  0  0  0  0  0  0  0
  146.9486  136.1261  152.3800 H   0  0  0  0  0  0  0  0  0  0  0  0
  144.1550  136.3380  153.4034 H   0  0  0  0  0  0  0  0  0  0  0  0
  144.6879  135.4514  151.9943 H   0  0  0  0  0  0  0  0  0  0  0  0
  146.1485  134.4830  154.3632 H   0  0  0  0  0  0  0  0  0  0  0  0
  144.4331  134.4940  154.6900 H   0  0  0  0  0  0  0  0  0  0  0  0
  147.0162  132.9790  152.5198 H   0  0  0  0  0  0  0  0  0  0  0  0
  146.6328  132.2503  154.0677 H   0  0  0  0  0  0  0  0  0  0  0  0
  146.9545  130.5026  152.3237 H   0  0  0  0  0  0  0  0  0  0  0  0
  145.3407  130.4555  152.9926 H   0  0  0  0  0  0  0  0  0  0  0  0
  146.1581  131.7195  150.3315 H   0  0  0  0  0  0  0  0  0  0  0  0
  145.2128  130.2622  150.5390 H   0  0  0  0  0  0  0  0  0  0  0  0
  143.4072  131.5354  151.6376 H   0  0  0  0  0  0  0  0  0  0  0  0
  144.2283  132.8593  149.0089 H   0  0  0  0  0  0  0  0  0  0  0  0
  142.6116  132.8684  149.7097 H   0  0  0  0  0  0  0  0  0  0  0  0
  143.3237  131.3552  149.1636 H   0  0  0  0  0  0  0  0  0  0  0  0
  143.4926  133.9836  151.8311 H   0  0  0  0  0  0  0  0  0  0  0  0
  145.1105  134.0295  151.1672 H   0  0  0  0  0  0  0  0  0  0  0  0
  144.3355  132.6503  153.6342 H   0  0  0  0  0  0  0  0  0  0  0  0
  1  2  1  0  0  0  0
  1 22  1  0  0  0  0
  1 23  1  0  0  0  0
  1 24  1  0  0  0  0
  2  3  1  0  0  0  0
  3  8  1  0  0  0  0
  3  4  2  0  0  0  0
  4  5  1  0  0  0  0
  5  6  2  0  0  0  0
  5 25  1  0  0  0  0
  6  7  1  0  0  0  0
  6 26  1  0  0  0  0
  7  8  2  0  0  0  0
  7 27  1  0  0  0  0
  8  9  1  0  0  0  0
  9 10  1  0  0  0  0
  9 28  1  0  0  0  0
 10 11  2  0  0  0  0
 10 12  1  0  0  0  0
 12 13  1  0  0  0  0
 12 29  1  0  0  0  0
 13 14  1  0  0  0  0
 13 30  1  0  0  0  0
 13 31  1  0  0  0  0
 14 15  1  0  0  0  0
 14 32  1  0  0  0  0
 14 33  1  0  0  0  0
 15 21  1  0  0  0  0
 15 16  1  0  0  0  0
 15 46  1  0  0  0  0
 16 17  1  0  0  0  0
 16 34  1  0  0  0  0
 16 35  1  0  0  0  0
 17 18  1  0  0  0  0
 17 36  1  0  0  0  0
 17 37  1  0  0  0  0
 18 19  1  0  0  0  0
 18 38  1  0  0  0  0
 18 39  1  0  0  0  0
 19 20  1  0  0  0  0
 19 21  1  0  0  0  0
 19 40  1  0  0  0  0
 20 41  1  0  0  0  0
 20 42  1  0  0  0  0
 20 43  1  0  0  0  0
 21 44  1  0  0  0  0
 21 45  1  0  0  0  0
M  CHG  1  15   1
M  END
> <s_m_source_file>
AV-unprocessed.smi

> <i_m_source_file_index>
1445

> <i_lp_mmshare_version>
43012

> <i_f3d_flags>
0

> <s_epik_input>
W0NIM11PYzFuW2NIXVtjSF1bY0hdYzFbTkhdQyg9TylbTkhdW0NIMl1bQ0gyXU4yW0NIMl1bQ0gyXVtDSDJdW0NAQEhdKFtDSDNdKVtDSDJdMg==

> <s_epik_cmdline>
J2VwaWtfcHl0aG9uJywgJy1waCcsICc3LjAnLCAnLXRuJywgJzgnLCAnLW1hJywgJzIwMCcsICctbWV0YWxfYmluZGluZycsICctaW1hZScsICc8aW5maWxlLm1hZT4nLCAnLW9tYWUnLCAnPG91dGZpbGUubWFlPic=

> <r_lp_tautomer_probability>
1

> <r_epik_Ionization_Penalty>
0.00179544

> <r_epik_Ionization_Penalty_Charging>
0.00171832

> <r_epik_Ionization_Penalty_Neutral>
7.71118e-05

> <r_epik_State_Penalty>
0.0011618

> <r_epik_Charging_Adjusted_Penalty>
0.00288012

> <i_epik_Tot_Q>
1

> <i_epik_Tot_abs_Q>
1

> <r_epik_Metal_State_Penalty>
-0

> <b_epik_Metal_Only>
0

> <s_lp_Force_Field>
OPLS_2005

> <r_lp_Energy>
18.8635

> <b_lp_Chiralities_Consistent>
1

> <s_lp_Variant>
AV-unprocessed.smi:1445-4

> <Gold.Version>
5.8.1

> <Gold.Id.Protein>
6NUR|6NUR_protein|mol2

> <Gold.PLP.Fitness>
45.9368

> <Gold.PLP.PLP>
-35.6239

> <Gold.PLP.part.hbond>
-3.6622

> <Gold.PLP.part.metal>
0.0000

> <Gold.PLP.part.buried>
-3.3599

> <Gold.PLP.part.nonpolar>
-28.4663

> <Gold.PLP.part.repulsive>
0.5139

> <Gold.PLP.ligand.clash>
2.6772

> <Gold.PLP.ligand.torsion>
1.3693

> <Gold.PLP.Chemscore.Hbond>
4.3653

> <Gold.PLP.Chemscore.CHOScore>
0.8606

> <Gold.PLP.Chemscore.Metal>
0.0000

> <Gold.Chemscore.Hbonds>
donor molecule, donor type, donor heavy atom, donor atom, acceptor molecule, acceptor atom, score
      L1  H     9    28       P1  7948  1.00
      L1  H    12    29       P1  7948  0.89
      L1  H    15    46       P1 10957  1.14
      P1  H  7989  7998       L1     4  0.88
      L1  C     5    25       P1  8028  0.68

> <Gold.PLP.Chemscore.Internal.Correction>
0.0513

> <Gold.Rescore>
     Score         DG    S(hbond)    S(metal)    S(lipo)     H(rot)  DE(clash)    DE(int)     intcor
     17.52     -20.33       2.72        0.00      86.64       1.71       0.40       2.41       ----

> <Gold.Chemscore.Fitness>
17.5236

> <Gold.Chemscore.DG>
-20.3338

> <Gold.Chemscore.ZeroCoef>
-5.4800

> <Gold.Chemscore.Hbond>
2.7233

> <Gold.Chemscore.Metal>
0.0000

> <Gold.Chemscore.Lipo>
86.6440

> <Gold.Chemscore.Internal_Hbond>
0.0000

> <Gold.Chemscore.DEClash>
0.4027

> <Gold.Chemscore.DEInternal>
2.4075

> <Gold.Chemscore.Rot>
1.7107

> <Gold.Chemscore.Internal.Correction>
   9.000000E+99

> <Gold.Chemscore.Hbonds>
donor molecule, donor type, donor heavy atom, donor atom, acceptor molecule, acceptor atom, score
      L1  H     9    28       P1  7948  1.00
      L1  H    12    29       P1  7948  0.82
      L1  H    15    46       P1 10957  0.29
      P1  H  7989  7998       L1     4  0.57

> <Gold.Chemscore.Hbond.Weighted>
-9.0959

> <Gold.Chemscore.Metal.Weighted>
-0.0000

> <Gold.Chemscore.Lipo.Weighted>
-10.1374

> <Gold.Chemscore.Internal_Hbond.Weighted>
0.0000

> <Gold.Chemscore.DEClash.Weighted>
0.4027

> <Gold.Chemscore.DEInternal.Weighted>
2.4075

> <Gold.Chemscore.Rot.Weighted>
4.3794

> <Gold.Chemscore.Internal.Correction.Weighted>
   9.000000E+99

> <Gold.Protein.RotatedTorsions>
[ 6907 6896 6895 6894 ] final  -19.75 input  -60.11 | X-H torsion
[ 7974 7965 7964 7962 ] final  -31.81 input  175.53 | X-H torsion
[ 8008 7997 7996 7995 ] final  -73.92 input   59.86 | X-H torsion
[ 10167 10162 10161 10158 ] final -152.53 input  -65.29 | X-H torsion
[ 10718 10713 10712 10709 ] final   98.42 input   66.30 | X-H torsion
[ 10763 10752 10751 10750 ] final  -95.23 input  -60.55 | X-H torsion
[ 11005 11000 10999 10996 ] final   49.23 input  -57.11 | X-H torsion

> <Gold.Protein.ActiveResidues>
 VAL166  LYS551  ARG553  GLY616  TRP617  ASP618  TYR619  PRO620  LYS621  CYS622 
 ASP623  PHE694  ASN695  SER759  ASP760  ASP761  ALA762  ILE779  LEU786  VAL792 
 PHE793  MET794  SER795  GLU796  ALA797  LYS798  CYS799  TRP800  GLU811  SER814 

> <Gold.Protein.RotatedAtoms>
  151.2585  135.0646  159.9088 H   0  0  0  0  0  0  0  0  0  0  0  0  # atno 6907 bound_to 6896
  152.5369  134.0256  159.8012 H   0  0  0  0  0  0  0  0  0  0  0  0  # atno 6908 bound_to 6896
  151.0475  133.5603  159.2676 H   0  0  0  0  0  0  0  0  0  0  0  0  # atno 6909 bound_to 6896
  146.1038  140.5714  142.8809 H   0  0  0  0  0  0  0  0  0  0  0  0  # atno 7974 bound_to 7965
  154.5287  140.0770  156.8306 H   0  0  0  0  0  0  0  0  0  0  0  0  # atno 8008 bound_to 7997
  155.3420  140.3408  155.4221 H   0  0  0  0  0  0  0  0  0  0  0  0  # atno 8009 bound_to 7997
  156.1759  140.1635  156.8351 H   0  0  0  0  0  0  0  0  0  0  0  0  # atno 8010 bound_to 7997
  139.7173  143.9012  152.2491 H   0  0  0  0  0  0  0  0  0  0  0  0  # atno 10167 bound_to 10162
  157.6896  131.0639  150.4794 H   0  0  0  0  0  0  0  0  0  0  0  0  # atno 10718 bound_to 10713
  154.7129  135.5128  153.8694 H   0  0  0  0  0  0  0  0  0  0  0  0  # atno 10763 bound_to 10752
  153.0796  135.6627  154.0082 H   0  0  0  0  0  0  0  0  0  0  0  0  # atno 10764 bound_to 10752
  153.9920  135.3019  155.3390 H   0  0  0  0  0  0  0  0  0  0  0  0  # atno 10765 bound_to 10752
  140.1121  134.4941  155.8669 H   0  0  0  0  0  0  0  0  0  0  0  0  # atno 11005 bound_to 11000
  144.7454  140.5055  143.6839 LP  0  0  0  0  0  0  0  0  0  0  0  0  # atno 17320 bound_to 7965
  145.5801  139.1488  143.3240 LP  0  0  0  0  0  0  0  0  0  0  0  0  # atno 17321 bound_to 7965
  139.8898  144.6971  150.8783 LP  0  0  0  0  0  0  0  0  0  0  0  0  # atno 17342 bound_to 10162
  140.7746  143.3595  151.1856 LP  0  0  0  0  0  0  0  0  0  0  0  0  # atno 17343 bound_to 10162
  156.5127  130.4143  149.6293 LP  0  0  0  0  0  0  0  0  0  0  0  0  # atno 17370 bound_to 10713
  156.3226  130.7289  151.2203 LP  0  0  0  0  0  0  0  0  0  0  0  0  # atno 17371 bound_to 10713
  141.2132  133.6731  156.6725 LP  0  0  0  0  0  0  0  0  0  0  0  0  # atno 17394 bound_to 11000
  140.3077  134.8112  157.4150 LP  0  0  0  0  0  0  0  0  0  0  0  0  # atno 17395 bound_to 11000

$$$$
