AV-unprocessed.smi:2518|AV-procd|sdf|9902|dock7
  -GOLD-   2272013543D 1   1.00000     0.00000
 Structure written by MMmdl.
 41 43  0  0  0  0  0  0  0  0  1 V2000
  151.1389  145.2643  159.4266 C   0  0  0  0  0  0  0  0  0  0  0  0
  151.9874  144.1700  160.0406 C   0  0  0  0  0  0  0  0  0  0  0  0
  152.0021  143.9796  161.4365 C   0  0  0  0  0  0  0  0  0  0  0  0
  152.7945  142.9624  162.0022 C   0  0  0  0  0  0  0  0  0  0  0  0
  153.5820  142.1226  161.1883 C   0  0  0  0  0  0  0  0  0  0  0  0
  154.3266  141.1534  161.8262 O   0  0  0  0  0  0  0  0  0  0  0  0
  155.2447  140.3942  161.0514 C   0  0  0  0  0  0  0  0  0  0  0  0
  155.8924  139.3222  161.9469 C   0  0  1  0  0  0  0  0  0  0  0  0
  156.5503  138.3853  161.1179 O   0  0  0  0  0  0  0  0  0  0  0  0
  156.9463  139.8792  162.9259 C   0  0  0  0  0  0  0  0  0  0  0  0
  156.5970  139.6656  164.3226 N   0  0  0  0  0  0  0  0  0  0  0  0
  156.6317  138.4081  164.8334 N   0  0  0  0  0  0  0  0  0  0  0  0
  156.2738  138.5244  166.1106 C   0  0  0  0  0  0  0  0  0  0  0  0
  155.9933  139.8725  166.4646 C   0  0  0  0  0  0  0  0  0  0  0  0
  155.5702  140.5552  167.6834 C   0  0  0  0  0  0  0  0  0  0  0  0
  155.3998  141.8395  167.6393 N   0  0  0  0  0  0  0  0  0  0  0  0
  155.6115  142.5613  166.4589 N   0  0  0  0  0  0  0  0  0  0  0  0
  155.3685  143.9978  166.5683 C   0  0  0  0  0  0  0  0  0  0  0  0
  156.0004  142.0183  165.2662 C   0  0  0  0  0  0  0  0  0  0  0  0
  156.1601  142.6681  164.2330 O   0  0  0  0  0  0  0  0  0  0  0  0
  156.2085  140.5505  165.3101 C   0  0  0  0  0  0  0  0  0  0  0  0
  153.5641  142.3207  159.7841 C   0  0  0  0  0  0  0  0  0  0  0  0
  152.7721  143.3384  159.2176 C   0  0  0  0  0  0  0  0  0  0  0  0
  150.3348  145.5632  160.0998 H   0  0  0  0  0  0  0  0  0  0  0  0
  150.6886  144.9238  158.4937 H   0  0  0  0  0  0  0  0  0  0  0  0
  151.7515  146.1405  159.2133 H   0  0  0  0  0  0  0  0  0  0  0  0
  151.4070  144.6122  162.0787 H   0  0  0  0  0  0  0  0  0  0  0  0
  152.7983  142.8254  163.0736 H   0  0  0  0  0  0  0  0  0  0  0  0
  154.7611  139.9352  160.1873 H   0  0  0  0  0  0  0  0  0  0  0  0
  156.0067  141.0802  160.6825 H   0  0  0  0  0  0  0  0  0  0  0  0
  155.1194  138.8042  162.5163 H   0  0  0  0  0  0  0  0  0  0  0  0
  156.8063  138.8193  160.3185 H   0  0  0  0  0  0  0  0  0  0  0  0
  157.9094  139.3995  162.7436 H   0  0  0  0  0  0  0  0  0  0  0  0
  157.1069  140.9433  162.7556 H   0  0  0  0  0  0  0  0  0  0  0  0
  156.2296  137.6387  166.7271 H   0  0  0  0  0  0  0  0  0  0  0  0
  155.4038  139.9948  168.6032 H   0  0  0  0  0  0  0  0  0  0  0  0
  156.2569  144.5625  166.2811 H   0  0  0  0  0  0  0  0  0  0  0  0
  155.1065  144.2925  167.5859 H   0  0  0  0  0  0  0  0  0  0  0  0
  154.5473  144.2967  165.9153 H   0  0  0  0  0  0  0  0  0  0  0  0
  154.1503  141.7060  159.1180 H   0  0  0  0  0  0  0  0  0  0  0  0
  152.7692  143.4783  158.1464 H   0  0  0  0  0  0  0  0  0  0  0  0
  1  2  1  0  0  0  0
  1 24  1  0  0  0  0
  1 25  1  0  0  0  0
  1 26  1  0  0  0  0
  2 23  1  0  0  0  0
  2  3  2  0  0  0  0
  3  4  1  0  0  0  0
  3 27  1  0  0  0  0
  4  5  2  0  0  0  0
  4 28  1  0  0  0  0
  5  6  1  0  0  0  0
  5 22  1  0  0  0  0
  6  7  1  0  0  0  0
  7  8  1  0  0  0  0
  7 29  1  0  0  0  0
  7 30  1  0  0  0  0
  8  9  1  0  0  0  0
  8 10  1  0  0  0  0
  8 31  1  0  0  0  0
  9 32  1  0  0  0  0
 10 11  1  0  0  0  0
 10 33  1  0  0  0  0
 10 34  1  0  0  0  0
 11 21  1  0  0  0  0
 11 12  1  0  0  0  0
 12 13  2  0  0  0  0
 13 14  1  0  0  0  0
 13 35  1  0  0  0  0
 14 21  2  0  0  0  0
 14 15  1  0  0  0  0
 15 16  2  0  0  0  0
 15 36  1  0  0  0  0
 16 17  1  0  0  0  0
 17 18  1  0  0  0  0
 17 19  1  0  0  0  0
 18 37  1  0  0  0  0
 18 38  1  0  0  0  0
 18 39  1  0  0  0  0
 19 20  2  0  0  0  0
 19 21  1  0  0  0  0
 22 23  2  0  0  0  0
 22 40  1  0  0  0  0
 23 41  1  0  0  0  0
M  END
> <s_m_source_file>
AV-unprocessed.smi

> <i_m_source_file_index>
2518

> <i_lp_mmshare_version>
43012

> <i_f3d_flags>
0

> <s_epik_input>
W0NIM11jMVtjSF1bY0hdYyhbY0hdW2NIXTEpT1tDSDJdW0NASF0oW09IXSlbQ0gyXW4obltjSF0yKWMoYzIzKWMoPU8pbihbQ0gzXSluW2NIXTM=

> <s_epik_cmdline>
J2VwaWtfcHl0aG9uJywgJy1waCcsICc3LjAnLCAnLXRuJywgJzgnLCAnLW1hJywgJzIwMCcsICctbWV0YWxfYmluZGluZycsICctaW1hZScsICc8aW5maWxlLm1hZT4nLCAnLW9tYWUnLCAnPG91dGZpbGUubWFlPic=

> <r_lp_tautomer_probability>
1

> <r_epik_Ionization_Penalty>
2.246e-06

> <r_epik_Ionization_Penalty_Charging>
1.41975e-10

> <r_epik_Ionization_Penalty_Neutral>
2.24586e-06

> <r_epik_State_Penalty>
-0

> <r_epik_Charging_Adjusted_Penalty>
1.41975e-10

> <i_epik_Tot_Q>
0

> <i_epik_Tot_abs_Q>
0

> <r_epik_Metal_State_Penalty>
-0

> <b_epik_Metal_Only>
0

> <s_lp_Force_Field>
OPLS_2005

> <r_lp_Energy>
31.8709

> <b_lp_Chiralities_Consistent>
1

> <s_lp_Variant>
AV-unprocessed.smi:2518-2

> <Gold.Version>
5.8.1

> <Gold.Id.Protein>
6NUR|6NUR_protein|mol2

> <Gold.PLP.Fitness>
47.3070

> <Gold.PLP.PLP>
-49.2617

> <Gold.PLP.part.hbond>
-0.8884

> <Gold.PLP.part.metal>
0.0000

> <Gold.PLP.part.buried>
-5.2206

> <Gold.PLP.part.nonpolar>
-42.9115

> <Gold.PLP.part.repulsive>
0.1225

> <Gold.PLP.ligand.clash>
0.0000

> <Gold.PLP.ligand.torsion>
0.9952

> <Gold.PLP.Chemscore.Hbond>
0.0000

> <Gold.PLP.Chemscore.CHOScore>
0.0000

> <Gold.PLP.Chemscore.Metal>
0.0000

> <Gold.PLP.Chemscore.Internal.Correction>
0.0357

> <Gold.Rescore>
     Score         DG    S(hbond)    S(metal)    S(lipo)     H(rot)  DE(clash)    DE(int)     intcor
     11.68     -14.56       0.00        0.00     128.98       2.35       1.80       1.07       ----

> <Gold.Chemscore.Fitness>
11.6834

> <Gold.Chemscore.DG>
-14.5568

> <Gold.Chemscore.ZeroCoef>
-5.4800

> <Gold.Chemscore.Hbond>
0.0000

> <Gold.Chemscore.Metal>
0.0000

> <Gold.Chemscore.Lipo>
128.9775

> <Gold.Chemscore.Internal_Hbond>
0.0000

> <Gold.Chemscore.DEClash>
1.8005

> <Gold.Chemscore.DEInternal>
1.0730

> <Gold.Chemscore.Rot>
2.3490

> <Gold.Chemscore.Internal.Correction>
   9.000000E+99

> <Gold.Chemscore.Hbond.Weighted>
-0.0000

> <Gold.Chemscore.Metal.Weighted>
-0.0000

> <Gold.Chemscore.Lipo.Weighted>
-15.0904

> <Gold.Chemscore.Internal_Hbond.Weighted>
0.0000

> <Gold.Chemscore.DEClash.Weighted>
1.8005

> <Gold.Chemscore.DEInternal.Weighted>
1.0730

> <Gold.Chemscore.Rot.Weighted>
6.0136

> <Gold.Chemscore.Internal.Correction.Weighted>
   9.000000E+99

> <Gold.Protein.RotatedTorsions>
[ 6907 6896 6895 6894 ] final  167.44 input  -60.11 | X-H torsion
[ 7974 7965 7964 7962 ] final  -20.13 input  175.53 | X-H torsion
[ 8008 7997 7996 7995 ] final  -78.05 input   59.86 | X-H torsion
[ 10167 10162 10161 10158 ] final   76.27 input  -65.29 | X-H torsion
[ 10718 10713 10712 10709 ] final -178.04 input   66.30 | X-H torsion
[ 10763 10752 10751 10750 ] final -135.68 input  -60.55 | X-H torsion
[ 11005 11000 10999 10996 ] final   81.93 input  -57.11 | X-H torsion

> <Gold.Protein.ActiveResidues>
 VAL166  LYS551  ARG553  GLY616  TRP617  ASP618  TYR619  PRO620  LYS621  CYS622 
 ASP623  PHE694  ASN695  SER759  ASP760  ASP761  ALA762  ILE779  LEU786  VAL792 
 PHE793  MET794  SER795  GLU796  ALA797  LYS798  CYS799  TRP800  GLU811  SER814 

> <Gold.Protein.RotatedAtoms>
  151.8633  133.3461  159.3710 H   0  0  0  0  0  0  0  0  0  0  0  0  # atno 6907 bound_to 6896
  150.7173  134.5185  159.5651 H   0  0  0  0  0  0  0  0  0  0  0  0  # atno 6908 bound_to 6896
  152.2703  134.7941  160.0466 H   0  0  0  0  0  0  0  0  0  0  0  0  # atno 6909 bound_to 6896
  146.1805  140.4158  142.8496 H   0  0  0  0  0  0  0  0  0  0  0  0  # atno 7974 bound_to 7965
  154.5653  140.0700  156.8881 H   0  0  0  0  0  0  0  0  0  0  0  0  # atno 8008 bound_to 7997
  155.2735  140.3367  155.4245 H   0  0  0  0  0  0  0  0  0  0  0  0  # atno 8009 bound_to 7997
  156.2075  140.1746  156.7753 H   0  0  0  0  0  0  0  0  0  0  0  0  # atno 8010 bound_to 7997
  139.9940  144.5736  150.7794 H   0  0  0  0  0  0  0  0  0  0  0  0  # atno 10167 bound_to 10162
  156.8384  130.9677  151.3102 H   0  0  0  0  0  0  0  0  0  0  0  0  # atno 10718 bound_to 10713
  154.8698  135.3696  154.4938 H   0  0  0  0  0  0  0  0  0  0  0  0  # atno 10763 bound_to 10752
  153.5583  135.7023  153.5564 H   0  0  0  0  0  0  0  0  0  0  0  0  # atno 10764 bound_to 10752
  153.3651  135.4036  155.1711 H   0  0  0  0  0  0  0  0  0  0  0  0  # atno 10765 bound_to 10752
  139.9081  134.8033  156.2106 H   0  0  0  0  0  0  0  0  0  0  0  0  # atno 11005 bound_to 11000
  144.8307  140.6702  143.6293 LP  0  0  0  0  0  0  0  0  0  0  0  0  # atno 17320 bound_to 7965
  145.4090  139.1583  143.4136 LP  0  0  0  0  0  0  0  0  0  0  0  0  # atno 17321 bound_to 7965
  140.7444  143.2860  151.3462 LP  0  0  0  0  0  0  0  0  0  0  0  0  # atno 17342 bound_to 10162
  139.6319  144.0704  152.2484 LP  0  0  0  0  0  0  0  0  0  0  0  0  # atno 17343 bound_to 10162
  157.6369  130.8774  149.9376 LP  0  0  0  0  0  0  0  0  0  0  0  0  # atno 17370 bound_to 10713
  156.0895  130.3665  150.0423 LP  0  0  0  0  0  0  0  0  0  0  0  0  # atno 17371 bound_to 10713
  141.0468  133.6909  156.1697 LP  0  0  0  0  0  0  0  0  0  0  0  0  # atno 17394 bound_to 11000
  140.6872  134.4704  157.5589 LP  0  0  0  0  0  0  0  0  0  0  0  0  # atno 17395 bound_to 11000

$$$$
