AV-unprocessed.smi:3189|AV-procd|sdf|12191|dock2
  -GOLD-   2272018 33D 1   1.00000     0.00000
 Structure written by MMmdl.
 31 32  0  0  0  0  0  0  0  0  2 V2000
  146.9952  139.3176  152.8463 C   0  0  0  0  0  0  0  0  0  0  0  0
  148.2801  139.5336  153.6225 C   0  0  0  0  0  0  0  0  0  0  0  0
  149.1926  138.5369  153.6164 N   0  3  0  0  0  0  0  0  0  0  0  0
  150.3734  138.6169  154.2643 C   0  0  0  0  0  0  0  0  0  0  0  0
  150.6974  139.7771  154.9941 C   0  0  0  0  0  0  0  0  0  0  0  0
  149.7687  140.8470  155.0487 C   0  0  0  0  0  0  0  0  0  0  0  0
  150.0193  142.0594  155.7484 N   0  0  0  0  0  0  0  0  0  0  0  0
  150.7109  142.2505  156.8890 C   0  0  0  0  0  0  0  0  0  0  0  0
  151.2632  141.3580  157.5288 O   0  0  0  0  0  0  0  0  0  0  0  0
  150.7018  143.5209  157.3292 N   0  0  0  0  0  0  0  0  0  0  0  0
  151.3382  144.0402  158.5015 C   0  0  2  0  0  0  0  0  0  0  0  0
  152.7385  144.5845  158.3275 C   0  0  0  0  0  0  0  0  0  0  0  0
  152.5249  143.2919  159.0712 C   0  0  1  0  0  0  0  0  0  0  0  0
  152.7541  143.2287  160.5657 C   0  0  0  0  0  0  0  0  0  0  0  0
  148.5486  140.7239  154.3384 C   0  0  0  0  0  0  0  0  0  0  0  0
  147.3905  142.0121  154.3499 Cl  0  0  0  0  0  0  0  0  0  0  0  0
  146.1360  139.3636  153.5162 H   0  0  0  0  0  0  0  0  0  0  0  0
  146.9868  138.3459  152.3511 H   0  0  0  0  0  0  0  0  0  0  0  0
  146.8787  140.0867  152.0820 H   0  0  0  0  0  0  0  0  0  0  0  0
  151.0228  137.7581  154.1754 H   0  0  0  0  0  0  0  0  0  0  0  0
  151.6559  139.8283  155.4878 H   0  0  0  0  0  0  0  0  0  0  0  0
  149.5394  142.8718  155.3881 H   0  0  0  0  0  0  0  0  0  0  0  0
  150.1177  144.1708  156.8224 H   0  0  0  0  0  0  0  0  0  0  0  0
  150.7175  144.5964  159.2029 H   0  0  0  0  0  0  0  0  0  0  0  0
  153.1925  144.5228  157.3401 H   0  0  0  0  0  0  0  0  0  0  0  0
  153.0086  145.4652  158.9071 H   0  0  0  0  0  0  0  0  0  0  0  0
  152.8186  142.3843  158.5465 H   0  0  0  0  0  0  0  0  0  0  0  0
  152.4609  144.1642  161.0432 H   0  0  0  0  0  0  0  0  0  0  0  0
  153.8080  143.0459  160.7755 H   0  0  0  0  0  0  0  0  0  0  0  0
  152.1670  142.4192  160.9995 H   0  0  0  0  0  0  0  0  0  0  0  0
  148.9811  137.6864  153.0939 H   0  0  0  0  0  0  0  0  0  0  0  0
  1  2  1  0  0  0  0
  1 17  1  0  0  0  0
  1 18  1  0  0  0  0
  1 19  1  0  0  0  0
  2 15  1  0  0  0  0
  2  3  2  0  0  0  0
  3  4  1  0  0  0  0
  3 31  1  0  0  0  0
  4  5  2  0  0  0  0
  4 20  1  0  0  0  0
  5  6  1  0  0  0  0
  5 21  1  0  0  0  0
  6  7  1  0  0  0  0
  6 15  2  0  0  0  0
  7  8  1  0  0  0  0
  7 22  1  0  0  0  0
  8  9  2  0  0  0  0
  8 10  1  0  0  0  0
 10 11  1  0  0  0  0
 10 23  1  0  0  0  0
 11 13  1  0  0  0  0
 11 12  1  0  0  0  0
 11 24  1  0  0  0  0
 12 13  1  0  0  0  0
 12 25  1  0  0  0  0
 12 26  1  0  0  0  0
 13 14  1  0  0  0  0
 13 27  1  0  0  0  0
 14 28  1  0  0  0  0
 14 29  1  0  0  0  0
 14 30  1  0  0  0  0
 15 16  1  0  0  0  0
M  CHG  1   3   1
M  END
> <s_m_source_file>
AV-unprocessed.smi

> <i_m_source_file_index>
3189

> <i_lp_mmshare_version>
43012

> <i_f3d_flags>
0

> <s_epik_input>
W0NIM11jMW5bY0hdW2NIXWMoYzFDbClbTkhdQyg9TylbTkhdW0NAQEhdMltDSDJdW0NASF0yW0NIM10=

> <s_epik_cmdline>
J2VwaWtfcHl0aG9uJywgJy1waCcsICc3LjAnLCAnLXRuJywgJzgnLCAnLW1hJywgJzIwMCcsICctbWV0YWxfYmluZGluZycsICctaW1hZScsICc8aW5maWxlLm1hZT4nLCAnLW9tYWUnLCAnPG91dGZpbGUubWFlPic=

> <r_epik_Ionization_Penalty>
2.42914

> <r_epik_Ionization_Penalty_Charging>
2.42912

> <r_epik_Ionization_Penalty_Neutral>
2.15137e-05

> <r_epik_State_Penalty>
2.58904

> <r_epik_Charging_Adjusted_Penalty>
5.01816

> <i_epik_Tot_Q>
1

> <i_epik_Tot_abs_Q>
1

> <r_epik_Metal_State_Penalty>
2.59882

> <b_epik_Metal_Only>
0

> <s_lp_Force_Field>
OPLS_2005

> <r_lp_Energy>
37.5636

> <b_lp_Chiralities_Consistent>
1

> <s_lp_Variant>
AV-unprocessed.smi:3189-5

> <Gold.Version>
5.8.1

> <Gold.Id.Protein>
6NUR|6NUR_protein|mol2

> <Gold.PLP.Fitness>
52.4829

> <Gold.PLP.PLP>
-41.5960

> <Gold.PLP.part.hbond>
-4.0000

> <Gold.PLP.part.metal>
0.0000

> <Gold.PLP.part.buried>
-0.5833

> <Gold.PLP.part.nonpolar>
-37.2936

> <Gold.PLP.part.repulsive>
0.2347

> <Gold.PLP.ligand.clash>
0.0000

> <Gold.PLP.ligand.torsion>
0.5742

> <Gold.PLP.Chemscore.Hbond>
4.0000

> <Gold.PLP.Chemscore.CHOScore>
0.0000

> <Gold.PLP.Chemscore.Metal>
0.0000

> <Gold.Chemscore.Hbonds>
donor molecule, donor type, donor heavy atom, donor atom, acceptor molecule, acceptor atom, score
      L1  H     3    31       P1  7948  2.00
      L1  H     7    22       P1  8028  0.99
      L1  H    10    23       P1  8028  1.00

> <Gold.PLP.Chemscore.Internal.Correction>
0.0354

> <Gold.Rescore>
     Score         DG    S(hbond)    S(metal)    S(lipo)     H(rot)  DE(clash)    DE(int)     intcor
     21.19     -23.93       2.80        0.00      99.62       1.00       0.06       2.68       ----

> <Gold.Chemscore.Fitness>
21.1904

> <Gold.Chemscore.DG>
-23.9314

> <Gold.Chemscore.ZeroCoef>
-5.4800

> <Gold.Chemscore.Hbond>
2.8010

> <Gold.Chemscore.Metal>
0.0000

> <Gold.Chemscore.Lipo>
99.6242

> <Gold.Chemscore.Internal_Hbond>
0.0000

> <Gold.Chemscore.DEClash>
0.0637

> <Gold.Chemscore.DEInternal>
2.6773

> <Gold.Chemscore.Rot>
1.0000

> <Gold.Chemscore.Internal.Correction>
   9.000000E+99

> <Gold.Chemscore.Hbonds>
donor molecule, donor type, donor heavy atom, donor atom, acceptor molecule, acceptor atom, score
      L1  H     3    31       P1  7948  1.00
      L1  H     7    22       P1  8028  0.92
      L1  H    10    23       P1  8028  0.95

> <Gold.Chemscore.Hbond.Weighted>
-9.3554

> <Gold.Chemscore.Metal.Weighted>
-0.0000

> <Gold.Chemscore.Lipo.Weighted>
-11.6560

> <Gold.Chemscore.Internal_Hbond.Weighted>
0.0000

> <Gold.Chemscore.DEClash.Weighted>
0.0637

> <Gold.Chemscore.DEInternal.Weighted>
2.6773

> <Gold.Chemscore.Rot.Weighted>
2.5600

> <Gold.Chemscore.Internal.Correction.Weighted>
   9.000000E+99

> <Gold.Protein.RotatedTorsions>
[ 6907 6896 6895 6894 ] final   -2.03 input  -60.11 | X-H torsion
[ 7974 7965 7964 7962 ] final -142.30 input  175.53 | X-H torsion
[ 8008 7997 7996 7995 ] final  -48.82 input   59.86 | X-H torsion
[ 10167 10162 10161 10158 ] final  113.51 input  -65.29 | X-H torsion
[ 10718 10713 10712 10709 ] final -157.56 input   66.30 | X-H torsion
[ 10763 10752 10751 10750 ] final  -57.35 input  -60.55 | X-H torsion
[ 11005 11000 10999 10996 ] final  -74.15 input  -57.11 | X-H torsion

> <Gold.Protein.ActiveResidues>
 VAL166  LYS551  ARG553  GLY616  TRP617  ASP618  TYR619  PRO620  LYS621  CYS622 
 ASP623  PHE694  ASN695  SER759  ASP760  ASP761  ALA762  ILE779  LEU786  VAL792 
 PHE793  MET794  SER795  GLU796  ALA797  LYS798  CYS799  TRP800  GLU811  SER814 

> <Gold.Protein.RotatedAtoms>
  151.5364  135.1068  159.9915 H   0  0  0  0  0  0  0  0  0  0  0  0  # atno 6907 bound_to 6896
  152.4555  133.7710  159.6809 H   0  0  0  0  0  0  0  0  0  0  0  0  # atno 6908 bound_to 6896
  150.8497  133.7740  159.3054 H   0  0  0  0  0  0  0  0  0  0  0  0  # atno 6909 bound_to 6896
  144.8454  140.5975  143.5425 H   0  0  0  0  0  0  0  0  0  0  0  0  # atno 7974 bound_to 7965
  154.4034  140.1312  156.4401 H   0  0  0  0  0  0  0  0  0  0  0  0  # atno 8008 bound_to 7997
  155.7467  140.3489  155.5110 H   0  0  0  0  0  0  0  0  0  0  0  0  # atno 8009 bound_to 7997
  155.8988  140.1016  157.1355 H   0  0  0  0  0  0  0  0  0  0  0  0  # atno 8010 bound_to 7997
  139.6456  144.7126  151.2149 H   0  0  0  0  0  0  0  0  0  0  0  0  # atno 10167 bound_to 10162
  156.5420  130.8567  151.2752 H   0  0  0  0  0  0  0  0  0  0  0  0  # atno 10718 bound_to 10713
  154.2211  135.6377  153.5145 H   0  0  0  0  0  0  0  0  0  0  0  0  # atno 10763 bound_to 10752
  152.9969  135.5497  154.6113 H   0  0  0  0  0  0  0  0  0  0  0  0  # atno 10764 bound_to 10752
  154.5574  135.2906  155.0926 H   0  0  0  0  0  0  0  0  0  0  0  0  # atno 10765 bound_to 10752
  141.1631  133.6901  156.7320 H   0  0  0  0  0  0  0  0  0  0  0  0  # atno 11005 bound_to 11000
  145.4608  139.1513  143.3867 LP  0  0  0  0  0  0  0  0  0  0  0  0  # atno 17320 bound_to 7965
  146.2739  140.4738  142.8803 LP  0  0  0  0  0  0  0  0  0  0  0  0  # atno 17321 bound_to 7965
  140.7513  143.6236  150.8489 LP  0  0  0  0  0  0  0  0  0  0  0  0  # atno 17342 bound_to 10162
  139.9879  143.5879  152.2920 LP  0  0  0  0  0  0  0  0  0  0  0  0  # atno 17343 bound_to 10162
  157.7403  130.9848  150.2372 LP  0  0  0  0  0  0  0  0  0  0  0  0  # atno 17370 bound_to 10713
  156.2963  130.3752  149.7793 LP  0  0  0  0  0  0  0  0  0  0  0  0  # atno 17371 bound_to 10713
  140.2738  134.8371  157.3871 LP  0  0  0  0  0  0  0  0  0  0  0  0  # atno 17394 bound_to 11000
  140.1496  134.4866  155.7970 LP  0  0  0  0  0  0  0  0  0  0  0  0  # atno 17395 bound_to 11000

$$$$
