AV-unprocessed.smi:38|AV-procd|sdf|340|dock7
  -GOLD-   2262016173D 1   1.00000     0.00000
 Structure written by MMmdl.
 28 29  0  0  0  0  0  0  0  0  1 V2000
  153.0584  138.7533  157.0469 O   0  0  0  0  0  0  0  0  0  0  0  0
  152.1562  139.3805  156.4954 C   0  0  0  0  0  0  0  0  0  0  0  0
  151.4887  140.3997  157.1799 N   0  0  0  0  0  0  0  0  0  0  0  0
  150.4496  141.1762  156.6651 C   0  0  0  0  0  0  0  0  0  0  0  0
  149.9468  142.0634  157.3533 O   0  0  0  0  0  0  0  0  0  0  0  0
  150.0218  140.8974  155.3475 N   0  0  0  0  0  0  0  0  0  0  0  0
  148.9051  141.7384  154.7617 C   0  0  2  0  0  0  0  0  0  0  0  0
  147.6059  141.5832  155.5666 C   0  0  0  0  0  0  0  0  0  0  0  0
  146.5677  141.5617  154.4666 C   0  0  2  0  0  0  0  0  0  0  0  0
  145.3542  140.9718  154.8881 O   0  0  0  0  0  0  0  0  0  0  0  0
  147.2900  140.8098  153.3423 C   0  0  2  0  0  0  0  0  0  0  0  0
  147.3131  139.2722  153.4933 C   0  0  0  0  0  0  0  0  0  0  0  0
  147.6399  138.6749  152.2569 O   0  0  0  0  0  0  0  0  0  0  0  0
  148.6221  141.3150  153.4552 O   0  0  0  0  0  0  0  0  0  0  0  0
  150.6777  139.9100  154.6193 C   0  0  0  0  0  0  0  0  0  0  0  0
  151.6883  139.1667  155.1293 C   0  0  0  0  0  0  0  0  0  0  0  0
  152.2712  138.2269  154.3657 F   0  0  0  0  0  0  0  0  0  0  0  0
  151.7868  140.5935  158.1248 H   0  0  0  0  0  0  0  0  0  0  0  0
  149.2890  142.7600  154.7353 H   0  0  0  0  0  0  0  0  0  0  0  0
  146.3664  142.5844  154.1444 H   0  0  0  0  0  0  0  0  0  0  0  0
  146.8604  141.0801  152.3767 H   0  0  0  0  0  0  0  0  0  0  0  0
  147.6165  140.6367  156.1103 H   0  0  0  0  0  0  0  0  0  0  0  0
  147.4747  142.4013  156.2754 H   0  0  0  0  0  0  0  0  0  0  0  0
  144.7801  140.8967  154.1410 H   0  0  0  0  0  0  0  0  0  0  0  0
  148.0065  138.9436  154.2669 H   0  0  0  0  0  0  0  0  0  0  0  0
  146.3281  138.8966  153.7696 H   0  0  0  0  0  0  0  0  0  0  0  0
  148.2105  137.9395  152.4196 H   0  0  0  0  0  0  0  0  0  0  0  0
  150.3920  139.7046  153.5987 H   0  0  0  0  0  0  0  0  0  0  0  0
  1  2  2  0  0  0  0
  2 16  1  0  0  0  0
  2  3  1  0  0  0  0
  3 18  1  0  0  0  0
  3  4  1  0  0  0  0
  4  5  2  0  0  0  0
  4  6  1  0  0  0  0
  6  7  1  0  0  0  0
  6 15  1  0  0  0  0
  7 19  1  0  0  0  0
  7 14  1  0  0  0  0
  7  8  1  0  0  0  0
  8  9  1  0  0  0  0
  8 22  1  0  0  0  0
  8 23  1  0  0  0  0
  9 20  1  0  0  0  0
  9 10  1  0  0  0  0
  9 11  1  0  0  0  0
 10 24  1  0  0  0  0
 11 21  1  0  0  0  0
 11 12  1  0  0  0  0
 11 14  1  0  0  0  0
 12 13  1  0  0  0  0
 12 25  1  0  0  0  0
 12 26  1  0  0  0  0
 13 27  1  0  0  0  0
 15 16  2  0  0  0  0
 15 28  1  0  0  0  0
 16 17  1  0  0  0  0
M  END
> <s_m_source_file>
AV-unprocessed.smi

> <i_m_source_file_index>
38

> <i_lp_mmshare_version>
43012

> <i_f3d_flags>
0

> <s_epik_input>
Tz1jMVtuSF1jKD1PKW4oW2NIXWMxRilbQ0BIXTJbQ0gyXVtDQEhdKFtPSF0pW0NASF0oTzIpW0NIMl1bT0hd

> <s_epik_cmdline>
J2VwaWtfcHl0aG9uJywgJy1waCcsICc3LjAnLCAnLXRuJywgJzgnLCAnLW1hJywgJzIwMCcsICctbWV0YWxfYmluZGluZycsICctaW1hZScsICc8aW5maWxlLm1hZT4nLCAnLW9tYWUnLCAnPG91dGZpbGUubWFlPic=

> <r_lp_tautomer_probability>
0.999537

> <r_epik_Ionization_Penalty>
0.0357432

> <r_epik_Ionization_Penalty_Charging>
0.0357431

> <r_epik_Ionization_Penalty_Neutral>
1.19946e-07

> <r_epik_State_Penalty>
0.0298169

> <r_epik_Charging_Adjusted_Penalty>
0.06556

> <i_epik_Tot_Q>
0

> <i_epik_Tot_abs_Q>
0

> <r_epik_Metal_State_Penalty>
2.348

> <b_epik_Metal_Only>
0

> <s_epik_Chemistry_Notes>
This compound contains an acetal/aminal-like group ( X-CH(R)-Y where X, Y are N, S, or O) that may be acid/base labile, releasing an aldehyde.

> <s_lp_Force_Field>
OPLS_2005

> <r_lp_Energy>
30.3129

> <b_lp_Chiralities_Consistent>
1

> <s_lp_Variant>
AV-unprocessed.smi:38-6

> <Gold.Version>
5.8.1

> <Gold.Id.Protein>
6NUR|6NUR_protein|mol2

> <Gold.PLP.Fitness>
43.3900

> <Gold.PLP.PLP>
-29.0752

> <Gold.PLP.part.hbond>
-5.0000

> <Gold.PLP.part.metal>
0.0000

> <Gold.PLP.part.buried>
-0.6666

> <Gold.PLP.part.nonpolar>
-26.1997

> <Gold.PLP.part.repulsive>
2.8143

> <Gold.PLP.ligand.clash>
0.0000

> <Gold.PLP.ligand.torsion>
0.1981

> <Gold.PLP.Chemscore.Hbond>
3.8960

> <Gold.PLP.Chemscore.CHOScore>
1.0000

> <Gold.PLP.Chemscore.Metal>
0.0000

> <Gold.Chemscore.Hbonds>
donor molecule, donor type, donor heavy atom, donor atom, acceptor molecule, acceptor atom, score
      L1  H    10    24       P1 10175  1.00
      L1  H    13    27       P1  7948  0.99
      P1  H  7997  8009       L1     1  1.00
      P1  H  8011  8017       L1    14  0.86
      L1  C    15    28       P1  7957  0.89

> <Gold.PLP.Chemscore.Internal.Correction>
0.0229

> <Gold.Rescore>
     Score         DG    S(hbond)    S(metal)    S(lipo)     H(rot)  DE(clash)    DE(int)     intcor
      8.93     -13.16       3.17        0.00      38.80       2.91       2.92       1.31       ----

> <Gold.Chemscore.Fitness>
8.9336

> <Gold.Chemscore.DG>
-13.1618

> <Gold.Chemscore.ZeroCoef>
-5.4800

> <Gold.Chemscore.Hbond>
3.1744

> <Gold.Chemscore.Metal>
0.0000

> <Gold.Chemscore.Lipo>
38.7985

> <Gold.Chemscore.Internal_Hbond>
0.0000

> <Gold.Chemscore.DEClash>
2.9215

> <Gold.Chemscore.DEInternal>
1.3067

> <Gold.Chemscore.Rot>
2.9141

> <Gold.Chemscore.Internal.Correction>
   9.000000E+99

> <Gold.Chemscore.Hbonds>
donor molecule, donor type, donor heavy atom, donor atom, acceptor molecule, acceptor atom, score
      L1  H    10    24       P1 10175  0.89
      L1  H    13    27       P1  7948  0.93
      P1  H  7997  8009       L1     1  0.29
      P1  H  8011  8017       L1    14  0.37

> <Gold.Chemscore.Hbond.Weighted>
-10.6025

> <Gold.Chemscore.Metal.Weighted>
-0.0000

> <Gold.Chemscore.Lipo.Weighted>
-4.5394

> <Gold.Chemscore.Internal_Hbond.Weighted>
0.0000

> <Gold.Chemscore.DEClash.Weighted>
2.9215

> <Gold.Chemscore.DEInternal.Weighted>
1.3067

> <Gold.Chemscore.Rot.Weighted>
7.4601

> <Gold.Chemscore.Internal.Correction.Weighted>
   9.000000E+99

> <Gold.Protein.RotatedTorsions>
[ 6907 6896 6895 6894 ] final   65.80 input  -60.11 | X-H torsion
[ 7974 7965 7964 7962 ] final  124.31 input  175.53 | X-H torsion
[ 8008 7997 7996 7995 ] final  161.19 input   59.86 | X-H torsion
[ 10167 10162 10161 10158 ] final  -75.11 input  -65.29 | X-H torsion
[ 10718 10713 10712 10709 ] final    5.06 input   66.30 | X-H torsion
[ 10763 10752 10751 10750 ] final  137.38 input  -60.55 | X-H torsion
[ 11005 11000 10999 10996 ] final -172.07 input  -57.11 | X-H torsion

> <Gold.Protein.ActiveResidues>
 VAL166  LYS551  ARG553  GLY616  TRP617  ASP618  TYR619  PRO620  LYS621  CYS622 
 ASP623  PHE694  ASN695  SER759  ASP760  ASP761  ALA762  ILE779  LEU786  VAL792 
 PHE793  MET794  SER795  GLU796  ALA797  LYS798  CYS799  TRP800  GLU811  SER814 

> <Gold.Protein.RotatedAtoms>
  152.4434  134.5544  159.9875 H   0  0  0  0  0  0  0  0  0  0  0  0  # atno 6907 bound_to 6896
  151.5636  133.3394  159.2984 H   0  0  0  0  0  0  0  0  0  0  0  0  # atno 6908 bound_to 6896
  150.8345  134.7645  159.6945 H   0  0  0  0  0  0  0  0  0  0  0  0  # atno 6909 bound_to 6896
  145.0858  139.3623  143.4886 H   0  0  0  0  0  0  0  0  0  0  0  0  # atno 7974 bound_to 7965
  156.2120  140.1784  156.7673 H   0  0  0  0  0  0  0  0  0  0  0  0  # atno 8008 bound_to 7997
  154.5736  140.0678  156.9031 H   0  0  0  0  0  0  0  0  0  0  0  0  # atno 8009 bound_to 7997
  155.2628  140.3337  155.4274 H   0  0  0  0  0  0  0  0  0  0  0  0  # atno 8010 bound_to 7997
  140.4970  143.2368  151.7815 H   0  0  0  0  0  0  0  0  0  0  0  0  # atno 10167 bound_to 10162
  156.9018  130.5724  149.5648 H   0  0  0  0  0  0  0  0  0  0  0  0  # atno 10718 bound_to 10713
  153.8721  135.3054  155.3442 H   0  0  0  0  0  0  0  0  0  0  0  0  # atno 10763 bound_to 10752
  154.7801  135.4840  153.9829 H   0  0  0  0  0  0  0  0  0  0  0  0  # atno 10764 bound_to 10752
  153.1400  135.6822  153.9138 H   0  0  0  0  0  0  0  0  0  0  0  0  # atno 10765 bound_to 10752
  140.5011  134.5892  157.4988 H   0  0  0  0  0  0  0  0  0  0  0  0  # atno 11005 bound_to 11000
  146.3531  140.0670  142.8625 LP  0  0  0  0  0  0  0  0  0  0  0  0  # atno 17320 bound_to 7965
  145.1124  140.9413  143.4649 LP  0  0  0  0  0  0  0  0  0  0  0  0  # atno 17321 bound_to 7965
  139.4863  144.4573  151.9583 LP  0  0  0  0  0  0  0  0  0  0  0  0  # atno 17342 bound_to 10162
  140.3661  144.2913  150.5926 LP  0  0  0  0  0  0  0  0  0  0  0  0  # atno 17343 bound_to 10162
  156.0578  130.5637  150.9129 LP  0  0  0  0  0  0  0  0  0  0  0  0  # atno 17370 bound_to 10713
  157.6022  131.0940  150.8941 LP  0  0  0  0  0  0  0  0  0  0  0  0  # atno 17371 bound_to 10713
  139.9713  134.7289  156.0037 LP  0  0  0  0  0  0  0  0  0  0  0  0  # atno 17394 bound_to 11000
  141.1435  133.6560  156.3798 LP  0  0  0  0  0  0  0  0  0  0  0  0  # atno 17395 bound_to 11000

$$$$
