AV-unprocessed.smi:2|AV-procd|sdf|25|dock1
  -GOLD-   2262015133D 1   1.00000     0.00000
 Structure written by MMmdl.
 52 54  0  0  0  0  0  0  0  0  3 V2000
  152.3289  145.1875  160.2356 C   0  0  0  0  0  0  0  0  0  0  0  0
  152.2836  144.0818  161.2995 C   0  0  0  0  0  0  0  0  0  0  0  0
  152.8691  142.7611  160.7886 C   0  0  0  0  0  0  0  0  0  0  0  0
  153.8722  142.3152  161.3450 O   0  0  0  0  0  0  0  0  0  0  0  0
  152.1977  142.0732  159.6455 C   0  0  0  0  0  0  0  0  0  0  0  0
  151.3318  142.7522  158.7567 C   0  0  0  0  0  0  0  0  0  0  0  0
  150.7152  142.0648  157.6937 C   0  0  0  0  0  0  0  0  0  0  0  0
  150.9428  140.6899  157.4902 C   0  0  0  0  0  0  0  0  0  0  0  0
  150.2935  140.0966  156.4288 O   0  0  0  0  0  0  0  0  0  0  0  0
  150.7164  138.8027  156.0197 C   0  0  0  0  0  0  0  0  0  0  0  0
  150.0560  138.4647  154.6738 C   0  0  2  0  0  0  0  0  0  0  0  0
  150.5892  139.3279  153.6903 O   0  0  0  0  0  0  0  0  0  0  0  0
  148.5185  138.6252  154.7332 C   0  0  0  0  0  0  0  0  0  0  0  0
  147.9866  138.6134  156.1008 N   0  0  0  0  0  0  0  0  0  0  0  0
  147.3355  139.6333  156.7385 C   0  0  0  0  0  0  0  0  0  0  0  0
  147.0435  140.9584  156.2086 N   0  3  0  0  0  0  0  0  0  0  0  0
  146.5350  141.8006  156.9378 O   0  0  0  0  0  0  0  0  0  0  0  0
  147.2954  141.1571  155.0240 O   0  5  0  0  0  0  0  0  0  0  0  0
  146.9609  139.3460  157.9845 N   0  0  0  0  0  0  0  0  0  0  0  0
  147.4116  138.0557  158.1748 C   0  0  0  0  0  0  0  0  0  0  0  0
  147.3292  137.2142  159.3840 C   0  0  0  0  0  0  0  0  0  0  0  0
  146.7410  137.6069  160.3926 O   0  0  0  0  0  0  0  0  0  0  0  0
  147.9742  136.0120  159.2725 N   0  0  0  0  0  0  0  0  0  0  0  0
  148.0127  135.1304  160.4553 C   0  0  0  0  0  0  0  0  0  0  0  0
  148.5955  135.5431  158.1298 C   0  0  0  0  0  0  0  0  0  0  0  0
  149.1814  134.4561  158.1395 O   0  0  0  0  0  0  0  0  0  0  0  0
  148.5390  136.3065  156.9847 N   0  0  0  0  0  0  0  0  0  0  0  0
  149.0430  135.7208  155.7340 C   0  0  0  0  0  0  0  0  0  0  0  0
  148.0126  137.5704  157.0565 C   0  0  0  0  0  0  0  0  0  0  0  0
  151.8134  140.0085  158.3751 C   0  0  0  0  0  0  0  0  0  0  0  0
  152.4318  140.6950  159.4378 C   0  0  0  0  0  0  0  0  0  0  0  0
  151.9372  146.1218  160.6376 H   0  0  0  0  0  0  0  0  0  0  0  0
  151.7339  144.9310  159.3590 H   0  0  0  0  0  0  0  0  0  0  0  0
  153.3508  145.3746  159.9036 H   0  0  0  0  0  0  0  0  0  0  0  0
  152.8608  144.3972  162.1693 H   0  0  0  0  0  0  0  0  0  0  0  0
  151.2655  143.9279  161.6559 H   0  0  0  0  0  0  0  0  0  0  0  0
  151.1229  143.8053  158.8664 H   0  0  0  0  0  0  0  0  0  0  0  0
  150.0559  142.6012  157.0269 H   0  0  0  0  0  0  0  0  0  0  0  0
  151.8003  138.8227  155.8957 H   0  0  0  0  0  0  0  0  0  0  0  0
  150.4795  138.0432  156.7671 H   0  0  0  0  0  0  0  0  0  0  0  0
  150.3090  137.4437  154.3903 H   0  0  0  0  0  0  0  0  0  0  0  0
  149.9311  139.4727  153.0275 H   0  0  0  0  0  0  0  0  0  0  0  0
  148.2016  139.5322  154.2306 H   0  0  0  0  0  0  0  0  0  0  0  0
  148.0321  137.8607  154.1338 H   0  0  0  0  0  0  0  0  0  0  0  0
  147.5064  134.1877  160.2412 H   0  0  0  0  0  0  0  0  0  0  0  0
  147.5438  135.5401  161.3505 H   0  0  0  0  0  0  0  0  0  0  0  0
  149.0441  134.9023  160.7291 H   0  0  0  0  0  0  0  0  0  0  0  0
  150.0573  136.0651  155.5318 H   0  0  0  0  0  0  0  0  0  0  0  0
  148.4012  135.9587  154.8919 H   0  0  0  0  0  0  0  0  0  0  0  0
  149.0745  134.6304  155.7413 H   0  0  0  0  0  0  0  0  0  0  0  0
  152.0255  138.9563  158.2612 H   0  0  0  0  0  0  0  0  0  0  0  0
  153.0893  140.1440  160.0948 H   0  0  0  0  0  0  0  0  0  0  0  0
  1  2  1  0  0  0  0
  1 32  1  0  0  0  0
  1 33  1  0  0  0  0
  1 34  1  0  0  0  0
  2  3  1  0  0  0  0
  2 35  1  0  0  0  0
  2 36  1  0  0  0  0
  3  4  2  0  0  0  0
  3  5  1  0  0  0  0
  5 31  1  0  0  0  0
  5  6  2  0  0  0  0
  6  7  1  0  0  0  0
  6 37  1  0  0  0  0
  7  8  2  0  0  0  0
  7 38  1  0  0  0  0
  8  9  1  0  0  0  0
  8 30  1  0  0  0  0
  9 10  1  0  0  0  0
 10 11  1  0  0  0  0
 10 39  1  0  0  0  0
 10 40  1  0  0  0  0
 11 12  1  0  0  0  0
 11 13  1  0  0  0  0
 11 41  1  0  0  0  0
 12 42  1  0  0  0  0
 13 14  1  0  0  0  0
 13 43  1  0  0  0  0
 13 44  1  0  0  0  0
 14 29  1  0  0  0  0
 14 15  1  0  0  0  0
 15 16  1  0  0  0  0
 15 19  2  0  0  0  0
 16 17  2  0  0  0  0
 16 18  1  0  0  0  0
 19 20  1  0  0  0  0
 20 29  2  0  0  0  0
 20 21  1  0  0  0  0
 21 22  2  0  0  0  0
 21 23  1  0  0  0  0
 23 24  1  0  0  0  0
 23 25  1  0  0  0  0
 24 45  1  0  0  0  0
 24 46  1  0  0  0  0
 24 47  1  0  0  0  0
 25 26  2  0  0  0  0
 25 27  1  0  0  0  0
 27 28  1  0  0  0  0
 27 29  1  0  0  0  0
 28 48  1  0  0  0  0
 28 49  1  0  0  0  0
 28 50  1  0  0  0  0
 30 31  2  0  0  0  0
 30 51  1  0  0  0  0
 31 52  1  0  0  0  0
M  CHG  1  16   1
M  CHG  1  18  -1
M  END
> <s_m_source_file>
AV-unprocessed.smi

> <i_m_source_file_index>
2

> <i_lp_mmshare_version>
43012

> <i_f3d_flags>
0

> <s_epik_input>
W0NIM11bQ0gyXUMoPU8pYzFbY0hdW2NIXWMoW2NIXVtjSF0xKU9bQ0gyXVtDQEhdKFtPSF0pW0NIMl1uKGMobjIpW04rXSg9TylbTy1dKWMoYzIzKW4oW0NIM10pYyg9TyluKGMzPU8pW0NIM10=

> <s_epik_cmdline>
J2VwaWtfcHl0aG9uJywgJy1waCcsICc3LjAnLCAnLXRuJywgJzgnLCAnLW1hJywgJzIwMCcsICctbWV0YWxfYmluZGluZycsICctaW1hZScsICc8aW5maWxlLm1hZT4nLCAnLW9tYWUnLCAnPG91dGZpbGUubWFlPic=

> <r_lp_tautomer_probability>
1

> <r_epik_Ionization_Penalty>
1.02275e-06

> <r_epik_Ionization_Penalty_Charging>
4.46226e-11

> <r_epik_Ionization_Penalty_Neutral>
1.02271e-06

> <r_epik_State_Penalty>
-0

> <r_epik_Charging_Adjusted_Penalty>
4.46226e-11

> <i_epik_Tot_Q>
0

> <i_epik_Tot_abs_Q>
2

> <r_epik_Metal_State_Penalty>
-0

> <b_epik_Metal_Only>
0

> <s_lp_Force_Field>
OPLS_2005

> <r_lp_Energy>
60.0216

> <b_lp_Chiralities_Consistent>
1

> <s_lp_Variant>
AV-unprocessed.smi:2-1

> <Gold.Version>
5.8.1

> <Gold.Id.Protein>
6NUR|6NUR_protein|mol2

> <Gold.PLP.Fitness>
48.3674

> <Gold.PLP.PLP>
-37.6851

> <Gold.PLP.part.hbond>
-4.9486

> <Gold.PLP.part.metal>
0.0000

> <Gold.PLP.part.buried>
-3.3213

> <Gold.PLP.part.nonpolar>
-28.3834

> <Gold.PLP.part.repulsive>
0.1889

> <Gold.PLP.ligand.clash>
0.0000

> <Gold.PLP.ligand.torsion>
0.9978

> <Gold.PLP.Chemscore.Hbond>
3.8880

> <Gold.PLP.Chemscore.CHOScore>
0.0000

> <Gold.PLP.Chemscore.Metal>
0.0000

> <Gold.Chemscore.Hbonds>
donor molecule, donor type, donor heavy atom, donor atom, acceptor molecule, acceptor atom, score
      L1  H    12    42       P1  7957  0.88
      P1  H  6896  6909       L1    26  1.00
      P1  H  6934  6947       L1    22  1.00
      P1  H  7989  7998       L1    12  0.96

> <Gold.PLP.Chemscore.Internal.Correction>
1.0139

> <Gold.Rescore>
     Score         DG    S(hbond)    S(metal)    S(lipo)     H(rot)  DE(clash)    DE(int)     intcor
     13.07     -19.34       3.41        0.00      90.34       3.16       1.19       5.08       ----

> <Gold.Chemscore.Fitness>
13.0686

> <Gold.Chemscore.DG>
-19.3409

> <Gold.Chemscore.ZeroCoef>
-5.4800

> <Gold.Chemscore.Hbond>
3.4072

> <Gold.Chemscore.Metal>
0.0000

> <Gold.Chemscore.Lipo>
90.3396

> <Gold.Chemscore.Internal_Hbond>
0.0000

> <Gold.Chemscore.DEClash>
1.1942

> <Gold.Chemscore.DEInternal>
5.0782

> <Gold.Chemscore.Rot>
3.1597

> <Gold.Chemscore.Internal.Correction>
   9.000000E+99

> <Gold.Chemscore.Hbonds>
donor molecule, donor type, donor heavy atom, donor atom, acceptor molecule, acceptor atom, score
      L1  H    12    42       P1  7957  0.84
      P1  H  6896  6909       L1    26  0.94
      P1  H  6934  6947       L1    22  0.88
      P1  H  7989  7998       L1    12  0.24

> <Gold.Chemscore.Hbond.Weighted>
-11.3800

> <Gold.Chemscore.Metal.Weighted>
-0.0000

> <Gold.Chemscore.Lipo.Weighted>
-10.5697

> <Gold.Chemscore.Internal_Hbond.Weighted>
0.0000

> <Gold.Chemscore.DEClash.Weighted>
1.1942

> <Gold.Chemscore.DEInternal.Weighted>
5.0782

> <Gold.Chemscore.Rot.Weighted>
8.0888

> <Gold.Chemscore.Internal.Correction.Weighted>
   9.000000E+99

> <Gold.Protein.RotatedTorsions>
[ 6907 6896 6895 6894 ] final   29.69 input  -60.11 | X-H torsion
[ 7974 7965 7964 7962 ] final -111.23 input  175.53 | X-H torsion
[ 8008 7997 7996 7995 ] final   60.52 input   59.86 | X-H torsion
[ 10167 10162 10161 10158 ] final  158.13 input  -65.29 | X-H torsion
[ 10718 10713 10712 10709 ] final  152.47 input   66.30 | X-H torsion
[ 10763 10752 10751 10750 ] final  -82.13 input  -60.55 | X-H torsion
[ 11005 11000 10999 10996 ] final   61.64 input  -57.11 | X-H torsion

> <Gold.Protein.ActiveResidues>
 VAL166  LYS551  ARG553  GLY616  TRP617  ASP618  TYR619  PRO620  LYS621  CYS622 
 ASP623  PHE694  ASN695  SER759  ASP760  ASP761  ALA762  ILE779  LEU786  VAL792 
 PHE793  MET794  SER795  GLU796  ALA797  LYS798  CYS799  TRP800  GLU811  SER814 

> <Gold.Protein.RotatedAtoms>
  152.0352  134.9744  160.0572 H   0  0  0  0  0  0  0  0  0  0  0  0  # atno 6907 bound_to 6896
  152.1205  133.4346  159.4681 H   0  0  0  0  0  0  0  0  0  0  0  0  # atno 6908 bound_to 6896
  150.6849  134.2460  159.4534 H   0  0  0  0  0  0  0  0  0  0  0  0  # atno 6909 bound_to 6896
  145.1586  140.8866  143.3604 H   0  0  0  0  0  0  0  0  0  0  0  0  # atno 7974 bound_to 7965
  155.5836  140.3492  155.4547 H   0  0  0  0  0  0  0  0  0  0  0  0  # atno 8008 bound_to 7997
  156.0354  140.1284  157.0238 H   0  0  0  0  0  0  0  0  0  0  0  0  # atno 8009 bound_to 7997
  154.4369  140.1035  156.6146 H   0  0  0  0  0  0  0  0  0  0  0  0  # atno 8010 bound_to 7997
  139.4825  144.4853  151.8386 H   0  0  0  0  0  0  0  0  0  0  0  0  # atno 10167 bound_to 10162
  157.2573  131.0791  151.1689 H   0  0  0  0  0  0  0  0  0  0  0  0  # atno 10718 bound_to 10713
  154.5720  135.5602  153.7104 H   0  0  0  0  0  0  0  0  0  0  0  0  # atno 10763 bound_to 10752
  153.0052  135.6299  154.2101 H   0  0  0  0  0  0  0  0  0  0  0  0  # atno 10764 bound_to 10752
  154.2041  135.2876  155.2961 H   0  0  0  0  0  0  0  0  0  0  0  0  # atno 10765 bound_to 10752
  140.0147  134.6243  155.9727 H   0  0  0  0  0  0  0  0  0  0  0  0  # atno 11005 bound_to 11000
  145.0355  139.3304  143.6003 LP  0  0  0  0  0  0  0  0  0  0  0  0  # atno 17320 bound_to 7965
  146.3485  139.9708  142.8706 LP  0  0  0  0  0  0  0  0  0  0  0  0  # atno 17321 bound_to 7965
  140.4333  144.2086  150.5888 LP  0  0  0  0  0  0  0  0  0  0  0  0  # atno 17342 bound_to 10162
  140.4758  143.2397  151.9026 LP  0  0  0  0  0  0  0  0  0  0  0  0  # atno 17343 bound_to 10162
  157.3213  130.6939  149.6271 LP  0  0  0  0  0  0  0  0  0  0  0  0  # atno 17370 bound_to 10713
  155.9664  130.4334  150.5006 LP  0  0  0  0  0  0  0  0  0  0  0  0  # atno 17371 bound_to 10713
  141.1735  133.6538  156.4739 LP  0  0  0  0  0  0  0  0  0  0  0  0  # atno 17394 bound_to 11000
  140.4492  134.6944  157.5031 LP  0  0  0  0  0  0  0  0  0  0  0  0  # atno 17395 bound_to 11000

$$$$
