AV-unprocessed.smi:2451|AV-procd|sdf|9678|dock1
  -GOLD-   2272013313D 1   1.00000     0.00000
 Structure written by MMmdl.
 37 38  0  0  0  0  0  0  0  0  2 V2000
  153.4102  142.5930  162.5738 C   0  0  0  0  0  0  0  0  0  0  0  0
  152.6786  142.3104  161.2500 C   0  0  1  0  0  0  0  0  0  0  0  0
  152.5073  143.6056  160.4163 C   0  0  0  0  0  0  0  0  0  0  0  0
  151.7068  143.3050  159.1299 C   0  0  0  0  0  0  0  0  0  0  0  0
  152.2873  142.1264  158.3075 C   0  0  0  0  0  0  0  0  0  0  0  0
  152.4617  140.8379  159.1464 C   0  0  1  0  0  0  0  0  0  0  0  0
  153.0441  139.7697  158.3454 N   0  5  0  0  0  0  0  0  0  0  0  0
  152.2251  138.3863  158.1382 S   0  0  0  0  0  0  0  0  0  0  0  0
  152.6761  137.6313  156.9576 O   0  0  0  0  0  0  0  0  0  0  0  0
  152.0678  137.6318  159.3927 O   0  0  0  0  0  0  0  0  0  0  0  0
  150.5542  139.0426  157.7184 C   0  0  0  0  0  0  0  0  0  0  0  0
  150.3686  139.0703  156.2275 C   0  0  0  0  0  0  0  0  0  0  0  0
  149.6153  138.1783  155.4148 C   0  0  0  0  0  0  0  0  0  0  0  0
  149.7873  138.6723  154.1541 C   0  0  0  0  0  0  0  0  0  0  0  0
  150.5705  139.7799  154.1805 O   0  0  0  0  0  0  0  0  0  0  0  0
  150.9337  140.0286  155.5091 N   0  0  0  0  0  0  0  0  0  0  0  0
  153.3169  141.1427  160.4207 C   0  0  1  0  0  0  0  0  0  0  0  0
  154.8222  141.3921  160.1255 C   0  0  0  0  0  0  0  0  0  0  0  0
  154.3914  143.0384  162.4108 H   0  0  0  0  0  0  0  0  0  0  0  0
  153.5452  141.6786  163.1523 H   0  0  0  0  0  0  0  0  0  0  0  0
  152.8396  143.2885  163.1898 H   0  0  0  0  0  0  0  0  0  0  0  0
  151.6758  141.9952  161.5503 H   0  0  0  0  0  0  0  0  0  0  0  0
  151.9934  144.3694  161.0008 H   0  0  0  0  0  0  0  0  0  0  0  0
  153.4824  144.0188  160.1564 H   0  0  0  0  0  0  0  0  0  0  0  0
  150.6688  143.0941  159.3956 H   0  0  0  0  0  0  0  0  0  0  0  0
  151.6743  144.1994  158.5071 H   0  0  0  0  0  0  0  0  0  0  0  0
  151.6320  141.9260  157.4588 H   0  0  0  0  0  0  0  0  0  0  0  0
  153.2461  142.4262  157.8825 H   0  0  0  0  0  0  0  0  0  0  0  0
  151.4667  140.5576  159.4958 H   0  0  0  0  0  0  0  0  0  0  0  0
  149.8089  138.4026  158.1897 H   0  0  0  0  0  0  0  0  0  0  0  0
  150.4594  140.0381  158.1528 H   0  0  0  0  0  0  0  0  0  0  0  0
  149.0452  137.3109  155.7122 H   0  0  0  0  0  0  0  0  0  0  0  0
  149.4320  138.3646  153.1819 H   0  0  0  0  0  0  0  0  0  0  0  0
  153.2740  140.2488  161.0450 H   0  0  0  0  0  0  0  0  0  0  0  0
  154.9915  142.2918  159.5329 H   0  0  0  0  0  0  0  0  0  0  0  0
  155.2899  140.5590  159.5984 H   0  0  0  0  0  0  0  0  0  0  0  0
  155.3906  141.5040  161.0479 H   0  0  0  0  0  0  0  0  0  0  0  0
  1  2  1  0  0  0  0
  1 19  1  0  0  0  0
  1 20  1  0  0  0  0
  1 21  1  0  0  0  0
  2 17  1  0  0  0  0
  2  3  1  0  0  0  0
  2 22  1  0  0  0  0
  3  4  1  0  0  0  0
  3 23  1  0  0  0  0
  3 24  1  0  0  0  0
  4  5  1  0  0  0  0
  4 25  1  0  0  0  0
  4 26  1  0  0  0  0
  5  6  1  0  0  0  0
  5 27  1  0  0  0  0
  5 28  1  0  0  0  0
  6  7  1  0  0  0  0
  6 17  1  0  0  0  0
  6 29  1  0  0  0  0
  7  8  1  0  0  0  0
  8  9  2  0  0  0  0
  8 10  2  0  0  0  0
  8 11  1  0  0  0  0
 11 12  1  0  0  0  0
 11 30  1  0  0  0  0
 11 31  1  0  0  0  0
 12 16  2  0  0  0  0
 12 13  1  0  0  0  0
 13 14  2  0  0  0  0
 13 32  1  0  0  0  0
 14 15  1  0  0  0  0
 14 33  1  0  0  0  0
 15 16  1  0  0  0  0
 17 18  1  0  0  0  0
 17 34  1  0  0  0  0
 18 35  1  0  0  0  0
 18 36  1  0  0  0  0
 18 37  1  0  0  0  0
M  CHG  1   7  -1
M  END
> <s_m_source_file>
AV-unprocessed.smi

> <i_m_source_file_index>
2451

> <i_lp_mmshare_version>
43012

> <i_f3d_flags>
0

> <s_epik_input>
W0NIM11bQ0BASF0xW0NIMl1bQ0gyXVtDSDJdW0NASF0oW0NASF0xW0NIM10pW05IXVMoPU8pKD1PKVtDSDJdYzJbY0hdW2NIXW9uMg==

> <s_epik_cmdline>
J2VwaWtfcHl0aG9uJywgJy1waCcsICc3LjAnLCAnLXRuJywgJzgnLCAnLW1hJywgJzIwMCcsICctbWV0YWxfYmluZGluZycsICctaW1hZScsICc8aW5maWxlLm1hZT4nLCAnLW9tYWUnLCAnPG91dGZpbGUubWFlPic=

> <r_lp_tautomer_probability>
1

> <r_epik_Ionization_Penalty>
5.22693

> <r_epik_Ionization_Penalty_Charging>
5.22693

> <r_epik_Ionization_Penalty_Neutral>
2.67702e-10

> <r_epik_State_Penalty>
5.22685

> <r_epik_Charging_Adjusted_Penalty>
10.4538

> <i_epik_Tot_Q>
-1

> <i_epik_Tot_abs_Q>
1

> <r_epik_Metal_State_Penalty>
1.28716

> <b_epik_Metal_Only>
1

> <s_lp_Force_Field>
OPLS_2005

> <r_lp_Energy>
14.5661

> <b_lp_Chiralities_Consistent>
1

> <s_lp_Variant>
AV-unprocessed.smi:2451-10

> <Gold.Version>
5.8.1

> <Gold.Id.Protein>
6NUR|6NUR_protein|mol2

> <Gold.PLP.Fitness>
45.1123

> <Gold.PLP.PLP>
-32.5592

> <Gold.PLP.part.hbond>
-2.5104

> <Gold.PLP.part.metal>
0.0000

> <Gold.PLP.part.buried>
-3.8449

> <Gold.PLP.part.nonpolar>
-24.6476

> <Gold.PLP.part.repulsive>
0.1816

> <Gold.PLP.ligand.clash>
0.0000

> <Gold.PLP.ligand.torsion>
1.2798

> <Gold.PLP.Chemscore.Hbond>
2.9000

> <Gold.PLP.Chemscore.CHOScore>
1.8014

> <Gold.PLP.Chemscore.Metal>
0.0000

> <Gold.Chemscore.Hbonds>
donor molecule, donor type, donor heavy atom, donor atom, acceptor molecule, acceptor atom, score
      P1  H  7989  7998       L1    15  0.85
      P1  H  7997  8009       L1     7  1.85
      L1  C    14    33       P1  7948  1.00
      L1  C    14    33       P1  7957  0.63

> <Gold.PLP.Chemscore.Internal.Correction>
1.0085

> <Gold.Rescore>
     Score         DG    S(hbond)    S(metal)    S(lipo)     H(rot)  DE(clash)    DE(int)     intcor
     17.95     -19.22       1.64        0.00     101.40       1.40       0.06       1.21       ----

> <Gold.Chemscore.Fitness>
17.9522

> <Gold.Chemscore.DG>
-19.2243

> <Gold.Chemscore.ZeroCoef>
-5.4800

> <Gold.Chemscore.Hbond>
1.6351

> <Gold.Chemscore.Metal>
0.0000

> <Gold.Chemscore.Lipo>
101.3974

> <Gold.Chemscore.Internal_Hbond>
0.0000

> <Gold.Chemscore.DEClash>
0.0645

> <Gold.Chemscore.DEInternal>
1.2076

> <Gold.Chemscore.Rot>
1.3986

> <Gold.Chemscore.Internal.Correction>
   9.000000E+99

> <Gold.Chemscore.Hbonds>
donor molecule, donor type, donor heavy atom, donor atom, acceptor molecule, acceptor atom, score
      P1  H  7989  7998       L1    15  0.15
      P1  H  7997  8009       L1     7  0.81

> <Gold.Chemscore.Hbond.Weighted>
-5.4612

> <Gold.Chemscore.Metal.Weighted>
-0.0000

> <Gold.Chemscore.Lipo.Weighted>
-11.8635

> <Gold.Chemscore.Internal_Hbond.Weighted>
0.0000

> <Gold.Chemscore.DEClash.Weighted>
0.0645

> <Gold.Chemscore.DEInternal.Weighted>
1.2076

> <Gold.Chemscore.Rot.Weighted>
3.5804

> <Gold.Chemscore.Internal.Correction.Weighted>
   9.000000E+99

> <Gold.Protein.RotatedTorsions>
[ 6907 6896 6895 6894 ] final  170.22 input  -60.11 | X-H torsion
[ 7974 7965 7964 7962 ] final -111.32 input  175.53 | X-H torsion
[ 8008 7997 7996 7995 ] final  146.87 input   59.86 | X-H torsion
[ 10167 10162 10161 10158 ] final   57.54 input  -65.29 | X-H torsion
[ 10718 10713 10712 10709 ] final   70.60 input   66.30 | X-H torsion
[ 10763 10752 10751 10750 ] final   92.33 input  -60.55 | X-H torsion
[ 11005 11000 10999 10996 ] final   51.88 input  -57.11 | X-H torsion

> <Gold.Protein.ActiveResidues>
 VAL166  LYS551  ARG553  GLY616  TRP617  ASP618  TYR619  PRO620  LYS621  CYS622 
 ASP623  PHE694  ASN695  SER759  ASP760  ASP761  ALA762  ILE779  LEU786  VAL792 
 PHE793  MET794  SER795  GLU796  ALA797  LYS798  CYS799  TRP800  GLU811  SER814 

> <Gold.Protein.RotatedAtoms>
  151.8195  133.3392  159.3579 H   0  0  0  0  0  0  0  0  0  0  0  0  # atno 6907 bound_to 6896
  150.7299  134.5587  159.5841 H   0  0  0  0  0  0  0  0  0  0  0  0  # atno 6908 bound_to 6896
  152.3016  134.7605  160.0407 H   0  0  0  0  0  0  0  0  0  0  0  0  # atno 6909 bound_to 6896
  145.1575  140.8861  143.3610 H   0  0  0  0  0  0  0  0  0  0  0  0  # atno 7974 bound_to 7965
  156.2842  140.2170  156.5447 H   0  0  0  0  0  0  0  0  0  0  0  0  # atno 8008 bound_to 7997
  154.7340  140.0493  157.0775 H   0  0  0  0  0  0  0  0  0  0  0  0  # atno 8009 bound_to 7997
  155.0316  140.3135  155.4759 H   0  0  0  0  0  0  0  0  0  0  0  0  # atno 8010 bound_to 7997
  140.1969  144.4028  150.6546 H   0  0  0  0  0  0  0  0  0  0  0  0  # atno 10167 bound_to 10162
  157.6408  130.9485  150.0673 H   0  0  0  0  0  0  0  0  0  0  0  0  # atno 10718 bound_to 10713
  153.2180  135.4365  155.0457 H   0  0  0  0  0  0  0  0  0  0  0  0  # atno 10763 bound_to 10752
  154.8235  135.3349  154.6969 H   0  0  0  0  0  0  0  0  0  0  0  0  # atno 10764 bound_to 10752
  153.7403  135.7005  153.5024 H   0  0  0  0  0  0  0  0  0  0  0  0  # atno 10765 bound_to 10752
  140.0896  134.5227  155.8865 H   0  0  0  0  0  0  0  0  0  0  0  0  # atno 11005 bound_to 11000
  145.0366  139.3295  143.5998 LP  0  0  0  0  0  0  0  0  0  0  0  0  # atno 17320 bound_to 7965
  146.3487  139.9723  142.8705 LP  0  0  0  0  0  0  0  0  0  0  0  0  # atno 17321 bound_to 7965
  140.6417  143.2205  151.6275 LP  0  0  0  0  0  0  0  0  0  0  0  0  # atno 17342 bound_to 10162
  139.5233  144.3138  152.0970 LP  0  0  0  0  0  0  0  0  0  0  0  0  # atno 17343 bound_to 10162
  156.1687  130.3646  149.9195 LP  0  0  0  0  0  0  0  0  0  0  0  0  # atno 17370 bound_to 10713
  156.7176  130.8994  151.3615 LP  0  0  0  0  0  0  0  0  0  0  0  0  # atno 17371 bound_to 10713
  141.2073  133.6663  156.6300 LP  0  0  0  0  0  0  0  0  0  0  0  0  # atno 17394 bound_to 11000
  140.3371  134.7880  157.4370 LP  0  0  0  0  0  0  0  0  0  0  0  0  # atno 17395 bound_to 11000

$$$$
