AV-unprocessed.smi:15|AV-procd|sdf|79|dock8
  -GOLD-   2262015213D 1   1.00000     0.00000
 Structure written by MMmdl.
 53 56  0  0  0  0  0  0  0  0  1 V2000
  151.4585  138.3795  155.2780 C   0  0  0  0  0  0  0  0  0  0  0  0
  152.1413  139.5720  155.9667 C   0  0  0  0  0  0  0  0  0  0  0  0
  151.2295  140.3694  156.7873 N   0  0  0  0  0  0  0  0  0  0  0  0
  151.8260  141.4386  157.5839 C   0  0  0  0  0  0  0  0  0  0  0  0
  152.4077  140.9202  158.9081 C   0  0  2  0  0  0  0  0  0  0  0  0
  152.8695  142.0218  159.8629 C   0  0  0  0  0  0  0  0  0  0  0  0
  153.9852  141.3664  160.6638 C   0  0  0  0  0  0  0  0  0  0  0  0
  154.2625  140.0570  159.9208 C   0  0  0  0  0  0  0  0  0  0  0  0
  153.6068  140.2017  158.6695 O   0  0  0  0  0  0  0  0  0  0  0  0
  150.1095  140.7756  156.1510 C   0  0  0  0  0  0  0  0  0  0  0  0
  150.1116  140.7293  154.7964 N   0  0  0  0  0  0  0  0  0  0  0  0
  149.0278  141.1148  154.1155 C   0  0  0  0  0  0  0  0  0  0  0  0
  147.8611  141.5622  154.5858 N   0  0  0  0  0  0  0  0  0  0  0  0
  147.8566  141.6014  155.9493 C   0  0  0  0  0  0  0  0  0  0  0  0
  148.9313  141.2315  156.8050 C   0  0  0  0  0  0  0  0  0  0  0  0
  148.5633  141.4040  158.1334 N   0  0  0  0  0  0  0  0  0  0  0  0
  147.3392  141.8515  158.0669 C   0  0  0  0  0  0  0  0  0  0  0  0
  146.8312  141.9891  156.7941 N   0  0  0  0  0  0  0  0  0  0  0  0
  145.4996  142.4519  156.4323 C   0  0  0  0  0  0  0  0  0  0  0  0
  144.6493  141.3741  155.7095 C   0  0  1  0  0  0  0  0  0  0  0  0
  145.2924  141.0556  154.4869 O   0  0  0  0  0  0  0  0  0  0  0  0
  144.4976  140.0811  156.5086 C   0  0  0  0  0  0  0  0  0  0  0  0
  143.1464  139.5509  156.0544 C   0  0  0  0  0  0  0  0  0  0  0  0
  142.3746  140.7347  155.9619 O   0  0  0  0  0  0  0  0  0  0  0  0
  143.1781  141.7578  155.3804 C   0  0  1  0  0  0  0  0  0  0  0  0
  142.6759  143.1100  155.9102 C   0  0  0  0  0  0  0  0  0  0  0  0
  152.1887  137.7836  154.7304 H   0  0  0  0  0  0  0  0  0  0  0  0
  150.7001  138.7026  154.5643 H   0  0  0  0  0  0  0  0  0  0  0  0
  150.9785  137.7273  156.0081 H   0  0  0  0  0  0  0  0  0  0  0  0
  152.9465  139.1959  156.5974 H   0  0  0  0  0  0  0  0  0  0  0  0
  152.6153  140.2086  155.2191 H   0  0  0  0  0  0  0  0  0  0  0  0
  152.6171  141.9098  156.9995 H   0  0  0  0  0  0  0  0  0  0  0  0
  151.0936  142.2204  157.7945 H   0  0  0  0  0  0  0  0  0  0  0  0
  151.7053  140.2541  159.4117 H   0  0  0  0  0  0  0  0  0  0  0  0
  153.2729  142.8656  159.3012 H   0  0  0  0  0  0  0  0  0  0  0  0
  152.0589  142.3957  160.4888 H   0  0  0  0  0  0  0  0  0  0  0  0
  154.8680  142.0062  160.6839 H   0  0  0  0  0  0  0  0  0  0  0  0
  153.6872  141.1736  161.6950 H   0  0  0  0  0  0  0  0  0  0  0  0
  155.3277  139.8648  159.7908 H   0  0  0  0  0  0  0  0  0  0  0  0
  153.8273  139.2125  160.4571 H   0  0  0  0  0  0  0  0  0  0  0  0
  149.1064  141.0549  153.0400 H   0  0  0  0  0  0  0  0  0  0  0  0
  146.7663  142.0873  158.9519 H   0  0  0  0  0  0  0  0  0  0  0  0
  145.0062  142.7747  157.3495 H   0  0  0  0  0  0  0  0  0  0  0  0
  145.6036  143.3402  155.8077 H   0  0  0  0  0  0  0  0  0  0  0  0
  144.7143  140.5088  153.9769 H   0  0  0  0  0  0  0  0  0  0  0  0
  145.3113  139.3696  156.3602 H   0  0  0  0  0  0  0  0  0  0  0  0
  144.4421  140.3037  157.5749 H   0  0  0  0  0  0  0  0  0  0  0  0
  143.2169  139.0752  155.0750 H   0  0  0  0  0  0  0  0  0  0  0  0
  142.7127  138.8400  156.7577 H   0  0  0  0  0  0  0  0  0  0  0  0
  143.0113  141.7296  154.3018 H   0  0  0  0  0  0  0  0  0  0  0  0
  143.2490  143.9384  155.4944 H   0  0  0  0  0  0  0  0  0  0  0  0
  142.7357  143.1625  156.9975 H   0  0  0  0  0  0  0  0  0  0  0  0
  141.6325  143.2654  155.6346 H   0  0  0  0  0  0  0  0  0  0  0  0
  1  2  1  0  0  0  0
  1 27  1  0  0  0  0
  1 28  1  0  0  0  0
  1 29  1  0  0  0  0
  2  3  1  0  0  0  0
  2 30  1  0  0  0  0
  2 31  1  0  0  0  0
  3  4  1  0  0  0  0
  3 10  1  0  0  0  0
  4  5  1  0  0  0  0
  4 32  1  0  0  0  0
  4 33  1  0  0  0  0
  5  9  1  0  0  0  0
  5  6  1  0  0  0  0
  5 34  1  0  0  0  0
  6  7  1  0  0  0  0
  6 35  1  0  0  0  0
  6 36  1  0  0  0  0
  7  8  1  0  0  0  0
  7 37  1  0  0  0  0
  7 38  1  0  0  0  0
  8  9  1  0  0  0  0
  8 39  1  0  0  0  0
  8 40  1  0  0  0  0
 10 15  1  0  0  0  0
 10 11  2  0  0  0  0
 11 12  1  0  0  0  0
 12 13  2  0  0  0  0
 12 41  1  0  0  0  0
 13 14  1  0  0  0  0
 14 18  1  0  0  0  0
 14 15  2  0  0  0  0
 15 16  1  0  0  0  0
 16 17  2  0  0  0  0
 17 18  1  0  0  0  0
 17 42  1  0  0  0  0
 18 19  1  0  0  0  0
 19 20  1  0  0  0  0
 19 43  1  0  0  0  0
 19 44  1  0  0  0  0
 20 25  1  0  0  0  0
 20 21  1  0  0  0  0
 20 22  1  0  0  0  0
 21 45  1  0  0  0  0
 22 23  1  0  0  0  0
 22 46  1  0  0  0  0
 22 47  1  0  0  0  0
 23 24  1  0  0  0  0
 23 48  1  0  0  0  0
 23 49  1  0  0  0  0
 24 25  1  0  0  0  0
 25 26  1  0  0  0  0
 25 50  1  0  0  0  0
 26 51  1  0  0  0  0
 26 52  1  0  0  0  0
 26 53  1  0  0  0  0
M  END
> <s_m_source_file>
AV-unprocessed.smi

> <i_m_source_file_index>
15

> <i_lp_mmshare_version>
43012

> <i_f3d_flags>
0

> <s_epik_input>
TzFbQ0gyXVtDSDJdW0NIMl1bQ0BIXTFbQ0gyXU4oW0NIMl1bQ0gzXSljKG5bY0hdbjIpYyhjMjMpbltjSF1uM1tDSDJdW0NAQF00KFtPSF0pW0NIMl1bQ0gyXU9bQ0BIXTRbQ0gzXQ==

> <s_epik_cmdline>
J2VwaWtfcHl0aG9uJywgJy1waCcsICc3LjAnLCAnLXRuJywgJzgnLCAnLW1hJywgJzIwMCcsICctbWV0YWxfYmluZGluZycsICctaW1hZScsICc8aW5maWxlLm1hZT4nLCAnLW9tYWUnLCAnPG91dGZpbGUubWFlPic=

> <r_lp_tautomer_probability>
1

> <r_epik_Ionization_Penalty>
0.00360814

> <r_epik_Ionization_Penalty_Charging>
0

> <r_epik_Ionization_Penalty_Neutral>
0.00360814

> <r_epik_State_Penalty>
0.00237482

> <r_epik_Charging_Adjusted_Penalty>
0.00237482

> <i_epik_Tot_Q>
0

> <i_epik_Tot_abs_Q>
0

> <r_epik_Metal_State_Penalty>
-0

> <b_epik_Metal_Only>
0

> <s_lp_Force_Field>
OPLS_2005

> <r_lp_Energy>
46.4206

> <b_lp_Chiralities_Consistent>
1

> <s_lp_Variant>
AV-unprocessed.smi:15-1

> <Gold.Version>
5.8.1

> <Gold.Id.Protein>
6NUR|6NUR_protein|mol2

> <Gold.PLP.Fitness>
43.4454

> <Gold.PLP.PLP>
-33.1634

> <Gold.PLP.part.hbond>
-3.0035

> <Gold.PLP.part.metal>
0.0000

> <Gold.PLP.part.buried>
-2.0067

> <Gold.PLP.part.nonpolar>
-26.8386

> <Gold.PLP.part.repulsive>
0.4301

> <Gold.PLP.ligand.clash>
0.0000

> <Gold.PLP.ligand.torsion>
0.7269

> <Gold.PLP.Chemscore.Hbond>
2.7600

> <Gold.PLP.Chemscore.CHOScore>
1.0000

> <Gold.PLP.Chemscore.Metal>
0.0000

> <Gold.Chemscore.Hbonds>
donor molecule, donor type, donor heavy atom, donor atom, acceptor molecule, acceptor atom, score
      L1  H    21    45       P1 10175  0.85
      P1  H  7989  7998       L1    11  0.82
      P1  H  7997  8010       L1     9  0.93
      L1  C    12    41       P1  7957  1.00

> <Gold.PLP.Chemscore.Internal.Correction>
0.4559

> <Gold.Rescore>
     Score         DG    S(hbond)    S(metal)    S(lipo)     H(rot)  DE(clash)    DE(int)     intcor
     11.48     -14.14       2.33        0.00      66.69       2.71       0.47       2.19       ----

> <Gold.Chemscore.Fitness>
11.4841

> <Gold.Chemscore.DG>
-14.1405

> <Gold.Chemscore.ZeroCoef>
-5.4800

> <Gold.Chemscore.Hbond>
2.3318

> <Gold.Chemscore.Metal>
0.0000

> <Gold.Chemscore.Lipo>
66.6923

> <Gold.Chemscore.Internal_Hbond>
0.0000

> <Gold.Chemscore.DEClash>
0.4707

> <Gold.Chemscore.DEInternal>
2.1857

> <Gold.Chemscore.Rot>
2.7074

> <Gold.Chemscore.Internal.Correction>
   9.000000E+99

> <Gold.Chemscore.Hbonds>
donor molecule, donor type, donor heavy atom, donor atom, acceptor molecule, acceptor atom, score
      L1  H    21    45       P1 10175  0.85
      P1  H  7989  7998       L1    11  0.39
      P1  H  7997  8010       L1     9  0.76

> <Gold.Chemscore.Hbond.Weighted>
-7.7883

> <Gold.Chemscore.Metal.Weighted>
-0.0000

> <Gold.Chemscore.Lipo.Weighted>
-7.8030

> <Gold.Chemscore.Internal_Hbond.Weighted>
0.0000

> <Gold.Chemscore.DEClash.Weighted>
0.4707

> <Gold.Chemscore.DEInternal.Weighted>
2.1857

> <Gold.Chemscore.Rot.Weighted>
6.9308

> <Gold.Chemscore.Internal.Correction.Weighted>
   9.000000E+99

> <Gold.Protein.RotatedTorsions>
[ 6907 6896 6895 6894 ] final -150.49 input  -60.11 | X-H torsion
[ 7974 7965 7964 7962 ] final   50.87 input  175.53 | X-H torsion
[ 8008 7997 7996 7995 ] final   19.22 input   59.86 | X-H torsion
[ 10167 10162 10161 10158 ] final  -58.16 input  -65.29 | X-H torsion
[ 10718 10713 10712 10709 ] final   71.12 input   66.30 | X-H torsion
[ 10763 10752 10751 10750 ] final   47.19 input  -60.55 | X-H torsion
[ 11005 11000 10999 10996 ] final  -39.19 input  -57.11 | X-H torsion

> <Gold.Protein.ActiveResidues>
 VAL166  LYS551  ARG553  GLY616  TRP617  ASP618  TYR619  PRO620  LYS621  CYS622 
 ASP623  PHE694  ASN695  SER759  ASP760  ASP761  ALA762  ILE779  LEU786  VAL792 
 PHE793  MET794  SER795  GLU796  ALA797  LYS798  CYS799  TRP800  GLU811  SER814 

> <Gold.Protein.RotatedAtoms>
  151.1994  133.4620  159.2595 H   0  0  0  0  0  0  0  0  0  0  0  0  # atno 6907 bound_to 6896
  151.1085  135.0013  159.8492 H   0  0  0  0  0  0  0  0  0  0  0  0  # atno 6908 bound_to 6896
  152.5449  134.1915  159.8729 H   0  0  0  0  0  0  0  0  0  0  0  0  # atno 6909 bound_to 6896
  145.9969  139.4398  143.0039 H   0  0  0  0  0  0  0  0  0  0  0  0  # atno 7974 bound_to 7965
  154.9175  140.3023  155.5233 H   0  0  0  0  0  0  0  0  0  0  0  0  # atno 8008 bound_to 7997
  156.3011  140.2377  156.4158 H   0  0  0  0  0  0  0  0  0  0  0  0  # atno 8009 bound_to 7997
  154.8363  140.0416  157.1500 H   0  0  0  0  0  0  0  0  0  0  0  0  # atno 8010 bound_to 7997
  140.6214  143.2421  151.5471 H   0  0  0  0  0  0  0  0  0  0  0  0  # atno 10167 bound_to 10162
  157.6435  130.9512  150.0746 H   0  0  0  0  0  0  0  0  0  0  0  0  # atno 10718 bound_to 10713
  152.9802  135.5984  154.3722 H   0  0  0  0  0  0  0  0  0  0  0  0  # atno 10763 bound_to 10752
  154.3394  135.2768  155.2432 H   0  0  0  0  0  0  0  0  0  0  0  0  # atno 10764 bound_to 10752
  154.4520  135.5987  153.6253 H   0  0  0  0  0  0  0  0  0  0  0  0  # atno 10765 bound_to 10752
  141.0083  133.6920  156.2153 H   0  0  0  0  0  0  0  0  0  0  0  0  # atno 11005 bound_to 11000
  145.7546  140.9959  143.1232 LP  0  0  0  0  0  0  0  0  0  0  0  0  # atno 17320 bound_to 7965
  144.6906  139.9256  143.7469 LP  0  0  0  0  0  0  0  0  0  0  0  0  # atno 17321 bound_to 7965
  139.5442  144.2566  152.1410 LP  0  0  0  0  0  0  0  0  0  0  0  0  # atno 17342 bound_to 10162
  140.1787  144.4865  150.6540 LP  0  0  0  0  0  0  0  0  0  0  0  0  # atno 17343 bound_to 10162
  156.1740  130.3647  149.9126 LP  0  0  0  0  0  0  0  0  0  0  0  0  # atno 17370 bound_to 10713
  156.7095  130.8964  151.3608 LP  0  0  0  0  0  0  0  0  0  0  0  0  # atno 17371 bound_to 10713
  140.6776  134.4802  157.5588 LP  0  0  0  0  0  0  0  0  0  0  0  0  # atno 17394 bound_to 11000
  139.9076  134.8416  156.1649 LP  0  0  0  0  0  0  0  0  0  0  0  0  # atno 17395 bound_to 11000

$$$$
