AV-unprocessed.smi:564|AV-procd|sdf|2948|dock3
  -GOLD-   2262023443D 1   1.00000     0.00000
 Structure written by MMmdl.
 50 51  0  0  0  0  0  0  0  0  2 V2000
  149.9729  145.0031  160.0261 C   0  0  0  0  0  0  0  0  0  0  0  0
  151.1777  144.1190  160.1780 C   0  0  0  0  0  0  0  0  0  0  0  0
  151.6325  143.8416  161.3886 N   0  0  0  0  0  0  0  0  0  0  0  0
  152.6959  143.0396  161.1812 N   0  0  0  0  0  0  0  0  0  0  0  0
  153.4441  142.5431  162.3199 C   0  0  0  0  0  0  0  0  0  0  0  0
  152.9145  142.8113  159.8363 C   0  0  0  0  0  0  0  0  0  0  0  0
  154.0340  141.9511  159.3458 C   0  0  0  0  0  0  0  0  0  0  0  0
  151.9489  143.4997  159.1511 C   0  0  0  0  0  0  0  0  0  0  0  0
  151.7332  143.5960  157.6616 C   0  0  0  0  0  0  0  0  0  0  0  0
  151.3433  142.2303  157.0897 C   0  0  0  0  0  0  0  0  0  0  0  0
  151.8716  141.2029  157.5160 O   0  0  0  0  0  0  0  0  0  0  0  0
  150.4124  142.2302  156.1244 N   0  0  0  0  0  0  0  0  0  0  0  0
  149.9148  141.0341  155.4590 C   0  0  0  0  0  0  0  0  0  0  0  0
  148.8856  141.4100  154.3797 C   0  0  0  0  0  0  0  0  0  0  0  0
  147.6602  142.0511  154.9295 N   0  3  1  0  0  0  0  0  0  0  0  0
  146.5826  142.1595  153.9087 C   0  0  0  0  0  0  0  0  0  0  0  0
  145.4116  143.0158  154.4162 C   0  0  0  0  0  0  0  0  0  0  0  0
  144.8592  142.4665  155.7355 C   0  0  0  0  0  0  0  0  0  0  0  0
  145.9915  142.3479  156.7645 C   0  0  0  0  0  0  0  0  0  0  0  0
  147.1743  141.5072  156.2376 C   0  0  1  0  0  0  0  0  0  0  0  0
  146.8439  139.9994  156.1980 C   0  0  0  0  0  0  0  0  0  0  0  0
  149.2216  144.5305  159.3932 H   0  0  0  0  0  0  0  0  0  0  0  0
  150.2440  145.9535  159.5666 H   0  0  0  0  0  0  0  0  0  0  0  0
  149.5049  145.2201  160.9870 H   0  0  0  0  0  0  0  0  0  0  0  0
  154.4369  142.9929  162.3288 H   0  0  0  0  0  0  0  0  0  0  0  0
  153.5431  141.4597  162.2519 H   0  0  0  0  0  0  0  0  0  0  0  0
  152.9350  142.7902  163.2525 H   0  0  0  0  0  0  0  0  0  0  0  0
  154.0113  141.8531  158.2607 H   0  0  0  0  0  0  0  0  0  0  0  0
  153.9685  140.9494  159.7710 H   0  0  0  0  0  0  0  0  0  0  0  0
  154.9988  142.3753  159.6241 H   0  0  0  0  0  0  0  0  0  0  0  0
  150.9391  144.3033  157.4215 H   0  0  0  0  0  0  0  0  0  0  0  0
  152.6273  143.9694  157.1607 H   0  0  0  0  0  0  0  0  0  0  0  0
  150.0288  143.1176  155.8321 H   0  0  0  0  0  0  0  0  0  0  0  0
  150.7703  140.5155  155.0269 H   0  0  0  0  0  0  0  0  0  0  0  0
  149.4587  140.3622  156.1881 H   0  0  0  0  0  0  0  0  0  0  0  0
  149.3626  142.1151  153.6972 H   0  0  0  0  0  0  0  0  0  0  0  0
  148.6230  140.5422  153.7743 H   0  0  0  0  0  0  0  0  0  0  0  0
  146.9817  142.6167  153.0025 H   0  0  0  0  0  0  0  0  0  0  0  0
  146.2330  141.1664  153.6251 H   0  0  0  0  0  0  0  0  0  0  0  0
  145.7454  144.0444  154.5590 H   0  0  0  0  0  0  0  0  0  0  0  0
  144.6209  143.0489  153.6660 H   0  0  0  0  0  0  0  0  0  0  0  0
  144.0741  143.1214  156.1149 H   0  0  0  0  0  0  0  0  0  0  0  0
  144.3967  141.4930  155.5698 H   0  0  0  0  0  0  0  0  0  0  0  0
  146.3475  143.3483  157.0150 H   0  0  0  0  0  0  0  0  0  0  0  0
  145.6087  141.9245  157.6939 H   0  0  0  0  0  0  0  0  0  0  0  0
  147.9720  141.6362  156.9681 H   0  0  0  0  0  0  0  0  0  0  0  0
  146.4673  139.6631  157.1644 H   0  0  0  0  0  0  0  0  0  0  0  0
  147.7255  139.3966  155.9816 H   0  0  0  0  0  0  0  0  0  0  0  0
  146.0841  139.7592  155.4550 H   0  0  0  0  0  0  0  0  0  0  0  0
  147.9280  143.0057  155.1243 H   0  0  0  0  0  0  0  0  0  0  0  0
  1  2  1  0  0  0  0
  1 22  1  0  0  0  0
  1 23  1  0  0  0  0
  1 24  1  0  0  0  0
  2  8  1  0  0  0  0
  2  3  2  0  0  0  0
  3  4  1  0  0  0  0
  4  5  1  0  0  0  0
  4  6  1  0  0  0  0
  5 25  1  0  0  0  0
  5 26  1  0  0  0  0
  5 27  1  0  0  0  0
  6  7  1  0  0  0  0
  6  8  2  0  0  0  0
  7 28  1  0  0  0  0
  7 29  1  0  0  0  0
  7 30  1  0  0  0  0
  8  9  1  0  0  0  0
  9 10  1  0  0  0  0
  9 31  1  0  0  0  0
  9 32  1  0  0  0  0
 10 11  2  0  0  0  0
 10 12  1  0  0  0  0
 12 13  1  0  0  0  0
 12 33  1  0  0  0  0
 13 14  1  0  0  0  0
 13 34  1  0  0  0  0
 13 35  1  0  0  0  0
 14 15  1  0  0  0  0
 14 36  1  0  0  0  0
 14 37  1  0  0  0  0
 15 20  1  0  0  0  0
 15 16  1  0  0  0  0
 15 50  1  0  0  0  0
 16 17  1  0  0  0  0
 16 38  1  0  0  0  0
 16 39  1  0  0  0  0
 17 18  1  0  0  0  0
 17 40  1  0  0  0  0
 17 41  1  0  0  0  0
 18 19  1  0  0  0  0
 18 42  1  0  0  0  0
 18 43  1  0  0  0  0
 19 20  1  0  0  0  0
 19 44  1  0  0  0  0
 19 45  1  0  0  0  0
 20 21  1  0  0  0  0
 20 46  1  0  0  0  0
 21 47  1  0  0  0  0
 21 48  1  0  0  0  0
 21 49  1  0  0  0  0
M  CHG  1  15   1
M  END
> <s_m_source_file>
AV-unprocessed.smi

> <i_m_source_file_index>
564

> <i_lp_mmshare_version>
43012

> <i_f3d_flags>
0

> <s_epik_input>
W0NIM11jMW5uKFtDSDNdKWMoW0NIM10pYzFbQ0gyXUMoPU8pW05IXVtDSDJdW0NIMl1OMltDSDJdW0NIMl1bQ0gyXVtDSDJdW0NASF0yW0NIM10=

> <s_epik_cmdline>
J2VwaWtfcHl0aG9uJywgJy1waCcsICc3LjAnLCAnLXRuJywgJzgnLCAnLW1hJywgJzIwMCcsICctbWV0YWxfYmluZGluZycsICctaW1hZScsICc8aW5maWxlLm1hZT4nLCAnLW9tYWUnLCAnPG91dGZpbGUubWFlPic=

> <r_lp_tautomer_probability>
1

> <r_epik_Ionization_Penalty>
0.00456826

> <r_epik_Ionization_Penalty_Charging>
0.00240401

> <r_epik_Ionization_Penalty_Neutral>
0.00216425

> <r_epik_State_Penalty>
-0

> <r_epik_Charging_Adjusted_Penalty>
0.00240401

> <i_epik_Tot_Q>
1

> <i_epik_Tot_abs_Q>
1

> <r_epik_Metal_State_Penalty>
-0

> <b_epik_Metal_Only>
0

> <s_lp_Force_Field>
OPLS_2005

> <r_lp_Energy>
16.0318

> <b_lp_Chiralities_Consistent>
1

> <s_lp_Variant>
AV-unprocessed.smi:564-2

> <Gold.Version>
5.8.1

> <Gold.Id.Protein>
6NUR|6NUR_protein|mol2

> <Gold.PLP.Fitness>
57.7435

> <Gold.PLP.PLP>
-49.6434

> <Gold.PLP.part.hbond>
-2.0000

> <Gold.PLP.part.metal>
0.0000

> <Gold.PLP.part.buried>
-8.1766

> <Gold.PLP.part.nonpolar>
-38.9547

> <Gold.PLP.part.repulsive>
0.4019

> <Gold.PLP.ligand.clash>
0.0000

> <Gold.PLP.ligand.torsion>
0.4891

> <Gold.PLP.Chemscore.Hbond>
3.0000

> <Gold.PLP.Chemscore.CHOScore>
0.0000

> <Gold.PLP.Chemscore.Metal>
0.0000

> <Gold.Chemscore.Hbonds>
donor molecule, donor type, donor heavy atom, donor atom, acceptor molecule, acceptor atom, score
      L1  H    12    33       P1  8028  1.00
      L1  H    15    50       P1  8028  2.00

> <Gold.PLP.Chemscore.Internal.Correction>
0.0782

> <Gold.Rescore>
     Score         DG    S(hbond)    S(metal)    S(lipo)     H(rot)  DE(clash)    DE(int)     intcor
     20.17     -20.74       1.90        0.00     111.60       1.61       0.03       0.55       ----

> <Gold.Chemscore.Fitness>
20.1662

> <Gold.Chemscore.DG>
-20.7414

> <Gold.Chemscore.ZeroCoef>
-5.4800

> <Gold.Chemscore.Hbond>
1.8971

> <Gold.Chemscore.Metal>
0.0000

> <Gold.Chemscore.Lipo>
111.6032

> <Gold.Chemscore.Internal_Hbond>
0.0000

> <Gold.Chemscore.DEClash>
0.0285

> <Gold.Chemscore.DEInternal>
0.5467

> <Gold.Chemscore.Rot>
1.6142

> <Gold.Chemscore.Internal.Correction>
   9.000000E+99

> <Gold.Chemscore.Hbonds>
donor molecule, donor type, donor heavy atom, donor atom, acceptor molecule, acceptor atom, score
      L1  H    12    33       P1  8028  0.98
      L1  H    15    50       P1  8028  0.82

> <Gold.Chemscore.Hbond.Weighted>
-6.3362

> <Gold.Chemscore.Metal.Weighted>
-0.0000

> <Gold.Chemscore.Lipo.Weighted>
-13.0576

> <Gold.Chemscore.Internal_Hbond.Weighted>
0.0000

> <Gold.Chemscore.DEClash.Weighted>
0.0285

> <Gold.Chemscore.DEInternal.Weighted>
0.5467

> <Gold.Chemscore.Rot.Weighted>
4.1324

> <Gold.Chemscore.Internal.Correction.Weighted>
   9.000000E+99

> <Gold.Protein.RotatedTorsions>
[ 6907 6896 6895 6894 ] final -103.47 input  -60.11 | X-H torsion
[ 7974 7965 7964 7962 ] final  -45.63 input  175.53 | X-H torsion
[ 8008 7997 7996 7995 ] final -156.96 input   59.86 | X-H torsion
[ 10167 10162 10161 10158 ] final   19.62 input  -65.29 | X-H torsion
[ 10718 10713 10712 10709 ] final   47.70 input   66.30 | X-H torsion
[ 10763 10752 10751 10750 ] final -164.57 input  -60.55 | X-H torsion
[ 11005 11000 10999 10996 ] final  -53.89 input  -57.11 | X-H torsion

> <Gold.Protein.ActiveResidues>
 VAL166  LYS551  ARG553  GLY616  TRP617  ASP618  TYR619  PRO620  LYS621  CYS622 
 ASP623  PHE694  ASN695  SER759  ASP760  ASP761  ALA762  ILE779  LEU786  VAL792 
 PHE793  MET794  SER795  GLU796  ALA797  LYS798  CYS799  TRP800  GLU811  SER814 

> <Gold.Protein.RotatedAtoms>
  150.7242  134.0424  159.3770 H   0  0  0  0  0  0  0  0  0  0  0  0  # atno 6907 bound_to 6896
  151.8398  135.0591  160.0456 H   0  0  0  0  0  0  0  0  0  0  0  0  # atno 6908 bound_to 6896
  152.2871  133.5489  159.5570 H   0  0  0  0  0  0  0  0  0  0  0  0  # atno 6909 bound_to 6896
  145.9801  140.7293  142.9368 H   0  0  0  0  0  0  0  0  0  0  0  0  # atno 7974 bound_to 7965
  155.7252  140.0795  157.2313 H   0  0  0  0  0  0  0  0  0  0  0  0  # atno 8008 bound_to 7997
  154.4040  140.1605  156.2501 H   0  0  0  0  0  0  0  0  0  0  0  0  # atno 8009 bound_to 7997
  155.9160  140.3401  155.6138 H   0  0  0  0  0  0  0  0  0  0  0  0  # atno 8010 bound_to 7997
  140.5565  143.9414  150.6613 H   0  0  0  0  0  0  0  0  0  0  0  0  # atno 10167 bound_to 10162
  157.4611  130.8197  149.7888 H   0  0  0  0  0  0  0  0  0  0  0  0  # atno 10718 bound_to 10713
  154.7015  135.2989  154.9333 H   0  0  0  0  0  0  0  0  0  0  0  0  # atno 10763 bound_to 10752
  154.0264  135.6676  153.4781 H   0  0  0  0  0  0  0  0  0  0  0  0  # atno 10764 bound_to 10752
  153.0685  135.5074  154.8162 H   0  0  0  0  0  0  0  0  0  0  0  0  # atno 10765 bound_to 10752
  141.0999  133.6619  156.4239 H   0  0  0  0  0  0  0  0  0  0  0  0  # atno 11005 bound_to 11000
  144.6859  140.2893  143.7280 LP  0  0  0  0  0  0  0  0  0  0  0  0  # atno 17320 bound_to 7965
  145.7782  139.1882  143.2173 LP  0  0  0  0  0  0  0  0  0  0  0  0  # atno 17321 bound_to 7965
  140.2854  143.3360  152.1112 LP  0  0  0  0  0  0  0  0  0  0  0  0  # atno 17342 bound_to 10162
  139.5050  144.6787  151.6063 LP  0  0  0  0  0  0  0  0  0  0  0  0  # atno 17343 bound_to 10162
  156.0029  130.3870  150.2537 LP  0  0  0  0  0  0  0  0  0  0  0  0  # atno 17370 bound_to 10713
  157.0715  131.0118  151.3188 LP  0  0  0  0  0  0  0  0  0  0  0  0  # atno 17371 bound_to 10713
  140.5049  134.6450  157.5262 LP  0  0  0  0  0  0  0  0  0  0  0  0  # atno 17394 bound_to 11000
  139.9847  134.7081  155.9796 LP  0  0  0  0  0  0  0  0  0  0  0  0  # atno 17395 bound_to 11000

$$$$
