AV-unprocessed.smi:2801|AV-procd|sdf|10799|dock5
  -GOLD-   2272015233D 1   1.00000     0.00000
 Structure written by MMmdl.
 32 32  0  0  0  0  0  0  0  0  1 V2000
  148.5423  140.6504  154.4602 C   0  0  0  0  0  0  0  0  0  0  0  0
  149.5601  140.1463  155.4856 C   0  0  0  0  0  0  0  0  0  0  0  0
  150.8653  140.2859  154.9377 O   0  0  0  0  0  0  0  0  0  0  0  0
  151.8875  139.5385  155.5936 C   0  0  2  0  0  0  0  0  0  0  0  0
  151.3664  138.1034  155.7988 C   0  0  0  0  0  0  0  0  0  0  0  0
  150.9667  137.4225  154.4838 C   0  0  0  0  0  0  0  0  0  0  0  0
  152.2440  140.1970  156.9367 C   0  0  0  0  0  0  0  0  0  0  0  0
  152.9495  139.5892  157.7411 O   0  0  0  0  0  0  0  0  0  0  0  0
  151.7111  141.4152  157.1470 N   0  0  0  0  0  0  0  0  0  0  0  0
  151.8475  142.2816  158.2684 C   0  0  0  0  0  0  0  0  0  0  0  0
  152.2293  141.8493  159.5620 C   0  0  0  0  0  0  0  0  0  0  0  0
  152.3482  142.8066  160.5889 C   0  0  0  0  0  0  0  0  0  0  0  0
  152.1241  144.1247  160.4077 N   0  0  0  0  0  0  0  0  0  0  0  0
  151.7732  144.5373  159.1724 C   0  0  0  0  0  0  0  0  0  0  0  0
  151.6255  143.6650  158.0743 C   0  0  0  0  0  0  0  0  0  0  0  0
  151.2724  144.1649  156.8521 O   0  0  0  0  0  0  0  0  0  0  0  0
  147.5262  140.5641  154.8452 H   0  0  0  0  0  0  0  0  0  0  0  0
  148.5995  140.0743  153.5364 H   0  0  0  0  0  0  0  0  0  0  0  0
  148.7202  141.6975  154.2144 H   0  0  0  0  0  0  0  0  0  0  0  0
  149.4767  140.7271  156.4053 H   0  0  0  0  0  0  0  0  0  0  0  0
  149.3439  139.1061  155.7313 H   0  0  0  0  0  0  0  0  0  0  0  0
  152.7752  139.4980  154.9590 H   0  0  0  0  0  0  0  0  0  0  0  0
  152.1348  137.4982  156.2822 H   0  0  0  0  0  0  0  0  0  0  0  0
  150.5108  138.1092  156.4756 H   0  0  0  0  0  0  0  0  0  0  0  0
  150.6147  136.4067  154.6639 H   0  0  0  0  0  0  0  0  0  0  0  0
  151.8116  137.3644  153.7971 H   0  0  0  0  0  0  0  0  0  0  0  0
  150.1653  137.9674  153.9842 H   0  0  0  0  0  0  0  0  0  0  0  0
  151.0871  141.7497  156.4270 H   0  0  0  0  0  0  0  0  0  0  0  0
  152.4449  140.8171  159.7877 H   0  0  0  0  0  0  0  0  0  0  0  0
  152.6379  142.5044  161.5843 H   0  0  0  0  0  0  0  0  0  0  0  0
  151.6079  145.5982  159.0553 H   0  0  0  0  0  0  0  0  0  0  0  0
  150.3378  144.2631  156.7502 H   0  0  0  0  0  0  0  0  0  0  0  0
  1  2  1  0  0  0  0
  1 17  1  0  0  0  0
  1 18  1  0  0  0  0
  1 19  1  0  0  0  0
  2  3  1  0  0  0  0
  2 20  1  0  0  0  0
  2 21  1  0  0  0  0
  3  4  1  0  0  0  0
  4  5  1  0  0  0  0
  4  7  1  0  0  0  0
  4 22  1  0  0  0  0
  5  6  1  0  0  0  0
  5 23  1  0  0  0  0
  5 24  1  0  0  0  0
  6 25  1  0  0  0  0
  6 26  1  0  0  0  0
  6 27  1  0  0  0  0
  7  8  2  0  0  0  0
  7  9  1  0  0  0  0
  9 10  1  0  0  0  0
  9 28  1  0  0  0  0
 10 15  1  0  0  0  0
 10 11  2  0  0  0  0
 11 12  1  0  0  0  0
 11 29  1  0  0  0  0
 12 13  2  0  0  0  0
 12 30  1  0  0  0  0
 13 14  1  0  0  0  0
 14 15  2  0  0  0  0
 14 31  1  0  0  0  0
 15 16  1  0  0  0  0
 16 32  1  0  0  0  0
M  END
> <s_m_source_file>
AV-unprocessed.smi

> <i_m_source_file_index>
2801

> <i_lp_mmshare_version>
43012

> <i_f3d_flags>
0

> <s_epik_input>
W0NIM11bQ0gyXU9bQ0BIXShbQ0gyXVtDSDNdKUMoPU8pW05IXWMxW2NIXVtjSF1uW2NIXWMxW09IXQ==

> <s_epik_cmdline>
J2VwaWtfcHl0aG9uJywgJy1waCcsICc3LjAnLCAnLXRuJywgJzgnLCAnLW1hJywgJzIwMCcsICctbWV0YWxfYmluZGluZycsICctaW1hZScsICc8aW5maWxlLm1hZT4nLCAnLW9tYWUnLCAnPG91dGZpbGUubWFlPic=

> <r_lp_tautomer_probability>
0.43658

> <r_epik_Ionization_Penalty>
0.0250035

> <r_epik_Ionization_Penalty_Charging>
0

> <r_epik_Ionization_Penalty_Neutral>
0.0250035

> <r_epik_State_Penalty>
0.520524

> <r_epik_Charging_Adjusted_Penalty>
0.520524

> <i_epik_Tot_Q>
0

> <i_epik_Tot_abs_Q>
0

> <r_epik_Metal_State_Penalty>
0.772586

> <b_epik_Metal_Only>
0

> <s_lp_Force_Field>
OPLS_2005

> <r_lp_Energy>
11.8743

> <b_lp_Chiralities_Consistent>
1

> <s_lp_Variant>
AV-unprocessed.smi:2801-3

> <Gold.Version>
5.8.1

> <Gold.Id.Protein>
6NUR|6NUR_protein|mol2

> <Gold.PLP.Fitness>
39.7323

> <Gold.PLP.PLP>
-31.9706

> <Gold.PLP.part.hbond>
-3.0000

> <Gold.PLP.part.metal>
0.0000

> <Gold.PLP.part.buried>
-2.7347

> <Gold.PLP.part.nonpolar>
-26.2363

> <Gold.PLP.part.repulsive>
0.2435

> <Gold.PLP.ligand.clash>
0.2030

> <Gold.PLP.ligand.torsion>
0.4638

> <Gold.PLP.Chemscore.Hbond>
2.9600

> <Gold.PLP.Chemscore.CHOScore>
0.0000

> <Gold.PLP.Chemscore.Metal>
0.0000

> <Gold.Chemscore.Hbonds>
donor molecule, donor type, donor heavy atom, donor atom, acceptor molecule, acceptor atom, score
      L1  H    16    32       P1  8028  0.96
      P1  H  7989  7998       L1     3  1.00
      P1  H  7997  8010       L1     8  0.98

> <Gold.PLP.Chemscore.Internal.Correction>
0.0123

> <Gold.Rescore>
     Score         DG    S(hbond)    S(metal)    S(lipo)     H(rot)  DE(clash)    DE(int)     intcor
     14.45     -17.15       2.09        0.00      86.27       2.11       0.13       2.57       ----

> <Gold.Chemscore.Fitness>
14.4456

> <Gold.Chemscore.DG>
-17.1486

> <Gold.Chemscore.ZeroCoef>
-5.4800

> <Gold.Chemscore.Hbond>
2.0910

> <Gold.Chemscore.Metal>
0.0000

> <Gold.Chemscore.Lipo>
86.2686

> <Gold.Chemscore.Internal_Hbond>
0.0000

> <Gold.Chemscore.DEClash>
0.1287

> <Gold.Chemscore.DEInternal>
2.5742

> <Gold.Chemscore.Rot>
2.1129

> <Gold.Chemscore.Internal.Correction>
   9.000000E+99

> <Gold.Chemscore.Hbonds>
donor molecule, donor type, donor heavy atom, donor atom, acceptor molecule, acceptor atom, score
      L1  H    16    32       P1  8028  0.90
      P1  H  7989  7998       L1     3  0.45
      P1  H  7997  8010       L1     8  0.28

> <Gold.Chemscore.Hbond.Weighted>
-6.9841

> <Gold.Chemscore.Metal.Weighted>
-0.0000

> <Gold.Chemscore.Lipo.Weighted>
-10.0934

> <Gold.Chemscore.Internal_Hbond.Weighted>
0.0000

> <Gold.Chemscore.DEClash.Weighted>
0.1287

> <Gold.Chemscore.DEInternal.Weighted>
2.5742

> <Gold.Chemscore.Rot.Weighted>
5.4089

> <Gold.Chemscore.Internal.Correction.Weighted>
   9.000000E+99

> <Gold.Protein.RotatedTorsions>
[ 6907 6896 6895 6894 ] final  -44.20 input  -60.11 | X-H torsion
[ 7974 7965 7964 7962 ] final   70.83 input  175.53 | X-H torsion
[ 8008 7997 7996 7995 ] final   25.71 input   59.86 | X-H torsion
[ 10167 10162 10161 10158 ] final   41.76 input  -65.29 | X-H torsion
[ 10718 10713 10712 10709 ] final -176.44 input   66.30 | X-H torsion
[ 10763 10752 10751 10750 ] final  -13.78 input  -60.55 | X-H torsion
[ 11005 11000 10999 10996 ] final -138.40 input  -57.11 | X-H torsion

> <Gold.Protein.ActiveResidues>
 VAL166  LYS551  ARG553  GLY616  TRP617  ASP618  TYR619  PRO620  LYS621  CYS622 
 ASP623  PHE694  ASN695  SER759  ASP760  ASP761  ALA762  ILE779  LEU786  VAL792 
 PHE793  MET794  SER795  GLU796  ALA797  LYS798  CYS799  TRP800  GLU811  SER814 

> <Gold.Protein.RotatedAtoms>
  150.9354  134.8767  159.7578 H   0  0  0  0  0  0  0  0  0  0  0  0  # atno 6907 bound_to 6896
  152.5057  134.4018  159.9429 H   0  0  0  0  0  0  0  0  0  0  0  0  # atno 6908 bound_to 6896
  151.4042  133.3708  159.2771 H   0  0  0  0  0  0  0  0  0  0  0  0  # atno 6909 bound_to 6896
  145.7733  139.2853  143.1308 H   0  0  0  0  0  0  0  0  0  0  0  0  # atno 7974 bound_to 7965
  155.0160  140.3142  155.4811 H   0  0  0  0  0  0  0  0  0  0  0  0  # atno 8008 bound_to 7997
  156.2900  140.2206  156.5218 H   0  0  0  0  0  0  0  0  0  0  0  0  # atno 8009 bound_to 7997
  154.7493  140.0467  157.0867 H   0  0  0  0  0  0  0  0  0  0  0  0  # atno 8010 bound_to 7997
  140.3612  144.2226  150.6138 H   0  0  0  0  0  0  0  0  0  0  0  0  # atno 10167 bound_to 10162
  156.8147  130.9599  151.3114 H   0  0  0  0  0  0  0  0  0  0  0  0  # atno 10718 bound_to 10713
  153.5184  135.7016  153.5744 H   0  0  0  0  0  0  0  0  0  0  0  0  # atno 10763 bound_to 10752
  153.3804  135.3921  155.1852 H   0  0  0  0  0  0  0  0  0  0  0  0  # atno 10764 bound_to 10752
  154.8697  135.3833  154.4671 H   0  0  0  0  0  0  0  0  0  0  0  0  # atno 10765 bound_to 10752
  140.8620  134.2157  157.4702 H   0  0  0  0  0  0  0  0  0  0  0  0  # atno 11005 bound_to 11000
  146.0148  140.8402  142.9953 LP  0  0  0  0  0  0  0  0  0  0  0  0  # atno 17320 bound_to 7965
  144.6809  140.2543  143.7327 LP  0  0  0  0  0  0  0  0  0  0  0  0  # atno 17321 bound_to 7965
  140.5125  143.2287  151.8513 LP  0  0  0  0  0  0  0  0  0  0  0  0  # atno 17342 bound_to 10162
  139.4814  144.4932  151.9157 LP  0  0  0  0  0  0  0  0  0  0  0  0  # atno 17343 bound_to 10162
  157.6488  130.8866  149.9591 LP  0  0  0  0  0  0  0  0  0  0  0  0  # atno 17370 bound_to 10713
  156.1023  130.3655  150.0195 LP  0  0  0  0  0  0  0  0  0  0  0  0  # atno 17371 bound_to 10713
  139.8707  134.9734  156.4807 LP  0  0  0  0  0  0  0  0  0  0  0  0  # atno 17394 bound_to 11000
  140.8672  133.8015  155.9326 LP  0  0  0  0  0  0  0  0  0  0  0  0  # atno 17395 bound_to 11000

$$$$
