AV-unprocessed.smi:677|AV-procd|sdf|3312|dock10
  -GOLD-   22720 0273D 1   1.00000     0.00000
 Structure written by MMmdl.
 44 45  0  0  0  0  0  0  0  0  2 V2000
  143.4402  132.2226  148.5464 C   0  0  0  0  0  0  0  0  0  0  0  0
  144.1470  132.9287  149.6840 C   0  0  0  0  0  0  0  0  0  0  0  0
  145.5093  132.7081  149.9804 C   0  0  0  0  0  0  0  0  0  0  0  0
  146.1012  133.4017  151.0564 C   0  0  0  0  0  0  0  0  0  0  0  0
  145.3199  134.3018  151.8146 C   0  0  0  0  0  0  0  0  0  0  0  0
  145.9246  135.0570  152.9843 C   0  0  0  0  0  0  0  0  0  0  0  0
  145.5829  136.5433  152.8798 C   0  0  0  0  0  0  0  0  0  0  0  0
  144.4097  136.9083  152.9539 O   0  0  0  0  0  0  0  0  0  0  0  0
  146.6159  137.3873  152.7324 N   0  0  0  0  0  0  0  0  0  0  0  0
  146.5162  138.8416  152.6524 C   0  0  0  0  0  0  0  0  0  0  0  0
  147.3200  139.5451  153.7657 C   0  0  0  0  0  0  0  0  0  0  0  0
  147.5591  141.0437  153.4964 C   0  0  0  0  0  0  0  0  0  0  0  0
  148.4395  141.6755  154.5893 C   0  0  0  0  0  0  0  0  0  0  0  0
  149.7265  140.9852  154.6740 N   0  0  0  0  0  0  0  0  0  0  0  0
  150.5537  141.6538  155.6730 C   0  0  0  0  0  0  0  0  0  0  0  0
  151.7628  140.8852  156.0139 C   0  0  0  0  0  0  0  0  0  0  0  0
  152.7126  140.2807  156.2815 N   0  0  0  0  0  0  0  0  0  0  0  0
  149.5111  139.5866  155.0517 C   0  0  0  0  0  0  0  0  0  0  0  0
  148.6841  138.8665  153.9728 C   0  0  0  0  0  0  0  0  0  0  0  0
  143.9623  134.4817  151.4712 C   0  0  0  0  0  0  0  0  0  0  0  0
  143.4328  133.7978  150.4336 N   0  3  0  0  0  0  0  0  0  0  0  0
  144.1182  131.5525  148.0171 H   0  0  0  0  0  0  0  0  0  0  0  0
  143.0520  132.9486  147.8314 H   0  0  0  0  0  0  0  0  0  0  0  0
  142.6058  131.6323  148.9264 H   0  0  0  0  0  0  0  0  0  0  0  0
  146.0955  132.0162  149.3932 H   0  0  0  0  0  0  0  0  0  0  0  0
  147.1420  133.2409  151.2973 H   0  0  0  0  0  0  0  0  0  0  0  0
  145.5594  134.6415  153.9251 H   0  0  0  0  0  0  0  0  0  0  0  0
  147.0085  134.9355  152.9850 H   0  0  0  0  0  0  0  0  0  0  0  0
  147.5446  136.9943  152.6778 H   0  0  0  0  0  0  0  0  0  0  0  0
  146.9050  139.1398  151.6783 H   0  0  0  0  0  0  0  0  0  0  0  0
  145.4744  139.1664  152.6717 H   0  0  0  0  0  0  0  0  0  0  0  0
  146.7575  139.4548  154.6964 H   0  0  0  0  0  0  0  0  0  0  0  0
  148.0325  141.1765  152.5225 H   0  0  0  0  0  0  0  0  0  0  0  0
  146.6105  141.5791  153.4542 H   0  0  0  0  0  0  0  0  0  0  0  0
  148.6080  142.7269  154.3540 H   0  0  0  0  0  0  0  0  0  0  0  0
  147.9315  141.6414  155.5545 H   0  0  0  0  0  0  0  0  0  0  0  0
  150.8916  142.6174  155.2901 H   0  0  0  0  0  0  0  0  0  0  0  0
  149.9890  141.8434  156.5870 H   0  0  0  0  0  0  0  0  0  0  0  0
  150.4700  139.0799  155.1619 H   0  0  0  0  0  0  0  0  0  0  0  0
  149.0076  139.5307  156.0182 H   0  0  0  0  0  0  0  0  0  0  0  0
  148.5421  137.8237  154.2583 H   0  0  0  0  0  0  0  0  0  0  0  0
  149.2418  138.8560  153.0349 H   0  0  0  0  0  0  0  0  0  0  0  0
  143.2869  135.1424  151.9952 H   0  0  0  0  0  0  0  0  0  0  0  0
  142.4487  133.9426  150.2069 H   0  0  0  0  0  0  0  0  0  0  0  0
  1  2  1  0  0  0  0
  1 22  1  0  0  0  0
  1 23  1  0  0  0  0
  1 24  1  0  0  0  0
  2 21  1  0  0  0  0
  2  3  2  0  0  0  0
  3  4  1  0  0  0  0
  3 25  1  0  0  0  0
  4  5  2  0  0  0  0
  4 26  1  0  0  0  0
  5  6  1  0  0  0  0
  5 20  1  0  0  0  0
  6  7  1  0  0  0  0
  6 27  1  0  0  0  0
  6 28  1  0  0  0  0
  7  8  2  0  0  0  0
  7  9  1  0  0  0  0
  9 10  1  0  0  0  0
  9 29  1  0  0  0  0
 10 11  1  0  0  0  0
 10 30  1  0  0  0  0
 10 31  1  0  0  0  0
 11 19  1  0  0  0  0
 11 12  1  0  0  0  0
 11 32  1  0  0  0  0
 12 13  1  0  0  0  0
 12 33  1  0  0  0  0
 12 34  1  0  0  0  0
 13 14  1  0  0  0  0
 13 35  1  0  0  0  0
 13 36  1  0  0  0  0
 14 15  1  0  0  0  0
 14 18  1  0  0  0  0
 15 16  1  0  0  0  0
 15 37  1  0  0  0  0
 15 38  1  0  0  0  0
 16 17  3  0  0  0  0
 18 19  1  0  0  0  0
 18 39  1  0  0  0  0
 18 40  1  0  0  0  0
 19 41  1  0  0  0  0
 19 42  1  0  0  0  0
 20 21  2  0  0  0  0
 20 43  1  0  0  0  0
 21 44  1  0  0  0  0
M  CHG  1  21   1
M  END
> <s_m_source_file>
AV-unprocessed.smi

> <i_m_source_file_index>
677

> <i_lp_mmshare_version>
43012

> <i_f3d_flags>
0

> <s_epik_input>
W0NIM11jMVtjSF1bY0hdYyhbY0hdbjEpW0NIMl1DKD1PKVtOSF1bQ0gyXVtDSF0yW0NIMl1bQ0gyXU4oW0NIMl1DI04pW0NIMl1bQ0gyXTI=

> <s_epik_cmdline>
J2VwaWtfcHl0aG9uJywgJy1waCcsICc3LjAnLCAnLXRuJywgJzgnLCAnLW1hJywgJzIwMCcsICctbWV0YWxfYmluZGluZycsICctaW1hZScsICc8aW5maWxlLm1hZT4nLCAnLW9tYWUnLCAnPG91dGZpbGUubWFlPic=

> <r_epik_Ionization_Penalty>
2.12868

> <r_epik_Ionization_Penalty_Charging>
2.12771

> <r_epik_Ionization_Penalty_Neutral>
0.000970756

> <r_epik_State_Penalty>
2.26584

> <r_epik_Charging_Adjusted_Penalty>
4.39355

> <i_epik_Tot_Q>
1

> <i_epik_Tot_abs_Q>
1

> <r_epik_Metal_State_Penalty>
2.28211

> <b_epik_Metal_Only>
0

> <s_lp_Force_Field>
OPLS_2005

> <r_lp_Energy>
22.0212

> <b_lp_Chiralities_Consistent>
1

> <s_lp_Variant>
AV-unprocessed.smi:677-2

> <Gold.Version>
5.8.1

> <Gold.Id.Protein>
6NUR|6NUR_protein|mol2

> <Gold.PLP.Fitness>
49.6512

> <Gold.PLP.PLP>
-38.0155

> <Gold.PLP.part.hbond>
-3.9876

> <Gold.PLP.part.metal>
0.0000

> <Gold.PLP.part.buried>
-1.7665

> <Gold.PLP.part.nonpolar>
-32.4280

> <Gold.PLP.part.repulsive>
0.3792

> <Gold.PLP.ligand.clash>
0.0000

> <Gold.PLP.ligand.torsion>
0.3250

> <Gold.PLP.Chemscore.Hbond>
4.0903

> <Gold.PLP.Chemscore.CHOScore>
0.0000

> <Gold.PLP.Chemscore.Metal>
0.0000

> <Gold.Chemscore.Hbonds>
donor molecule, donor type, donor heavy atom, donor atom, acceptor molecule, acceptor atom, score
      L1  H     9    29       P1  7948  1.00
      L1  H    21    44       P1 10186  2.00
      P1  H  7989  7998       L1    14  0.06
      P1  H  7997  8008       L1    17  1.00

> <Gold.PLP.Chemscore.Internal.Correction>
0.0147

> <Gold.Rescore>
     Score         DG    S(hbond)    S(metal)    S(lipo)     H(rot)  DE(clash)    DE(int)     intcor
     19.72     -22.37       2.88        0.00     102.75       1.86       1.32       1.32       ----

> <Gold.Chemscore.Fitness>
19.7212

> <Gold.Chemscore.DG>
-22.3666

> <Gold.Chemscore.ZeroCoef>
-5.4800

> <Gold.Chemscore.Hbond>
2.8819

> <Gold.Chemscore.Metal>
0.0000

> <Gold.Chemscore.Lipo>
102.7466

> <Gold.Chemscore.Internal_Hbond>
0.0000

> <Gold.Chemscore.DEClash>
1.3249

> <Gold.Chemscore.DEInternal>
1.3205

> <Gold.Chemscore.Rot>
1.8595

> <Gold.Chemscore.Internal.Correction>
   9.000000E+99

> <Gold.Chemscore.Hbonds>
donor molecule, donor type, donor heavy atom, donor atom, acceptor molecule, acceptor atom, score
      L1  H     9    29       P1  7948  0.98
      L1  H    21    44       P1 10186  0.97
      P1  H  7997  8008       L1    17  0.96

> <Gold.Chemscore.Hbond.Weighted>
-9.6255

> <Gold.Chemscore.Metal.Weighted>
-0.0000

> <Gold.Chemscore.Lipo.Weighted>
-12.0214

> <Gold.Chemscore.Internal_Hbond.Weighted>
0.0000

> <Gold.Chemscore.DEClash.Weighted>
1.3249

> <Gold.Chemscore.DEInternal.Weighted>
1.3205

> <Gold.Chemscore.Rot.Weighted>
4.7603

> <Gold.Chemscore.Internal.Correction.Weighted>
   9.000000E+99

> <Gold.Protein.RotatedTorsions>
[ 6907 6896 6895 6894 ] final  -91.18 input  -60.11 | X-H torsion
[ 7974 7965 7964 7962 ] final  103.71 input  175.53 | X-H torsion
[ 8008 7997 7996 7995 ] final  -42.94 input   59.86 | X-H torsion
[ 10167 10162 10161 10158 ] final -161.62 input  -65.29 | X-H torsion
[ 10718 10713 10712 10709 ] final  -95.24 input   66.30 | X-H torsion
[ 10763 10752 10751 10750 ] final   14.16 input  -60.55 | X-H torsion
[ 11005 11000 10999 10996 ] final  -44.38 input  -57.11 | X-H torsion

> <Gold.Protein.ActiveResidues>
 VAL166  LYS551  ARG553  GLY616  TRP617  ASP618  TYR619  PRO620  LYS621  CYS622 
 ASP623  PHE694  ASN695  SER759  ASP760  ASP761  ALA762  ILE779  LEU786  VAL792 
 PHE793  MET794  SER795  GLU796  ALA797  LYS798  CYS799  TRP800  GLU811  SER814 

> <Gold.Protein.RotatedAtoms>
  150.6889  134.2316  159.4436 H   0  0  0  0  0  0  0  0  0  0  0  0  # atno 6907 bound_to 6896
  152.0266  134.9789  160.0581 H   0  0  0  0  0  0  0  0  0  0  0  0  # atno 6908 bound_to 6896
  152.1345  133.4392  159.4774 H   0  0  0  0  0  0  0  0  0  0  0  0  # atno 6909 bound_to 6896
  145.3423  139.2459  143.3603 H   0  0  0  0  0  0  0  0  0  0  0  0  # atno 7974 bound_to 7965
  154.3997  140.1460  156.3438 H   0  0  0  0  0  0  0  0  0  0  0  0  # atno 8008 bound_to 7997
  155.8332  140.3465  155.5564 H   0  0  0  0  0  0  0  0  0  0  0  0  # atno 8009 bound_to 7997
  155.8166  140.0892  157.1864 H   0  0  0  0  0  0  0  0  0  0  0  0  # atno 8010 bound_to 7997
  139.6452  144.0186  152.2121 H   0  0  0  0  0  0  0  0  0  0  0  0  # atno 10167 bound_to 10162
  156.0040  130.5101  150.6047 H   0  0  0  0  0  0  0  0  0  0  0  0  # atno 10718 bound_to 10713
  153.1649  135.6802  153.8690 H   0  0  0  0  0  0  0  0  0  0  0  0  # atno 10763 bound_to 10752
  153.8073  135.3147  155.3398 H   0  0  0  0  0  0  0  0  0  0  0  0  # atno 10764 bound_to 10752
  154.7958  135.4808  154.0248 H   0  0  0  0  0  0  0  0  0  0  0  0  # atno 10765 bound_to 10752
  141.0447  133.6766  156.2865 H   0  0  0  0  0  0  0  0  0  0  0  0  # atno 11005 bound_to 11000
  146.3002  140.4023  142.8707 LP  0  0  0  0  0  0  0  0  0  0  0  0  # atno 17320 bound_to 7965
  144.8781  140.7363  143.6004 LP  0  0  0  0  0  0  0  0  0  0  0  0  # atno 17321 bound_to 7965
  139.9886  144.6378  150.7835 LP  0  0  0  0  0  0  0  0  0  0  0  0  # atno 17342 bound_to 10162
  140.7511  143.2966  151.3188 LP  0  0  0  0  0  0  0  0  0  0  0  0  # atno 17343 bound_to 10162
  157.3890  131.0793  151.1410 LP  0  0  0  0  0  0  0  0  0  0  0  0  # atno 17370 bound_to 10713
  157.2108  130.6437  149.5773 LP  0  0  0  0  0  0  0  0  0  0  0  0  # atno 17371 bound_to 10713
  140.6170  134.5401  157.5542 LP  0  0  0  0  0  0  0  0  0  0  0  0  # atno 17394 bound_to 11000
  139.9302  134.7978  156.0952 LP  0  0  0  0  0  0  0  0  0  0  0  0  # atno 17395 bound_to 11000

$$$$
