AV-unprocessed.smi:2215|AV-procd|sdf|8963|dock3
  -GOLD-   2272012183D 1   1.00000     0.00000
 Structure written by MMmdl.
 40 41  0  0  0  0  0  0  0  0  1 V2000
  153.6398  141.9134  161.0944 C   0  0  0  0  0  0  0  0  0  0  0  0
  152.7278  142.0877  159.8983 C   0  0  0  0  0  0  0  0  0  0  0  0
  151.9526  141.0174  159.4139 C   0  0  0  0  0  0  0  0  0  0  0  0
  151.1148  141.2345  158.3033 C   0  0  0  0  0  0  0  0  0  0  0  0
  151.0692  142.5140  157.7052 C   0  0  0  0  0  0  0  0  0  0  0  0
  150.1845  142.6295  156.6000 N   0  0  0  0  0  0  0  0  0  0  0  0
  149.7252  141.6540  155.7965 C   0  0  0  0  0  0  0  0  0  0  0  0
  149.9689  140.4534  155.9205 O   0  0  0  0  0  0  0  0  0  0  0  0
  148.9505  142.1533  154.8229 N   0  0  0  0  0  0  0  0  0  0  0  0
  148.2977  141.3636  153.7830 C   0  0  0  0  0  0  0  0  0  0  0  0
  147.5300  140.1449  154.3501 C   0  0  1  0  0  0  0  0  0  0  0  0
  146.3916  140.5890  155.2990 C   0  0  0  0  0  0  0  0  0  0  0  0
  145.5880  139.3976  155.8420 C   0  0  0  0  0  0  0  0  0  0  0  0
  145.0217  138.5458  154.6986 C   0  0  0  0  0  0  0  0  0  0  0  0
  146.1464  138.0688  153.7704 C   0  0  0  0  0  0  0  0  0  0  0  0
  146.9617  139.2528  153.2181 C   0  0  2  0  0  0  0  0  0  0  0  0
  148.0125  138.7209  152.4361 O   0  0  0  0  0  0  0  0  0  0  0  0
  151.8212  143.5389  158.1787 N   0  0  0  0  0  0  0  0  0  0  0  0
  152.6245  143.3299  159.2428 C   0  0  0  0  0  0  0  0  0  0  0  0
  153.9218  140.8677  161.2214 H   0  0  0  0  0  0  0  0  0  0  0  0
  153.1362  142.2468  162.0018 H   0  0  0  0  0  0  0  0  0  0  0  0
  154.5521  142.4979  160.9717 H   0  0  0  0  0  0  0  0  0  0  0  0
  151.9948  140.0458  159.8842 H   0  0  0  0  0  0  0  0  0  0  0  0
  150.5119  140.4241  157.9203 H   0  0  0  0  0  0  0  0  0  0  0  0
  149.8831  143.5678  156.3827 H   0  0  0  0  0  0  0  0  0  0  0  0
  148.8018  143.1513  154.7965 H   0  0  0  0  0  0  0  0  0  0  0  0
  147.6099  142.0183  153.2472 H   0  0  0  0  0  0  0  0  0  0  0  0
  149.0452  141.0482  153.0536 H   0  0  0  0  0  0  0  0  0  0  0  0
  148.2292  139.5407  154.9311 H   0  0  0  0  0  0  0  0  0  0  0  0
  146.7949  141.1527  156.1408 H   0  0  0  0  0  0  0  0  0  0  0  0
  145.7187  141.2657  154.7709 H   0  0  0  0  0  0  0  0  0  0  0  0
  146.2277  138.7825  156.4764 H   0  0  0  0  0  0  0  0  0  0  0  0
  144.7760  139.7555  156.4756 H   0  0  0  0  0  0  0  0  0  0  0  0
  144.4832  137.6882  155.1030 H   0  0  0  0  0  0  0  0  0  0  0  0
  144.2961  139.1282  154.1291 H   0  0  0  0  0  0  0  0  0  0  0  0
  146.8023  137.3921  154.3204 H   0  0  0  0  0  0  0  0  0  0  0  0
  145.7235  137.4891  152.9490 H   0  0  0  0  0  0  0  0  0  0  0  0
  146.3251  139.8532  152.5667 H   0  0  0  0  0  0  0  0  0  0  0  0
  148.5436  139.4353  152.1187 H   0  0  0  0  0  0  0  0  0  0  0  0
  153.1981  144.1804  159.5811 H   0  0  0  0  0  0  0  0  0  0  0  0
  1  2  1  0  0  0  0
  1 20  1  0  0  0  0
  1 21  1  0  0  0  0
  1 22  1  0  0  0  0
  2 19  1  0  0  0  0
  2  3  2  0  0  0  0
  3  4  1  0  0  0  0
  3 23  1  0  0  0  0
  4  5  2  0  0  0  0
  4 24  1  0  0  0  0
  5  6  1  0  0  0  0
  5 18  1  0  0  0  0
  6  7  1  0  0  0  0
  6 25  1  0  0  0  0
  7  8  2  0  0  0  0
  7  9  1  0  0  0  0
  9 10  1  0  0  0  0
  9 26  1  0  0  0  0
 10 11  1  0  0  0  0
 10 27  1  0  0  0  0
 10 28  1  0  0  0  0
 11 16  1  0  0  0  0
 11 12  1  0  0  0  0
 11 29  1  0  0  0  0
 12 13  1  0  0  0  0
 12 30  1  0  0  0  0
 12 31  1  0  0  0  0
 13 14  1  0  0  0  0
 13 32  1  0  0  0  0
 13 33  1  0  0  0  0
 14 15  1  0  0  0  0
 14 34  1  0  0  0  0
 14 35  1  0  0  0  0
 15 16  1  0  0  0  0
 15 36  1  0  0  0  0
 15 37  1  0  0  0  0
 16 17  1  0  0  0  0
 16 38  1  0  0  0  0
 17 39  1  0  0  0  0
 18 19  2  0  0  0  0
 19 40  1  0  0  0  0
M  END
> <s_m_source_file>
AV-unprocessed.smi

> <i_m_source_file_index>
2215

> <i_lp_mmshare_version>
43012

> <i_f3d_flags>
0

> <s_epik_input>
W0NIM11jMVtjSF1bY0hdYyhuW2NIXTEpW05IXUMoPU8pW05IXVtDSDJdW0NAQEhdMltDSDJdW0NIMl1bQ0gyXVtDSDJdW0NASF0yW09IXQ==

> <s_epik_cmdline>
J2VwaWtfcHl0aG9uJywgJy1waCcsICc3LjAnLCAnLXRuJywgJzgnLCAnLW1hJywgJzIwMCcsICctbWV0YWxfYmluZGluZycsICctaW1hZScsICc8aW5maWxlLm1hZT4nLCAnLW9tYWUnLCAnPG91dGZpbGUubWFlPic=

> <r_lp_tautomer_probability>
1

> <r_epik_Ionization_Penalty>
6.08491e-05

> <r_epik_Ionization_Penalty_Charging>
0

> <r_epik_Ionization_Penalty_Neutral>
6.08491e-05

> <r_epik_State_Penalty>
-0

> <r_epik_Charging_Adjusted_Penalty>
0

> <i_epik_Tot_Q>
0

> <i_epik_Tot_abs_Q>
0

> <r_epik_Metal_State_Penalty>
-0

> <b_epik_Metal_Only>
0

> <s_lp_Force_Field>
OPLS_2005

> <r_lp_Energy>
14.1492

> <b_lp_Chiralities_Consistent>
1

> <s_lp_Variant>
AV-unprocessed.smi:2215-4

> <Gold.Version>
5.8.1

> <Gold.Id.Protein>
6NUR|6NUR_protein|mol2

> <Gold.PLP.Fitness>
42.7263

> <Gold.PLP.PLP>
-34.0979

> <Gold.PLP.part.hbond>
-3.5777

> <Gold.PLP.part.metal>
0.0000

> <Gold.PLP.part.buried>
-4.3132

> <Gold.PLP.part.nonpolar>
-25.7837

> <Gold.PLP.part.repulsive>
0.3829

> <Gold.PLP.ligand.clash>
0.0000

> <Gold.PLP.ligand.torsion>
0.1757

> <Gold.PLP.Chemscore.Hbond>
2.9920

> <Gold.PLP.Chemscore.CHOScore>
0.0000

> <Gold.PLP.Chemscore.Metal>
0.0000

> <Gold.Chemscore.Hbonds>
donor molecule, donor type, donor heavy atom, donor atom, acceptor molecule, acceptor atom, score
      L1  H     6    25       P1  8028  1.00
      L1  H     9    26       P1  8028  0.99
      L1  H    17    39       P1  7957  1.00

> <Gold.PLP.Chemscore.Internal.Correction>
0.0038

> <Gold.Rescore>
     Score         DG    S(hbond)    S(metal)    S(lipo)     H(rot)  DE(clash)    DE(int)     intcor
     16.55     -19.39       2.89        0.00      74.42       1.73       0.02       2.83       ----

> <Gold.Chemscore.Fitness>
16.5481

> <Gold.Chemscore.DG>
-19.3939

> <Gold.Chemscore.ZeroCoef>
-5.4800

> <Gold.Chemscore.Hbond>
2.8877

> <Gold.Chemscore.Metal>
0.0000

> <Gold.Chemscore.Lipo>
74.4234

> <Gold.Chemscore.Internal_Hbond>
0.0000

> <Gold.Chemscore.DEClash>
0.0174

> <Gold.Chemscore.DEInternal>
2.8283

> <Gold.Chemscore.Rot>
1.7339

> <Gold.Chemscore.Internal.Correction>
   9.000000E+99

> <Gold.Chemscore.Hbonds>
donor molecule, donor type, donor heavy atom, donor atom, acceptor molecule, acceptor atom, score
      L1  H     6    25       P1  8028  0.98
      L1  H     9    26       P1  8028  0.93
      L1  H    17    39       P1  7957  0.90

> <Gold.Chemscore.Hbond.Weighted>
-9.6450

> <Gold.Chemscore.Metal.Weighted>
-0.0000

> <Gold.Chemscore.Lipo.Weighted>
-8.7075

> <Gold.Chemscore.Internal_Hbond.Weighted>
0.0000

> <Gold.Chemscore.DEClash.Weighted>
0.0174

> <Gold.Chemscore.DEInternal.Weighted>
2.8283

> <Gold.Chemscore.Rot.Weighted>
4.4387

> <Gold.Chemscore.Internal.Correction.Weighted>
   9.000000E+99

> <Gold.Protein.RotatedTorsions>
[ 6907 6896 6895 6894 ] final  137.53 input  -60.11 | X-H torsion
[ 7974 7965 7964 7962 ] final  134.26 input  175.53 | X-H torsion
[ 8008 7997 7996 7995 ] final  164.49 input   59.86 | X-H torsion
[ 10167 10162 10161 10158 ] final -114.29 input  -65.29 | X-H torsion
[ 10718 10713 10712 10709 ] final  120.86 input   66.30 | X-H torsion
[ 10763 10752 10751 10750 ] final  151.41 input  -60.55 | X-H torsion
[ 11005 11000 10999 10996 ] final   69.33 input  -57.11 | X-H torsion

> <Gold.Protein.ActiveResidues>
 VAL166  LYS551  ARG553  GLY616  TRP617  ASP618  TYR619  PRO620  LYS621  CYS622 
 ASP623  PHE694  ASN695  SER759  ASP760  ASP761  ALA762  ILE779  LEU786  VAL792 
 PHE793  MET794  SER795  GLU796  ALA797  LYS798  CYS799  TRP800  GLU811  SER814 

> <Gold.Protein.RotatedAtoms>
  152.2770  133.5434  159.5473 H   0  0  0  0  0  0  0  0  0  0  0  0  # atno 6907 bound_to 6896
  150.7181  134.0618  159.3843 H   0  0  0  0  0  0  0  0  0  0  0  0  # atno 6908 bound_to 6896
  151.8530  135.0551  160.0512 H   0  0  0  0  0  0  0  0  0  0  0  0  # atno 6909 bound_to 6896
  144.9781  139.4533  143.5400 H   0  0  0  0  0  0  0  0  0  0  0  0  # atno 7974 bound_to 7965
  156.1876  140.1695  156.8156 H   0  0  0  0  0  0  0  0  0  0  0  0  # atno 8008 bound_to 7997
  154.5432  140.0732  156.8577 H   0  0  0  0  0  0  0  0  0  0  0  0  # atno 8009 bound_to 7997
  155.3173  140.3371  155.4244 H   0  0  0  0  0  0  0  0  0  0  0  0  # atno 8010 bound_to 7997
  140.1026  143.4599  152.1802 H   0  0  0  0  0  0  0  0  0  0  0  0  # atno 10167 bound_to 10162
  157.5860  131.1070  150.8093 H   0  0  0  0  0  0  0  0  0  0  0  0  # atno 10718 bound_to 10713
  154.1033  135.2844  155.3247 H   0  0  0  0  0  0  0  0  0  0  0  0  # atno 10763 bound_to 10752
  154.6540  135.5358  153.7939 H   0  0  0  0  0  0  0  0  0  0  0  0  # atno 10764 bound_to 10752
  153.0371  135.6517  154.1196 H   0  0  0  0  0  0  0  0  0  0  0  0  # atno 10765 bound_to 10752
  139.9660  134.6981  156.0545 H   0  0  0  0  0  0  0  0  0  0  0  0  # atno 11005 bound_to 11000
  146.3401  139.9036  142.8790 LP  0  0  0  0  0  0  0  0  0  0  0  0  # atno 17320 bound_to 7965
  145.2460  141.0027  143.3908 LP  0  0  0  0  0  0  0  0  0  0  0  0  # atno 17321 bound_to 7965
  139.5663  144.7437  151.4014 LP  0  0  0  0  0  0  0  0  0  0  0  0  # atno 17342 bound_to 10162
  140.6969  143.7726  150.7341 LP  0  0  0  0  0  0  0  0  0  0  0  0  # atno 17343 bound_to 10162
  156.8527  130.5086  149.5310 LP  0  0  0  0  0  0  0  0  0  0  0  0  # atno 17370 bound_to 10713
  156.0909  130.5895  150.9731 LP  0  0  0  0  0  0  0  0  0  0  0  0  # atno 17371 bound_to 10713
  141.1339  133.6579  156.3540 LP  0  0  0  0  0  0  0  0  0  0  0  0  # atno 17394 bound_to 11000
  140.5396  134.6133  157.5376 LP  0  0  0  0  0  0  0  0  0  0  0  0  # atno 17395 bound_to 11000

$$$$
