AV-unprocessed.smi:1088|AV-procd|sdf|4728|dock7
  -GOLD-   22720 3263D 1   1.00000     0.00000
 Structure written by MMmdl.
 48 49  0  0  0  0  0  0  0  0  2 V2000
  144.3356  132.3269  149.5390 C   0  0  0  0  0  0  0  0  0  0  0  0
  144.5314  132.4487  150.9370 O   0  0  0  0  0  0  0  0  0  0  0  0
  145.7740  131.9138  151.3615 C   0  0  0  0  0  0  0  0  0  0  0  0
  145.6516  130.3858  151.4477 C   0  0  0  0  0  0  0  0  0  0  0  0
  146.9672  129.7288  151.6410 N   0  3  2  0  0  0  0  0  0  0  0  0
  147.0495  128.3392  151.1441 C   0  0  0  0  0  0  0  0  0  0  0  0
  148.2024  127.7142  151.9174 C   0  0  0  0  0  0  0  0  0  0  0  0
  148.0646  128.3452  153.2974 C   0  0  0  0  0  0  0  0  0  0  0  0
  147.4608  129.7428  153.0417 C   0  0  1  0  0  0  0  0  0  0  0  0
  148.4465  130.9123  153.2418 C   0  0  0  0  0  0  0  0  0  0  0  0
  149.1105  130.8459  154.5400 N   0  0  0  0  0  0  0  0  0  0  0  0
  149.4628  131.9012  155.2897 C   0  0  0  0  0  0  0  0  0  0  0  0
  149.2080  133.0663  154.9830 O   0  0  0  0  0  0  0  0  0  0  0  0
  150.2225  131.5889  156.5846 C   0  0  0  0  0  0  0  0  0  0  0  0
  151.6193  131.2119  156.3328 N   0  0  0  0  0  0  0  0  0  0  0  0
  151.9053  130.1748  155.4638 C   0  0  0  0  0  0  0  0  0  0  0  0
  153.1609  129.7637  155.1825 C   0  0  0  0  0  0  0  0  0  0  0  0
  154.3146  130.4055  155.8009 C   0  0  0  0  0  0  0  0  0  0  0  0
  155.4772  130.0798  155.5573 O   0  0  0  0  0  0  0  0  0  0  0  0
  153.9944  131.4504  156.6996 N   0  0  0  0  0  0  0  0  0  0  0  0
  155.0902  132.1457  157.3430 C   0  0  0  0  0  0  0  0  0  0  0  0
  152.6796  131.8905  156.9735 C   0  0  0  0  0  0  0  0  0  0  0  0
  152.4483  132.8320  157.7368 O   0  0  0  0  0  0  0  0  0  0  0  0
  143.3693  132.7508  149.2659 H   0  0  0  0  0  0  0  0  0  0  0  0
  144.3435  131.2811  149.2288 H   0  0  0  0  0  0  0  0  0  0  0  0
  145.1068  132.8628  148.9844 H   0  0  0  0  0  0  0  0  0  0  0  0
  146.5481  132.1750  150.6383 H   0  0  0  0  0  0  0  0  0  0  0  0
  146.0732  132.3397  152.3202 H   0  0  0  0  0  0  0  0  0  0  0  0
  144.9971  130.1330  152.2830 H   0  0  0  0  0  0  0  0  0  0  0  0
  145.1747  129.9927  150.5488 H   0  0  0  0  0  0  0  0  0  0  0  0
  146.1249  127.8060  151.3719 H   0  0  0  0  0  0  0  0  0  0  0  0
  147.2067  128.3016  150.0659 H   0  0  0  0  0  0  0  0  0  0  0  0
  148.1592  126.6249  151.9408 H   0  0  0  0  0  0  0  0  0  0  0  0
  149.1535  128.0063  151.4697 H   0  0  0  0  0  0  0  0  0  0  0  0
  147.3683  127.7550  153.8950 H   0  0  0  0  0  0  0  0  0  0  0  0
  149.0129  128.3559  153.8329 H   0  0  0  0  0  0  0  0  0  0  0  0
  146.6187  129.8735  153.7241 H   0  0  0  0  0  0  0  0  0  0  0  0
  149.1695  130.9409  152.4248 H   0  0  0  0  0  0  0  0  0  0  0  0
  147.9066  131.8589  153.1997 H   0  0  0  0  0  0  0  0  0  0  0  0
  149.3544  129.9268  154.8798 H   0  0  0  0  0  0  0  0  0  0  0  0
  150.1775  132.4695  157.2266 H   0  0  0  0  0  0  0  0  0  0  0  0
  149.7195  130.7927  157.1370 H   0  0  0  0  0  0  0  0  0  0  0  0
  151.0843  129.6637  154.9819 H   0  0  0  0  0  0  0  0  0  0  0  0
  153.3144  128.9491  154.4900 H   0  0  0  0  0  0  0  0  0  0  0  0
  154.7681  132.5182  158.3164 H   0  0  0  0  0  0  0  0  0  0  0  0
  155.3808  132.9613  156.6795 H   0  0  0  0  0  0  0  0  0  0  0  0
  155.9151  131.4509  157.5074 H   0  0  0  0  0  0  0  0  0  0  0  0
  147.6446  130.2579  151.1101 H   0  0  0  0  0  0  0  0  0  0  0  0
  1  2  1  0  0  0  0
  1 24  1  0  0  0  0
  1 25  1  0  0  0  0
  1 26  1  0  0  0  0
  2  3  1  0  0  0  0
  3  4  1  0  0  0  0
  3 27  1  0  0  0  0
  3 28  1  0  0  0  0
  4  5  1  0  0  0  0
  4 29  1  0  0  0  0
  4 30  1  0  0  0  0
  5  9  1  0  0  0  0
  5  6  1  0  0  0  0
  5 48  1  0  0  0  0
  6  7  1  0  0  0  0
  6 31  1  0  0  0  0
  6 32  1  0  0  0  0
  7  8  1  0  0  0  0
  7 33  1  0  0  0  0
  7 34  1  0  0  0  0
  8  9  1  0  0  0  0
  8 35  1  0  0  0  0
  8 36  1  0  0  0  0
  9 10  1  0  0  0  0
  9 37  1  0  0  0  0
 10 11  1  0  0  0  0
 10 38  1  0  0  0  0
 10 39  1  0  0  0  0
 11 12  1  0  0  0  0
 11 40  1  0  0  0  0
 12 13  2  0  0  0  0
 12 14  1  0  0  0  0
 14 15  1  0  0  0  0
 14 41  1  0  0  0  0
 14 42  1  0  0  0  0
 15 22  1  0  0  0  0
 15 16  1  0  0  0  0
 16 17  2  0  0  0  0
 16 43  1  0  0  0  0
 17 18  1  0  0  0  0
 17 44  1  0  0  0  0
 18 19  2  0  0  0  0
 18 20  1  0  0  0  0
 20 21  1  0  0  0  0
 20 22  1  0  0  0  0
 21 45  1  0  0  0  0
 21 46  1  0  0  0  0
 21 47  1  0  0  0  0
 22 23  2  0  0  0  0
M  CHG  1   5   1
M  END
> <s_m_source_file>
AV-unprocessed.smi

> <i_m_source_file_index>
1088

> <i_lp_mmshare_version>
43012

> <i_f3d_flags>
0

> <s_epik_input>
W0NIM11PW0NIMl1bQ0gyXU4xW0NIMl1bQ0gyXVtDSDJdW0NASF0xW0NIMl1bTkhdQyg9TylbQ0gyXW4yW2NIXVtjSF1jKD1PKW4oW0NIM10pYzI9Tw==

> <s_epik_cmdline>
J2VwaWtfcHl0aG9uJywgJy1waCcsICc3LjAnLCAnLXRuJywgJzgnLCAnLW1hJywgJzIwMCcsICctbWV0YWxfYmluZGluZycsICctaW1hZScsICc8aW5maWxlLm1hZT4nLCAnLW9tYWUnLCAnPG91dGZpbGUubWFlPic=

> <r_lp_tautomer_probability>
1

> <r_epik_Ionization_Penalty>
0.0127388

> <r_epik_Ionization_Penalty_Charging>
0.0127387

> <r_epik_Ionization_Penalty_Neutral>
8.26414e-08

> <r_epik_State_Penalty>
0.00987716

> <r_epik_Charging_Adjusted_Penalty>
0.0226159

> <i_epik_Tot_Q>
1

> <i_epik_Tot_abs_Q>
1

> <r_epik_Metal_State_Penalty>
0.00987836

> <b_epik_Metal_Only>
0

> <s_lp_Force_Field>
OPLS_2005

> <r_lp_Energy>
37.5103

> <b_lp_Chiralities_Consistent>
1

> <s_lp_Variant>
AV-unprocessed.smi:1088-1

> <Gold.Version>
5.8.1

> <Gold.Id.Protein>
6NUR|6NUR_protein|mol2

> <Gold.PLP.Fitness>
42.9526

> <Gold.PLP.PLP>
-38.4424

> <Gold.PLP.part.hbond>
-2.0000

> <Gold.PLP.part.metal>
0.0000

> <Gold.PLP.part.buried>
-4.6369

> <Gold.PLP.part.nonpolar>
-31.6450

> <Gold.PLP.part.repulsive>
0.2096

> <Gold.PLP.ligand.clash>
0.0000

> <Gold.PLP.ligand.torsion>
0.7905

> <Gold.PLP.Chemscore.Hbond>
2.0000

> <Gold.PLP.Chemscore.CHOScore>
0.0000

> <Gold.PLP.Chemscore.Metal>
0.0000

> <Gold.Chemscore.Hbonds>
donor molecule, donor type, donor heavy atom, donor atom, acceptor molecule, acceptor atom, score
      L1  H     5    48       P1 10747  1.00
      P1  H  6896  6907       L1    23  0.93

> <Gold.PLP.Chemscore.Internal.Correction>
0.0911

> <Gold.Rescore>
     Score         DG    S(hbond)    S(metal)    S(lipo)     H(rot)  DE(clash)    DE(int)     intcor
     14.53     -15.51       1.99        0.00      85.15       2.57       0.05       0.94       ----

> <Gold.Chemscore.Fitness>
14.5268

> <Gold.Chemscore.DG>
-15.5145

> <Gold.Chemscore.ZeroCoef>
-5.4800

> <Gold.Chemscore.Hbond>
1.9909

> <Gold.Chemscore.Metal>
0.0000

> <Gold.Chemscore.Lipo>
85.1466

> <Gold.Chemscore.Internal_Hbond>
0.0000

> <Gold.Chemscore.DEClash>
0.0464

> <Gold.Chemscore.DEInternal>
0.9413

> <Gold.Chemscore.Rot>
2.5692

> <Gold.Chemscore.Internal.Correction>
   9.000000E+99

> <Gold.Chemscore.Hbonds>
donor molecule, donor type, donor heavy atom, donor atom, acceptor molecule, acceptor atom, score
      L1  H     5    48       P1 10747  1.00
      P1  H  6896  6907       L1    23  0.91

> <Gold.Chemscore.Hbond.Weighted>
-6.6495

> <Gold.Chemscore.Metal.Weighted>
-0.0000

> <Gold.Chemscore.Lipo.Weighted>
-9.9622

> <Gold.Chemscore.Internal_Hbond.Weighted>
0.0000

> <Gold.Chemscore.DEClash.Weighted>
0.0464

> <Gold.Chemscore.DEInternal.Weighted>
0.9413

> <Gold.Chemscore.Rot.Weighted>
6.5772

> <Gold.Chemscore.Internal.Correction.Weighted>
   9.000000E+99

> <Gold.Protein.RotatedTorsions>
[ 6907 6896 6895 6894 ] final  161.75 input  -60.11 | X-H torsion
[ 7974 7965 7964 7962 ] final  151.45 input  175.53 | X-H torsion
[ 8008 7997 7996 7995 ] final  -43.87 input   59.86 | X-H torsion
[ 10167 10162 10161 10158 ] final   15.06 input  -65.29 | X-H torsion
[ 10718 10713 10712 10709 ] final  -24.64 input   66.30 | X-H torsion
[ 10763 10752 10751 10750 ] final  -73.71 input  -60.55 | X-H torsion
[ 11005 11000 10999 10996 ] final -105.11 input  -57.11 | X-H torsion

> <Gold.Protein.ActiveResidues>
 VAL166  LYS551  ARG553  GLY616  TRP617  ASP618  TYR619  PRO620  LYS621  CYS622 
 ASP623  PHE694  ASN695  SER759  ASP760  ASP761  ALA762  ILE779  LEU786  VAL792 
 PHE793  MET794  SER795  GLU796  ALA797  LYS798  CYS799  TRP800  GLU811  SER814 

> <Gold.Protein.RotatedAtoms>
  151.9508  133.3665  159.3999 H   0  0  0  0  0  0  0  0  0  0  0  0  # atno 6907 bound_to 6896
  150.6981  134.4342  159.5271 H   0  0  0  0  0  0  0  0  0  0  0  0  # atno 6908 bound_to 6896
  152.2014  134.8584  160.0558 H   0  0  0  0  0  0  0  0  0  0  0  0  # atno 6909 bound_to 6896
  144.8291  139.6539  143.6066 H   0  0  0  0  0  0  0  0  0  0  0  0  # atno 7974 bound_to 7965
  154.3997  140.1436  156.3590 H   0  0  0  0  0  0  0  0  0  0  0  0  # atno 8008 bound_to 7997
  155.8198  140.3470  155.5486 H   0  0  0  0  0  0  0  0  0  0  0  0  # atno 8009 bound_to 7997
  155.8299  140.0910  157.1789 H   0  0  0  0  0  0  0  0  0  0  0  0  # atno 8010 bound_to 7997
  140.5893  143.8827  150.6859 H   0  0  0  0  0  0  0  0  0  0  0  0  # atno 10167 bound_to 10162
  156.4750  130.4532  149.6846 H   0  0  0  0  0  0  0  0  0  0  0  0  # atno 10718 bound_to 10713
  154.4632  135.5888  153.6270 H   0  0  0  0  0  0  0  0  0  0  0  0  # atno 10763 bound_to 10752
  152.9825  135.6049  154.3460 H   0  0  0  0  0  0  0  0  0  0  0  0  # atno 10764 bound_to 10752
  154.3334  135.2842  155.2439 H   0  0  0  0  0  0  0  0  0  0  0  0  # atno 10765 bound_to 10752
  141.1069  133.8780  157.1694 H   0  0  0  0  0  0  0  0  0  0  0  0  # atno 11005 bound_to 11000
  146.2595  139.6379  142.9371 LP  0  0  0  0  0  0  0  0  0  0  0  0  # atno 17320 bound_to 7965
  145.4934  141.0438  143.2580 LP  0  0  0  0  0  0  0  0  0  0  0  0  # atno 17321 bound_to 7965
  140.2346  143.3710  152.1537 LP  0  0  0  0  0  0  0  0  0  0  0  0  # atno 17342 bound_to 10162
  139.5217  144.7050  151.5382 LP  0  0  0  0  0  0  0  0  0  0  0  0  # atno 17343 bound_to 10162
  156.3580  130.7466  151.2435 LP  0  0  0  0  0  0  0  0  0  0  0  0  # atno 17370 bound_to 10713
  157.7488  131.0358  150.4381 LP  0  0  0  0  0  0  0  0  0  0  0  0  # atno 17371 bound_to 10713
  139.9943  135.0052  157.0047 LP  0  0  0  0  0  0  0  0  0  0  0  0  # atno 17394 bound_to 11000
  140.4879  134.1223  155.7227 LP  0  0  0  0  0  0  0  0  0  0  0  0  # atno 17395 bound_to 11000

$$$$
