AV-unprocessed.smi:120|AV-procd|sdf|1138|dock3
  -GOLD-   2262018263D 1   1.00000     0.00000
 Structure written by MMmdl.
 45 48  0  0  0  0  0  0  0  0  1 V2000
  153.6319  139.6732  159.4146 C   0  0  0  0  0  0  0  0  0  0  0  0
  152.9143  140.8546  159.0884 O   0  0  0  0  0  0  0  0  0  0  0  0
  152.7513  141.8091  160.0697 C   0  0  0  0  0  0  0  0  0  0  0  0
  151.9149  142.9001  159.7659 C   0  0  0  0  0  0  0  0  0  0  0  0
  151.6918  143.9142  160.7131 C   0  0  0  0  0  0  0  0  0  0  0  0
  152.3064  143.8453  161.9763 C   0  0  0  0  0  0  0  0  0  0  0  0
  153.1552  142.7659  162.3142 C   0  0  0  0  0  0  0  0  0  0  0  0
  153.8043  142.6942  163.6421 C   0  0  0  0  0  0  0  0  0  0  0  0
  153.4606  143.5070  164.6333 N   0  0  0  0  0  0  0  0  0  0  0  0
  154.2997  143.0952  165.6795 O   0  0  0  0  0  0  0  0  0  0  0  0
  155.0489  142.0799  165.1810 C   0  0  0  0  0  0  0  0  0  0  0  0
  156.0522  141.4207  166.0777 C   0  0  0  0  0  0  0  0  0  0  0  0
  156.7183  140.3242  165.3934 N   0  0  0  0  0  0  0  0  0  0  0  0
  157.7770  140.6327  164.5034 C   0  0  0  0  0  0  0  0  0  0  0  0
  158.1558  141.7885  164.3072 O   0  0  0  0  0  0  0  0  0  0  0  0
  158.3635  139.4746  163.8377 C   0  0  0  0  0  0  0  0  0  0  0  0
  159.3863  139.6478  162.9835 F   0  0  0  0  0  0  0  0  0  0  0  0
  157.8963  138.2276  164.0636 C   0  0  0  0  0  0  0  0  0  0  0  0
  156.8439  137.9591  164.9240 N   0  0  0  0  0  0  0  0  0  0  0  0
  156.3287  136.5538  165.1511 C   0  0  1  0  0  0  0  0  0  0  0  0
  154.8486  136.4466  164.7388 C   0  0  0  0  0  0  0  0  0  0  0  0
  154.8418  135.2302  163.8348 C   0  0  0  0  0  0  0  0  0  0  0  0
  156.2429  135.2713  163.2436 C   0  0  0  0  0  0  0  0  0  0  0  0
  157.0433  135.6508  164.3556 O   0  0  0  0  0  0  0  0  0  0  0  0
  156.2232  139.0188  165.6200 C   0  0  0  0  0  0  0  0  0  0  0  0
  155.2789  138.8049  166.3843 O   0  0  0  0  0  0  0  0  0  0  0  0
  154.7840  141.7880  163.9083 N   0  0  0  0  0  0  0  0  0  0  0  0
  153.3665  141.7543  161.3462 C   0  0  0  0  0  0  0  0  0  0  0  0
  153.6683  139.0222  158.5412 H   0  0  0  0  0  0  0  0  0  0  0  0
  153.1448  139.1189  160.2180 H   0  0  0  0  0  0  0  0  0  0  0  0
  154.6602  139.8978  159.7012 H   0  0  0  0  0  0  0  0  0  0  0  0
  151.4387  142.9591  158.7981 H   0  0  0  0  0  0  0  0  0  0  0  0
  151.0481  144.7470  160.4710 H   0  0  0  0  0  0  0  0  0  0  0  0
  152.1216  144.6380  162.6864 H   0  0  0  0  0  0  0  0  0  0  0  0
  156.7952  142.1410  166.4213 H   0  0  0  0  0  0  0  0  0  0  0  0
  155.5779  141.0179  166.9747 H   0  0  0  0  0  0  0  0  0  0  0  0
  158.3796  137.4182  163.5385 H   0  0  0  0  0  0  0  0  0  0  0  0
  156.5174  136.3342  166.2037 H   0  0  0  0  0  0  0  0  0  0  0  0
  154.2045  136.3393  165.6121 H   0  0  0  0  0  0  0  0  0  0  0  0
  154.5462  137.3350  164.1818 H   0  0  0  0  0  0  0  0  0  0  0  0
  154.7122  134.3229  164.4261 H   0  0  0  0  0  0  0  0  0  0  0  0
  154.0571  135.2626  163.0786 H   0  0  0  0  0  0  0  0  0  0  0  0
  156.5567  134.3122  162.8317 H   0  0  0  0  0  0  0  0  0  0  0  0
  156.3101  136.0237  162.4567 H   0  0  0  0  0  0  0  0  0  0  0  0
  154.0090  140.9264  161.6034 H   0  0  0  0  0  0  0  0  0  0  0  0
  1  2  1  0  0  0  0
  1 29  1  0  0  0  0
  1 30  1  0  0  0  0
  1 31  1  0  0  0  0
  2  3  1  0  0  0  0
  3 28  1  0  0  0  0
  3  4  2  0  0  0  0
  4  5  1  0  0  0  0
  4 32  1  0  0  0  0
  5  6  2  0  0  0  0
  5 33  1  0  0  0  0
  6  7  1  0  0  0  0
  6 34  1  0  0  0  0
  7  8  1  0  0  0  0
  7 28  2  0  0  0  0
  8 27  1  0  0  0  0
  8  9  2  0  0  0  0
  9 10  1  0  0  0  0
 10 11  1  0  0  0  0
 11 12  1  0  0  0  0
 11 27  2  0  0  0  0
 12 13  1  0  0  0  0
 12 35  1  0  0  0  0
 12 36  1  0  0  0  0
 13 25  1  0  0  0  0
 13 14  1  0  0  0  0
 14 15  2  0  0  0  0
 14 16  1  0  0  0  0
 16 17  1  0  0  0  0
 16 18  2  0  0  0  0
 18 19  1  0  0  0  0
 18 37  1  0  0  0  0
 19 20  1  0  0  0  0
 19 25  1  0  0  0  0
 20 24  1  0  0  0  0
 20 21  1  0  0  0  0
 20 38  1  0  0  0  0
 21 22  1  0  0  0  0
 21 39  1  0  0  0  0
 21 40  1  0  0  0  0
 22 23  1  0  0  0  0
 22 41  1  0  0  0  0
 22 42  1  0  0  0  0
 23 24  1  0  0  0  0
 23 43  1  0  0  0  0
 23 44  1  0  0  0  0
 25 26  2  0  0  0  0
 28 45  1  0  0  0  0
M  END
> <s_m_source_file>
AV-unprocessed.smi

> <i_m_source_file_index>
120

> <i_lp_mmshare_version>
43012

> <i_f3d_flags>
0

> <s_epik_input>
W0NIM11PYzFbY0hdW2NIXVtjSF1jKFtjSF0xKS1jMm5vYyhuMilbQ0gyXW4zYyg9TyljKEYpW2NIXW4oYzM9TylbQ0BASF00W0NIMl1bQ0gyXVtDSDJdTzQ=

> <s_epik_cmdline>
J2VwaWtfcHl0aG9uJywgJy1waCcsICc3LjAnLCAnLXRuJywgJzgnLCAnLW1hJywgJzIwMCcsICctbWV0YWxfYmluZGluZycsICctaW1hZScsICc8aW5maWxlLm1hZT4nLCAnLW9tYWUnLCAnPG91dGZpbGUubWFlPic=

> <r_lp_tautomer_probability>
1

> <r_epik_Ionization_Penalty>
4.93314e-09

> <r_epik_Ionization_Penalty_Charging>
4.92654e-09

> <r_epik_Ionization_Penalty_Neutral>
6.60436e-12

> <r_epik_State_Penalty>
-0

> <r_epik_Charging_Adjusted_Penalty>
4.92654e-09

> <i_epik_Tot_Q>
0

> <i_epik_Tot_abs_Q>
0

> <r_epik_Metal_State_Penalty>
-0

> <b_epik_Metal_Only>
0

> <s_epik_Chemistry_Notes>
This compound contains an acetal/aminal-like group ( X-CH(R)-Y where X, Y are N, S, or O) that may be acid/base labile, releasing an aldehyde.

> <s_lp_Force_Field>
OPLS_2005

> <r_lp_Energy>
36.9113

> <b_lp_Chiralities_Consistent>
1

> <s_lp_Variant>
AV-unprocessed.smi:120-2

> <Gold.Version>
5.8.1

> <Gold.Id.Protein>
6NUR|6NUR_protein|mol2

> <Gold.PLP.Fitness>
46.0065

> <Gold.PLP.PLP>
-46.7929

> <Gold.PLP.part.hbond>
-3.7573

> <Gold.PLP.part.metal>
0.0000

> <Gold.PLP.part.buried>
-6.3311

> <Gold.PLP.part.nonpolar>
-34.5243

> <Gold.PLP.part.repulsive>
0.2577

> <Gold.PLP.ligand.clash>
0.0000

> <Gold.PLP.ligand.torsion>
0.4089

> <Gold.PLP.Chemscore.Hbond>
0.0000

> <Gold.PLP.Chemscore.CHOScore>
0.0000

> <Gold.PLP.Chemscore.Metal>
0.0000

> <Gold.PLP.Chemscore.Internal.Correction>
0.0315

> <Gold.Rescore>
     Score         DG    S(hbond)    S(metal)    S(lipo)     H(rot)  DE(clash)    DE(int)     intcor
      9.38     -11.77       0.00        0.00      97.23       1.99       0.59       1.80       ----

> <Gold.Chemscore.Fitness>
9.3769

> <Gold.Chemscore.DG>
-11.7671

> <Gold.Chemscore.ZeroCoef>
-5.4800

> <Gold.Chemscore.Hbond>
0.0000

> <Gold.Chemscore.Metal>
0.0000

> <Gold.Chemscore.Lipo>
97.2314

> <Gold.Chemscore.Internal_Hbond>
0.0000

> <Gold.Chemscore.DEClash>
0.5869

> <Gold.Chemscore.DEInternal>
1.8033

> <Gold.Chemscore.Rot>
1.9879

> <Gold.Chemscore.Internal.Correction>
   9.000000E+99

> <Gold.Chemscore.Hbond.Weighted>
-0.0000

> <Gold.Chemscore.Metal.Weighted>
-0.0000

> <Gold.Chemscore.Lipo.Weighted>
-11.3761

> <Gold.Chemscore.Internal_Hbond.Weighted>
0.0000

> <Gold.Chemscore.DEClash.Weighted>
0.5869

> <Gold.Chemscore.DEInternal.Weighted>
1.8033

> <Gold.Chemscore.Rot.Weighted>
5.0890

> <Gold.Chemscore.Internal.Correction.Weighted>
   9.000000E+99

> <Gold.Protein.RotatedTorsions>
[ 6907 6896 6895 6894 ] final   50.54 input  -60.11 | X-H torsion
[ 7974 7965 7964 7962 ] final   11.56 input  175.53 | X-H torsion
[ 8008 7997 7996 7995 ] final    9.15 input   59.86 | X-H torsion
[ 10167 10162 10161 10158 ] final -108.82 input  -65.29 | X-H torsion
[ 10718 10713 10712 10709 ] final -105.75 input   66.30 | X-H torsion
[ 10763 10752 10751 10750 ] final -101.77 input  -60.55 | X-H torsion
[ 11005 11000 10999 10996 ] final   41.56 input  -57.11 | X-H torsion

> <Gold.Protein.ActiveResidues>
 VAL166  LYS551  ARG553  GLY616  TRP617  ASP618  TYR619  PRO620  LYS621  CYS622 
 ASP623  PHE694  ASN695  SER759  ASP760  ASP761  ALA762  ILE779  LEU786  VAL792 
 PHE793  MET794  SER795  GLU796  ALA797  LYS798  CYS799  TRP800  GLU811  SER814 

> <Gold.Protein.RotatedAtoms>
  152.3029  134.7589  160.0353 H   0  0  0  0  0  0  0  0  0  0  0  0  # atno 6907 bound_to 6896
  151.8096  133.3375  159.3559 H   0  0  0  0  0  0  0  0  0  0  0  0  # atno 6908 bound_to 6896
  150.7282  134.5606  159.5885 H   0  0  0  0  0  0  0  0  0  0  0  0  # atno 6909 bound_to 6896
  146.2368  139.9467  142.8476 H   0  0  0  0  0  0  0  0  0  0  0  0  # atno 7974 bound_to 7965
  154.7763  140.2811  155.6098 H   0  0  0  0  0  0  0  0  0  0  0  0  # atno 8008 bound_to 7997
  156.2942  140.2632  156.2505 H   0  0  0  0  0  0  0  0  0  0  0  0  # atno 8009 bound_to 7997
  154.9839  140.0374  157.2279 H   0  0  0  0  0  0  0  0  0  0  0  0  # atno 8010 bound_to 7997
  140.1620  143.4112  152.1418 H   0  0  0  0  0  0  0  0  0  0  0  0  # atno 10167 bound_to 10162
  156.0359  130.5579  150.7583 H   0  0  0  0  0  0  0  0  0  0  0  0  # atno 10718 bound_to 10713
  154.7683  135.4885  153.9599 H   0  0  0  0  0  0  0  0  0  0  0  0  # atno 10763 bound_to 10752
  153.1336  135.6758  153.9146 H   0  0  0  0  0  0  0  0  0  0  0  0  # atno 10764 bound_to 10752
  153.8842  135.3128  155.3424 H   0  0  0  0  0  0  0  0  0  0  0  0  # atno 10765 bound_to 10752
  140.1822  134.4089  155.8193 H   0  0  0  0  0  0  0  0  0  0  0  0  # atno 11005 bound_to 11000
  145.1901  140.9807  143.4216 LP  0  0  0  0  0  0  0  0  0  0  0  0  # atno 17320 bound_to 7965
  144.9865  139.3731  143.6236 LP  0  0  0  0  0  0  0  0  0  0  0  0  # atno 17321 bound_to 7965
  139.5377  144.7225  151.4839 LP  0  0  0  0  0  0  0  0  0  0  0  0  # atno 17342 bound_to 10162
  140.6637  143.8444  150.6916 LP  0  0  0  0  0  0  0  0  0  0  0  0  # atno 17343 bound_to 10162
  157.5109  131.0925  151.0199 LP  0  0  0  0  0  0  0  0  0  0  0  0  # atno 17370 bound_to 10713
  157.0554  130.5804  149.5377 LP  0  0  0  0  0  0  0  0  0  0  0  0  # atno 17371 bound_to 10713
  141.2223  133.7006  156.7951 LP  0  0  0  0  0  0  0  0  0  0  0  0  # atno 17394 bound_to 11000
  140.2254  134.8726  157.3421 LP  0  0  0  0  0  0  0  0  0  0  0  0  # atno 17395 bound_to 11000

$$$$
