AV-unprocessed.smi:1479|AV-procd|sdf|5983|dock5
  -GOLD-   22720 6 73D 1   1.00000     0.00000
 Structure written by MMmdl.
 40 41  0  0  0  0  0  0  0  0  1 V2000
  152.1835  133.0649  154.4460 C   0  0  0  0  0  0  0  0  0  0  0  0
  152.1305  134.3726  155.7377 S   0  0  0  0  0  0  0  0  0  0  0  0
  151.7672  133.7435  157.0166 O   0  0  0  0  0  0  0  0  0  0  0  0
  153.3629  135.1705  155.6460 O   0  0  0  0  0  0  0  0  0  0  0  0
  150.7162  135.4135  155.1644 C   0  0  0  0  0  0  0  0  0  0  0  0
  151.1638  136.8328  154.7843 C   0  0  0  0  0  0  0  0  0  0  0  0
  150.0249  137.6300  154.3590 N   0  0  0  0  0  0  0  0  0  0  0  0
  150.4674  138.9545  153.9566 C   0  0  0  0  0  0  0  0  0  0  0  0
  150.8838  139.8037  155.1398 C   0  0  0  0  0  0  0  0  0  0  0  0
  149.9847  140.6783  155.7833 C   0  0  0  0  0  0  0  0  0  0  0  0
  150.3606  141.4262  156.8425 N   0  0  0  0  0  0  0  0  0  0  0  0
  151.6247  141.3133  157.2735 C   0  0  0  0  0  0  0  0  0  0  0  0
  152.0073  142.0939  158.3726 N   0  0  0  0  0  0  0  0  0  0  0  0
  153.2236  141.8104  159.1388 C   0  0  0  0  0  0  0  0  0  0  0  0
  153.0535  142.2231  160.6106 C   0  0  0  0  0  0  0  0  0  0  0  0
  152.6700  143.5902  160.6865 O   0  0  0  0  0  0  0  0  0  0  0  0
  151.4208  143.8176  160.0464 C   0  0  0  0  0  0  0  0  0  0  0  0
  151.5289  143.4671  158.5528 C   0  0  0  0  0  0  0  0  0  0  0  0
  152.5498  140.5090  156.7303 N   0  0  0  0  0  0  0  0  0  0  0  0
  152.1879  139.7552  155.6703 C   0  0  0  0  0  0  0  0  0  0  0  0
  152.9895  132.3670  154.6718 H   0  0  0  0  0  0  0  0  0  0  0  0
  152.3620  133.5196  153.4719 H   0  0  0  0  0  0  0  0  0  0  0  0
  151.2352  132.5282  154.4299 H   0  0  0  0  0  0  0  0  0  0  0  0
  150.2823  134.9223  154.2936 H   0  0  0  0  0  0  0  0  0  0  0  0
  149.9533  135.4291  155.9434 H   0  0  0  0  0  0  0  0  0  0  0  0
  151.6615  137.3062  155.6316 H   0  0  0  0  0  0  0  0  0  0  0  0
  151.8865  136.7835  153.9691 H   0  0  0  0  0  0  0  0  0  0  0  0
  149.5906  137.1705  153.5714 H   0  0  0  0  0  0  0  0  0  0  0  0
  151.3279  138.8682  153.2917 H   0  0  0  0  0  0  0  0  0  0  0  0
  149.6747  139.4530  153.3974 H   0  0  0  0  0  0  0  0  0  0  0  0
  148.9622  140.7793  155.4499 H   0  0  0  0  0  0  0  0  0  0  0  0
  153.4912  140.7544  159.1108 H   0  0  0  0  0  0  0  0  0  0  0  0
  154.0530  142.3583  158.6902 H   0  0  0  0  0  0  0  0  0  0  0  0
  152.3109  141.5962  161.1073 H   0  0  0  0  0  0  0  0  0  0  0  0
  153.9924  142.0890  161.1477 H   0  0  0  0  0  0  0  0  0  0  0  0
  150.6388  143.2282  160.5281 H   0  0  0  0  0  0  0  0  0  0  0  0
  151.1475  144.8661  160.1661 H   0  0  0  0  0  0  0  0  0  0  0  0
  152.2242  144.1461  158.0582 H   0  0  0  0  0  0  0  0  0  0  0  0
  150.5531  143.6261  158.0952 H   0  0  0  0  0  0  0  0  0  0  0  0
  152.9448  139.1120  155.2463 H   0  0  0  0  0  0  0  0  0  0  0  0
  1  2  1  0  0  0  0
  1 21  1  0  0  0  0
  1 22  1  0  0  0  0
  1 23  1  0  0  0  0
  2  3  2  0  0  0  0
  2  4  2  0  0  0  0
  2  5  1  0  0  0  0
  5  6  1  0  0  0  0
  5 24  1  0  0  0  0
  5 25  1  0  0  0  0
  6  7  1  0  0  0  0
  6 26  1  0  0  0  0
  6 27  1  0  0  0  0
  7  8  1  0  0  0  0
  7 28  1  0  0  0  0
  8  9  1  0  0  0  0
  8 29  1  0  0  0  0
  8 30  1  0  0  0  0
  9 20  1  0  0  0  0
  9 10  2  0  0  0  0
 10 11  1  0  0  0  0
 10 31  1  0  0  0  0
 11 12  2  0  0  0  0
 12 13  1  0  0  0  0
 12 19  1  0  0  0  0
 13 18  1  0  0  0  0
 13 14  1  0  0  0  0
 14 15  1  0  0  0  0
 14 32  1  0  0  0  0
 14 33  1  0  0  0  0
 15 16  1  0  0  0  0
 15 34  1  0  0  0  0
 15 35  1  0  0  0  0
 16 17  1  0  0  0  0
 17 18  1  0  0  0  0
 17 36  1  0  0  0  0
 17 37  1  0  0  0  0
 18 38  1  0  0  0  0
 18 39  1  0  0  0  0
 19 20  2  0  0  0  0
 20 40  1  0  0  0  0
M  END
> <s_m_source_file>
AV-unprocessed.smi

> <i_m_source_file_index>
1479

> <i_lp_mmshare_version>
43012

> <i_f3d_flags>
0

> <s_epik_input>
W0NIM11TKD1PKSg9TylbQ0gyXVtDSDJdW05IXVtDSDJdYzFbY0hdbmMobltjSF0xKU4yW0NIMl1bQ0gyXU9bQ0gyXVtDSDJdMg==

> <s_epik_cmdline>
J2VwaWtfcHl0aG9uJywgJy1waCcsICc3LjAnLCAnLXRuJywgJzgnLCAnLW1hJywgJzIwMCcsICctbWV0YWxfYmluZGluZycsICctaW1hZScsICc8aW5maWxlLm1hZT4nLCAnLW9tYWUnLCAnPG91dGZpbGUubWFlPic=

> <r_lp_tautomer_probability>
1

> <r_epik_Ionization_Penalty>
0.401462

> <r_epik_Ionization_Penalty_Charging>
0

> <r_epik_Ionization_Penalty_Neutral>
0.401462

> <r_epik_State_Penalty>
0.400842

> <r_epik_Charging_Adjusted_Penalty>
0.400842

> <i_epik_Tot_Q>
0

> <i_epik_Tot_abs_Q>
0

> <r_epik_Metal_State_Penalty>
0.400839

> <b_epik_Metal_Only>
0

> <s_lp_Force_Field>
OPLS_2005

> <r_lp_Energy>
7.63479

> <b_lp_Chiralities_Consistent>
1

> <s_lp_Variant>
AV-unprocessed.smi:1479-1

> <Gold.Version>
5.8.1

> <Gold.Id.Protein>
6NUR|6NUR_protein|mol2

> <Gold.PLP.Fitness>
48.0911

> <Gold.PLP.PLP>
-38.3714

> <Gold.PLP.part.hbond>
-4.1041

> <Gold.PLP.part.metal>
0.0000

> <Gold.PLP.part.buried>
-3.1428

> <Gold.PLP.part.nonpolar>
-29.8575

> <Gold.PLP.part.repulsive>
0.1227

> <Gold.PLP.ligand.clash>
0.0000

> <Gold.PLP.ligand.torsion>
0.7987

> <Gold.PLP.Chemscore.Hbond>
3.6975

> <Gold.PLP.Chemscore.CHOScore>
0.0000

> <Gold.PLP.Chemscore.Metal>
0.0000

> <Gold.Chemscore.Hbonds>
donor molecule, donor type, donor heavy atom, donor atom, acceptor molecule, acceptor atom, score
      L1  H     7    28       P1  7948  1.00
      P1  H  6896  6907       L1     3  0.03
      P1  H  7997  8010       L1    19  0.59

> <Gold.PLP.Chemscore.Internal.Correction>
0.2245

> <Gold.Rescore>
     Score         DG    S(hbond)    S(metal)    S(lipo)     H(rot)  DE(clash)    DE(int)     intcor
     19.28     -19.88       2.86        0.00      86.91       2.08       0.05       0.55       ----

> <Gold.Chemscore.Fitness>
19.2810

> <Gold.Chemscore.DG>
-19.8829

> <Gold.Chemscore.ZeroCoef>
-5.4800

> <Gold.Chemscore.Hbond>
2.8628

> <Gold.Chemscore.Metal>
0.0000

> <Gold.Chemscore.Lipo>
86.9086

> <Gold.Chemscore.Internal_Hbond>
0.0000

> <Gold.Chemscore.DEClash>
0.0532

> <Gold.Chemscore.DEInternal>
0.5487

> <Gold.Chemscore.Rot>
2.0810

> <Gold.Chemscore.Internal.Correction>
   9.000000E+99

> <Gold.Chemscore.Hbonds>
donor molecule, donor type, donor heavy atom, donor atom, acceptor molecule, acceptor atom, score
      L1  H     7    28       P1  7948  0.81
      P1  H  6896  6907       L1     3  0.04
      P1  H  7997  8010       L1    19  0.17

> <Gold.Chemscore.Hbond.Weighted>
-9.5619

> <Gold.Chemscore.Metal.Weighted>
-0.0000

> <Gold.Chemscore.Lipo.Weighted>
-10.1683

> <Gold.Chemscore.Internal_Hbond.Weighted>
0.0000

> <Gold.Chemscore.DEClash.Weighted>
0.0532

> <Gold.Chemscore.DEInternal.Weighted>
0.5487

> <Gold.Chemscore.Rot.Weighted>
5.3273

> <Gold.Chemscore.Internal.Correction.Weighted>
   9.000000E+99

> <Gold.Protein.RotatedTorsions>
[ 6907 6896 6895 6894 ] final -124.00 input  -60.11 | X-H torsion
[ 7974 7965 7964 7962 ] final  179.72 input  175.53 | X-H torsion
[ 8008 7997 7996 7995 ] final   44.12 input   59.86 | X-H torsion
[ 10167 10162 10161 10158 ] final   69.41 input  -65.29 | X-H torsion
[ 10718 10713 10712 10709 ] final    3.67 input   66.30 | X-H torsion
[ 10763 10752 10751 10750 ] final  105.39 input  -60.55 | X-H torsion
[ 11005 11000 10999 10996 ] final   -3.06 input  -57.11 | X-H torsion

> <Gold.Protein.ActiveResidues>
 VAL166  LYS551  ARG553  GLY616  TRP617  ASP618  TYR619  PRO620  LYS621  CYS622 
 ASP623  PHE694  ASN695  SER759  ASP760  ASP761  ALA762  ILE779  LEU786  VAL792 
 PHE793  MET794  SER795  GLU796  ALA797  LYS798  CYS799  TRP800  GLU811  SER814 

> <Gold.Protein.RotatedAtoms>
  150.8726  133.7484  159.2956 H   0  0  0  0  0  0  0  0  0  0  0  0  # atno 6907 bound_to 6896
  151.5092  135.1063  159.9859 H   0  0  0  0  0  0  0  0  0  0  0  0  # atno 6908 bound_to 6896
  152.4705  133.7974  159.6990 H   0  0  0  0  0  0  0  0  0  0  0  0  # atno 6909 bound_to 6896
  144.7143  140.0591  143.6433 H   0  0  0  0  0  0  0  0  0  0  0  0  # atno 7974 bound_to 7965
  155.3140  140.3393  155.4243 H   0  0  0  0  0  0  0  0  0  0  0  0  # atno 8008 bound_to 7997
  156.1942  140.1708  156.8070 H   0  0  0  0  0  0  0  0  0  0  0  0  # atno 8009 bound_to 7997
  154.5478  140.0711  156.8601 H   0  0  0  0  0  0  0  0  0  0  0  0  # atno 8010 bound_to 7997
  140.0681  144.5176  150.7247 H   0  0  0  0  0  0  0  0  0  0  0  0  # atno 10167 bound_to 10162
  156.8813  130.5654  149.5653 H   0  0  0  0  0  0  0  0  0  0  0  0  # atno 10718 bound_to 10713
  153.3787  135.3911  155.1841 H   0  0  0  0  0  0  0  0  0  0  0  0  # atno 10763 bound_to 10752
  154.8704  135.3720  154.4885 H   0  0  0  0  0  0  0  0  0  0  0  0  # atno 10764 bound_to 10752
  153.5360  135.7085  153.5721 H   0  0  0  0  0  0  0  0  0  0  0  0  # atno 10765 bound_to 10752
  140.6652  133.9285  155.8460 H   0  0  0  0  0  0  0  0  0  0  0  0  # atno 11005 bound_to 11000
  145.9879  139.2992  143.1002 LP  0  0  0  0  0  0  0  0  0  0  0  0  # atno 17320 bound_to 7965
  145.8936  140.9288  143.0539 LP  0  0  0  0  0  0  0  0  0  0  0  0  # atno 17321 bound_to 7965
  140.7139  143.2528  151.4495 LP  0  0  0  0  0  0  0  0  0  0  0  0  # atno 17342 bound_to 10162
  139.5853  144.1619  152.2020 LP  0  0  0  0  0  0  0  0  0  0  0  0  # atno 17343 bound_to 10162
  156.0676  130.5716  150.9319 LP  0  0  0  0  0  0  0  0  0  0  0  0  # atno 17370 bound_to 10713
  157.6138  131.0934  150.8746 LP  0  0  0  0  0  0  0  0  0  0  0  0  # atno 17371 bound_to 10713
  141.0435  134.0588  157.3873 LP  0  0  0  0  0  0  0  0  0  0  0  0  # atno 17394 bound_to 11000
  139.9000  135.0160  156.7220 LP  0  0  0  0  0  0  0  0  0  0  0  0  # atno 17395 bound_to 11000

$$$$
