AV-unprocessed.smi:2492|AV-procd|sdf|9818|dock8
  -GOLD-   2272013453D 1   1.00000     0.00000
 Structure written by MMmdl.
 32 33  0  0  0  0  0  0  0  0  2 V2000
  153.6286  144.6723  163.7748 C   0  0  0  0  0  0  0  0  0  0  0  0
  153.6760  142.8612  163.7246 S   0  0  0  0  0  0  0  0  0  0  0  0
  152.8213  142.5630  162.1503 C   0  0  1  0  0  0  0  0  0  0  0  0
  152.2770  143.8457  161.5265 C   0  0  0  0  0  0  0  0  0  0  0  0
  152.0610  143.4904  160.0540 C   0  0  0  0  0  0  0  0  0  0  0  0
  153.0902  142.3926  159.7216 C   0  0  2  0  0  0  0  0  0  0  0  0
  152.4410  141.2521  159.0780 N   0  0  0  0  0  0  0  0  0  0  0  0
  153.0225  140.0822  158.7758 C   0  0  0  0  0  0  0  0  0  0  0  0
  154.2099  139.8959  159.0527 O   0  0  0  0  0  0  0  0  0  0  0  0
  152.1919  139.2014  158.1733 N   0  5  0  0  0  0  0  0  0  0  0  0
  151.7329  139.4515  156.9361 C   0  0  0  0  0  0  0  0  0  0  0  0
  150.4523  139.5839  156.5871 N   0  0  0  0  0  0  0  0  0  0  0  0
  150.5493  139.8108  155.2500 C   0  0  0  0  0  0  0  0  0  0  0  0
  149.3612  140.0321  154.3777 C   0  0  0  0  0  0  0  0  0  0  0  0
  151.7772  139.8164  154.7527 N   0  0  0  0  0  0  0  0  0  0  0  0
  152.5768  139.5727  155.8783 O   0  0  0  0  0  0  0  0  0  0  0  0
  153.7356  141.9930  161.0630 C   0  0  0  0  0  0  0  0  0  0  0  0
  154.1470  145.0361  164.6619 H   0  0  0  0  0  0  0  0  0  0  0  0
  152.5993  145.0289  163.8083 H   0  0  0  0  0  0  0  0  0  0  0  0
  154.1147  145.0911  162.8937 H   0  0  0  0  0  0  0  0  0  0  0  0
  151.9917  141.8754  162.3215 H   0  0  0  0  0  0  0  0  0  0  0  0
  151.3641  144.1936  162.0109 H   0  0  0  0  0  0  0  0  0  0  0  0
  153.0189  144.6419  161.6029 H   0  0  0  0  0  0  0  0  0  0  0  0
  151.0434  143.1187  159.9226 H   0  0  0  0  0  0  0  0  0  0  0  0
  152.1691  144.3622  159.4079 H   0  0  0  0  0  0  0  0  0  0  0  0
  153.8532  142.7994  159.0551 H   0  0  0  0  0  0  0  0  0  0  0  0
  151.4671  141.3599  158.8350 H   0  0  0  0  0  0  0  0  0  0  0  0
  149.1420  139.1298  153.8064 H   0  0  0  0  0  0  0  0  0  0  0  0
  149.5463  140.8501  153.6809 H   0  0  0  0  0  0  0  0  0  0  0  0
  148.4860  140.2834  154.9776 H   0  0  0  0  0  0  0  0  0  0  0  0
  154.7214  142.4551  161.1321 H   0  0  0  0  0  0  0  0  0  0  0  0
  153.8800  140.9171  161.1696 H   0  0  0  0  0  0  0  0  0  0  0  0
  1  2  1  0  0  0  0
  1 18  1  0  0  0  0
  1 19  1  0  0  0  0
  1 20  1  0  0  0  0
  2  3  1  0  0  0  0
  3 17  1  0  0  0  0
  3  4  1  0  0  0  0
  3 21  1  0  0  0  0
  4  5  1  0  0  0  0
  4 22  1  0  0  0  0
  4 23  1  0  0  0  0
  5  6  1  0  0  0  0
  5 24  1  0  0  0  0
  5 25  1  0  0  0  0
  6  7  1  0  0  0  0
  6 17  1  0  0  0  0
  6 26  1  0  0  0  0
  7  8  1  0  0  0  0
  7 27  1  0  0  0  0
  8  9  2  0  0  0  0
  8 10  1  0  0  0  0
 10 11  1  0  0  0  0
 11 16  1  0  0  0  0
 11 12  2  0  0  0  0
 12 13  1  0  0  0  0
 13 14  1  0  0  0  0
 13 15  2  0  0  0  0
 14 28  1  0  0  0  0
 14 29  1  0  0  0  0
 14 30  1  0  0  0  0
 15 16  1  0  0  0  0
 17 31  1  0  0  0  0
 17 32  1  0  0  0  0
M  CHG  1  10  -1
M  END
> <s_m_source_file>
AV-unprocessed.smi

> <i_m_source_file_index>
2492

> <i_lp_mmshare_version>
43012

> <i_f3d_flags>
0

> <s_epik_input>
W0NIM11TW0NAQEhdMVtDSDJdW0NIMl1bQ0BIXShbQ0gyXTEpW05IXUMoPU8pW05IXWMybmMoW0NIM10pbm8y

> <s_epik_cmdline>
J2VwaWtfcHl0aG9uJywgJy1waCcsICc3LjAnLCAnLXRuJywgJzgnLCAnLW1hJywgJzIwMCcsICctbWV0YWxfYmluZGluZycsICctaW1hZScsICc8aW5maWxlLm1hZT4nLCAnLW9tYWUnLCAnPG91dGZpbGUubWFlPic=

> <r_lp_tautomer_probability>
1

> <r_epik_Ionization_Penalty>
6.26454

> <r_epik_Ionization_Penalty_Charging>
6.26445

> <r_epik_Ionization_Penalty_Neutral>
9.05726e-05

> <r_epik_State_Penalty>
6.26444

> <r_epik_Charging_Adjusted_Penalty>
12.5289

> <i_epik_Tot_Q>
-1

> <i_epik_Tot_abs_Q>
1

> <r_epik_Metal_State_Penalty>
2.20125

> <b_epik_Metal_Only>
1

> <s_lp_Force_Field>
OPLS_2005

> <r_lp_Energy>
10.5143

> <b_lp_Chiralities_Consistent>
1

> <s_lp_Variant>
AV-unprocessed.smi:2492-8

> <Gold.Version>
5.8.1

> <Gold.Id.Protein>
6NUR|6NUR_protein|mol2

> <Gold.PLP.Fitness>
42.5912

> <Gold.PLP.PLP>
-38.2747

> <Gold.PLP.part.hbond>
-3.0000

> <Gold.PLP.part.metal>
0.0000

> <Gold.PLP.part.buried>
-5.0837

> <Gold.PLP.part.nonpolar>
-29.4516

> <Gold.PLP.part.repulsive>
0.1741

> <Gold.PLP.ligand.clash>
0.0000

> <Gold.PLP.ligand.torsion>
1.9705

> <Gold.PLP.Chemscore.Hbond>
2.7440

> <Gold.PLP.Chemscore.CHOScore>
0.0000

> <Gold.PLP.Chemscore.Metal>
0.0000

> <Gold.Chemscore.Hbonds>
donor molecule, donor type, donor heavy atom, donor atom, acceptor molecule, acceptor atom, score
      P1  H  7989  7998       L1    15  1.00
      P1  H  7997  8008       L1    16  0.93
      P1  H  7997  8010       L1     9  0.82

> <Gold.PLP.Chemscore.Internal.Correction>
0.0255

> <Gold.Rescore>
     Score         DG    S(hbond)    S(metal)    S(lipo)     H(rot)  DE(clash)    DE(int)     intcor
     17.09     -20.77       2.48        0.00      87.67       1.27       0.90       2.77       ----

> <Gold.Chemscore.Fitness>
17.0928

> <Gold.Chemscore.DG>
-20.7713

> <Gold.Chemscore.ZeroCoef>
-5.4800

> <Gold.Chemscore.Hbond>
2.4816

> <Gold.Chemscore.Metal>
0.0000

> <Gold.Chemscore.Lipo>
87.6670

> <Gold.Chemscore.Internal_Hbond>
0.0000

> <Gold.Chemscore.DEClash>
0.9038

> <Gold.Chemscore.DEInternal>
2.7747

> <Gold.Chemscore.Rot>
1.2712

> <Gold.Chemscore.Internal.Correction>
   9.000000E+99

> <Gold.Chemscore.Hbonds>
donor molecule, donor type, donor heavy atom, donor atom, acceptor molecule, acceptor atom, score
      P1  H  7989  7998       L1    15  0.38
      P1  H  7997  8008       L1    16  0.83
      P1  H  7997  8010       L1     9  0.51

> <Gold.Chemscore.Hbond.Weighted>
-8.2885

> <Gold.Chemscore.Metal.Weighted>
-0.0000

> <Gold.Chemscore.Lipo.Weighted>
-10.2570

> <Gold.Chemscore.Internal_Hbond.Weighted>
0.0000

> <Gold.Chemscore.DEClash.Weighted>
0.9038

> <Gold.Chemscore.DEInternal.Weighted>
2.7747

> <Gold.Chemscore.Rot.Weighted>
3.2542

> <Gold.Chemscore.Internal.Correction.Weighted>
   9.000000E+99

> <Gold.Protein.RotatedTorsions>
[ 6907 6896 6895 6894 ] final -146.35 input  -60.11 | X-H torsion
[ 7974 7965 7964 7962 ] final   26.86 input  175.53 | X-H torsion
[ 8008 7997 7996 7995 ] final  -12.11 input   59.86 | X-H torsion
[ 10167 10162 10161 10158 ] final  -62.79 input  -65.29 | X-H torsion
[ 10718 10713 10712 10709 ] final  143.88 input   66.30 | X-H torsion
[ 10763 10752 10751 10750 ] final   45.87 input  -60.55 | X-H torsion
[ 11005 11000 10999 10996 ] final   33.80 input  -57.11 | X-H torsion

> <Gold.Protein.ActiveResidues>
 VAL166  LYS551  ARG553  GLY616  TRP617  ASP618  TYR619  PRO620  LYS621  CYS622 
 ASP623  PHE694  ASN695  SER759  ASP760  ASP761  ALA762  ILE779  LEU786  VAL792 
 PHE793  MET794  SER795  GLU796  ALA797  LYS798  CYS799  TRP800  GLU811  SER814 

> <Gold.Protein.RotatedAtoms>
  151.1404  133.4975  159.2596 H   0  0  0  0  0  0  0  0  0  0  0  0  # atno 6907 bound_to 6896
  151.1661  135.0296  159.8741 H   0  0  0  0  0  0  0  0  0  0  0  0  # atno 6908 bound_to 6896
  152.5462  134.1273  159.8477 H   0  0  0  0  0  0  0  0  0  0  0  0  # atno 6909 bound_to 6896
  146.1815  139.7271  142.8897 H   0  0  0  0  0  0  0  0  0  0  0  0  # atno 7974 bound_to 7965
  154.5406  140.2285  155.8647 H   0  0  0  0  0  0  0  0  0  0  0  0  # atno 8008 bound_to 7997
  156.1855  140.3090  155.9191 H   0  0  0  0  0  0  0  0  0  0  0  0  # atno 8009 bound_to 7997
  155.3265  140.0443  157.3032 H   0  0  0  0  0  0  0  0  0  0  0  0  # atno 8010 bound_to 7997
  140.5915  143.2342  151.6128 H   0  0  0  0  0  0  0  0  0  0  0  0  # atno 10167 bound_to 10162
  157.3637  131.0969  151.0891 H   0  0  0  0  0  0  0  0  0  0  0  0  # atno 10718 bound_to 10713
  152.9818  135.6026  154.3507 H   0  0  0  0  0  0  0  0  0  0  0  0  # atno 10763 bound_to 10752
  154.3196  135.2770  155.2528 H   0  0  0  0  0  0  0  0  0  0  0  0  # atno 10764 bound_to 10752
  154.4700  135.5944  153.6371 H   0  0  0  0  0  0  0  0  0  0  0  0  # atno 10765 bound_to 10752
  140.2594  134.3210  155.7863 H   0  0  0  0  0  0  0  0  0  0  0  0  # atno 11005 bound_to 11000
  145.4061  141.0391  143.3043 LP  0  0  0  0  0  0  0  0  0  0  0  0  # atno 17320 bound_to 7965
  144.8324  139.5607  143.6938 LP  0  0  0  0  0  0  0  0  0  0  0  0  # atno 17321 bound_to 7965
  139.5231  144.3144  152.0965 LP  0  0  0  0  0  0  0  0  0  0  0  0  # atno 17342 bound_to 10162
  140.2309  144.4369  150.6300 LP  0  0  0  0  0  0  0  0  0  0  0  0  # atno 17343 bound_to 10162
  157.2021  130.6399  149.5742 LP  0  0  0  0  0  0  0  0  0  0  0  0  # atno 17370 bound_to 10713
  155.9742  130.4687  150.6370 LP  0  0  0  0  0  0  0  0  0  0  0  0  # atno 17371 bound_to 10713
  141.2192  133.7400  156.9162 LP  0  0  0  0  0  0  0  0  0  0  0  0  # atno 17394 bound_to 11000
  140.1480  134.9249  157.2555 LP  0  0  0  0  0  0  0  0  0  0  0  0  # atno 17395 bound_to 11000

$$$$
