AV-unprocessed.smi:155|AV-procd|sdf|1267|dock10
  -GOLD-   2262018523D 1   1.00000     0.00000
 Structure written by MMmdl.
 63 66  0  0  0  0  0  0  0  0  2 V2000
  147.8160  136.0444  161.7252 C   0  0  0  0  0  0  0  0  0  0  0  0
  146.7092  135.5906  160.8900 N   0  0  0  0  0  0  0  0  0  0  0  0
  146.6860  134.1341  160.9167 C   0  0  0  0  0  0  0  0  0  0  0  0
  146.8513  136.0415  159.5057 C   0  0  0  0  0  0  0  0  0  0  0  0
  147.8582  135.2090  158.6731 C   0  0  0  0  0  0  0  0  0  0  0  0
  148.0387  135.6562  157.2658 N   0  3  2  0  0  0  0  0  0  0  0  0
  146.7750  136.0440  156.5795 C   0  0  0  0  0  0  0  0  0  0  0  0
  146.9690  136.5129  155.1219 C   0  0  0  0  0  0  0  0  0  0  0  0
  148.1024  137.5379  154.9186 C   0  0  0  0  0  0  0  0  0  0  0  0
  149.4083  137.0407  155.3601 N   0  0  0  0  0  0  0  0  0  0  0  0
  150.3378  137.9256  155.8062 C   0  0  0  0  0  0  0  0  0  0  0  0
  151.5821  137.4603  156.0932 N   0  0  0  0  0  0  0  0  0  0  0  0
  152.5298  138.2878  156.5428 C   0  0  0  0  0  0  0  0  0  0  0  0
  152.4514  139.5998  156.7691 N   0  0  0  0  0  0  0  0  0  0  0  0
  151.2106  140.0785  156.4700 C   0  0  0  0  0  0  0  0  0  0  0  0
  150.1053  139.3217  155.9855 C   0  0  0  0  0  0  0  0  0  0  0  0
  149.0194  140.1659  155.7759 N   0  0  0  0  0  0  0  0  0  0  0  0
  149.4501  141.3439  156.1366 C   0  0  0  0  0  0  0  0  0  0  0  0
  150.7554  141.3803  156.5687 N   0  0  0  0  0  0  0  0  0  0  0  0
  151.4917  142.5451  157.0291 C   0  0  0  0  0  0  0  0  0  0  0  0
  151.0019  143.0423  158.4087 C   0  0  2  0  0  0  0  0  0  0  0  0
  150.0072  144.0225  158.1760 O   0  0  0  0  0  0  0  0  0  0  0  0
  152.0991  143.7053  159.2730 C   0  0  2  0  0  0  0  0  0  0  0  0
  153.2344  142.7691  159.7286 C   0  0  0  0  0  0  0  0  0  0  0  0
  152.8252  142.3616  161.1256 C   0  0  0  0  0  0  0  0  0  0  0  0
  152.1791  143.6429  161.6227 C   0  0  0  0  0  0  0  0  0  0  0  0
  151.4755  144.1315  160.4893 O   0  0  0  0  0  0  0  0  0  0  0  0
  149.6958  135.6046  155.3454 C   0  0  0  0  0  0  0  0  0  0  0  0
  148.9669  134.8144  156.4618 C   0  0  0  0  0  0  0  0  0  0  0  0
  147.8367  137.1299  161.8093 H   0  0  0  0  0  0  0  0  0  0  0  0
  148.7769  135.7123  161.3291 H   0  0  0  0  0  0  0  0  0  0  0  0
  147.7140  135.6498  162.7370 H   0  0  0  0  0  0  0  0  0  0  0  0
  145.8520  133.7510  160.3276 H   0  0  0  0  0  0  0  0  0  0  0  0
  146.5599  133.7710  161.9377 H   0  0  0  0  0  0  0  0  0  0  0  0
  147.6095  133.7126  160.5163 H   0  0  0  0  0  0  0  0  0  0  0  0
  145.8711  136.0013  159.0277 H   0  0  0  0  0  0  0  0  0  0  0  0
  147.1423  137.0921  159.4883 H   0  0  0  0  0  0  0  0  0  0  0  0
  148.8285  135.1246  159.1605 H   0  0  0  0  0  0  0  0  0  0  0  0
  147.4824  134.1862  158.6254 H   0  0  0  0  0  0  0  0  0  0  0  0
  146.0769  135.2086  156.5740 H   0  0  0  0  0  0  0  0  0  0  0  0
  146.3051  136.8415  157.1564 H   0  0  0  0  0  0  0  0  0  0  0  0
  147.1314  135.6491  154.4768 H   0  0  0  0  0  0  0  0  0  0  0  0
  146.0341  136.9509  154.7709 H   0  0  0  0  0  0  0  0  0  0  0  0
  148.1697  137.8111  153.8650 H   0  0  0  0  0  0  0  0  0  0  0  0
  147.8504  138.4480  155.4651 H   0  0  0  0  0  0  0  0  0  0  0  0
  153.4871  137.8334  156.7521 H   0  0  0  0  0  0  0  0  0  0  0  0
  148.8241  142.2236  156.1007 H   0  0  0  0  0  0  0  0  0  0  0  0
  152.5442  142.2683  157.0569 H   0  0  0  0  0  0  0  0  0  0  0  0
  151.3965  143.3360  156.2837 H   0  0  0  0  0  0  0  0  0  0  0  0
  150.5535  142.2122  158.9563 H   0  0  0  0  0  0  0  0  0  0  0  0
  149.8940  144.1128  157.2417 H   0  0  0  0  0  0  0  0  0  0  0  0
  152.5232  144.5649  158.7512 H   0  0  0  0  0  0  0  0  0  0  0  0
  153.4166  141.9121  159.0841 H   0  0  0  0  0  0  0  0  0  0  0  0
  154.1668  143.3331  159.7809 H   0  0  0  0  0  0  0  0  0  0  0  0
  152.0905  141.5561  161.0855 H   0  0  0  0  0  0  0  0  0  0  0  0
  153.6634  142.0367  161.7424 H   0  0  0  0  0  0  0  0  0  0  0  0
  151.5127  143.4803  162.4703 H   0  0  0  0  0  0  0  0  0  0  0  0
  152.9384  144.3698  161.9150 H   0  0  0  0  0  0  0  0  0  0  0  0
  149.3895  135.2163  154.3736 H   0  0  0  0  0  0  0  0  0  0  0  0
  150.7697  135.4213  155.3874 H   0  0  0  0  0  0  0  0  0  0  0  0
  149.7277  134.3978  157.1229 H   0  0  0  0  0  0  0  0  0  0  0  0
  148.4326  133.9616  156.0411 H   0  0  0  0  0  0  0  0  0  0  0  0
  148.5386  136.5289  157.3601 H   0  0  0  0  0  0  0  0  0  0  0  0
  1  2  1  0  0  0  0
  1 30  1  0  0  0  0
  1 31  1  0  0  0  0
  1 32  1  0  0  0  0
  2  3  1  0  0  0  0
  2  4  1  0  0  0  0
  3 33  1  0  0  0  0
  3 34  1  0  0  0  0
  3 35  1  0  0  0  0
  4  5  1  0  0  0  0
  4 36  1  0  0  0  0
  4 37  1  0  0  0  0
  5  6  1  0  0  0  0
  5 38  1  0  0  0  0
  5 39  1  0  0  0  0
  6 29  1  0  0  0  0
  6  7  1  0  0  0  0
  6 63  1  0  0  0  0
  7  8  1  0  0  0  0
  7 40  1  0  0  0  0
  7 41  1  0  0  0  0
  8  9  1  0  0  0  0
  8 42  1  0  0  0  0
  8 43  1  0  0  0  0
  9 10  1  0  0  0  0
  9 44  1  0  0  0  0
  9 45  1  0  0  0  0
 10 11  1  0  0  0  0
 10 28  1  0  0  0  0
 11 16  1  0  0  0  0
 11 12  2  0  0  0  0
 12 13  1  0  0  0  0
 13 14  2  0  0  0  0
 13 46  1  0  0  0  0
 14 15  1  0  0  0  0
 15 19  1  0  0  0  0
 15 16  2  0  0  0  0
 16 17  1  0  0  0  0
 17 18  2  0  0  0  0
 18 19  1  0  0  0  0
 18 47  1  0  0  0  0
 19 20  1  0  0  0  0
 20 21  1  0  0  0  0
 20 48  1  0  0  0  0
 20 49  1  0  0  0  0
 21 22  1  0  0  0  0
 21 23  1  0  0  0  0
 21 50  1  0  0  0  0
 22 51  1  0  0  0  0
 23 27  1  0  0  0  0
 23 24  1  0  0  0  0
 23 52  1  0  0  0  0
 24 25  1  0  0  0  0
 24 53  1  0  0  0  0
 24 54  1  0  0  0  0
 25 26  1  0  0  0  0
 25 55  1  0  0  0  0
 25 56  1  0  0  0  0
 26 27  1  0  0  0  0
 26 57  1  0  0  0  0
 26 58  1  0  0  0  0
 28 29  1  0  0  0  0
 28 59  1  0  0  0  0
 28 60  1  0  0  0  0
 29 61  1  0  0  0  0
 29 62  1  0  0  0  0
M  CHG  1   6   1
M  END
> <s_m_source_file>
AV-unprocessed.smi

> <i_m_source_file_index>
155

> <i_lp_mmshare_version>
43012

> <i_f3d_flags>
0

> <s_epik_input>
W0NIM11OKFtDSDNdKVtDSDJdW0NIMl1OMVtDSDJdW0NIMl1bQ0gyXU4oW0NIMl1bQ0gyXTEpYyhuW2NIXW4yKWMoYzIzKW5bY0hdbjNbQ0gyXVtDQEhdKFtPSF0pW0NAQEhdNFtDSDJdW0NIMl1bQ0gyXU80

> <s_epik_cmdline>
J2VwaWtfcHl0aG9uJywgJy1waCcsICc3LjAnLCAnLXRuJywgJzgnLCAnLW1hJywgJzIwMCcsICctbWV0YWxfYmluZGluZycsICctaW1hZScsICc8aW5maWxlLm1hZT4nLCAnLW9tYWUnLCAnPG91dGZpbGUubWFlPic=

> <r_epik_Ionization_Penalty>
0.0619615

> <r_epik_Ionization_Penalty_Charging>
0.0161638

> <r_epik_Ionization_Penalty_Neutral>
0.0457976

> <r_epik_State_Penalty>
0.403408

> <r_epik_Charging_Adjusted_Penalty>
0.419572

> <i_epik_Tot_Q>
1

> <i_epik_Tot_abs_Q>
1

> <r_epik_Metal_State_Penalty>
0.404222

> <b_epik_Metal_Only>
0

> <s_lp_Force_Field>
OPLS_2005

> <r_lp_Energy>
58.592

> <b_lp_Chiralities_Consistent>
1

> <s_lp_Variant>
AV-unprocessed.smi:155-1

> <Gold.Version>
5.8.1

> <Gold.Id.Protein>
6NUR|6NUR_protein|mol2

> <Gold.PLP.Fitness>
48.0961

> <Gold.PLP.PLP>
-40.6767

> <Gold.PLP.part.hbond>
-3.0000

> <Gold.PLP.part.metal>
0.0000

> <Gold.PLP.part.buried>
-7.1256

> <Gold.PLP.part.nonpolar>
-31.4161

> <Gold.PLP.part.repulsive>
0.1615

> <Gold.PLP.ligand.clash>
0.0000

> <Gold.PLP.ligand.torsion>
0.7952

> <Gold.PLP.Chemscore.Hbond>
1.9500

> <Gold.PLP.Chemscore.CHOScore>
1.0000

> <Gold.PLP.Chemscore.Metal>
0.0000

> <Gold.Chemscore.Hbonds>
donor molecule, donor type, donor heavy atom, donor atom, acceptor molecule, acceptor atom, score
      L1  H    22    51       P1  8028  1.00
      P1  H  7997  8009       L1    14  1.00
      L1  C    18    47       P1  8028  1.00

> <Gold.PLP.Chemscore.Internal.Correction>
0.1599

> <Gold.Rescore>
     Score         DG    S(hbond)    S(metal)    S(lipo)     H(rot)  DE(clash)    DE(int)     intcor
     12.23     -15.55       1.46        0.00     102.08       2.63       1.43       1.89       ----

> <Gold.Chemscore.Fitness>
12.2307

> <Gold.Chemscore.DG>
-15.5537

> <Gold.Chemscore.ZeroCoef>
-5.4800

> <Gold.Chemscore.Hbond>
1.4579

> <Gold.Chemscore.Metal>
0.0000

> <Gold.Chemscore.Lipo>
102.0794

> <Gold.Chemscore.Internal_Hbond>
0.0000

> <Gold.Chemscore.DEClash>
1.4307

> <Gold.Chemscore.DEInternal>
1.8922

> <Gold.Chemscore.Rot>
2.6324

> <Gold.Chemscore.Internal.Correction>
   9.000000E+99

> <Gold.Chemscore.Hbonds>
donor molecule, donor type, donor heavy atom, donor atom, acceptor molecule, acceptor atom, score
      L1  H    22    51       P1  8028  0.62
      P1  H  7997  8009       L1    14  0.25

> <Gold.Chemscore.Hbond.Weighted>
-4.8693

> <Gold.Chemscore.Metal.Weighted>
-0.0000

> <Gold.Chemscore.Lipo.Weighted>
-11.9433

> <Gold.Chemscore.Internal_Hbond.Weighted>
0.0000

> <Gold.Chemscore.DEClash.Weighted>
1.4307

> <Gold.Chemscore.DEInternal.Weighted>
1.8922

> <Gold.Chemscore.Rot.Weighted>
6.7389

> <Gold.Chemscore.Internal.Correction.Weighted>
   9.000000E+99

> <Gold.Protein.RotatedTorsions>
[ 6907 6896 6895 6894 ] final   97.67 input  -60.11 | X-H torsion
[ 7974 7965 7964 7962 ] final -126.55 input  175.53 | X-H torsion
[ 8008 7997 7996 7995 ] final -170.83 input   59.86 | X-H torsion
[ 10167 10162 10161 10158 ] final -130.00 input  -65.29 | X-H torsion
[ 10718 10713 10712 10709 ] final -154.05 input   66.30 | X-H torsion
[ 10763 10752 10751 10750 ] final  178.21 input  -60.55 | X-H torsion
[ 11005 11000 10999 10996 ] final -112.16 input  -57.11 | X-H torsion

> <Gold.Protein.ActiveResidues>
 VAL166  LYS551  ARG553  GLY616  TRP617  ASP618  TYR619  PRO620  LYS621  CYS622 
 ASP623  PHE694  ASN695  SER759  ASP760  ASP761  ALA762  ILE779  LEU786  VAL792 
 PHE793  MET794  SER795  GLU796  ALA797  LYS798  CYS799  TRP800  GLU811  SER814 

> <Gold.Protein.RotatedAtoms>
  152.5420  134.0698  159.8188 H   0  0  0  0  0  0  0  0  0  0  0  0  # atno 6907 bound_to 6896
  151.0814  133.5380  159.2628 H   0  0  0  0  0  0  0  0  0  0  0  0  # atno 6908 bound_to 6896
  151.2206  135.0525  159.9002 H   0  0  0  0  0  0  0  0  0  0  0  0  # atno 6909 bound_to 6896
  144.9861  140.7688  143.4582 H   0  0  0  0  0  0  0  0  0  0  0  0  # atno 7974 bound_to 7965
  155.9236  140.1078  157.1188 H   0  0  0  0  0  0  0  0  0  0  0  0  # atno 8008 bound_to 7997
  154.4058  140.1251  156.4776 H   0  0  0  0  0  0  0  0  0  0  0  0  # atno 8009 bound_to 7997
  155.7166  140.3470  155.4999 H   0  0  0  0  0  0  0  0  0  0  0  0  # atno 8010 bound_to 7997
  139.9339  143.6240  152.2522 H   0  0  0  0  0  0  0  0  0  0  0  0  # atno 10167 bound_to 10162
  156.4940  130.8361  151.2582 H   0  0  0  0  0  0  0  0  0  0  0  0  # atno 10718 bound_to 10713
  154.5047  135.2785  155.1392 H   0  0  0  0  0  0  0  0  0  0  0  0  # atno 10763 bound_to 10752
  154.3011  135.6248  153.5429 H   0  0  0  0  0  0  0  0  0  0  0  0  # atno 10764 bound_to 10752
  152.9908  135.5697  154.5498 H   0  0  0  0  0  0  0  0  0  0  0  0  # atno 10765 bound_to 10752
  141.0692  133.9408  157.2519 H   0  0  0  0  0  0  0  0  0  0  0  0  # atno 11005 bound_to 11000
  145.2351  139.2097  143.5022 LP  0  0  0  0  0  0  0  0  0  0  0  0  # atno 17320 bound_to 7965
  146.3420  140.2236  142.8592 LP  0  0  0  0  0  0  0  0  0  0  0  0  # atno 17321 bound_to 7965
  139.6760  144.7658  151.1696 LP  0  0  0  0  0  0  0  0  0  0  0  0  # atno 17342 bound_to 10162
  140.7630  143.5795  150.8910 LP  0  0  0  0  0  0  0  0  0  0  0  0  # atno 17343 bound_to 10162
  157.7470  131.0004  150.2924 LP  0  0  0  0  0  0  0  0  0  0  0  0  # atno 17370 bound_to 10713
  156.3398  130.3813  149.7419 LP  0  0  0  0  0  0  0  0  0  0  0  0  # atno 17371 bound_to 10713
  139.9506  135.0176  156.8983 LP  0  0  0  0  0  0  0  0  0  0  0  0  # atno 17394 bound_to 11000
  140.5710  134.0444  155.7430 LP  0  0  0  0  0  0  0  0  0  0  0  0  # atno 17395 bound_to 11000

$$$$
