AV-unprocessed.smi:262|AV-procd|sdf|2000|dock3
  -GOLD-   2262021193D 1   1.00000     0.00000
 Structure written by MMmdl.
 60 64  0  0  0  0  0  0  0  0  2 V2000
  146.0772  136.2022  160.1498 O   0  0  0  0  0  0  0  0  0  0  0  0
  147.3396  135.5925  160.3592 C   0  0  0  0  0  0  0  0  0  0  0  0
  148.1153  135.6337  159.0192 C   0  0  0  0  0  0  0  0  0  0  0  0
  148.1953  136.9584  158.4214 N   0  0  0  0  0  0  0  0  0  0  0  0
  148.9663  138.0114  158.8584 C   0  0  0  0  0  0  0  0  0  0  0  0
  148.8658  139.1043  158.1524 N   0  0  0  0  0  0  0  0  0  0  0  0
  147.9689  138.7776  157.1420 C   0  0  0  0  0  0  0  0  0  0  0  0
  147.4133  139.4890  156.0399 C   0  0  0  0  0  0  0  0  0  0  0  0
  147.7377  140.7781  155.7530 N   0  0  0  0  0  0  0  0  0  0  0  0
  147.5393  141.7476  156.8267 C   0  0  0  0  0  0  0  0  0  0  0  0
  148.8111  141.8809  157.6825 C   0  0  0  0  0  0  0  0  0  0  0  0
  149.9939  142.2063  156.8441 N   0  3  0  0  0  0  0  0  0  0  0  0
  151.2162  142.4247  157.6591 C   0  0  0  0  0  0  0  0  0  0  0  0
  151.0189  143.4923  158.7526 C   0  0  1  0  0  0  0  0  0  0  0  0
  152.0811  143.4835  159.8353 C   0  0  0  0  0  0  0  0  0  0  0  0
  151.9425  144.8804  160.4340 C   0  0  0  0  0  0  0  0  0  0  0  0
  151.4647  145.7135  159.3814 O   0  0  0  0  0  0  0  0  0  0  0  0
  151.1497  144.9254  158.2383 C   0  0  0  0  0  0  0  0  0  0  0  0
  150.1842  141.2182  155.7482 C   0  0  0  0  0  0  0  0  0  0  0  0
  148.9006  141.0541  154.9099 C   0  0  0  0  0  0  0  0  0  0  0  0
  146.5211  138.8246  155.2577 N   0  0  0  0  0  0  0  0  0  0  0  0
  146.2041  137.5533  155.5200 C   0  0  0  0  0  0  0  0  0  0  0  0
  146.6513  136.7680  156.5011 N   0  0  0  0  0  0  0  0  0  0  0  0
  147.5362  137.4300  157.2995 C   0  0  0  0  0  0  0  0  0  0  0  0
  148.0915  136.3952  161.4400 C   0  0  0  0  0  0  0  0  0  0  0  0
  147.4488  136.2410  162.8300 C   0  0  0  0  0  0  0  0  0  0  0  0
  147.3663  134.8639  163.1764 O   0  0  0  0  0  0  0  0  0  0  0  0
  146.5292  134.1270  162.2937 C   0  0  0  0  0  0  0  0  0  0  0  0
  147.1086  134.1527  160.8680 C   0  0  0  0  0  0  0  0  0  0  0  0
  145.9599  136.8782  160.7997 H   0  0  0  0  0  0  0  0  0  0  0  0
  149.1322  135.2649  159.1612 H   0  0  0  0  0  0  0  0  0  0  0  0
  147.6500  134.9626  158.2962 H   0  0  0  0  0  0  0  0  0  0  0  0
  149.6057  137.9435  159.7268 H   0  0  0  0  0  0  0  0  0  0  0  0
  147.2919  142.7103  156.3780 H   0  0  0  0  0  0  0  0  0  0  0  0
  146.6975  141.4849  157.4659 H   0  0  0  0  0  0  0  0  0  0  0  0
  148.6603  142.6616  158.4288 H   0  0  0  0  0  0  0  0  0  0  0  0
  148.9961  140.9524  158.2251 H   0  0  0  0  0  0  0  0  0  0  0  0
  151.5035  141.4889  158.1412 H   0  0  0  0  0  0  0  0  0  0  0  0
  152.0465  142.6953  157.0051 H   0  0  0  0  0  0  0  0  0  0  0  0
  150.0373  143.3937  159.2169 H   0  0  0  0  0  0  0  0  0  0  0  0
  151.9378  142.6926  160.5722 H   0  0  0  0  0  0  0  0  0  0  0  0
  153.0735  143.3648  159.3971 H   0  0  0  0  0  0  0  0  0  0  0  0
  151.2049  144.8803  161.2373 H   0  0  0  0  0  0  0  0  0  0  0  0
  152.8841  145.2517  160.8392 H   0  0  0  0  0  0  0  0  0  0  0  0
  151.9716  145.0094  157.5255 H   0  0  0  0  0  0  0  0  0  0  0  0
  150.2420  145.2797  157.7490 H   0  0  0  0  0  0  0  0  0  0  0  0
  150.9958  141.5283  155.0915 H   0  0  0  0  0  0  0  0  0  0  0  0
  150.4786  140.2594  156.1770 H   0  0  0  0  0  0  0  0  0  0  0  0
  149.0302  140.2785  154.1541 H   0  0  0  0  0  0  0  0  0  0  0  0
  148.7051  141.9764  154.3618 H   0  0  0  0  0  0  0  0  0  0  0  0
  145.4903  137.1003  154.8478 H   0  0  0  0  0  0  0  0  0  0  0  0
  149.1227  136.0444  161.4981 H   0  0  0  0  0  0  0  0  0  0  0  0
  148.1432  137.4504  161.1676 H   0  0  0  0  0  0  0  0  0  0  0  0
  148.0530  136.7547  163.5778 H   0  0  0  0  0  0  0  0  0  0  0  0
  146.4578  136.6962  162.8594 H   0  0  0  0  0  0  0  0  0  0  0  0
  146.4649  133.0987  162.6496 H   0  0  0  0  0  0  0  0  0  0  0  0
  145.5159  134.5310  162.3133 H   0  0  0  0  0  0  0  0  0  0  0  0
  146.4501  133.6019  160.1955 H   0  0  0  0  0  0  0  0  0  0  0  0
  148.0591  133.6174  160.8722 H   0  0  0  0  0  0  0  0  0  0  0  0
  149.7826  143.0907  156.4045 H   0  0  0  0  0  0  0  0  0  0  0  0
  1  2  1  0  0  0  0
  1 30  1  0  0  0  0
  2 29  1  0  0  0  0
  2  3  1  0  0  0  0
  2 25  1  0  0  0  0
  3  4  1  0  0  0  0
  3 31  1  0  0  0  0
  3 32  1  0  0  0  0
  4 24  1  0  0  0  0
  4  5  1  0  0  0  0
  5  6  2  0  0  0  0
  5 33  1  0  0  0  0
  6  7  1  0  0  0  0
  7 24  2  0  0  0  0
  7  8  1  0  0  0  0
  8  9  1  0  0  0  0
  8 21  2  0  0  0  0
  9 20  1  0  0  0  0
  9 10  1  0  0  0  0
 10 11  1  0  0  0  0
 10 34  1  0  0  0  0
 10 35  1  0  0  0  0
 11 12  1  0  0  0  0
 11 36  1  0  0  0  0
 11 37  1  0  0  0  0
 12 13  1  0  0  0  0
 12 19  1  0  0  0  0
 12 60  1  0  0  0  0
 13 14  1  0  0  0  0
 13 38  1  0  0  0  0
 13 39  1  0  0  0  0
 14 18  1  0  0  0  0
 14 15  1  0  0  0  0
 14 40  1  0  0  0  0
 15 16  1  0  0  0  0
 15 41  1  0  0  0  0
 15 42  1  0  0  0  0
 16 17  1  0  0  0  0
 16 43  1  0  0  0  0
 16 44  1  0  0  0  0
 17 18  1  0  0  0  0
 18 45  1  0  0  0  0
 18 46  1  0  0  0  0
 19 20  1  0  0  0  0
 19 47  1  0  0  0  0
 19 48  1  0  0  0  0
 20 49  1  0  0  0  0
 20 50  1  0  0  0  0
 21 22  1  0  0  0  0
 22 23  2  0  0  0  0
 22 51  1  0  0  0  0
 23 24  1  0  0  0  0
 25 26  1  0  0  0  0
 25 52  1  0  0  0  0
 25 53  1  0  0  0  0
 26 27  1  0  0  0  0
 26 54  1  0  0  0  0
 26 55  1  0  0  0  0
 27 28  1  0  0  0  0
 28 29  1  0  0  0  0
 28 56  1  0  0  0  0
 28 57  1  0  0  0  0
 29 58  1  0  0  0  0
 29 59  1  0  0  0  0
M  CHG  1  12   1
M  END
> <s_m_source_file>
AV-unprocessed.smi

> <i_m_source_file_index>
262

> <i_lp_mmshare_version>
43012

> <i_f3d_flags>
0

> <s_epik_input>
W0NIMl0xW0NIMl1PW0NIMl1bQ0gyXUMxKFtPSF0pW0NIMl1uKFtjSF1uMiljKGMyMyluW2NIXW5jM040W0NIMl1bQ0gyXU4oW0NIMl1bQ0gyXTQpW0NIMl1bQ0BASF01W0NIMl1bQ0gyXU9bQ0gyXTU=

> <s_epik_cmdline>
J2VwaWtfcHl0aG9uJywgJy1waCcsICc3LjAnLCAnLXRuJywgJzgnLCAnLW1hJywgJzIwMCcsICctbWV0YWxfYmluZGluZycsICctaW1hZScsICc8aW5maWxlLm1hZT4nLCAnLW9tYWUnLCAnPG91dGZpbGUubWFlPic=

> <r_lp_tautomer_probability>
1

> <r_epik_Ionization_Penalty>
0.010889

> <r_epik_Ionization_Penalty_Charging>
0.0108222

> <r_epik_Ionization_Penalty_Neutral>
6.6801e-05

> <r_epik_State_Penalty>
0.00829663

> <r_epik_Charging_Adjusted_Penalty>
0.0191189

> <i_epik_Tot_Q>
1

> <i_epik_Tot_abs_Q>
1

> <r_epik_Metal_State_Penalty>
0.00842341

> <b_epik_Metal_Only>
0

> <s_lp_Force_Field>
OPLS_2005

> <r_lp_Energy>
55.9789

> <b_lp_Chiralities_Consistent>
1

> <s_lp_Variant>
AV-unprocessed.smi:262-2

> <Gold.Version>
5.8.1

> <Gold.Id.Protein>
6NUR|6NUR_protein|mol2

> <Gold.PLP.Fitness>
49.0393

> <Gold.PLP.PLP>
-43.8852

> <Gold.PLP.part.hbond>
-2.0714

> <Gold.PLP.part.metal>
0.0000

> <Gold.PLP.part.buried>
-7.5711

> <Gold.PLP.part.nonpolar>
-34.9244

> <Gold.PLP.part.repulsive>
0.2644

> <Gold.PLP.ligand.clash>
0.0000

> <Gold.PLP.ligand.torsion>
0.7347

> <Gold.PLP.Chemscore.Hbond>
2.0000

> <Gold.PLP.Chemscore.CHOScore>
0.0000

> <Gold.PLP.Chemscore.Metal>
0.0000

> <Gold.Chemscore.Hbonds>
donor molecule, donor type, donor heavy atom, donor atom, acceptor molecule, acceptor atom, score
      L1  H    12    60       P1  8028  2.00

> <Gold.PLP.Chemscore.Internal.Correction>
0.6237

> <Gold.Rescore>
     Score         DG    S(hbond)    S(metal)    S(lipo)     H(rot)  DE(clash)    DE(int)     intcor
     13.54     -15.78       0.94        0.00     116.42       2.53       0.09       2.15       ----

> <Gold.Chemscore.Fitness>
13.5376

> <Gold.Chemscore.DG>
-15.7791

> <Gold.Chemscore.ZeroCoef>
-5.4800

> <Gold.Chemscore.Hbond>
0.9435

> <Gold.Chemscore.Metal>
0.0000

> <Gold.Chemscore.Lipo>
116.4240

> <Gold.Chemscore.Internal_Hbond>
0.0000

> <Gold.Chemscore.DEClash>
0.0913

> <Gold.Chemscore.DEInternal>
2.1502

> <Gold.Chemscore.Rot>
2.5288

> <Gold.Chemscore.Internal.Correction>
   9.000000E+99

> <Gold.Chemscore.Hbonds>
donor molecule, donor type, donor heavy atom, donor atom, acceptor molecule, acceptor atom, score
      L1  H    12    60       P1  8028  0.96

> <Gold.Chemscore.Hbond.Weighted>
-3.1513

> <Gold.Chemscore.Metal.Weighted>
-0.0000

> <Gold.Chemscore.Lipo.Weighted>
-13.6216

> <Gold.Chemscore.Internal_Hbond.Weighted>
0.0000

> <Gold.Chemscore.DEClash.Weighted>
0.0913

> <Gold.Chemscore.DEInternal.Weighted>
2.1502

> <Gold.Chemscore.Rot.Weighted>
6.4738

> <Gold.Chemscore.Internal.Correction.Weighted>
   9.000000E+99

> <Gold.Protein.RotatedTorsions>
[ 6907 6896 6895 6894 ] final  -13.73 input  -60.11 | X-H torsion
[ 7974 7965 7964 7962 ] final -145.76 input  175.53 | X-H torsion
[ 8008 7997 7996 7995 ] final  -98.89 input   59.86 | X-H torsion
[ 10167 10162 10161 10158 ] final  127.20 input  -65.29 | X-H torsion
[ 10718 10713 10712 10709 ] final  120.52 input   66.30 | X-H torsion
[ 10763 10752 10751 10750 ] final  -73.84 input  -60.55 | X-H torsion
[ 11005 11000 10999 10996 ] final  -50.90 input  -57.11 | X-H torsion

> <Gold.Protein.ActiveResidues>
 VAL166  LYS551  ARG553  GLY616  TRP617  ASP618  TYR619  PRO620  LYS621  CYS622 
 ASP623  PHE694  ASN695  SER759  ASP760  ASP761  ALA762  ILE779  LEU786  VAL792 
 PHE793  MET794  SER795  GLU796  ALA797  LYS798  CYS799  TRP800  GLU811  SER814 

> <Gold.Protein.RotatedAtoms>
  151.3504  135.0883  159.9400 H   0  0  0  0  0  0  0  0  0  0  0  0  # atno 6907 bound_to 6896
  152.5189  133.9358  159.7613 H   0  0  0  0  0  0  0  0  0  0  0  0  # atno 6908 bound_to 6896
  150.9733  133.6268  159.2764 H   0  0  0  0  0  0  0  0  0  0  0  0  # atno 6909 bound_to 6896
  144.8205  140.5543  143.5581 H   0  0  0  0  0  0  0  0  0  0  0  0  # atno 7974 bound_to 7965
  154.8074  140.0452  157.1318 H   0  0  0  0  0  0  0  0  0  0  0  0  # atno 8008 bound_to 7997
  154.9408  140.3052  155.5102 H   0  0  0  0  0  0  0  0  0  0  0  0  # atno 8009 bound_to 7997
  156.2968  140.2306  156.4477 H   0  0  0  0  0  0  0  0  0  0  0  0  # atno 8010 bound_to 7997
  139.5591  144.6869  151.4096 H   0  0  0  0  0  0  0  0  0  0  0  0  # atno 10167 bound_to 10162
  157.5884  131.1067  150.8047 H   0  0  0  0  0  0  0  0  0  0  0  0  # atno 10718 bound_to 10713
  154.4649  135.5884  153.6281 H   0  0  0  0  0  0  0  0  0  0  0  0  # atno 10763 bound_to 10752
  152.9827  135.6053  154.3439 H   0  0  0  0  0  0  0  0  0  0  0  0  # atno 10764 bound_to 10752
  154.3315  135.2842  155.2448 H   0  0  0  0  0  0  0  0  0  0  0  0  # atno 10765 bound_to 10752
  141.0841  133.6646  156.3799 H   0  0  0  0  0  0  0  0  0  0  0  0  # atno 11005 bound_to 11000
  145.5115  139.1479  143.3602 LP  0  0  0  0  0  0  0  0  0  0  0  0  # atno 17320 bound_to 7965
  146.2511  140.5255  142.8893 LP  0  0  0  0  0  0  0  0  0  0  0  0  # atno 17321 bound_to 7965
  140.6868  143.7955  150.7198 LP  0  0  0  0  0  0  0  0  0  0  0  0  # atno 17342 bound_to 10162
  140.1425  143.4429  152.2184 LP  0  0  0  0  0  0  0  0  0  0  0  0  # atno 17343 bound_to 10162
  156.8475  130.5069  149.5315 LP  0  0  0  0  0  0  0  0  0  0  0  0  # atno 17370 bound_to 10713
  156.0936  130.5915  150.9775 LP  0  0  0  0  0  0  0  0  0  0  0  0  # atno 17371 bound_to 10713
  140.5401  134.6128  157.5377 LP  0  0  0  0  0  0  0  0  0  0  0  0  # atno 17394 bound_to 11000
  139.9658  134.7375  156.0142 LP  0  0  0  0  0  0  0  0  0  0  0  0  # atno 17395 bound_to 11000

$$$$
