AV-unprocessed.smi:2784|AV-procd|sdf|10726|dock9
  -GOLD-   2272015163D 1   1.00000     0.00000
 Structure written by MMmdl.
 31 32  0  0  0  0  0  0  0  0  1 V2000
  150.9724  137.9230  154.6974 C   0  0  0  0  0  0  0  0  0  0  0  0
  150.8594  139.3056  154.3993 O   0  0  0  0  0  0  0  0  0  0  0  0
  149.6483  139.8903  154.8580 C   0  0  2  0  0  0  0  0  0  0  0  0
  148.4587  139.1308  154.2641 C   0  0  0  0  0  0  0  0  0  0  0  0
  147.3415  140.1662  154.2001 C   0  0  0  0  0  0  0  0  0  0  0  0
  148.0590  141.4532  153.7951 C   0  0  0  0  0  0  0  0  0  0  0  0
  149.4730  141.3571  154.4010 C   0  0  1  0  0  0  0  0  0  0  0  0
  149.6173  142.2681  155.5340 N   0  0  0  0  0  0  0  0  0  0  0  0
  150.5384  142.1555  156.5015 C   0  0  0  0  0  0  0  0  0  0  0  0
  151.3849  141.2618  156.5342 O   0  0  0  0  0  0  0  0  0  0  0  0
  150.4131  143.1368  157.4104 N   0  0  0  0  0  0  0  0  0  0  0  0
  151.1858  143.3304  158.5832 C   0  0  0  0  0  0  0  0  0  0  0  0
  152.0853  142.4862  159.0908 N   0  0  0  0  0  0  0  0  0  0  0  0
  152.5559  143.1208  160.2313 C   0  0  0  0  0  0  0  0  0  0  0  0
  151.9084  144.3236  160.3494 C   0  0  0  0  0  0  0  0  0  0  0  0
  151.0323  144.4704  159.3074 O   0  0  0  0  0  0  0  0  0  0  0  0
  151.9072  137.5382  154.2900 H   0  0  0  0  0  0  0  0  0  0  0  0
  150.1545  137.3552  154.2525 H   0  0  0  0  0  0  0  0  0  0  0  0
  150.9787  137.7416  155.7725 H   0  0  0  0  0  0  0  0  0  0  0  0
  149.5831  139.8127  155.9456 H   0  0  0  0  0  0  0  0  0  0  0  0
  148.6966  138.7968  153.2530 H   0  0  0  0  0  0  0  0  0  0  0  0
  148.1879  138.2514  154.8488 H   0  0  0  0  0  0  0  0  0  0  0  0
  146.5496  139.8891  153.5039 H   0  0  0  0  0  0  0  0  0  0  0  0
  146.8937  140.2872  155.1872 H   0  0  0  0  0  0  0  0  0  0  0  0
  148.1381  141.4921  152.7077 H   0  0  0  0  0  0  0  0  0  0  0  0
  147.5108  142.3436  154.1061 H   0  0  0  0  0  0  0  0  0  0  0  0
  150.2068  141.5964  153.6287 H   0  0  0  0  0  0  0  0  0  0  0  0
  148.9627  143.0348  155.5851 H   0  0  0  0  0  0  0  0  0  0  0  0
  149.6814  143.8135  157.2526 H   0  0  0  0  0  0  0  0  0  0  0  0
  153.3069  142.6712  160.8639 H   0  0  0  0  0  0  0  0  0  0  0  0
  151.9523  145.1315  161.0648 H   0  0  0  0  0  0  0  0  0  0  0  0
  1  2  1  0  0  0  0
  1 17  1  0  0  0  0
  1 18  1  0  0  0  0
  1 19  1  0  0  0  0
  2  3  1  0  0  0  0
  3  7  1  0  0  0  0
  3  4  1  0  0  0  0
  3 20  1  0  0  0  0
  4  5  1  0  0  0  0
  4 21  1  0  0  0  0
  4 22  1  0  0  0  0
  5  6  1  0  0  0  0
  5 23  1  0  0  0  0
  5 24  1  0  0  0  0
  6  7  1  0  0  0  0
  6 25  1  0  0  0  0
  6 26  1  0  0  0  0
  7  8  1  0  0  0  0
  7 27  1  0  0  0  0
  8  9  1  0  0  0  0
  8 28  1  0  0  0  0
  9 10  2  0  0  0  0
  9 11  1  0  0  0  0
 11 12  1  0  0  0  0
 11 29  1  0  0  0  0
 12 16  1  0  0  0  0
 12 13  2  0  0  0  0
 13 14  1  0  0  0  0
 14 15  2  0  0  0  0
 14 30  1  0  0  0  0
 15 16  1  0  0  0  0
 15 31  1  0  0  0  0
M  END
> <s_m_source_file>
AV-unprocessed.smi

> <i_m_source_file_index>
2784

> <i_lp_mmshare_version>
43012

> <i_f3d_flags>
0

> <s_epik_input>
W0NIM11PW0NAQEhdMVtDSDJdW0NIMl1bQ0gyXVtDQEhdMVtOSF1DKD1PKVtOSF1jMm5bY0hdW2NIXW8y

> <s_epik_cmdline>
J2VwaWtfcHl0aG9uJywgJy1waCcsICc3LjAnLCAnLXRuJywgJzgnLCAnLW1hJywgJzIwMCcsICctbWV0YWxfYmluZGluZycsICctaW1hZScsICc8aW5maWxlLm1hZT4nLCAnLW9tYWUnLCAnPG91dGZpbGUubWFlPic=

> <r_lp_tautomer_probability>
0.785861

> <r_epik_Ionization_Penalty>
4.58897e-05

> <r_epik_Ionization_Penalty_Charging>
0

> <r_epik_Ionization_Penalty_Neutral>
4.58897e-05

> <r_epik_State_Penalty>
0.0380021

> <r_epik_Charging_Adjusted_Penalty>
0.0380021

> <i_epik_Tot_Q>
0

> <i_epik_Tot_abs_Q>
0

> <r_epik_Metal_State_Penalty>
0.0585611

> <b_epik_Metal_Only>
0

> <s_lp_Force_Field>
OPLS_2005

> <r_lp_Energy>
17.9939

> <b_lp_Chiralities_Consistent>
1

> <s_lp_Variant>
AV-unprocessed.smi:2784-1

> <Gold.Version>
5.8.1

> <Gold.Id.Protein>
6NUR|6NUR_protein|mol2

> <Gold.PLP.Fitness>
36.9192

> <Gold.PLP.PLP>
-29.7647

> <Gold.PLP.part.hbond>
-3.0000

> <Gold.PLP.part.metal>
0.0000

> <Gold.PLP.part.buried>
-1.8170

> <Gold.PLP.part.nonpolar>
-24.1984

> <Gold.PLP.part.repulsive>
0.4742

> <Gold.PLP.ligand.clash>
0.0000

> <Gold.PLP.ligand.torsion>
0.3016

> <Gold.PLP.Chemscore.Hbond>
2.5840

> <Gold.PLP.Chemscore.CHOScore>
0.0000

> <Gold.PLP.Chemscore.Metal>
0.0000

> <Gold.Chemscore.Hbonds>
donor molecule, donor type, donor heavy atom, donor atom, acceptor molecule, acceptor atom, score
      L1  H     8    28       P1  8028  0.85
      L1  H    11    29       P1  8028  0.74
      P1  H  7989  7998       L1     2  1.00

> <Gold.PLP.Chemscore.Internal.Correction>
0.0056

> <Gold.Rescore>
     Score         DG    S(hbond)    S(metal)    S(lipo)     H(rot)  DE(clash)    DE(int)     intcor
     11.01     -15.27       1.75        0.00      62.79       1.32       0.06       4.21       ----

> <Gold.Chemscore.Fitness>
11.0057

> <Gold.Chemscore.DG>
-15.2679

> <Gold.Chemscore.ZeroCoef>
-5.4800

> <Gold.Chemscore.Hbond>
1.7453

> <Gold.Chemscore.Metal>
0.0000

> <Gold.Chemscore.Lipo>
62.7941

> <Gold.Chemscore.Internal_Hbond>
0.0000

> <Gold.Chemscore.DEClash>
0.0566

> <Gold.Chemscore.DEInternal>
4.2056

> <Gold.Chemscore.Rot>
1.3235

> <Gold.Chemscore.Internal.Correction>
   9.000000E+99

> <Gold.Chemscore.Hbonds>
donor molecule, donor type, donor heavy atom, donor atom, acceptor molecule, acceptor atom, score
      L1  H     8    28       P1  8028  0.85
      L1  H    11    29       P1  8028  0.53
      P1  H  7989  7998       L1     2  0.25

> <Gold.Chemscore.Hbond.Weighted>
-5.8292

> <Gold.Chemscore.Metal.Weighted>
-0.0000

> <Gold.Chemscore.Lipo.Weighted>
-7.3469

> <Gold.Chemscore.Internal_Hbond.Weighted>
0.0000

> <Gold.Chemscore.DEClash.Weighted>
0.0566

> <Gold.Chemscore.DEInternal.Weighted>
4.2056

> <Gold.Chemscore.Rot.Weighted>
3.3882

> <Gold.Chemscore.Internal.Correction.Weighted>
   9.000000E+99

> <Gold.Protein.RotatedTorsions>
[ 6907 6896 6895 6894 ] final  -14.79 input  -60.11 | X-H torsion
[ 7974 7965 7964 7962 ] final  119.09 input  175.53 | X-H torsion
[ 8008 7997 7996 7995 ] final   86.68 input   59.86 | X-H torsion
[ 10167 10162 10161 10158 ] final  -80.83 input  -65.29 | X-H torsion
[ 10718 10713 10712 10709 ] final -133.41 input   66.30 | X-H torsion
[ 10763 10752 10751 10750 ] final  -59.46 input  -60.55 | X-H torsion
[ 11005 11000 10999 10996 ] final  137.37 input  -57.11 | X-H torsion

> <Gold.Protein.ActiveResidues>
 VAL166  LYS551  ARG553  GLY616  TRP617  ASP618  TYR619  PRO620  LYS621  CYS622 
 ASP623  PHE694  ASN695  SER759  ASP760  ASP761  ALA762  ILE779  LEU786  VAL792 
 PHE793  MET794  SER795  GLU796  ALA797  LYS798  CYS799  TRP800  GLU811  SER814 

> <Gold.Protein.RotatedAtoms>
  151.3339  135.0848  159.9347 H   0  0  0  0  0  0  0  0  0  0  0  0  # atno 6907 bound_to 6896
  152.5228  133.9515  159.7684 H   0  0  0  0  0  0  0  0  0  0  0  0  # atno 6908 bound_to 6896
  150.9859  133.6145  159.2745 H   0  0  0  0  0  0  0  0  0  0  0  0  # atno 6909 bound_to 6896
  145.1474  139.3231  143.4584 H   0  0  0  0  0  0  0  0  0  0  0  0  # atno 7974 bound_to 7965
  155.9658  140.3389  155.6531 H   0  0  0  0  0  0  0  0  0  0  0  0  # atno 8008 bound_to 7997
  155.6739  140.0730  157.2528 H   0  0  0  0  0  0  0  0  0  0  0  0  # atno 8009 bound_to 7997
  154.4154  140.1686  156.1896 H   0  0  0  0  0  0  0  0  0  0  0  0  # atno 8010 bound_to 7997
  140.4467  143.2496  151.8548 H   0  0  0  0  0  0  0  0  0  0  0  0  # atno 10167 bound_to 10162
  156.2446  130.7116  151.0991 H   0  0  0  0  0  0  0  0  0  0  0  0  # atno 10718 bound_to 10713
  154.2540  135.6320  153.5250 H   0  0  0  0  0  0  0  0  0  0  0  0  # atno 10763 bound_to 10752
  152.9907  135.5571  154.5777 H   0  0  0  0  0  0  0  0  0  0  0  0  # atno 10764 bound_to 10752
  154.5310  135.2888  155.1154 H   0  0  0  0  0  0  0  0  0  0  0  0  # atno 10765 bound_to 10752
  140.0110  134.9439  157.0276 H   0  0  0  0  0  0  0  0  0  0  0  0  # atno 11005 bound_to 11000
  146.3498  140.1534  142.8592 LP  0  0  0  0  0  0  0  0  0  0  0  0  # atno 17320 bound_to 7965
  145.0467  140.8987  143.5020 LP  0  0  0  0  0  0  0  0  0  0  0  0  # atno 17321 bound_to 7965
  139.4793  144.5167  151.8858 LP  0  0  0  0  0  0  0  0  0  0  0  0  # atno 17342 bound_to 10162
  140.4255  144.2186  150.5887 LP  0  0  0  0  0  0  0  0  0  0  0  0  # atno 17343 bound_to 10162
  157.7190  131.0693  150.6214 LP  0  0  0  0  0  0  0  0  0  0  0  0  # atno 17370 bound_to 10713
  156.6290  130.4426  149.5794 LP  0  0  0  0  0  0  0  0  0  0  0  0  # atno 17371 bound_to 10713
  140.4555  134.1538  155.7186 LP  0  0  0  0  0  0  0  0  0  0  0  0  # atno 17394 bound_to 11000
  141.1710  133.8608  157.1569 LP  0  0  0  0  0  0  0  0  0  0  0  0  # atno 17395 bound_to 11000

$$$$
