AV-unprocessed.smi:148|AV-procd|sdf|1223|dock2
  -GOLD-   2262018413D 1   1.00000     0.00000
 Structure written by MMmdl.
 63 67  0  0  0  0  0  0  0  0  1 V2000
  147.9787  137.5687  163.1609 O   0  0  0  0  0  0  0  0  0  0  0  0
  147.7034  136.2138  162.8721 C   0  0  0  0  0  0  0  0  0  0  0  0
  146.9260  136.0664  161.5397 C   0  0  1  0  0  0  0  0  0  0  0  0
  147.8635  136.0629  160.3012 C   0  0  0  0  0  0  0  0  0  0  0  0
  147.1450  136.1405  159.0421 N   0  0  0  0  0  0  0  0  0  0  0  0
  145.8405  136.5403  158.8595 C   0  0  0  0  0  0  0  0  0  0  0  0
  145.4115  136.4904  157.6281 N   0  0  0  0  0  0  0  0  0  0  0  0
  146.5073  136.0295  156.9081 C   0  0  0  0  0  0  0  0  0  0  0  0
  146.7365  135.7089  155.5404 C   0  0  0  0  0  0  0  0  0  0  0  0
  145.8069  135.7946  154.5649 N   0  0  0  0  0  0  0  0  0  0  0  0
  145.2918  134.4529  154.2834 C   0  0  0  0  0  0  0  0  0  0  0  0
  144.0474  134.5043  153.3924 C   0  0  0  0  0  0  0  0  0  0  0  0
  144.3632  135.2688  152.1067 C   0  0  0  0  0  0  0  0  0  0  0  0
  144.8949  136.6656  152.4499 C   0  0  0  0  0  0  0  0  0  0  0  0
  146.1345  136.6265  153.3859 C   0  0  1  0  0  0  0  0  0  0  0  0
  146.5874  138.0885  153.7370 C   0  0  1  0  0  0  0  0  0  0  0  0
  147.9286  138.2583  154.4853 C   0  0  0  0  0  0  0  0  0  0  0  0
  148.4337  139.6786  154.1945 C   0  0  0  0  0  0  0  0  0  0  0  0
  147.5116  140.2463  153.1123 C   0  0  0  0  0  0  0  0  0  0  0  0
  146.7752  139.0374  152.5333 C   0  0  1  0  0  0  0  0  0  0  0  0
  147.5913  138.4499  151.5351 O   0  0  0  0  0  0  0  0  0  0  0  0
  147.9756  135.2917  155.1814 N   0  0  0  0  0  0  0  0  0  0  0  0
  148.9300  135.1635  156.1082 C   0  0  0  0  0  0  0  0  0  0  0  0
  148.8553  135.3922  157.4215 N   0  0  0  0  0  0  0  0  0  0  0  0
  147.6133  135.8280  157.7792 C   0  0  0  0  0  0  0  0  0  0  0  0
  145.9461  134.8602  161.5793 C   0  0  1  0  0  0  0  0  0  0  0  0
  146.5552  133.4947  161.8422 C   0  0  0  0  0  0  0  0  0  0  0  0
  145.3112  132.6758  162.1636 C   0  0  0  0  0  0  0  0  0  0  0  0
  144.4739  133.5587  162.9018 O   0  0  0  0  0  0  0  0  0  0  0  0
  144.8235  134.9134  162.6240 C   0  0  0  0  0  0  0  0  0  0  0  0
  148.4574  137.6119  163.9745 H   0  0  0  0  0  0  0  0  0  0  0  0
  148.6658  135.7041  162.8307 H   0  0  0  0  0  0  0  0  0  0  0  0
  147.1462  135.7736  163.6993 H   0  0  0  0  0  0  0  0  0  0  0  0
  146.3068  136.9599  161.4461 H   0  0  0  0  0  0  0  0  0  0  0  0
  148.5624  136.8975  160.3391 H   0  0  0  0  0  0  0  0  0  0  0  0
  148.4642  135.1545  160.2726 H   0  0  0  0  0  0  0  0  0  0  0  0
  145.2072  136.8549  159.6764 H   0  0  0  0  0  0  0  0  0  0  0  0
  146.0658  133.8602  153.7931 H   0  0  0  0  0  0  0  0  0  0  0  0
  145.0452  133.9422  155.2159 H   0  0  0  0  0  0  0  0  0  0  0  0
  143.7118  133.4939  153.1576 H   0  0  0  0  0  0  0  0  0  0  0  0
  143.2294  134.9916  153.9248 H   0  0  0  0  0  0  0  0  0  0  0  0
  145.1058  134.7241  151.5225 H   0  0  0  0  0  0  0  0  0  0  0  0
  143.4700  135.3472  151.4864 H   0  0  0  0  0  0  0  0  0  0  0  0
  145.1262  137.1699  151.5128 H   0  0  0  0  0  0  0  0  0  0  0  0
  144.1001  137.2446  152.9226 H   0  0  0  0  0  0  0  0  0  0  0  0
  146.9415  136.1340  152.8422 H   0  0  0  0  0  0  0  0  0  0  0  0
  145.8093  138.5306  154.3622 H   0  0  0  0  0  0  0  0  0  0  0  0
  147.8319  138.1063  155.5595 H   0  0  0  0  0  0  0  0  0  0  0  0
  148.6592  137.5389  154.1141 H   0  0  0  0  0  0  0  0  0  0  0  0
  148.4098  140.3035  155.0880 H   0  0  0  0  0  0  0  0  0  0  0  0
  149.4673  139.6460  153.8476 H   0  0  0  0  0  0  0  0  0  0  0  0
  146.7875  140.9168  153.5771 H   0  0  0  0  0  0  0  0  0  0  0  0
  148.0487  140.8244  152.3591 H   0  0  0  0  0  0  0  0  0  0  0  0
  145.8260  139.3368  152.0881 H   0  0  0  0  0  0  0  0  0  0  0  0
  148.0933  137.7540  151.9310 H   0  0  0  0  0  0  0  0  0  0  0  0
  149.8884  134.8202  155.7474 H   0  0  0  0  0  0  0  0  0  0  0  0
  145.4663  134.7881  160.6019 H   0  0  0  0  0  0  0  0  0  0  0  0
  147.1138  133.1032  160.9916 H   0  0  0  0  0  0  0  0  0  0  0  0
  147.2108  133.5013  162.7119 H   0  0  0  0  0  0  0  0  0  0  0  0
  144.7966  132.3867  161.2462 H   0  0  0  0  0  0  0  0  0  0  0  0
  145.5363  131.7706  162.7280 H   0  0  0  0  0  0  0  0  0  0  0  0
  145.1476  135.3742  163.5558 H   0  0  0  0  0  0  0  0  0  0  0  0
  143.9597  135.4713  162.2613 H   0  0  0  0  0  0  0  0  0  0  0  0
  1  2  1  0  0  0  0
  1 31  1  0  0  0  0
  2  3  1  0  0  0  0
  2 32  1  0  0  0  0
  2 33  1  0  0  0  0
  3  4  1  0  0  0  0
  3 26  1  0  0  0  0
  3 34  1  0  0  0  0
  4  5  1  0  0  0  0
  4 35  1  0  0  0  0
  4 36  1  0  0  0  0
  5 25  1  0  0  0  0
  5  6  1  0  0  0  0
  6  7  2  0  0  0  0
  6 37  1  0  0  0  0
  7  8  1  0  0  0  0
  8 25  2  0  0  0  0
  8  9  1  0  0  0  0
  9 10  1  0  0  0  0
  9 22  2  0  0  0  0
 10 15  1  0  0  0  0
 10 11  1  0  0  0  0
 11 12  1  0  0  0  0
 11 38  1  0  0  0  0
 11 39  1  0  0  0  0
 12 13  1  0  0  0  0
 12 40  1  0  0  0  0
 12 41  1  0  0  0  0
 13 14  1  0  0  0  0
 13 42  1  0  0  0  0
 13 43  1  0  0  0  0
 14 15  1  0  0  0  0
 14 44  1  0  0  0  0
 14 45  1  0  0  0  0
 15 16  1  0  0  0  0
 15 46  1  0  0  0  0
 16 20  1  0  0  0  0
 16 17  1  0  0  0  0
 16 47  1  0  0  0  0
 17 18  1  0  0  0  0
 17 48  1  0  0  0  0
 17 49  1  0  0  0  0
 18 19  1  0  0  0  0
 18 50  1  0  0  0  0
 18 51  1  0  0  0  0
 19 20  1  0  0  0  0
 19 52  1  0  0  0  0
 19 53  1  0  0  0  0
 20 21  1  0  0  0  0
 20 54  1  0  0  0  0
 21 55  1  0  0  0  0
 22 23  1  0  0  0  0
 23 24  2  0  0  0  0
 23 56  1  0  0  0  0
 24 25  1  0  0  0  0
 26 30  1  0  0  0  0
 26 27  1  0  0  0  0
 26 57  1  0  0  0  0
 27 28  1  0  0  0  0
 27 58  1  0  0  0  0
 27 59  1  0  0  0  0
 28 29  1  0  0  0  0
 28 60  1  0  0  0  0
 28 61  1  0  0  0  0
 29 30  1  0  0  0  0
 30 62  1  0  0  0  0
 30 63  1  0  0  0  0
M  END
> <s_m_source_file>
AV-unprocessed.smi

> <i_m_source_file_index>
148

> <i_lp_mmshare_version>
43012

> <i_f3d_flags>
0

> <s_epik_input>
W0NIMl0xT1tDSDJdW0NIMl1bQ0BIXTFbQ0BIXShbQ0gyXVtPSF0pW0NIMl1uKFtjSF1uMiljKGMyMyluW2NIXW5jM040W0NIMl1bQ0gyXVtDSDJdW0NIMl1bQ0BIXTRbQ0BASF01W0NIMl1bQ0gyXVtDSDJdW0NASF01W09IXQ==

> <s_epik_cmdline>
J2VwaWtfcHl0aG9uJywgJy1waCcsICc3LjAnLCAnLXRuJywgJzgnLCAnLW1hJywgJzIwMCcsICctbWV0YWxfYmluZGluZycsICctaW1hZScsICc8aW5maWxlLm1hZT4nLCAnLW9tYWUnLCAnPG91dGZpbGUubWFlPic=

> <r_lp_tautomer_probability>
1

> <r_epik_Ionization_Penalty>
0.00556303

> <r_epik_Ionization_Penalty_Charging>
0

> <r_epik_Ionization_Penalty_Neutral>
0.00556303

> <r_epik_State_Penalty>
0.00401767

> <r_epik_Charging_Adjusted_Penalty>
0.00401767

> <i_epik_Tot_Q>
0

> <i_epik_Tot_abs_Q>
0

> <r_epik_Metal_State_Penalty>
-0

> <b_epik_Metal_Only>
0

> <s_lp_Force_Field>
OPLS_2005

> <r_lp_Energy>
70.5845

> <b_lp_Chiralities_Consistent>
1

> <s_lp_Variant>
AV-unprocessed.smi:148-22

> <Gold.Version>
5.8.1

> <Gold.Id.Protein>
6NUR|6NUR_protein|mol2

> <Gold.PLP.Fitness>
40.0759

> <Gold.PLP.PLP>
-35.4781

> <Gold.PLP.part.hbond>
-4.0612

> <Gold.PLP.part.metal>
0.0000

> <Gold.PLP.part.buried>
-0.5250

> <Gold.PLP.part.nonpolar>
-30.2583

> <Gold.PLP.part.repulsive>
0.2128

> <Gold.PLP.ligand.clash>
0.0000

> <Gold.PLP.ligand.torsion>
1.0025

> <Gold.PLP.Chemscore.Hbond>
1.9480

> <Gold.PLP.Chemscore.CHOScore>
0.0000

> <Gold.PLP.Chemscore.Metal>
0.0000

> <Gold.Chemscore.Hbonds>
donor molecule, donor type, donor heavy atom, donor atom, acceptor molecule, acceptor atom, score
      L1  H    21    55       P1  7948  1.00
      P1  H  6931  6943       L1     1  0.45
      P1  H  7954  7966       L1    21  0.40

> <Gold.PLP.Chemscore.Internal.Correction>
0.7588

> <Gold.Rescore>
     Score         DG    S(hbond)    S(metal)    S(lipo)     H(rot)  DE(clash)    DE(int)     intcor
     11.35     -13.02       1.59        0.00      91.86       3.32       0.09       1.58       ----

> <Gold.Chemscore.Fitness>
11.3541

> <Gold.Chemscore.DG>
-13.0221

> <Gold.Chemscore.ZeroCoef>
-5.4800

> <Gold.Chemscore.Hbond>
1.5850

> <Gold.Chemscore.Metal>
0.0000

> <Gold.Chemscore.Lipo>
91.8648

> <Gold.Chemscore.Internal_Hbond>
0.0000

> <Gold.Chemscore.DEClash>
0.0908

> <Gold.Chemscore.DEInternal>
1.5772

> <Gold.Chemscore.Rot>
3.3203

> <Gold.Chemscore.Internal.Correction>
   9.000000E+99

> <Gold.Chemscore.Hbonds>
donor molecule, donor type, donor heavy atom, donor atom, acceptor molecule, acceptor atom, score
      L1  H    21    55       P1  7948  0.95
      P1  H  6931  6943       L1     1  0.18
      P1  H  7954  7966       L1    21  0.01

> <Gold.Chemscore.Hbond.Weighted>
-5.2939

> <Gold.Chemscore.Metal.Weighted>
-0.0000

> <Gold.Chemscore.Lipo.Weighted>
-10.7482

> <Gold.Chemscore.Internal_Hbond.Weighted>
0.0000

> <Gold.Chemscore.DEClash.Weighted>
0.0908

> <Gold.Chemscore.DEInternal.Weighted>
1.5772

> <Gold.Chemscore.Rot.Weighted>
8.5000

> <Gold.Chemscore.Internal.Correction.Weighted>
   9.000000E+99

> <Gold.Protein.RotatedTorsions>
[ 6907 6896 6895 6894 ] final  -51.06 input  -60.11 | X-H torsion
[ 7974 7965 7964 7962 ] final  -97.87 input  175.53 | X-H torsion
[ 8008 7997 7996 7995 ] final  -65.91 input   59.86 | X-H torsion
[ 10167 10162 10161 10158 ] final   34.23 input  -65.29 | X-H torsion
[ 10718 10713 10712 10709 ] final  -83.23 input   66.30 | X-H torsion
[ 10763 10752 10751 10750 ] final   64.19 input  -60.55 | X-H torsion
[ 11005 11000 10999 10996 ] final  -70.65 input  -57.11 | X-H torsion

> <Gold.Protein.ActiveResidues>
 VAL166  LYS551  ARG553  GLY616  TRP617  ASP618  TYR619  PRO620  LYS621  CYS622 
 ASP623  PHE694  ASN695  SER759  ASP760  ASP761  ALA762  ILE779  LEU786  VAL792 
 PHE793  MET794  SER795  GLU796  ALA797  LYS798  CYS799  TRP800  GLU811  SER814 

> <Gold.Protein.RotatedAtoms>
  150.8647  134.8007  159.7109 H   0  0  0  0  0  0  0  0  0  0  0  0  # atno 6907 bound_to 6896
  152.4672  134.5043  159.9744 H   0  0  0  0  0  0  0  0  0  0  0  0  # atno 6908 bound_to 6896
  151.5141  133.3441  159.2925 H   0  0  0  0  0  0  0  0  0  0  0  0  # atno 6909 bound_to 6896
  145.3280  140.9435  143.2678 H   0  0  0  0  0  0  0  0  0  0  0  0  # atno 7974 bound_to 7965
  154.4701  140.0923  156.7122 H   0  0  0  0  0  0  0  0  0  0  0  0  # atno 8008 bound_to 7997
  155.4748  140.3465  155.4312 H   0  0  0  0  0  0  0  0  0  0  0  0  # atno 8009 bound_to 7997
  156.1024  140.1426  156.9438 H   0  0  0  0  0  0  0  0  0  0  0  0  # atno 8010 bound_to 7997
  140.4334  144.1291  150.6163 H   0  0  0  0  0  0  0  0  0  0  0  0  # atno 10167 bound_to 10162
  156.0021  130.4659  150.4225 H   0  0  0  0  0  0  0  0  0  0  0  0  # atno 10718 bound_to 10713
  153.0046  135.5402  154.6470 H   0  0  0  0  0  0  0  0  0  0  0  0  # atno 10763 bound_to 10752
  154.5712  135.2842  155.0828 H   0  0  0  0  0  0  0  0  0  0  0  0  # atno 10764 bound_to 10752
  154.1993  135.6486  153.5135 H   0  0  0  0  0  0  0  0  0  0  0  0  # atno 10765 bound_to 10752
  141.1578  133.6796  156.6786 H   0  0  0  0  0  0  0  0  0  0  0  0  # atno 11005 bound_to 11000
  144.8886  139.4805  143.6688 LP  0  0  0  0  0  0  0  0  0  0  0  0  # atno 17320 bound_to 7965
  146.3057  139.7571  142.9058 LP  0  0  0  0  0  0  0  0  0  0  0  0  # atno 17321 bound_to 7965
  140.4401  143.2530  151.9484 LP  0  0  0  0  0  0  0  0  0  0  0  0  # atno 17342 bound_to 10162
  139.4786  144.5662  151.8160 LP  0  0  0  0  0  0  0  0  0  0  0  0  # atno 17343 bound_to 10162
  157.2280  131.0497  151.2508 LP  0  0  0  0  0  0  0  0  0  0  0  0  # atno 17370 bound_to 10713
  157.3738  130.7195  149.6583 LP  0  0  0  0  0  0  0  0  0  0  0  0  # atno 17371 bound_to 10713
  140.3120  134.8078  157.4184 LP  0  0  0  0  0  0  0  0  0  0  0  0  # atno 17394 bound_to 11000
  140.1170  134.5269  155.8216 LP  0  0  0  0  0  0  0  0  0  0  0  0  # atno 17395 bound_to 11000

$$$$
