AV-unprocessed.smi:596|AV-procd|sdf|3019|dock2
  -GOLD-   2262023523D 1   1.00000     0.00000
 Structure written by MMmdl.
 41 42  0  0  0  0  0  0  0  0  3 V2000
  153.6745  139.3699  158.5037 O   0  0  0  0  0  0  0  0  0  0  0  0
  153.5250  138.6735  159.5070 C   0  0  0  0  0  0  0  0  0  0  0  0
  152.7881  137.3290  159.3763 C   0  0  0  0  0  0  0  0  0  0  0  0
  151.6123  137.3468  158.4869 N   0  0  0  0  0  0  0  0  0  0  0  0
  151.8458  137.6395  157.1286 C   0  0  0  0  0  0  0  0  0  0  0  0
  150.8495  137.6756  156.2223 C   0  0  0  0  0  0  0  0  0  0  0  0
  151.1099  137.9653  154.8293 N   0  3  0  0  0  0  0  0  0  0  0  0
  150.4316  138.8206  154.2697 O   0  0  0  0  0  0  0  0  0  0  0  0
  151.9977  137.3479  154.2487 O   0  5  0  0  0  0  0  0  0  0  0  0
  149.5036  137.4052  156.6891 C   0  0  0  0  0  0  0  0  0  0  0  0
  149.2742  137.1204  157.9861 C   0  0  0  0  0  0  0  0  0  0  0  0
  150.3614  137.0725  158.9689 C   0  0  0  0  0  0  0  0  0  0  0  0
  150.1605  136.7967  160.1515 O   0  0  0  0  0  0  0  0  0  0  0  0
  153.9858  139.0357  160.7167 N   0  0  0  0  0  0  0  0  0  0  0  0
  154.7154  140.2633  161.0079 C   0  0  0  0  0  0  0  0  0  0  0  0
  153.8884  141.2108  161.8940 C   0  0  0  0  0  0  0  0  0  0  0  0
  153.1522  142.2708  161.0922 C   0  0  0  0  0  0  0  0  0  0  0  0
  152.5555  143.3247  161.6827 C   0  0  0  0  0  0  0  0  0  0  0  0
  151.8222  144.4221  160.9313 C   0  0  0  0  0  0  0  0  0  0  0  0
  152.1157  144.3964  159.4219 C   0  0  0  0  0  0  0  0  0  0  0  0
  152.0875  142.9632  158.8766 C   0  0  0  0  0  0  0  0  0  0  0  0
  153.1295  142.0750  159.5802 C   0  0  0  0  0  0  0  0  0  0  0  0
  153.5049  136.5740  159.0491 H   0  0  0  0  0  0  0  0  0  0  0  0
  152.4899  137.0120  160.3766 H   0  0  0  0  0  0  0  0  0  0  0  0
  152.8827  137.8182  156.8820 H   0  0  0  0  0  0  0  0  0  0  0  0
  148.6699  137.4297  156.0027 H   0  0  0  0  0  0  0  0  0  0  0  0
  148.2638  136.9219  158.3124 H   0  0  0  0  0  0  0  0  0  0  0  0
  153.8224  138.4105  161.4925 H   0  0  0  0  0  0  0  0  0  0  0  0
  155.6703  140.0303  161.4823 H   0  0  0  0  0  0  0  0  0  0  0  0
  154.9491  140.7409  160.0562 H   0  0  0  0  0  0  0  0  0  0  0  0
  153.1601  140.6441  162.4753 H   0  0  0  0  0  0  0  0  0  0  0  0
  154.5423  141.7001  162.6173 H   0  0  0  0  0  0  0  0  0  0  0  0
  152.5764  143.4209  162.7586 H   0  0  0  0  0  0  0  0  0  0  0  0
  150.7539  144.2962  161.1096 H   0  0  0  0  0  0  0  0  0  0  0  0
  152.1014  145.3909  161.3462 H   0  0  0  0  0  0  0  0  0  0  0  0
  151.3959  145.0204  158.8915 H   0  0  0  0  0  0  0  0  0  0  0  0
  153.0987  144.8306  159.2337 H   0  0  0  0  0  0  0  0  0  0  0  0
  151.0916  142.5436  159.0259 H   0  0  0  0  0  0  0  0  0  0  0  0
  152.2641  142.9629  157.8007 H   0  0  0  0  0  0  0  0  0  0  0  0
  154.1237  142.2983  159.1922 H   0  0  0  0  0  0  0  0  0  0  0  0
  152.9284  141.0281  159.3503 H   0  0  0  0  0  0  0  0  0  0  0  0
  1  2  2  0  0  0  0
  2  3  1  0  0  0  0
  2 14  1  0  0  0  0
  3  4  1  0  0  0  0
  3 23  1  0  0  0  0
  3 24  1  0  0  0  0
  4 12  1  0  0  0  0
  4  5  1  0  0  0  0
  5  6  2  0  0  0  0
  5 25  1  0  0  0  0
  6  7  1  0  0  0  0
  6 10  1  0  0  0  0
  7  8  2  0  0  0  0
  7  9  1  0  0  0  0
 10 11  2  0  0  0  0
 10 26  1  0  0  0  0
 11 12  1  0  0  0  0
 11 27  1  0  0  0  0
 12 13  2  0  0  0  0
 14 15  1  0  0  0  0
 14 28  1  0  0  0  0
 15 16  1  0  0  0  0
 15 29  1  0  0  0  0
 15 30  1  0  0  0  0
 16 17  1  0  0  0  0
 16 31  1  0  0  0  0
 16 32  1  0  0  0  0
 17 22  1  0  0  0  0
 17 18  2  0  0  0  0
 18 19  1  0  0  0  0
 18 33  1  0  0  0  0
 19 20  1  0  0  0  0
 19 34  1  0  0  0  0
 19 35  1  0  0  0  0
 20 21  1  0  0  0  0
 20 36  1  0  0  0  0
 20 37  1  0  0  0  0
 21 22  1  0  0  0  0
 21 38  1  0  0  0  0
 21 39  1  0  0  0  0
 22 40  1  0  0  0  0
 22 41  1  0  0  0  0
M  CHG  1   7   1
M  CHG  1   9  -1
M  END
> <s_m_source_file>
AV-unprocessed.smi

> <i_m_source_file_index>
596

> <i_lp_mmshare_version>
43012

> <i_f3d_flags>
0

> <s_epik_input>
Tz1jMVtjSF1bY0hdYyhbTitdKD1PKVtPLV0pW2NIXW4xW0NIMl1DKD1PKVtOSF1bQ0gyXVtDSDJdQzI9W0NIXVtDSDJdW0NIMl1bQ0gyXVtDSDJdMg==

> <s_epik_cmdline>
J2VwaWtfcHl0aG9uJywgJy1waCcsICc3LjAnLCAnLXRuJywgJzgnLCAnLW1hJywgJzIwMCcsICctbWV0YWxfYmluZGluZycsICctaW1hZScsICc8aW5maWxlLm1hZT4nLCAnLW9tYWUnLCAnPG91dGZpbGUubWFlPic=

> <r_lp_tautomer_probability>
1

> <r_epik_Ionization_Penalty>
1.81809e-08

> <r_epik_Ionization_Penalty_Charging>
7.7346e-11

> <r_epik_Ionization_Penalty_Neutral>
1.81035e-08

> <r_epik_State_Penalty>
-0

> <r_epik_Charging_Adjusted_Penalty>
7.7346e-11

> <i_epik_Tot_Q>
0

> <i_epik_Tot_abs_Q>
2

> <r_epik_Metal_State_Penalty>
-0

> <b_epik_Metal_Only>
0

> <s_lp_Force_Field>
OPLS_2005

> <r_lp_Energy>
18.9868

> <b_lp_Chiralities_Consistent>
1

> <s_lp_Variant>
AV-unprocessed.smi:596-1

> <Gold.Version>
5.8.1

> <Gold.Id.Protein>
6NUR|6NUR_protein|mol2

> <Gold.PLP.Fitness>
50.9235

> <Gold.PLP.PLP>
-42.7925

> <Gold.PLP.part.hbond>
-4.3405

> <Gold.PLP.part.metal>
0.0000

> <Gold.PLP.part.buried>
-5.0140

> <Gold.PLP.part.nonpolar>
-34.8056

> <Gold.PLP.part.repulsive>
0.3934

> <Gold.PLP.ligand.clash>
0.0000

> <Gold.PLP.ligand.torsion>
1.5561

> <Gold.PLP.Chemscore.Hbond>
3.7180

> <Gold.PLP.Chemscore.CHOScore>
0.0000

> <Gold.PLP.Chemscore.Metal>
0.0000

> <Gold.Chemscore.Hbonds>
donor molecule, donor type, donor heavy atom, donor atom, acceptor molecule, acceptor atom, score
      P1  H  6896  6907       L1    13  0.45
      P1  H  7997  8009       L1     1  1.00
      P1  H 10752 10764       L1     9  0.91

> <Gold.PLP.Chemscore.Internal.Correction>
0.0892

> <Gold.Rescore>
     Score         DG    S(hbond)    S(metal)    S(lipo)     H(rot)  DE(clash)    DE(int)     intcor
     19.95     -23.35       3.15        0.00     106.35       1.98       0.67       2.74       ----

> <Gold.Chemscore.Fitness>
19.9471

> <Gold.Chemscore.DG>
-23.3513

> <Gold.Chemscore.ZeroCoef>
-5.4800

> <Gold.Chemscore.Hbond>
3.1454

> <Gold.Chemscore.Metal>
0.0000

> <Gold.Chemscore.Lipo>
106.3545

> <Gold.Chemscore.Internal_Hbond>
0.0000

> <Gold.Chemscore.DEClash>
0.6678

> <Gold.Chemscore.DEInternal>
2.7364

> <Gold.Chemscore.Rot>
1.9835

> <Gold.Chemscore.Internal.Correction>
   9.000000E+99

> <Gold.Chemscore.Hbonds>
donor molecule, donor type, donor heavy atom, donor atom, acceptor molecule, acceptor atom, score
      P1  H  6896  6907       L1    13  0.02
      P1  H  6931  6943       L1    13  0.01
      P1  H  7989  7998       L1     8  0.02
      P1  H  7997  8009       L1     1  1.00
      P1  H 10752 10764       L1     9  0.88

> <Gold.Chemscore.Hbond.Weighted>
-10.5057

> <Gold.Chemscore.Metal.Weighted>
-0.0000

> <Gold.Chemscore.Lipo.Weighted>
-12.4435

> <Gold.Chemscore.Internal_Hbond.Weighted>
0.0000

> <Gold.Chemscore.DEClash.Weighted>
0.6678

> <Gold.Chemscore.DEInternal.Weighted>
2.7364

> <Gold.Chemscore.Rot.Weighted>
5.0778

> <Gold.Chemscore.Internal.Correction.Weighted>
   9.000000E+99

> <Gold.Protein.RotatedTorsions>
[ 6907 6896 6895 6894 ] final  -31.53 input  -60.11 | X-H torsion
[ 7974 7965 7964 7962 ] final  152.53 input  175.53 | X-H torsion
[ 8008 7997 7996 7995 ] final  144.09 input   59.86 | X-H torsion
[ 10167 10162 10161 10158 ] final  111.23 input  -65.29 | X-H torsion
[ 10718 10713 10712 10709 ] final  -44.68 input   66.30 | X-H torsion
[ 10763 10752 10751 10750 ] final  -91.01 input  -60.55 | X-H torsion
[ 11005 11000 10999 10996 ] final -155.52 input  -57.11 | X-H torsion

> <Gold.Protein.ActiveResidues>
 VAL166  LYS551  ARG553  GLY616  TRP617  ASP618  TYR619  PRO620  LYS621  CYS622 
 ASP623  PHE694  ASN695  SER759  ASP760  ASP761  ALA762  ILE779  LEU786  VAL792 
 PHE793  MET794  SER795  GLU796  ALA797  LYS798  CYS799  TRP800  GLU811  SER814 

> <Gold.Protein.RotatedAtoms>
  151.0908  134.9915  159.8401 H   0  0  0  0  0  0  0  0  0  0  0  0  # atno 6907 bound_to 6896
  152.5429  134.2067  159.8744 H   0  0  0  0  0  0  0  0  0  0  0  0  # atno 6908 bound_to 6896
  151.2104  133.4515  159.2631 H   0  0  0  0  0  0  0  0  0  0  0  0  # atno 6909 bound_to 6896
  144.8216  139.6681  143.6098 H   0  0  0  0  0  0  0  0  0  0  0  0  # atno 7974 bound_to 7965
  156.2916  140.2245  156.4997 H   0  0  0  0  0  0  0  0  0  0  0  0  # atno 8008 bound_to 7997
  154.7700  140.0467  157.1065 H   0  0  0  0  0  0  0  0  0  0  0  0  # atno 8009 bound_to 7997
  154.9886  140.3087  155.4919 H   0  0  0  0  0  0  0  0  0  0  0  0  # atno 8010 bound_to 7997
  139.6627  144.7128  151.1834 H   0  0  0  0  0  0  0  0  0  0  0  0  # atno 10167 bound_to 10162
  156.2361  130.4176  149.8816 H   0  0  0  0  0  0  0  0  0  0  0  0  # atno 10718 bound_to 10713
  154.6717  135.5283  153.8147 H   0  0  0  0  0  0  0  0  0  0  0  0  # atno 10763 bound_to 10752
  153.0505  135.6530  154.0715 H   0  0  0  0  0  0  0  0  0  0  0  0  # atno 10764 bound_to 10752
  154.0613  135.2961  155.3304 H   0  0  0  0  0  0  0  0  0  0  0  0  # atno 10765 bound_to 10752
  140.6856  134.4098  157.5223 H   0  0  0  0  0  0  0  0  0  0  0  0  # atno 11005 bound_to 11000
  146.2521  139.6223  142.9420 LP  0  0  0  0  0  0  0  0  0  0  0  0  # atno 17320 bound_to 7965
  145.5092  141.0436  143.2497 LP  0  0  0  0  0  0  0  0  0  0  0  0  # atno 17321 bound_to 7965
  140.7587  143.5968  150.8740 LP  0  0  0  0  0  0  0  0  0  0  0  0  # atno 17342 bound_to 10162
  139.9627  143.6145  152.2997 LP  0  0  0  0  0  0  0  0  0  0  0  0  # atno 17343 bound_to 10162
  156.6414  130.8706  151.3514 LP  0  0  0  0  0  0  0  0  0  0  0  0  # atno 17370 bound_to 10713
  157.7155  130.9491  150.1239 LP  0  0  0  0  0  0  0  0  0  0  0  0  # atno 17371 bound_to 10713
  139.8939  134.8720  156.2203 LP  0  0  0  0  0  0  0  0  0  0  0  0  # atno 17394 bound_to 11000
  141.0283  133.7003  156.1386 LP  0  0  0  0  0  0  0  0  0  0  0  0  # atno 17395 bound_to 11000

$$$$
