AV-unprocessed.smi:47|AV-procd|sdf|423|dock2
  -GOLD-   2262016303D 1   1.00000     0.00000
 Structure written by MMmdl.
 32 34  0  0  0  0  0  0  0  0  2 V2000
  149.6731  135.5850  154.6888 O   0  0  0  0  0  0  0  0  0  0  0  0
  150.2526  136.6213  155.4523 C   0  0  1  0  0  0  0  0  0  0  0  0
  151.1667  136.0861  156.5527 C   0  0  0  0  0  0  0  0  0  0  0  0
  152.1070  137.1840  156.8411 N   0  3  0  0  0  0  0  0  0  0  0  0
  152.1638  138.0805  155.6646 C   0  0  2  0  0  0  0  0  0  0  0  0
  151.8032  139.4851  156.0419 C   0  0  0  0  0  0  0  0  0  0  0  0
  150.8934  140.1646  155.3521 N   0  0  0  0  0  0  0  0  0  0  0  0
  150.8376  141.3263  156.0356 N   0  0  0  0  0  0  0  0  0  0  0  0
  151.6741  141.2924  157.0807 C   0  0  0  0  0  0  0  0  0  0  0  0
  151.8596  142.3846  158.0387 C   0  0  0  0  0  0  0  0  0  0  0  0
  152.3921  142.1281  159.3235 C   0  0  0  0  0  0  0  0  0  0  0  0
  152.5710  143.1779  160.2453 C   0  0  0  0  0  0  0  0  0  0  0  0
  152.2199  144.4943  159.8925 C   0  0  0  0  0  0  0  0  0  0  0  0
  151.6891  144.7602  158.6167 C   0  0  0  0  0  0  0  0  0  0  0  0
  151.5099  143.7113  157.6940 C   0  0  0  0  0  0  0  0  0  0  0  0
  152.3168  140.1252  157.1358 N   0  0  0  0  0  0  0  0  0  0  0  0
  151.1987  137.4878  154.6251 C   0  0  0  0  0  0  0  0  0  0  0  0
  149.4670  137.2400  155.8885 H   0  0  0  0  0  0  0  0  0  0  0  0
  153.1810  138.0736  155.2700 H   0  0  0  0  0  0  0  0  0  0  0  0
  150.2301  142.0886  155.7703 H   0  0  0  0  0  0  0  0  0  0  0  0
  149.3757  135.9435  153.8660 H   0  0  0  0  0  0  0  0  0  0  0  0
  150.6216  135.7744  157.4439 H   0  0  0  0  0  0  0  0  0  0  0  0
  151.7426  135.2330  156.1907 H   0  0  0  0  0  0  0  0  0  0  0  0
  151.7491  137.7211  157.6186 H   0  0  0  0  0  0  0  0  0  0  0  0
  152.6683  141.1260  159.6164 H   0  0  0  0  0  0  0  0  0  0  0  0
  152.9777  142.9727  161.2247 H   0  0  0  0  0  0  0  0  0  0  0  0
  152.3571  145.2991  160.5999 H   0  0  0  0  0  0  0  0  0  0  0  0
  151.4184  145.7700  158.3450 H   0  0  0  0  0  0  0  0  0  0  0  0
  151.1007  143.9383  156.7205 H   0  0  0  0  0  0  0  0  0  0  0  0
  151.7651  136.8512  153.9431 H   0  0  0  0  0  0  0  0  0  0  0  0
  150.6870  138.2384  154.0207 H   0  0  0  0  0  0  0  0  0  0  0  0
  153.0222  136.8233  157.0695 H   0  0  0  0  0  0  0  0  0  0  0  0
  1  2  1  0  0  0  0
  1 21  1  0  0  0  0
  2 18  1  0  0  0  0
  2 17  1  0  0  0  0
  2  3  1  0  0  0  0
  3  4  1  0  0  0  0
  3 22  1  0  0  0  0
  3 23  1  0  0  0  0
  4  5  1  0  0  0  0
  4 24  1  0  0  0  0
  4 32  1  0  0  0  0
  5 19  1  0  0  0  0
  5  6  1  0  0  0  0
  5 17  1  0  0  0  0
  6 16  1  0  0  0  0
  6  7  2  0  0  0  0
  7  8  1  0  0  0  0
  8 20  1  0  0  0  0
  8  9  1  0  0  0  0
  9 10  1  0  0  0  0
  9 16  2  0  0  0  0
 10 15  1  0  0  0  0
 10 11  2  0  0  0  0
 11 12  1  0  0  0  0
 11 25  1  0  0  0  0
 12 13  2  0  0  0  0
 12 26  1  0  0  0  0
 13 14  1  0  0  0  0
 13 27  1  0  0  0  0
 14 15  2  0  0  0  0
 14 28  1  0  0  0  0
 15 29  1  0  0  0  0
 17 30  1  0  0  0  0
 17 31  1  0  0  0  0
M  CHG  1   4   1
M  END
> <s_m_source_file>
AV-unprocessed.smi

> <i_m_source_file_index>
47

> <i_lp_mmshare_version>
43012

> <i_f3d_flags>
0

> <s_epik_input>
W09IXVtDQEhdMVtDSDJdW05IXVtDQEBIXShbQ0gyXTEpYzJuW25IXWMobjIpLWMzW2NIXVtjSF1bY0hdW2NIXVtjSF0z

> <s_epik_cmdline>
J2VwaWtfcHl0aG9uJywgJy1waCcsICc3LjAnLCAnLXRuJywgJzgnLCAnLW1hJywgJzIwMCcsICctbWV0YWxfYmluZGluZycsICctaW1hZScsICc8aW5maWxlLm1hZT4nLCAnLW9tYWUnLCAnPG91dGZpbGUubWFlPic=

> <r_lp_tautomer_probability>
0.948284

> <r_epik_Ionization_Penalty>
0.163822

> <r_epik_Ionization_Penalty_Charging>
0.0371552

> <r_epik_Ionization_Penalty_Neutral>
0.126667

> <r_epik_State_Penalty>
0.318338

> <r_epik_Charging_Adjusted_Penalty>
0.355493

> <i_epik_Tot_Q>
1

> <i_epik_Tot_abs_Q>
1

> <r_epik_Metal_State_Penalty>
0.81572

> <b_epik_Metal_Only>
0

> <s_lp_Force_Field>
OPLS_2005

> <r_lp_Energy>
24.5404

> <b_lp_Chiralities_Consistent>
1

> <s_lp_Variant>
AV-unprocessed.smi:47-1

> <Gold.Version>
5.8.1

> <Gold.Id.Protein>
6NUR|6NUR_protein|mol2

> <Gold.PLP.Fitness>
43.9071

> <Gold.PLP.PLP>
-35.8124

> <Gold.PLP.part.hbond>
-3.4650

> <Gold.PLP.part.metal>
0.0000

> <Gold.PLP.part.buried>
-4.0899

> <Gold.PLP.part.nonpolar>
-28.0659

> <Gold.PLP.part.repulsive>
0.3098

> <Gold.PLP.ligand.clash>
0.0000

> <Gold.PLP.ligand.torsion>
0.4601

> <Gold.PLP.Chemscore.Hbond>
3.0000

> <Gold.PLP.Chemscore.CHOScore>
0.0000

> <Gold.PLP.Chemscore.Metal>
0.0000

> <Gold.Chemscore.Hbonds>
donor molecule, donor type, donor heavy atom, donor atom, acceptor molecule, acceptor atom, score
      L1  H     1    21       P1  7948  0.98
      P1  H  7989  7998       L1     7  0.80
      P1  H  7997  8008       L1    16  0.78

> <Gold.PLP.Chemscore.Internal.Correction>
0.0150

> <Gold.Rescore>
     Score         DG    S(hbond)    S(metal)    S(lipo)     H(rot)  DE(clash)    DE(int)     intcor
     17.47     -18.27       1.73        0.00      92.78       1.50       0.19       0.61       ----

> <Gold.Chemscore.Fitness>
17.4712

> <Gold.Chemscore.DG>
-18.2678

> <Gold.Chemscore.ZeroCoef>
-5.4800

> <Gold.Chemscore.Hbond>
1.7255

> <Gold.Chemscore.Metal>
0.0000

> <Gold.Chemscore.Lipo>
92.7849

> <Gold.Chemscore.Internal_Hbond>
0.0000

> <Gold.Chemscore.DEClash>
0.1878

> <Gold.Chemscore.DEInternal>
0.6088

> <Gold.Chemscore.Rot>
1.4966

> <Gold.Chemscore.Internal.Correction>
   9.000000E+99

> <Gold.Chemscore.Hbonds>
donor molecule, donor type, donor heavy atom, donor atom, acceptor molecule, acceptor atom, score
      L1  H     1    21       P1  7948  0.64
      P1  H  7989  7998       L1     7  0.17
      P1  H  7997  8008       L1    16  0.21

> <Gold.Chemscore.Hbond.Weighted>
-5.7632

> <Gold.Chemscore.Metal.Weighted>
-0.0000

> <Gold.Chemscore.Lipo.Weighted>
-10.8558

> <Gold.Chemscore.Internal_Hbond.Weighted>
0.0000

> <Gold.Chemscore.DEClash.Weighted>
0.1878

> <Gold.Chemscore.DEInternal.Weighted>
0.6088

> <Gold.Chemscore.Rot.Weighted>
3.8312

> <Gold.Chemscore.Internal.Correction.Weighted>
   9.000000E+99

> <Gold.Protein.RotatedTorsions>
[ 6907 6896 6895 6894 ] final  -98.22 input  -60.11 | X-H torsion
[ 7974 7965 7964 7962 ] final  105.30 input  175.53 | X-H torsion
[ 8008 7997 7996 7995 ] final  -63.24 input   59.86 | X-H torsion
[ 10167 10162 10161 10158 ] final   28.06 input  -65.29 | X-H torsion
[ 10718 10713 10712 10709 ] final  -68.19 input   66.30 | X-H torsion
[ 10763 10752 10751 10750 ] final -147.86 input  -60.55 | X-H torsion
[ 11005 11000 10999 10996 ] final   24.59 input  -57.11 | X-H torsion

> <Gold.Protein.ActiveResidues>
 VAL166  LYS551  ARG553  GLY616  TRP617  ASP618  TYR619  PRO620  LYS621  CYS622 
 ASP623  PHE694  ASN695  SER759  ASP760  ASP761  ALA762  ILE779  LEU786  VAL792 
 PHE793  MET794  SER795  GLU796  ALA797  LYS798  CYS799  TRP800  GLU811  SER814 

> <Gold.Protein.RotatedAtoms>
  150.7040  134.1229  159.4041 H   0  0  0  0  0  0  0  0  0  0  0  0  # atno 6907 bound_to 6896
  151.9215  135.0294  160.0531 H   0  0  0  0  0  0  0  0  0  0  0  0  # atno 6908 bound_to 6896
  152.2252  133.4979  159.5221 H   0  0  0  0  0  0  0  0  0  0  0  0  # atno 6909 bound_to 6896
  145.3215  139.2511  143.3709 H   0  0  0  0  0  0  0  0  0  0  0  0  # atno 7974 bound_to 7965
  154.4543  140.0979  156.6711 H   0  0  0  0  0  0  0  0  0  0  0  0  # atno 8008 bound_to 7997
  155.5187  140.3478  155.4384 H   0  0  0  0  0  0  0  0  0  0  0  0  # atno 8009 bound_to 7997
  156.0746  140.1358  156.9776 H   0  0  0  0  0  0  0  0  0  0  0  0  # atno 8010 bound_to 7997
  140.4885  144.0504  150.6289 H   0  0  0  0  0  0  0  0  0  0  0  0  # atno 10167 bound_to 10162
  156.0518  130.4290  150.1964 H   0  0  0  0  0  0  0  0  0  0  0  0  # atno 10718 bound_to 10713
  154.8263  135.3349  154.6884 H   0  0  0  0  0  0  0  0  0  0  0  0  # atno 10763 bound_to 10752
  153.7510  135.6939  153.4950 H   0  0  0  0  0  0  0  0  0  0  0  0  # atno 10764 bound_to 10752
  153.2177  135.4460  155.0403 H   0  0  0  0  0  0  0  0  0  0  0  0  # atno 10765 bound_to 10752
  140.3570  134.2166  155.7675 H   0  0  0  0  0  0  0  0  0  0  0  0  # atno 11005 bound_to 11000
  146.3080  140.3773  142.8680 LP  0  0  0  0  0  0  0  0  0  0  0  0  # atno 17320 bound_to 7965
  144.8936  140.7554  143.5911 LP  0  0  0  0  0  0  0  0  0  0  0  0  # atno 17321 bound_to 7965
  140.3766  143.2825  152.0218 LP  0  0  0  0  0  0  0  0  0  0  0  0  # atno 17342 bound_to 10162
  139.4846  144.6188  151.7295 LP  0  0  0  0  0  0  0  0  0  0  0  0  # atno 17343 bound_to 10162
  157.0046  130.9932  151.3382 LP  0  0  0  0  0  0  0  0  0  0  0  0  # atno 17370 bound_to 10713
  157.5452  130.8146  149.8077 LP  0  0  0  0  0  0  0  0  0  0  0  0  # atno 17371 bound_to 10713
  141.1995  133.8009  157.0532 LP  0  0  0  0  0  0  0  0  0  0  0  0  # atno 17394 bound_to 11000
  140.0657  134.9730  157.1381 LP  0  0  0  0  0  0  0  0  0  0  0  0  # atno 17395 bound_to 11000

$$$$
