AV-unprocessed.smi:3303|AV-procd|sdf|12661|dock9
  -GOLD-   2272018593D 1   1.00000     0.00000
 Structure written by MMmdl.
 45 46  0  0  0  0  0  0  0  0  3 V2000
  144.3853  135.3512  152.9314 C   0  0  0  0  0  0  0  0  0  0  0  0
  145.1237  134.6673  151.7668 C   0  0  2  0  0  0  0  0  0  0  0  0
  144.1127  133.9277  150.8643 C   0  0  0  0  0  0  0  0  0  0  0  0
  144.7849  133.2482  149.7285 N   0  3  2  0  0  0  0  0  0  0  0  0
  143.8292  132.7068  148.7352 C   0  0  0  0  0  0  0  0  0  0  0  0
  145.8333  132.2801  150.1581 C   0  0  2  0  0  0  0  0  0  0  0  0
  145.2683  131.0043  150.8199 C   0  0  0  0  0  0  0  0  0  0  0  0
  146.8712  132.9909  151.0496 C   0  0  0  0  0  0  0  0  0  0  0  0
  146.2291  133.7039  152.2598 C   0  0  1  0  0  0  0  0  0  0  0  0
  147.2529  134.4416  153.0374 N   0  3  0  0  0  0  0  0  0  0  0  0
  148.4049  133.6339  153.4890 C   0  0  0  0  0  0  0  0  0  0  0  0
  147.9506  132.2499  153.9716 C   0  0  0  0  0  0  0  0  0  0  0  0
  149.1231  131.3665  154.3525 C   0  0  0  0  0  0  0  0  0  0  0  0
  150.0209  131.7564  155.3690 C   0  0  0  0  0  0  0  0  0  0  0  0
  151.0860  130.8925  155.6895 C   0  0  0  0  0  0  0  0  0  0  0  0
  151.2103  129.6789  154.9858 C   0  0  0  0  0  0  0  0  0  0  0  0
  150.2601  129.3814  153.9886 C   0  0  0  0  0  0  0  0  0  0  0  0
  149.2343  130.2022  153.6745 N   0  0  0  0  0  0  0  0  0  0  0  0
  143.9102  134.6191  153.5854 H   0  0  0  0  0  0  0  0  0  0  0  0
  143.6060  136.0190  152.5625 H   0  0  0  0  0  0  0  0  0  0  0  0
  145.0598  135.9531  153.5406 H   0  0  0  0  0  0  0  0  0  0  0  0
  145.5933  135.4491  151.1672 H   0  0  0  0  0  0  0  0  0  0  0  0
  143.5365  133.2049  151.4432 H   0  0  0  0  0  0  0  0  0  0  0  0
  143.3937  134.6460  150.4674 H   0  0  0  0  0  0  0  0  0  0  0  0
  143.1603  131.9700  149.1808 H   0  0  0  0  0  0  0  0  0  0  0  0
  144.3569  132.2374  147.9042 H   0  0  0  0  0  0  0  0  0  0  0  0
  143.2149  133.5089  148.3246 H   0  0  0  0  0  0  0  0  0  0  0  0
  146.3571  131.9615  149.2555 H   0  0  0  0  0  0  0  0  0  0  0  0
  146.0771  130.3386  151.1220 H   0  0  0  0  0  0  0  0  0  0  0  0
  144.6378  130.4384  150.1341 H   0  0  0  0  0  0  0  0  0  0  0  0
  144.6794  131.2204  151.7104 H   0  0  0  0  0  0  0  0  0  0  0  0
  147.6177  132.2674  151.3774 H   0  0  0  0  0  0  0  0  0  0  0  0
  147.4099  133.7240  150.4471 H   0  0  0  0  0  0  0  0  0  0  0  0
  145.7708  132.9641  152.9177 H   0  0  0  0  0  0  0  0  0  0  0  0
  147.5878  135.2213  152.4893 H   0  0  0  0  0  0  0  0  0  0  0  0
  149.1124  133.5224  152.6662 H   0  0  0  0  0  0  0  0  0  0  0  0
  148.9254  134.1514  154.2948 H   0  0  0  0  0  0  0  0  0  0  0  0
  147.2906  132.3511  154.8350 H   0  0  0  0  0  0  0  0  0  0  0  0
  147.3658  131.7555  153.1942 H   0  0  0  0  0  0  0  0  0  0  0  0
  149.8997  132.6933  155.8932 H   0  0  0  0  0  0  0  0  0  0  0  0
  151.7943  131.1555  156.4611 H   0  0  0  0  0  0  0  0  0  0  0  0
  152.0146  128.9920  155.2047 H   0  0  0  0  0  0  0  0  0  0  0  0
  150.3248  128.4594  153.4297 H   0  0  0  0  0  0  0  0  0  0  0  0
  146.8034  134.8048  153.8660 H   0  0  0  0  0  0  0  0  0  0  0  0
  145.2839  133.9769  149.2382 H   0  0  0  0  0  0  0  0  0  0  0  0
  1  2  1  0  0  0  0
  1 19  1  0  0  0  0
  1 20  1  0  0  0  0
  1 21  1  0  0  0  0
  2  9  1  0  0  0  0
  2  3  1  0  0  0  0
  2 22  1  0  0  0  0
  3  4  1  0  0  0  0
  3 23  1  0  0  0  0
  3 24  1  0  0  0  0
  4  5  1  0  0  0  0
  4  6  1  0  0  0  0
  4 45  1  0  0  0  0
  5 25  1  0  0  0  0
  5 26  1  0  0  0  0
  5 27  1  0  0  0  0
  6  7  1  0  0  0  0
  6  8  1  0  0  0  0
  6 28  1  0  0  0  0
  7 29  1  0  0  0  0
  7 30  1  0  0  0  0
  7 31  1  0  0  0  0
  8  9  1  0  0  0  0
  8 32  1  0  0  0  0
  8 33  1  0  0  0  0
  9 10  1  0  0  0  0
  9 34  1  0  0  0  0
 10 11  1  0  0  0  0
 10 35  1  0  0  0  0
 10 44  1  0  0  0  0
 11 12  1  0  0  0  0
 11 36  1  0  0  0  0
 11 37  1  0  0  0  0
 12 13  1  0  0  0  0
 12 38  1  0  0  0  0
 12 39  1  0  0  0  0
 13 18  1  0  0  0  0
 13 14  2  0  0  0  0
 14 15  1  0  0  0  0
 14 40  1  0  0  0  0
 15 16  2  0  0  0  0
 15 41  1  0  0  0  0
 16 17  1  0  0  0  0
 16 42  1  0  0  0  0
 17 18  2  0  0  0  0
 17 43  1  0  0  0  0
M  CHG  1   4   1
M  CHG  1  10   1
M  END
> <s_m_source_file>
AV-unprocessed.smi

> <i_m_source_file_index>
3303

> <i_lp_mmshare_version>
43012

> <i_f3d_flags>
0

> <s_epik_input>
W0NIM11bQ0BASF0xW0NIMl1OKFtDSDNdKVtDQEBIXShbQ0gzXSlbQ0gyXVtDQEhdMVtOSF1bQ0gyXVtDSDJdYzJbY0hdW2NIXVtjSF1bY0hdbjI=

> <s_epik_cmdline>
J2VwaWtfcHl0aG9uJywgJy1waCcsICc3LjAnLCAnLXRuJywgJzgnLCAnLW1hJywgJzIwMCcsICctbWV0YWxfYmluZGluZycsICctaW1hZScsICc8aW5maWxlLm1hZT4nLCAnLW9tYWUnLCAnPG91dGZpbGUubWFlPic=

> <r_epik_Ionization_Penalty>
0.0769462

> <r_epik_Ionization_Penalty_Charging>
0.0759813

> <r_epik_Ionization_Penalty_Neutral>
0.000964829

> <r_epik_State_Penalty>
0.0654373

> <r_epik_Charging_Adjusted_Penalty>
0.141419

> <i_epik_Tot_Q>
2

> <i_epik_Tot_abs_Q>
2

> <r_epik_Metal_State_Penalty>
0.0656439

> <b_epik_Metal_Only>
0

> <s_lp_Force_Field>
OPLS_2005

> <r_lp_Energy>
28.3665

> <b_lp_Chiralities_Consistent>
1

> <s_lp_Variant>
AV-unprocessed.smi:3303-5

> <Gold.Version>
5.8.1

> <Gold.Id.Protein>
6NUR|6NUR_protein|mol2

> <Gold.PLP.Fitness>
45.6304

> <Gold.PLP.PLP>
-33.9310

> <Gold.PLP.part.hbond>
-2.0000

> <Gold.PLP.part.metal>
0.0000

> <Gold.PLP.part.buried>
-2.1790

> <Gold.PLP.part.nonpolar>
-29.6437

> <Gold.PLP.part.repulsive>
0.2405

> <Gold.PLP.ligand.clash>
0.0000

> <Gold.PLP.ligand.torsion>
0.1028

> <Gold.PLP.Chemscore.Hbond>
2.9840

> <Gold.PLP.Chemscore.CHOScore>
0.9820

> <Gold.PLP.Chemscore.Metal>
0.0000

> <Gold.Chemscore.Hbonds>
donor molecule, donor type, donor heavy atom, donor atom, acceptor molecule, acceptor atom, score
      L1  H     4    45       P1  7921  1.00
      L1  H    10    35       P1  7948  1.98
      L1  C    17    43       P1 10737  0.98

> <Gold.PLP.Chemscore.Internal.Correction>
0.0071

> <Gold.Rescore>
     Score         DG    S(hbond)    S(metal)    S(lipo)     H(rot)  DE(clash)    DE(int)     intcor
     19.17     -19.37       1.80        0.00      97.45       1.37       0.11       0.09       ----

> <Gold.Chemscore.Fitness>
19.1712

> <Gold.Chemscore.DG>
-19.3742

> <Gold.Chemscore.ZeroCoef>
-5.4800

> <Gold.Chemscore.Hbond>
1.7997

> <Gold.Chemscore.Metal>
0.0000

> <Gold.Chemscore.Lipo>
97.4512

> <Gold.Chemscore.Internal_Hbond>
0.0000

> <Gold.Chemscore.DEClash>
0.1148

> <Gold.Chemscore.DEInternal>
0.0881

> <Gold.Chemscore.Rot>
1.3744

> <Gold.Chemscore.Internal.Correction>
   9.000000E+99

> <Gold.Chemscore.Hbonds>
donor molecule, donor type, donor heavy atom, donor atom, acceptor molecule, acceptor atom, score
      L1  H     4    45       P1  7921  0.83
      L1  H    10    35       P1  7948  0.94

> <Gold.Chemscore.Hbond.Weighted>
-6.0108

> <Gold.Chemscore.Metal.Weighted>
-0.0000

> <Gold.Chemscore.Lipo.Weighted>
-11.4018

> <Gold.Chemscore.Internal_Hbond.Weighted>
0.0000

> <Gold.Chemscore.DEClash.Weighted>
0.1148

> <Gold.Chemscore.DEInternal.Weighted>
0.0881

> <Gold.Chemscore.Rot.Weighted>
3.5185

> <Gold.Chemscore.Internal.Correction.Weighted>
   9.000000E+99

> <Gold.Protein.RotatedTorsions>
[ 6907 6896 6895 6894 ] final -141.94 input  -60.11 | X-H torsion
[ 7974 7965 7964 7962 ] final -134.90 input  175.53 | X-H torsion
[ 8008 7997 7996 7995 ] final  -12.64 input   59.86 | X-H torsion
[ 10167 10162 10161 10158 ] final  -80.91 input  -65.29 | X-H torsion
[ 10718 10713 10712 10709 ] final  -30.37 input   66.30 | X-H torsion
[ 10763 10752 10751 10750 ] final   47.19 input  -60.55 | X-H torsion
[ 11005 11000 10999 10996 ] final -171.95 input  -57.11 | X-H torsion

> <Gold.Protein.ActiveResidues>
 VAL166  LYS551  ARG553  GLY616  TRP617  ASP618  TYR619  PRO620  LYS621  CYS622 
 ASP623  PHE694  ASN695  SER759  ASP760  ASP761  ALA762  ILE779  LEU786  VAL792 
 PHE793  MET794  SER795  GLU796  ALA797  LYS798  CYS799  TRP800  GLU811  SER814 

> <Gold.Protein.RotatedAtoms>
  151.0805  133.5394  159.2620 H   0  0  0  0  0  0  0  0  0  0  0  0  # atno 6907 bound_to 6896
  151.2299  135.0550  159.8993 H   0  0  0  0  0  0  0  0  0  0  0  0  # atno 6908 bound_to 6896
  152.5423  134.0595  159.8199 H   0  0  0  0  0  0  0  0  0  0  0  0  # atno 6909 bound_to 6896
  144.9061  140.6835  143.5054 H   0  0  0  0  0  0  0  0  0  0  0  0  # atno 7974 bound_to 7965
  154.5360  140.2271  155.8722 H   0  0  0  0  0  0  0  0  0  0  0  0  # atno 8008 bound_to 7997
  156.1812  140.3099  155.9115 H   0  0  0  0  0  0  0  0  0  0  0  0  # atno 8009 bound_to 7997
  155.3353  140.0447  157.3034 H   0  0  0  0  0  0  0  0  0  0  0  0  # atno 8010 bound_to 7997
  140.4460  143.2499  151.8558 H   0  0  0  0  0  0  0  0  0  0  0  0  # atno 10167 bound_to 10162
  156.4007  130.4389  149.7325 H   0  0  0  0  0  0  0  0  0  0  0  0  # atno 10718 bound_to 10713
  152.9802  135.5984  154.3722 H   0  0  0  0  0  0  0  0  0  0  0  0  # atno 10763 bound_to 10752
  154.3394  135.2768  155.2432 H   0  0  0  0  0  0  0  0  0  0  0  0  # atno 10764 bound_to 10752
  154.4520  135.5987  153.6253 H   0  0  0  0  0  0  0  0  0  0  0  0  # atno 10765 bound_to 10752
  140.5025  134.5879  157.4992 H   0  0  0  0  0  0  0  0  0  0  0  0  # atno 11005 bound_to 11000
  145.3532  139.1700  143.4423 LP  0  0  0  0  0  0  0  0  0  0  0  0  # atno 17320 bound_to 7965
  146.3134  140.3587  142.8663 LP  0  0  0  0  0  0  0  0  0  0  0  0  # atno 17321 bound_to 7965
  139.4793  144.5175  151.8848 LP  0  0  0  0  0  0  0  0  0  0  0  0  # atno 17342 bound_to 10162
  140.4263  144.2176  150.5887 LP  0  0  0  0  0  0  0  0  0  0  0  0  # atno 17343 bound_to 10162
  156.4342  130.7830  151.2850 LP  0  0  0  0  0  0  0  0  0  0  0  0  # atno 17370 bound_to 10713
  157.7503  131.0144  150.3465 LP  0  0  0  0  0  0  0  0  0  0  0  0  # atno 17371 bound_to 10713
  139.9705  134.7301  156.0051 LP  0  0  0  0  0  0  0  0  0  0  0  0  # atno 17394 bound_to 11000
  141.1428  133.6561  156.3779 LP  0  0  0  0  0  0  0  0  0  0  0  0  # atno 17395 bound_to 11000

$$$$
