AV-unprocessed.smi:155|AV-procd|sdf|1280|dock6
  -GOLD-   2262018553D 1   1.00000     0.00000
 Structure written by MMmdl.
 64 67  0  0  0  0  0  0  0  0  3 V2000
  145.7162  135.1791  151.7207 C   0  0  0  0  0  0  0  0  0  0  0  0
  146.9258  134.7366  152.4511 N   0  3  0  0  0  0  0  0  0  0  0  0
  147.3427  133.3820  152.0206 C   0  0  0  0  0  0  0  0  0  0  0  0
  146.7660  134.8787  153.9240 C   0  0  0  0  0  0  0  0  0  0  0  0
  148.0572  134.5851  154.7240 C   0  0  0  0  0  0  0  0  0  0  0  0
  147.9089  134.7463  156.1960 N   0  3  1  0  0  0  0  0  0  0  0  0
  146.7613  133.9887  156.7629 C   0  0  0  0  0  0  0  0  0  0  0  0
  145.9706  134.8710  157.7448 C   0  0  0  0  0  0  0  0  0  0  0  0
  146.7031  135.1544  159.0698 C   0  0  0  0  0  0  0  0  0  0  0  0
  148.0459  135.7008  158.8777 N   0  0  0  0  0  0  0  0  0  0  0  0
  148.2606  137.0315  158.6432 C   0  0  0  0  0  0  0  0  0  0  0  0
  147.1701  137.8418  158.5636 N   0  0  0  0  0  0  0  0  0  0  0  0
  147.2951  139.1538  158.3551 C   0  0  0  0  0  0  0  0  0  0  0  0
  148.4091  139.8675  158.2080 N   0  0  0  0  0  0  0  0  0  0  0  0
  149.5149  139.0742  158.2740 C   0  0  0  0  0  0  0  0  0  0  0  0
  149.5361  137.6633  158.4901 C   0  0  0  0  0  0  0  0  0  0  0  0
  150.8582  137.2306  158.5189 N   0  0  0  0  0  0  0  0  0  0  0  0
  151.5671  138.3071  158.3237 C   0  0  0  0  0  0  0  0  0  0  0  0
  150.8385  139.4602  158.1556 N   0  0  0  0  0  0  0  0  0  0  0  0
  151.3676  140.7945  157.9201 C   0  0  0  0  0  0  0  0  0  0  0  0
  150.3171  141.9260  158.0095 C   0  0  2  0  0  0  0  0  0  0  0  0
  149.6263  142.0806  156.7850 O   0  0  0  0  0  0  0  0  0  0  0  0
  150.8522  143.2912  158.4993 C   0  0  2  0  0  0  0  0  0  0  0  0
  151.8537  143.9853  157.5709 C   0  0  0  0  0  0  0  0  0  0  0  0
  152.5840  144.8901  158.5371 C   0  0  0  0  0  0  0  0  0  0  0  0
  152.6732  144.0060  159.7771 C   0  0  0  0  0  0  0  0  0  0  0  0
  151.4866  143.2187  159.7745 O   0  0  0  0  0  0  0  0  0  0  0  0
  149.0665  134.7284  158.4733 C   0  0  0  0  0  0  0  0  0  0  0  0
  149.1815  134.5380  156.9435 C   0  0  0  0  0  0  0  0  0  0  0  0
  144.8576  134.5550  151.9724 H   0  0  0  0  0  0  0  0  0  0  0  0
  145.8730  135.1253  150.6427 H   0  0  0  0  0  0  0  0  0  0  0  0
  145.4708  136.2139  151.9625 H   0  0  0  0  0  0  0  0  0  0  0  0
  146.6355  132.6269  152.3653 H   0  0  0  0  0  0  0  0  0  0  0  0
  148.3312  133.1295  152.3988 H   0  0  0  0  0  0  0  0  0  0  0  0
  147.3979  133.3196  150.9332 H   0  0  0  0  0  0  0  0  0  0  0  0
  146.5126  135.9202  154.1272 H   0  0  0  0  0  0  0  0  0  0  0  0
  145.9091  134.3030  154.2720 H   0  0  0  0  0  0  0  0  0  0  0  0
  148.3746  133.5714  154.4762 H   0  0  0  0  0  0  0  0  0  0  0  0
  148.8607  135.2410  154.3858 H   0  0  0  0  0  0  0  0  0  0  0  0
  146.0727  133.6861  155.9736 H   0  0  0  0  0  0  0  0  0  0  0  0
  147.0929  133.0620  157.2339 H   0  0  0  0  0  0  0  0  0  0  0  0
  145.7014  135.8052  157.2523 H   0  0  0  0  0  0  0  0  0  0  0  0
  145.0258  134.3794  157.9781 H   0  0  0  0  0  0  0  0  0  0  0  0
  146.1103  135.7943  159.7212 H   0  0  0  0  0  0  0  0  0  0  0  0
  146.7947  134.2189  159.6229 H   0  0  0  0  0  0  0  0  0  0  0  0
  146.3714  139.7113  158.3030 H   0  0  0  0  0  0  0  0  0  0  0  0
  152.6467  138.2875  158.2826 H   0  0  0  0  0  0  0  0  0  0  0  0
  152.1692  140.9733  158.6378 H   0  0  0  0  0  0  0  0  0  0  0  0
  151.8360  140.8069  156.9353 H   0  0  0  0  0  0  0  0  0  0  0  0
  149.5664  141.6017  158.7309 H   0  0  0  0  0  0  0  0  0  0  0  0
  149.7250  142.9738  156.4931 H   0  0  0  0  0  0  0  0  0  0  0  0
  150.0024  143.9634  158.6281 H   0  0  0  0  0  0  0  0  0  0  0  0
  152.5569  143.2738  157.1363 H   0  0  0  0  0  0  0  0  0  0  0  0
  151.3730  144.5278  156.7564 H   0  0  0  0  0  0  0  0  0  0  0  0
  153.5596  145.2121  158.1721 H   0  0  0  0  0  0  0  0  0  0  0  0
  151.9853  145.7771  158.7480 H   0  0  0  0  0  0  0  0  0  0  0  0
  153.5315  143.3369  159.7052 H   0  0  0  0  0  0  0  0  0  0  0  0
  152.7688  144.5823  160.6975 H   0  0  0  0  0  0  0  0  0  0  0  0
  150.0374  134.9791  158.9025 H   0  0  0  0  0  0  0  0  0  0  0  0
  148.8098  133.7674  158.9201 H   0  0  0  0  0  0  0  0  0  0  0  0
  149.5853  133.5474  156.7302 H   0  0  0  0  0  0  0  0  0  0  0  0
  149.9191  135.2511  156.5796 H   0  0  0  0  0  0  0  0  0  0  0  0
  147.6600  135.3726  152.1730 H   0  0  0  0  0  0  0  0  0  0  0  0
  147.6608  135.7154  156.3333 H   0  0  0  0  0  0  0  0  0  0  0  0
  1  2  1  0  0  0  0
  1 30  1  0  0  0  0
  1 31  1  0  0  0  0
  1 32  1  0  0  0  0
  2  3  1  0  0  0  0
  2  4  1  0  0  0  0
  2 63  1  0  0  0  0
  3 33  1  0  0  0  0
  3 34  1  0  0  0  0
  3 35  1  0  0  0  0
  4  5  1  0  0  0  0
  4 36  1  0  0  0  0
  4 37  1  0  0  0  0
  5  6  1  0  0  0  0
  5 38  1  0  0  0  0
  5 39  1  0  0  0  0
  6 29  1  0  0  0  0
  6  7  1  0  0  0  0
  6 64  1  0  0  0  0
  7  8  1  0  0  0  0
  7 40  1  0  0  0  0
  7 41  1  0  0  0  0
  8  9  1  0  0  0  0
  8 42  1  0  0  0  0
  8 43  1  0  0  0  0
  9 10  1  0  0  0  0
  9 44  1  0  0  0  0
  9 45  1  0  0  0  0
 10 11  1  0  0  0  0
 10 28  1  0  0  0  0
 11 16  1  0  0  0  0
 11 12  2  0  0  0  0
 12 13  1  0  0  0  0
 13 14  2  0  0  0  0
 13 46  1  0  0  0  0
 14 15  1  0  0  0  0
 15 19  1  0  0  0  0
 15 16  2  0  0  0  0
 16 17  1  0  0  0  0
 17 18  2  0  0  0  0
 18 19  1  0  0  0  0
 18 47  1  0  0  0  0
 19 20  1  0  0  0  0
 20 21  1  0  0  0  0
 20 48  1  0  0  0  0
 20 49  1  0  0  0  0
 21 22  1  0  0  0  0
 21 23  1  0  0  0  0
 21 50  1  0  0  0  0
 22 51  1  0  0  0  0
 23 27  1  0  0  0  0
 23 24  1  0  0  0  0
 23 52  1  0  0  0  0
 24 25  1  0  0  0  0
 24 53  1  0  0  0  0
 24 54  1  0  0  0  0
 25 26  1  0  0  0  0
 25 55  1  0  0  0  0
 25 56  1  0  0  0  0
 26 27  1  0  0  0  0
 26 57  1  0  0  0  0
 26 58  1  0  0  0  0
 28 29  1  0  0  0  0
 28 59  1  0  0  0  0
 28 60  1  0  0  0  0
 29 61  1  0  0  0  0
 29 62  1  0  0  0  0
M  CHG  1   2   1
M  CHG  1   6   1
M  END
> <s_m_source_file>
AV-unprocessed.smi

> <i_m_source_file_index>
155

> <i_lp_mmshare_version>
43012

> <i_f3d_flags>
0

> <s_epik_input>
W0NIM11OKFtDSDNdKVtDSDJdW0NIMl1OMVtDSDJdW0NIMl1bQ0gyXU4oW0NIMl1bQ0gyXTEpYyhuW2NIXW4yKWMoYzIzKW5bY0hdbjNbQ0gyXVtDQEhdKFtPSF0pW0NAQEhdNFtDSDJdW0NIMl1bQ0gyXU80

> <s_epik_cmdline>
J2VwaWtfcHl0aG9uJywgJy1waCcsICc3LjAnLCAnLXRuJywgJzgnLCAnLW1hJywgJzIwMCcsICctbWV0YWxfYmluZGluZycsICctaW1hZScsICc8aW5maWxlLm1hZT4nLCAnLW9tYWUnLCAnPG91dGZpbGUubWFlPic=

> <r_lp_tautomer_probability>
1

> <r_epik_Ionization_Penalty>
3.0333

> <r_epik_Ionization_Penalty_Charging>
3.03317

> <r_epik_Ionization_Penalty_Neutral>
0.000131872

> <r_epik_State_Penalty>
1.99939

> <r_epik_Charging_Adjusted_Penalty>
5.03256

> <i_epik_Tot_Q>
2

> <i_epik_Tot_abs_Q>
2

> <r_epik_Metal_State_Penalty>
2.00021

> <b_epik_Metal_Only>
0

> <s_lp_Force_Field>
OPLS_2005

> <r_lp_Energy>
60.5665

> <b_lp_Chiralities_Consistent>
1

> <s_lp_Variant>
AV-unprocessed.smi:155-14

> <Gold.Version>
5.8.1

> <Gold.Id.Protein>
6NUR|6NUR_protein|mol2

> <Gold.PLP.Fitness>
43.4283

> <Gold.PLP.PLP>
-35.2625

> <Gold.PLP.part.hbond>
-2.7685

> <Gold.PLP.part.metal>
0.0000

> <Gold.PLP.part.buried>
-6.0504

> <Gold.PLP.part.nonpolar>
-26.6154

> <Gold.PLP.part.repulsive>
0.0524

> <Gold.PLP.ligand.clash>
0.0000

> <Gold.PLP.ligand.torsion>
0.5770

> <Gold.PLP.Chemscore.Hbond>
3.0000

> <Gold.PLP.Chemscore.CHOScore>
0.0000

> <Gold.PLP.Chemscore.Metal>
0.0000

> <Gold.Chemscore.Hbonds>
donor molecule, donor type, donor heavy atom, donor atom, acceptor molecule, acceptor atom, score
      L1  H     2    63       P1  7948  2.00
      L1  H    22    51       P1  8028  0.81

> <Gold.PLP.Chemscore.Internal.Correction>
0.3198

> <Gold.Rescore>
     Score         DG    S(hbond)    S(metal)    S(lipo)     H(rot)  DE(clash)    DE(int)     intcor
     11.84     -14.55       1.96        0.00      81.69       2.75       0.08       2.63       ----

> <Gold.Chemscore.Fitness>
11.8426

> <Gold.Chemscore.DG>
-14.5514

> <Gold.Chemscore.ZeroCoef>
-5.4800

> <Gold.Chemscore.Hbond>
1.9615

> <Gold.Chemscore.Metal>
0.0000

> <Gold.Chemscore.Lipo>
81.6945

> <Gold.Chemscore.Internal_Hbond>
0.0000

> <Gold.Chemscore.DEClash>
0.0793

> <Gold.Chemscore.DEInternal>
2.6294

> <Gold.Chemscore.Rot>
2.7493

> <Gold.Chemscore.Internal.Correction>
   9.000000E+99

> <Gold.Chemscore.Hbonds>
donor molecule, donor type, donor heavy atom, donor atom, acceptor molecule, acceptor atom, score
      L1  H     2    63       P1  7948  0.95
      L1  H    22    51       P1  8028  0.74

> <Gold.Chemscore.Hbond.Weighted>
-6.5514

> <Gold.Chemscore.Metal.Weighted>
-0.0000

> <Gold.Chemscore.Lipo.Weighted>
-9.5583

> <Gold.Chemscore.Internal_Hbond.Weighted>
0.0000

> <Gold.Chemscore.DEClash.Weighted>
0.0793

> <Gold.Chemscore.DEInternal.Weighted>
2.6294

> <Gold.Chemscore.Rot.Weighted>
7.0383

> <Gold.Chemscore.Internal.Correction.Weighted>
   9.000000E+99

> <Gold.Protein.RotatedTorsions>
[ 6907 6896 6895 6894 ] final  164.43 input  -60.11 | X-H torsion
[ 7974 7965 7964 7962 ] final  152.28 input  175.53 | X-H torsion
[ 8008 7997 7996 7995 ] final   79.93 input   59.86 | X-H torsion
[ 10167 10162 10161 10158 ] final  -24.44 input  -65.29 | X-H torsion
[ 10718 10713 10712 10709 ] final  -42.39 input   66.30 | X-H torsion
[ 10763 10752 10751 10750 ] final -113.70 input  -60.55 | X-H torsion
[ 11005 11000 10999 10996 ] final   92.91 input  -57.11 | X-H torsion

> <Gold.Protein.ActiveResidues>
 VAL166  LYS551  ARG553  GLY616  TRP617  ASP618  TYR619  PRO620  LYS621  CYS622 
 ASP623  PHE694  ASN695  SER759  ASP760  ASP761  ALA762  ILE779  LEU786  VAL792 
 PHE793  MET794  SER795  GLU796  ALA797  LYS798  CYS799  TRP800  GLU811  SER814 

> <Gold.Protein.RotatedAtoms>
  151.9100  133.3559  159.3859 H   0  0  0  0  0  0  0  0  0  0  0  0  # atno 6907 bound_to 6896
  150.7060  134.4742  159.5449 H   0  0  0  0  0  0  0  0  0  0  0  0  # atno 6908 bound_to 6896
  152.2346  134.8288  160.0520 H   0  0  0  0  0  0  0  0  0  0  0  0  # atno 6909 bound_to 6896
  144.8233  139.6648  143.6091 H   0  0  0  0  0  0  0  0  0  0  0  0  # atno 7974 bound_to 7965
  155.8765  140.3446  155.5858 H   0  0  0  0  0  0  0  0  0  0  0  0  # atno 8008 bound_to 7997
  155.7768  140.0853  157.2099 H   0  0  0  0  0  0  0  0  0  0  0  0  # atno 8009 bound_to 7997
  154.4021  140.1508  156.2993 H   0  0  0  0  0  0  0  0  0  0  0  0  # atno 8010 bound_to 7997
  140.7288  143.4353  151.0739 H   0  0  0  0  0  0  0  0  0  0  0  0  # atno 10167 bound_to 10162
  156.2601  130.4196  149.8552 H   0  0  0  0  0  0  0  0  0  0  0  0  # atno 10718 bound_to 10713
  154.8408  135.4444  154.1391 H   0  0  0  0  0  0  0  0  0  0  0  0  # atno 10763 bound_to 10752
  153.2581  135.6933  153.7614 H   0  0  0  0  0  0  0  0  0  0  0  0  # atno 10764 bound_to 10752
  153.6901  135.3389  155.3175 H   0  0  0  0  0  0  0  0  0  0  0  0  # atno 10765 bound_to 10752
  139.8817  134.8760  156.3641 H   0  0  0  0  0  0  0  0  0  0  0  0  # atno 11005 bound_to 11000
  146.2539  139.6259  142.9408 LP  0  0  0  0  0  0  0  0  0  0  0  0  # atno 17320 bound_to 7965
  145.5056  141.0436  143.2516 LP  0  0  0  0  0  0  0  0  0  0  0  0  # atno 17321 bound_to 7965
  139.8014  143.8078  152.3163 LP  0  0  0  0  0  0  0  0  0  0  0  0  # atno 17342 bound_to 10162
  139.8096  144.7341  150.9715 LP  0  0  0  0  0  0  0  0  0  0  0  0  # atno 17343 bound_to 10162
  156.6070  130.8571  151.3445 LP  0  0  0  0  0  0  0  0  0  0  0  0  # atno 17370 bound_to 10713
  157.7247  130.9606  150.1585 LP  0  0  0  0  0  0  0  0  0  0  0  0  # atno 17371 bound_to 10713
  140.9509  133.7451  156.0271 LP  0  0  0  0  0  0  0  0  0  0  0  0  # atno 17394 bound_to 11000
  140.8107  134.3403  157.5413 LP  0  0  0  0  0  0  0  0  0  0  0  0  # atno 17395 bound_to 11000

$$$$
