AV-unprocessed.smi:3161|AV-procd|sdf|12056|dock8
  -GOLD-   2272017483D 1   1.00000     0.00000
 Structure written by MMmdl.
 41 42  0  0  0  0  0  0  0  0  2 V2000
  145.4840  131.8573  151.0617 C   0  0  0  0  0  0  0  0  0  0  0  0
  145.3110  133.3429  150.9280 C   0  0  0  0  0  0  0  0  0  0  0  0
  144.1409  134.0556  150.5398 C   0  0  0  0  0  0  0  0  0  0  0  0
  144.3204  135.3666  150.5188 N   0  0  0  0  0  0  0  0  0  0  0  0
  145.6047  135.5367  150.8969 N   0  0  0  0  0  0  0  0  0  0  0  0
  146.1590  136.8760  150.9812 C   0  0  0  0  0  0  0  0  0  0  0  0
  145.7641  137.6151  152.2815 C   0  0  1  0  0  0  0  0  0  0  0  0
  146.5730  138.9062  152.4946 C   0  0  0  0  0  0  0  0  0  0  0  0
  144.3203  137.9396  152.2961 N   0  3  0  0  0  0  0  0  0  0  0  0
  143.5353  137.3112  153.3802 C   0  0  0  0  0  0  0  0  0  0  0  0
  142.0467  137.2455  153.0100 C   0  0  2  0  0  0  0  0  0  0  0  0
  141.3320  138.5896  153.2529 C   0  0  0  0  0  0  0  0  0  0  0  0
  139.8323  138.4632  152.9604 C   0  0  0  0  0  0  0  0  0  0  0  0
  139.2483  137.2894  153.7533 C   0  0  0  0  0  0  0  0  0  0  0  0
  140.0665  136.0137  153.4992 C   0  0  0  0  0  0  0  0  0  0  0  0
  141.4353  136.2435  153.8200 O   0  0  0  0  0  0  0  0  0  0  0  0
  146.2286  134.3319  151.1429 C   0  0  0  0  0  0  0  0  0  0  0  0
  144.5358  131.3555  151.2561 H   0  0  0  0  0  0  0  0  0  0  0  0
  146.1555  131.6004  151.8812 H   0  0  0  0  0  0  0  0  0  0  0  0
  145.9005  131.4188  150.1547 H   0  0  0  0  0  0  0  0  0  0  0  0
  143.1717  133.6606  150.2728 H   0  0  0  0  0  0  0  0  0  0  0  0
  147.2449  136.8007  150.9081 H   0  0  0  0  0  0  0  0  0  0  0  0
  145.8257  137.4263  150.1012 H   0  0  0  0  0  0  0  0  0  0  0  0
  145.9661  136.9631  153.1329 H   0  0  0  0  0  0  0  0  0  0  0  0
  147.6395  138.7021  152.5932 H   0  0  0  0  0  0  0  0  0  0  0  0
  146.2603  139.4187  153.4050 H   0  0  0  0  0  0  0  0  0  0  0  0
  146.4422  139.5979  151.6617 H   0  0  0  0  0  0  0  0  0  0  0  0
  144.2351  138.9399  152.4056 H   0  0  0  0  0  0  0  0  0  0  0  0
  143.9085  136.3087  153.5892 H   0  0  0  0  0  0  0  0  0  0  0  0
  143.6613  137.8992  154.2902 H   0  0  0  0  0  0  0  0  0  0  0  0
  141.9529  136.9705  151.9576 H   0  0  0  0  0  0  0  0  0  0  0  0
  141.4750  138.9017  154.2885 H   0  0  0  0  0  0  0  0  0  0  0  0
  141.7681  139.3698  152.6284 H   0  0  0  0  0  0  0  0  0  0  0  0
  139.3149  139.3890  153.2133 H   0  0  0  0  0  0  0  0  0  0  0  0
  139.6781  138.2984  151.8932 H   0  0  0  0  0  0  0  0  0  0  0  0
  139.2608  137.5244  154.8184 H   0  0  0  0  0  0  0  0  0  0  0  0
  138.2047  137.1298  153.4800 H   0  0  0  0  0  0  0  0  0  0  0  0
  139.6913  135.1985  154.1182 H   0  0  0  0  0  0  0  0  0  0  0  0
  139.9745  135.6923  152.4606 H   0  0  0  0  0  0  0  0  0  0  0  0
  147.2627  134.2776  151.4502 H   0  0  0  0  0  0  0  0  0  0  0  0
  143.9168  137.6816  151.4066 H   0  0  0  0  0  0  0  0  0  0  0  0
  1  2  1  0  0  0  0
  1 18  1  0  0  0  0
  1 19  1  0  0  0  0
  1 20  1  0  0  0  0
  2 17  2  0  0  0  0
  2  3  1  0  0  0  0
  3  4  2  0  0  0  0
  3 21  1  0  0  0  0
  4  5  1  0  0  0  0
  5  6  1  0  0  0  0
  5 17  1  0  0  0  0
  6  7  1  0  0  0  0
  6 22  1  0  0  0  0
  6 23  1  0  0  0  0
  7  8  1  0  0  0  0
  7  9  1  0  0  0  0
  7 24  1  0  0  0  0
  8 25  1  0  0  0  0
  8 26  1  0  0  0  0
  8 27  1  0  0  0  0
  9 10  1  0  0  0  0
  9 28  1  0  0  0  0
  9 41  1  0  0  0  0
 10 11  1  0  0  0  0
 10 29  1  0  0  0  0
 10 30  1  0  0  0  0
 11 16  1  0  0  0  0
 11 12  1  0  0  0  0
 11 31  1  0  0  0  0
 12 13  1  0  0  0  0
 12 32  1  0  0  0  0
 12 33  1  0  0  0  0
 13 14  1  0  0  0  0
 13 34  1  0  0  0  0
 13 35  1  0  0  0  0
 14 15  1  0  0  0  0
 14 36  1  0  0  0  0
 14 37  1  0  0  0  0
 15 16  1  0  0  0  0
 15 38  1  0  0  0  0
 15 39  1  0  0  0  0
 17 40  1  0  0  0  0
M  CHG  1   9   1
M  END
> <s_m_source_file>
AV-unprocessed.smi

> <i_m_source_file_index>
3161

> <i_lp_mmshare_version>
43012

> <i_f3d_flags>
0

> <s_epik_input>
W0NIM11jMVtjSF1ubihbY0hdMSlbQ0gyXVtDQEhdKFtDSDNdKVtOSF1bQ0gyXVtDQEBIXTJbQ0gyXVtDSDJdW0NIMl1bQ0gyXU8y

> <s_epik_cmdline>
J2VwaWtfcHl0aG9uJywgJy1waCcsICc3LjAnLCAnLXRuJywgJzgnLCAnLW1hJywgJzIwMCcsICctbWV0YWxfYmluZGluZycsICctaW1hZScsICc8aW5maWxlLm1hZT4nLCAnLW9tYWUnLCAnPG91dGZpbGUubWFlPic=

> <r_lp_tautomer_probability>
1

> <r_epik_Ionization_Penalty>
0.00849661

> <r_epik_Ionization_Penalty_Charging>
0.00848754

> <r_epik_Ionization_Penalty_Neutral>
9.06711e-06

> <r_epik_State_Penalty>
0.00639836

> <r_epik_Charging_Adjusted_Penalty>
0.0148859

> <i_epik_Tot_Q>
1

> <i_epik_Tot_abs_Q>
1

> <r_epik_Metal_State_Penalty>
0.00639921

> <b_epik_Metal_Only>
0

> <s_lp_Force_Field>
OPLS_2005

> <r_lp_Energy>
12.4763

> <b_lp_Chiralities_Consistent>
1

> <s_lp_Variant>
AV-unprocessed.smi:3161-2

> <Gold.Version>
5.8.1

> <Gold.Id.Protein>
6NUR|6NUR_protein|mol2

> <Gold.PLP.Fitness>
44.9599

> <Gold.PLP.PLP>
-34.0106

> <Gold.PLP.part.hbond>
-2.0000

> <Gold.PLP.part.metal>
0.0000

> <Gold.PLP.part.buried>
-0.6419

> <Gold.PLP.part.nonpolar>
-32.1625

> <Gold.PLP.part.repulsive>
0.3338

> <Gold.PLP.ligand.clash>
0.0000

> <Gold.PLP.ligand.torsion>
1.3785

> <Gold.PLP.Chemscore.Hbond>
2.5600

> <Gold.PLP.Chemscore.CHOScore>
1.9997

> <Gold.PLP.Chemscore.Metal>
0.0000

> <Gold.Chemscore.Hbonds>
donor molecule, donor type, donor heavy atom, donor atom, acceptor molecule, acceptor atom, score
      L1  H     9    28       P1 10175  2.00
      L1  H     9    41       P1 10171  0.62
      L1  C     3    21       P1 10186  1.00
      L1  C    17    40       P1  7948  0.92

> <Gold.PLP.Chemscore.Internal.Correction>
0.0271

> <Gold.Rescore>
     Score         DG    S(hbond)    S(metal)    S(lipo)     H(rot)  DE(clash)    DE(int)     intcor
     14.96     -16.99       1.52        0.00      89.52       1.57       0.80       1.24       ----

> <Gold.Chemscore.Fitness>
14.9603

> <Gold.Chemscore.DG>
-16.9949

> <Gold.Chemscore.ZeroCoef>
-5.4800

> <Gold.Chemscore.Hbond>
1.5162

> <Gold.Chemscore.Metal>
0.0000

> <Gold.Chemscore.Lipo>
89.5199

> <Gold.Chemscore.Internal_Hbond>
0.0000

> <Gold.Chemscore.DEClash>
0.7989

> <Gold.Chemscore.DEInternal>
1.2357

> <Gold.Chemscore.Rot>
1.5714

> <Gold.Chemscore.Internal.Correction>
   9.000000E+99

> <Gold.Chemscore.Hbonds>
donor molecule, donor type, donor heavy atom, donor atom, acceptor molecule, acceptor atom, score
      L1  H     9    28       P1 10175  0.99
      L1  H     9    41       P1 10171  0.62

> <Gold.Chemscore.Hbond.Weighted>
-5.0640

> <Gold.Chemscore.Metal.Weighted>
-0.0000

> <Gold.Chemscore.Lipo.Weighted>
-10.4738

> <Gold.Chemscore.Internal_Hbond.Weighted>
0.0000

> <Gold.Chemscore.DEClash.Weighted>
0.7989

> <Gold.Chemscore.DEInternal.Weighted>
1.2357

> <Gold.Chemscore.Rot.Weighted>
4.0228

> <Gold.Chemscore.Internal.Correction.Weighted>
   9.000000E+99

> <Gold.Protein.RotatedTorsions>
[ 6907 6896 6895 6894 ] final  -52.49 input  -60.11 | X-H torsion
[ 7974 7965 7964 7962 ] final  102.08 input  175.53 | X-H torsion
[ 8008 7997 7996 7995 ] final  -70.25 input   59.86 | X-H torsion
[ 10167 10162 10161 10158 ] final  166.70 input  -65.29 | X-H torsion
[ 10718 10713 10712 10709 ] final  -27.40 input   66.30 | X-H torsion
[ 10763 10752 10751 10750 ] final -107.18 input  -60.55 | X-H torsion
[ 11005 11000 10999 10996 ] final   34.16 input  -57.11 | X-H torsion

> <Gold.Protein.ActiveResidues>
 VAL166  LYS551  ARG553  GLY616  TRP617  ASP618  TYR619  PRO620  LYS621  CYS622 
 ASP623  PHE694  ASN695  SER759  ASP760  ASP761  ALA762  ILE779  LEU786  VAL792 
 PHE793  MET794  SER795  GLU796  ALA797  LYS798  CYS799  TRP800  GLU811  SER814 

> <Gold.Protein.RotatedAtoms>
  150.8513  134.7839  159.7010 H   0  0  0  0  0  0  0  0  0  0  0  0  # atno 6907 bound_to 6896
  152.4577  134.5251  159.9804 H   0  0  0  0  0  0  0  0  0  0  0  0  # atno 6908 bound_to 6896
  151.5371  133.3401  159.2964 H   0  0  0  0  0  0  0  0  0  0  0  0  # atno 6909 bound_to 6896
  145.3638  139.2412  143.3492 H   0  0  0  0  0  0  0  0  0  0  0  0  # atno 7974 bound_to 7965
  154.4998  140.0838  156.7774 H   0  0  0  0  0  0  0  0  0  0  0  0  # atno 8008 bound_to 7997
  155.4030  140.3438  155.4240 H   0  0  0  0  0  0  0  0  0  0  0  0  # atno 8009 bound_to 7997
  156.1442  140.1538  156.8861 H   0  0  0  0  0  0  0  0  0  0  0  0  # atno 8010 bound_to 7997
  139.4930  144.4000  151.9421 H   0  0  0  0  0  0  0  0  0  0  0  0  # atno 10167 bound_to 10162
  156.4387  130.4460  149.7067 H   0  0  0  0  0  0  0  0  0  0  0  0  # atno 10718 bound_to 10713
  154.8059  135.4684  154.0392 H   0  0  0  0  0  0  0  0  0  0  0  0  # atno 10763 bound_to 10752
  153.1861  135.6848  153.8421 H   0  0  0  0  0  0  0  0  0  0  0  0  # atno 10764 bound_to 10752
  153.7955  135.3237  155.3361 H   0  0  0  0  0  0  0  0  0  0  0  0  # atno 10765 bound_to 10752
  140.2557  134.3251  155.7875 H   0  0  0  0  0  0  0  0  0  0  0  0  # atno 11005 bound_to 11000
  146.2915  140.4277  142.8737 LP  0  0  0  0  0  0  0  0  0  0  0  0  # atno 17320 bound_to 7965
  144.8626  140.7161  143.6097 LP  0  0  0  0  0  0  0  0  0  0  0  0  # atno 17321 bound_to 7965
  140.3439  144.3171  150.5962 LP  0  0  0  0  0  0  0  0  0  0  0  0  # atno 17342 bound_to 10162
  140.5543  143.2201  151.7874 LP  0  0  0  0  0  0  0  0  0  0  0  0  # atno 17343 bound_to 10162
  156.3941  130.7642  151.2645 LP  0  0  0  0  0  0  0  0  0  0  0  0  # atno 17370 bound_to 10713
  157.7507  131.0259  150.3939 LP  0  0  0  0  0  0  0  0  0  0  0  0  # atno 17371 bound_to 10713
  141.2196  133.7379  156.9107 LP  0  0  0  0  0  0  0  0  0  0  0  0  # atno 17394 bound_to 11000
  140.1514  134.9227  157.2598 LP  0  0  0  0  0  0  0  0  0  0  0  0  # atno 17395 bound_to 11000

$$$$
