AV-unprocessed.smi:2676|AV-procd|sdf|10364|dock1
  -GOLD-   2272014393D 1   1.00000     0.00000
 Structure written by MMmdl.
 40 41  0  0  0  0  0  0  0  0  1 V2000
  155.3798  140.2779  162.2030 C   0  0  0  0  0  0  0  0  0  0  0  0
  154.3253  140.6598  161.4675 C   0  0  0  0  0  0  0  0  0  0  0  0
  154.2667  140.5964  159.9518 C   0  0  0  0  0  0  0  0  0  0  0  0
  152.9895  141.1375  159.4347 N   0  0  0  0  0  0  0  0  0  0  0  0
  152.6172  142.3991  159.8060 C   0  0  0  0  0  0  0  0  0  0  0  0
  153.3129  143.0830  160.5628 O   0  0  0  0  0  0  0  0  0  0  0  0
  151.4306  142.8619  159.3097 N   0  0  0  0  0  0  0  0  0  0  0  0
  150.9844  144.2198  159.6947 C   0  0  0  0  0  0  0  0  0  0  0  0
  151.6821  145.2876  158.8713 C   0  0  0  0  0  0  0  0  0  0  0  0
  152.5861  145.0365  157.9129 C   0  0  0  0  0  0  0  0  0  0  0  0
  150.6112  142.1152  158.5109 C   0  0  0  0  0  0  0  0  0  0  0  0
  149.5261  142.5482  158.1110 O   0  0  0  0  0  0  0  0  0  0  0  0
  151.0436  140.8591  158.1872 N   0  0  0  0  0  0  0  0  0  0  0  0
  150.1687  140.0062  157.3439 C   0  0  0  0  0  0  0  0  0  0  0  0
  150.0557  140.4895  155.8885 C   0  0  0  0  0  0  0  0  0  0  0  0
  151.0345  140.4834  155.1400 O   0  0  0  0  0  0  0  0  0  0  0  0
  148.8394  140.9040  155.5064 N   0  0  0  0  0  0  0  0  0  0  0  0
  148.4973  141.3834  154.2066 C   0  0  0  0  0  0  0  0  0  0  0  0
  147.1220  141.9860  154.0181 C   0  0  0  0  0  0  0  0  0  0  0  0
  147.4298  140.6319  153.4408 C   0  0  0  0  0  0  0  0  0  0  0  0
  152.2198  140.3323  158.6430 C   0  0  0  0  0  0  0  0  0  0  0  0
  152.5641  139.1804  158.3616 O   0  0  0  0  0  0  0  0  0  0  0  0
  156.2745  139.8874  161.7408 H   0  0  0  0  0  0  0  0  0  0  0  0
  155.3602  140.3509  163.2803 H   0  0  0  0  0  0  0  0  0  0  0  0
  153.4485  141.0474  161.9660 H   0  0  0  0  0  0  0  0  0  0  0  0
  155.1255  141.1401  159.5552 H   0  0  0  0  0  0  0  0  0  0  0  0
  154.4349  139.5704  159.6193 H   0  0  0  0  0  0  0  0  0  0  0  0
  149.9075  144.3427  159.5691 H   0  0  0  0  0  0  0  0  0  0  0  0
  151.1438  144.4113  160.7575 H   0  0  0  0  0  0  0  0  0  0  0  0
  151.4206  146.3122  159.0933 H   0  0  0  0  0  0  0  0  0  0  0  0
  152.8735  144.0255  157.6638 H   0  0  0  0  0  0  0  0  0  0  0  0
  153.0502  145.8421  157.3633 H   0  0  0  0  0  0  0  0  0  0  0  0
  150.5132  138.9706  157.3342 H   0  0  0  0  0  0  0  0  0  0  0  0
  149.1638  139.9343  157.7638 H   0  0  0  0  0  0  0  0  0  0  0  0
  148.0954  140.8745  156.1886 H   0  0  0  0  0  0  0  0  0  0  0  0
  149.2966  141.8166  153.6065 H   0  0  0  0  0  0  0  0  0  0  0  0
  146.4605  142.0261  154.8817 H   0  0  0  0  0  0  0  0  0  0  0  0
  147.0316  142.8194  153.3242 H   0  0  0  0  0  0  0  0  0  0  0  0
  147.5434  140.5608  152.3609 H   0  0  0  0  0  0  0  0  0  0  0  0
  146.9725  139.7672  153.9184 H   0  0  0  0  0  0  0  0  0  0  0  0
  1  2  2  0  0  0  0
  1 23  1  0  0  0  0
  1 24  1  0  0  0  0
  2  3  1  0  0  0  0
  2 25  1  0  0  0  0
  3  4  1  0  0  0  0
  3 26  1  0  0  0  0
  3 27  1  0  0  0  0
  4 21  1  0  0  0  0
  4  5  1  0  0  0  0
  5  6  2  0  0  0  0
  5  7  1  0  0  0  0
  7  8  1  0  0  0  0
  7 11  1  0  0  0  0
  8  9  1  0  0  0  0
  8 28  1  0  0  0  0
  8 29  1  0  0  0  0
  9 10  2  0  0  0  0
  9 30  1  0  0  0  0
 10 31  1  0  0  0  0
 10 32  1  0  0  0  0
 11 12  2  0  0  0  0
 11 13  1  0  0  0  0
 13 14  1  0  0  0  0
 13 21  1  0  0  0  0
 14 15  1  0  0  0  0
 14 33  1  0  0  0  0
 14 34  1  0  0  0  0
 15 16  2  0  0  0  0
 15 17  1  0  0  0  0
 17 18  1  0  0  0  0
 17 35  1  0  0  0  0
 18 20  1  0  0  0  0
 18 19  1  0  0  0  0
 18 36  1  0  0  0  0
 19 20  1  0  0  0  0
 19 37  1  0  0  0  0
 19 38  1  0  0  0  0
 20 39  1  0  0  0  0
 20 40  1  0  0  0  0
 21 22  2  0  0  0  0
M  END
> <s_m_source_file>
AV-unprocessed.smi

> <i_m_source_file_index>
2676

> <i_lp_mmshare_version>
43012

> <i_f3d_flags>
0

> <s_epik_input>
W0NIMl09W0NIXVtDSDJdbjFjKD1PKW4oW0NIMl1bQ0hdPVtDSDJdKWMoPU8pbihjMT1PKVtDSDJdQyg9TylbTkhdW0NIXTJbQ0gyXVtDSDJdMg==

> <s_epik_cmdline>
J2VwaWtfcHl0aG9uJywgJy1waCcsICc3LjAnLCAnLXRuJywgJzgnLCAnLW1hJywgJzIwMCcsICctbWV0YWxfYmluZGluZycsICctaW1hZScsICc8aW5maWxlLm1hZT4nLCAnLW9tYWUnLCAnPG91dGZpbGUubWFlPic=

> <r_lp_tautomer_probability>
1

> <r_epik_Ionization_Penalty>
2.07961e-08

> <r_epik_Ionization_Penalty_Charging>
1.25795e-10

> <r_epik_Ionization_Penalty_Neutral>
2.06703e-08

> <r_epik_State_Penalty>
-0

> <r_epik_Charging_Adjusted_Penalty>
1.25795e-10

> <i_epik_Tot_Q>
0

> <i_epik_Tot_abs_Q>
0

> <r_epik_Metal_State_Penalty>
-0

> <b_epik_Metal_Only>
0

> <s_lp_Force_Field>
OPLS_2005

> <r_lp_Energy>
27.3169

> <b_lp_Chiralities_Consistent>
1

> <s_lp_Variant>
AV-unprocessed.smi:2676-1

> <Gold.Version>
5.8.1

> <Gold.Id.Protein>
6NUR|6NUR_protein|mol2

> <Gold.PLP.Fitness>
48.9339

> <Gold.PLP.PLP>
-46.6857

> <Gold.PLP.part.hbond>
-1.0000

> <Gold.PLP.part.metal>
0.0000

> <Gold.PLP.part.buried>
-5.8785

> <Gold.PLP.part.nonpolar>
-39.2130

> <Gold.PLP.part.repulsive>
0.2712

> <Gold.PLP.ligand.clash>
0.0000

> <Gold.PLP.ligand.torsion>
0.4197

> <Gold.PLP.Chemscore.Hbond>
0.9920

> <Gold.PLP.Chemscore.CHOScore>
0.0000

> <Gold.PLP.Chemscore.Metal>
0.0000

> <Gold.Chemscore.Hbonds>
donor molecule, donor type, donor heavy atom, donor atom, acceptor molecule, acceptor atom, score
      P1  H  7989  7998       L1    16  0.99

> <Gold.PLP.Chemscore.Internal.Correction>
0.1116

> <Gold.Rescore>
     Score         DG    S(hbond)    S(metal)    S(lipo)     H(rot)  DE(clash)    DE(int)     intcor
     10.79     -12.80       0.98        0.00      86.98       2.39       0.02       1.99       ----

> <Gold.Chemscore.Fitness>
10.7909

> <Gold.Chemscore.DG>
-12.7972

> <Gold.Chemscore.ZeroCoef>
-5.4800

> <Gold.Chemscore.Hbond>
0.9755

> <Gold.Chemscore.Metal>
0.0000

> <Gold.Chemscore.Lipo>
86.9845

> <Gold.Chemscore.Internal_Hbond>
0.0000

> <Gold.Chemscore.DEClash>
0.0164

> <Gold.Chemscore.DEInternal>
1.9899

> <Gold.Chemscore.Rot>
2.3899

> <Gold.Chemscore.Internal.Correction>
   9.000000E+99

> <Gold.Chemscore.Hbonds>
donor molecule, donor type, donor heavy atom, donor atom, acceptor molecule, acceptor atom, score
      P1  H  7989  7998       L1    16  0.94

> <Gold.Chemscore.Hbond.Weighted>
-3.2581

> <Gold.Chemscore.Metal.Weighted>
-0.0000

> <Gold.Chemscore.Lipo.Weighted>
-10.1772

> <Gold.Chemscore.Internal_Hbond.Weighted>
0.0000

> <Gold.Chemscore.DEClash.Weighted>
0.0164

> <Gold.Chemscore.DEInternal.Weighted>
1.9899

> <Gold.Chemscore.Rot.Weighted>
6.1181

> <Gold.Chemscore.Internal.Correction.Weighted>
   9.000000E+99

> <Gold.Protein.RotatedTorsions>
[ 6907 6896 6895 6894 ] final   29.87 input  -60.11 | X-H torsion
[ 7974 7965 7964 7962 ] final  -10.26 input  175.53 | X-H torsion
[ 8008 7997 7996 7995 ] final  142.99 input   59.86 | X-H torsion
[ 10167 10162 10161 10158 ] final   -3.09 input  -65.29 | X-H torsion
[ 10718 10713 10712 10709 ] final   50.59 input   66.30 | X-H torsion
[ 10763 10752 10751 10750 ] final  156.93 input  -60.55 | X-H torsion
[ 11005 11000 10999 10996 ] final -169.74 input  -57.11 | X-H torsion

> <Gold.Protein.ActiveResidues>
 VAL166  LYS551  ARG553  GLY616  TRP617  ASP618  TYR619  PRO620  LYS621  CYS622 
 ASP623  PHE694  ASN695  SER759  ASP760  ASP761  ALA762  ILE779  LEU786  VAL792 
 PHE793  MET794  SER795  GLU796  ALA797  LYS798  CYS799  TRP800  GLU811  SER814 

> <Gold.Protein.RotatedAtoms>
  152.0378  134.9729  160.0573 H   0  0  0  0  0  0  0  0  0  0  0  0  # atno 6907 bound_to 6896
  152.1180  133.4333  159.4670 H   0  0  0  0  0  0  0  0  0  0  0  0  # atno 6908 bound_to 6896
  150.6847  134.2487  159.4545 H   0  0  0  0  0  0  0  0  0  0  0  0  # atno 6909 bound_to 6896
  146.2226  140.2738  142.8358 H   0  0  0  0  0  0  0  0  0  0  0  0  # atno 7974 bound_to 7965
  156.2939  140.2274  156.4818 H   0  0  0  0  0  0  0  0  0  0  0  0  # atno 8008 bound_to 7997
  154.7846  140.0458  157.1175 H   0  0  0  0  0  0  0  0  0  0  0  0  # atno 8009 bound_to 7997
  154.9718  140.3067  155.4988 H   0  0  0  0  0  0  0  0  0  0  0  0  # atno 8010 bound_to 7997
  140.6877  143.6580  150.8291 H   0  0  0  0  0  0  0  0  0  0  0  0  # atno 10167 bound_to 10162
  157.4900  130.8369  149.8191 H   0  0  0  0  0  0  0  0  0  0  0  0  # atno 10718 bound_to 10713
  154.1921  135.2794  155.3018 H   0  0  0  0  0  0  0  0  0  0  0  0  # atno 10763 bound_to 10752
  154.5920  135.5556  153.7292 H   0  0  0  0  0  0  0  0  0  0  0  0  # atno 10764 bound_to 10752
  153.0109  135.6371  154.2060 H   0  0  0  0  0  0  0  0  0  0  0  0  # atno 10765 bound_to 10752
  140.5274  134.5650  157.5065 H   0  0  0  0  0  0  0  0  0  0  0  0  # atno 11005 bound_to 11000
  144.9248  140.7909  143.5726 LP  0  0  0  0  0  0  0  0  0  0  0  0  # atno 17320 bound_to 7965
  145.2677  139.1967  143.4858 LP  0  0  0  0  0  0  0  0  0  0  0  0  # atno 17321 bound_to 7965
  140.0289  143.5464  152.2768 LP  0  0  0  0  0  0  0  0  0  0  0  0  # atno 17342 bound_to 10162
  139.6249  144.7635  151.2659 LP  0  0  0  0  0  0  0  0  0  0  0  0  # atno 17343 bound_to 10162
  156.0168  130.3810  150.2086 LP  0  0  0  0  0  0  0  0  0  0  0  0  # atno 17370 bound_to 10713
  157.0274  130.9997  151.3322 LP  0  0  0  0  0  0  0  0  0  0  0  0  # atno 17371 bound_to 10713
  139.9573  134.7513  156.0314 LP  0  0  0  0  0  0  0  0  0  0  0  0  # atno 17394 bound_to 11000
  141.1300  133.6589  156.3440 LP  0  0  0  0  0  0  0  0  0  0  0  0  # atno 17395 bound_to 11000

$$$$
