AV-unprocessed.smi:422|AV-procd|sdf|2536|dock7
  -GOLD-   2262022493D 1   1.00000     0.00000
 Structure written by MMmdl.
 43 45  0  0  0  0  0  0  0  0  1 V2000
  154.9930  138.3788  160.5371 C   0  0  0  0  0  0  0  0  0  0  0  0
  153.7598  138.8025  159.8852 N   0  0  0  0  0  0  0  0  0  0  0  0
  152.7215  138.0155  159.5172 C   0  0  0  0  0  0  0  0  0  0  0  0
  152.6403  136.7981  159.6793 O   0  0  0  0  0  0  0  0  0  0  0  0
  151.7769  138.8051  158.9550 N   0  0  0  0  0  0  0  0  0  0  0  0
  150.4806  138.3740  158.4394 C   0  0  0  0  0  0  0  0  0  0  0  0
  149.8821  137.2389  159.2988 C   0  0  2  0  0  0  0  0  0  0  0  0
  150.2121  135.9980  158.7094 O   0  0  0  0  0  0  0  0  0  0  0  0
  148.3508  137.3198  159.3848 C   0  0  0  0  0  0  0  0  0  0  0  0
  147.9866  137.3813  160.7535 O   0  0  0  0  0  0  0  0  0  0  0  0
  148.0664  136.1307  161.4133 C   0  0  0  0  0  0  0  0  0  0  0  0
  146.7382  135.7629  162.0450 C   0  0  0  0  0  0  0  0  0  0  0  0
  145.7367  136.7422  162.2159 C   0  0  0  0  0  0  0  0  0  0  0  0
  144.5012  136.3973  162.7980 C   0  0  0  0  0  0  0  0  0  0  0  0
  144.2630  135.0731  163.2134 C   0  0  0  0  0  0  0  0  0  0  0  0
  145.2616  134.0940  163.0486 C   0  0  0  0  0  0  0  0  0  0  0  0
  146.4979  134.4371  162.4675 C   0  0  0  0  0  0  0  0  0  0  0  0
  147.4529  133.4880  162.3166 F   0  0  0  0  0  0  0  0  0  0  0  0
  152.2102  140.1386  158.9907 C   0  0  0  0  0  0  0  0  0  0  0  0
  151.5916  141.3266  158.5636 C   0  0  0  0  0  0  0  0  0  0  0  0
  152.3069  142.5320  158.7520 C   0  0  0  0  0  0  0  0  0  0  0  0
  153.5942  142.5275  159.3498 C   0  0  0  0  0  0  0  0  0  0  0  0
  154.1927  141.3174  159.7733 C   0  0  0  0  0  0  0  0  0  0  0  0
  153.4594  140.1351  159.5741 C   0  0  0  0  0  0  0  0  0  0  0  0
  155.1101  137.2942  160.5246 H   0  0  0  0  0  0  0  0  0  0  0  0
  155.0003  138.7095  161.5759 H   0  0  0  0  0  0  0  0  0  0  0  0
  155.8571  138.8129  160.0334 H   0  0  0  0  0  0  0  0  0  0  0  0
  149.8191  139.2411  158.4414 H   0  0  0  0  0  0  0  0  0  0  0  0
  150.5598  138.0828  157.3903 H   0  0  0  0  0  0  0  0  0  0  0  0
  150.2906  137.2558  160.3105 H   0  0  0  0  0  0  0  0  0  0  0  0
  150.5622  136.1600  157.8464 H   0  0  0  0  0  0  0  0  0  0  0  0
  147.9824  138.1940  158.8452 H   0  0  0  0  0  0  0  0  0  0  0  0
  147.8967  136.4364  158.9326 H   0  0  0  0  0  0  0  0  0  0  0  0
  148.3400  135.3491  160.7029 H   0  0  0  0  0  0  0  0  0  0  0  0
  148.8471  136.1625  162.1747 H   0  0  0  0  0  0  0  0  0  0  0  0
  145.9102  137.7601  161.8988 H   0  0  0  0  0  0  0  0  0  0  0  0
  143.7361  137.1490  162.9254 H   0  0  0  0  0  0  0  0  0  0  0  0
  143.3157  134.8087  163.6594 H   0  0  0  0  0  0  0  0  0  0  0  0
  145.0794  133.0788  163.3688 H   0  0  0  0  0  0  0  0  0  0  0  0
  150.6113  141.3259  158.1124 H   0  0  0  0  0  0  0  0  0  0  0  0
  151.8666  143.4670  158.4377 H   0  0  0  0  0  0  0  0  0  0  0  0
  154.1227  143.4595  159.4850 H   0  0  0  0  0  0  0  0  0  0  0  0
  155.1702  141.3063  160.2322 H   0  0  0  0  0  0  0  0  0  0  0  0
  1  2  1  0  0  0  0
  1 25  1  0  0  0  0
  1 26  1  0  0  0  0
  1 27  1  0  0  0  0
  2 24  1  0  0  0  0
  2  3  1  0  0  0  0
  3  4  2  0  0  0  0
  3  5  1  0  0  0  0
  5  6  1  0  0  0  0
  5 19  1  0  0  0  0
  6  7  1  0  0  0  0
  6 28  1  0  0  0  0
  6 29  1  0  0  0  0
  7  8  1  0  0  0  0
  7  9  1  0  0  0  0
  7 30  1  0  0  0  0
  8 31  1  0  0  0  0
  9 10  1  0  0  0  0
  9 32  1  0  0  0  0
  9 33  1  0  0  0  0
 10 11  1  0  0  0  0
 11 12  1  0  0  0  0
 11 34  1  0  0  0  0
 11 35  1  0  0  0  0
 12 17  1  0  0  0  0
 12 13  2  0  0  0  0
 13 14  1  0  0  0  0
 13 36  1  0  0  0  0
 14 15  2  0  0  0  0
 14 37  1  0  0  0  0
 15 16  1  0  0  0  0
 15 38  1  0  0  0  0
 16 17  2  0  0  0  0
 16 39  1  0  0  0  0
 17 18  1  0  0  0  0
 19 24  2  0  0  0  0
 19 20  1  0  0  0  0
 20 21  2  0  0  0  0
 20 40  1  0  0  0  0
 21 22  1  0  0  0  0
 21 41  1  0  0  0  0
 22 23  2  0  0  0  0
 22 42  1  0  0  0  0
 23 24  1  0  0  0  0
 23 43  1  0  0  0  0
M  END
> <s_m_source_file>
AV-unprocessed.smi

> <i_m_source_file_index>
422

> <i_lp_mmshare_version>
43012

> <i_f3d_flags>
0

> <s_epik_input>
W2NIXTFbY0hdW2NIXVtjSF1jKGMxMiluKFtDSDNdKWMoPU8pbjJbQ0gyXVtDQEhdKFtPSF0pW0NIMl1PW0NIMl1jM1tjSF1bY0hdW2NIXVtjSF1jM0Y=

> <s_epik_cmdline>
J2VwaWtfcHl0aG9uJywgJy1waCcsICc3LjAnLCAnLXRuJywgJzgnLCAnLW1hJywgJzIwMCcsICctbWV0YWxfYmluZGluZycsICctaW1hZScsICc8aW5maWxlLm1hZT4nLCAnLW9tYWUnLCAnPG91dGZpbGUubWFlPic=

> <r_lp_tautomer_probability>
1

> <r_epik_Ionization_Penalty>
1.0795e-06

> <r_epik_Ionization_Penalty_Charging>
2.82452e-09

> <r_epik_Ionization_Penalty_Neutral>
1.07667e-06

> <r_epik_State_Penalty>
-0

> <r_epik_Charging_Adjusted_Penalty>
2.82452e-09

> <i_epik_Tot_Q>
0

> <i_epik_Tot_abs_Q>
0

> <r_epik_Metal_State_Penalty>
-0

> <b_epik_Metal_Only>
0

> <s_lp_Force_Field>
OPLS_2005

> <r_lp_Energy>
45.4687

> <b_lp_Chiralities_Consistent>
1

> <s_lp_Variant>
AV-unprocessed.smi:422-1

> <Gold.Version>
5.8.1

> <Gold.Id.Protein>
6NUR|6NUR_protein|mol2

> <Gold.PLP.Fitness>
56.4764

> <Gold.PLP.PLP>
-51.0667

> <Gold.PLP.part.hbond>
-4.0000

> <Gold.PLP.part.metal>
0.0000

> <Gold.PLP.part.buried>
-6.9421

> <Gold.PLP.part.nonpolar>
-40.2449

> <Gold.PLP.part.repulsive>
0.0000

> <Gold.PLP.ligand.clash>
0.0000

> <Gold.PLP.ligand.torsion>
2.1648

> <Gold.PLP.Chemscore.Hbond>
3.2240

> <Gold.PLP.Chemscore.CHOScore>
0.0000

> <Gold.PLP.Chemscore.Metal>
0.0000

> <Gold.Chemscore.Hbonds>
donor molecule, donor type, donor heavy atom, donor atom, acceptor molecule, acceptor atom, score
      P1  H  6896  6907       L1     4  1.00
      P1  H  6896  6909       L1     8  0.58
      P1  H  6931  6943       L1    10  0.60
      P1  H  6934  6947       L1    10  0.72

> <Gold.PLP.Chemscore.Internal.Correction>
0.0672

> <Gold.Rescore>
     Score         DG    S(hbond)    S(metal)    S(lipo)     H(rot)  DE(clash)    DE(int)     intcor
     17.59     -21.22       2.32        0.00     120.35       2.38       0.01       3.62       ----

> <Gold.Chemscore.Fitness>
17.5904

> <Gold.Chemscore.DG>
-21.2199

> <Gold.Chemscore.ZeroCoef>
-5.4800

> <Gold.Chemscore.Hbond>
2.3217

> <Gold.Chemscore.Metal>
0.0000

> <Gold.Chemscore.Lipo>
120.3476

> <Gold.Chemscore.Internal_Hbond>
0.0000

> <Gold.Chemscore.DEClash>
0.0126

> <Gold.Chemscore.DEInternal>
3.6170

> <Gold.Chemscore.Rot>
2.3809

> <Gold.Chemscore.Internal.Correction>
   9.000000E+99

> <Gold.Chemscore.Hbonds>
donor molecule, donor type, donor heavy atom, donor atom, acceptor molecule, acceptor atom, score
      P1  H  6896  6907       L1     4  0.97
      P1  H  6896  6909       L1     8  0.54
      P1  H  6931  6943       L1    10  0.09
      P1  H  6934  6947       L1    10  0.32

> <Gold.Chemscore.Hbond.Weighted>
-7.7543

> <Gold.Chemscore.Metal.Weighted>
-0.0000

> <Gold.Chemscore.Lipo.Weighted>
-14.0807

> <Gold.Chemscore.Internal_Hbond.Weighted>
0.0000

> <Gold.Chemscore.DEClash.Weighted>
0.0126

> <Gold.Chemscore.DEInternal.Weighted>
3.6170

> <Gold.Chemscore.Rot.Weighted>
6.0951

> <Gold.Chemscore.Internal.Correction.Weighted>
   9.000000E+99

> <Gold.Protein.RotatedTorsions>
[ 6907 6896 6895 6894 ] final   36.85 input  -60.11 | X-H torsion
[ 7974 7965 7964 7962 ] final -140.96 input  175.53 | X-H torsion
[ 8008 7997 7996 7995 ] final  -61.14 input   59.86 | X-H torsion
[ 10167 10162 10161 10158 ] final   85.89 input  -65.29 | X-H torsion
[ 10718 10713 10712 10709 ] final  112.05 input   66.30 | X-H torsion
[ 10763 10752 10751 10750 ] final  -13.29 input  -60.55 | X-H torsion
[ 11005 11000 10999 10996 ] final  -50.53 input  -57.11 | X-H torsion

> <Gold.Protein.ActiveResidues>
 VAL166  LYS551  ARG553  GLY616  TRP617  ASP618  TYR619  PRO620  LYS621  CYS622 
 ASP623  PHE694  ASN695  SER759  ASP760  ASP761  ALA762  ILE779  LEU786  VAL792 
 PHE793  MET794  SER795  GLU796  ALA797  LYS798  CYS799  TRP800  GLU811  SER814 

> <Gold.Protein.RotatedAtoms>
  152.1353  134.9104  160.0556 H   0  0  0  0  0  0  0  0  0  0  0  0  # atno 6907 bound_to 6896
  152.0192  133.3887  159.4259 H   0  0  0  0  0  0  0  0  0  0  0  0  # atno 6908 bound_to 6896
  150.6860  134.3566  159.4976 H   0  0  0  0  0  0  0  0  0  0  0  0  # atno 6909 bound_to 6896
  144.8556  140.6138  143.5361 H   0  0  0  0  0  0  0  0  0  0  0  0  # atno 7974 bound_to 7965
  154.4433  140.1024  156.6384 H   0  0  0  0  0  0  0  0  0  0  0  0  # atno 8008 bound_to 7997
  155.5528  140.3486  155.4454 H   0  0  0  0  0  0  0  0  0  0  0  0  # atno 8009 bound_to 7997
  156.0517  140.1305  157.0032 H   0  0  0  0  0  0  0  0  0  0  0  0  # atno 8010 bound_to 7997
  139.8931  144.6374  150.8717 H   0  0  0  0  0  0  0  0  0  0  0  0  # atno 10167 bound_to 10162
  157.6413  131.0961  150.6838 H   0  0  0  0  0  0  0  0  0  0  0  0  # atno 10718 bound_to 10713
  153.5111  135.7016  153.5780 H   0  0  0  0  0  0  0  0  0  0  0  0  # atno 10763 bound_to 10752
  153.3870  135.3905  155.1896 H   0  0  0  0  0  0  0  0  0  0  0  0  # atno 10764 bound_to 10752
  154.8703  135.3849  154.4591 H   0  0  0  0  0  0  0  0  0  0  0  0  # atno 10765 bound_to 10752
  141.0821  133.6651  156.3744 H   0  0  0  0  0  0  0  0  0  0  0  0  # atno 11005 bound_to 11000
  145.4412  139.1535  143.3969 LP  0  0  0  0  0  0  0  0  0  0  0  0  # atno 17320 bound_to 7965
  146.2821  140.4533  142.8772 LP  0  0  0  0  0  0  0  0  0  0  0  0  # atno 17321 bound_to 7965
  140.7722  143.3494  151.2044 LP  0  0  0  0  0  0  0  0  0  0  0  0  # atno 17342 bound_to 10162
  139.7092  143.9405  152.2940 LP  0  0  0  0  0  0  0  0  0  0  0  0  # atno 17343 bound_to 10162
  156.7162  130.4666  149.5534 LP  0  0  0  0  0  0  0  0  0  0  0  0  # atno 17370 bound_to 10713
  156.1696  130.6428  151.0821 LP  0  0  0  0  0  0  0  0  0  0  0  0  # atno 17371 bound_to 10713
  140.5445  134.6088  157.5390 LP  0  0  0  0  0  0  0  0  0  0  0  0  # atno 17394 bound_to 11000
  139.9636  134.7411  156.0186 LP  0  0  0  0  0  0  0  0  0  0  0  0  # atno 17395 bound_to 11000

$$$$
