AV-unprocessed.smi:3314|AV-procd|sdf|12746|dock1
  -GOLD-   2272019 83D 1   1.00000     0.00000
 Structure written by MMmdl.
 37 38  0  0  0  0  0  0  0  0  3 V2000
  153.5735  140.4770  159.8077 C   0  0  0  0  0  0  0  0  0  0  0  0
  152.6528  141.5314  159.2308 C   0  0  0  0  0  0  0  0  0  0  0  0
  152.7081  142.8601  159.6918 C   0  0  0  0  0  0  0  0  0  0  0  0
  151.8320  143.7994  159.1143 C   0  0  0  0  0  0  0  0  0  0  0  0
  151.8386  145.2443  159.5665 C   0  0  0  0  0  0  0  0  0  0  0  0
  150.9438  143.4832  158.1470 N   0  0  0  0  0  0  0  0  0  0  0  0
  150.8751  142.2068  157.6998 C   0  0  0  0  0  0  0  0  0  0  0  0
  149.9963  141.9088  156.7322 N   0  5  0  0  0  0  0  0  0  0  0  0
  150.3590  141.0854  155.7180 C   0  0  0  0  0  0  0  0  0  0  0  0
  151.3737  140.3942  155.6085 O   0  0  0  0  0  0  0  0  0  0  0  0
  149.3124  141.0828  154.5956 C   0  0  1  0  0  0  0  0  0  0  0  0
  148.7620  139.6609  154.3503 C   0  0  0  0  0  0  0  0  0  0  0  0
  147.6952  139.6898  153.3247 N   0  3  1  0  0  0  0  0  0  0  0  0
  147.1634  138.3452  153.0172 C   0  0  0  0  0  0  0  0  0  0  0  0
  146.6348  140.6549  153.6921 C   0  0  0  0  0  0  0  0  0  0  0  0
  147.2460  142.0410  153.9534 C   0  0  0  0  0  0  0  0  0  0  0  0
  148.2353  141.9402  154.9691 O   0  0  0  0  0  0  0  0  0  0  0  0
  151.7275  141.2044  158.2191 C   0  0  0  0  0  0  0  0  0  0  0  0
  153.7310  140.6446  160.8736 H   0  0  0  0  0  0  0  0  0  0  0  0
  154.5410  140.5084  159.3065 H   0  0  0  0  0  0  0  0  0  0  0  0
  153.1523  139.4793  159.6808 H   0  0  0  0  0  0  0  0  0  0  0  0
  153.4038  143.1511  160.4651 H   0  0  0  0  0  0  0  0  0  0  0  0
  152.8038  145.5142  159.9956 H   0  0  0  0  0  0  0  0  0  0  0  0
  151.0695  145.4037  160.3223 H   0  0  0  0  0  0  0  0  0  0  0  0
  151.6424  145.9149  158.7291 H   0  0  0  0  0  0  0  0  0  0  0  0
  149.7653  141.4733  153.6809 H   0  0  0  0  0  0  0  0  0  0  0  0
  149.5630  138.9997  154.0160 H   0  0  0  0  0  0  0  0  0  0  0  0
  148.3656  139.2411  155.2769 H   0  0  0  0  0  0  0  0  0  0  0  0
  146.6873  137.9027  153.8932 H   0  0  0  0  0  0  0  0  0  0  0  0
  147.9640  137.6812  152.6901 H   0  0  0  0  0  0  0  0  0  0  0  0
  146.4255  138.3977  152.2160 H   0  0  0  0  0  0  0  0  0  0  0  0
  145.8990  140.7183  152.8896 H   0  0  0  0  0  0  0  0  0  0  0  0
  146.1115  140.3037  154.5827 H   0  0  0  0  0  0  0  0  0  0  0  0
  147.6821  142.4543  153.0426 H   0  0  0  0  0  0  0  0  0  0  0  0
  146.4736  142.7369  154.2809 H   0  0  0  0  0  0  0  0  0  0  0  0
  151.6676  140.1922  157.8458 H   0  0  0  0  0  0  0  0  0  0  0  0
  148.1224  140.0360  152.4774 H   0  0  0  0  0  0  0  0  0  0  0  0
  1  2  1  0  0  0  0
  1 19  1  0  0  0  0
  1 20  1  0  0  0  0
  1 21  1  0  0  0  0
  2 18  2  0  0  0  0
  2  3  1  0  0  0  0
  3  4  2  0  0  0  0
  3 22  1  0  0  0  0
  4  5  1  0  0  0  0
  4  6  1  0  0  0  0
  5 23  1  0  0  0  0
  5 24  1  0  0  0  0
  5 25  1  0  0  0  0
  6  7  2  0  0  0  0
  7  8  1  0  0  0  0
  7 18  1  0  0  0  0
  8  9  1  0  0  0  0
  9 10  2  0  0  0  0
  9 11  1  0  0  0  0
 11 17  1  0  0  0  0
 11 12  1  0  0  0  0
 11 26  1  0  0  0  0
 12 13  1  0  0  0  0
 12 27  1  0  0  0  0
 12 28  1  0  0  0  0
 13 14  1  0  0  0  0
 13 15  1  0  0  0  0
 13 37  1  0  0  0  0
 14 29  1  0  0  0  0
 14 30  1  0  0  0  0
 14 31  1  0  0  0  0
 15 16  1  0  0  0  0
 15 32  1  0  0  0  0
 15 33  1  0  0  0  0
 16 17  1  0  0  0  0
 16 34  1  0  0  0  0
 16 35  1  0  0  0  0
 18 36  1  0  0  0  0
M  CHG  1   8  -1
M  CHG  1  13   1
M  END
> <s_m_source_file>
AV-unprocessed.smi

> <i_m_source_file_index>
3314

> <i_lp_mmshare_version>
43012

> <i_f3d_flags>
0

> <s_epik_input>
W0NIM11jMVtjSF1jKFtDSDNdKW5jKFtjSF0xKVtOSF1DKD1PKVtDQEBIXTJbQ0gyXU4oW0NIM10pW0NIMl1bQ0gyXU8y

> <s_epik_cmdline>
J2VwaWtfcHl0aG9uJywgJy1waCcsICc3LjAnLCAnLXRuJywgJzgnLCAnLW1hJywgJzIwMCcsICctbWV0YWxfYmluZGluZycsICctaW1hZScsICc8aW5maWxlLm1hZT4nLCAnLW9tYWUnLCAnPG91dGZpbGUubWFlPic=

> <r_epik_Ionization_Penalty>
13.8964

> <r_epik_Ionization_Penalty_Charging>
7.88995

> <r_epik_Ionization_Penalty_Neutral>
6.00641

> <r_epik_State_Penalty>
8.39989

> <r_epik_Charging_Adjusted_Penalty>
16.2898

> <i_epik_Tot_Q>
0

> <i_epik_Tot_abs_Q>
2

> <r_epik_Metal_State_Penalty>
4.31145

> <b_epik_Metal_Only>
1

> <s_lp_Force_Field>
OPLS_2005

> <r_lp_Energy>
9.09812

> <b_lp_Chiralities_Consistent>
1

> <s_lp_Variant>
AV-unprocessed.smi:3314-16

> <Gold.Version>
5.8.1

> <Gold.Id.Protein>
6NUR|6NUR_protein|mol2

> <Gold.PLP.Fitness>
41.0682

> <Gold.PLP.PLP>
-37.0969

> <Gold.PLP.part.hbond>
-2.0000

> <Gold.PLP.part.metal>
0.0000

> <Gold.PLP.part.buried>
-2.7049

> <Gold.PLP.part.nonpolar>
-34.5147

> <Gold.PLP.part.repulsive>
2.2324

> <Gold.PLP.ligand.clash>
0.3154

> <Gold.PLP.ligand.torsion>
0.3525

> <Gold.PLP.Chemscore.Hbond>
1.6576

> <Gold.PLP.Chemscore.CHOScore>
0.0000

> <Gold.PLP.Chemscore.Metal>
0.0000

> <Gold.Chemscore.Hbonds>
donor molecule, donor type, donor heavy atom, donor atom, acceptor molecule, acceptor atom, score
      L1  H    13    37       P1  7957  1.00
      P1  H  7989  7998       L1    10  0.41

> <Gold.PLP.Chemscore.Internal.Correction>
0.0189

> <Gold.Rescore>
     Score         DG    S(hbond)    S(metal)    S(lipo)     H(rot)  DE(clash)    DE(int)     intcor
     14.49     -17.77       1.03        0.00      97.42       1.00       1.54       1.75       ----

> <Gold.Chemscore.Fitness>
14.4904

> <Gold.Chemscore.DG>
-17.7743

> <Gold.Chemscore.ZeroCoef>
-5.4800

> <Gold.Chemscore.Hbond>
1.0349

> <Gold.Chemscore.Metal>
0.0000

> <Gold.Chemscore.Lipo>
97.4166

> <Gold.Chemscore.Internal_Hbond>
0.0000

> <Gold.Chemscore.DEClash>
1.5388

> <Gold.Chemscore.DEInternal>
1.7451

> <Gold.Chemscore.Rot>
1.0000

> <Gold.Chemscore.Internal.Correction>
   9.000000E+99

> <Gold.Chemscore.Hbonds>
donor molecule, donor type, donor heavy atom, donor atom, acceptor molecule, acceptor atom, score
      L1  H    13    37       P1  7957  0.94
      P1  H  7989  7998       L1    10  0.04

> <Gold.Chemscore.Hbond.Weighted>
-3.4566

> <Gold.Chemscore.Metal.Weighted>
-0.0000

> <Gold.Chemscore.Lipo.Weighted>
-11.3977

> <Gold.Chemscore.Internal_Hbond.Weighted>
0.0000

> <Gold.Chemscore.DEClash.Weighted>
1.5388

> <Gold.Chemscore.DEInternal.Weighted>
1.7451

> <Gold.Chemscore.Rot.Weighted>
2.5600

> <Gold.Chemscore.Internal.Correction.Weighted>
   9.000000E+99

> <Gold.Protein.RotatedTorsions>
[ 6907 6896 6895 6894 ] final -115.60 input  -60.11 | X-H torsion
[ 7974 7965 7964 7962 ] final    4.40 input  175.53 | X-H torsion
[ 8008 7997 7996 7995 ] final  -27.35 input   59.86 | X-H torsion
[ 10167 10162 10161 10158 ] final  170.06 input  -65.29 | X-H torsion
[ 10718 10713 10712 10709 ] final -143.64 input   66.30 | X-H torsion
[ 10763 10752 10751 10750 ] final   78.83 input  -60.55 | X-H torsion
[ 11005 11000 10999 10996 ] final -136.83 input  -57.11 | X-H torsion

> <Gold.Protein.ActiveResidues>
 VAL166  LYS551  ARG553  GLY616  TRP617  ASP618  TYR619  PRO620  LYS621  CYS622 
 ASP623  PHE694  ASN695  SER759  ASP760  ASP761  ALA762  ILE779  LEU786  VAL792 
 PHE793  MET794  SER795  GLU796  ALA797  LYS798  CYS799  TRP800  GLU811  SER814 

> <Gold.Protein.RotatedAtoms>
  150.7990  133.8636  159.3238 H   0  0  0  0  0  0  0  0  0  0  0  0  # atno 6907 bound_to 6896
  151.6453  135.1006  160.0159 H   0  0  0  0  0  0  0  0  0  0  0  0  # atno 6908 bound_to 6896
  152.4075  133.6872  159.6404 H   0  0  0  0  0  0  0  0  0  0  0  0  # atno 6909 bound_to 6896
  146.2444  140.0541  142.8373 H   0  0  0  0  0  0  0  0  0  0  0  0  # atno 7974 bound_to 7965
  154.4381  140.1874  156.0919 H   0  0  0  0  0  0  0  0  0  0  0  0  # atno 8008 bound_to 7997
  156.0359  140.3325  155.7164 H   0  0  0  0  0  0  0  0  0  0  0  0  # atno 8009 bound_to 7997
  155.5771  140.0618  157.2783 H   0  0  0  0  0  0  0  0  0  0  0  0  # atno 8010 bound_to 7997
  139.5008  144.3638  151.9797 H   0  0  0  0  0  0  0  0  0  0  0  0  # atno 10167 bound_to 10162
  156.3604  130.7735  151.1902 H   0  0  0  0  0  0  0  0  0  0  0  0  # atno 10718 bound_to 10713
  153.0905  135.4862  154.8680 H   0  0  0  0  0  0  0  0  0  0  0  0  # atno 10763 bound_to 10752
  154.7263  135.3050  154.8967 H   0  0  0  0  0  0  0  0  0  0  0  0  # atno 10764 bound_to 10752
  153.9616  135.6811  153.4798 H   0  0  0  0  0  0  0  0  0  0  0  0  # atno 10765 bound_to 10752
  140.8768  134.1982  157.4616 H   0  0  0  0  0  0  0  0  0  0  0  0  # atno 11005 bound_to 11000
  145.0958  140.9314  143.4742 LP  0  0  0  0  0  0  0  0  0  0  0  0  # atno 17320 bound_to 7965
  145.0723  139.3022  143.5825 LP  0  0  0  0  0  0  0  0  0  0  0  0  # atno 17321 bound_to 7965
  140.3074  144.3577  150.6043 LP  0  0  0  0  0  0  0  0  0  0  0  0  # atno 17342 bound_to 10162
  140.5826  143.2172  151.7401 LP  0  0  0  0  0  0  0  0  0  0  0  0  # atno 17343 bound_to 10162
  157.7473  131.0401  150.4584 LP  0  0  0  0  0  0  0  0  0  0  0  0  # atno 17370 bound_to 10713
  156.4794  130.4070  149.6470 LP  0  0  0  0  0  0  0  0  0  0  0  0  # atno 17371 bound_to 10713
  139.8716  134.9799  156.5056 LP  0  0  0  0  0  0  0  0  0  0  0  0  # atno 17394 bound_to 11000
  140.8508  133.8133  155.9167 LP  0  0  0  0  0  0  0  0  0  0  0  0  # atno 17395 bound_to 11000

$$$$
