AV-unprocessed.smi:1090|AV-procd|sdf|4735|dock2
  -GOLD-   22720 3273D 1   1.00000     0.00000
 Structure written by MMmdl.
 38 40  0  0  0  0  0  0  0  0  1 V2000
  153.2574  139.7687  158.0877 O   0  0  0  0  0  0  0  0  0  0  0  0
  152.2715  139.8586  158.8192 C   0  0  0  0  0  0  0  0  0  0  0  0
  150.9697  139.1453  158.4461 C   0  0  0  0  0  0  0  0  0  0  0  0
  151.0335  138.4149  157.0851 C   0  0  0  0  0  0  0  0  0  0  0  0
  151.1830  139.3698  155.9075 C   0  0  0  0  0  0  0  0  0  0  0  0
  151.2794  138.8580  154.4891 C   0  0  0  0  0  0  0  0  0  0  0  0
  152.4827  139.4941  155.1453 C   0  0  0  0  0  0  0  0  0  0  0  0
  149.8084  137.5355  156.9037 C   0  0  0  0  0  0  0  0  0  0  0  0
  148.4725  137.9288  157.4866 C   0  0  0  0  0  0  0  0  0  0  0  0
  149.2274  136.7461  158.0524 C   0  0  0  0  0  0  0  0  0  0  0  0
  152.2582  140.5705  159.9562 N   0  0  0  0  0  0  0  0  0  0  0  0
  153.4007  141.2934  160.5012 C   0  0  0  0  0  0  0  0  0  0  0  0
  152.9750  142.6349  161.1191 C   0  0  0  0  0  0  0  0  0  0  0  0
  152.0098  143.3760  160.2567 C   0  0  0  0  0  0  0  0  0  0  0  0
  150.6984  143.4417  160.5041 N   0  0  0  0  0  0  0  0  0  0  0  0
  150.0074  144.1665  159.5298 C   0  0  0  0  0  0  0  0  0  0  0  0
  150.8135  144.6414  158.5265 C   0  0  0  0  0  0  0  0  0  0  0  0
  152.4790  144.1912  158.7685 S   0  0  0  0  0  0  0  0  0  0  0  0
  150.7243  138.4344  159.2367 H   0  0  0  0  0  0  0  0  0  0  0  0
  150.1602  139.8764  158.4390 H   0  0  0  0  0  0  0  0  0  0  0  0
  151.9065  137.7593  157.0924 H   0  0  0  0  0  0  0  0  0  0  0  0
  150.6185  140.2926  156.0289 H   0  0  0  0  0  0  0  0  0  0  0  0
  151.3084  137.7814  154.3340 H   0  0  0  0  0  0  0  0  0  0  0  0
  150.7676  139.4269  153.7155 H   0  0  0  0  0  0  0  0  0  0  0  0
  152.7744  140.4880  154.8129 H   0  0  0  0  0  0  0  0  0  0  0  0
  153.3036  138.8385  155.4299 H   0  0  0  0  0  0  0  0  0  0  0  0
  149.7679  137.0480  155.9311 H   0  0  0  0  0  0  0  0  0  0  0  0
  148.4292  138.8322  158.0919 H   0  0  0  0  0  0  0  0  0  0  0  0
  147.5848  137.7222  156.8924 H   0  0  0  0  0  0  0  0  0  0  0  0
  148.8438  135.7518  157.8338 H   0  0  0  0  0  0  0  0  0  0  0  0
  149.6780  136.8668  159.0354 H   0  0  0  0  0  0  0  0  0  0  0  0
  151.4022  140.5971  160.4912 H   0  0  0  0  0  0  0  0  0  0  0  0
  153.9166  140.6777  161.2399 H   0  0  0  0  0  0  0  0  0  0  0  0
  154.1100  141.4666  159.6914 H   0  0  0  0  0  0  0  0  0  0  0  0
  152.5199  142.4724  162.0969 H   0  0  0  0  0  0  0  0  0  0  0  0
  153.8454  143.2713  161.2834 H   0  0  0  0  0  0  0  0  0  0  0  0
  148.9393  144.2940  159.6279 H   0  0  0  0  0  0  0  0  0  0  0  0
  150.5296  145.2232  157.6619 H   0  0  0  0  0  0  0  0  0  0  0  0
  1  2  2  0  0  0  0
  2  3  1  0  0  0  0
  2 11  1  0  0  0  0
  3  4  1  0  0  0  0
  3 19  1  0  0  0  0
  3 20  1  0  0  0  0
  4  5  1  0  0  0  0
  4  8  1  0  0  0  0
  4 21  1  0  0  0  0
  5  7  1  0  0  0  0
  5  6  1  0  0  0  0
  5 22  1  0  0  0  0
  6  7  1  0  0  0  0
  6 23  1  0  0  0  0
  6 24  1  0  0  0  0
  7 25  1  0  0  0  0
  7 26  1  0  0  0  0
  8 10  1  0  0  0  0
  8  9  1  0  0  0  0
  8 27  1  0  0  0  0
  9 10  1  0  0  0  0
  9 28  1  0  0  0  0
  9 29  1  0  0  0  0
 10 30  1  0  0  0  0
 10 31  1  0  0  0  0
 11 12  1  0  0  0  0
 11 32  1  0  0  0  0
 12 13  1  0  0  0  0
 12 33  1  0  0  0  0
 12 34  1  0  0  0  0
 13 14  1  0  0  0  0
 13 35  1  0  0  0  0
 13 36  1  0  0  0  0
 14 18  1  0  0  0  0
 14 15  2  0  0  0  0
 15 16  1  0  0  0  0
 16 17  2  0  0  0  0
 16 37  1  0  0  0  0
 17 18  1  0  0  0  0
 17 38  1  0  0  0  0
M  END
> <s_m_source_file>
AV-unprocessed.smi

> <i_m_source_file_index>
1090

> <i_lp_mmshare_version>
43012

> <i_f3d_flags>
0

> <s_epik_input>
W0NIMl0xW0NIMl1bQ0hdMVtDSF0oW0NIXTJbQ0gyXVtDSDJdMilbQ0gyXUMoPU8pW05IXVtDSDJdW0NIMl1jM25bY0hdW2NIXXMz

> <s_epik_cmdline>
J2VwaWtfcHl0aG9uJywgJy1waCcsICc3LjAnLCAnLXRuJywgJzgnLCAnLW1hJywgJzIwMCcsICctbWV0YWxfYmluZGluZycsICctaW1hZScsICc8aW5maWxlLm1hZT4nLCAnLW9tYWUnLCAnPG91dGZpbGUubWFlPic=

> <r_lp_tautomer_probability>
1

> <r_epik_Ionization_Penalty>
0.000189819

> <r_epik_Ionization_Penalty_Charging>
0

> <r_epik_Ionization_Penalty_Neutral>
0.000189819

> <r_epik_State_Penalty>
-0

> <r_epik_Charging_Adjusted_Penalty>
0

> <i_epik_Tot_Q>
0

> <i_epik_Tot_abs_Q>
0

> <r_epik_Metal_State_Penalty>
-0

> <b_epik_Metal_Only>
0

> <s_lp_Force_Field>
OPLS_2005

> <r_lp_Energy>
14.2357

> <b_lp_Chiralities_Consistent>
1

> <s_lp_Variant>
AV-unprocessed.smi:1090-1

> <Gold.Version>
5.8.1

> <Gold.Id.Protein>
6NUR|6NUR_protein|mol2

> <Gold.PLP.Fitness>
42.2774

> <Gold.PLP.PLP>
-34.9991

> <Gold.PLP.part.hbond>
-1.0000

> <Gold.PLP.part.metal>
0.0000

> <Gold.PLP.part.buried>
-3.7425

> <Gold.PLP.part.nonpolar>
-29.9393

> <Gold.PLP.part.repulsive>
0.2424

> <Gold.PLP.ligand.clash>
0.0000

> <Gold.PLP.ligand.torsion>
1.6794

> <Gold.PLP.Chemscore.Hbond>
1.0000

> <Gold.PLP.Chemscore.CHOScore>
1.7515

> <Gold.PLP.Chemscore.Metal>
0.0000

> <Gold.Chemscore.Hbonds>
donor molecule, donor type, donor heavy atom, donor atom, acceptor molecule, acceptor atom, score
      P1  H  7997  8009       L1     1  1.00
      L1  C    17    38       P1  8028  0.56
      L1  C    17    38       P1  8029  0.13

> <Gold.PLP.Chemscore.Internal.Correction>
2.3826

> <Gold.Rescore>
     Score         DG    S(hbond)    S(metal)    S(lipo)     H(rot)  DE(clash)    DE(int)     intcor
     14.92     -16.77       1.00        0.00     105.14       1.70       0.03       1.83       ----

> <Gold.Chemscore.Fitness>
14.9177

> <Gold.Chemscore.DG>
-16.7742

> <Gold.Chemscore.ZeroCoef>
-5.4800

> <Gold.Chemscore.Hbond>
1.0000

> <Gold.Chemscore.Metal>
0.0000

> <Gold.Chemscore.Lipo>
105.1414

> <Gold.Chemscore.Internal_Hbond>
0.0000

> <Gold.Chemscore.DEClash>
0.0310

> <Gold.Chemscore.DEInternal>
1.8255

> <Gold.Chemscore.Rot>
1.6982

> <Gold.Chemscore.Internal.Correction>
   9.000000E+99

> <Gold.Chemscore.Hbonds>
donor molecule, donor type, donor heavy atom, donor atom, acceptor molecule, acceptor atom, score
      P1  H  7997  8009       L1     1  1.00

> <Gold.Chemscore.Hbond.Weighted>
-3.3400

> <Gold.Chemscore.Metal.Weighted>
-0.0000

> <Gold.Chemscore.Lipo.Weighted>
-12.3015

> <Gold.Chemscore.Internal_Hbond.Weighted>
0.0000

> <Gold.Chemscore.DEClash.Weighted>
0.0310

> <Gold.Chemscore.DEInternal.Weighted>
1.8255

> <Gold.Chemscore.Rot.Weighted>
4.3474

> <Gold.Chemscore.Internal.Correction.Weighted>
   9.000000E+99

> <Gold.Protein.RotatedTorsions>
[ 6907 6896 6895 6894 ] final -156.10 input  -60.11 | X-H torsion
[ 7974 7965 7964 7962 ] final   76.92 input  175.53 | X-H torsion
[ 8008 7997 7996 7995 ] final  156.00 input   59.86 | X-H torsion
[ 10167 10162 10161 10158 ] final  178.83 input  -65.29 | X-H torsion
[ 10718 10713 10712 10709 ] final   51.13 input   66.30 | X-H torsion
[ 10763 10752 10751 10750 ] final  103.90 input  -60.55 | X-H torsion
[ 11005 11000 10999 10996 ] final    1.72 input  -57.11 | X-H torsion

> <Gold.Protein.ActiveResidues>
 VAL166  LYS551  ARG553  GLY616  TRP617  ASP618  TYR619  PRO620  LYS621  CYS622 
 ASP623  PHE694  ASN695  SER759  ASP760  ASP761  ALA762  ILE779  LEU786  VAL792 
 PHE793  MET794  SER795  GLU796  ALA797  LYS798  CYS799  TRP800  GLU811  SER814 

> <Gold.Protein.RotatedAtoms>
  151.2825  133.4203  159.2627 H   0  0  0  0  0  0  0  0  0  0  0  0  # atno 6907 bound_to 6896
  151.0348  134.9565  159.8140 H   0  0  0  0  0  0  0  0  0  0  0  0  # atno 6908 bound_to 6896
  152.5353  134.2785  159.9051 H   0  0  0  0  0  0  0  0  0  0  0  0  # atno 6909 bound_to 6896
  145.6966  139.2569  143.1729 H   0  0  0  0  0  0  0  0  0  0  0  0  # atno 7974 bound_to 7965
  156.2447  140.1924  156.6889 H   0  0  0  0  0  0  0  0  0  0  0  0  # atno 8008 bound_to 7997
  154.6266  140.0601  156.9708 H   0  0  0  0  0  0  0  0  0  0  0  0  # atno 8009 bound_to 7997
  155.1776  140.3273  155.4383 H   0  0  0  0  0  0  0  0  0  0  0  0  # atno 8010 bound_to 7997
  139.5310  144.2633  152.0689 H   0  0  0  0  0  0  0  0  0  0  0  0  # atno 10167 bound_to 10162
  157.4951  130.8401  149.8249 H   0  0  0  0  0  0  0  0  0  0  0  0  # atno 10718 bound_to 10713
  153.3588  135.3961  155.1702 H   0  0  0  0  0  0  0  0  0  0  0  0  # atno 10763 bound_to 10752
  154.8675  135.3674  154.5127 H   0  0  0  0  0  0  0  0  0  0  0  0  # atno 10764 bound_to 10752
  153.5584  135.7081  153.5619 H   0  0  0  0  0  0  0  0  0  0  0  0  # atno 10765 bound_to 10752
  140.6123  133.9737  155.8183 H   0  0  0  0  0  0  0  0  0  0  0  0  # atno 11005 bound_to 11000
  146.0834  140.7738  142.9630 LP  0  0  0  0  0  0  0  0  0  0  0  0  # atno 17320 bound_to 7965
  144.6981  140.3525  143.7179 LP  0  0  0  0  0  0  0  0  0  0  0  0  # atno 17321 bound_to 7965
  140.2097  144.4575  150.6392 LP  0  0  0  0  0  0  0  0  0  0  0  0  # atno 17342 bound_to 10162
  140.6488  143.2220  151.6124 LP  0  0  0  0  0  0  0  0  0  0  0  0  # atno 17343 bound_to 10162
  156.0196  130.3800  150.2003 LP  0  0  0  0  0  0  0  0  0  0  0  0  # atno 17370 bound_to 10713
  157.0193  130.9974  151.3344 LP  0  0  0  0  0  0  0  0  0  0  0  0  # atno 17371 bound_to 10713
  141.0800  134.0077  157.3401 LP  0  0  0  0  0  0  0  0  0  0  0  0  # atno 17394 bound_to 11000
  139.9187  135.0199  156.7982 LP  0  0  0  0  0  0  0  0  0  0  0  0  # atno 17395 bound_to 11000

$$$$
