AV-unprocessed.smi:1817|AV-procd|sdf|7379|dock2
  -GOLD-   22720 9 43D 1   1.00000     0.00000
 Structure written by MMmdl.
 41 42  0  0  0  0  0  0  0  0  2 V2000
  151.9358  145.3053  159.5050 C   0  0  0  0  0  0  0  0  0  0  0  0
  152.3324  143.8983  159.9741 C   0  0  0  0  0  0  0  0  0  0  0  0
  152.1919  142.8507  158.9647 N   0  0  0  0  0  0  0  0  0  0  0  0
  150.8129  142.6967  158.5038 C   0  0  0  0  0  0  0  0  0  0  0  0
  150.6871  141.5856  157.4442 C   0  0  0  0  0  0  0  0  0  0  0  0
  151.1392  140.2764  157.9413 N   0  0  0  0  0  0  0  0  0  0  0  0
  151.0248  139.2048  156.9228 C   0  0  1  0  0  0  0  0  0  0  0  0
  151.5998  139.6253  155.5461 C   0  0  0  0  0  0  0  0  0  0  0  0
  151.6863  137.8684  157.3661 C   0  0  0  0  0  0  0  0  0  0  0  0
  150.7332  136.9060  157.9183 N   0  0  0  0  0  0  0  0  0  0  0  0
  149.7871  137.1556  158.8360 C   0  0  0  0  0  0  0  0  0  0  0  0
  149.6707  138.2868  159.3129 O   0  0  0  0  0  0  0  0  0  0  0  0
  149.0376  136.0745  159.1516 N   0  5  0  0  0  0  0  0  0  0  0  0
  148.2255  136.1111  160.2210 C   0  0  0  0  0  0  0  0  0  0  0  0
  147.9138  137.2566  160.8485 N   0  0  0  0  0  0  0  0  0  0  0  0
  147.0594  137.0734  161.9273 N   0  0  0  0  0  0  0  0  0  0  0  0
  146.7392  135.7888  162.0805 C   0  0  0  0  0  0  0  0  0  0  0  0
  147.4517  134.6865  160.9213 S   0  0  0  0  0  0  0  0  0  0  0  0
  152.5163  140.4481  158.4294 C   0  0  0  0  0  0  0  0  0  0  0  0
  152.6311  141.5605  159.4872 C   0  0  0  0  0  0  0  0  0  0  0  0
  152.1770  146.0449  160.2686 H   0  0  0  0  0  0  0  0  0  0  0  0
  150.8673  145.3823  159.3065 H   0  0  0  0  0  0  0  0  0  0  0  0
  152.4703  145.5818  158.5960 H   0  0  0  0  0  0  0  0  0  0  0  0
  153.3753  143.9422  160.2908 H   0  0  0  0  0  0  0  0  0  0  0  0
  151.7596  143.6361  160.8648 H   0  0  0  0  0  0  0  0  0  0  0  0
  150.1574  142.4746  159.3475 H   0  0  0  0  0  0  0  0  0  0  0  0
  150.4558  143.6296  158.0687 H   0  0  0  0  0  0  0  0  0  0  0  0
  149.6380  141.5470  157.1585 H   0  0  0  0  0  0  0  0  0  0  0  0
  151.2499  141.8622  156.5513 H   0  0  0  0  0  0  0  0  0  0  0  0
  149.9640  138.9980  156.7716 H   0  0  0  0  0  0  0  0  0  0  0  0
  151.5295  138.8286  154.8073 H   0  0  0  0  0  0  0  0  0  0  0  0
  152.6505  139.9059  155.6270 H   0  0  0  0  0  0  0  0  0  0  0  0
  151.0589  140.4604  155.1044 H   0  0  0  0  0  0  0  0  0  0  0  0
  152.2574  137.4402  156.5409 H   0  0  0  0  0  0  0  0  0  0  0  0
  152.3973  138.0317  158.1734 H   0  0  0  0  0  0  0  0  0  0  0  0
  150.7896  135.9621  157.5652 H   0  0  0  0  0  0  0  0  0  0  0  0
  146.0783  135.4888  162.8799 H   0  0  0  0  0  0  0  0  0  0  0  0
  152.8735  139.5337  158.8988 H   0  0  0  0  0  0  0  0  0  0  0  0
  153.1866  140.6601  157.5950 H   0  0  0  0  0  0  0  0  0  0  0  0
  153.6680  141.6313  159.8180 H   0  0  0  0  0  0  0  0  0  0  0  0
  152.0424  141.2913  160.3658 H   0  0  0  0  0  0  0  0  0  0  0  0
  1  2  1  0  0  0  0
  1 21  1  0  0  0  0
  1 22  1  0  0  0  0
  1 23  1  0  0  0  0
  2  3  1  0  0  0  0
  2 24  1  0  0  0  0
  2 25  1  0  0  0  0
  3 20  1  0  0  0  0
  3  4  1  0  0  0  0
  4  5  1  0  0  0  0
  4 26  1  0  0  0  0
  4 27  1  0  0  0  0
  5  6  1  0  0  0  0
  5 28  1  0  0  0  0
  5 29  1  0  0  0  0
  6  7  1  0  0  0  0
  6 19  1  0  0  0  0
  7  8  1  0  0  0  0
  7  9  1  0  0  0  0
  7 30  1  0  0  0  0
  8 31  1  0  0  0  0
  8 32  1  0  0  0  0
  8 33  1  0  0  0  0
  9 10  1  0  0  0  0
  9 34  1  0  0  0  0
  9 35  1  0  0  0  0
 10 11  1  0  0  0  0
 10 36  1  0  0  0  0
 11 12  2  0  0  0  0
 11 13  1  0  0  0  0
 13 14  1  0  0  0  0
 14 18  1  0  0  0  0
 14 15  2  0  0  0  0
 15 16  1  0  0  0  0
 16 17  2  0  0  0  0
 17 18  1  0  0  0  0
 17 37  1  0  0  0  0
 19 20  1  0  0  0  0
 19 38  1  0  0  0  0
 19 39  1  0  0  0  0
 20 40  1  0  0  0  0
 20 41  1  0  0  0  0
M  CHG  1  13  -1
M  END
> <s_m_source_file>
AV-unprocessed.smi

> <i_m_source_file_index>
1817

> <i_lp_mmshare_version>
43012

> <i_f3d_flags>
0

> <s_epik_input>
W0NIM11bQ0gyXU4xW0NIMl1bQ0gyXU4oW0NIMl1bQ0gyXTEpW0NASF0oW0NIM10pW0NIMl1bTkhdQyg9TylbTkhdYzJubltjSF1zMg==

> <s_epik_cmdline>
J2VwaWtfcHl0aG9uJywgJy1waCcsICc3LjAnLCAnLXRuJywgJzgnLCAnLW1hJywgJzIwMCcsICctbWV0YWxfYmluZGluZycsICctaW1hZScsICc8aW5maWxlLm1hZT4nLCAnLW9tYWUnLCAnPG91dGZpbGUubWFlPic=

> <r_lp_tautomer_probability>
1

> <r_epik_Ionization_Penalty>
6.0391

> <r_epik_Ionization_Penalty_Charging>
3.54798

> <r_epik_Ionization_Penalty_Neutral>
2.49112

> <r_epik_State_Penalty>
5.3147

> <r_epik_Charging_Adjusted_Penalty>
8.86267

> <i_epik_Tot_Q>
-1

> <i_epik_Tot_abs_Q>
1

> <r_epik_Metal_State_Penalty>
2.29997

> <b_epik_Metal_Only>
1

> <s_lp_Force_Field>
OPLS_2005

> <r_lp_Energy>
40.1381

> <b_lp_Chiralities_Consistent>
1

> <s_lp_Variant>
AV-unprocessed.smi:1817-12

> <Gold.Version>
5.8.1

> <Gold.Id.Protein>
6NUR|6NUR_protein|mol2

> <Gold.PLP.Fitness>
42.9174

> <Gold.PLP.PLP>
-36.4046

> <Gold.PLP.part.hbond>
-5.8081

> <Gold.PLP.part.metal>
0.0000

> <Gold.PLP.part.buried>
-4.7766

> <Gold.PLP.part.nonpolar>
-27.1317

> <Gold.PLP.part.repulsive>
0.0955

> <Gold.PLP.ligand.clash>
0.0000

> <Gold.PLP.ligand.torsion>
0.8436

> <Gold.PLP.Chemscore.Hbond>
2.7006

> <Gold.PLP.Chemscore.CHOScore>
0.0000

> <Gold.PLP.Chemscore.Metal>
0.0000

> <Gold.Chemscore.Hbonds>
donor molecule, donor type, donor heavy atom, donor atom, acceptor molecule, acceptor atom, score
      P1  H  6896  6909       L1    13  0.94
      P1  H  6931  6943       L1    15  0.42
      P1  H  6934  6947       L1    15  0.08

> <Gold.PLP.Chemscore.Internal.Correction>
0.0982

> <Gold.Rescore>
     Score         DG    S(hbond)    S(metal)    S(lipo)     H(rot)  DE(clash)    DE(int)     intcor
      8.49     -13.15       0.74        0.00      84.55       1.84       0.04       4.63       ----

> <Gold.Chemscore.Fitness>
8.4892

> <Gold.Chemscore.DG>
-13.1546

> <Gold.Chemscore.ZeroCoef>
-5.4800

> <Gold.Chemscore.Hbond>
0.7431

> <Gold.Chemscore.Metal>
0.0000

> <Gold.Chemscore.Lipo>
84.5492

> <Gold.Chemscore.Internal_Hbond>
0.0000

> <Gold.Chemscore.DEClash>
0.0403

> <Gold.Chemscore.DEInternal>
4.6250

> <Gold.Chemscore.Rot>
1.8358

> <Gold.Chemscore.Internal.Correction>
   9.000000E+99

> <Gold.Chemscore.Hbonds>
donor molecule, donor type, donor heavy atom, donor atom, acceptor molecule, acceptor atom, score
      P1  H  6896  6909       L1    13  0.06
      P1  H  6931  6943       L1    15  0.02

> <Gold.Chemscore.Hbond.Weighted>
-2.4820

> <Gold.Chemscore.Metal.Weighted>
-0.0000

> <Gold.Chemscore.Lipo.Weighted>
-9.8923

> <Gold.Chemscore.Internal_Hbond.Weighted>
0.0000

> <Gold.Chemscore.DEClash.Weighted>
0.0403

> <Gold.Chemscore.DEInternal.Weighted>
4.6250

> <Gold.Chemscore.Rot.Weighted>
4.6996

> <Gold.Chemscore.Internal.Correction.Weighted>
   9.000000E+99

> <Gold.Protein.RotatedTorsions>
[ 6907 6896 6895 6894 ] final   55.86 input  -60.11 | X-H torsion
[ 7974 7965 7964 7962 ] final  -33.50 input  175.53 | X-H torsion
[ 8008 7997 7996 7995 ] final  -17.88 input   59.86 | X-H torsion
[ 10167 10162 10161 10158 ] final    2.69 input  -65.29 | X-H torsion
[ 10718 10713 10712 10709 ] final -173.22 input   66.30 | X-H torsion
[ 10763 10752 10751 10750 ] final  115.78 input  -60.55 | X-H torsion
[ 11005 11000 10999 10996 ] final   39.20 input  -57.11 | X-H torsion

> <Gold.Protein.ActiveResidues>
 VAL166  LYS551  ARG553  GLY616  TRP617  ASP618  TYR619  PRO620  LYS621  CYS622 
 ASP623  PHE694  ASN695  SER759  ASP760  ASP761  ALA762  ILE779  LEU786  VAL792 
 PHE793  MET794  SER795  GLU796  ALA797  LYS798  CYS799  TRP800  GLU811  SER814 

> <Gold.Protein.RotatedAtoms>
  152.3580  134.6912  160.0215 H   0  0  0  0  0  0  0  0  0  0  0  0  # atno 6907 bound_to 6896
  151.7244  133.3310  159.3332 H   0  0  0  0  0  0  0  0  0  0  0  0  # atno 6908 bound_to 6896
  150.7585  134.6353  159.6252 H   0  0  0  0  0  0  0  0  0  0  0  0  # atno 6909 bound_to 6896
  146.0905  140.5924  142.8866 H   0  0  0  0  0  0  0  0  0  0  0  0  # atno 7974 bound_to 7965
  154.4946  140.2130  155.9475 H   0  0  0  0  0  0  0  0  0  0  0  0  # atno 8008 bound_to 7997
  156.1352  140.3190  155.8378 H   0  0  0  0  0  0  0  0  0  0  0  0  # atno 8009 bound_to 7997
  155.4223  140.0497  157.3015 H   0  0  0  0  0  0  0  0  0  0  0  0  # atno 8010 bound_to 7997
  140.6623  143.7272  150.7761 H   0  0  0  0  0  0  0  0  0  0  0  0  # atno 10167 bound_to 10162
  156.7671  130.9435  151.3119 H   0  0  0  0  0  0  0  0  0  0  0  0  # atno 10718 bound_to 10713
  153.5273  135.3585  155.2660 H   0  0  0  0  0  0  0  0  0  0  0  0  # atno 10763 bound_to 10752
  154.8730  135.4060  154.3191 H   0  0  0  0  0  0  0  0  0  0  0  0  # atno 10764 bound_to 10752
  153.3873  135.7070  153.6588 H   0  0  0  0  0  0  0  0  0  0  0  0  # atno 10765 bound_to 10752
  140.2051  134.3823  155.8076 H   0  0  0  0  0  0  0  0  0  0  0  0  # atno 11005 bound_to 11000
  144.7357  140.4801  143.6905 LP  0  0  0  0  0  0  0  0  0  0  0  0  # atno 17320 bound_to 7965
  145.6047  139.1507  143.3109 LP  0  0  0  0  0  0  0  0  0  0  0  0  # atno 17321 bound_to 7965
  140.0943  143.4848  152.2461 LP  0  0  0  0  0  0  0  0  0  0  0  0  # atno 17342 bound_to 10162
  139.5860  144.7531  151.3518 LP  0  0  0  0  0  0  0  0  0  0  0  0  # atno 17343 bound_to 10162
  157.6708  130.9049  150.0036 LP  0  0  0  0  0  0  0  0  0  0  0  0  # atno 17370 bound_to 10713
  156.1302  130.3643  149.9744 LP  0  0  0  0  0  0  0  0  0  0  0  0  # atno 17371 bound_to 10713
  141.2227  133.7114  156.8323 LP  0  0  0  0  0  0  0  0  0  0  0  0  # atno 17394 bound_to 11000
  140.2012  134.8896  157.3171 LP  0  0  0  0  0  0  0  0  0  0  0  0  # atno 17395 bound_to 11000

$$$$
