AV-unprocessed.smi:1426|AV-procd|sdf|5807|dock6
  -GOLD-   22720 5463D 1   1.00000     0.00000
 Structure written by MMmdl.
 44 46  0  0  0  0  0  0  0  0  2 V2000
  141.7494  136.5117  153.6461 O   0  0  0  0  0  0  0  0  0  0  0  0
  142.2881  137.5101  153.1686 C   0  0  0  0  0  0  0  0  0  0  0  0
  141.7897  138.7487  153.2835 N   0  0  0  0  0  0  0  0  0  0  0  0
  140.5503  139.0926  153.9734 C   0  0  0  0  0  0  0  0  0  0  0  0
  139.2977  138.7118  153.1541 C   0  0  2  0  0  0  0  0  0  0  0  0
  138.0622  139.5274  153.5094 C   0  0  0  0  0  0  0  0  0  0  0  0
  137.3924  138.7207  154.6262 C   0  0  0  0  0  0  0  0  0  0  0  0
  138.0468  137.4562  154.6567 O   0  0  0  0  0  0  0  0  0  0  0  0
  138.8116  137.2997  153.4713 C   0  0  0  0  0  0  0  0  0  0  0  0
  143.4251  137.5076  152.4528 N   0  0  0  0  0  0  0  0  0  0  0  0
  144.2300  136.3921  152.0845 C   0  0  0  0  0  0  0  0  0  0  0  0
  143.6469  135.1588  151.6944 C   0  0  0  0  0  0  0  0  0  0  0  0
  144.4688  134.0807  151.3159 C   0  0  0  0  0  0  0  0  0  0  0  0
  145.8636  134.2489  151.3370 C   0  0  0  0  0  0  0  0  0  0  0  0
  146.3885  135.4269  151.7321 N   0  3  0  0  0  0  0  0  0  0  0  0
  145.6512  136.4968  152.1223 C   0  0  0  0  0  0  0  0  0  0  0  0
  146.3426  137.6622  152.5246 N   0  0  0  0  0  0  0  0  0  0  0  0
  146.0776  138.2647  153.8259 C   0  0  0  0  0  0  0  0  0  0  0  0
  146.7231  139.6459  153.7602 C   0  0  0  0  0  0  0  0  0  0  0  0
  146.4971  140.0437  152.3045 C   0  0  0  0  0  0  0  0  0  0  0  0
  146.5846  138.7158  151.5438 C   0  0  0  0  0  0  0  0  0  0  0  0
  142.2975  139.5111  152.8590 H   0  0  0  0  0  0  0  0  0  0  0  0
  140.5269  138.6028  154.9483 H   0  0  0  0  0  0  0  0  0  0  0  0
  140.5605  140.1649  154.1718 H   0  0  0  0  0  0  0  0  0  0  0  0
  139.5260  138.7991  152.0910 H   0  0  0  0  0  0  0  0  0  0  0  0
  138.2808  140.5539  153.8049 H   0  0  0  0  0  0  0  0  0  0  0  0
  137.3966  139.5722  152.6464 H   0  0  0  0  0  0  0  0  0  0  0  0
  137.5086  139.2067  155.5953 H   0  0  0  0  0  0  0  0  0  0  0  0
  136.3261  138.5942  154.4366 H   0  0  0  0  0  0  0  0  0  0  0  0
  138.1626  136.9302  152.6758 H   0  0  0  0  0  0  0  0  0  0  0  0
  139.6228  136.5834  153.6057 H   0  0  0  0  0  0  0  0  0  0  0  0
  143.6899  138.3904  152.0413 H   0  0  0  0  0  0  0  0  0  0  0  0
  142.5765  135.0189  151.6850 H   0  0  0  0  0  0  0  0  0  0  0  0
  144.0336  133.1395  151.0128 H   0  0  0  0  0  0  0  0  0  0  0  0
  146.5714  133.4807  151.0607 H   0  0  0  0  0  0  0  0  0  0  0  0
  145.0038  138.3705  153.9860 H   0  0  0  0  0  0  0  0  0  0  0  0
  146.4902  137.6626  154.6359 H   0  0  0  0  0  0  0  0  0  0  0  0
  146.2904  140.3522  154.4693 H   0  0  0  0  0  0  0  0  0  0  0  0
  147.7921  139.5693  153.9649 H   0  0  0  0  0  0  0  0  0  0  0  0
  145.4973  140.4656  152.1930 H   0  0  0  0  0  0  0  0  0  0  0  0
  147.2147  140.7836  151.9490 H   0  0  0  0  0  0  0  0  0  0  0  0
  147.5860  138.5893  151.1308 H   0  0  0  0  0  0  0  0  0  0  0  0
  145.8686  138.6829  150.7208 H   0  0  0  0  0  0  0  0  0  0  0  0
  147.4047  135.5147  151.7464 H   0  0  0  0  0  0  0  0  0  0  0  0
  1  2  2  0  0  0  0
  2  3  1  0  0  0  0
  2 10  1  0  0  0  0
  3  4  1  0  0  0  0
  3 22  1  0  0  0  0
  4  5  1  0  0  0  0
  4 23  1  0  0  0  0
  4 24  1  0  0  0  0
  5  9  1  0  0  0  0
  5  6  1  0  0  0  0
  5 25  1  0  0  0  0
  6  7  1  0  0  0  0
  6 26  1  0  0  0  0
  6 27  1  0  0  0  0
  7  8  1  0  0  0  0
  7 28  1  0  0  0  0
  7 29  1  0  0  0  0
  8  9  1  0  0  0  0
  9 30  1  0  0  0  0
  9 31  1  0  0  0  0
 10 11  1  0  0  0  0
 10 32  1  0  0  0  0
 11 16  1  0  0  0  0
 11 12  2  0  0  0  0
 12 13  1  0  0  0  0
 12 33  1  0  0  0  0
 13 14  2  0  0  0  0
 13 34  1  0  0  0  0
 14 15  1  0  0  0  0
 14 35  1  0  0  0  0
 15 16  2  0  0  0  0
 15 44  1  0  0  0  0
 16 17  1  0  0  0  0
 17 21  1  0  0  0  0
 17 18  1  0  0  0  0
 18 19  1  0  0  0  0
 18 36  1  0  0  0  0
 18 37  1  0  0  0  0
 19 20  1  0  0  0  0
 19 38  1  0  0  0  0
 19 39  1  0  0  0  0
 20 21  1  0  0  0  0
 20 40  1  0  0  0  0
 20 41  1  0  0  0  0
 21 42  1  0  0  0  0
 21 43  1  0  0  0  0
M  CHG  1  15   1
M  END
> <s_m_source_file>
AV-unprocessed.smi

> <i_m_source_file_index>
1426

> <i_lp_mmshare_version>
43012

> <i_f3d_flags>
0

> <s_epik_input>
W0NIMl0xT1tDSDJdW0NIMl1bQ0BIXTFbQ0gyXVtOSF1DKD1PKVtOSF1jMltjSF1bY0hdW2NIXW5jMk4zW0NIMl1bQ0gyXVtDSDJdW0NIMl0z

> <s_epik_cmdline>
J2VwaWtfcHl0aG9uJywgJy1waCcsICc3LjAnLCAnLXRuJywgJzgnLCAnLW1hJywgJzIwMCcsICctbWV0YWxfYmluZGluZycsICctaW1hZScsICc8aW5maWxlLm1hZT4nLCAnLW9tYWUnLCAnPG91dGZpbGUubWFlPic=

> <r_lp_tautomer_probability>
0.999994

> <r_epik_Ionization_Penalty>
1.10677

> <r_epik_Ionization_Penalty_Charging>
1.10675

> <r_epik_Ionization_Penalty_Neutral>
2.02663e-05

> <r_epik_State_Penalty>
1.16438

> <r_epik_Charging_Adjusted_Penalty>
2.27113

> <i_epik_Tot_Q>
1

> <i_epik_Tot_abs_Q>
1

> <r_epik_Metal_State_Penalty>
1.25078

> <b_epik_Metal_Only>
0

> <s_lp_Force_Field>
OPLS_2005

> <r_lp_Energy>
54.6113

> <b_lp_Chiralities_Consistent>
1

> <s_lp_Variant>
AV-unprocessed.smi:1426-3

> <Gold.Version>
5.8.1

> <Gold.Id.Protein>
6NUR|6NUR_protein|mol2

> <Gold.PLP.Fitness>
44.1175

> <Gold.PLP.PLP>
-34.7123

> <Gold.PLP.part.hbond>
-4.1327

> <Gold.PLP.part.metal>
0.0000

> <Gold.PLP.part.buried>
-1.8706

> <Gold.PLP.part.nonpolar>
-31.3461

> <Gold.PLP.part.repulsive>
1.1776

> <Gold.PLP.ligand.clash>
0.0000

> <Gold.PLP.ligand.torsion>
1.1050

> <Gold.PLP.Chemscore.Hbond>
3.7436

> <Gold.PLP.Chemscore.CHOScore>
0.0000

> <Gold.PLP.Chemscore.Metal>
0.0000

> <Gold.Chemscore.Hbonds>
donor molecule, donor type, donor heavy atom, donor atom, acceptor molecule, acceptor atom, score
      L1  H     3    22       P1 10175  1.00
      L1  H    10    32       P1 10175  0.72
      L1  H    15    44       P1  7948  2.00

> <Gold.PLP.Chemscore.Internal.Correction>
0.3844

> <Gold.Rescore>
     Score         DG    S(hbond)    S(metal)    S(lipo)     H(rot)  DE(clash)    DE(int)     intcor
     17.44     -20.98       2.90        0.00      80.49       1.40       1.53       2.01       ----

> <Gold.Chemscore.Fitness>
17.4406

> <Gold.Chemscore.DG>
-20.9810

> <Gold.Chemscore.ZeroCoef>
-5.4800

> <Gold.Chemscore.Hbond>
2.8962

> <Gold.Chemscore.Metal>
0.0000

> <Gold.Chemscore.Lipo>
80.4926

> <Gold.Chemscore.Internal_Hbond>
0.0000

> <Gold.Chemscore.DEClash>
1.5312

> <Gold.Chemscore.DEInternal>
2.0091

> <Gold.Chemscore.Rot>
1.4023

> <Gold.Chemscore.Internal.Correction>
   9.000000E+99

> <Gold.Chemscore.Hbonds>
donor molecule, donor type, donor heavy atom, donor atom, acceptor molecule, acceptor atom, score
      L1  H     3    22       P1 10175  0.87
      L1  H    10    32       P1 10175  0.70
      L1  H    15    44       P1  7948  0.99

> <Gold.Chemscore.Hbond.Weighted>
-9.6732

> <Gold.Chemscore.Metal.Weighted>
-0.0000

> <Gold.Chemscore.Lipo.Weighted>
-9.4176

> <Gold.Chemscore.Internal_Hbond.Weighted>
0.0000

> <Gold.Chemscore.DEClash.Weighted>
1.5312

> <Gold.Chemscore.DEInternal.Weighted>
2.0091

> <Gold.Chemscore.Rot.Weighted>
3.5898

> <Gold.Chemscore.Internal.Correction.Weighted>
   9.000000E+99

> <Gold.Protein.RotatedTorsions>
[ 6907 6896 6895 6894 ] final  156.29 input  -60.11 | X-H torsion
[ 7974 7965 7964 7962 ] final  -54.21 input  175.53 | X-H torsion
[ 8008 7997 7996 7995 ] final  154.41 input   59.86 | X-H torsion
[ 10167 10162 10161 10158 ] final    6.31 input  -65.29 | X-H torsion
[ 10718 10713 10712 10709 ] final  134.02 input   66.30 | X-H torsion
[ 10763 10752 10751 10750 ] final -133.05 input  -60.55 | X-H torsion
[ 11005 11000 10999 10996 ] final   24.07 input  -57.11 | X-H torsion

> <Gold.Protein.ActiveResidues>
 VAL166  LYS551  ARG553  GLY616  TRP617  ASP618  TYR619  PRO620  LYS621  CYS622 
 ASP623  PHE694  ASN695  SER759  ASP760  ASP761  ALA762  ILE779  LEU786  VAL792 
 PHE793  MET794  SER795  GLU796  ALA797  LYS798  CYS799  TRP800  GLU811  SER814 

> <Gold.Protein.RotatedAtoms>
  152.0318  133.3940  159.4299 H   0  0  0  0  0  0  0  0  0  0  0  0  # atno 6907 bound_to 6896
  150.6882  134.3513  159.4919 H   0  0  0  0  0  0  0  0  0  0  0  0  # atno 6908 bound_to 6896
  152.1300  134.9142  160.0610 H   0  0  0  0  0  0  0  0  0  0  0  0  # atno 6909 bound_to 6896
  145.8881  140.8092  142.9805 H   0  0  0  0  0  0  0  0  0  0  0  0  # atno 7974 bound_to 7965
  156.2533  140.1967  156.6641 H   0  0  0  0  0  0  0  0  0  0  0  0  # atno 8008 bound_to 7997
  154.6442  140.0580  156.9906 H   0  0  0  0  0  0  0  0  0  0  0  0  # atno 8009 bound_to 7997
  155.1516  140.3252  155.4432 H   0  0  0  0  0  0  0  0  0  0  0  0  # atno 8010 bound_to 7997
  140.6435  143.7718  150.7463 H   0  0  0  0  0  0  0  0  0  0  0  0  # atno 10167 bound_to 10162
  157.4714  131.1080  150.9797 H   0  0  0  0  0  0  0  0  0  0  0  0  # atno 10718 bound_to 10713
  154.8737  135.3778  154.4510 H   0  0  0  0  0  0  0  0  0  0  0  0  # atno 10763 bound_to 10752
  153.5186  135.7029  153.5748 H   0  0  0  0  0  0  0  0  0  0  0  0  # atno 10764 bound_to 10752
  153.4005  135.3949  155.1950 H   0  0  0  0  0  0  0  0  0  0  0  0  # atno 10765 bound_to 10752
  140.3627  134.2107  155.7671 H   0  0  0  0  0  0  0  0  0  0  0  0  # atno 11005 bound_to 11000
  144.6729  140.1488  143.7431 LP  0  0  0  0  0  0  0  0  0  0  0  0  # atno 17320 bound_to 7965
  145.8941  139.2393  143.1532 LP  0  0  0  0  0  0  0  0  0  0  0  0  # atno 17321 bound_to 7965
  140.1354  143.4488  152.2227 LP  0  0  0  0  0  0  0  0  0  0  0  0  # atno 17342 bound_to 10162
  139.5644  144.7426  151.4062 LP  0  0  0  0  0  0  0  0  0  0  0  0  # atno 17343 bound_to 10162
  157.0561  130.5806  149.5378 LP  0  0  0  0  0  0  0  0  0  0  0  0  # atno 17370 bound_to 10713
  156.0075  130.5164  150.7880 LP  0  0  0  0  0  0  0  0  0  0  0  0  # atno 17371 bound_to 10713
  141.1979  133.8048  157.0607 LP  0  0  0  0  0  0  0  0  0  0  0  0  # atno 17394 bound_to 11000
  140.0613  134.9753  157.1310 LP  0  0  0  0  0  0  0  0  0  0  0  0  # atno 17395 bound_to 11000

$$$$
