AV-unprocessed.smi:299|AV-procd|sdf|2265|dock7
  -GOLD-   2262022153D 1   1.00000     0.00000
 Structure written by MMmdl.
 42 43  0  0  0  0  0  0  0  0  2 V2000
  147.0749  129.9388  153.2974 C   0  0  0  0  0  0  0  0  0  0  0  0
  146.4602  131.1636  152.5886 C   0  0  2  0  0  0  0  0  0  0  0  0
  145.5762  130.6624  151.4248 C   0  0  0  0  0  0  0  0  0  0  0  0
  144.9153  131.8148  150.6658 C   0  0  0  0  0  0  0  0  0  0  0  0
  145.9928  132.7831  150.1802 C   0  0  0  0  0  0  0  0  0  0  0  0
  146.8502  133.2726  151.3559 C   0  0  0  0  0  0  0  0  0  0  0  0
  147.4855  132.1437  152.0974 N   0  3  1  0  0  0  0  0  0  0  0  0
  148.4177  132.6274  153.1586 C   0  0  0  0  0  0  0  0  0  0  0  0
  147.7963  133.6836  154.0935 C   0  0  0  0  0  0  0  0  0  0  0  0
  148.8439  134.3461  155.0038 C   0  0  0  0  0  0  0  0  0  0  0  0
  149.3401  135.5914  154.4296 N   0  0  0  0  0  0  0  0  0  0  0  0
  150.1569  136.4561  155.0533 C   0  0  0  0  0  0  0  0  0  0  0  0
  150.5661  136.2887  156.2018 O   0  0  0  0  0  0  0  0  0  0  0  0
  150.5631  137.7105  154.2752 C   0  0  0  0  0  0  0  0  0  0  0  0
  151.4315  138.5737  155.0553 N   0  0  0  0  0  0  0  0  0  0  0  0
  152.4820  138.2920  155.8287 C   0  0  0  0  0  0  0  0  0  0  0  0
  152.9966  139.3843  156.3720 N   0  0  0  0  0  0  0  0  0  0  0  0
  152.1864  140.3929  155.8780 N   0  0  0  0  0  0  0  0  0  0  0  0
  151.2564  139.9182  155.0953 N   0  0  0  0  0  0  0  0  0  0  0  0
  146.3185  129.1752  153.4812 H   0  0  0  0  0  0  0  0  0  0  0  0
  147.4908  130.1875  154.2733 H   0  0  0  0  0  0  0  0  0  0  0  0
  147.8601  129.4821  152.6937 H   0  0  0  0  0  0  0  0  0  0  0  0
  145.8191  131.6806  153.3049 H   0  0  0  0  0  0  0  0  0  0  0  0
  146.1779  130.0707  150.7331 H   0  0  0  0  0  0  0  0  0  0  0  0
  144.8012  129.9948  151.8038 H   0  0  0  0  0  0  0  0  0  0  0  0
  144.3429  131.4316  149.8205 H   0  0  0  0  0  0  0  0  0  0  0  0
  144.2096  132.3345  151.3151 H   0  0  0  0  0  0  0  0  0  0  0  0
  146.6265  132.2924  149.4400 H   0  0  0  0  0  0  0  0  0  0  0  0
  145.5296  133.6327  149.6775 H   0  0  0  0  0  0  0  0  0  0  0  0
  147.6044  133.9431  150.9487 H   0  0  0  0  0  0  0  0  0  0  0  0
  146.2420  133.8632  152.0429 H   0  0  0  0  0  0  0  0  0  0  0  0
  148.7934  131.7810  153.7355 H   0  0  0  0  0  0  0  0  0  0  0  0
  149.2849  133.1013  152.7052 H   0  0  0  0  0  0  0  0  0  0  0  0
  147.3001  134.4519  153.4990 H   0  0  0  0  0  0  0  0  0  0  0  0
  147.0320  133.2303  154.7234 H   0  0  0  0  0  0  0  0  0  0  0  0
  148.4294  134.5283  155.9971 H   0  0  0  0  0  0  0  0  0  0  0  0
  149.6945  133.6782  155.1419 H   0  0  0  0  0  0  0  0  0  0  0  0
  149.0496  135.8070  153.4869 H   0  0  0  0  0  0  0  0  0  0  0  0
  151.0803  137.4211  153.3597 H   0  0  0  0  0  0  0  0  0  0  0  0
  149.6771  138.2748  153.9801 H   0  0  0  0  0  0  0  0  0  0  0  0
  152.8645  137.2955  155.9937 H   0  0  0  0  0  0  0  0  0  0  0  0
  148.0523  131.6421  151.4286 H   0  0  0  0  0  0  0  0  0  0  0  0
  1  2  1  0  0  0  0
  1 20  1  0  0  0  0
  1 21  1  0  0  0  0
  1 22  1  0  0  0  0
  2  7  1  0  0  0  0
  2  3  1  0  0  0  0
  2 23  1  0  0  0  0
  3  4  1  0  0  0  0
  3 24  1  0  0  0  0
  3 25  1  0  0  0  0
  4  5  1  0  0  0  0
  4 26  1  0  0  0  0
  4 27  1  0  0  0  0
  5  6  1  0  0  0  0
  5 28  1  0  0  0  0
  5 29  1  0  0  0  0
  6  7  1  0  0  0  0
  6 30  1  0  0  0  0
  6 31  1  0  0  0  0
  7  8  1  0  0  0  0
  7 42  1  0  0  0  0
  8  9  1  0  0  0  0
  8 32  1  0  0  0  0
  8 33  1  0  0  0  0
  9 10  1  0  0  0  0
  9 34  1  0  0  0  0
  9 35  1  0  0  0  0
 10 11  1  0  0  0  0
 10 36  1  0  0  0  0
 10 37  1  0  0  0  0
 11 12  1  0  0  0  0
 11 38  1  0  0  0  0
 12 13  2  0  0  0  0
 12 14  1  0  0  0  0
 14 15  1  0  0  0  0
 14 39  1  0  0  0  0
 14 40  1  0  0  0  0
 15 19  1  0  0  0  0
 15 16  1  0  0  0  0
 16 17  2  0  0  0  0
 16 41  1  0  0  0  0
 17 18  1  0  0  0  0
 18 19  2  0  0  0  0
M  CHG  1   7   1
M  END
> <s_m_source_file>
AV-unprocessed.smi

> <i_m_source_file_index>
299

> <i_lp_mmshare_version>
43012

> <i_f3d_flags>
0

> <s_epik_input>
W0NIM11bQ0BASF0xW0NIMl1bQ0gyXVtDSDJdW0NIMl1OMVtDSDJdW0NIMl1bQ0gyXVtOSF1DKD1PKVtDSDJdbjJbY0hdbm5uMg==

> <s_epik_cmdline>
J2VwaWtfcHl0aG9uJywgJy1waCcsICc3LjAnLCAnLXRuJywgJzgnLCAnLW1hJywgJzIwMCcsICctbWV0YWxfYmluZGluZycsICctaW1hZScsICc8aW5maWxlLm1hZT4nLCAnLW9tYWUnLCAnPG91dGZpbGUubWFlPic=

> <r_lp_tautomer_probability>
1

> <r_epik_Ionization_Penalty>
0.000544863

> <r_epik_Ionization_Penalty_Charging>
0.000543475

> <r_epik_Ionization_Penalty_Neutral>
1.38784e-06

> <r_epik_State_Penalty>
0.000340025

> <r_epik_Charging_Adjusted_Penalty>
0.0008835

> <i_epik_Tot_Q>
1

> <i_epik_Tot_abs_Q>
1

> <r_epik_Metal_State_Penalty>
-0

> <b_epik_Metal_Only>
0

> <s_lp_Force_Field>
OPLS_2005

> <r_lp_Energy>
24.2757

> <b_lp_Chiralities_Consistent>
1

> <s_lp_Variant>
AV-unprocessed.smi:299-1

> <Gold.Version>
5.8.1

> <Gold.Id.Protein>
6NUR|6NUR_protein|mol2

> <Gold.PLP.Fitness>
45.1496

> <Gold.PLP.PLP>
-34.2754

> <Gold.PLP.part.hbond>
-5.2401

> <Gold.PLP.part.metal>
0.0000

> <Gold.PLP.part.buried>
-3.0161

> <Gold.PLP.part.nonpolar>
-27.2423

> <Gold.PLP.part.repulsive>
0.1063

> <Gold.PLP.ligand.clash>
0.0000

> <Gold.PLP.ligand.torsion>
0.5827

> <Gold.PLP.Chemscore.Hbond>
3.9913

> <Gold.PLP.Chemscore.CHOScore>
0.0000

> <Gold.PLP.Chemscore.Metal>
0.0000

> <Gold.Chemscore.Hbonds>
donor molecule, donor type, donor heavy atom, donor atom, acceptor molecule, acceptor atom, score
      L1  H     7    42       P1 10747  1.00
      L1  H    11    38       P1  7948  1.00
      P1  H  7989  7998       L1    19  1.00
      P1  H  7997  8010       L1    17  1.00

> <Gold.PLP.Chemscore.Internal.Correction>
0.0659

> <Gold.Rescore>
     Score         DG    S(hbond)    S(metal)    S(lipo)     H(rot)  DE(clash)    DE(int)     intcor
     13.91     -15.94       2.93        0.00      70.81       2.97       0.00       2.03       ----

> <Gold.Chemscore.Fitness>
13.9082

> <Gold.Chemscore.DG>
-15.9412

> <Gold.Chemscore.ZeroCoef>
-5.4800

> <Gold.Chemscore.Hbond>
2.9263

> <Gold.Chemscore.Metal>
0.0000

> <Gold.Chemscore.Lipo>
70.8144

> <Gold.Chemscore.Internal_Hbond>
0.0000

> <Gold.Chemscore.DEClash>
0.0000

> <Gold.Chemscore.DEInternal>
2.0330

> <Gold.Chemscore.Rot>
2.9680

> <Gold.Chemscore.Internal.Correction>
   9.000000E+99

> <Gold.Chemscore.Hbonds>
donor molecule, donor type, donor heavy atom, donor atom, acceptor molecule, acceptor atom, score
      L1  H     7    42       P1 10747  1.00
      L1  H    11    38       P1  7948  0.85
      P1  H  7989  7998       L1    19  0.24
      P1  H  7997  8010       L1    17  0.48

> <Gold.Chemscore.Hbond.Weighted>
-9.7739

> <Gold.Chemscore.Metal.Weighted>
-0.0000

> <Gold.Chemscore.Lipo.Weighted>
-8.2853

> <Gold.Chemscore.Internal_Hbond.Weighted>
0.0000

> <Gold.Chemscore.DEClash.Weighted>
0.0000

> <Gold.Chemscore.DEInternal.Weighted>
2.0330

> <Gold.Chemscore.Rot.Weighted>
7.5980

> <Gold.Chemscore.Internal.Correction.Weighted>
   9.000000E+99

> <Gold.Protein.RotatedTorsions>
[ 6907 6896 6895 6894 ] final  162.97 input  -60.11 | X-H torsion
[ 7974 7965 7964 7962 ] final   42.25 input  175.53 | X-H torsion
[ 8008 7997 7996 7995 ] final   57.52 input   59.86 | X-H torsion
[ 10167 10162 10161 10158 ] final  -35.43 input  -65.29 | X-H torsion
[ 10718 10713 10712 10709 ] final  -90.73 input   66.30 | X-H torsion
[ 10763 10752 10751 10750 ] final   40.39 input  -60.55 | X-H torsion
[ 11005 11000 10999 10996 ] final -132.21 input  -57.11 | X-H torsion

> <Gold.Protein.ActiveResidues>
 VAL166  LYS551  ARG553  GLY616  TRP617  ASP618  TYR619  PRO620  LYS621  CYS622 
 ASP623  PHE694  ASN695  SER759  ASP760  ASP761  ALA762  ILE779  LEU786  VAL792 
 PHE793  MET794  SER795  GLU796  ALA797  LYS798  CYS799  TRP800  GLU811  SER814 

> <Gold.Protein.RotatedAtoms>
  151.9323  133.3614  159.3934 H   0  0  0  0  0  0  0  0  0  0  0  0  # atno 6907 bound_to 6896
  150.7015  134.4525  159.5352 H   0  0  0  0  0  0  0  0  0  0  0  0  # atno 6908 bound_to 6896
  152.2167  134.8451  160.0541 H   0  0  0  0  0  0  0  0  0  0  0  0  # atno 6909 bound_to 6896
  146.0756  139.5322  142.9570 H   0  0  0  0  0  0  0  0  0  0  0  0  # atno 7974 bound_to 7965
  155.5351  140.3483  155.4434 H   0  0  0  0  0  0  0  0  0  0  0  0  # atno 8008 bound_to 7997
  156.0691  140.1358  156.9877 H   0  0  0  0  0  0  0  0  0  0  0  0  # atno 8009 bound_to 7997
  154.4519  140.0969  156.6617 H   0  0  0  0  0  0  0  0  0  0  0  0  # atno 8010 bound_to 7997
  140.7165  143.3478  151.2219 H   0  0  0  0  0  0  0  0  0  0  0  0  # atno 10167 bound_to 10162
  155.9989  130.4921  150.5368 H   0  0  0  0  0  0  0  0  0  0  0  0  # atno 10718 bound_to 10713
  152.9938  135.6193  154.2618 H   0  0  0  0  0  0  0  0  0  0  0  0  # atno 10763 bound_to 10752
  154.2353  135.2790  155.2876 H   0  0  0  0  0  0  0  0  0  0  0  0  # atno 10764 bound_to 10752
  154.5415  135.5759  153.6901 H   0  0  0  0  0  0  0  0  0  0  0  0  # atno 10765 bound_to 10752
  140.9191  134.1468  157.4329 H   0  0  0  0  0  0  0  0  0  0  0  0  # atno 11005 bound_to 11000
  145.6312  141.0303  143.1862 LP  0  0  0  0  0  0  0  0  0  0  0  0  # atno 17320 bound_to 7965
  144.7259  139.7877  143.7365 LP  0  0  0  0  0  0  0  0  0  0  0  0  # atno 17321 bound_to 7965
  139.7002  143.9546  152.2901 LP  0  0  0  0  0  0  0  0  0  0  0  0  # atno 17342 bound_to 10162
  139.9237  144.6784  150.8435 LP  0  0  0  0  0  0  0  0  0  0  0  0  # atno 17343 bound_to 10162
  157.3309  131.0699  151.1861 LP  0  0  0  0  0  0  0  0  0  0  0  0  # atno 17370 bound_to 10713
  157.2742  130.6719  149.6034 LP  0  0  0  0  0  0  0  0  0  0  0  0  # atno 17371 bound_to 10713
  139.8772  134.9964  156.5795 LP  0  0  0  0  0  0  0  0  0  0  0  0  # atno 17394 bound_to 11000
  140.8012  133.8504  155.8728 LP  0  0  0  0  0  0  0  0  0  0  0  0  # atno 17395 bound_to 11000

$$$$
