AV-unprocessed.smi:1748|AV-procd|sdf|7036|dock4
  -GOLD-   22720 8253D 1   1.00000     0.00000
 Structure written by MMmdl.
 40 41  0  0  0  0  0  0  0  0  2 V2000
  144.5481  133.5262  149.8414 C   0  0  0  0  0  0  0  0  0  0  0  0
  143.8150  134.4003  150.7822 N   0  3  1  0  0  0  0  0  0  0  0  0
  143.3611  133.6731  151.9940 C   0  0  0  0  0  0  0  0  0  0  0  0
  142.4942  134.5769  152.8864 C   0  0  0  0  0  0  0  0  0  0  0  0
  143.2419  135.8644  153.2604 C   0  0  0  0  0  0  0  0  0  0  0  0
  143.7290  136.5821  151.9911 C   0  0  1  0  0  0  0  0  0  0  0  0
  144.4935  137.7710  152.3554 N   0  0  0  0  0  0  0  0  0  0  0  0
  145.6927  137.7634  152.9548 C   0  0  0  0  0  0  0  0  0  0  0  0
  146.2765  136.7288  153.2762 O   0  0  0  0  0  0  0  0  0  0  0  0
  146.1336  139.0174  153.1636 N   0  0  0  0  0  0  0  0  0  0  0  0
  147.3432  139.4519  153.7318 C   0  0  0  0  0  0  0  0  0  0  0  0
  148.3550  138.6348  154.1257 C   0  0  0  0  0  0  0  0  0  0  0  0
  149.5880  139.1533  154.6951 C   0  0  0  0  0  0  0  0  0  0  0  0
  150.7402  138.2375  155.0789 C   0  0  0  0  0  0  0  0  0  0  0  0
  151.8505  138.5583  154.4132 F   0  0  0  0  0  0  0  0  0  0  0  0
  150.9921  138.3487  156.3823 F   0  0  0  0  0  0  0  0  0  0  0  0
  150.4505  136.9625  154.8187 F   0  0  0  0  0  0  0  0  0  0  0  0
  149.6900  140.4920  154.7870 C   0  0  0  0  0  0  0  0  0  0  0  0
  148.6543  141.3388  154.3862 N   0  0  0  0  0  0  0  0  0  0  0  0
  147.4844  140.9119  153.8603 C   0  0  0  0  0  0  0  0  0  0  0  0
  146.6213  141.7225  153.5250 O   0  0  0  0  0  0  0  0  0  0  0  0
  144.5766  135.6274  151.1232 C   0  0  0  0  0  0  0  0  0  0  0  0
  148.8042  142.3315  154.4962 H   0  0  0  0  0  0  0  0  0  0  0  0
  145.4692  133.1527  150.2906 H   0  0  0  0  0  0  0  0  0  0  0  0
  144.8065  134.0701  148.9322 H   0  0  0  0  0  0  0  0  0  0  0  0
  143.9358  132.6711  149.5534 H   0  0  0  0  0  0  0  0  0  0  0  0
  142.7866  132.7939  151.6994 H   0  0  0  0  0  0  0  0  0  0  0  0
  144.2278  133.3140  152.5514 H   0  0  0  0  0  0  0  0  0  0  0  0
  141.5700  134.8291  152.3644 H   0  0  0  0  0  0  0  0  0  0  0  0
  142.2024  134.0401  153.7894 H   0  0  0  0  0  0  0  0  0  0  0  0
  142.5891  136.5187  153.8398 H   0  0  0  0  0  0  0  0  0  0  0  0
  144.0902  135.6205  153.9019 H   0  0  0  0  0  0  0  0  0  0  0  0
  142.8515  136.8934  151.4203 H   0  0  0  0  0  0  0  0  0  0  0  0
  144.0823  138.6650  152.1287 H   0  0  0  0  0  0  0  0  0  0  0  0
  145.5027  139.7631  152.9076 H   0  0  0  0  0  0  0  0  0  0  0  0
  148.2803  137.5658  154.0124 H   0  0  0  0  0  0  0  0  0  0  0  0
  150.5596  141.0107  155.1633 H   0  0  0  0  0  0  0  0  0  0  0  0
  145.4956  135.3528  151.6445 H   0  0  0  0  0  0  0  0  0  0  0  0
  144.8735  136.1289  150.2009 H   0  0  0  0  0  0  0  0  0  0  0  0
  142.9816  134.7051  150.2994 H   0  0  0  0  0  0  0  0  0  0  0  0
  1  2  1  0  0  0  0
  1 24  1  0  0  0  0
  1 25  1  0  0  0  0
  1 26  1  0  0  0  0
  2 22  1  0  0  0  0
  2  3  1  0  0  0  0
  2 40  1  0  0  0  0
  3  4  1  0  0  0  0
  3 27  1  0  0  0  0
  3 28  1  0  0  0  0
  4  5  1  0  0  0  0
  4 29  1  0  0  0  0
  4 30  1  0  0  0  0
  5  6  1  0  0  0  0
  5 31  1  0  0  0  0
  5 32  1  0  0  0  0
  6  7  1  0  0  0  0
  6 22  1  0  0  0  0
  6 33  1  0  0  0  0
  7  8  1  0  0  0  0
  7 34  1  0  0  0  0
  8  9  2  0  0  0  0
  8 10  1  0  0  0  0
 10 11  1  0  0  0  0
 10 35  1  0  0  0  0
 11 20  1  0  0  0  0
 11 12  2  0  0  0  0
 12 13  1  0  0  0  0
 12 36  1  0  0  0  0
 13 14  1  0  0  0  0
 13 18  2  0  0  0  0
 14 15  1  0  0  0  0
 14 16  1  0  0  0  0
 14 17  1  0  0  0  0
 18 19  1  0  0  0  0
 18 37  1  0  0  0  0
 19 23  1  0  0  0  0
 19 20  1  0  0  0  0
 20 21  2  0  0  0  0
 22 38  1  0  0  0  0
 22 39  1  0  0  0  0
M  CHG  1   2   1
M  END
> <s_m_source_file>
AV-unprocessed.smi

> <i_m_source_file_index>
1748

> <i_lp_mmshare_version>
43012

> <i_f3d_flags>
0

> <s_epik_input>
W0NIM11OMVtDSDJdW0NIMl1bQ0gyXVtDQEhdKFtDSDJdMSlbTkhdQyg9TylbTkhdYzJbY0hdYyhDKEYpKEYpRilbY0hdW25IXWMyPU8=

> <s_epik_cmdline>
J2VwaWtfcHl0aG9uJywgJy1waCcsICc3LjAnLCAnLXRuJywgJzgnLCAnLW1hJywgJzIwMCcsICctbWV0YWxfYmluZGluZycsICctaW1hZScsICc8aW5maWxlLm1hZT4nLCAnLW9tYWUnLCAnPG91dGZpbGUubWFlPic=

> <r_lp_tautomer_probability>
1

> <r_epik_Ionization_Penalty>
0.00746315

> <r_epik_Ionization_Penalty_Charging>
0.00744398

> <r_epik_Ionization_Penalty_Neutral>
1.91704e-05

> <r_epik_State_Penalty>
-0

> <r_epik_Charging_Adjusted_Penalty>
0.00744398

> <i_epik_Tot_Q>
1

> <i_epik_Tot_abs_Q>
1

> <r_epik_Metal_State_Penalty>
0.379332

> <b_epik_Metal_Only>
0

> <s_lp_Force_Field>
OPLS_2005

> <r_lp_Energy>
25.304

> <b_lp_Chiralities_Consistent>
1

> <s_lp_Variant>
AV-unprocessed.smi:1748-1

> <Gold.Version>
5.8.1

> <Gold.Id.Protein>
6NUR|6NUR_protein|mol2

> <Gold.PLP.Fitness>
46.2690

> <Gold.PLP.PLP>
-34.4125

> <Gold.PLP.part.hbond>
-4.0000

> <Gold.PLP.part.metal>
0.0000

> <Gold.PLP.part.buried>
-3.3833

> <Gold.PLP.part.nonpolar>
-27.9201

> <Gold.PLP.part.repulsive>
0.6377

> <Gold.PLP.ligand.clash>
0.0000

> <Gold.PLP.ligand.torsion>
0.0880

> <Gold.PLP.Chemscore.Hbond>
4.0000

> <Gold.PLP.Chemscore.CHOScore>
0.0000

> <Gold.PLP.Chemscore.Metal>
0.0000

> <Gold.Chemscore.Hbonds>
donor molecule, donor type, donor heavy atom, donor atom, acceptor molecule, acceptor atom, score
      L1  H     2    40       P1 10186  1.56
      L1  H     7    34       P1 10175  1.00
      L1  H    10    35       P1 10175  1.00

> <Gold.PLP.Chemscore.Internal.Correction>
0.0324

> <Gold.Rescore>
     Score         DG    S(hbond)    S(metal)    S(lipo)     H(rot)  DE(clash)    DE(int)     intcor
     15.27     -18.49       2.47        0.00      62.59       1.00       0.45       2.77       ----

> <Gold.Chemscore.Fitness>
15.2681

> <Gold.Chemscore.DG>
-18.4888

> <Gold.Chemscore.ZeroCoef>
-5.4800

> <Gold.Chemscore.Hbond>
2.4689

> <Gold.Chemscore.Metal>
0.0000

> <Gold.Chemscore.Lipo>
62.5863

> <Gold.Chemscore.Internal_Hbond>
0.0000

> <Gold.Chemscore.DEClash>
0.4513

> <Gold.Chemscore.DEInternal>
2.7694

> <Gold.Chemscore.Rot>
1.0000

> <Gold.Chemscore.Internal.Correction>
   9.000000E+99

> <Gold.Chemscore.Hbonds>
donor molecule, donor type, donor heavy atom, donor atom, acceptor molecule, acceptor atom, score
      L1  H     2    40       P1 10186  0.37
      L1  H     7    34       P1 10175  0.98
      L1  H    10    35       P1 10175  0.92

> <Gold.Chemscore.Hbond.Weighted>
-8.2462

> <Gold.Chemscore.Metal.Weighted>
-0.0000

> <Gold.Chemscore.Lipo.Weighted>
-7.3226

> <Gold.Chemscore.Internal_Hbond.Weighted>
0.0000

> <Gold.Chemscore.DEClash.Weighted>
0.4513

> <Gold.Chemscore.DEInternal.Weighted>
2.7694

> <Gold.Chemscore.Rot.Weighted>
2.5600

> <Gold.Chemscore.Internal.Correction.Weighted>
   9.000000E+99

> <Gold.Protein.RotatedTorsions>
[ 6907 6896 6895 6894 ] final   50.27 input  -60.11 | X-H torsion
[ 7974 7965 7964 7962 ] final   73.52 input  175.53 | X-H torsion
[ 8008 7997 7996 7995 ] final  -47.46 input   59.86 | X-H torsion
[ 10167 10162 10161 10158 ] final  -94.80 input  -65.29 | X-H torsion
[ 10718 10713 10712 10709 ] final   62.13 input   66.30 | X-H torsion
[ 10763 10752 10751 10750 ] final   78.65 input  -60.55 | X-H torsion
[ 11005 11000 10999 10996 ] final  -86.52 input  -57.11 | X-H torsion

> <Gold.Protein.ActiveResidues>
 VAL166  LYS551  ARG553  GLY616  TRP617  ASP618  TYR619  PRO620  LYS621  CYS622 
 ASP623  PHE694  ASN695  SER759  ASP760  ASP761  ALA762  ILE779  LEU786  VAL792 
 PHE793  MET794  SER795  GLU796  ALA797  LYS798  CYS799  TRP800  GLU811  SER814 

> <Gold.Protein.RotatedAtoms>
  152.3000  134.7622  160.0359 H   0  0  0  0  0  0  0  0  0  0  0  0  # atno 6907 bound_to 6896
  151.8139  133.3380  159.3572 H   0  0  0  0  0  0  0  0  0  0  0  0  # atno 6908 bound_to 6896
  150.7269  134.5567  159.5866 H   0  0  0  0  0  0  0  0  0  0  0  0  # atno 6909 bound_to 6896
  145.7398  139.2716  143.1493 H   0  0  0  0  0  0  0  0  0  0  0  0  # atno 7974 bound_to 7965
  154.4017  140.1346  156.4178 H   0  0  0  0  0  0  0  0  0  0  0  0  # atno 8008 bound_to 7997
  155.7672  140.3485  155.5208 H   0  0  0  0  0  0  0  0  0  0  0  0  # atno 8009 bound_to 7997
  155.8802  140.0986  157.1481 H   0  0  0  0  0  0  0  0  0  0  0  0  # atno 8010 bound_to 7997
  140.3107  143.3106  152.0151 H   0  0  0  0  0  0  0  0  0  0  0  0  # atno 10167 bound_to 10162
  157.5879  130.9033  149.9549 H   0  0  0  0  0  0  0  0  0  0  0  0  # atno 10718 bound_to 10713
  153.0891  135.4869  154.8654 H   0  0  0  0  0  0  0  0  0  0  0  0  # atno 10763 bound_to 10752
  154.7247  135.3047  154.8993 H   0  0  0  0  0  0  0  0  0  0  0  0  # atno 10764 bound_to 10752
  153.9646  135.6808  153.4799 H   0  0  0  0  0  0  0  0  0  0  0  0  # atno 10765 bound_to 10752
  141.1629  133.7459  156.9173 H   0  0  0  0  0  0  0  0  0  0  0  0  # atno 11005 bound_to 11000
  146.0458  140.8119  142.9806 LP  0  0  0  0  0  0  0  0  0  0  0  0  # atno 17320 bound_to 7965
  144.6873  140.2979  143.7268 LP  0  0  0  0  0  0  0  0  0  0  0  0  # atno 17321 bound_to 7965
  139.4894  144.6386  151.6923 LP  0  0  0  0  0  0  0  0  0  0  0  0  # atno 17342 bound_to 10162
  140.5570  144.0331  150.6152 LP  0  0  0  0  0  0  0  0  0  0  0  0  # atno 17343 bound_to 10162
  156.0930  130.3662  150.0360 LP  0  0  0  0  0  0  0  0  0  0  0  0  # atno 17370 bound_to 10713
  156.8488  130.9451  151.3627 LP  0  0  0  0  0  0  0  0  0  0  0  0  # atno 17371 bound_to 10713
  140.1475  134.9252  157.2549 LP  0  0  0  0  0  0  0  0  0  0  0  0  # atno 17394 bound_to 11000
  140.2762  134.3403  155.7357 LP  0  0  0  0  0  0  0  0  0  0  0  0  # atno 17395 bound_to 11000

$$$$
