AV-unprocessed.smi:1506|AV-procd|sdf|6079|dock3
  -GOLD-   22720 6203D 1   1.00000     0.00000
 Structure written by MMmdl.
 40 42  0  0  0  0  0  0  0  0  2 V2000
  152.6643  138.8530  155.5100 C   0  0  0  0  0  0  0  0  0  0  0  0
  151.3254  139.4671  155.1571 C   0  0  0  0  0  0  0  0  0  0  0  0
  151.0457  140.8069  155.4911 C   0  0  0  0  0  0  0  0  0  0  0  0
  149.7992  141.3679  155.1575 C   0  0  0  0  0  0  0  0  0  0  0  0
  148.8296  140.5949  154.4900 C   0  0  0  0  0  0  0  0  0  0  0  0
  149.0999  139.2459  154.1466 C   0  0  0  0  0  0  0  0  0  0  0  0
  148.2112  138.4191  153.4930 O   0  0  0  0  0  0  0  0  0  0  0  0
  146.9572  138.9589  153.0969 C   0  0  0  0  0  0  0  0  0  0  0  0
  146.2311  137.9419  152.2039 C   0  0  1  0  0  0  0  0  0  0  0  0
  147.0648  137.6406  151.1024 O   0  0  0  0  0  0  0  0  0  0  0  0
  145.8620  136.6500  152.9607 C   0  0  0  0  0  0  0  0  0  0  0  0
  145.0838  135.7126  152.1382 N   0  0  0  0  0  0  0  0  0  0  0  0
  143.9076  135.9076  151.4824 C   0  0  0  0  0  0  0  0  0  0  0  0
  143.5873  134.7423  150.8548 N   0  3  0  0  0  0  0  0  0  0  0  0
  144.5731  133.7876  151.1126 C   0  0  0  0  0  0  0  0  0  0  0  0
  144.6901  132.4649  150.6963 C   0  0  0  0  0  0  0  0  0  0  0  0
  145.8295  131.7607  151.1377 C   0  0  0  0  0  0  0  0  0  0  0  0
  146.7982  132.3725  151.9593 C   0  0  0  0  0  0  0  0  0  0  0  0
  146.6691  133.7139  152.3760 C   0  0  0  0  0  0  0  0  0  0  0  0
  145.5390  134.4037  151.9368 C   0  0  0  0  0  0  0  0  0  0  0  0
  150.3534  138.6964  154.4871 C   0  0  0  0  0  0  0  0  0  0  0  0
  153.2048  139.4678  156.2305 H   0  0  0  0  0  0  0  0  0  0  0  0
  153.2792  138.7528  154.6154 H   0  0  0  0  0  0  0  0  0  0  0  0
  152.5270  137.8631  155.9460 H   0  0  0  0  0  0  0  0  0  0  0  0
  151.7833  141.4079  156.0027 H   0  0  0  0  0  0  0  0  0  0  0  0
  149.5851  142.3949  155.4146 H   0  0  0  0  0  0  0  0  0  0  0  0
  147.8857  141.0613  154.2532 H   0  0  0  0  0  0  0  0  0  0  0  0
  146.3558  139.1611  153.9852 H   0  0  0  0  0  0  0  0  0  0  0  0
  147.0930  139.8982  152.5580 H   0  0  0  0  0  0  0  0  0  0  0  0
  145.3240  138.4007  151.8082 H   0  0  0  0  0  0  0  0  0  0  0  0
  147.5507  136.8547  151.2993 H   0  0  0  0  0  0  0  0  0  0  0  0
  146.7491  136.1467  153.3451 H   0  0  0  0  0  0  0  0  0  0  0  0
  145.2501  136.8919  153.8305 H   0  0  0  0  0  0  0  0  0  0  0  0
  143.3331  136.8226  151.4619 H   0  0  0  0  0  0  0  0  0  0  0  0
  143.9500  131.9943  150.0657 H   0  0  0  0  0  0  0  0  0  0  0  0
  145.9636  130.7309  150.8391 H   0  0  0  0  0  0  0  0  0  0  0  0
  147.6587  131.8014  152.2762 H   0  0  0  0  0  0  0  0  0  0  0  0
  147.4202  134.1715  153.0021 H   0  0  0  0  0  0  0  0  0  0  0  0
  150.5704  137.6698  154.2301 H   0  0  0  0  0  0  0  0  0  0  0  0
  142.7574  134.6119  150.2906 H   0  0  0  0  0  0  0  0  0  0  0  0
  1  2  1  0  0  0  0
  1 22  1  0  0  0  0
  1 23  1  0  0  0  0
  1 24  1  0  0  0  0
  2 21  1  0  0  0  0
  2  3  2  0  0  0  0
  3  4  1  0  0  0  0
  3 25  1  0  0  0  0
  4  5  2  0  0  0  0
  4 26  1  0  0  0  0
  5  6  1  0  0  0  0
  5 27  1  0  0  0  0
  6  7  1  0  0  0  0
  6 21  2  0  0  0  0
  7  8  1  0  0  0  0
  8  9  1  0  0  0  0
  8 28  1  0  0  0  0
  8 29  1  0  0  0  0
  9 10  1  0  0  0  0
  9 11  1  0  0  0  0
  9 30  1  0  0  0  0
 10 31  1  0  0  0  0
 11 12  1  0  0  0  0
 11 32  1  0  0  0  0
 11 33  1  0  0  0  0
 12 20  1  0  0  0  0
 12 13  1  0  0  0  0
 13 14  2  0  0  0  0
 13 34  1  0  0  0  0
 14 15  1  0  0  0  0
 14 40  1  0  0  0  0
 15 20  2  0  0  0  0
 15 16  1  0  0  0  0
 16 17  2  0  0  0  0
 16 35  1  0  0  0  0
 17 18  1  0  0  0  0
 17 36  1  0  0  0  0
 18 19  2  0  0  0  0
 18 37  1  0  0  0  0
 19 20  1  0  0  0  0
 19 38  1  0  0  0  0
 21 39  1  0  0  0  0
M  CHG  1  14   1
M  END
> <s_m_source_file>
AV-unprocessed.smi

> <i_m_source_file_index>
1506

> <i_lp_mmshare_version>
43012

> <i_f3d_flags>
0

> <s_epik_input>
W0NIM11jMVtjSF1bY0hdW2NIXWMoW2NIXTEpT1tDSDJdW0NASF0oW09IXSlbQ0gyXW4oW2NIXW4yKWMoYzIzKVtjSF1bY0hdW2NIXVtjSF0z

> <s_epik_cmdline>
J2VwaWtfcHl0aG9uJywgJy1waCcsICc3LjAnLCAnLXRuJywgJzgnLCAnLW1hJywgJzIwMCcsICctbWV0YWxfYmluZGluZycsICctaW1hZScsICc8aW5maWxlLm1hZT4nLCAnLW9tYWUnLCAnPG91dGZpbGUubWFlPic=

> <r_lp_tautomer_probability>
1

> <r_epik_Ionization_Penalty>
1.37864

> <r_epik_Ionization_Penalty_Charging>
1.37864

> <r_epik_Ionization_Penalty_Neutral>
2.3993e-06

> <r_epik_State_Penalty>
1.45896

> <r_epik_Charging_Adjusted_Penalty>
2.8376

> <i_epik_Tot_Q>
1

> <i_epik_Tot_abs_Q>
1

> <r_epik_Metal_State_Penalty>
5.49899

> <b_epik_Metal_Only>
0

> <s_lp_Force_Field>
OPLS_2005

> <r_lp_Energy>
20.0977

> <b_lp_Chiralities_Consistent>
1

> <s_lp_Variant>
AV-unprocessed.smi:1506-4

> <Gold.Version>
5.8.1

> <Gold.Id.Protein>
6NUR|6NUR_protein|mol2

> <Gold.PLP.Fitness>
53.1136

> <Gold.PLP.PLP>
-40.2296

> <Gold.PLP.part.hbond>
-2.5710

> <Gold.PLP.part.metal>
0.0000

> <Gold.PLP.part.buried>
-2.4595

> <Gold.PLP.part.nonpolar>
-37.1231

> <Gold.PLP.part.repulsive>
1.4343

> <Gold.PLP.ligand.clash>
0.0000

> <Gold.PLP.ligand.torsion>
0.0531

> <Gold.PLP.Chemscore.Hbond>
3.4100

> <Gold.PLP.Chemscore.CHOScore>
0.9002

> <Gold.PLP.Chemscore.Metal>
0.0000

> <Gold.Chemscore.Hbonds>
donor molecule, donor type, donor heavy atom, donor atom, acceptor molecule, acceptor atom, score
      L1  H    10    31       P1  7948  0.93
      L1  H    14    40       P1 10186  2.00
      P1  H  7954  7966       L1    10  0.25
      L1  C    13    34       P1 10171  0.81

> <Gold.PLP.Chemscore.Internal.Correction>
0.0595

> <Gold.Rescore>
     Score         DG    S(hbond)    S(metal)    S(lipo)     H(rot)  DE(clash)    DE(int)     intcor
     16.41     -16.49       1.51        0.00     100.65       2.27       0.05       0.03       ----

> <Gold.Chemscore.Fitness>
16.4099

> <Gold.Chemscore.DG>
-16.4949

> <Gold.Chemscore.ZeroCoef>
-5.4800

> <Gold.Chemscore.Hbond>
1.5139

> <Gold.Chemscore.Metal>
0.0000

> <Gold.Chemscore.Lipo>
100.6453

> <Gold.Chemscore.Internal_Hbond>
0.0000

> <Gold.Chemscore.DEClash>
0.0529

> <Gold.Chemscore.DEInternal>
0.0321

> <Gold.Chemscore.Rot>
2.2723

> <Gold.Chemscore.Internal.Correction>
   9.000000E+99

> <Gold.Chemscore.Hbonds>
donor molecule, donor type, donor heavy atom, donor atom, acceptor molecule, acceptor atom, score
      L1  H    10    31       P1  7948  0.88
      L1  H    14    40       P1 10186  0.50

> <Gold.Chemscore.Hbond.Weighted>
-5.0564

> <Gold.Chemscore.Metal.Weighted>
-0.0000

> <Gold.Chemscore.Lipo.Weighted>
-11.7755

> <Gold.Chemscore.Internal_Hbond.Weighted>
0.0000

> <Gold.Chemscore.DEClash.Weighted>
0.0529

> <Gold.Chemscore.DEInternal.Weighted>
0.0321

> <Gold.Chemscore.Rot.Weighted>
5.8170

> <Gold.Chemscore.Internal.Correction.Weighted>
   9.000000E+99

> <Gold.Protein.RotatedTorsions>
[ 6907 6896 6895 6894 ] final -162.75 input  -60.11 | X-H torsion
[ 7974 7965 7964 7962 ] final  -35.62 input  175.53 | X-H torsion
[ 8008 7997 7996 7995 ] final  -18.27 input   59.86 | X-H torsion
[ 10167 10162 10161 10158 ] final -169.14 input  -65.29 | X-H torsion
[ 10718 10713 10712 10709 ] final   18.13 input   66.30 | X-H torsion
[ 10763 10752 10751 10750 ] final  -26.34 input  -60.55 | X-H torsion
[ 11005 11000 10999 10996 ] final  -87.37 input  -57.11 | X-H torsion

> <Gold.Protein.ActiveResidues>
 VAL166  LYS551  ARG553  GLY616  TRP617  ASP618  TYR619  PRO620  LYS621  CYS622 
 ASP623  PHE694  ASN695  SER759  ASP760  ASP761  ALA762  ILE779  LEU786  VAL792 
 PHE793  MET794  SER795  GLU796  ALA797  LYS798  CYS799  TRP800  GLU811  SER814 

> <Gold.Protein.RotatedAtoms>
  151.3852  133.3807  159.2714 H   0  0  0  0  0  0  0  0  0  0  0  0  # atno 6907 bound_to 6896
  150.9547  134.8943  159.7704 H   0  0  0  0  0  0  0  0  0  0  0  0  # atno 6908 bound_to 6896
  152.5126  134.3809  159.9403 H   0  0  0  0  0  0  0  0  0  0  0  0  # atno 6909 bound_to 6896
  146.0731  140.6180  142.8943 H   0  0  0  0  0  0  0  0  0  0  0  0  # atno 7974 bound_to 7965
  154.4918  140.2120  155.9531 H   0  0  0  0  0  0  0  0  0  0  0  0  # atno 8008 bound_to 7997
  156.1316  140.3196  155.8326 H   0  0  0  0  0  0  0  0  0  0  0  0  # atno 8009 bound_to 7997
  155.4286  140.0502  157.3011 H   0  0  0  0  0  0  0  0  0  0  0  0  # atno 8010 bound_to 7997
  139.5941  144.1149  152.1669 H   0  0  0  0  0  0  0  0  0  0  0  0  # atno 10167 bound_to 10162
  157.0919  130.6431  149.5851 H   0  0  0  0  0  0  0  0  0  0  0  0  # atno 10718 bound_to 10713
  153.7144  135.6948  153.5029 H   0  0  0  0  0  0  0  0  0  0  0  0  # atno 10763 bound_to 10752
  153.2249  135.4357  155.0530 H   0  0  0  0  0  0  0  0  0  0  0  0  # atno 10764 bound_to 10752
  154.8304  135.3469  154.6680 H   0  0  0  0  0  0  0  0  0  0  0  0  # atno 10765 bound_to 10752
  141.1617  133.7508  156.9297 H   0  0  0  0  0  0  0  0  0  0  0  0  # atno 11005 bound_to 11000
  144.7244  140.4478  143.6984 LP  0  0  0  0  0  0  0  0  0  0  0  0  # atno 17320 bound_to 7965
  145.6355  139.1542  143.2945 LP  0  0  0  0  0  0  0  0  0  0  0  0  # atno 17321 bound_to 7965
  140.0730  144.5763  150.7177 LP  0  0  0  0  0  0  0  0  0  0  0  0  # atno 17342 bound_to 10162
  140.7198  143.2578  151.4317 LP  0  0  0  0  0  0  0  0  0  0  0  0  # atno 17343 bound_to 10162
  155.9896  130.4944  150.7220 LP  0  0  0  0  0  0  0  0  0  0  0  0  # atno 17370 bound_to 10713
  157.4714  131.0893  151.0638 LP  0  0  0  0  0  0  0  0  0  0  0  0  # atno 17371 bound_to 10713
  140.1394  134.9303  157.2447 LP  0  0  0  0  0  0  0  0  0  0  0  0  # atno 17394 bound_to 11000
  140.2855  134.3301  155.7330 LP  0  0  0  0  0  0  0  0  0  0  0  0  # atno 17395 bound_to 11000

$$$$
