AV-unprocessed.smi:2900|AV-procd|sdf|11147|dock10
  -GOLD-   2272016 23D 1   1.00000     0.00000
 Structure written by MMmdl.
 35 36  0  0  0  0  0  0  0  0  1 V2000
  149.8039  135.2146  157.8339 O   0  0  0  0  0  0  0  0  0  0  0  0
  149.0720  135.4300  158.7996 C   0  0  0  0  0  0  0  0  0  0  0  0
  148.3485  134.3769  159.5078 C   0  0  0  0  0  0  0  0  0  0  0  0
  147.5580  134.6483  160.5681 C   0  0  0  0  0  0  0  0  0  0  0  0
  147.4152  136.0218  161.0217 C   0  0  0  0  0  0  0  0  0  0  0  0
  146.5587  136.4273  162.1959 C   0  0  0  0  0  0  0  0  0  0  0  0
  147.2985  136.9624  163.1674 F   0  0  0  0  0  0  0  0  0  0  0  0
  145.6505  137.3249  161.8123 F   0  0  0  0  0  0  0  0  0  0  0  0
  145.9212  135.3639  162.6862 F   0  0  0  0  0  0  0  0  0  0  0  0
  148.0506  136.9595  160.3958 N   0  0  0  0  0  0  0  0  0  0  0  0
  148.8644  136.6780  159.3124 N   0  0  0  0  0  0  0  0  0  0  0  0
  149.5222  137.8584  158.7390 C   0  0  0  0  0  0  0  0  0  0  0  0
  151.0392  137.6411  158.5417 C   0  0  2  0  0  0  0  0  0  0  0  0
  151.5754  137.1742  159.7647 O   0  0  0  0  0  0  0  0  0  0  0  0
  151.7636  138.9529  158.1953 C   0  0  0  0  0  0  0  0  0  0  0  0
  151.7744  139.7902  159.3442 O   0  0  0  0  0  0  0  0  0  0  0  0
  151.8970  141.1509  159.1608 C   0  0  0  0  0  0  0  0  0  0  0  0
  152.5237  141.8810  160.1920 C   0  0  0  0  0  0  0  0  0  0  0  0
  152.6929  143.2753  160.0887 C   0  0  0  0  0  0  0  0  0  0  0  0
  152.2347  143.9566  158.9460 C   0  0  0  0  0  0  0  0  0  0  0  0
  151.6077  143.2410  157.9092 C   0  0  0  0  0  0  0  0  0  0  0  0
  151.4379  141.8465  158.0131 C   0  0  0  0  0  0  0  0  0  0  0  0
  148.4512  133.3548  159.1740 H   0  0  0  0  0  0  0  0  0  0  0  0
  147.0337  133.8531  161.0769 H   0  0  0  0  0  0  0  0  0  0  0  0
  149.0513  138.0833  157.7802 H   0  0  0  0  0  0  0  0  0  0  0  0
  149.3395  138.7430  159.3525 H   0  0  0  0  0  0  0  0  0  0  0  0
  151.2194  136.9085  157.7537 H   0  0  0  0  0  0  0  0  0  0  0  0
  151.2111  137.6882  160.4688 H   0  0  0  0  0  0  0  0  0  0  0  0
  152.7980  138.7343  157.9251 H   0  0  0  0  0  0  0  0  0  0  0  0
  151.2925  139.4444  157.3419 H   0  0  0  0  0  0  0  0  0  0  0  0
  152.8793  141.3659  161.0722 H   0  0  0  0  0  0  0  0  0  0  0  0
  153.1747  143.8209  160.8864 H   0  0  0  0  0  0  0  0  0  0  0  0
  152.3641  145.0257  158.8646 H   0  0  0  0  0  0  0  0  0  0  0  0
  151.2561  143.7624  157.0313 H   0  0  0  0  0  0  0  0  0  0  0  0
  150.9531  141.3333  157.1968 H   0  0  0  0  0  0  0  0  0  0  0  0
  1  2  2  0  0  0  0
  2 11  1  0  0  0  0
  2  3  1  0  0  0  0
  3  4  2  0  0  0  0
  3 23  1  0  0  0  0
  4  5  1  0  0  0  0
  4 24  1  0  0  0  0
  5  6  1  0  0  0  0
  5 10  2  0  0  0  0
  6  7  1  0  0  0  0
  6  8  1  0  0  0  0
  6  9  1  0  0  0  0
 10 11  1  0  0  0  0
 11 12  1  0  0  0  0
 12 13  1  0  0  0  0
 12 25  1  0  0  0  0
 12 26  1  0  0  0  0
 13 14  1  0  0  0  0
 13 15  1  0  0  0  0
 13 27  1  0  0  0  0
 14 28  1  0  0  0  0
 15 16  1  0  0  0  0
 15 29  1  0  0  0  0
 15 30  1  0  0  0  0
 16 17  1  0  0  0  0
 17 22  1  0  0  0  0
 17 18  2  0  0  0  0
 18 19  1  0  0  0  0
 18 31  1  0  0  0  0
 19 20  2  0  0  0  0
 19 32  1  0  0  0  0
 20 21  1  0  0  0  0
 20 33  1  0  0  0  0
 21 22  2  0  0  0  0
 21 34  1  0  0  0  0
 22 35  1  0  0  0  0
M  END
> <s_m_source_file>
AV-unprocessed.smi

> <i_m_source_file_index>
2900

> <i_lp_mmshare_version>
43012

> <i_f3d_flags>
0

> <s_epik_input>
Tz1jMVtjSF1bY0hdYyhDKEYpKEYpRilubjFbQ0gyXVtDQEhdKFtPSF0pW0NIMl1PYzJbY0hdW2NIXVtjSF1bY0hdW2NIXTI=

> <s_epik_cmdline>
J2VwaWtfcHl0aG9uJywgJy1waCcsICc3LjAnLCAnLXRuJywgJzgnLCAnLW1hJywgJzIwMCcsICctbWV0YWxfYmluZGluZycsICctaW1hZScsICc8aW5maWxlLm1hZT4nLCAnLW9tYWUnLCAnPG91dGZpbGUubWFlPic=

> <r_lp_tautomer_probability>
1

> <r_epik_Ionization_Penalty>
1.22578e-07

> <r_epik_Ionization_Penalty_Charging>
5.40425e-09

> <r_epik_Ionization_Penalty_Neutral>
1.17174e-07

> <r_epik_State_Penalty>
-0

> <r_epik_Charging_Adjusted_Penalty>
5.40425e-09

> <i_epik_Tot_Q>
0

> <i_epik_Tot_abs_Q>
0

> <r_epik_Metal_State_Penalty>
-0

> <b_epik_Metal_Only>
0

> <s_lp_Force_Field>
OPLS_2005

> <r_lp_Energy>
34.5506

> <b_lp_Chiralities_Consistent>
1

> <s_lp_Variant>
AV-unprocessed.smi:2900-1

> <Gold.Version>
5.8.1

> <Gold.Id.Protein>
6NUR|6NUR_protein|mol2

> <Gold.PLP.Fitness>
49.8492

> <Gold.PLP.PLP>
-44.8388

> <Gold.PLP.part.hbond>
-2.9847

> <Gold.PLP.part.metal>
0.0000

> <Gold.PLP.part.buried>
-4.4267

> <Gold.PLP.part.nonpolar>
-38.1862

> <Gold.PLP.part.repulsive>
0.0000

> <Gold.PLP.ligand.clash>
0.0000

> <Gold.PLP.ligand.torsion>
0.7527

> <Gold.PLP.Chemscore.Hbond>
2.1657

> <Gold.PLP.Chemscore.CHOScore>
0.0000

> <Gold.PLP.Chemscore.Metal>
0.0000

> <Gold.Chemscore.Hbonds>
donor molecule, donor type, donor heavy atom, donor atom, acceptor molecule, acceptor atom, score
      P1  H  6896  6907       L1    14  1.00
      P1  H  6896  6909       L1     1  0.02
      P1  H  6931  6943       L1    10  0.45
      P1  H  6934  6947       L1    10  0.27

> <Gold.PLP.Chemscore.Internal.Correction>
0.0189

> <Gold.Rescore>
     Score         DG    S(hbond)    S(metal)    S(lipo)     H(rot)  DE(clash)    DE(int)     intcor
     14.35     -17.56       2.14        0.00      99.77       2.63       1.16       2.05       ----

> <Gold.Chemscore.Fitness>
14.3535

> <Gold.Chemscore.DG>
-17.5622

> <Gold.Chemscore.ZeroCoef>
-5.4800

> <Gold.Chemscore.Hbond>
2.1411

> <Gold.Chemscore.Metal>
0.0000

> <Gold.Chemscore.Lipo>
99.7691

> <Gold.Chemscore.Internal_Hbond>
0.0000

> <Gold.Chemscore.DEClash>
1.1609

> <Gold.Chemscore.DEInternal>
2.0478

> <Gold.Chemscore.Rot>
2.6336

> <Gold.Chemscore.Internal.Correction>
   9.000000E+99

> <Gold.Chemscore.Hbonds>
donor molecule, donor type, donor heavy atom, donor atom, acceptor molecule, acceptor atom, score
      P1  H  6896  6907       L1    14  0.84
      P1  H  6931  6943       L1    10  0.26
      P1  H  6934  6947       L1    10  0.21

> <Gold.Chemscore.Hbond.Weighted>
-7.1512

> <Gold.Chemscore.Metal.Weighted>
-0.0000

> <Gold.Chemscore.Lipo.Weighted>
-11.6730

> <Gold.Chemscore.Internal_Hbond.Weighted>
0.0000

> <Gold.Chemscore.DEClash.Weighted>
1.1609

> <Gold.Chemscore.DEInternal.Weighted>
2.0478

> <Gold.Chemscore.Rot.Weighted>
6.7420

> <Gold.Chemscore.Internal.Correction.Weighted>
   9.000000E+99

> <Gold.Protein.RotatedTorsions>
[ 6907 6896 6895 6894 ] final    4.12 input  -60.11 | X-H torsion
[ 7974 7965 7964 7962 ] final  -11.13 input  175.53 | X-H torsion
[ 8008 7997 7996 7995 ] final  150.71 input   59.86 | X-H torsion
[ 10167 10162 10161 10158 ] final   96.97 input  -65.29 | X-H torsion
[ 10718 10713 10712 10709 ] final  163.39 input   66.30 | X-H torsion
[ 10763 10752 10751 10750 ] final  100.83 input  -60.55 | X-H torsion
[ 11005 11000 10999 10996 ] final -109.61 input  -57.11 | X-H torsion

> <Gold.Protein.ActiveResidues>
 VAL166  LYS551  ARG553  GLY616  TRP617  ASP618  TYR619  PRO620  LYS621  CYS622 
 ASP623  PHE694  ASN695  SER759  ASP760  ASP761  ALA762  ILE779  LEU786  VAL792 
 PHE793  MET794  SER795  GLU796  ALA797  LYS798  CYS799  TRP800  GLU811  SER814 

> <Gold.Protein.RotatedAtoms>
  151.6362  135.1017  160.0131 H   0  0  0  0  0  0  0  0  0  0  0  0  # atno 6907 bound_to 6896
  152.4079  133.6913  159.6381 H   0  0  0  0  0  0  0  0  0  0  0  0  # atno 6908 bound_to 6896
  150.7972  133.8593  159.3268 H   0  0  0  0  0  0  0  0  0  0  0  0  # atno 6909 bound_to 6896
  146.2198  140.2865  142.8365 H   0  0  0  0  0  0  0  0  0  0  0  0  # atno 7974 bound_to 7965
  156.2704  140.2067  156.6061 H   0  0  0  0  0  0  0  0  0  0  0  0  # atno 8008 bound_to 7997
  154.6868  140.0534  157.0347 H   0  0  0  0  0  0  0  0  0  0  0  0  # atno 8009 bound_to 7997
  155.0922  140.3197  155.4573 H   0  0  0  0  0  0  0  0  0  0  0  0  # atno 8010 bound_to 7997
  139.7844  144.6876  150.9978 H   0  0  0  0  0  0  0  0  0  0  0  0  # atno 10167 bound_to 10162
  157.1092  131.0463  151.2464 H   0  0  0  0  0  0  0  0  0  0  0  0  # atno 10718 bound_to 10713
  153.3189  135.4065  155.1400 H   0  0  0  0  0  0  0  0  0  0  0  0  # atno 10763 bound_to 10752
  154.8595  135.3582  154.5623 H   0  0  0  0  0  0  0  0  0  0  0  0  # atno 10764 bound_to 10752
  153.6055  135.7069  153.5426 H   0  0  0  0  0  0  0  0  0  0  0  0  # atno 10765 bound_to 10752
  141.0838  133.9174  157.2231 H   0  0  0  0  0  0  0  0  0  0  0  0  # atno 11005 bound_to 11000
  144.9158  140.7811  143.5779 LP  0  0  0  0  0  0  0  0  0  0  0  0  # atno 17320 bound_to 7965
  145.2799  139.1922  143.4796 LP  0  0  0  0  0  0  0  0  0  0  0  0  # atno 17321 bound_to 7965
  140.7819  143.4448  151.0499 LP  0  0  0  0  0  0  0  0  0  0  0  0  # atno 17342 bound_to 10162
  139.8127  143.7928  152.3172 LP  0  0  0  0  0  0  0  0  0  0  0  0  # atno 17343 bound_to 10162
  157.4574  130.7633  149.7205 LP  0  0  0  0  0  0  0  0  0  0  0  0  # atno 17370 bound_to 10713
  155.9854  130.3983  150.3261 LP  0  0  0  0  0  0  0  0  0  0  0  0  # atno 17371 bound_to 10713
  139.9654  135.0143  156.9373 LP  0  0  0  0  0  0  0  0  0  0  0  0  # atno 17394 bound_to 11000
  140.5409  134.0721  155.7341 LP  0  0  0  0  0  0  0  0  0  0  0  0  # atno 17395 bound_to 11000

$$$$
