AV-unprocessed.smi:1240|AV-procd|sdf|5213|dock8
  -GOLD-   22720 4303D 1   1.00000     0.00000
 Structure written by MMmdl.
 48 50  0  0  0  0  0  0  0  0  4 V2000
  154.2947  137.4788  158.1394 O   0  0  0  0  0  0  0  0  0  0  0  0
  153.2000  137.4132  157.5688 C   0  0  0  0  0  0  0  0  0  0  0  0
  152.7521  136.4317  156.7414 N   0  5  0  0  0  0  0  0  0  0  0  0
  151.3450  136.0804  156.5500 C   0  0  0  0  0  0  0  0  0  0  0  0
  150.9282  136.2125  155.0421 C   0  0  2  0  0  0  0  0  0  0  0  0
  150.6951  137.6891  154.5887 C   0  0  1  0  0  0  0  0  0  0  0  0
  149.7033  138.5058  155.4134 C   0  0  0  0  0  0  0  0  0  0  0  0
  150.0717  139.9412  155.0540 C   0  0  0  0  0  0  0  0  0  0  0  0
  151.4645  139.9233  154.7652 O   0  0  0  0  0  0  0  0  0  0  0  0
  151.9351  138.5813  154.7364 C   0  0  0  0  0  0  0  0  0  0  0  0
  149.7508  135.3745  154.6115 N   0  3  0  0  0  0  0  0  0  0  0  0
  149.9744  133.9075  154.5314 C   0  0  0  0  0  0  0  0  0  0  0  0
  148.8281  133.2499  153.7465 C   0  0  0  0  0  0  0  0  0  0  0  0
  147.5835  133.5588  154.3644 O   0  0  0  0  0  0  0  0  0  0  0  0
  147.3221  134.9579  154.3808 C   0  0  0  0  0  0  0  0  0  0  0  0
  148.4121  135.6809  155.1886 C   0  0  0  0  0  0  0  0  0  0  0  0
  152.3026  138.4052  157.7088 N   0  0  0  0  0  0  0  0  0  0  0  0
  152.3772  139.5657  158.5250 C   0  0  0  0  0  0  0  0  0  0  0  0
  151.4090  140.5743  158.3255 C   0  0  0  0  0  0  0  0  0  0  0  0
  151.4342  141.7298  159.1324 C   0  0  0  0  0  0  0  0  0  0  0  0
  152.3718  141.8572  160.0961 N   0  3  0  0  0  0  0  0  0  0  0  0
  153.3059  140.9115  160.3356 C   0  0  0  0  0  0  0  0  0  0  0  0
  153.3312  139.7349  159.5600 C   0  0  0  0  0  0  0  0  0  0  0  0
  151.1143  135.0705  156.8914 H   0  0  0  0  0  0  0  0  0  0  0  0
  150.7122  136.7348  157.1489 H   0  0  0  0  0  0  0  0  0  0  0  0
  151.7776  135.8644  154.4518 H   0  0  0  0  0  0  0  0  0  0  0  0
  150.3808  137.7241  153.5434 H   0  0  0  0  0  0  0  0  0  0  0  0
  148.6597  138.2838  155.1878 H   0  0  0  0  0  0  0  0  0  0  0  0
  149.8635  138.3360  156.4793 H   0  0  0  0  0  0  0  0  0  0  0  0
  149.5371  140.2584  154.1580 H   0  0  0  0  0  0  0  0  0  0  0  0
  149.8381  140.6430  155.8549 H   0  0  0  0  0  0  0  0  0  0  0  0
  152.4466  138.3781  155.6785 H   0  0  0  0  0  0  0  0  0  0  0  0
  152.6527  138.4395  153.9279 H   0  0  0  0  0  0  0  0  0  0  0  0
  150.9243  133.6964  154.0397 H   0  0  0  0  0  0  0  0  0  0  0  0
  150.0211  133.4711  155.5290 H   0  0  0  0  0  0  0  0  0  0  0  0
  148.8249  133.5847  152.7078 H   0  0  0  0  0  0  0  0  0  0  0  0
  148.9560  132.1675  153.7316 H   0  0  0  0  0  0  0  0  0  0  0  0
  147.2743  135.3428  153.3608 H   0  0  0  0  0  0  0  0  0  0  0  0
  146.3444  135.1294  154.8313 H   0  0  0  0  0  0  0  0  0  0  0  0
  148.3610  135.3563  156.2289 H   0  0  0  0  0  0  0  0  0  0  0  0
  148.2255  136.7545  155.1735 H   0  0  0  0  0  0  0  0  0  0  0  0
  151.4857  138.3368  157.1200 H   0  0  0  0  0  0  0  0  0  0  0  0
  150.6572  140.4682  157.5568 H   0  0  0  0  0  0  0  0  0  0  0  0
  150.7356  142.5481  159.0384 H   0  0  0  0  0  0  0  0  0  0  0  0
  153.9962  141.1185  161.1400 H   0  0  0  0  0  0  0  0  0  0  0  0
  154.0693  138.9778  159.7782 H   0  0  0  0  0  0  0  0  0  0  0  0
  149.6541  135.6352  153.6413 H   0  0  0  0  0  0  0  0  0  0  0  0
  152.3710  142.7000  160.6709 H   0  0  0  0  0  0  0  0  0  0  0  0
  1  2  2  0  0  0  0
  2  3  1  0  0  0  0
  2 17  1  0  0  0  0
  3  4  1  0  0  0  0
  4  5  1  0  0  0  0
  4 24  1  0  0  0  0
  4 25  1  0  0  0  0
  5  6  1  0  0  0  0
  5 11  1  0  0  0  0
  5 26  1  0  0  0  0
  6 10  1  0  0  0  0
  6  7  1  0  0  0  0
  6 27  1  0  0  0  0
  7  8  1  0  0  0  0
  7 28  1  0  0  0  0
  7 29  1  0  0  0  0
  8  9  1  0  0  0  0
  8 30  1  0  0  0  0
  8 31  1  0  0  0  0
  9 10  1  0  0  0  0
 10 32  1  0  0  0  0
 10 33  1  0  0  0  0
 11 16  1  0  0  0  0
 11 12  1  0  0  0  0
 11 47  1  0  0  0  0
 12 13  1  0  0  0  0
 12 34  1  0  0  0  0
 12 35  1  0  0  0  0
 13 14  1  0  0  0  0
 13 36  1  0  0  0  0
 13 37  1  0  0  0  0
 14 15  1  0  0  0  0
 15 16  1  0  0  0  0
 15 38  1  0  0  0  0
 15 39  1  0  0  0  0
 16 40  1  0  0  0  0
 16 41  1  0  0  0  0
 17 18  1  0  0  0  0
 17 42  1  0  0  0  0
 18 23  1  0  0  0  0
 18 19  2  0  0  0  0
 19 20  1  0  0  0  0
 19 43  1  0  0  0  0
 20 21  2  0  0  0  0
 20 44  1  0  0  0  0
 21 22  1  0  0  0  0
 21 48  1  0  0  0  0
 22 23  2  0  0  0  0
 22 45  1  0  0  0  0
 23 46  1  0  0  0  0
M  CHG  1   3  -1
M  CHG  1  11   1
M  CHG  1  21   1
M  END
> <s_m_source_file>
AV-unprocessed.smi

> <i_m_source_file_index>
1240

> <i_lp_mmshare_version>
43012

> <i_f3d_flags>
0

> <s_epik_input>
W2NIXTFbY0hdbltjSF1bY0hdYzFbTkhdQyg9TylbTkhdW0NIMl1bQ0BIXShbQ0BASF0yW0NIMl1bQ0gyXU9bQ0gyXTIpTjNbQ0gyXVtDSDJdT1tDSDJdW0NIMl0z

> <s_epik_cmdline>
J2VwaWtfcHl0aG9uJywgJy1waCcsICc3LjAnLCAnLXRuJywgJzgnLCAnLW1hJywgJzIwMCcsICctbWV0YWxfYmluZGluZycsICctaW1hZScsICc8aW5maWxlLm1hZT4nLCAnLW9tYWUnLCAnPG91dGZpbGUubWFlPic=

> <r_epik_Ionization_Penalty>
8.41087

> <r_epik_Ionization_Penalty_Charging>
8.41087

> <r_epik_Ionization_Penalty_Neutral>
3.12936e-06

> <r_epik_State_Penalty>
8.81894

> <r_epik_Charging_Adjusted_Penalty>
17.2298

> <i_epik_Tot_Q>
1

> <i_epik_Tot_abs_Q>
3

> <r_epik_Metal_State_Penalty>
4.82983

> <b_epik_Metal_Only>
1

> <s_lp_Force_Field>
OPLS_2005

> <r_lp_Energy>
48.3521

> <b_lp_Chiralities_Consistent>
1

> <s_lp_Variant>
AV-unprocessed.smi:1240-19

> <Gold.Version>
5.8.1

> <Gold.Id.Protein>
6NUR|6NUR_protein|mol2

> <Gold.PLP.Fitness>
47.8260

> <Gold.PLP.PLP>
-33.6238

> <Gold.PLP.part.hbond>
-2.9108

> <Gold.PLP.part.metal>
0.0000

> <Gold.PLP.part.buried>
-5.6038

> <Gold.PLP.part.nonpolar>
-25.7100

> <Gold.PLP.part.repulsive>
0.3416

> <Gold.PLP.ligand.clash>
0.0000

> <Gold.PLP.ligand.torsion>
0.6451

> <Gold.PLP.Chemscore.Hbond>
5.0000

> <Gold.PLP.Chemscore.CHOScore>
0.0000

> <Gold.PLP.Chemscore.Metal>
0.0000

> <Gold.Chemscore.Hbonds>
donor molecule, donor type, donor heavy atom, donor atom, acceptor molecule, acceptor atom, score
      L1  H    11    47       P1  7948  1.60
      P1  H  7989  7998       L1     9  1.00
      P1  H 10752 10764       L1     3  1.80

> <Gold.PLP.Chemscore.Internal.Correction>
0.4923

> <Gold.Rescore>
     Score         DG    S(hbond)    S(metal)    S(lipo)     H(rot)  DE(clash)    DE(int)     intcor
     17.10     -19.49       2.69        0.00      80.10       1.70       0.00       2.39       ----

> <Gold.Chemscore.Fitness>
17.0982

> <Gold.Chemscore.DG>
-19.4892

> <Gold.Chemscore.ZeroCoef>
-5.4800

> <Gold.Chemscore.Hbond>
2.6930

> <Gold.Chemscore.Metal>
0.0000

> <Gold.Chemscore.Lipo>
80.1021

> <Gold.Chemscore.Internal_Hbond>
0.0000

> <Gold.Chemscore.DEClash>
0.0000

> <Gold.Chemscore.DEInternal>
2.3910

> <Gold.Chemscore.Rot>
1.7021

> <Gold.Chemscore.Internal.Correction>
   9.000000E+99

> <Gold.Chemscore.Hbonds>
donor molecule, donor type, donor heavy atom, donor atom, acceptor molecule, acceptor atom, score
      L1  H    11    47       P1  7948  0.12
      P1  H  7989  7998       L1     9  0.53
      P1  H 10752 10764       L1     3  0.18

> <Gold.Chemscore.Hbond.Weighted>
-8.9947

> <Gold.Chemscore.Metal.Weighted>
-0.0000

> <Gold.Chemscore.Lipo.Weighted>
-9.3719

> <Gold.Chemscore.Internal_Hbond.Weighted>
0.0000

> <Gold.Chemscore.DEClash.Weighted>
0.0000

> <Gold.Chemscore.DEInternal.Weighted>
2.3910

> <Gold.Chemscore.Rot.Weighted>
4.3575

> <Gold.Chemscore.Internal.Correction.Weighted>
   9.000000E+99

> <Gold.Protein.RotatedTorsions>
[ 6907 6896 6895 6894 ] final -152.54 input  -60.11 | X-H torsion
[ 7974 7965 7964 7962 ] final  133.11 input  175.53 | X-H torsion
[ 8008 7997 7996 7995 ] final  149.25 input   59.86 | X-H torsion
[ 10167 10162 10161 10158 ] final   53.89 input  -65.29 | X-H torsion
[ 10718 10713 10712 10709 ] final  113.58 input   66.30 | X-H torsion
[ 10763 10752 10751 10750 ] final   -4.75 input  -60.55 | X-H torsion
[ 11005 11000 10999 10996 ] final  -91.53 input  -57.11 | X-H torsion

> <Gold.Protein.ActiveResidues>
 VAL166  LYS551  ARG553  GLY616  TRP617  ASP618  TYR619  PRO620  LYS621  CYS622 
 ASP623  PHE694  ASN695  SER759  ASP760  ASP761  ALA762  ILE779  LEU786  VAL792 
 PHE793  MET794  SER795  GLU796  ALA797  LYS798  CYS799  TRP800  GLU811  SER814 

> <Gold.Protein.RotatedAtoms>
  151.2293  133.4459  159.2603 H   0  0  0  0  0  0  0  0  0  0  0  0  # atno 6907 bound_to 6896
  151.0809  134.9858  159.8366 H   0  0  0  0  0  0  0  0  0  0  0  0  # atno 6908 bound_to 6896
  152.5424  134.2233  159.8849 H   0  0  0  0  0  0  0  0  0  0  0  0  # atno 6909 bound_to 6896
  144.9899  139.4417  143.5344 H   0  0  0  0  0  0  0  0  0  0  0  0  # atno 7974 bound_to 7965
  156.2762  140.2107  156.5828 H   0  0  0  0  0  0  0  0  0  0  0  0  # atno 8008 bound_to 7997
  154.7044  140.0518  157.0513 H   0  0  0  0  0  0  0  0  0  0  0  0  # atno 8009 bound_to 7997
  155.0690  140.3174  155.4639 H   0  0  0  0  0  0  0  0  0  0  0  0  # atno 8010 bound_to 7997
  140.2360  144.3636  150.6397 H   0  0  0  0  0  0  0  0  0  0  0  0  # atno 10167 bound_to 10162
  157.6330  131.0986  150.7062 H   0  0  0  0  0  0  0  0  0  0  0  0  # atno 10718 bound_to 10713
  153.3891  135.7001  153.6508 H   0  0  0  0  0  0  0  0  0  0  0  0  # atno 10763 bound_to 10752
  153.5088  135.3636  155.2577 H   0  0  0  0  0  0  0  0  0  0  0  0  # atno 10764 bound_to 10752
  154.8700  135.4130  154.3204 H   0  0  0  0  0  0  0  0  0  0  0  0  # atno 10765 bound_to 10752
  141.1543  133.7761  156.9892 H   0  0  0  0  0  0  0  0  0  0  0  0  # atno 11005 bound_to 11000
  146.3429  139.9224  142.8765 LP  0  0  0  0  0  0  0  0  0  0  0  0  # atno 17320 bound_to 7965
  145.2301  140.9969  143.3996 LP  0  0  0  0  0  0  0  0  0  0  0  0  # atno 17321 bound_to 7965
  140.6150  143.2172  151.6811 LP  0  0  0  0  0  0  0  0  0  0  0  0  # atno 17342 bound_to 10162
  139.5093  144.3580  152.0590 LP  0  0  0  0  0  0  0  0  0  0  0  0  # atno 17343 bound_to 10162
  156.7398  130.4735  149.5480 LP  0  0  0  0  0  0  0  0  0  0  0  0  # atno 17370 bound_to 10713
  156.1547  130.6334  151.0641 LP  0  0  0  0  0  0  0  0  0  0  0  0  # atno 17371 bound_to 10713
  140.1014  134.9533  157.1929 LP  0  0  0  0  0  0  0  0  0  0  0  0  # atno 17394 bound_to 11000
  140.3313  134.2806  155.7227 LP  0  0  0  0  0  0  0  0  0  0  0  0  # atno 17395 bound_to 11000

$$$$
