AV-unprocessed.smi:1809|AV-procd|sdf|7328|dock3
  -GOLD-   22720 8583D 1   1.00000     0.00000
 Structure written by MMmdl.
 39 41  0  0  0  0  0  0  0  0  3 V2000
  149.1998  140.4689  154.8119 C   0  0  0  0  0  0  0  0  0  0  0  0
  150.3520  139.9086  155.5730 C   0  0  0  0  0  0  0  0  0  0  0  0
  151.6197  140.0686  155.1854 N   0  0  0  0  0  0  0  0  0  0  0  0
  152.5131  139.4601  156.0554 N   0  0  0  0  0  0  0  0  0  0  0  0
  151.9113  138.8603  157.0924 C   0  0  0  0  0  0  0  0  0  0  0  0
  152.5980  138.2144  158.0496 N   0  5  0  0  0  0  0  0  0  0  0  0
  153.6836  138.7948  158.6087 C   0  0  0  0  0  0  0  0  0  0  0  0
  154.8465  138.7152  158.2060 O   0  0  0  0  0  0  0  0  0  0  0  0
  153.4061  139.5154  159.7023 N   0  0  0  0  0  0  0  0  0  0  0  0
  154.3873  140.2452  160.4936 C   0  0  0  0  0  0  0  0  0  0  0  0
  154.0251  141.7342  160.5704 C   0  0  1  0  0  0  0  0  0  0  0  0
  153.3911  142.2373  159.2520 C   0  0  0  0  0  0  0  0  0  0  0  0
  152.9598  143.6332  159.4478 N   0  3  1  0  0  0  0  0  0  0  0  0
  152.3384  144.3393  158.3142 C   0  0  0  0  0  0  0  0  0  0  0  0
  151.4753  145.4420  158.9604 C   0  0  0  0  0  0  0  0  0  0  0  0
  151.5521  145.1969  160.4786 C   0  0  0  0  0  0  0  0  0  0  0  0
  152.0207  143.7483  160.5658 C   0  0  2  0  0  0  0  0  0  0  0  0
  152.7157  143.2830  161.8515 C   0  0  0  0  0  0  0  0  0  0  0  0
  153.1091  141.9238  161.6562 O   0  0  0  0  0  0  0  0  0  0  0  0
  150.1530  138.9883  157.0547 S   0  0  0  0  0  0  0  0  0  0  0  0
  149.1437  141.5471  154.9612 H   0  0  0  0  0  0  0  0  0  0  0  0
  148.2666  140.0190  155.1514 H   0  0  0  0  0  0  0  0  0  0  0  0
  149.3171  140.2661  153.7472 H   0  0  0  0  0  0  0  0  0  0  0  0
  152.4427  139.5609  160.0004 H   0  0  0  0  0  0  0  0  0  0  0  0
  154.4170  139.8156  161.4960 H   0  0  0  0  0  0  0  0  0  0  0  0
  155.3810  140.1217  160.0596 H   0  0  0  0  0  0  0  0  0  0  0  0
  154.9308  142.3094  160.7721 H   0  0  0  0  0  0  0  0  0  0  0  0
  154.1117  142.1865  158.4348 H   0  0  0  0  0  0  0  0  0  0  0  0
  152.5361  141.6190  158.9734 H   0  0  0  0  0  0  0  0  0  0  0  0
  153.0974  144.7412  157.6425 H   0  0  0  0  0  0  0  0  0  0  0  0
  151.7083  143.6535  157.7455 H   0  0  0  0  0  0  0  0  0  0  0  0
  151.8352  146.4397  158.7068 H   0  0  0  0  0  0  0  0  0  0  0  0
  150.4458  145.3650  158.6082 H   0  0  0  0  0  0  0  0  0  0  0  0
  152.2943  145.8606  160.9243 H   0  0  0  0  0  0  0  0  0  0  0  0
  150.6010  145.3654  160.9847 H   0  0  0  0  0  0  0  0  0  0  0  0
  151.1637  143.0990  160.3716 H   0  0  0  0  0  0  0  0  0  0  0  0
  153.5837  143.9010  162.0861 H   0  0  0  0  0  0  0  0  0  0  0  0
  152.0332  143.3412  162.6996 H   0  0  0  0  0  0  0  0  0  0  0  0
  153.7773  144.1677  159.7057 H   0  0  0  0  0  0  0  0  0  0  0  0
  1  2  1  0  0  0  0
  1 21  1  0  0  0  0
  1 22  1  0  0  0  0
  1 23  1  0  0  0  0
  2 20  1  0  0  0  0
  2  3  2  0  0  0  0
  3  4  1  0  0  0  0
  4  5  2  0  0  0  0
  5  6  1  0  0  0  0
  5 20  1  0  0  0  0
  6  7  1  0  0  0  0
  7  8  2  0  0  0  0
  7  9  1  0  0  0  0
  9 10  1  0  0  0  0
  9 24  1  0  0  0  0
 10 11  1  0  0  0  0
 10 25  1  0  0  0  0
 10 26  1  0  0  0  0
 11 19  1  0  0  0  0
 11 12  1  0  0  0  0
 11 27  1  0  0  0  0
 12 13  1  0  0  0  0
 12 28  1  0  0  0  0
 12 29  1  0  0  0  0
 13 17  1  0  0  0  0
 13 14  1  0  0  0  0
 13 39  1  0  0  0  0
 14 15  1  0  0  0  0
 14 30  1  0  0  0  0
 14 31  1  0  0  0  0
 15 16  1  0  0  0  0
 15 32  1  0  0  0  0
 15 33  1  0  0  0  0
 16 17  1  0  0  0  0
 16 34  1  0  0  0  0
 16 35  1  0  0  0  0
 17 18  1  0  0  0  0
 17 36  1  0  0  0  0
 18 19  1  0  0  0  0
 18 37  1  0  0  0  0
 18 38  1  0  0  0  0
M  CHG  1   6  -1
M  CHG  1  13   1
M  END
> <s_m_source_file>
AV-unprocessed.smi

> <i_m_source_file_index>
1809

> <i_lp_mmshare_version>
43012

> <i_f3d_flags>
0

> <s_epik_input>
W0NIM11jMW5uYyhzMSlbTkhdQyg9TylbTkhdW0NIMl1bQ0BIXShbQ0gyXTIpT1tDSDJdW0NAQEhdKE4yMylbQ0gyXVtDSDJdW0NIMl0z

> <s_epik_cmdline>
J2VwaWtfcHl0aG9uJywgJy1waCcsICc3LjAnLCAnLXRuJywgJzgnLCAnLW1hJywgJzIwMCcsICctbWV0YWxfYmluZGluZycsICctaW1hZScsICc8aW5maWxlLm1hZT4nLCAnLW9tYWUnLCAnPG91dGZpbGUubWFlPic=

> <r_lp_tautomer_probability>
1

> <r_epik_Ionization_Penalty>
3.2601

> <r_epik_Ionization_Penalty_Charging>
3.1406

> <r_epik_Ionization_Penalty_Neutral>
0.119497

> <r_epik_State_Penalty>
3.08894

> <r_epik_Charging_Adjusted_Penalty>
6.22954

> <i_epik_Tot_Q>
0

> <i_epik_Tot_abs_Q>
2

> <r_epik_Metal_State_Penalty>
0.510807

> <b_epik_Metal_Only>
1

> <s_lp_Force_Field>
OPLS_2005

> <r_lp_Energy>
29.8237

> <b_lp_Chiralities_Consistent>
1

> <s_lp_Variant>
AV-unprocessed.smi:1809-20

> <Gold.Version>
5.8.1

> <Gold.Id.Protein>
6NUR|6NUR_protein|mol2

> <Gold.PLP.Fitness>
47.9203

> <Gold.PLP.PLP>
-42.2950

> <Gold.PLP.part.hbond>
-3.0000

> <Gold.PLP.part.metal>
0.0000

> <Gold.PLP.part.buried>
-5.5651

> <Gold.PLP.part.nonpolar>
-33.7309

> <Gold.PLP.part.repulsive>
0.1565

> <Gold.PLP.ligand.clash>
0.0000

> <Gold.PLP.ligand.torsion>
1.4285

> <Gold.PLP.Chemscore.Hbond>
2.8160

> <Gold.PLP.Chemscore.CHOScore>
0.0000

> <Gold.PLP.Chemscore.Metal>
0.0000

> <Gold.Chemscore.Hbonds>
donor molecule, donor type, donor heavy atom, donor atom, acceptor molecule, acceptor atom, score
      P1  H  7989  7998       L1     3  0.99
      P1  H  7997  8008       L1     4  0.93
      P1  H  7997  8010       L1     8  0.86

> <Gold.PLP.Chemscore.Internal.Correction>
0.0343

> <Gold.Rescore>
     Score         DG    S(hbond)    S(metal)    S(lipo)     H(rot)  DE(clash)    DE(int)     intcor
     21.40     -22.88       2.50        0.00     106.31       1.32       0.03       1.45       ----

> <Gold.Chemscore.Fitness>
21.3971

> <Gold.Chemscore.DG>
-22.8768

> <Gold.Chemscore.ZeroCoef>
-5.4800

> <Gold.Chemscore.Hbond>
2.4999

> <Gold.Chemscore.Metal>
0.0000

> <Gold.Chemscore.Lipo>
106.3083

> <Gold.Chemscore.Internal_Hbond>
0.0000

> <Gold.Chemscore.DEClash>
0.0263

> <Gold.Chemscore.DEInternal>
1.4533

> <Gold.Chemscore.Rot>
1.3246

> <Gold.Chemscore.Internal.Correction>
   9.000000E+99

> <Gold.Chemscore.Hbonds>
donor molecule, donor type, donor heavy atom, donor atom, acceptor molecule, acceptor atom, score
      P1  H  7989  7998       L1     3  0.70
      P1  H  7997  8008       L1     4  0.74
      P1  H  7997  8010       L1     8  0.78

> <Gold.Chemscore.Hbond.Weighted>
-8.3497

> <Gold.Chemscore.Metal.Weighted>
-0.0000

> <Gold.Chemscore.Lipo.Weighted>
-12.4381

> <Gold.Chemscore.Internal_Hbond.Weighted>
0.0000

> <Gold.Chemscore.DEClash.Weighted>
0.0263

> <Gold.Chemscore.DEInternal.Weighted>
1.4533

> <Gold.Chemscore.Rot.Weighted>
3.3910

> <Gold.Chemscore.Internal.Correction.Weighted>
   9.000000E+99

> <Gold.Protein.RotatedTorsions>
[ 6907 6896 6895 6894 ] final  154.42 input  -60.11 | X-H torsion
[ 7974 7965 7964 7962 ] final -174.12 input  175.53 | X-H torsion
[ 8008 7997 7996 7995 ] final  -17.81 input   59.86 | X-H torsion
[ 10167 10162 10161 10158 ] final  165.57 input  -65.29 | X-H torsion
[ 10718 10713 10712 10709 ] final  119.98 input   66.30 | X-H torsion
[ 10763 10752 10751 10750 ] final -174.47 input  -60.55 | X-H torsion
[ 11005 11000 10999 10996 ] final -127.03 input  -57.11 | X-H torsion

> <Gold.Protein.ActiveResidues>
 VAL166  LYS551  ARG553  GLY616  TRP617  ASP618  TYR619  PRO620  LYS621  CYS622 
 ASP623  PHE694  ASN695  SER759  ASP760  ASP761  ALA762  ILE779  LEU786  VAL792 
 PHE793  MET794  SER795  GLU796  ALA797  LYS798  CYS799  TRP800  GLU811  SER814 

> <Gold.Protein.RotatedAtoms>
  152.0588  133.4052  159.4408 H   0  0  0  0  0  0  0  0  0  0  0  0  # atno 6907 bound_to 6896
  150.6867  134.3224  159.4801 H   0  0  0  0  0  0  0  0  0  0  0  0  # atno 6908 bound_to 6896
  152.1043  134.9319  160.0619 H   0  0  0  0  0  0  0  0  0  0  0  0  # atno 6909 bound_to 6896
  144.7133  140.1519  143.6383 H   0  0  0  0  0  0  0  0  0  0  0  0  # atno 7974 bound_to 7965
  154.4951  140.2132  155.9464 H   0  0  0  0  0  0  0  0  0  0  0  0  # atno 8008 bound_to 7997
  156.1359  140.3188  155.8388 H   0  0  0  0  0  0  0  0  0  0  0  0  # atno 8009 bound_to 7997
  155.4210  140.0497  157.3016 H   0  0  0  0  0  0  0  0  0  0  0  0  # atno 8010 bound_to 7997
  139.4908  144.4118  151.9290 H   0  0  0  0  0  0  0  0  0  0  0  0  # atno 10167 bound_to 10162
  157.5923  131.1062  150.7972 H   0  0  0  0  0  0  0  0  0  0  0  0  # atno 10718 bound_to 10713
  154.5958  135.2849  155.0588 H   0  0  0  0  0  0  0  0  0  0  0  0  # atno 10763 bound_to 10752
  154.1871  135.6447  153.5053 H   0  0  0  0  0  0  0  0  0  0  0  0  # atno 10764 bound_to 10752
  153.0138  135.5437  154.6660 H   0  0  0  0  0  0  0  0  0  0  0  0  # atno 10765 bound_to 10752
  140.9633  134.0907  157.3946 H   0  0  0  0  0  0  0  0  0  0  0  0  # atno 11005 bound_to 11000
  145.9109  139.2486  143.1438 LP  0  0  0  0  0  0  0  0  0  0  0  0  # atno 17320 bound_to 7965
  145.9717  140.8754  143.0159 LP  0  0  0  0  0  0  0  0  0  0  0  0  # atno 17321 bound_to 7965
  140.3559  144.3032  150.5941 LP  0  0  0  0  0  0  0  0  0  0  0  0  # atno 17342 bound_to 10162
  140.5444  143.2217  151.8031 LP  0  0  0  0  0  0  0  0  0  0  0  0  # atno 17343 bound_to 10162
  156.8391  130.5042  149.5323 LP  0  0  0  0  0  0  0  0  0  0  0  0  # atno 17370 bound_to 10713
  156.0980  130.5947  150.9846 LP  0  0  0  0  0  0  0  0  0  0  0  0  # atno 17371 bound_to 10713
  139.8885  135.0098  156.6627 LP  0  0  0  0  0  0  0  0  0  0  0  0  # atno 17394 bound_to 11000
  140.7436  133.8957  155.8296 LP  0  0  0  0  0  0  0  0  0  0  0  0  # atno 17395 bound_to 11000

$$$$
