AV-unprocessed.smi:854|AV-procd|sdf|3955|dock2
  -GOLD-   22720 1423D 1   1.00000     0.00000
 Structure written by MMmdl.
 27 28  0  0  0  0  0  0  0  0  1 V2000
  151.0099  140.9341  156.2676 O   0  0  0  0  0  0  0  0  0  0  0  0
  150.4176  142.0091  156.1884 C   0  0  0  0  0  0  0  0  0  0  0  0
  149.3022  142.1350  155.4376 N   0  0  0  0  0  0  0  0  0  0  0  0
  148.5846  141.1941  154.6428 C   0  0  0  0  0  0  0  0  0  0  0  0
  148.9822  139.9433  154.3764 N   0  0  0  0  0  0  0  0  0  0  0  0
  148.0757  139.2625  153.5601 C   0  0  0  0  0  0  0  0  0  0  0  0
  146.9844  140.0153  153.2069 C   0  0  0  0  0  0  0  0  0  0  0  0
  147.0544  141.6184  153.8878 S   0  0  0  0  0  0  0  0  0  0  0  0
  150.8369  143.1161  156.8227 N   0  0  0  0  0  0  0  0  0  0  0  0
  152.0147  143.2102  157.6806 C   0  0  0  0  0  0  0  0  0  0  0  0
  151.7872  142.4476  159.0007 C   0  0  0  0  0  0  0  0  0  0  0  0
  152.1757  143.4117  160.1233 C   0  0  0  0  0  0  0  0  0  0  0  0
  151.9056  144.7967  159.5445 C   0  0  0  0  0  0  0  0  0  0  0  0
  152.3111  144.6705  158.0763 C   0  0  0  0  0  0  0  0  0  0  0  0
  148.9109  143.0657  155.4304 H   0  0  0  0  0  0  0  0  0  0  0  0
  148.2877  138.2419  153.2771 H   0  0  0  0  0  0  0  0  0  0  0  0
  146.1478  139.7256  152.5884 H   0  0  0  0  0  0  0  0  0  0  0  0
  150.2932  143.9590  156.7019 H   0  0  0  0  0  0  0  0  0  0  0  0
  152.8774  142.7899  157.1601 H   0  0  0  0  0  0  0  0  0  0  0  0
  150.7360  142.1765  159.1138 H   0  0  0  0  0  0  0  0  0  0  0  0
  152.3626  141.5223  159.0447 H   0  0  0  0  0  0  0  0  0  0  0  0
  151.6243  143.2262  161.0457 H   0  0  0  0  0  0  0  0  0  0  0  0
  153.2389  143.3092  160.3446 H   0  0  0  0  0  0  0  0  0  0  0  0
  150.8408  145.0236  159.6145 H   0  0  0  0  0  0  0  0  0  0  0  0
  152.4512  145.5848  160.0646 H   0  0  0  0  0  0  0  0  0  0  0  0
  153.3822  144.8548  157.9840 H   0  0  0  0  0  0  0  0  0  0  0  0
  151.8062  145.4055  157.4477 H   0  0  0  0  0  0  0  0  0  0  0  0
  1  2  2  0  0  0  0
  2  3  1  0  0  0  0
  2  9  1  0  0  0  0
  3  4  1  0  0  0  0
  3 15  1  0  0  0  0
  4  8  1  0  0  0  0
  4  5  2  0  0  0  0
  5  6  1  0  0  0  0
  6  7  2  0  0  0  0
  6 16  1  0  0  0  0
  7  8  1  0  0  0  0
  7 17  1  0  0  0  0
  9 10  1  0  0  0  0
  9 18  1  0  0  0  0
 10 14  1  0  0  0  0
 10 11  1  0  0  0  0
 10 19  1  0  0  0  0
 11 12  1  0  0  0  0
 11 20  1  0  0  0  0
 11 21  1  0  0  0  0
 12 13  1  0  0  0  0
 12 22  1  0  0  0  0
 12 23  1  0  0  0  0
 13 14  1  0  0  0  0
 13 24  1  0  0  0  0
 13 25  1  0  0  0  0
 14 26  1  0  0  0  0
 14 27  1  0  0  0  0
M  END
> <s_m_source_file>
AV-unprocessed.smi

> <i_m_source_file_index>
854

> <i_lp_mmshare_version>
43012

> <i_f3d_flags>
0

> <s_epik_input>
W0NIMl0xW0NIMl1bQ0gyXVtDSDJdW0NIXTFbTkhdQyg9TylbTkhdYzJuW2NIXVtjSF1zMg==

> <s_epik_cmdline>
J2VwaWtfcHl0aG9uJywgJy1waCcsICc3LjAnLCAnLXRuJywgJzgnLCAnLW1hJywgJzIwMCcsICctbWV0YWxfYmluZGluZycsICctaW1hZScsICc8aW5maWxlLm1hZT4nLCAnLW9tYWUnLCAnPG91dGZpbGUubWFlPic=

> <r_lp_tautomer_probability>
0.999

> <r_epik_Ionization_Penalty>
0.000426276

> <r_epik_Ionization_Penalty_Charging>
0

> <r_epik_Ionization_Penalty_Neutral>
0.000426276

> <r_epik_State_Penalty>
0.000177984

> <r_epik_Charging_Adjusted_Penalty>
0.000177984

> <i_epik_Tot_Q>
0

> <i_epik_Tot_abs_Q>
0

> <r_epik_Metal_State_Penalty>
-0

> <b_epik_Metal_Only>
0

> <s_lp_Force_Field>
OPLS_2005

> <r_lp_Energy>
19.4897

> <b_lp_Chiralities_Consistent>
1

> <s_lp_Variant>
AV-unprocessed.smi:854-1

> <Gold.Version>
5.8.1

> <Gold.Id.Protein>
6NUR|6NUR_protein|mol2

> <Gold.PLP.Fitness>
42.7974

> <Gold.PLP.PLP>
-31.6706

> <Gold.PLP.part.hbond>
-2.0000

> <Gold.PLP.part.metal>
0.0000

> <Gold.PLP.part.buried>
-3.5330

> <Gold.PLP.part.nonpolar>
-26.9750

> <Gold.PLP.part.repulsive>
0.3583

> <Gold.PLP.ligand.clash>
0.0000

> <Gold.PLP.ligand.torsion>
0.0945

> <Gold.PLP.Chemscore.Hbond>
1.8800

> <Gold.PLP.Chemscore.CHOScore>
1.8911

> <Gold.PLP.Chemscore.Metal>
0.0000

> <Gold.Chemscore.Hbonds>
donor molecule, donor type, donor heavy atom, donor atom, acceptor molecule, acceptor atom, score
      L1  H     3    15       P1  8028  1.00
      L1  H     9    18       P1  8028  0.88
      L1  C     6    16       P1  7948  1.00
      L1  C     7    17       P1 10175  0.89

> <Gold.PLP.Chemscore.Internal.Correction>
0.0026

> <Gold.Rescore>
     Score         DG    S(hbond)    S(metal)    S(lipo)     H(rot)  DE(clash)    DE(int)     intcor
     17.19     -18.49       1.89        0.00      79.11       1.00       0.07       1.22       ----

> <Gold.Chemscore.Fitness>
17.1948

> <Gold.Chemscore.DG>
-18.4882

> <Gold.Chemscore.ZeroCoef>
-5.4800

> <Gold.Chemscore.Hbond>
1.8899

> <Gold.Chemscore.Metal>
0.0000

> <Gold.Chemscore.Lipo>
79.1108

> <Gold.Chemscore.Internal_Hbond>
0.0000

> <Gold.Chemscore.DEClash>
0.0734

> <Gold.Chemscore.DEInternal>
1.2200

> <Gold.Chemscore.Rot>
1.0000

> <Gold.Chemscore.Internal.Correction>
   9.000000E+99

> <Gold.Chemscore.Hbonds>
donor molecule, donor type, donor heavy atom, donor atom, acceptor molecule, acceptor atom, score
      L1  H     3    15       P1  8028  0.99
      L1  H     9    18       P1  8028  0.86

> <Gold.Chemscore.Hbond.Weighted>
-6.3123

> <Gold.Chemscore.Metal.Weighted>
-0.0000

> <Gold.Chemscore.Lipo.Weighted>
-9.2560

> <Gold.Chemscore.Internal_Hbond.Weighted>
0.0000

> <Gold.Chemscore.DEClash.Weighted>
0.0734

> <Gold.Chemscore.DEInternal.Weighted>
1.2200

> <Gold.Chemscore.Rot.Weighted>
2.5600

> <Gold.Chemscore.Internal.Correction.Weighted>
   9.000000E+99

> <Gold.Protein.RotatedTorsions>
[ 6907 6896 6895 6894 ] final  -85.82 input  -60.11 | X-H torsion
[ 7974 7965 7964 7962 ] final   95.26 input  175.53 | X-H torsion
[ 8008 7997 7996 7995 ] final    9.62 input   59.86 | X-H torsion
[ 10167 10162 10161 10158 ] final  125.38 input  -65.29 | X-H torsion
[ 10718 10713 10712 10709 ] final  -28.77 input   66.30 | X-H torsion
[ 10763 10752 10751 10750 ] final  -46.65 input  -60.55 | X-H torsion
[ 11005 11000 10999 10996 ] final -114.84 input  -57.11 | X-H torsion

> <Gold.Protein.ActiveResidues>
 VAL166  LYS551  ARG553  GLY616  TRP617  ASP618  TYR619  PRO620  LYS621  CYS622 
 ASP623  PHE694  ASN695  SER759  ASP760  ASP761  ALA762  ILE779  LEU786  VAL792 
 PHE793  MET794  SER795  GLU796  ALA797  LYS798  CYS799  TRP800  GLU811  SER814 

> <Gold.Protein.RotatedAtoms>
  150.6869  134.3146  159.4760 H   0  0  0  0  0  0  0  0  0  0  0  0  # atno 6907 bound_to 6896
  152.1028  134.9327  160.0578 H   0  0  0  0  0  0  0  0  0  0  0  0  # atno 6908 bound_to 6896
  152.0599  133.4023  159.4450 H   0  0  0  0  0  0  0  0  0  0  0  0  # atno 6909 bound_to 6896
  145.4545  139.2291  143.3021 H   0  0  0  0  0  0  0  0  0  0  0  0  # atno 7974 bound_to 7965
  154.7825  140.2821  155.6053 H   0  0  0  0  0  0  0  0  0  0  0  0  # atno 8008 bound_to 7997
  156.2952  140.2620  156.2582 H   0  0  0  0  0  0  0  0  0  0  0  0  # atno 8009 bound_to 7997
  154.9767  140.0375  157.2249 H   0  0  0  0  0  0  0  0  0  0  0  0  # atno 8010 bound_to 7997
  139.5689  144.6927  151.3834 H   0  0  0  0  0  0  0  0  0  0  0  0  # atno 10167 bound_to 10162
  156.4210  130.4426  149.7184 H   0  0  0  0  0  0  0  0  0  0  0  0  # atno 10718 bound_to 10713
  154.0485  135.6634  153.4798 H   0  0  0  0  0  0  0  0  0  0  0  0  # atno 10763 bound_to 10752
  153.0473  135.5106  154.7773 H   0  0  0  0  0  0  0  0  0  0  0  0  # atno 10764 bound_to 10752
  154.6772  135.3039  154.9628 H   0  0  0  0  0  0  0  0  0  0  0  0  # atno 10765 bound_to 10752
  141.0526  133.9663  157.2810 H   0  0  0  0  0  0  0  0  0  0  0  0  # atno 11005 bound_to 11000
  146.2486  140.5308  142.8903 LP  0  0  0  0  0  0  0  0  0  0  0  0  # atno 17320 bound_to 7965
  144.8041  140.6267  143.6459 LP  0  0  0  0  0  0  0  0  0  0  0  0  # atno 17321 bound_to 7965
  140.6973  143.7718  150.7347 LP  0  0  0  0  0  0  0  0  0  0  0  0  # atno 17342 bound_to 10162
  140.1218  143.4605  152.2308 LP  0  0  0  0  0  0  0  0  0  0  0  0  # atno 17343 bound_to 10162
  156.4124  130.7729  151.2742 LP  0  0  0  0  0  0  0  0  0  0  0  0  # atno 17370 bound_to 10713
  157.7508  131.0207  150.3720 LP  0  0  0  0  0  0  0  0  0  0  0  0  # atno 17371 bound_to 10713
  139.9363  135.0196  156.8565 LP  0  0  0  0  0  0  0  0  0  0  0  0  # atno 17394 bound_to 11000
  140.6026  134.0157  155.7543 LP  0  0  0  0  0  0  0  0  0  0  0  0  # atno 17395 bound_to 11000

$$$$
