AV-unprocessed.smi:651|AV-procd|sdf|3185|dock7
  -GOLD-   22720 0113D 1   1.00000     0.00000
 Structure written by MMmdl.
 38 39  0  0  0  0  0  0  0  0  1 V2000
  143.5593  132.3881  150.8170 C   0  0  0  0  0  0  0  0  0  0  0  0
  144.1067  133.7309  151.2530 C   0  0  0  0  0  0  0  0  0  0  0  0
  143.3768  134.5597  152.1310 C   0  0  0  0  0  0  0  0  0  0  0  0
  143.9347  135.7976  152.5042 C   0  0  0  0  0  0  0  0  0  0  0  0
  145.1965  136.1584  151.9873 C   0  0  0  0  0  0  0  0  0  0  0  0
  145.8480  137.4778  152.3673 C   0  0  0  0  0  0  0  0  0  0  0  0
  146.3626  137.4521  153.8092 C   0  0  0  0  0  0  0  0  0  0  0  0
  145.6115  137.7598  154.7341 O   0  0  0  0  0  0  0  0  0  0  0  0
  147.6473  137.1058  153.9876 N   0  0  0  0  0  0  0  0  0  0  0  0
  148.3341  137.0339  155.2775 C   0  0  1  0  0  0  0  0  0  0  0  0
  149.3528  135.8782  155.2987 C   0  0  0  0  0  0  0  0  0  0  0  0
  150.6223  136.4148  155.9713 C   0  0  0  0  0  0  0  0  0  0  0  0
  150.2393  137.7735  156.5636 C   0  0  0  0  0  0  0  0  0  0  0  0
  149.1143  138.3171  155.6698 C   0  0  1  0  0  0  0  0  0  0  0  0
  149.6907  139.1225  154.4847 C   0  0  0  0  0  0  0  0  0  0  0  0
  148.8340  139.4852  153.5267 N   0  0  0  0  0  0  0  0  0  0  0  0
  150.8860  139.4067  154.4281 O   0  0  0  0  0  0  0  0  0  0  0  0
  145.8407  135.2588  151.1111 C   0  0  0  0  0  0  0  0  0  0  0  0
  145.3139  134.0697  150.7495 N   0  0  0  0  0  0  0  0  0  0  0  0
  142.7156  132.0861  151.4384 H   0  0  0  0  0  0  0  0  0  0  0  0
  144.3275  131.6179  150.8922 H   0  0  0  0  0  0  0  0  0  0  0  0
  143.2219  132.4373  149.7815 H   0  0  0  0  0  0  0  0  0  0  0  0
  142.4127  134.2561  152.5121 H   0  0  0  0  0  0  0  0  0  0  0  0
  143.4053  136.4548  153.1783 H   0  0  0  0  0  0  0  0  0  0  0  0
  146.6798  137.6926  151.6951 H   0  0  0  0  0  0  0  0  0  0  0  0
  145.1257  138.2863  152.2454 H   0  0  0  0  0  0  0  0  0  0  0  0
  148.1923  136.8761  153.1688 H   0  0  0  0  0  0  0  0  0  0  0  0
  147.5963  136.8359  156.0577 H   0  0  0  0  0  0  0  0  0  0  0  0
  148.9478  135.0281  155.8489 H   0  0  0  0  0  0  0  0  0  0  0  0
  149.5899  135.5248  154.2940 H   0  0  0  0  0  0  0  0  0  0  0  0
  151.0077  135.7332  156.7299 H   0  0  0  0  0  0  0  0  0  0  0  0
  151.4069  136.5441  155.2247 H   0  0  0  0  0  0  0  0  0  0  0  0
  149.8579  137.6351  157.5761 H   0  0  0  0  0  0  0  0  0  0  0  0
  151.0974  138.4437  156.6348 H   0  0  0  0  0  0  0  0  0  0  0  0
  148.4672  138.9783  156.2488 H   0  0  0  0  0  0  0  0  0  0  0  0
  149.1604  140.0165  152.7325 H   0  0  0  0  0  0  0  0  0  0  0  0
  147.8602  139.2293  153.6027 H   0  0  0  0  0  0  0  0  0  0  0  0
  146.8090  135.4947  150.6947 H   0  0  0  0  0  0  0  0  0  0  0  0
  1  2  1  0  0  0  0
  1 20  1  0  0  0  0
  1 21  1  0  0  0  0
  1 22  1  0  0  0  0
  2 19  1  0  0  0  0
  2  3  2  0  0  0  0
  3  4  1  0  0  0  0
  3 23  1  0  0  0  0
  4  5  2  0  0  0  0
  4 24  1  0  0  0  0
  5  6  1  0  0  0  0
  5 18  1  0  0  0  0
  6  7  1  0  0  0  0
  6 25  1  0  0  0  0
  6 26  1  0  0  0  0
  7  8  2  0  0  0  0
  7  9  1  0  0  0  0
  9 10  1  0  0  0  0
  9 27  1  0  0  0  0
 10 14  1  0  0  0  0
 10 11  1  0  0  0  0
 10 28  1  0  0  0  0
 11 12  1  0  0  0  0
 11 29  1  0  0  0  0
 11 30  1  0  0  0  0
 12 13  1  0  0  0  0
 12 31  1  0  0  0  0
 12 32  1  0  0  0  0
 13 14  1  0  0  0  0
 13 33  1  0  0  0  0
 13 34  1  0  0  0  0
 14 15  1  0  0  0  0
 14 35  1  0  0  0  0
 15 16  1  0  0  0  0
 15 17  2  0  0  0  0
 16 36  1  0  0  0  0
 16 37  1  0  0  0  0
 18 19  2  0  0  0  0
 18 38  1  0  0  0  0
M  END
> <s_m_source_file>
AV-unprocessed.smi

> <i_m_source_file_index>
651

> <i_lp_mmshare_version>
43012

> <i_f3d_flags>
0

> <s_epik_input>
W0NIM11jMVtjSF1bY0hdYyhbY0hdbjEpW0NIMl1DKD1PKVtOSF1bQ0BASF0yW0NIMl1bQ0gyXVtDSDJdW0NASF0yQyg9TylbTkgyXQ==

> <s_epik_cmdline>
J2VwaWtfcHl0aG9uJywgJy1waCcsICc3LjAnLCAnLXRuJywgJzgnLCAnLW1hJywgJzIwMCcsICctbWV0YWxfYmluZGluZycsICctaW1hZScsICc8aW5maWxlLm1hZT4nLCAnLW9tYWUnLCAnPG91dGZpbGUubWFlPic=

> <r_epik_Ionization_Penalty>
0.0159502

> <r_epik_Ionization_Penalty_Charging>
0

> <r_epik_Ionization_Penalty_Neutral>
0.0159502

> <r_epik_State_Penalty>
0.012563

> <r_epik_Charging_Adjusted_Penalty>
0.012563

> <i_epik_Tot_Q>
0

> <i_epik_Tot_abs_Q>
0

> <r_epik_Metal_State_Penalty>
0.0122326

> <b_epik_Metal_Only>
0

> <s_lp_Force_Field>
OPLS_2005

> <r_lp_Energy>
12.2285

> <b_lp_Chiralities_Consistent>
1

> <s_lp_Variant>
AV-unprocessed.smi:651-2

> <Gold.Version>
5.8.1

> <Gold.Id.Protein>
6NUR|6NUR_protein|mol2

> <Gold.PLP.Fitness>
37.2722

> <Gold.PLP.PLP>
-27.1934

> <Gold.PLP.part.hbond>
-2.9581

> <Gold.PLP.part.metal>
0.0000

> <Gold.PLP.part.buried>
-6.2349

> <Gold.PLP.part.nonpolar>
-19.0265

> <Gold.PLP.part.repulsive>
0.4798

> <Gold.PLP.ligand.clash>
0.0000

> <Gold.PLP.ligand.torsion>
0.9735

> <Gold.PLP.Chemscore.Hbond>
3.0000

> <Gold.PLP.Chemscore.CHOScore>
1.0000

> <Gold.PLP.Chemscore.Metal>
0.0000

> <Gold.Chemscore.Hbonds>
donor molecule, donor type, donor heavy atom, donor atom, acceptor molecule, acceptor atom, score
      L1  H     9    27       P1  7948  1.00
      L1  H    16    36       P1  7957  0.98
      P1  H  7989  7998       L1    17  1.00
      L1  C    18    38       P1  7948  1.00

> <Gold.PLP.Chemscore.Internal.Correction>
0.0257

> <Gold.Rescore>
     Score         DG    S(hbond)    S(metal)    S(lipo)     H(rot)  DE(clash)    DE(int)     intcor
     14.30     -16.70       2.93        0.00      55.31       1.97       0.00       2.41       ----

> <Gold.Chemscore.Fitness>
14.2976

> <Gold.Chemscore.DG>
-16.7042

> <Gold.Chemscore.ZeroCoef>
-5.4800

> <Gold.Chemscore.Hbond>
2.9333

> <Gold.Chemscore.Metal>
0.0000

> <Gold.Chemscore.Lipo>
55.3106

> <Gold.Chemscore.Internal_Hbond>
0.0000

> <Gold.Chemscore.DEClash>
0.0000

> <Gold.Chemscore.DEInternal>
2.4066

> <Gold.Chemscore.Rot>
1.9704

> <Gold.Chemscore.Internal.Correction>
   9.000000E+99

> <Gold.Chemscore.Hbonds>
donor molecule, donor type, donor heavy atom, donor atom, acceptor molecule, acceptor atom, score
      L1  H     9    27       P1  7948  1.00
      L1  H    16    36       P1  7957  0.92
      P1  H  7989  7998       L1    17  1.00

> <Gold.Chemscore.Hbond.Weighted>
-9.7972

> <Gold.Chemscore.Metal.Weighted>
-0.0000

> <Gold.Chemscore.Lipo.Weighted>
-6.4713

> <Gold.Chemscore.Internal_Hbond.Weighted>
0.0000

> <Gold.Chemscore.DEClash.Weighted>
0.0000

> <Gold.Chemscore.DEInternal.Weighted>
2.4066

> <Gold.Chemscore.Rot.Weighted>
5.0443

> <Gold.Chemscore.Internal.Correction.Weighted>
   9.000000E+99

> <Gold.Protein.RotatedTorsions>
[ 6907 6896 6895 6894 ] final  -19.75 input  -60.11 | X-H torsion
[ 7974 7965 7964 7962 ] final -177.69 input  175.53 | X-H torsion
[ 8008 7997 7996 7995 ] final   58.45 input   59.86 | X-H torsion
[ 10167 10162 10161 10158 ] final  176.36 input  -65.29 | X-H torsion
[ 10718 10713 10712 10709 ] final -142.52 input   66.30 | X-H torsion
[ 10763 10752 10751 10750 ] final  -47.82 input  -60.55 | X-H torsion
[ 11005 11000 10999 10996 ] final   35.57 input  -57.11 | X-H torsion

> <Gold.Protein.ActiveResidues>
 VAL166  LYS551  ARG553  GLY616  TRP617  ASP618  TYR619  PRO620  LYS621  CYS622 
 ASP623  PHE694  ASN695  SER759  ASP760  ASP761  ALA762  ILE779  LEU786  VAL792 
 PHE793  MET794  SER795  GLU796  ALA797  LYS798  CYS799  TRP800  GLU811  SER814 

> <Gold.Protein.RotatedAtoms>
  151.2585  135.0646  159.9088 H   0  0  0  0  0  0  0  0  0  0  0  0  # atno 6907 bound_to 6896
  152.5369  134.0256  159.8012 H   0  0  0  0  0  0  0  0  0  0  0  0  # atno 6908 bound_to 6896
  151.0475  133.5603  159.2676 H   0  0  0  0  0  0  0  0  0  0  0  0  # atno 6909 bound_to 6896
  144.7128  140.0982  143.6418 H   0  0  0  0  0  0  0  0  0  0  0  0  # atno 7974 bound_to 7965
  155.5503  140.3486  155.4467 H   0  0  0  0  0  0  0  0  0  0  0  0  # atno 8008 bound_to 7997
  156.0588  140.1335  156.9991 H   0  0  0  0  0  0  0  0  0  0  0  0  # atno 8009 bound_to 7997
  154.4469  140.0989  156.6471 H   0  0  0  0  0  0  0  0  0  0  0  0  # atno 8010 bound_to 7997
  139.5211  144.2924  152.0451 H   0  0  0  0  0  0  0  0  0  0  0  0  # atno 10167 bound_to 10162
  156.3468  130.7667  151.1813 H   0  0  0  0  0  0  0  0  0  0  0  0  # atno 10718 bound_to 10713
  154.0677  135.6609  153.4820 H   0  0  0  0  0  0  0  0  0  0  0  0  # atno 10763 bound_to 10752
  153.0403  135.5150  154.7598 H   0  0  0  0  0  0  0  0  0  0  0  0  # atno 10764 bound_to 10752
  154.6654  135.3021  154.9780 H   0  0  0  0  0  0  0  0  0  0  0  0  # atno 10765 bound_to 10752
  140.2413  134.3411  155.7924 H   0  0  0  0  0  0  0  0  0  0  0  0  # atno 11005 bound_to 11000
  145.9561  139.2768  143.1183 LP  0  0  0  0  0  0  0  0  0  0  0  0  # atno 17320 bound_to 7965
  145.9271  140.9075  143.0375 LP  0  0  0  0  0  0  0  0  0  0  0  0  # atno 17321 bound_to 7965
  140.2375  144.4304  150.6274 LP  0  0  0  0  0  0  0  0  0  0  0  0  # atno 17342 bound_to 10162
  140.6313  143.2188  151.6489 LP  0  0  0  0  0  0  0  0  0  0  0  0  # atno 17343 bound_to 10162
  157.7455  131.0439  150.4765 LP  0  0  0  0  0  0  0  0  0  0  0  0  # atno 17370 bound_to 10713
  156.4954  130.4105  149.6383 LP  0  0  0  0  0  0  0  0  0  0  0  0  # atno 17371 bound_to 10713
  141.2210  133.7300  156.8890 LP  0  0  0  0  0  0  0  0  0  0  0  0  # atno 17394 bound_to 11000
  140.1650  134.9139  157.2763 LP  0  0  0  0  0  0  0  0  0  0  0  0  # atno 17395 bound_to 11000

$$$$
