AV-unprocessed.smi:2989|AV-procd|sdf|11391|dock3
  -GOLD-   2272016313D 1   1.00000     0.00000
 Structure written by MMmdl.
 31 33  0  0  0  0  0  0  0  0  1 V2000
  149.0756  142.8340  157.7257 O   0  0  0  0  0  0  0  0  0  0  0  0
  150.2382  142.0332  157.7863 C   0  0  2  0  0  0  0  0  0  0  0  0
  151.4480  142.9524  158.0465 C   0  0  0  0  0  0  0  0  0  0  0  0
  151.6598  143.1918  159.4635 N   0  0  0  0  0  0  0  0  0  0  0  0
  150.9207  144.1446  160.0988 N   0  0  0  0  0  0  0  0  0  0  0  0
  151.2621  144.1690  161.3526 N   0  0  0  0  0  0  0  0  0  0  0  0
  152.2436  143.2115  161.5484 C   0  0  0  0  0  0  0  0  0  0  0  0
  152.9545  142.8128  162.7030 C   0  0  0  0  0  0  0  0  0  0  0  0
  153.9180  141.7841  162.6228 C   0  0  0  0  0  0  0  0  0  0  0  0
  154.1821  141.1432  161.3931 C   0  0  0  0  0  0  0  0  0  0  0  0
  153.4837  141.5294  160.2325 C   0  0  0  0  0  0  0  0  0  0  0  0
  152.5280  142.5559  160.3300 C   0  0  0  0  0  0  0  0  0  0  0  0
  150.4186  141.1854  156.5345 C   0  0  0  0  0  0  0  0  0  0  0  0
  149.4393  141.2136  155.5182 C   0  0  0  0  0  0  0  0  0  0  0  0
  149.5836  140.4101  154.3706 C   0  0  0  0  0  0  0  0  0  0  0  0
  150.7073  139.5729  154.2330 C   0  0  0  0  0  0  0  0  0  0  0  0
  151.6871  139.5396  155.2436 C   0  0  0  0  0  0  0  0  0  0  0  0
  151.5437  140.3435  156.3910 C   0  0  0  0  0  0  0  0  0  0  0  0
  149.0648  143.2823  156.8937 H   0  0  0  0  0  0  0  0  0  0  0  0
  150.1089  141.3684  158.6416 H   0  0  0  0  0  0  0  0  0  0  0  0
  152.3578  142.5243  157.6238 H   0  0  0  0  0  0  0  0  0  0  0  0
  151.3026  143.9167  157.5565 H   0  0  0  0  0  0  0  0  0  0  0  0
  152.7584  143.2951  163.6492 H   0  0  0  0  0  0  0  0  0  0  0  0
  154.4561  141.4840  163.5098 H   0  0  0  0  0  0  0  0  0  0  0  0
  154.9191  140.3554  161.3417 H   0  0  0  0  0  0  0  0  0  0  0  0
  153.6751  141.0429  159.2874 H   0  0  0  0  0  0  0  0  0  0  0  0
  148.5682  141.8442  155.6203 H   0  0  0  0  0  0  0  0  0  0  0  0
  148.8300  140.4337  153.5974 H   0  0  0  0  0  0  0  0  0  0  0  0
  150.8167  138.9553  153.3538 H   0  0  0  0  0  0  0  0  0  0  0  0
  152.5475  138.8951  155.1403 H   0  0  0  0  0  0  0  0  0  0  0  0
  152.2961  140.3050  157.1652 H   0  0  0  0  0  0  0  0  0  0  0  0
  1  2  1  0  0  0  0
  1 19  1  0  0  0  0
  2  3  1  0  0  0  0
  2 13  1  0  0  0  0
  2 20  1  0  0  0  0
  3  4  1  0  0  0  0
  3 21  1  0  0  0  0
  3 22  1  0  0  0  0
  4 12  1  0  0  0  0
  4  5  1  0  0  0  0
  5  6  2  0  0  0  0
  6  7  1  0  0  0  0
  7 12  2  0  0  0  0
  7  8  1  0  0  0  0
  8  9  2  0  0  0  0
  8 23  1  0  0  0  0
  9 10  1  0  0  0  0
  9 24  1  0  0  0  0
 10 11  2  0  0  0  0
 10 25  1  0  0  0  0
 11 12  1  0  0  0  0
 11 26  1  0  0  0  0
 13 18  1  0  0  0  0
 13 14  2  0  0  0  0
 14 15  1  0  0  0  0
 14 27  1  0  0  0  0
 15 16  2  0  0  0  0
 15 28  1  0  0  0  0
 16 17  1  0  0  0  0
 16 29  1  0  0  0  0
 17 18  2  0  0  0  0
 17 30  1  0  0  0  0
 18 31  1  0  0  0  0
M  END
> <s_m_source_file>
AV-unprocessed.smi

> <i_m_source_file_index>
2989

> <i_lp_mmshare_version>
43012

> <i_f3d_flags>
0

> <s_epik_input>
W2NIXTFbY0hdW2NIXVtjSF1bY0hdYzFbQ0BIXShbT0hdKVtDSDJdbihubjIpYyhjMjMpW2NIXVtjSF1bY0hdW2NIXTM=

> <s_epik_cmdline>
J2VwaWtfcHl0aG9uJywgJy1waCcsICc3LjAnLCAnLXRuJywgJzgnLCAnLW1hJywgJzIwMCcsICctbWV0YWxfYmluZGluZycsICctaW1hZScsICc8aW5maWxlLm1hZT4nLCAnLW9tYWUnLCAnPG91dGZpbGUubWFlPic=

> <r_lp_tautomer_probability>
1

> <r_epik_Ionization_Penalty>
4.09993e-05

> <r_epik_Ionization_Penalty_Charging>
0

> <r_epik_Ionization_Penalty_Neutral>
4.09993e-05

> <r_epik_State_Penalty>
-0

> <r_epik_Charging_Adjusted_Penalty>
0

> <i_epik_Tot_Q>
0

> <i_epik_Tot_abs_Q>
0

> <r_epik_Metal_State_Penalty>
-0

> <b_epik_Metal_Only>
0

> <s_lp_Force_Field>
OPLS_2005

> <r_lp_Energy>
11.9105

> <b_lp_Chiralities_Consistent>
1

> <s_lp_Variant>
AV-unprocessed.smi:2989-1

> <Gold.Version>
5.8.1

> <Gold.Id.Protein>
6NUR|6NUR_protein|mol2

> <Gold.PLP.Fitness>
47.2269

> <Gold.PLP.PLP>
-45.6208

> <Gold.PLP.part.hbond>
-1.6382

> <Gold.PLP.part.metal>
0.0000

> <Gold.PLP.part.buried>
-1.7158

> <Gold.PLP.part.nonpolar>
-42.1987

> <Gold.PLP.part.repulsive>
0.2684

> <Gold.PLP.ligand.clash>
0.0000

> <Gold.PLP.ligand.torsion>
0.7039

> <Gold.PLP.Chemscore.Hbond>
1.0000

> <Gold.PLP.Chemscore.CHOScore>
0.0000

> <Gold.PLP.Chemscore.Metal>
0.0000

> <Gold.Chemscore.Hbonds>
donor molecule, donor type, donor heavy atom, donor atom, acceptor molecule, acceptor atom, score
      L1  H     1    19       P1  8028  1.00

> <Gold.PLP.Chemscore.Internal.Correction>
0.0139

> <Gold.Rescore>
     Score         DG    S(hbond)    S(metal)    S(lipo)     H(rot)  DE(clash)    DE(int)     intcor
     17.41     -18.10       0.87        0.00     121.46       1.76       0.05       0.64       ----

> <Gold.Chemscore.Fitness>
17.4148

> <Gold.Chemscore.DG>
-18.1042

> <Gold.Chemscore.ZeroCoef>
-5.4800

> <Gold.Chemscore.Hbond>
0.8708

> <Gold.Chemscore.Metal>
0.0000

> <Gold.Chemscore.Lipo>
121.4637

> <Gold.Chemscore.Internal_Hbond>
0.0000

> <Gold.Chemscore.DEClash>
0.0492

> <Gold.Chemscore.DEInternal>
0.6402

> <Gold.Chemscore.Rot>
1.7561

> <Gold.Chemscore.Internal.Correction>
   9.000000E+99

> <Gold.Chemscore.Hbonds>
donor molecule, donor type, donor heavy atom, donor atom, acceptor molecule, acceptor atom, score
      L1  H     1    19       P1  8028  0.87

> <Gold.Chemscore.Hbond.Weighted>
-2.9085

> <Gold.Chemscore.Metal.Weighted>
-0.0000

> <Gold.Chemscore.Lipo.Weighted>
-14.2113

> <Gold.Chemscore.Internal_Hbond.Weighted>
0.0000

> <Gold.Chemscore.DEClash.Weighted>
0.0492

> <Gold.Chemscore.DEInternal.Weighted>
0.6402

> <Gold.Chemscore.Rot.Weighted>
4.4955

> <Gold.Chemscore.Internal.Correction.Weighted>
   9.000000E+99

> <Gold.Protein.RotatedTorsions>
[ 6907 6896 6895 6894 ] final    3.87 input  -60.11 | X-H torsion
[ 7974 7965 7964 7962 ] final -119.11 input  175.53 | X-H torsion
[ 8008 7997 7996 7995 ] final  137.97 input   59.86 | X-H torsion
[ 10167 10162 10161 10158 ] final   -4.43 input  -65.29 | X-H torsion
[ 10718 10713 10712 10709 ] final  -11.65 input   66.30 | X-H torsion
[ 10763 10752 10751 10750 ] final -115.26 input  -60.55 | X-H torsion
[ 11005 11000 10999 10996 ] final -122.52 input  -57.11 | X-H torsion

> <Gold.Protein.ActiveResidues>
 VAL166  LYS551  ARG553  GLY616  TRP617  ASP618  TYR619  PRO620  LYS621  CYS622 
 ASP623  PHE694  ASN695  SER759  ASP760  ASP761  ALA762  ILE779  LEU786  VAL792 
 PHE793  MET794  SER795  GLU796  ALA797  LYS798  CYS799  TRP800  GLU811  SER814 

> <Gold.Protein.RotatedAtoms>
  151.6322  135.1022  160.0123 H   0  0  0  0  0  0  0  0  0  0  0  0  # atno 6907 bound_to 6896
  152.4100  133.6945  159.6398 H   0  0  0  0  0  0  0  0  0  0  0  0  # atno 6908 bound_to 6896
  150.7991  133.8558  159.3259 H   0  0  0  0  0  0  0  0  0  0  0  0  # atno 6909 bound_to 6896
  145.0662  140.8326  143.4123 H   0  0  0  0  0  0  0  0  0  0  0  0  # atno 7974 bound_to 7965
  156.3000  140.2405  156.3997 H   0  0  0  0  0  0  0  0  0  0  0  0  # atno 8008 bound_to 7997
  154.8538  140.0423  157.1641 H   0  0  0  0  0  0  0  0  0  0  0  0  # atno 8009 bound_to 7997
  154.8970  140.2971  155.5343 H   0  0  0  0  0  0  0  0  0  0  0  0  # atno 8010 bound_to 7997
  140.6927  143.6424  150.8423 H   0  0  0  0  0  0  0  0  0  0  0  0  # atno 10167 bound_to 10162
  156.6559  130.4968  149.6046 H   0  0  0  0  0  0  0  0  0  0  0  0  # atno 10718 bound_to 10713
  154.8474  135.4388  154.1634 H   0  0  0  0  0  0  0  0  0  0  0  0  # atno 10763 bound_to 10752
  153.2766  135.6950  153.7433 H   0  0  0  0  0  0  0  0  0  0  0  0  # atno 10764 bound_to 10752
  153.6654  135.3428  155.3114 H   0  0  0  0  0  0  0  0  0  0  0  0  # atno 10765 bound_to 10752
  140.9989  134.0432  157.3563 H   0  0  0  0  0  0  0  0  0  0  0  0  # atno 11005 bound_to 11000
  145.1348  139.2609  143.5520 LP  0  0  0  0  0  0  0  0  0  0  0  0  # atno 17320 bound_to 7965
  146.3527  140.1009  142.8608 LP  0  0  0  0  0  0  0  0  0  0  0  0  # atno 17321 bound_to 7965
  140.0139  143.5614  152.2828 LP  0  0  0  0  0  0  0  0  0  0  0  0  # atno 17342 bound_to 10162
  139.6347  144.7648  151.2462 LP  0  0  0  0  0  0  0  0  0  0  0  0  # atno 17343 bound_to 10162
  156.2048  130.6642  151.1207 LP  0  0  0  0  0  0  0  0  0  0  0  0  # atno 17370 bound_to 10713
  157.7126  131.0726  150.6447 LP  0  0  0  0  0  0  0  0  0  0  0  0  # atno 17371 bound_to 10713
  139.9028  135.0170  156.7350 LP  0  0  0  0  0  0  0  0  0  0  0  0  # atno 17394 bound_to 11000
  140.6921  133.9380  155.7973 LP  0  0  0  0  0  0  0  0  0  0  0  0  # atno 17395 bound_to 11000

$$$$
