AV-unprocessed.smi:1695|AV-procd|sdf|6794|dock9
  -GOLD-   22720 7563D 1   1.00000     0.00000
 Structure written by MMmdl.
 52 54  0  0  0  0  0  0  0  0  3 V2000
  153.7875  141.4031  160.9532 C   0  0  0  0  0  0  0  0  0  0  0  0
  152.9606  141.1442  159.7053 C   0  0  0  0  0  0  0  0  0  0  0  0
  153.1508  139.9283  159.0104 C   0  0  0  0  0  0  0  0  0  0  0  0
  152.3812  139.7214  157.8718 C   0  0  0  0  0  0  0  0  0  0  0  0
  152.3319  138.6457  156.9822 N   0  3  0  0  0  0  0  0  0  0  0  0
  151.4134  138.9014  156.0096 C   0  0  0  0  0  0  0  0  0  0  0  0
  150.8801  140.1281  156.2619 N   0  0  0  0  0  0  0  0  0  0  0  0
  149.8529  140.8819  155.5305 C   0  0  0  0  0  0  0  0  0  0  0  0
  149.1502  140.0425  154.4448 C   0  0  1  0  0  0  0  0  0  0  0  0
  150.0855  139.7097  153.4372 O   0  0  0  0  0  0  0  0  0  0  0  0
  148.5602  138.7412  155.0233 C   0  0  0  0  0  0  0  0  0  0  0  0
  147.7823  137.9701  154.0194 N   0  3  1  0  0  0  0  0  0  0  0  0
  146.9593  136.9041  154.6450 C   0  0  0  0  0  0  0  0  0  0  0  0
  146.2805  136.0222  153.5793 C   0  0  0  0  0  0  0  0  0  0  0  0
  145.4454  136.8283  152.5625 C   0  0  1  0  0  0  0  0  0  0  0  0
  144.0930  137.2915  153.1358 C   0  0  0  0  0  0  0  0  0  0  0  0
  143.2748  137.9431  152.3057 N   0  0  0  0  0  0  0  0  0  0  0  0
  143.7847  137.0704  154.3048 O   0  0  0  0  0  0  0  0  0  0  0  0
  146.2937  137.9945  152.0122 C   0  0  0  0  0  0  0  0  0  0  0  0
  146.9725  138.8291  153.1155 C   0  0  0  0  0  0  0  0  0  0  0  0
  151.4486  140.6741  157.4177 C   0  0  0  0  0  0  0  0  0  0  0  0
  151.2463  141.8760  158.0918 C   0  0  0  0  0  0  0  0  0  0  0  0
  152.0200  142.1053  159.2519 C   0  0  0  0  0  0  0  0  0  0  0  0
  151.8242  143.4085  160.0077 C   0  0  0  0  0  0  0  0  0  0  0  0
  154.4516  140.5666  161.1730 H   0  0  0  0  0  0  0  0  0  0  0  0
  153.1405  141.5510  161.8183 H   0  0  0  0  0  0  0  0  0  0  0  0
  154.4042  142.2930  160.8255 H   0  0  0  0  0  0  0  0  0  0  0  0
  153.8645  139.1918  159.3505 H   0  0  0  0  0  0  0  0  0  0  0  0
  151.1570  138.2500  155.1861 H   0  0  0  0  0  0  0  0  0  0  0  0
  149.1276  141.2407  156.2624 H   0  0  0  0  0  0  0  0  0  0  0  0
  150.3207  141.7676  155.0984 H   0  0  0  0  0  0  0  0  0  0  0  0
  148.3661  140.6458  153.9898 H   0  0  0  0  0  0  0  0  0  0  0  0
  149.7410  139.9903  152.6028 H   0  0  0  0  0  0  0  0  0  0  0  0
  149.3823  138.1311  155.4021 H   0  0  0  0  0  0  0  0  0  0  0  0
  147.9233  138.9563  155.8829 H   0  0  0  0  0  0  0  0  0  0  0  0
  147.5947  136.2721  155.2664 H   0  0  0  0  0  0  0  0  0  0  0  0
  146.2224  137.3515  155.3124 H   0  0  0  0  0  0  0  0  0  0  0  0
  147.0492  135.4669  153.0402 H   0  0  0  0  0  0  0  0  0  0  0  0
  145.6593  135.2693  154.0666 H   0  0  0  0  0  0  0  0  0  0  0  0
  145.2224  136.1645  151.7254 H   0  0  0  0  0  0  0  0  0  0  0  0
  142.3759  138.2688  152.6308 H   0  0  0  0  0  0  0  0  0  0  0  0
  143.5590  138.1090  151.3508 H   0  0  0  0  0  0  0  0  0  0  0  0
  147.0640  137.5888  151.3547 H   0  0  0  0  0  0  0  0  0  0  0  0
  145.6815  138.6441  151.3849 H   0  0  0  0  0  0  0  0  0  0  0  0
  146.2332  139.3808  153.6964 H   0  0  0  0  0  0  0  0  0  0  0  0
  147.6047  139.5777  152.6404 H   0  0  0  0  0  0  0  0  0  0  0  0
  150.5298  142.6070  157.7475 H   0  0  0  0  0  0  0  0  0  0  0  0
  151.0729  144.0383  159.5300 H   0  0  0  0  0  0  0  0  0  0  0  0
  152.7559  143.9731  160.0456 H   0  0  0  0  0  0  0  0  0  0  0  0
  151.4948  143.2135  161.0285 H   0  0  0  0  0  0  0  0  0  0  0  0
  148.4630  137.4941  153.4444 H   0  0  0  0  0  0  0  0  0  0  0  0
  152.8811  137.7971  157.0347 H   0  0  0  0  0  0  0  0  0  0  0  0
  1  2  1  0  0  0  0
  1 25  1  0  0  0  0
  1 26  1  0  0  0  0
  1 27  1  0  0  0  0
  2 23  1  0  0  0  0
  2  3  2  0  0  0  0
  3  4  1  0  0  0  0
  3 28  1  0  0  0  0
  4 21  2  0  0  0  0
  4  5  1  0  0  0  0
  5  6  2  0  0  0  0
  5 52  1  0  0  0  0
  6  7  1  0  0  0  0
  6 29  1  0  0  0  0
  7  8  1  0  0  0  0
  7 21  1  0  0  0  0
  8  9  1  0  0  0  0
  8 30  1  0  0  0  0
  8 31  1  0  0  0  0
  9 10  1  0  0  0  0
  9 11  1  0  0  0  0
  9 32  1  0  0  0  0
 10 33  1  0  0  0  0
 11 12  1  0  0  0  0
 11 34  1  0  0  0  0
 11 35  1  0  0  0  0
 12 20  1  0  0  0  0
 12 13  1  0  0  0  0
 12 51  1  0  0  0  0
 13 14  1  0  0  0  0
 13 36  1  0  0  0  0
 13 37  1  0  0  0  0
 14 15  1  0  0  0  0
 14 38  1  0  0  0  0
 14 39  1  0  0  0  0
 15 16  1  0  0  0  0
 15 19  1  0  0  0  0
 15 40  1  0  0  0  0
 16 17  1  0  0  0  0
 16 18  2  0  0  0  0
 17 41  1  0  0  0  0
 17 42  1  0  0  0  0
 19 20  1  0  0  0  0
 19 43  1  0  0  0  0
 19 44  1  0  0  0  0
 20 45  1  0  0  0  0
 20 46  1  0  0  0  0
 21 22  1  0  0  0  0
 22 23  2  0  0  0  0
 22 47  1  0  0  0  0
 23 24  1  0  0  0  0
 24 48  1  0  0  0  0
 24 49  1  0  0  0  0
 24 50  1  0  0  0  0
M  CHG  1   5   1
M  CHG  1  12   1
M  END
> <s_m_source_file>
AV-unprocessed.smi

> <i_m_source_file_index>
1695

> <i_lp_mmshare_version>
43012

> <i_f3d_flags>
0

> <s_epik_input>
W0NIM11jKFtjSF0xKWMoW0NIM10pW2NIXWMoYzEyKW4oW2NIXW4yKVtDSDJdW0NASF0oW09IXSlbQ0gyXU4zW0NIMl1bQ0gyXVtDSF0oQyg9TylbTkgyXSlbQ0gyXVtDSDJdMw==

> <s_epik_cmdline>
J2VwaWtfcHl0aG9uJywgJy1waCcsICc3LjAnLCAnLXRuJywgJzgnLCAnLW1hJywgJzIwMCcsICctbWV0YWxfYmluZGluZycsICctaW1hZScsICc8aW5maWxlLm1hZT4nLCAnLW9tYWUnLCAnPG91dGZpbGUubWFlPic=

> <r_epik_Ionization_Penalty>
1.20173

> <r_epik_Ionization_Penalty_Charging>
1.20172

> <r_epik_Ionization_Penalty_Neutral>
1.7852e-06

> <r_epik_State_Penalty>
1.28089

> <r_epik_Charging_Adjusted_Penalty>
2.48261

> <i_epik_Tot_Q>
2

> <i_epik_Tot_abs_Q>
2

> <r_epik_Metal_State_Penalty>
1.35652

> <b_epik_Metal_Only>
0

> <s_lp_Force_Field>
OPLS_2005

> <r_lp_Energy>
25.0715

> <b_lp_Chiralities_Consistent>
1

> <s_lp_Variant>
AV-unprocessed.smi:1695-6

> <Gold.Version>
5.8.1

> <Gold.Id.Protein>
6NUR|6NUR_protein|mol2

> <Gold.PLP.Fitness>
51.0938

> <Gold.PLP.PLP>
-38.4334

> <Gold.PLP.part.hbond>
-4.3354

> <Gold.PLP.part.metal>
0.0000

> <Gold.PLP.part.buried>
0.1354

> <Gold.PLP.part.nonpolar>
-34.5336

> <Gold.PLP.part.repulsive>
0.2222

> <Gold.PLP.ligand.clash>
0.0000

> <Gold.PLP.ligand.torsion>
0.2859

> <Gold.PLP.Chemscore.Hbond>
4.3943

> <Gold.PLP.Chemscore.CHOScore>
0.0000

> <Gold.PLP.Chemscore.Metal>
0.0000

> <Gold.Chemscore.Hbonds>
donor molecule, donor type, donor heavy atom, donor atom, acceptor molecule, acceptor atom, score
      L1  H    10    33       P1  7957  0.80
      L1  H    12    51       P1  7948  1.79
      L1  H    17    42       P1 10171  1.00
      P1  H  7989  7998       L1    10  0.61

> <Gold.PLP.Chemscore.Internal.Correction>
0.0495

> <Gold.Rescore>
     Score         DG    S(hbond)    S(metal)    S(lipo)     H(rot)  DE(clash)    DE(int)     intcor
     17.17     -18.68       2.71        0.00      99.34       2.91       0.06       1.46       ----

> <Gold.Chemscore.Fitness>
17.1688

> <Gold.Chemscore.DG>
-18.6842

> <Gold.Chemscore.ZeroCoef>
-5.4800

> <Gold.Chemscore.Hbond>
2.7060

> <Gold.Chemscore.Metal>
0.0000

> <Gold.Chemscore.Lipo>
99.3382

> <Gold.Chemscore.Internal_Hbond>
0.0000

> <Gold.Chemscore.DEClash>
0.0592

> <Gold.Chemscore.DEInternal>
1.4561

> <Gold.Chemscore.Rot>
2.9127

> <Gold.Chemscore.Internal.Correction>
   9.000000E+99

> <Gold.Chemscore.Hbonds>
donor molecule, donor type, donor heavy atom, donor atom, acceptor molecule, acceptor atom, score
      L1  H    10    33       P1  7957  0.78
      L1  H    12    51       P1  7948  0.84
      L1  H    17    42       P1 10171  0.88
      P1  H  7989  7998       L1    10  0.09

> <Gold.Chemscore.Hbond.Weighted>
-9.0381

> <Gold.Chemscore.Metal.Weighted>
-0.0000

> <Gold.Chemscore.Lipo.Weighted>
-11.6226

> <Gold.Chemscore.Internal_Hbond.Weighted>
0.0000

> <Gold.Chemscore.DEClash.Weighted>
0.0592

> <Gold.Chemscore.DEInternal.Weighted>
1.4561

> <Gold.Chemscore.Rot.Weighted>
7.4565

> <Gold.Chemscore.Internal.Correction.Weighted>
   9.000000E+99

> <Gold.Protein.RotatedTorsions>
[ 6907 6896 6895 6894 ] final -167.59 input  -60.11 | X-H torsion
[ 7974 7965 7964 7962 ] final   -0.18 input  175.53 | X-H torsion
[ 8008 7997 7996 7995 ] final   92.16 input   59.86 | X-H torsion
[ 10167 10162 10161 10158 ] final  160.53 input  -65.29 | X-H torsion
[ 10718 10713 10712 10709 ] final   73.34 input   66.30 | X-H torsion
[ 10763 10752 10751 10750 ] final  130.76 input  -60.55 | X-H torsion
[ 11005 11000 10999 10996 ] final  127.18 input  -57.11 | X-H torsion

> <Gold.Protein.ActiveResidues>
 VAL166  LYS551  ARG553  GLY616  TRP617  ASP618  TYR619  PRO620  LYS621  CYS622 
 ASP623  PHE694  ASN695  SER759  ASP760  ASP761  ALA762  ILE779  LEU786  VAL792 
 PHE793  MET794  SER795  GLU796  ALA797  LYS798  CYS799  TRP800  GLU811  SER814 

> <Gold.Protein.RotatedAtoms>
  151.4620  133.3590  159.2810 H   0  0  0  0  0  0  0  0  0  0  0  0  # atno 6907 bound_to 6896
  150.9019  134.8434  159.7377 H   0  0  0  0  0  0  0  0  0  0  0  0  # atno 6908 bound_to 6896
  152.4884  134.4541  159.9636 H   0  0  0  0  0  0  0  0  0  0  0  0  # atno 6909 bound_to 6896
  146.2429  140.1230  142.8340 H   0  0  0  0  0  0  0  0  0  0  0  0  # atno 7974 bound_to 7965
  156.0321  140.3329  155.7151 H   0  0  0  0  0  0  0  0  0  0  0  0  # atno 8008 bound_to 7997
  155.5869  140.0642  157.2786 H   0  0  0  0  0  0  0  0  0  0  0  0  # atno 8009 bound_to 7997
  154.4357  140.1834  156.1022 H   0  0  0  0  0  0  0  0  0  0  0  0  # atno 8010 bound_to 7997
  139.4841  144.4625  151.8686 H   0  0  0  0  0  0  0  0  0  0  0  0  # atno 10167 bound_to 10162
  157.6543  130.9623  150.1055 H   0  0  0  0  0  0  0  0  0  0  0  0  # atno 10718 bound_to 10713
  153.7633  135.3192  155.3340 H   0  0  0  0  0  0  0  0  0  0  0  0  # atno 10763 bound_to 10752
  154.8222  135.4595  154.0816 H   0  0  0  0  0  0  0  0  0  0  0  0  # atno 10764 bound_to 10752
  153.2053  135.6928  153.8264 H   0  0  0  0  0  0  0  0  0  0  0  0  # atno 10765 bound_to 10752
  139.9494  134.9624  156.8816 H   0  0  0  0  0  0  0  0  0  0  0  0  # atno 11005 bound_to 11000
  145.0390  140.8930  143.5064 LP  0  0  0  0  0  0  0  0  0  0  0  0  # atno 17320 bound_to 7965
  145.1307  139.2633  143.5540 LP  0  0  0  0  0  0  0  0  0  0  0  0  # atno 17321 bound_to 7965
  140.4088  144.2396  150.5889 LP  0  0  0  0  0  0  0  0  0  0  0  0  # atno 17342 bound_to 10162
  140.4986  143.2325  151.8712 LP  0  0  0  0  0  0  0  0  0  0  0  0  # atno 17343 bound_to 10162
  156.1966  130.3657  149.8841 LP  0  0  0  0  0  0  0  0  0  0  0  0  # atno 17370 bound_to 10713
  156.6756  130.8837  151.3568 LP  0  0  0  0  0  0  0  0  0  0  0  0  # atno 17371 bound_to 10713
  140.5756  134.0401  155.7445 LP  0  0  0  0  0  0  0  0  0  0  0  0  # atno 17394 bound_to 11000
  141.1153  133.9550  157.2834 LP  0  0  0  0  0  0  0  0  0  0  0  0  # atno 17395 bound_to 11000

$$$$
