AV-unprocessed.smi:1047|AV-procd|sdf|4585|dock9
  -GOLD-   22720 3 63D 1   1.00000     0.00000
 Structure written by MMmdl.
 58 60  0  0  0  0  0  0  0  0  4 V2000
  146.0340  131.2484  152.3166 C   0  0  0  0  0  0  0  0  0  0  0  0
  147.1351  132.2870  152.5745 C   0  0  0  0  0  0  0  0  0  0  0  0
  147.9259  131.9867  153.7979 N   0  3  2  0  0  0  0  0  0  0  0  0
  147.1246  132.0270  155.0452 C   0  0  0  0  0  0  0  0  0  0  0  0
  146.8793  133.4761  155.5022 C   0  0  0  0  0  0  0  0  0  0  0  0
  148.1275  134.1396  155.6649 O   0  0  0  0  0  0  0  0  0  0  0  0
  148.8673  134.2215  154.4504 C   0  0  1  0  0  0  0  0  0  0  0  0
  150.1585  135.0052  154.7325 C   0  0  0  0  0  0  0  0  0  0  0  0
  149.9746  136.4520  154.4994 N   0  3  0  0  0  0  0  0  0  0  0  0
  151.0929  137.2860  154.9851 C   0  0  0  0  0  0  0  0  0  0  0  0
  150.6251  138.7103  155.3284 C   0  0  1  0  0  0  0  0  0  0  0  0
  149.5133  138.6239  156.1979 O   0  0  0  0  0  0  0  0  0  0  0  0
  151.7437  139.5325  155.9983 C   0  0  0  0  0  0  0  0  0  0  0  0
  151.2956  140.8623  156.4383 N   0  0  0  0  0  0  0  0  0  0  0  0
  150.4884  141.7583  155.8069 C   0  0  0  0  0  0  0  0  0  0  0  0
  150.3811  142.8527  156.6098 N   0  3  0  0  0  0  0  0  0  0  0  0
  151.1321  142.6554  157.7700 C   0  0  0  0  0  0  0  0  0  0  0  0
  151.3350  143.4772  158.8720 C   0  0  0  0  0  0  0  0  0  0  0  0
  152.1638  142.9806  159.9031 C   0  0  0  0  0  0  0  0  0  0  0  0
  152.4082  143.8553  161.1212 C   0  0  0  0  0  0  0  0  0  0  0  0
  152.7562  141.6949  159.8079 C   0  0  0  0  0  0  0  0  0  0  0  0
  153.6429  141.1701  160.9245 C   0  0  0  0  0  0  0  0  0  0  0  0
  152.5382  140.8745  158.6778 C   0  0  0  0  0  0  0  0  0  0  0  0
  151.7211  141.3796  157.6686 C   0  0  0  0  0  0  0  0  0  0  0  0
  149.1672  132.7886  153.9548 C   0  0  0  0  0  0  0  0  0  0  0  0
  145.4093  131.5539  151.4769 H   0  0  0  0  0  0  0  0  0  0  0  0
  145.3847  131.1377  153.1855 H   0  0  0  0  0  0  0  0  0  0  0  0
  146.4417  130.2680  152.0723 H   0  0  0  0  0  0  0  0  0  0  0  0
  147.7820  132.3805  151.7026 H   0  0  0  0  0  0  0  0  0  0  0  0
  146.6497  133.2559  152.6977 H   0  0  0  0  0  0  0  0  0  0  0  0
  146.1816  131.4942  154.9177 H   0  0  0  0  0  0  0  0  0  0  0  0
  147.6735  131.4931  155.8221 H   0  0  0  0  0  0  0  0  0  0  0  0
  146.2518  134.0166  154.7922 H   0  0  0  0  0  0  0  0  0  0  0  0
  146.3525  133.4819  156.4566 H   0  0  0  0  0  0  0  0  0  0  0  0
  148.2852  134.7624  153.7024 H   0  0  0  0  0  0  0  0  0  0  0  0
  150.4855  134.8366  155.7595 H   0  0  0  0  0  0  0  0  0  0  0  0
  150.9558  134.6486  154.0790 H   0  0  0  0  0  0  0  0  0  0  0  0
  149.8597  136.6127  153.5090 H   0  0  0  0  0  0  0  0  0  0  0  0
  151.5536  136.8162  155.8557 H   0  0  0  0  0  0  0  0  0  0  0  0
  151.8545  137.3271  154.2052 H   0  0  0  0  0  0  0  0  0  0  0  0
  150.3084  139.2196  154.4170 H   0  0  0  0  0  0  0  0  0  0  0  0
  149.1426  139.4878  156.2988 H   0  0  0  0  0  0  0  0  0  0  0  0
  152.1774  138.9987  156.8443 H   0  0  0  0  0  0  0  0  0  0  0  0
  152.5591  139.6911  155.2914 H   0  0  0  0  0  0  0  0  0  0  0  0
  150.0208  141.6280  154.8415 H   0  0  0  0  0  0  0  0  0  0  0  0
  150.8798  144.4548  158.9385 H   0  0  0  0  0  0  0  0  0  0  0  0
  153.4728  144.0601  161.2381 H   0  0  0  0  0  0  0  0  0  0  0  0
  152.0480  143.3636  162.0252 H   0  0  0  0  0  0  0  0  0  0  0  0
  151.8931  144.8126  161.0351 H   0  0  0  0  0  0  0  0  0  0  0  0
  154.0021  140.1633  160.7096 H   0  0  0  0  0  0  0  0  0  0  0  0
  153.0936  141.1331  161.8656 H   0  0  0  0  0  0  0  0  0  0  0  0
  154.5132  141.8132  161.0561 H   0  0  0  0  0  0  0  0  0  0  0  0
  152.9890  139.8954  158.6100 H   0  0  0  0  0  0  0  0  0  0  0  0
  149.8007  132.2813  154.6840 H   0  0  0  0  0  0  0  0  0  0  0  0
  149.7384  132.8115  153.0276 H   0  0  0  0  0  0  0  0  0  0  0  0
  149.1336  136.7495  154.9743 H   0  0  0  0  0  0  0  0  0  0  0  0
  148.2165  131.0249  153.6903 H   0  0  0  0  0  0  0  0  0  0  0  0
  149.8379  143.6749  156.3783 H   0  0  0  0  0  0  0  0  0  0  0  0
  1  2  1  0  0  0  0
  1 26  1  0  0  0  0
  1 27  1  0  0  0  0
  1 28  1  0  0  0  0
  2  3  1  0  0  0  0
  2 29  1  0  0  0  0
  2 30  1  0  0  0  0
  3 25  1  0  0  0  0
  3  4  1  0  0  0  0
  3 57  1  0  0  0  0
  4  5  1  0  0  0  0
  4 31  1  0  0  0  0
  4 32  1  0  0  0  0
  5  6  1  0  0  0  0
  5 33  1  0  0  0  0
  5 34  1  0  0  0  0
  6  7  1  0  0  0  0
  7  8  1  0  0  0  0
  7 25  1  0  0  0  0
  7 35  1  0  0  0  0
  8  9  1  0  0  0  0
  8 36  1  0  0  0  0
  8 37  1  0  0  0  0
  9 10  1  0  0  0  0
  9 38  1  0  0  0  0
  9 56  1  0  0  0  0
 10 11  1  0  0  0  0
 10 39  1  0  0  0  0
 10 40  1  0  0  0  0
 11 12  1  0  0  0  0
 11 13  1  0  0  0  0
 11 41  1  0  0  0  0
 12 42  1  0  0  0  0
 13 14  1  0  0  0  0
 13 43  1  0  0  0  0
 13 44  1  0  0  0  0
 14 24  1  0  0  0  0
 14 15  1  0  0  0  0
 15 16  2  0  0  0  0
 15 45  1  0  0  0  0
 16 17  1  0  0  0  0
 16 58  1  0  0  0  0
 17 24  2  0  0  0  0
 17 18  1  0  0  0  0
 18 19  2  0  0  0  0
 18 46  1  0  0  0  0
 19 20  1  0  0  0  0
 19 21  1  0  0  0  0
 20 47  1  0  0  0  0
 20 48  1  0  0  0  0
 20 49  1  0  0  0  0
 21 22  1  0  0  0  0
 21 23  2  0  0  0  0
 22 50  1  0  0  0  0
 22 51  1  0  0  0  0
 22 52  1  0  0  0  0
 23 24  1  0  0  0  0
 23 53  1  0  0  0  0
 25 54  1  0  0  0  0
 25 55  1  0  0  0  0
M  CHG  1   3   1
M  CHG  1   9   1
M  CHG  1  16   1
M  END
> <s_m_source_file>
AV-unprocessed.smi

> <i_m_source_file_index>
1047

> <i_lp_mmshare_version>
43012

> <i_f3d_flags>
0

> <s_epik_input>
W0NIM11bQ0gyXU4xW0NIMl1bQ0gyXU9bQ0BIXShbQ0gyXTEpW0NIMl1bTkhdW0NIMl1bQ0BIXShbT0hdKVtDSDJdbihbY0hdbjIpYyhjMjMpW2NIXWMoW0NIM10pYyhbY0hdMylbQ0gzXQ==

> <s_epik_cmdline>
J2VwaWtfcHl0aG9uJywgJy1waCcsICc3LjAnLCAnLXRuJywgJzgnLCAnLW1hJywgJzIwMCcsICctbWV0YWxfYmluZGluZycsICctaW1hZScsICc8aW5maWxlLm1hZT4nLCAnLW9tYWUnLCAnPG91dGZpbGUubWFlPic=

> <r_epik_Ionization_Penalty>
1.6114

> <r_epik_Ionization_Penalty_Charging>
1.61139

> <r_epik_Ionization_Penalty_Neutral>
5.04732e-06

> <r_epik_State_Penalty>
1.63724

> <r_epik_Charging_Adjusted_Penalty>
3.24864

> <i_epik_Tot_Q>
3

> <i_epik_Tot_abs_Q>
3

> <r_epik_Metal_State_Penalty>
5.64594

> <b_epik_Metal_Only>
0

> <s_lp_Force_Field>
OPLS_2005

> <r_lp_Energy>
39.6477

> <b_lp_Chiralities_Consistent>
1

> <s_lp_Variant>
AV-unprocessed.smi:1047-26

> <Gold.Version>
5.8.1

> <Gold.Id.Protein>
6NUR|6NUR_protein|mol2

> <Gold.PLP.Fitness>
59.1538

> <Gold.PLP.PLP>
-48.7597

> <Gold.PLP.part.hbond>
-2.2355

> <Gold.PLP.part.metal>
0.0000

> <Gold.PLP.part.buried>
-6.3414

> <Gold.PLP.part.nonpolar>
-40.5827

> <Gold.PLP.part.repulsive>
0.1267

> <Gold.PLP.ligand.clash>
0.0000

> <Gold.PLP.ligand.torsion>
0.9045

> <Gold.PLP.Chemscore.Hbond>
4.0000

> <Gold.PLP.Chemscore.CHOScore>
0.0000

> <Gold.PLP.Chemscore.Metal>
0.0000

> <Gold.Chemscore.Hbonds>
donor molecule, donor type, donor heavy atom, donor atom, acceptor molecule, acceptor atom, score
      L1  H     9    38       P1  7948  2.00
      L1  H    16    58       P1  8028  2.00

> <Gold.PLP.Chemscore.Internal.Correction>
0.2031

> <Gold.Rescore>
     Score         DG    S(hbond)    S(metal)    S(lipo)     H(rot)  DE(clash)    DE(int)     intcor
     18.55     -19.32       1.73        0.00     129.73       2.78       0.02       0.75       ----

> <Gold.Chemscore.Fitness>
18.5539

> <Gold.Chemscore.DG>
-19.3203

> <Gold.Chemscore.ZeroCoef>
-5.4800

> <Gold.Chemscore.Hbond>
1.7338

> <Gold.Chemscore.Metal>
0.0000

> <Gold.Chemscore.Lipo>
129.7299

> <Gold.Chemscore.Internal_Hbond>
0.0000

> <Gold.Chemscore.DEClash>
0.0178

> <Gold.Chemscore.DEInternal>
0.7487

> <Gold.Chemscore.Rot>
2.7848

> <Gold.Chemscore.Internal.Correction>
   9.000000E+99

> <Gold.Chemscore.Hbonds>
donor molecule, donor type, donor heavy atom, donor atom, acceptor molecule, acceptor atom, score
      L1  H     9    38       P1  7948  0.29
      L1  H    16    58       P1  8028  0.97

> <Gold.Chemscore.Hbond.Weighted>
-5.7910

> <Gold.Chemscore.Metal.Weighted>
-0.0000

> <Gold.Chemscore.Lipo.Weighted>
-15.1784

> <Gold.Chemscore.Internal_Hbond.Weighted>
0.0000

> <Gold.Chemscore.DEClash.Weighted>
0.0178

> <Gold.Chemscore.DEInternal.Weighted>
0.7487

> <Gold.Chemscore.Rot.Weighted>
7.1291

> <Gold.Chemscore.Internal.Correction.Weighted>
   9.000000E+99

> <Gold.Protein.RotatedTorsions>
[ 6907 6896 6895 6894 ] final -121.67 input  -60.11 | X-H torsion
[ 7974 7965 7964 7962 ] final -109.85 input  175.53 | X-H torsion
[ 8008 7997 7996 7995 ] final   34.22 input   59.86 | X-H torsion
[ 10167 10162 10161 10158 ] final -136.26 input  -65.29 | X-H torsion
[ 10718 10713 10712 10709 ] final  -45.05 input   66.30 | X-H torsion
[ 10763 10752 10751 10750 ] final  169.64 input  -60.55 | X-H torsion
[ 11005 11000 10999 10996 ] final -174.18 input  -57.11 | X-H torsion

> <Gold.Protein.ActiveResidues>
 VAL166  LYS551  ARG553  GLY616  TRP617  ASP618  TYR619  PRO620  LYS621  CYS622 
 ASP623  PHE694  ASN695  SER759  ASP760  ASP761  ALA762  ILE779  LEU786  VAL792 
 PHE793  MET794  SER795  GLU796  ALA797  LYS798  CYS799  TRP800  GLU811  SER814 

> <Gold.Protein.RotatedAtoms>
  150.8505  133.7794  159.3027 H   0  0  0  0  0  0  0  0  0  0  0  0  # atno 6907 bound_to 6896
  151.5468  135.1066  159.9949 H   0  0  0  0  0  0  0  0  0  0  0  0  # atno 6908 bound_to 6896
  152.4549  133.7659  159.6828 H   0  0  0  0  0  0  0  0  0  0  0  0  # atno 6909 bound_to 6896
  145.1754  140.8946  143.3511 H   0  0  0  0  0  0  0  0  0  0  0  0  # atno 7974 bound_to 7965
  155.1513  140.3275  155.4430 H   0  0  0  0  0  0  0  0  0  0  0  0  # atno 8008 bound_to 7997
  156.2573  140.1976  156.6575 H   0  0  0  0  0  0  0  0  0  0  0  0  # atno 8009 bound_to 7997
  154.6471  140.0563  156.9899 H   0  0  0  0  0  0  0  0  0  0  0  0  # atno 8010 bound_to 7997
  139.8696  143.6974  152.2641 H   0  0  0  0  0  0  0  0  0  0  0  0  # atno 10167 bound_to 10162
  156.2323  130.4173  149.8860 H   0  0  0  0  0  0  0  0  0  0  0  0  # atno 10718 bound_to 10713
  154.3861  135.2753  155.2182 H   0  0  0  0  0  0  0  0  0  0  0  0  # atno 10763 bound_to 10752
  154.4268  135.5987  153.6047 H   0  0  0  0  0  0  0  0  0  0  0  0  # atno 10764 bound_to 10752
  152.9833  135.5986  154.4110 H   0  0  0  0  0  0  0  0  0  0  0  0  # atno 10765 bound_to 10752
  140.4775  134.6107  157.4906 H   0  0  0  0  0  0  0  0  0  0  0  0  # atno 11005 bound_to 11000
  145.0190  139.3441  143.6082 LP  0  0  0  0  0  0  0  0  0  0  0  0  # atno 17320 bound_to 7965
  146.3462  139.9483  142.8732 LP  0  0  0  0  0  0  0  0  0  0  0  0  # atno 17321 bound_to 7965
  139.7296  144.7585  151.0823 LP  0  0  0  0  0  0  0  0  0  0  0  0  # atno 17342 bound_to 10162
  140.7763  143.5104  150.9659 LP  0  0  0  0  0  0  0  0  0  0  0  0  # atno 17343 bound_to 10162
  156.6470  130.8728  151.3524 LP  0  0  0  0  0  0  0  0  0  0  0  0  # atno 17370 bound_to 10713
  157.7138  130.9472  150.1183 LP  0  0  0  0  0  0  0  0  0  0  0  0  # atno 17371 bound_to 10713
  139.9847  134.7080  155.9795 LP  0  0  0  0  0  0  0  0  0  0  0  0  # atno 17394 bound_to 11000
  141.1547  133.6544  156.4125 LP  0  0  0  0  0  0  0  0  0  0  0  0  # atno 17395 bound_to 11000

$$$$
