AV-unprocessed.smi:2497|AV-procd|sdf|9829|dock2
  -GOLD-   2272013463D 1   1.00000     0.00000
 Structure written by MMmdl.
 47 48  0  0  0  0  0  0  0  0  1 V2000
  152.2313  143.3924  158.7723 C   0  0  0  0  0  0  0  0  0  0  0  0
  151.9942  141.8834  158.9537 C   0  0  0  0  0  0  0  0  0  0  0  0
  153.2558  141.2084  159.5131 C   0  0  0  0  0  0  0  0  0  0  0  0
  151.5448  141.1992  157.6473 C   0  0  0  0  0  0  0  0  0  0  0  0
  150.1130  141.5562  157.2122 C   0  0  0  0  0  0  0  0  0  0  0  0
  149.7220  140.8180  156.0277 N   0  0  0  0  0  0  0  0  0  0  0  0
  149.1833  141.3022  154.8529 C   0  0  0  0  0  0  0  0  0  0  0  0
  148.9627  140.2332  154.0317 C   0  0  0  0  0  0  0  0  0  0  0  0
  149.4010  139.1243  154.8161 C   0  0  0  0  0  0  0  0  0  0  0  0
  149.3964  137.7648  154.4130 N   0  0  0  0  0  0  0  0  0  0  0  0
  149.5246  136.6701  155.1808 C   0  0  0  0  0  0  0  0  0  0  0  0
  149.6977  136.6772  156.3991 O   0  0  0  0  0  0  0  0  0  0  0  0
  149.4509  135.5535  154.4366 N   0  0  0  0  0  0  0  0  0  0  0  0
  149.5494  134.1526  154.8734 C   0  0  0  0  0  0  0  0  0  0  0  0
  150.8385  133.9538  155.6992 C   0  0  0  0  0  0  0  0  0  0  0  0
  148.3051  133.7099  155.6820 C   0  0  0  0  0  0  0  0  0  0  0  0
  147.0328  133.6909  154.8164 C   0  0  0  0  0  0  0  0  0  0  0  0
  147.2223  132.8283  153.7011 O   0  0  0  0  0  0  0  0  0  0  0  0
  148.2743  133.2550  152.8438 C   0  0  0  0  0  0  0  0  0  0  0  0
  149.6113  133.2672  153.6097 C   0  0  0  0  0  0  0  0  0  0  0  0
  149.8649  139.4755  156.0026 N   0  0  0  0  0  0  0  0  0  0  0  0
  152.9924  143.5857  158.0156 H   0  0  0  0  0  0  0  0  0  0  0  0
  152.5673  143.8500  159.7032 H   0  0  0  0  0  0  0  0  0  0  0  0
  151.3219  143.9115  158.4710 H   0  0  0  0  0  0  0  0  0  0  0  0
  151.2034  141.7535  159.6936 H   0  0  0  0  0  0  0  0  0  0  0  0
  154.0915  141.2922  158.8174 H   0  0  0  0  0  0  0  0  0  0  0  0
  153.0849  140.1484  159.7023 H   0  0  0  0  0  0  0  0  0  0  0  0
  153.5610  141.6638  160.4557 H   0  0  0  0  0  0  0  0  0  0  0  0
  152.2470  141.4414  156.8480 H   0  0  0  0  0  0  0  0  0  0  0  0
  151.5997  140.1173  157.7774 H   0  0  0  0  0  0  0  0  0  0  0  0
  149.4051  141.3301  158.0104 H   0  0  0  0  0  0  0  0  0  0  0  0
  150.0206  142.6212  156.9983 H   0  0  0  0  0  0  0  0  0  0  0  0
  149.0029  142.3562  154.7011 H   0  0  0  0  0  0  0  0  0  0  0  0
  148.5542  140.2569  153.0326 H   0  0  0  0  0  0  0  0  0  0  0  0
  149.3173  137.6101  153.4188 H   0  0  0  0  0  0  0  0  0  0  0  0
  149.3095  135.6846  153.4457 H   0  0  0  0  0  0  0  0  0  0  0  0
  150.9870  132.9037  155.9530 H   0  0  0  0  0  0  0  0  0  0  0  0
  150.8122  134.5073  156.6379 H   0  0  0  0  0  0  0  0  0  0  0  0
  151.7186  134.2831  155.1456 H   0  0  0  0  0  0  0  0  0  0  0  0
  148.4695  132.7043  156.0714 H   0  0  0  0  0  0  0  0  0  0  0  0
  148.1510  134.3397  156.5577 H   0  0  0  0  0  0  0  0  0  0  0  0
  146.1895  133.3246  155.4019 H   0  0  0  0  0  0  0  0  0  0  0  0
  146.7693  134.6938  154.4776 H   0  0  0  0  0  0  0  0  0  0  0  0
  148.3352  132.5681  151.9995 H   0  0  0  0  0  0  0  0  0  0  0  0
  148.0451  134.2391  152.4322 H   0  0  0  0  0  0  0  0  0  0  0  0
  150.4148  133.5972  152.9498 H   0  0  0  0  0  0  0  0  0  0  0  0
  149.8546  132.2419  153.8928 H   0  0  0  0  0  0  0  0  0  0  0  0
  1  2  1  0  0  0  0
  1 22  1  0  0  0  0
  1 23  1  0  0  0  0
  1 24  1  0  0  0  0
  2  3  1  0  0  0  0
  2  4  1  0  0  0  0
  2 25  1  0  0  0  0
  3 26  1  0  0  0  0
  3 27  1  0  0  0  0
  3 28  1  0  0  0  0
  4  5  1  0  0  0  0
  4 29  1  0  0  0  0
  4 30  1  0  0  0  0
  5  6  1  0  0  0  0
  5 31  1  0  0  0  0
  5 32  1  0  0  0  0
  6 21  1  0  0  0  0
  6  7  1  0  0  0  0
  7  8  2  0  0  0  0
  7 33  1  0  0  0  0
  8  9  1  0  0  0  0
  8 34  1  0  0  0  0
  9 10  1  0  0  0  0
  9 21  2  0  0  0  0
 10 11  1  0  0  0  0
 10 35  1  0  0  0  0
 11 12  2  0  0  0  0
 11 13  1  0  0  0  0
 13 14  1  0  0  0  0
 13 36  1  0  0  0  0
 14 20  1  0  0  0  0
 14 15  1  0  0  0  0
 14 16  1  0  0  0  0
 15 37  1  0  0  0  0
 15 38  1  0  0  0  0
 15 39  1  0  0  0  0
 16 17  1  0  0  0  0
 16 40  1  0  0  0  0
 16 41  1  0  0  0  0
 17 18  1  0  0  0  0
 17 42  1  0  0  0  0
 17 43  1  0  0  0  0
 18 19  1  0  0  0  0
 19 20  1  0  0  0  0
 19 44  1  0  0  0  0
 19 45  1  0  0  0  0
 20 46  1  0  0  0  0
 20 47  1  0  0  0  0
M  END
> <s_m_source_file>
AV-unprocessed.smi

> <i_m_source_file_index>
2497

> <i_lp_mmshare_version>
43012

> <i_f3d_flags>
0

> <s_epik_input>
W0NIM11bQ0hdKFtDSDNdKVtDSDJdW0NIMl1uMVtjSF1bY0hdYyhuMSlbTkhdQyg9TylbTkhdQzIoW0NIM10pW0NIMl1bQ0gyXU9bQ0gyXVtDSDJdMg==

> <s_epik_cmdline>
J2VwaWtfcHl0aG9uJywgJy1waCcsICc3LjAnLCAnLXRuJywgJzgnLCAnLW1hJywgJzIwMCcsICctbWV0YWxfYmluZGluZycsICctaW1hZScsICc8aW5maWxlLm1hZT4nLCAnLW9tYWUnLCAnPG91dGZpbGUubWFlPic=

> <r_lp_tautomer_probability>
1

> <r_epik_Ionization_Penalty>
3.57775e-05

> <r_epik_Ionization_Penalty_Charging>
0

> <r_epik_Ionization_Penalty_Neutral>
3.57775e-05

> <r_epik_State_Penalty>
-0

> <r_epik_Charging_Adjusted_Penalty>
0

> <i_epik_Tot_Q>
0

> <i_epik_Tot_abs_Q>
0

> <r_epik_Metal_State_Penalty>
-0

> <b_epik_Metal_Only>
0

> <s_lp_Force_Field>
OPLS_2005

> <r_lp_Energy>
13.1227

> <b_lp_Chiralities_Consistent>
1

> <s_lp_Variant>
AV-unprocessed.smi:2497-1

> <Gold.Version>
5.8.1

> <Gold.Id.Protein>
6NUR|6NUR_protein|mol2

> <Gold.PLP.Fitness>
41.8609

> <Gold.PLP.PLP>
-34.1288

> <Gold.PLP.part.hbond>
-2.0000

> <Gold.PLP.part.metal>
0.0000

> <Gold.PLP.part.buried>
-1.7693

> <Gold.PLP.part.nonpolar>
-30.5107

> <Gold.PLP.part.repulsive>
0.1322

> <Gold.PLP.ligand.clash>
0.0000

> <Gold.PLP.ligand.torsion>
0.3277

> <Gold.PLP.Chemscore.Hbond>
1.8060

> <Gold.PLP.Chemscore.CHOScore>
0.9613

> <Gold.PLP.Chemscore.Metal>
0.0000

> <Gold.Chemscore.Hbonds>
donor molecule, donor type, donor heavy atom, donor atom, acceptor molecule, acceptor atom, score
      L1  H    10    35       P1  7948  0.83
      L1  H    13    36       P1  7948  1.00
      L1  C     7    33       P1  8028  0.98

> <Gold.PLP.Chemscore.Internal.Correction>
0.0855

> <Gold.Rescore>
     Score         DG    S(hbond)    S(metal)    S(lipo)     H(rot)  DE(clash)    DE(int)     intcor
     15.09     -16.73       1.67        0.00      80.56       1.47       0.05       1.59       ----

> <Gold.Chemscore.Fitness>
15.0863

> <Gold.Chemscore.DG>
-16.7290

> <Gold.Chemscore.ZeroCoef>
-5.4800

> <Gold.Chemscore.Hbond>
1.6724

> <Gold.Chemscore.Metal>
0.0000

> <Gold.Chemscore.Lipo>
80.5621

> <Gold.Chemscore.Internal_Hbond>
0.0000

> <Gold.Chemscore.DEClash>
0.0485

> <Gold.Chemscore.DEInternal>
1.5941

> <Gold.Chemscore.Rot>
1.4698

> <Gold.Chemscore.Internal.Correction>
   9.000000E+99

> <Gold.Chemscore.Hbonds>
donor molecule, donor type, donor heavy atom, donor atom, acceptor molecule, acceptor atom, score
      L1  H    10    35       P1  7948  0.76
      L1  H    13    36       P1  7948  0.45

> <Gold.Chemscore.Hbond.Weighted>
-5.5859

> <Gold.Chemscore.Metal.Weighted>
-0.0000

> <Gold.Chemscore.Lipo.Weighted>
-9.4258

> <Gold.Chemscore.Internal_Hbond.Weighted>
0.0000

> <Gold.Chemscore.DEClash.Weighted>
0.0485

> <Gold.Chemscore.DEInternal.Weighted>
1.5941

> <Gold.Chemscore.Rot.Weighted>
3.7628

> <Gold.Chemscore.Internal.Correction.Weighted>
   9.000000E+99

> <Gold.Protein.RotatedTorsions>
[ 6907 6896 6895 6894 ] final  -63.62 input  -60.11 | X-H torsion
[ 7974 7965 7964 7962 ] final   84.46 input  175.53 | X-H torsion
[ 8008 7997 7996 7995 ] final  170.32 input   59.86 | X-H torsion
[ 10167 10162 10161 10158 ] final  -32.47 input  -65.29 | X-H torsion
[ 10718 10713 10712 10709 ] final   26.11 input   66.30 | X-H torsion
[ 10763 10752 10751 10750 ] final   28.53 input  -60.55 | X-H torsion
[ 11005 11000 10999 10996 ] final  -22.10 input  -57.11 | X-H torsion

> <Gold.Protein.ActiveResidues>
 VAL166  LYS551  ARG553  GLY616  TRP617  ASP618  TYR619  PRO620  LYS621  CYS622 
 ASP623  PHE694  ASN695  SER759  ASP760  ASP761  ALA762  ILE779  LEU786  VAL792 
 PHE793  MET794  SER795  GLU796  ALA797  LYS798  CYS799  TRP800  GLU811  SER814 

> <Gold.Protein.RotatedAtoms>
  150.7637  134.6410  159.6236 H   0  0  0  0  0  0  0  0  0  0  0  0  # atno 6907 bound_to 6896
  152.3658  134.6802  160.0201 H   0  0  0  0  0  0  0  0  0  0  0  0  # atno 6908 bound_to 6896
  151.7178  133.3277  159.3344 H   0  0  0  0  0  0  0  0  0  0  0  0  # atno 6909 bound_to 6896
  145.5984  139.2348  143.2259 H   0  0  0  0  0  0  0  0  0  0  0  0  # atno 7974 bound_to 7965
  156.1376  140.1541  156.8970 H   0  0  0  0  0  0  0  0  0  0  0  0  # atno 8008 bound_to 7997
  154.4960  140.0838  156.7736 H   0  0  0  0  0  0  0  0  0  0  0  0  # atno 8009 bound_to 7997
  155.4139  140.3420  155.4268 H   0  0  0  0  0  0  0  0  0  0  0  0  # atno 8010 bound_to 7997
  140.7220  143.3692  151.1811 H   0  0  0  0  0  0  0  0  0  0  0  0  # atno 10167 bound_to 10162
  157.2024  130.6896  149.6194 H   0  0  0  0  0  0  0  0  0  0  0  0  # atno 10718 bound_to 10713
  153.0486  135.6511  154.0751 H   0  0  0  0  0  0  0  0  0  0  0  0  # atno 10763 bound_to 10752
  154.0444  135.2901  155.3351 H   0  0  0  0  0  0  0  0  0  0  0  0  # atno 10764 bound_to 10752
  154.6760  135.5338  153.8267 H   0  0  0  0  0  0  0  0  0  0  0  0  # atno 10765 bound_to 10752
  140.8625  133.7778  156.0091 H   0  0  0  0  0  0  0  0  0  0  0  0  # atno 11005 bound_to 11000
  146.1594  140.6810  142.9284 LP  0  0  0  0  0  0  0  0  0  0  0  0  # atno 17320 bound_to 7965
  144.7320  140.4700  143.6931 LP  0  0  0  0  0  0  0  0  0  0  0  0  # atno 17321 bound_to 7965
  139.7260  143.9148  152.3002 LP  0  0  0  0  0  0  0  0  0  0  0  0  # atno 17342 bound_to 10162
  139.8921  144.6959  150.8759 LP  0  0  0  0  0  0  0  0  0  0  0  0  # atno 17343 bound_to 10162
  155.9699  130.4578  150.5976 LP  0  0  0  0  0  0  0  0  0  0  0  0  # atno 17370 bound_to 10713
  157.3753  131.0772  151.1523 LP  0  0  0  0  0  0  0  0  0  0  0  0  # atno 17371 bound_to 10713
  140.8667  134.2776  157.5210 LP  0  0  0  0  0  0  0  0  0  0  0  0  # atno 17394 bound_to 11000
  139.8707  134.9546  156.4180 LP  0  0  0  0  0  0  0  0  0  0  0  0  # atno 17395 bound_to 11000

$$$$
