AV-unprocessed.smi:1301|AV-procd|sdf|5423|dock9
  -GOLD-   22720 4583D 1   1.00000     0.00000
 Structure written by MMmdl.
 44 45  0  0  0  0  0  0  0  0  3 V2000
  151.5643  140.3549  158.1926 C   0  0  0  0  0  0  0  0  0  0  0  0
  150.9359  140.5701  156.8581 C   0  0  0  0  0  0  0  0  0  0  0  0
  149.9802  141.4389  156.4133 C   0  0  0  0  0  0  0  0  0  0  0  0
  149.8574  141.1095  155.0359 C   0  0  0  0  0  0  0  0  0  0  0  0
  149.0207  141.6874  154.1602 N   0  5  0  0  0  0  0  0  0  0  0  0
  147.8411  141.0998  153.8565 C   0  0  0  0  0  0  0  0  0  0  0  0
  146.7315  141.6380  153.8620 O   0  0  0  0  0  0  0  0  0  0  0  0
  147.9554  139.8059  153.5245 N   0  0  0  0  0  0  0  0  0  0  0  0
  146.8601  138.9164  153.1507 C   0  0  2  0  0  0  0  0  0  0  0  0
  147.0300  137.5613  153.8543 C   0  0  0  0  0  0  0  0  0  0  0  0
  145.9473  136.5649  153.4099 C   0  0  0  0  0  0  0  0  0  0  0  0
  145.9527  136.3874  151.9349 N   0  3  1  0  0  0  0  0  0  0  0  0
  145.0156  135.3216  151.4947 C   0  0  0  0  0  0  0  0  0  0  0  0
  145.4561  133.9058  151.9272 C   0  0  0  0  0  0  0  0  0  0  0  0
  146.8181  133.5540  151.3107 C   0  0  0  0  0  0  0  0  0  0  0  0
  144.4100  132.8402  151.5585 C   0  0  0  0  0  0  0  0  0  0  0  0
  145.7472  137.6818  151.2324 C   0  0  0  0  0  0  0  0  0  0  0  0
  146.8252  138.7039  151.6266 C   0  0  0  0  0  0  0  0  0  0  0  0
  150.6563  140.1173  154.6797 N   0  0  0  0  0  0  0  0  0  0  0  0
  151.3569  139.7704  155.8411 O   0  0  0  0  0  0  0  0  0  0  0  0
  150.8035  140.1755  158.9522 H   0  0  0  0  0  0  0  0  0  0  0  0
  152.1410  141.2301  158.4917 H   0  0  0  0  0  0  0  0  0  0  0  0
  152.2362  139.4963  158.1785 H   0  0  0  0  0  0  0  0  0  0  0  0
  149.4541  142.1921  156.9805 H   0  0  0  0  0  0  0  0  0  0  0  0
  148.8838  139.4095  153.5349 H   0  0  0  0  0  0  0  0  0  0  0  0
  145.9135  139.3538  153.4741 H   0  0  0  0  0  0  0  0  0  0  0  0
  148.0151  137.1476  153.6320 H   0  0  0  0  0  0  0  0  0  0  0  0
  146.9875  137.6939  154.9361 H   0  0  0  0  0  0  0  0  0  0  0  0
  146.1268  135.6065  153.8982 H   0  0  0  0  0  0  0  0  0  0  0  0
  144.9631  136.9075  153.7335 H   0  0  0  0  0  0  0  0  0  0  0  0
  144.0264  135.5103  151.9144 H   0  0  0  0  0  0  0  0  0  0  0  0
  144.8986  135.3747  150.4110 H   0  0  0  0  0  0  0  0  0  0  0  0
  145.5889  133.8846  153.0082 H   0  0  0  0  0  0  0  0  0  0  0  0
  146.7695  133.5379  150.2213 H   0  0  0  0  0  0  0  0  0  0  0  0
  147.1586  132.5726  151.6426 H   0  0  0  0  0  0  0  0  0  0  0  0
  147.5800  134.2789  151.5992 H   0  0  0  0  0  0  0  0  0  0  0  0
  144.2303  132.8149  150.4831 H   0  0  0  0  0  0  0  0  0  0  0  0
  143.4562  133.0283  152.0517 H   0  0  0  0  0  0  0  0  0  0  0  0
  144.7405  131.8462  151.8618 H   0  0  0  0  0  0  0  0  0  0  0  0
  145.7785  137.5403  150.1530 H   0  0  0  0  0  0  0  0  0  0  0  0
  144.7569  138.0741  151.4695 H   0  0  0  0  0  0  0  0  0  0  0  0
  146.6354  139.6498  151.1179 H   0  0  0  0  0  0  0  0  0  0  0  0
  147.7994  138.3568  151.2782 H   0  0  0  0  0  0  0  0  0  0  0  0
  146.8804  136.0669  151.6962 H   0  0  0  0  0  0  0  0  0  0  0  0
  1  2  1  0  0  0  0
  1 21  1  0  0  0  0
  1 22  1  0  0  0  0
  1 23  1  0  0  0  0
  2 20  1  0  0  0  0
  2  3  2  0  0  0  0
  3  4  1  0  0  0  0
  3 24  1  0  0  0  0
  4  5  1  0  0  0  0
  4 19  2  0  0  0  0
  5  6  1  0  0  0  0
  6  7  2  0  0  0  0
  6  8  1  0  0  0  0
  8  9  1  0  0  0  0
  8 25  1  0  0  0  0
  9 18  1  0  0  0  0
  9 10  1  0  0  0  0
  9 26  1  0  0  0  0
 10 11  1  0  0  0  0
 10 27  1  0  0  0  0
 10 28  1  0  0  0  0
 11 12  1  0  0  0  0
 11 29  1  0  0  0  0
 11 30  1  0  0  0  0
 12 13  1  0  0  0  0
 12 17  1  0  0  0  0
 12 44  1  0  0  0  0
 13 14  1  0  0  0  0
 13 31  1  0  0  0  0
 13 32  1  0  0  0  0
 14 15  1  0  0  0  0
 14 16  1  0  0  0  0
 14 33  1  0  0  0  0
 15 34  1  0  0  0  0
 15 35  1  0  0  0  0
 15 36  1  0  0  0  0
 16 37  1  0  0  0  0
 16 38  1  0  0  0  0
 16 39  1  0  0  0  0
 17 18  1  0  0  0  0
 17 40  1  0  0  0  0
 17 41  1  0  0  0  0
 18 42  1  0  0  0  0
 18 43  1  0  0  0  0
 19 20  1  0  0  0  0
M  CHG  1   5  -1
M  CHG  1  12   1
M  END
> <s_m_source_file>
AV-unprocessed.smi

> <i_m_source_file_index>
1301

> <i_lp_mmshare_version>
43012

> <i_f3d_flags>
0

> <s_epik_input>
W0NIM11jMVtjSF1jKG5vMSlbTkhdQyg9TylbTkhdW0NIXTJbQ0gyXVtDSDJdTihbQ0gyXVtDSDJdMilbQ0gyXVtDSF0oW0NIM10pW0NIM10=

> <s_epik_cmdline>
J2VwaWtfcHl0aG9uJywgJy1waCcsICc3LjAnLCAnLXRuJywgJzgnLCAnLW1hJywgJzIwMCcsICctbWV0YWxfYmluZGluZycsICctaW1hZScsICc8aW5maWxlLm1hZT4nLCAnLW9tYWUnLCAnPG91dGZpbGUubWFlPic=

> <r_epik_Ionization_Penalty>
6.28597

> <r_epik_Ionization_Penalty_Charging>
6.28587

> <r_epik_Ionization_Penalty_Neutral>
9.69304e-05

> <r_epik_State_Penalty>
6.28524

> <r_epik_Charging_Adjusted_Penalty>
12.5711

> <i_epik_Tot_Q>
0

> <i_epik_Tot_abs_Q>
2

> <r_epik_Metal_State_Penalty>
2.21973

> <b_epik_Metal_Only>
1

> <s_lp_Force_Field>
OPLS_2005

> <r_lp_Energy>
7.73982

> <b_lp_Chiralities_Consistent>
1

> <s_lp_Variant>
AV-unprocessed.smi:1301-3

> <Gold.Version>
5.8.1

> <Gold.Id.Protein>
6NUR|6NUR_protein|mol2

> <Gold.PLP.Fitness>
40.6211

> <Gold.PLP.PLP>
-32.9191

> <Gold.PLP.part.hbond>
-4.2760

> <Gold.PLP.part.metal>
0.0000

> <Gold.PLP.part.buried>
0.7558

> <Gold.PLP.part.nonpolar>
-30.4052

> <Gold.PLP.part.repulsive>
0.5667

> <Gold.PLP.ligand.clash>
0.0000

> <Gold.PLP.ligand.torsion>
1.4703

> <Gold.PLP.Chemscore.Hbond>
3.5304

> <Gold.PLP.Chemscore.CHOScore>
0.0000

> <Gold.PLP.Chemscore.Metal>
0.0000

> <Gold.Chemscore.Hbonds>
donor molecule, donor type, donor heavy atom, donor atom, acceptor molecule, acceptor atom, score
      L1  H    12    44       P1  7948  1.89
      P1  H  7989  7998       L1    19  1.00
      P1  H  8011  8017       L1     5  0.45

> <Gold.PLP.Chemscore.Internal.Correction>
0.0515

> <Gold.Rescore>
     Score         DG    S(hbond)    S(metal)    S(lipo)     H(rot)  DE(clash)    DE(int)     intcor
     13.82     -17.01       2.17        0.00      67.29       1.41       1.59       1.60       ----

> <Gold.Chemscore.Fitness>
13.8155

> <Gold.Chemscore.DG>
-17.0123

> <Gold.Chemscore.ZeroCoef>
-5.4800

> <Gold.Chemscore.Hbond>
2.1736

> <Gold.Chemscore.Metal>
0.0000

> <Gold.Chemscore.Lipo>
67.2880

> <Gold.Chemscore.Internal_Hbond>
0.0000

> <Gold.Chemscore.DEClash>
1.5948

> <Gold.Chemscore.DEInternal>
1.6020

> <Gold.Chemscore.Rot>
1.4063

> <Gold.Chemscore.Internal.Correction>
   9.000000E+99

> <Gold.Chemscore.Hbonds>
donor molecule, donor type, donor heavy atom, donor atom, acceptor molecule, acceptor atom, score
      L1  H    12    44       P1  7948  0.87
      P1  H  7989  7998       L1    19  0.26
      P1  H  8011  8017       L1     5  0.24

> <Gold.Chemscore.Hbond.Weighted>
-7.2598

> <Gold.Chemscore.Metal.Weighted>
-0.0000

> <Gold.Chemscore.Lipo.Weighted>
-7.8727

> <Gold.Chemscore.Internal_Hbond.Weighted>
0.0000

> <Gold.Chemscore.DEClash.Weighted>
1.5948

> <Gold.Chemscore.DEInternal.Weighted>
1.6020

> <Gold.Chemscore.Rot.Weighted>
3.6002

> <Gold.Chemscore.Internal.Correction.Weighted>
   9.000000E+99

> <Gold.Protein.RotatedTorsions>
[ 6907 6896 6895 6894 ] final -162.82 input  -60.11 | X-H torsion
[ 7974 7965 7964 7962 ] final   -6.10 input  175.53 | X-H torsion
[ 8008 7997 7996 7995 ] final  -59.78 input   59.86 | X-H torsion
[ 10167 10162 10161 10158 ] final -115.55 input  -65.29 | X-H torsion
[ 10718 10713 10712 10709 ] final  132.65 input   66.30 | X-H torsion
[ 10763 10752 10751 10750 ] final  151.57 input  -60.55 | X-H torsion
[ 11005 11000 10999 10996 ] final  124.15 input  -57.11 | X-H torsion

> <Gold.Protein.ActiveResidues>
 VAL166  LYS551  ARG553  GLY616  TRP617  ASP618  TYR619  PRO620  LYS621  CYS622 
 ASP623  PHE694  ASN695  SER759  ASP760  ASP761  ALA762  ILE779  LEU786  VAL792 
 PHE793  MET794  SER795  GLU796  ALA797  LYS798  CYS799  TRP800  GLU811  SER814 

> <Gold.Protein.RotatedAtoms>
  151.3863  133.3804  159.2715 H   0  0  0  0  0  0  0  0  0  0  0  0  # atno 6907 bound_to 6896
  150.9539  134.8936  159.7699 H   0  0  0  0  0  0  0  0  0  0  0  0  # atno 6908 bound_to 6896
  152.5123  134.3820  159.9406 H   0  0  0  0  0  0  0  0  0  0  0  0  # atno 6909 bound_to 6896
  146.2338  140.2120  142.8335 H   0  0  0  0  0  0  0  0  0  0  0  0  # atno 7974 bound_to 7965
  154.4368  140.1054  156.6170 H   0  0  0  0  0  0  0  0  0  0  0  0  # atno 8008 bound_to 7997
  155.5748  140.3490  155.4506 H   0  0  0  0  0  0  0  0  0  0  0  0  # atno 8009 bound_to 7997
  156.0362  140.1272  157.0194 H   0  0  0  0  0  0  0  0  0  0  0  0  # atno 8010 bound_to 7997
  140.0889  143.4718  152.1882 H   0  0  0  0  0  0  0  0  0  0  0  0  # atno 10167 bound_to 10162
  157.4851  131.1088  150.9631 H   0  0  0  0  0  0  0  0  0  0  0  0  # atno 10718 bound_to 10713
  154.1060  135.2842  155.3241 H   0  0  0  0  0  0  0  0  0  0  0  0  # atno 10763 bound_to 10752
  154.6523  135.5364  153.7920 H   0  0  0  0  0  0  0  0  0  0  0  0  # atno 10764 bound_to 10752
  153.0362  135.6513  154.1221 H   0  0  0  0  0  0  0  0  0  0  0  0  # atno 10765 bound_to 10752
  139.9345  134.9640  156.8366 H   0  0  0  0  0  0  0  0  0  0  0  0  # atno 11005 bound_to 11000
  144.9699  140.8358  143.5462 LP  0  0  0  0  0  0  0  0  0  0  0  0  # atno 17320 bound_to 7965
  145.2100  139.2209  143.5148 LP  0  0  0  0  0  0  0  0  0  0  0  0  # atno 17321 bound_to 7965
  139.5736  144.7476  151.3824 LP  0  0  0  0  0  0  0  0  0  0  0  0  # atno 17342 bound_to 10162
  140.7039  143.7563  150.7449 LP  0  0  0  0  0  0  0  0  0  0  0  0  # atno 17343 bound_to 10162
  157.0352  130.5727  149.5348 LP  0  0  0  0  0  0  0  0  0  0  0  0  # atno 17370 bound_to 10713
  156.0142  130.5235  150.8083 LP  0  0  0  0  0  0  0  0  0  0  0  0  # atno 17371 bound_to 10713
  140.6112  134.0081  155.7577 LP  0  0  0  0  0  0  0  0  0  0  0  0  # atno 17394 bound_to 11000
  141.0952  133.9855  157.3172 LP  0  0  0  0  0  0  0  0  0  0  0  0  # atno 17395 bound_to 11000

$$$$
