AV-unprocessed.smi:55|AV-procd|sdf|571|dock10
  -GOLD-   2262016473D 1   1.00000     0.00000
 Structure written by MMmdl.
 30 31  0  0  0  0  0  0  0  0  2 V2000
  150.6453  142.8303  158.8938 C   0  0  0  0  0  0  0  0  0  0  0  0
  150.9206  141.8873  157.7356 C   0  0  0  0  0  0  0  0  0  0  0  0
  150.1306  141.8410  156.6397 C   0  0  0  0  0  0  0  0  0  0  0  0
  150.3882  140.9813  155.5866 N   0  0  0  0  0  0  0  0  0  0  0  0
  149.4999  140.9714  154.3658 C   0  0  2  0  0  0  0  0  0  0  0  0
  148.2722  141.8488  154.5747 C   0  0  0  0  0  0  0  0  0  0  0  0
  147.2331  141.1583  153.6992 C   0  0  2  0  0  0  0  0  0  0  0  0
  146.0002  141.0704  154.3895 O   0  0  0  0  0  0  0  0  0  0  0  0
  147.8621  139.7920  153.3293 C   0  0  2  0  0  0  0  0  0  0  0  0
  146.9668  138.5539  153.5254 C   0  0  0  0  0  0  0  0  0  0  0  0
  145.9274  138.5490  152.5697 O   0  0  0  0  0  0  0  0  0  0  0  0
  149.0092  139.6882  154.1645 O   0  0  0  0  0  0  0  0  0  0  0  0
  151.5300  140.1405  155.6279 C   0  0  0  0  0  0  0  0  0  0  0  0
  151.7556  139.4202  154.6549 O   0  0  0  0  0  0  0  0  0  0  0  0
  152.3275  140.1729  156.7338 N   0  5  0  0  0  0  0  0  0  0  0  0
  152.0859  140.9960  157.7947 C   0  0  0  0  0  0  0  0  0  0  0  0
  152.8130  141.0132  158.7876 O   0  0  0  0  0  0  0  0  0  0  0  0
  150.1106  141.2574  153.5073 H   0  0  0  0  0  0  0  0  0  0  0  0
  147.0682  141.7367  152.7893 H   0  0  0  0  0  0  0  0  0  0  0  0
  148.2004  139.8476  152.2929 H   0  0  0  0  0  0  0  0  0  0  0  0
  149.7541  143.4315  158.7126 H   0  0  0  0  0  0  0  0  0  0  0  0
  151.4867  143.5083  159.0402 H   0  0  0  0  0  0  0  0  0  0  0  0
  150.4915  142.2675  159.8150 H   0  0  0  0  0  0  0  0  0  0  0  0
  149.2783  142.5021  156.5856 H   0  0  0  0  0  0  0  0  0  0  0  0
  147.9865  141.8190  155.6280 H   0  0  0  0  0  0  0  0  0  0  0  0
  148.4766  142.8814  154.2904 H   0  0  0  0  0  0  0  0  0  0  0  0
  145.3468  140.7355  153.7949 H   0  0  0  0  0  0  0  0  0  0  0  0
  147.5462  137.6321  153.4621 H   0  0  0  0  0  0  0  0  0  0  0  0
  146.4910  138.5764  154.5061 H   0  0  0  0  0  0  0  0  0  0  0  0
  145.3817  139.3063  152.7158 H   0  0  0  0  0  0  0  0  0  0  0  0
  1  2  1  0  0  0  0
  1 21  1  0  0  0  0
  1 22  1  0  0  0  0
  1 23  1  0  0  0  0
  2 16  1  0  0  0  0
  2  3  2  0  0  0  0
  3  4  1  0  0  0  0
  3 24  1  0  0  0  0
  4  5  1  0  0  0  0
  4 13  1  0  0  0  0
  5 18  1  0  0  0  0
  5 12  1  0  0  0  0
  5  6  1  0  0  0  0
  6  7  1  0  0  0  0
  6 25  1  0  0  0  0
  6 26  1  0  0  0  0
  7 19  1  0  0  0  0
  7  8  1  0  0  0  0
  7  9  1  0  0  0  0
  8 27  1  0  0  0  0
  9 20  1  0  0  0  0
  9 10  1  0  0  0  0
  9 12  1  0  0  0  0
 10 11  1  0  0  0  0
 10 28  1  0  0  0  0
 10 29  1  0  0  0  0
 11 30  1  0  0  0  0
 13 14  2  0  0  0  0
 13 15  1  0  0  0  0
 15 16  1  0  0  0  0
 16 17  2  0  0  0  0
M  CHG  1  15  -1
M  END
> <s_m_source_file>
AV-unprocessed.smi

> <i_m_source_file_index>
55

> <i_lp_mmshare_version>
43012

> <i_f3d_flags>
0

> <s_epik_input>
Tz1jMVtuSF1jKD1PKW4oW2NIXWMxW0NIM10pW0NAQEhdMltDSDJdW0NAQEhdKFtPSF0pW0NAQEhdKE8yKVtDSDJdW09IXQ==

> <s_epik_cmdline>
J2VwaWtfcHl0aG9uJywgJy1waCcsICc3LjAnLCAnLXRuJywgJzgnLCAnLW1hJywgJzIwMCcsICctbWV0YWxfYmluZGluZycsICctaW1hZScsICc8aW5maWxlLm1hZT4nLCAnLW9tYWUnLCAnPG91dGZpbGUubWFlPic=

> <r_lp_tautomer_probability>
0.999537

> <r_epik_Ionization_Penalty>
3.66603

> <r_epik_Ionization_Penalty_Charging>
1.09773e-07

> <r_epik_Ionization_Penalty_Neutral>
3.66603

> <r_epik_State_Penalty>
3.66562

> <r_epik_Charging_Adjusted_Penalty>
3.66562

> <i_epik_Tot_Q>
-1

> <i_epik_Tot_abs_Q>
1

> <r_epik_Metal_State_Penalty>
0.234536

> <b_epik_Metal_Only>
1

> <s_epik_Chemistry_Notes>
This compound contains an acetal/aminal-like group ( X-CH(R)-Y where X, Y are N, S, or O) that may be acid/base labile, releasing an aldehyde.

> <s_lp_Force_Field>
OPLS_2005

> <r_lp_Energy>
40.7454

> <b_lp_Chiralities_Consistent>
1

> <s_lp_Variant>
AV-unprocessed.smi:55-11

> <Gold.Version>
5.8.1

> <Gold.Id.Protein>
6NUR|6NUR_protein|mol2

> <Gold.PLP.Fitness>
43.3337

> <Gold.PLP.PLP>
-27.6457

> <Gold.PLP.part.hbond>
-3.8716

> <Gold.PLP.part.metal>
0.0000

> <Gold.PLP.part.buried>
2.1667

> <Gold.PLP.part.nonpolar>
-24.6984

> <Gold.PLP.part.repulsive>
0.4295

> <Gold.PLP.ligand.clash>
0.0000

> <Gold.PLP.ligand.torsion>
0.0899

> <Gold.PLP.Chemscore.Hbond>
4.2813

> <Gold.PLP.Chemscore.CHOScore>
1.0000

> <Gold.PLP.Chemscore.Metal>
0.0000

> <Gold.Chemscore.Hbonds>
donor molecule, donor type, donor heavy atom, donor atom, acceptor molecule, acceptor atom, score
      L1  H     8    27       P1 10175  0.75
      L1  H    11    30       P1 10175  0.89
      P1  H  7989  7998       L1    14  0.60
      P1  H  7997  8009       L1    15  2.00
      L1  C     3    24       P1  8028  1.00

> <Gold.PLP.Chemscore.Internal.Correction>
0.0242

> <Gold.Rescore>
     Score         DG    S(hbond)    S(metal)    S(lipo)     H(rot)  DE(clash)    DE(int)     intcor
      9.85     -12.94       2.70        0.00      45.38       2.69       1.80       1.28       ----

> <Gold.Chemscore.Fitness>
9.8530

> <Gold.Chemscore.DG>
-12.9377

> <Gold.Chemscore.ZeroCoef>
-5.4800

> <Gold.Chemscore.Hbond>
2.7028

> <Gold.Chemscore.Metal>
0.0000

> <Gold.Chemscore.Lipo>
45.3797

> <Gold.Chemscore.Internal_Hbond>
0.0000

> <Gold.Chemscore.DEClash>
1.8011

> <Gold.Chemscore.DEInternal>
1.2835

> <Gold.Chemscore.Rot>
2.6871

> <Gold.Chemscore.Internal.Correction>
   9.000000E+99

> <Gold.Chemscore.Hbonds>
donor molecule, donor type, donor heavy atom, donor atom, acceptor molecule, acceptor atom, score
      L1  H     8    27       P1 10175  0.71
      L1  H    11    30       P1 10175  0.85
      P1  H  7989  7998       L1    14  0.04
      P1  H  7997  8009       L1    15  0.53

> <Gold.Chemscore.Hbond.Weighted>
-9.0273

> <Gold.Chemscore.Metal.Weighted>
-0.0000

> <Gold.Chemscore.Lipo.Weighted>
-5.3094

> <Gold.Chemscore.Internal_Hbond.Weighted>
0.0000

> <Gold.Chemscore.DEClash.Weighted>
1.8011

> <Gold.Chemscore.DEInternal.Weighted>
1.2835

> <Gold.Chemscore.Rot.Weighted>
6.8791

> <Gold.Chemscore.Internal.Correction.Weighted>
   9.000000E+99

> <Gold.Protein.RotatedTorsions>
[ 6907 6896 6895 6894 ] final   75.73 input  -60.11 | X-H torsion
[ 7974 7965 7964 7962 ] final  -94.76 input  175.53 | X-H torsion
[ 8008 7997 7996 7995 ] final -169.94 input   59.86 | X-H torsion
[ 10167 10162 10161 10158 ] final  145.51 input  -65.29 | X-H torsion
[ 10718 10713 10712 10709 ] final   60.85 input   66.30 | X-H torsion
[ 10763 10752 10751 10750 ] final  129.50 input  -60.55 | X-H torsion
[ 11005 11000 10999 10996 ] final   72.07 input  -57.11 | X-H torsion

> <Gold.Protein.ActiveResidues>
 VAL166  LYS551  ARG553  GLY616  TRP617  ASP618  TYR619  PRO620  LYS621  CYS622 
 ASP623  PHE694  ASN695  SER759  ASP760  ASP761  ALA762  ILE779  LEU786  VAL792 
 PHE793  MET794  SER795  GLU796  ALA797  LYS798  CYS799  TRP800  GLU811  SER814 

> <Gold.Protein.RotatedAtoms>
  152.5040  134.4075  159.9437 H   0  0  0  0  0  0  0  0  0  0  0  0  # atno 6907 bound_to 6896
  151.4042  133.3741  159.2743 H   0  0  0  0  0  0  0  0  0  0  0  0  # atno 6908 bound_to 6896
  150.9339  134.8774  159.7628 H   0  0  0  0  0  0  0  0  0  0  0  0  # atno 6909 bound_to 6896
  145.3690  140.9502  143.2458 H   0  0  0  0  0  0  0  0  0  0  0  0  # atno 7974 bound_to 7965
  155.9116  140.1058  157.1275 H   0  0  0  0  0  0  0  0  0  0  0  0  # atno 8008 bound_to 7997
  154.4040  140.1273  156.4630 H   0  0  0  0  0  0  0  0  0  0  0  0  # atno 8009 bound_to 7997
  155.7303  140.3468  155.5058 H   0  0  0  0  0  0  0  0  0  0  0  0  # atno 8010 bound_to 7997
  139.4925  144.5897  151.6707 H   0  0  0  0  0  0  0  0  0  0  0  0  # atno 10167 bound_to 10162
  157.5784  130.8962  149.9388 H   0  0  0  0  0  0  0  0  0  0  0  0  # atno 10718 bound_to 10713
  153.7428  135.3221  155.3307 H   0  0  0  0  0  0  0  0  0  0  0  0  # atno 10763 bound_to 10752
  154.8289  135.4549  154.1009 H   0  0  0  0  0  0  0  0  0  0  0  0  # atno 10764 bound_to 10752
  153.2189  135.6945  153.8105 H   0  0  0  0  0  0  0  0  0  0  0  0  # atno 10765 bound_to 10752
  139.9510  134.7227  156.0863 H   0  0  0  0  0  0  0  0  0  0  0  0  # atno 11005 bound_to 11000
  144.8591  139.5205  143.6821 LP  0  0  0  0  0  0  0  0  0  0  0  0  # atno 17320 bound_to 7965
  146.2894  139.7095  142.9172 LP  0  0  0  0  0  0  0  0  0  0  0  0  # atno 17321 bound_to 7965
  140.5521  144.0409  150.6131 LP  0  0  0  0  0  0  0  0  0  0  0  0  # atno 17342 bound_to 10162
  140.3466  143.2988  152.0531 LP  0  0  0  0  0  0  0  0  0  0  0  0  # atno 17343 bound_to 10162
  156.0829  130.3671  150.0544 LP  0  0  0  0  0  0  0  0  0  0  0  0  # atno 17370 bound_to 10713
  156.8687  130.9517  151.3611 LP  0  0  0  0  0  0  0  0  0  0  0  0  # atno 17371 bound_to 10713
  141.1172  133.6624  156.3125 LP  0  0  0  0  0  0  0  0  0  0  0  0  # atno 17394 bound_to 11000
  140.5719  134.5831  157.5459 LP  0  0  0  0  0  0  0  0  0  0  0  0  # atno 17395 bound_to 11000

$$$$
