AV-unprocessed.smi:1217|AV-procd|sdf|5105|dock1
  -GOLD-   22720 4153D 1   1.00000     0.00000
 Structure written by MMmdl.
 34 35  0  0  0  0  0  0  0  0  1 V2000
  147.9331  140.4203  155.7037 C   0  0  0  0  0  0  0  0  0  0  0  0
  149.3107  140.7728  155.1221 C   0  0  1  0  0  0  0  0  0  0  0  0
  149.8342  141.9345  155.8379 N   0  0  0  0  0  0  0  0  0  0  0  0
  150.4601  141.9051  157.0242 C   0  0  0  0  0  0  0  0  0  0  0  0
  150.6714  140.8711  157.6585 O   0  0  0  0  0  0  0  0  0  0  0  0
  150.8110  143.1423  157.4172 N   0  0  0  0  0  0  0  0  0  0  0  0
  151.5298  143.5227  158.5818 C   0  0  0  0  0  0  0  0  0  0  0  0
  151.7482  144.9119  158.7231 C   0  0  0  0  0  0  0  0  0  0  0  0
  152.4570  145.3920  159.8415 C   0  0  0  0  0  0  0  0  0  0  0  0
  152.9327  144.4691  160.7897 C   0  0  0  0  0  0  0  0  0  0  0  0
  152.6734  143.1031  160.5734 C   0  0  0  0  0  0  0  0  0  0  0  0
  151.9931  142.6412  159.5030 N   0  0  0  0  0  0  0  0  0  0  0  0
  150.3070  139.6005  155.2284 C   0  0  1  0  0  0  0  0  0  0  0  0
  150.0243  138.4323  154.2814 C   0  0  0  0  0  0  0  0  0  0  0  0
  151.3880  137.7892  154.0765 C   0  0  0  0  0  0  0  0  0  0  0  0
  152.3738  138.8161  154.6385 C   0  0  0  0  0  0  0  0  0  0  0  0
  151.6069  139.9973  154.8185 O   0  0  0  0  0  0  0  0  0  0  0  0
  147.4774  139.5863  155.1700 H   0  0  0  0  0  0  0  0  0  0  0  0
  147.2485  141.2659  155.6283 H   0  0  0  0  0  0  0  0  0  0  0  0
  148.0047  140.1424  156.7558 H   0  0  0  0  0  0  0  0  0  0  0  0
  149.1701  141.0202  154.0682 H   0  0  0  0  0  0  0  0  0  0  0  0
  149.7026  142.8320  155.3956 H   0  0  0  0  0  0  0  0  0  0  0  0
  150.5446  143.8992  156.8054 H   0  0  0  0  0  0  0  0  0  0  0  0
  151.3769  145.6071  157.9841 H   0  0  0  0  0  0  0  0  0  0  0  0
  152.6331  146.4499  159.9679 H   0  0  0  0  0  0  0  0  0  0  0  0
  153.4817  144.7987  161.6593 H   0  0  0  0  0  0  0  0  0  0  0  0
  153.0221  142.3618  161.2770 H   0  0  0  0  0  0  0  0  0  0  0  0
  150.3596  139.2377  156.2570 H   0  0  0  0  0  0  0  0  0  0  0  0
  149.2856  137.7372  154.6814 H   0  0  0  0  0  0  0  0  0  0  0  0
  149.6522  138.8031  153.3252 H   0  0  0  0  0  0  0  0  0  0  0  0
  151.4718  136.8410  154.6085 H   0  0  0  0  0  0  0  0  0  0  0  0
  151.5692  137.5984  153.0184 H   0  0  0  0  0  0  0  0  0  0  0  0
  152.7595  138.4891  155.6052 H   0  0  0  0  0  0  0  0  0  0  0  0
  153.2212  138.9923  153.9756 H   0  0  0  0  0  0  0  0  0  0  0  0
  1  2  1  0  0  0  0
  1 18  1  0  0  0  0
  1 19  1  0  0  0  0
  1 20  1  0  0  0  0
  2  3  1  0  0  0  0
  2 13  1  0  0  0  0
  2 21  1  0  0  0  0
  3  4  1  0  0  0  0
  3 22  1  0  0  0  0
  4  5  2  0  0  0  0
  4  6  1  0  0  0  0
  6  7  1  0  0  0  0
  6 23  1  0  0  0  0
  7 12  1  0  0  0  0
  7  8  2  0  0  0  0
  8  9  1  0  0  0  0
  8 24  1  0  0  0  0
  9 10  2  0  0  0  0
  9 25  1  0  0  0  0
 10 11  1  0  0  0  0
 10 26  1  0  0  0  0
 11 12  2  0  0  0  0
 11 27  1  0  0  0  0
 13 17  1  0  0  0  0
 13 14  1  0  0  0  0
 13 28  1  0  0  0  0
 14 15  1  0  0  0  0
 14 29  1  0  0  0  0
 14 30  1  0  0  0  0
 15 16  1  0  0  0  0
 15 31  1  0  0  0  0
 15 32  1  0  0  0  0
 16 17  1  0  0  0  0
 16 33  1  0  0  0  0
 16 34  1  0  0  0  0
M  END
> <s_m_source_file>
AV-unprocessed.smi

> <i_m_source_file_index>
1217

> <i_lp_mmshare_version>
43012

> <i_f3d_flags>
0

> <s_epik_input>
TzFbQ0gyXVtDSDJdW0NIMl1bQ0BIXTFbQ0BIXShbQ0gzXSlbTkhdQyg9TylbTkhdYzJbY0hdW2NIXVtjSF1bY0hdbjI=

> <s_epik_cmdline>
J2VwaWtfcHl0aG9uJywgJy1waCcsICc3LjAnLCAnLXRuJywgJzgnLCAnLW1hJywgJzIwMCcsICctbWV0YWxfYmluZGluZycsICctaW1hZScsICc8aW5maWxlLm1hZT4nLCAnLW9tYWUnLCAnPG91dGZpbGUubWFlPic=

> <r_lp_tautomer_probability>
1

> <r_epik_Ionization_Penalty>
4.51768e-05

> <r_epik_Ionization_Penalty_Charging>
0

> <r_epik_Ionization_Penalty_Neutral>
4.51768e-05

> <r_epik_State_Penalty>
-0

> <r_epik_Charging_Adjusted_Penalty>
0

> <i_epik_Tot_Q>
0

> <i_epik_Tot_abs_Q>
0

> <r_epik_Metal_State_Penalty>
-0

> <b_epik_Metal_Only>
0

> <s_lp_Force_Field>
OPLS_2005

> <r_lp_Energy>
20.7335

> <b_lp_Chiralities_Consistent>
1

> <s_lp_Variant>
AV-unprocessed.smi:1217-4

> <Gold.Version>
5.8.1

> <Gold.Id.Protein>
6NUR|6NUR_protein|mol2

> <Gold.PLP.Fitness>
46.3196

> <Gold.PLP.PLP>
-38.3742

> <Gold.PLP.part.hbond>
-3.0000

> <Gold.PLP.part.metal>
0.0000

> <Gold.PLP.part.buried>
-7.0377

> <Gold.PLP.part.nonpolar>
-29.7162

> <Gold.PLP.part.repulsive>
0.2022

> <Gold.PLP.ligand.clash>
0.0000

> <Gold.PLP.ligand.torsion>
0.3816

> <Gold.PLP.Chemscore.Hbond>
2.8960

> <Gold.PLP.Chemscore.CHOScore>
0.0000

> <Gold.PLP.Chemscore.Metal>
0.0000

> <Gold.Chemscore.Hbonds>
donor molecule, donor type, donor heavy atom, donor atom, acceptor molecule, acceptor atom, score
      L1  H     3    22       P1  8028  0.79
      L1  H     6    23       P1  8028  0.61
      P1  H  7989  7998       L1    17  1.00

> <Gold.PLP.Chemscore.Internal.Correction>
0.0205

> <Gold.Rescore>
     Score         DG    S(hbond)    S(metal)    S(lipo)     H(rot)  DE(clash)    DE(int)     intcor
     17.39     -20.63       2.50        0.00      85.52       1.25       0.07       3.17       ----

> <Gold.Chemscore.Fitness>
17.3891

> <Gold.Chemscore.DG>
-20.6278

> <Gold.Chemscore.ZeroCoef>
-5.4800

> <Gold.Chemscore.Hbond>
2.4980

> <Gold.Chemscore.Metal>
0.0000

> <Gold.Chemscore.Lipo>
85.5225

> <Gold.Chemscore.Internal_Hbond>
0.0000

> <Gold.Chemscore.DEClash>
0.0692

> <Gold.Chemscore.DEInternal>
3.1694

> <Gold.Chemscore.Rot>
1.2506

> <Gold.Chemscore.Internal.Correction>
   9.000000E+99

> <Gold.Chemscore.Hbonds>
donor molecule, donor type, donor heavy atom, donor atom, acceptor molecule, acceptor atom, score
      L1  H     3    22       P1  8028  0.75
      L1  H     6    23       P1  8028  0.59
      P1  H  7989  7998       L1    17  0.64

> <Gold.Chemscore.Hbond.Weighted>
-8.3433

> <Gold.Chemscore.Metal.Weighted>
-0.0000

> <Gold.Chemscore.Lipo.Weighted>
-10.0061

> <Gold.Chemscore.Internal_Hbond.Weighted>
0.0000

> <Gold.Chemscore.DEClash.Weighted>
0.0692

> <Gold.Chemscore.DEInternal.Weighted>
3.1694

> <Gold.Chemscore.Rot.Weighted>
3.2016

> <Gold.Chemscore.Internal.Correction.Weighted>
   9.000000E+99

> <Gold.Protein.RotatedTorsions>
[ 6907 6896 6895 6894 ] final  -46.23 input  -60.11 | X-H torsion
[ 7974 7965 7964 7962 ] final    1.17 input  175.53 | X-H torsion
[ 8008 7997 7996 7995 ] final -107.98 input   59.86 | X-H torsion
[ 10167 10162 10161 10158 ] final -103.53 input  -65.29 | X-H torsion
[ 10718 10713 10712 10709 ] final   93.20 input   66.30 | X-H torsion
[ 10763 10752 10751 10750 ] final  -67.43 input  -60.55 | X-H torsion
[ 11005 11000 10999 10996 ] final   -0.83 input  -57.11 | X-H torsion

> <Gold.Protein.ActiveResidues>
 VAL166  LYS551  ARG553  GLY616  TRP617  ASP618  TYR619  PRO620  LYS621  CYS622 
 ASP623  PHE694  ASN695  SER759  ASP760  ASP761  ALA762  ILE779  LEU786  VAL792 
 PHE793  MET794  SER795  GLU796  ALA797  LYS798  CYS799  TRP800  GLU811  SER814 

> <Gold.Protein.RotatedAtoms>
  150.9135  134.8552  159.7440 H   0  0  0  0  0  0  0  0  0  0  0  0  # atno 6907 bound_to 6896
  152.4956  134.4324  159.9526 H   0  0  0  0  0  0  0  0  0  0  0  0  # atno 6908 bound_to 6896
  151.4365  133.3616  159.2811 H   0  0  0  0  0  0  0  0  0  0  0  0  # atno 6909 bound_to 6896
  146.2439  140.1027  142.8347 H   0  0  0  0  0  0  0  0  0  0  0  0  # atno 7974 bound_to 7965
  154.9374  140.0403  157.2079 H   0  0  0  0  0  0  0  0  0  0  0  0  # atno 8008 bound_to 7997
  154.8102  140.2866  155.5837 H   0  0  0  0  0  0  0  0  0  0  0  0  # atno 8009 bound_to 7997
  156.2970  140.2538  156.2989 H   0  0  0  0  0  0  0  0  0  0  0  0  # atno 8010 bound_to 7997
  140.2190  143.3690  152.0986 H   0  0  0  0  0  0  0  0  0  0  0  0  # atno 10167 bound_to 10162
  157.6955  131.0470  150.3997 H   0  0  0  0  0  0  0  0  0  0  0  0  # atno 10718 bound_to 10713
  154.3744  135.6088  153.5757 H   0  0  0  0  0  0  0  0  0  0  0  0  # atno 10763 bound_to 10752
  152.9789  135.5846  154.4484 H   0  0  0  0  0  0  0  0  0  0  0  0  # atno 10764 bound_to 10752
  154.4243  135.2846  155.1932 H   0  0  0  0  0  0  0  0  0  0  0  0  # atno 10765 bound_to 10752
  140.6406  133.9493  155.8324 H   0  0  0  0  0  0  0  0  0  0  0  0  # atno 11005 bound_to 11000
  145.0555  140.9049  143.4970 LP  0  0  0  0  0  0  0  0  0  0  0  0  # atno 17320 bound_to 7965
  145.1132  139.2743  143.5626 LP  0  0  0  0  0  0  0  0  0  0  0  0  # atno 17321 bound_to 7965
  139.5151  144.6958  151.5633 LP  0  0  0  0  0  0  0  0  0  0  0  0  # atno 17342 bound_to 10162
  140.6269  143.9151  150.6572 LP  0  0  0  0  0  0  0  0  0  0  0  0  # atno 17343 bound_to 10162
  156.4392  130.3988  149.6708 LP  0  0  0  0  0  0  0  0  0  0  0  0  # atno 17370 bound_to 10713
  156.3898  130.7621  151.2621 LP  0  0  0  0  0  0  0  0  0  0  0  0  # atno 17371 bound_to 10713
  141.0610  134.0347  157.3659 LP  0  0  0  0  0  0  0  0  0  0  0  0  # atno 17394 bound_to 11000
  139.9082  135.0184  156.7577 LP  0  0  0  0  0  0  0  0  0  0  0  0  # atno 17395 bound_to 11000

$$$$
