AV-unprocessed.smi:2751|AV-procd|sdf|10604|dock8
  -GOLD-   2272015 53D 1   1.00000     0.00000
 Structure written by MMmdl.
 33 34  0  0  0  0  0  0  0  0  2 V2000
  154.4745  139.3667  158.2730 O   0  0  0  0  0  0  0  0  0  0  0  0
  153.3386  139.3861  158.7534 C   0  0  0  0  0  0  0  0  0  0  0  0
  153.1101  140.0373  159.9033 N   0  0  0  0  0  0  0  0  0  0  0  0
  154.1046  140.7627  160.6872 C   0  0  0  0  0  0  0  0  0  0  0  0
  153.4805  141.9588  161.4267 C   0  0  0  0  0  0  0  0  0  0  0  0
  152.5860  142.8205  160.5216 C   0  0  1  0  0  0  0  0  0  0  0  0
  152.1996  144.1525  161.1938 C   0  0  0  0  0  0  0  0  0  0  0  0
  151.3701  145.0185  160.2388 C   0  0  0  0  0  0  0  0  0  0  0  0
  152.1144  145.1793  158.9090 C   0  0  0  0  0  0  0  0  0  0  0  0
  152.5143  143.8039  158.3514 C   0  0  0  0  0  0  0  0  0  0  0  0
  153.2922  143.0978  159.3132 O   0  0  0  0  0  0  0  0  0  0  0  0
  152.2377  138.8000  158.2305 N   0  5  0  0  0  0  0  0  0  0  0  0
  152.1291  138.6483  156.9007 C   0  0  0  0  0  0  0  0  0  0  0  0
  152.9370  139.1707  155.9765 N   0  0  0  0  0  0  0  0  0  0  0  0
  152.4419  138.7428  154.7543 C   0  0  0  0  0  0  0  0  0  0  0  0
  151.3453  137.9614  154.9963 C   0  0  0  0  0  0  0  0  0  0  0  0
  151.1398  137.8916  156.3464 O   0  0  0  0  0  0  0  0  0  0  0  0
  152.1665  140.0272  160.2616 H   0  0  0  0  0  0  0  0  0  0  0  0
  154.5381  140.0655  161.4043 H   0  0  0  0  0  0  0  0  0  0  0  0
  154.9220  141.0923  160.0437 H   0  0  0  0  0  0  0  0  0  0  0  0
  152.8855  141.5899  162.2632 H   0  0  0  0  0  0  0  0  0  0  0  0
  154.2682  142.5765  161.8602 H   0  0  0  0  0  0  0  0  0  0  0  0
  151.6797  142.2587  160.2878 H   0  0  0  0  0  0  0  0  0  0  0  0
  151.6376  143.9658  162.1095 H   0  0  0  0  0  0  0  0  0  0  0  0
  153.1013  144.6928  161.4852 H   0  0  0  0  0  0  0  0  0  0  0  0
  150.4019  144.5478  160.0636 H   0  0  0  0  0  0  0  0  0  0  0  0
  151.1702  145.9932  160.6844 H   0  0  0  0  0  0  0  0  0  0  0  0
  151.4926  145.7131  158.1898 H   0  0  0  0  0  0  0  0  0  0  0  0
  153.0090  145.7844  159.0605 H   0  0  0  0  0  0  0  0  0  0  0  0
  151.6323  143.2207  158.0826 H   0  0  0  0  0  0  0  0  0  0  0  0
  153.1041  143.9248  157.4428 H   0  0  0  0  0  0  0  0  0  0  0  0
  152.9050  139.0236  153.8201 H   0  0  0  0  0  0  0  0  0  0  0  0
  150.6522  137.4214  154.3691 H   0  0  0  0  0  0  0  0  0  0  0  0
  1  2  2  0  0  0  0
  2 12  1  0  0  0  0
  2  3  1  0  0  0  0
  3  4  1  0  0  0  0
  3 18  1  0  0  0  0
  4  5  1  0  0  0  0
  4 19  1  0  0  0  0
  4 20  1  0  0  0  0
  5  6  1  0  0  0  0
  5 21  1  0  0  0  0
  5 22  1  0  0  0  0
  6 11  1  0  0  0  0
  6  7  1  0  0  0  0
  6 23  1  0  0  0  0
  7  8  1  0  0  0  0
  7 24  1  0  0  0  0
  7 25  1  0  0  0  0
  8  9  1  0  0  0  0
  8 26  1  0  0  0  0
  8 27  1  0  0  0  0
  9 10  1  0  0  0  0
  9 28  1  0  0  0  0
  9 29  1  0  0  0  0
 10 11  1  0  0  0  0
 10 30  1  0  0  0  0
 10 31  1  0  0  0  0
 12 13  1  0  0  0  0
 13 17  1  0  0  0  0
 13 14  2  0  0  0  0
 14 15  1  0  0  0  0
 15 32  1  0  0  0  0
 15 16  2  0  0  0  0
 16 33  1  0  0  0  0
 16 17  1  0  0  0  0
M  CHG  1  12  -1
M  END
> <s_m_source_file>
AV-unprocessed.smi

> <i_m_source_file_index>
2751

> <i_lp_mmshare_version>
43012

> <i_f3d_flags>
0

> <s_epik_input>
bzFbY0hdW2NIXW5jMVtOSF1DKD1PKVtOSF1bQ0gyXVtDSDJdW0NAQEhdMltDSDJdW0NIMl1bQ0gyXVtDSDJdTzI=

> <s_epik_cmdline>
J2VwaWtfcHl0aG9uJywgJy1waCcsICc3LjAnLCAnLXRuJywgJzgnLCAnLW1hJywgJzIwMCcsICctbWV0YWxfYmluZGluZycsICctaW1hZScsICc8aW5maWxlLm1hZT4nLCAnLW9tYWUnLCAnPG91dGZpbGUubWFlPic=

> <r_lp_tautomer_probability>
0.107061

> <r_epik_Ionization_Penalty>
11.077

> <r_epik_Ionization_Penalty_Charging>
7.79122

> <r_epik_Ionization_Penalty_Neutral>
3.28583

> <r_epik_State_Penalty>
5.8984

> <r_epik_Charging_Adjusted_Penalty>
13.6896

> <i_epik_Tot_Q>
-1

> <i_epik_Tot_abs_Q>
1

> <r_epik_Metal_State_Penalty>
1.82322

> <b_epik_Metal_Only>
1

> <s_lp_Force_Field>
OPLS_2005

> <r_lp_Energy>
3.95886

> <b_lp_Chiralities_Consistent>
1

> <s_lp_Variant>
AV-unprocessed.smi:2751-10

> <Gold.Version>
5.8.1

> <Gold.Id.Protein>
6NUR|6NUR_protein|mol2

> <Gold.PLP.Fitness>
43.7548

> <Gold.PLP.PLP>
-39.6483

> <Gold.PLP.part.hbond>
-1.4463

> <Gold.PLP.part.metal>
0.0000

> <Gold.PLP.part.buried>
-5.6141

> <Gold.PLP.part.nonpolar>
-32.0492

> <Gold.PLP.part.repulsive>
0.1087

> <Gold.PLP.ligand.clash>
0.0000

> <Gold.PLP.ligand.torsion>
0.4943

> <Gold.PLP.Chemscore.Hbond>
1.6894

> <Gold.PLP.Chemscore.CHOScore>
0.0000

> <Gold.PLP.Chemscore.Metal>
0.0000

> <Gold.Chemscore.Hbonds>
donor molecule, donor type, donor heavy atom, donor atom, acceptor molecule, acceptor atom, score
      P1  H  7997  8008       L1     1  0.57
      P1  H  7997  8009       L1    14  0.93

> <Gold.PLP.Chemscore.Internal.Correction>
0.0269

> <Gold.Rescore>
     Score         DG    S(hbond)    S(metal)    S(lipo)     H(rot)  DE(clash)    DE(int)     intcor
     16.08     -17.99       1.49        0.00      99.35       1.60       0.03       1.88       ----

> <Gold.Chemscore.Fitness>
16.0788

> <Gold.Chemscore.DG>
-17.9888

> <Gold.Chemscore.ZeroCoef>
-5.4800

> <Gold.Chemscore.Hbond>
1.4949

> <Gold.Chemscore.Metal>
0.0000

> <Gold.Chemscore.Lipo>
99.3515

> <Gold.Chemscore.Internal_Hbond>
0.0000

> <Gold.Chemscore.DEClash>
0.0338

> <Gold.Chemscore.DEInternal>
1.8762

> <Gold.Chemscore.Rot>
1.6048

> <Gold.Chemscore.Internal.Correction>
   9.000000E+99

> <Gold.Chemscore.Hbonds>
donor molecule, donor type, donor heavy atom, donor atom, acceptor molecule, acceptor atom, score
      P1  H  7997  8008       L1     1  0.57
      P1  H  7997  8009       L1    14  0.84

> <Gold.Chemscore.Hbond.Weighted>
-4.9929

> <Gold.Chemscore.Metal.Weighted>
-0.0000

> <Gold.Chemscore.Lipo.Weighted>
-11.6241

> <Gold.Chemscore.Internal_Hbond.Weighted>
0.0000

> <Gold.Chemscore.DEClash.Weighted>
0.0338

> <Gold.Chemscore.DEInternal.Weighted>
1.8762

> <Gold.Chemscore.Rot.Weighted>
4.1082

> <Gold.Chemscore.Internal.Correction.Weighted>
   9.000000E+99

> <Gold.Protein.RotatedTorsions>
[ 6907 6896 6895 6894 ] final  157.07 input  -60.11 | X-H torsion
[ 7974 7965 7964 7962 ] final  -45.24 input  175.53 | X-H torsion
[ 8008 7997 7996 7995 ] final -136.06 input   59.86 | X-H torsion
[ 10167 10162 10161 10158 ] final   96.87 input  -65.29 | X-H torsion
[ 10718 10713 10712 10709 ] final  178.17 input   66.30 | X-H torsion
[ 10763 10752 10751 10750 ] final  167.88 input  -60.55 | X-H torsion
[ 11005 11000 10999 10996 ] final   65.89 input  -57.11 | X-H torsion

> <Gold.Protein.ActiveResidues>
 VAL166  LYS551  ARG553  GLY616  TRP617  ASP618  TYR619  PRO620  LYS621  CYS622 
 ASP623  PHE694  ASN695  SER759  ASP760  ASP761  ALA762  ILE779  LEU786  VAL792 
 PHE793  MET794  SER795  GLU796  ALA797  LYS798  CYS799  TRP800  GLU811  SER814 

> <Gold.Protein.RotatedAtoms>
  152.0204  133.3896  159.4255 H   0  0  0  0  0  0  0  0  0  0  0  0  # atno 6907 bound_to 6896
  150.6891  134.3632  159.4969 H   0  0  0  0  0  0  0  0  0  0  0  0  # atno 6908 bound_to 6896
  152.1405  134.9066  160.0604 H   0  0  0  0  0  0  0  0  0  0  0  0  # atno 6909 bound_to 6896
  145.9840  140.7253  142.9349 H   0  0  0  0  0  0  0  0  0  0  0  0  # atno 7974 bound_to 7965
  155.3889  140.0498  157.3041 H   0  0  0  0  0  0  0  0  0  0  0  0  # atno 8008 bound_to 7997
  154.5046  140.2169  155.9239 H   0  0  0  0  0  0  0  0  0  0  0  0  # atno 8009 bound_to 7997
  156.1509  140.3136  155.8652 H   0  0  0  0  0  0  0  0  0  0  0  0  # atno 8010 bound_to 7997
  139.7854  144.6872  150.9965 H   0  0  0  0  0  0  0  0  0  0  0  0  # atno 10167 bound_to 10162
  156.8946  130.9858  151.3044 H   0  0  0  0  0  0  0  0  0  0  0  0  # atno 10718 bound_to 10713
  154.3603  135.2753  155.2323 H   0  0  0  0  0  0  0  0  0  0  0  0  # atno 10763 bound_to 10752
  154.4514  135.5930  153.6198 H   0  0  0  0  0  0  0  0  0  0  0  0  # atno 10764 bound_to 10752
  152.9844  135.6043  154.3823 H   0  0  0  0  0  0  0  0  0  0  0  0  # atno 10765 bound_to 10752
  139.9866  134.6659  156.0166 H   0  0  0  0  0  0  0  0  0  0  0  0  # atno 11005 bound_to 11000
  144.6869  140.2956  143.7271 LP  0  0  0  0  0  0  0  0  0  0  0  0  # atno 17320 bound_to 7965
  145.7728  139.1863  143.2202 LP  0  0  0  0  0  0  0  0  0  0  0  0  # atno 17321 bound_to 7965
  140.7819  143.4438  151.0513 LP  0  0  0  0  0  0  0  0  0  0  0  0  # atno 17342 bound_to 10162
  139.8117  143.7942  152.3171 LP  0  0  0  0  0  0  0  0  0  0  0  0  # atno 17343 bound_to 10162
  157.6063  130.8550  149.8881 LP  0  0  0  0  0  0  0  0  0  0  0  0  # atno 17370 bound_to 10713
  156.0612  130.3699  150.0978 LP  0  0  0  0  0  0  0  0  0  0  0  0  # atno 17371 bound_to 10713
  141.1530  133.6546  156.4071 LP  0  0  0  0  0  0  0  0  0  0  0  0  # atno 17394 bound_to 11000
  140.4991  134.6503  157.5241 LP  0  0  0  0  0  0  0  0  0  0  0  0  # atno 17395 bound_to 11000

$$$$
