AV-unprocessed.smi:2959|AV-procd|sdf|11309|dock9
  -GOLD-   2272016203D 1   1.00000     0.00000
 Structure written by MMmdl.
 45 47  0  0  0  0  0  0  0  0  1 V2000
  154.1047  136.2977  162.9718 C   0  0  0  0  0  0  0  0  0  0  0  0
  153.9405  137.0605  161.6609 C   0  0  0  0  0  0  0  0  0  0  0  0
  153.3055  136.5600  160.7337 O   0  0  0  0  0  0  0  0  0  0  0  0
  154.5119  138.2709  161.5970 N   0  0  0  0  0  0  0  0  0  0  0  0
  154.4711  139.1492  160.4341 C   0  0  0  0  0  0  0  0  0  0  0  0
  153.0294  139.4033  159.9539 C   0  0  0  0  0  0  0  0  0  0  0  0
  152.6764  140.8617  159.8444 C   0  0  0  0  0  0  0  0  0  0  0  0
  152.8698  141.6917  160.8711 N   0  0  0  0  0  0  0  0  0  0  0  0
  152.4175  142.8996  160.3817 C   0  0  0  0  0  0  0  0  0  0  0  0
  152.3405  144.1692  160.9976 C   0  0  0  0  0  0  0  0  0  0  0  0
  151.8352  145.2776  160.2873 C   0  0  0  0  0  0  0  0  0  0  0  0
  151.4020  145.1327  158.9534 C   0  0  0  0  0  0  0  0  0  0  0  0
  151.4723  143.8764  158.3211 C   0  0  0  0  0  0  0  0  0  0  0  0
  151.9762  142.7721  159.0351 C   0  0  0  0  0  0  0  0  0  0  0  0
  152.1815  141.4330  158.7136 N   0  0  0  0  0  0  0  0  0  0  0  0
  151.9142  140.8352  157.4111 C   0  0  0  0  0  0  0  0  0  0  0  0
  150.4156  140.6363  157.1424 C   0  0  0  0  0  0  0  0  0  0  0  0
  150.1632  140.7239  155.7477 O   0  0  0  0  0  0  0  0  0  0  0  0
  148.9351  141.1935  155.3347 C   0  0  0  0  0  0  0  0  0  0  0  0
  148.7214  141.2901  153.9440 C   0  0  0  0  0  0  0  0  0  0  0  0
  147.4916  141.7462  153.4327 C   0  0  0  0  0  0  0  0  0  0  0  0
  146.4580  142.1144  154.3130 C   0  0  0  0  0  0  0  0  0  0  0  0
  146.6580  142.0264  155.7032 C   0  0  0  0  0  0  0  0  0  0  0  0
  147.8885  141.5690  156.2144 C   0  0  0  0  0  0  0  0  0  0  0  0
  154.4545  135.2836  162.7776 H   0  0  0  0  0  0  0  0  0  0  0  0
  153.1493  136.2376  163.4931 H   0  0  0  0  0  0  0  0  0  0  0  0
  154.8235  136.7857  163.6313 H   0  0  0  0  0  0  0  0  0  0  0  0
  155.0096  138.6075  162.4089 H   0  0  0  0  0  0  0  0  0  0  0  0
  154.9370  140.0996  160.6998 H   0  0  0  0  0  0  0  0  0  0  0  0
  155.0650  138.7202  159.6260 H   0  0  0  0  0  0  0  0  0  0  0  0
  152.8827  138.9400  158.9778 H   0  0  0  0  0  0  0  0  0  0  0  0
  152.3462  138.8943  160.6303 H   0  0  0  0  0  0  0  0  0  0  0  0
  152.6709  144.2900  162.0186 H   0  0  0  0  0  0  0  0  0  0  0  0
  151.7804  146.2434  160.7679 H   0  0  0  0  0  0  0  0  0  0  0  0
  151.0169  145.9865  158.4154 H   0  0  0  0  0  0  0  0  0  0  0  0
  151.1415  143.7641  157.2993 H   0  0  0  0  0  0  0  0  0  0  0  0
  152.3265  141.4978  156.6496 H   0  0  0  0  0  0  0  0  0  0  0  0
  152.4632  139.8998  157.3081 H   0  0  0  0  0  0  0  0  0  0  0  0
  150.0952  139.6699  157.5350 H   0  0  0  0  0  0  0  0  0  0  0  0
  149.8535  141.4130  157.6631 H   0  0  0  0  0  0  0  0  0  0  0  0
  149.5084  141.0064  153.2606 H   0  0  0  0  0  0  0  0  0  0  0  0
  147.3420  141.8116  152.3650 H   0  0  0  0  0  0  0  0  0  0  0  0
  145.5133  142.4638  153.9229 H   0  0  0  0  0  0  0  0  0  0  0  0
  145.8652  142.3086  156.3802 H   0  0  0  0  0  0  0  0  0  0  0  0
  148.0024  141.5108  157.2860 H   0  0  0  0  0  0  0  0  0  0  0  0
  1  2  1  0  0  0  0
  1 25  1  0  0  0  0
  1 26  1  0  0  0  0
  1 27  1  0  0  0  0
  2  3  2  0  0  0  0
  2  4  1  0  0  0  0
  4  5  1  0  0  0  0
  4 28  1  0  0  0  0
  5  6  1  0  0  0  0
  5 29  1  0  0  0  0
  5 30  1  0  0  0  0
  6  7  1  0  0  0  0
  6 31  1  0  0  0  0
  6 32  1  0  0  0  0
  7 15  1  0  0  0  0
  7  8  2  0  0  0  0
  8  9  1  0  0  0  0
  9 14  2  0  0  0  0
  9 10  1  0  0  0  0
 10 11  2  0  0  0  0
 10 33  1  0  0  0  0
 11 12  1  0  0  0  0
 11 34  1  0  0  0  0
 12 13  2  0  0  0  0
 12 35  1  0  0  0  0
 13 14  1  0  0  0  0
 13 36  1  0  0  0  0
 14 15  1  0  0  0  0
 15 16  1  0  0  0  0
 16 17  1  0  0  0  0
 16 37  1  0  0  0  0
 16 38  1  0  0  0  0
 17 18  1  0  0  0  0
 17 39  1  0  0  0  0
 17 40  1  0  0  0  0
 18 19  1  0  0  0  0
 19 24  1  0  0  0  0
 19 20  2  0  0  0  0
 20 21  1  0  0  0  0
 20 41  1  0  0  0  0
 21 22  2  0  0  0  0
 21 42  1  0  0  0  0
 22 23  1  0  0  0  0
 22 43  1  0  0  0  0
 23 24  2  0  0  0  0
 23 44  1  0  0  0  0
 24 45  1  0  0  0  0
M  END
> <s_m_source_file>
AV-unprocessed.smi

> <i_m_source_file_index>
2959

> <i_lp_mmshare_version>
43012

> <i_f3d_flags>
0

> <s_epik_input>
W0NIM11DKD1PKVtOSF1bQ0gyXVtDSDJdYyhuMSluKGMoYzEyKVtjSF1bY0hdW2NIXVtjSF0yKVtDSDJdW0NIMl1PYzNbY0hdW2NIXVtjSF1bY0hdW2NIXTM=

> <s_epik_cmdline>
J2VwaWtfcHl0aG9uJywgJy1waCcsICc3LjAnLCAnLXRuJywgJzgnLCAnLW1hJywgJzIwMCcsICctbWV0YWxfYmluZGluZycsICctaW1hZScsICc8aW5maWxlLm1hZT4nLCAnLW9tYWUnLCAnPG91dGZpbGUubWFlPic=

> <r_lp_tautomer_probability>
1

> <r_epik_Ionization_Penalty>
0.11099

> <r_epik_Ionization_Penalty_Charging>
0

> <r_epik_Ionization_Penalty_Neutral>
0.11099

> <r_epik_State_Penalty>
0.100724

> <r_epik_Charging_Adjusted_Penalty>
0.100724

> <i_epik_Tot_Q>
0

> <i_epik_Tot_abs_Q>
0

> <r_epik_Metal_State_Penalty>
0.0847

> <b_epik_Metal_Only>
0

> <s_lp_Force_Field>
OPLS_2005

> <r_lp_Energy>
14.3457

> <b_lp_Chiralities_Consistent>
1

> <s_lp_Variant>
AV-unprocessed.smi:2959-1

> <Gold.Version>
5.8.1

> <Gold.Id.Protein>
6NUR|6NUR_protein|mol2

> <Gold.PLP.Fitness>
52.1507

> <Gold.PLP.PLP>
-51.2896

> <Gold.PLP.part.hbond>
-0.8899

> <Gold.PLP.part.metal>
0.0000

> <Gold.PLP.part.buried>
-8.0463

> <Gold.PLP.part.nonpolar>
-41.4661

> <Gold.PLP.part.repulsive>
0.0660

> <Gold.PLP.ligand.clash>
0.0000

> <Gold.PLP.ligand.torsion>
0.9742

> <Gold.PLP.Chemscore.Hbond>
0.9263

> <Gold.PLP.Chemscore.CHOScore>
0.0000

> <Gold.PLP.Chemscore.Metal>
0.0000

> <Gold.Chemscore.Hbonds>
donor molecule, donor type, donor heavy atom, donor atom, acceptor molecule, acceptor atom, score
      P1  H  6896  6907       L1     3  0.91

> <Gold.PLP.Chemscore.Internal.Correction>
0.0306

> <Gold.Rescore>
     Score         DG    S(hbond)    S(metal)    S(lipo)     H(rot)  DE(clash)    DE(int)     intcor
     17.13     -19.12       0.98        0.00     135.28       2.14       0.19       1.80       ----

> <Gold.Chemscore.Fitness>
17.1316

> <Gold.Chemscore.DG>
-19.1229

> <Gold.Chemscore.ZeroCoef>
-5.4800

> <Gold.Chemscore.Hbond>
0.9827

> <Gold.Chemscore.Metal>
0.0000

> <Gold.Chemscore.Lipo>
135.2796

> <Gold.Chemscore.Internal_Hbond>
0.0000

> <Gold.Chemscore.DEClash>
0.1914

> <Gold.Chemscore.DEInternal>
1.7999

> <Gold.Chemscore.Rot>
2.1356

> <Gold.Chemscore.Internal.Correction>
   9.000000E+99

> <Gold.Chemscore.Hbonds>
donor molecule, donor type, donor heavy atom, donor atom, acceptor molecule, acceptor atom, score
      P1  H  6896  6907       L1     3  0.87

> <Gold.Chemscore.Hbond.Weighted>
-3.2823

> <Gold.Chemscore.Metal.Weighted>
-0.0000

> <Gold.Chemscore.Lipo.Weighted>
-15.8277

> <Gold.Chemscore.Internal_Hbond.Weighted>
0.0000

> <Gold.Chemscore.DEClash.Weighted>
0.1914

> <Gold.Chemscore.DEInternal.Weighted>
1.7999

> <Gold.Chemscore.Rot.Weighted>
5.4671

> <Gold.Chemscore.Internal.Correction.Weighted>
   9.000000E+99

> <Gold.Protein.RotatedTorsions>
[ 6907 6896 6895 6894 ] final   32.58 input  -60.11 | X-H torsion
[ 7974 7965 7964 7962 ] final  147.01 input  175.53 | X-H torsion
[ 8008 7997 7996 7995 ] final  -86.19 input   59.86 | X-H torsion
[ 10167 10162 10161 10158 ] final   61.88 input  -65.29 | X-H torsion
[ 10718 10713 10712 10709 ] final -151.05 input   66.30 | X-H torsion
[ 10763 10752 10751 10750 ] final   54.38 input  -60.55 | X-H torsion
[ 11005 11000 10999 10996 ] final  -35.05 input  -57.11 | X-H torsion

> <Gold.Protein.ActiveResidues>
 VAL166  LYS551  ARG553  GLY616  TRP617  ASP618  TYR619  PRO620  LYS621  CYS622 
 ASP623  PHE694  ASN695  SER759  ASP760  ASP761  ALA762  ILE779  LEU786  VAL792 
 PHE793  MET794  SER795  GLU796  ALA797  LYS798  CYS799  TRP800  GLU811  SER814 

> <Gold.Protein.RotatedAtoms>
  152.0764  134.9500  160.0573 H   0  0  0  0  0  0  0  0  0  0  0  0  # atno 6907 bound_to 6896
  152.0806  133.4146  159.4507 H   0  0  0  0  0  0  0  0  0  0  0  0  # atno 6908 bound_to 6896
  150.6836  134.2907  159.4709 H   0  0  0  0  0  0  0  0  0  0  0  0  # atno 6909 bound_to 6896
  144.8625  139.5976  143.5924 H   0  0  0  0  0  0  0  0  0  0  0  0  # atno 7974 bound_to 7965
  154.6491  140.0581  156.9935 H   0  0  0  0  0  0  0  0  0  0  0  0  # atno 8008 bound_to 7997
  155.1399  140.3264  155.4436 H   0  0  0  0  0  0  0  0  0  0  0  0  # atno 8009 bound_to 7997
  156.2567  140.1966  156.6515 H   0  0  0  0  0  0  0  0  0  0  0  0  # atno 8010 bound_to 7997
  140.1500  144.4472  150.6764 H   0  0  0  0  0  0  0  0  0  0  0  0  # atno 10167 bound_to 10162
  156.4542  130.8182  151.2413 H   0  0  0  0  0  0  0  0  0  0  0  0  # atno 10718 bound_to 10713
  152.9804  135.5747  154.4894 H   0  0  0  0  0  0  0  0  0  0  0  0  # atno 10763 bound_to 10752
  154.4431  135.2776  155.1836 H   0  0  0  0  0  0  0  0  0  0  0  0  # atno 10764 bound_to 10752
  154.3495  135.6212  153.5689 H   0  0  0  0  0  0  0  0  0  0  0  0  # atno 10765 bound_to 10752
  140.9765  133.7080  156.1612 H   0  0  0  0  0  0  0  0  0  0  0  0  # atno 11005 bound_to 11000
  146.2871  139.7035  142.9187 LP  0  0  0  0  0  0  0  0  0  0  0  0  # atno 17320 bound_to 7965
  145.4284  141.0413  143.2924 LP  0  0  0  0  0  0  0  0  0  0  0  0  # atno 17321 bound_to 7965
  140.6708  143.2285  151.5629 LP  0  0  0  0  0  0  0  0  0  0  0  0  # atno 17342 bound_to 10162
  139.5430  144.2595  152.1389 LP  0  0  0  0  0  0  0  0  0  0  0  0  # atno 17343 bound_to 10162
  157.7501  131.0128  150.3399 LP  0  0  0  0  0  0  0  0  0  0  0  0  # atno 17370 bound_to 10713
  156.3784  130.3876  149.7120 LP  0  0  0  0  0  0  0  0  0  0  0  0  # atno 17371 bound_to 10713
  140.7250  134.4316  157.5571 LP  0  0  0  0  0  0  0  0  0  0  0  0  # atno 17394 bound_to 11000
  139.8933  134.8734  156.2231 LP  0  0  0  0  0  0  0  0  0  0  0  0  # atno 17395 bound_to 11000

$$$$
