AV-unprocessed.smi:2459|AV-procd|sdf|9713|dock7
  -GOLD-   2272013353D 1   1.00000     0.00000
 Structure written by MMmdl.
 46 47  0  0  0  0  0  0  0  0  1 V2000
  155.5026  144.5378  167.8574 C   0  0  0  0  0  0  0  0  0  0  0  0
  155.1649  143.9985  166.5806 O   0  0  0  0  0  0  0  0  0  0  0  0
  155.7997  142.7774  166.1726 C   0  0  0  0  0  0  0  0  0  0  0  0
  157.3358  142.9536  166.1189 C   0  0  0  0  0  0  0  0  0  0  0  0
  155.4454  141.7449  167.2573 C   0  0  0  0  0  0  0  0  0  0  0  0
  155.2322  142.2918  164.8180 C   0  0  0  0  0  0  0  0  0  0  0  0
  155.6844  141.2717  164.2981 O   0  0  0  0  0  0  0  0  0  0  0  0
  154.2525  143.0440  164.2799 N   0  0  0  0  0  0  0  0  0  0  0  0
  153.5595  142.8699  163.0516 C   0  0  0  0  0  0  0  0  0  0  0  0
  153.8229  141.7009  162.3104 C   0  0  0  0  0  0  0  0  0  0  0  0
  153.2398  141.4182  161.1276 N   0  0  0  0  0  0  0  0  0  0  0  0
  152.3575  142.3072  160.6138 C   0  0  0  0  0  0  0  0  0  0  0  0
  151.7572  141.9883  159.3858 N   0  0  0  0  0  0  0  0  0  0  0  0
  151.9072  140.5829  159.0172 C   0  0  0  0  0  0  0  0  0  0  0  0
  151.0421  140.2460  157.7908 C   0  0  0  0  0  0  0  0  0  0  0  0
  151.3516  141.1970  156.6230 C   0  0  0  0  0  0  0  0  0  0  0  0
  151.2085  142.6596  157.0750 C   0  0  0  0  0  0  0  0  0  0  0  0
  152.0692  142.9367  158.3196 C   0  0  0  0  0  0  0  0  0  0  0  0
  152.0333  143.5204  161.2673 C   0  0  0  0  0  0  0  0  0  0  0  0
  151.0478  144.5062  160.6642 C   0  0  0  0  0  0  0  0  0  0  0  0
  152.6500  143.8052  162.5037 C   0  0  0  0  0  0  0  0  0  0  0  0
  155.0341  145.5158  167.9643 H   0  0  0  0  0  0  0  0  0  0  0  0
  156.5760  144.6735  167.9893 H   0  0  0  0  0  0  0  0  0  0  0  0
  155.1292  143.9119  168.6679 H   0  0  0  0  0  0  0  0  0  0  0  0
  157.8424  141.9956  165.9941 H   0  0  0  0  0  0  0  0  0  0  0  0
  157.7110  143.3998  167.0405 H   0  0  0  0  0  0  0  0  0  0  0  0
  157.6485  143.5908  165.2909 H   0  0  0  0  0  0  0  0  0  0  0  0
  155.8910  140.7717  167.0462 H   0  0  0  0  0  0  0  0  0  0  0  0
  154.3669  141.6041  167.3394 H   0  0  0  0  0  0  0  0  0  0  0  0
  155.8061  142.0659  168.2350 H   0  0  0  0  0  0  0  0  0  0  0  0
  154.0277  143.8884  164.7866 H   0  0  0  0  0  0  0  0  0  0  0  0
  154.5201  140.9630  162.6797 H   0  0  0  0  0  0  0  0  0  0  0  0
  152.9555  140.3736  158.7996 H   0  0  0  0  0  0  0  0  0  0  0  0
  151.6220  139.9496  159.8583 H   0  0  0  0  0  0  0  0  0  0  0  0
  151.2094  139.2122  157.4879 H   0  0  0  0  0  0  0  0  0  0  0  0
  149.9871  140.3249  158.0567 H   0  0  0  0  0  0  0  0  0  0  0  0
  152.3677  141.0214  156.2676 H   0  0  0  0  0  0  0  0  0  0  0  0
  150.6864  140.9939  155.7834 H   0  0  0  0  0  0  0  0  0  0  0  0
  151.4937  143.3324  156.2661 H   0  0  0  0  0  0  0  0  0  0  0  0
  150.1627  142.8715  157.3014 H   0  0  0  0  0  0  0  0  0  0  0  0
  151.8967  143.9548  158.6713 H   0  0  0  0  0  0  0  0  0  0  0  0
  153.1267  142.8615  158.0622 H   0  0  0  0  0  0  0  0  0  0  0  0
  150.9210  145.3824  161.3004 H   0  0  0  0  0  0  0  0  0  0  0  0
  150.0718  144.0369  160.5371 H   0  0  0  0  0  0  0  0  0  0  0  0
  151.3973  144.8440  159.6882 H   0  0  0  0  0  0  0  0  0  0  0  0
  152.4245  144.7362  162.9996 H   0  0  0  0  0  0  0  0  0  0  0  0
  1  2  1  0  0  0  0
  1 22  1  0  0  0  0
  1 23  1  0  0  0  0
  1 24  1  0  0  0  0
  2  3  1  0  0  0  0
  3  4  1  0  0  0  0
  3  5  1  0  0  0  0
  3  6  1  0  0  0  0
  4 25  1  0  0  0  0
  4 26  1  0  0  0  0
  4 27  1  0  0  0  0
  5 28  1  0  0  0  0
  5 29  1  0  0  0  0
  5 30  1  0  0  0  0
  6  7  2  0  0  0  0
  6  8  1  0  0  0  0
  8  9  1  0  0  0  0
  8 31  1  0  0  0  0
  9 21  1  0  0  0  0
  9 10  2  0  0  0  0
 10 11  1  0  0  0  0
 10 32  1  0  0  0  0
 11 12  2  0  0  0  0
 12 13  1  0  0  0  0
 12 19  1  0  0  0  0
 13 18  1  0  0  0  0
 13 14  1  0  0  0  0
 14 15  1  0  0  0  0
 14 33  1  0  0  0  0
 14 34  1  0  0  0  0
 15 16  1  0  0  0  0
 15 35  1  0  0  0  0
 15 36  1  0  0  0  0
 16 17  1  0  0  0  0
 16 37  1  0  0  0  0
 16 38  1  0  0  0  0
 17 18  1  0  0  0  0
 17 39  1  0  0  0  0
 17 40  1  0  0  0  0
 18 41  1  0  0  0  0
 18 42  1  0  0  0  0
 19 20  1  0  0  0  0
 19 21  2  0  0  0  0
 20 43  1  0  0  0  0
 20 44  1  0  0  0  0
 20 45  1  0  0  0  0
 21 46  1  0  0  0  0
M  END
> <s_m_source_file>
AV-unprocessed.smi

> <i_m_source_file_index>
2459

> <i_lp_mmshare_version>
43012

> <i_f3d_flags>
0

> <s_epik_input>
W0NIM11PQyhbQ0gzXSkoW0NIM10pQyg9TylbTkhdYzFbY0hdbmMoYyhbQ0gzXSlbY0hdMSlOMltDSDJdW0NIMl1bQ0gyXVtDSDJdW0NIMl0y

> <s_epik_cmdline>
J2VwaWtfcHl0aG9uJywgJy1waCcsICc3LjAnLCAnLXRuJywgJzgnLCAnLW1hJywgJzIwMCcsICctbWV0YWxfYmluZGluZycsICctaW1hZScsICc8aW5maWxlLm1hZT4nLCAnLW9tYWUnLCAnPG91dGZpbGUubWFlPic=

> <r_lp_tautomer_probability>
1

> <r_epik_Ionization_Penalty>
0.0966188

> <r_epik_Ionization_Penalty_Charging>
0

> <r_epik_Ionization_Penalty_Neutral>
0.0966188

> <r_epik_State_Penalty>
1.07001

> <r_epik_Charging_Adjusted_Penalty>
1.07001

> <i_epik_Tot_Q>
0

> <i_epik_Tot_abs_Q>
0

> <r_epik_Metal_State_Penalty>
1.00145

> <b_epik_Metal_Only>
0

> <s_lp_Force_Field>
OPLS_2005

> <r_lp_Energy>
29.1962

> <b_lp_Chiralities_Consistent>
1

> <s_lp_Variant>
AV-unprocessed.smi:2459-2

> <Gold.Version>
5.8.1

> <Gold.Id.Protein>
6NUR|6NUR_protein|mol2

> <Gold.PLP.Fitness>
43.7099

> <Gold.PLP.PLP>
-44.0678

> <Gold.PLP.part.hbond>
-1.1896

> <Gold.PLP.part.metal>
0.0000

> <Gold.PLP.part.buried>
-5.7054

> <Gold.PLP.part.nonpolar>
-36.8289

> <Gold.PLP.part.repulsive>
0.1159

> <Gold.PLP.ligand.clash>
0.0000

> <Gold.PLP.ligand.torsion>
0.2815

> <Gold.PLP.Chemscore.Hbond>
0.0000

> <Gold.PLP.Chemscore.CHOScore>
0.0000

> <Gold.PLP.Chemscore.Metal>
0.0000

> <Gold.PLP.Chemscore.Internal.Correction>
0.2050

> <Gold.Rescore>
     Score         DG    S(hbond)    S(metal)    S(lipo)     H(rot)  DE(clash)    DE(int)     intcor
     12.70     -16.26       0.00        0.00     121.02       1.32       1.10       2.46       ----

> <Gold.Chemscore.Fitness>
12.6984

> <Gold.Chemscore.DG>
-16.2628

> <Gold.Chemscore.ZeroCoef>
-5.4800

> <Gold.Chemscore.Hbond>
0.0000

> <Gold.Chemscore.Metal>
0.0000

> <Gold.Chemscore.Lipo>
121.0194

> <Gold.Chemscore.Internal_Hbond>
0.0000

> <Gold.Chemscore.DEClash>
1.1018

> <Gold.Chemscore.DEInternal>
2.4626

> <Gold.Chemscore.Rot>
1.3189

> <Gold.Chemscore.Internal.Correction>
   9.000000E+99

> <Gold.Chemscore.Hbond.Weighted>
-0.0000

> <Gold.Chemscore.Metal.Weighted>
-0.0000

> <Gold.Chemscore.Lipo.Weighted>
-14.1593

> <Gold.Chemscore.Internal_Hbond.Weighted>
0.0000

> <Gold.Chemscore.DEClash.Weighted>
1.1018

> <Gold.Chemscore.DEInternal.Weighted>
2.4626

> <Gold.Chemscore.Rot.Weighted>
3.3764

> <Gold.Chemscore.Internal.Correction.Weighted>
   9.000000E+99

> <Gold.Protein.RotatedTorsions>
[ 6907 6896 6895 6894 ] final  -51.98 input  -60.11 | X-H torsion
[ 7974 7965 7964 7962 ] final  -84.28 input  175.53 | X-H torsion
[ 8008 7997 7996 7995 ] final -110.12 input   59.86 | X-H torsion
[ 10167 10162 10161 10158 ] final -166.01 input  -65.29 | X-H torsion
[ 10718 10713 10712 10709 ] final   -5.73 input   66.30 | X-H torsion
[ 10763 10752 10751 10750 ] final  163.49 input  -60.55 | X-H torsion
[ 11005 11000 10999 10996 ] final  176.66 input  -57.11 | X-H torsion

> <Gold.Protein.ActiveResidues>
 VAL166  LYS551  ARG553  GLY616  TRP617  ASP618  TYR619  PRO620  LYS621  CYS622 
 ASP623  PHE694  ASN695  SER759  ASP760  ASP761  ALA762  ILE779  LEU786  VAL792 
 PHE793  MET794  SER795  GLU796  ALA797  LYS798  CYS799  TRP800  GLU811  SER814 

> <Gold.Protein.RotatedAtoms>
  150.8560  134.7899  159.7045 H   0  0  0  0  0  0  0  0  0  0  0  0  # atno 6907 bound_to 6896
  152.4611  134.5178  159.9783 H   0  0  0  0  0  0  0  0  0  0  0  0  # atno 6908 bound_to 6896
  151.5290  133.3414  159.2950 H   0  0  0  0  0  0  0  0  0  0  0  0  # atno 6909 bound_to 6896
  145.5087  140.9541  143.1719 H   0  0  0  0  0  0  0  0  0  0  0  0  # atno 7974 bound_to 7965
  154.9697  140.0398  157.2228 H   0  0  0  0  0  0  0  0  0  0  0  0  # atno 8008 bound_to 7997
  154.7813  140.2819  155.6039 H   0  0  0  0  0  0  0  0  0  0  0  0  # atno 8009 bound_to 7997
  156.2936  140.2591  156.2638 H   0  0  0  0  0  0  0  0  0  0  0  0  # atno 8010 bound_to 7997
  139.6144  144.0750  152.1873 H   0  0  0  0  0  0  0  0  0  0  0  0  # atno 10167 bound_to 10162
  156.7423  130.5213  149.5821 H   0  0  0  0  0  0  0  0  0  0  0  0  # atno 10718 bound_to 10713
  154.2945  135.2760  155.2640 H   0  0  0  0  0  0  0  0  0  0  0  0  # atno 10763 bound_to 10752
  154.5104  135.5784  153.6604 H   0  0  0  0  0  0  0  0  0  0  0  0  # atno 10764 bound_to 10752
  152.9909  135.6179  154.3111 H   0  0  0  0  0  0  0  0  0  0  0  0  # atno 10765 bound_to 10752
  140.3755  134.6992  157.4419 H   0  0  0  0  0  0  0  0  0  0  0  0  # atno 11005 bound_to 11000
  144.7739  139.6672  143.7183 LP  0  0  0  0  0  0  0  0  0  0  0  0  # atno 17320 bound_to 7965
  146.2180  139.5584  142.9637 LP  0  0  0  0  0  0  0  0  0  0  0  0  # atno 17321 bound_to 7965
  140.0377  144.6032  150.7436 LP  0  0  0  0  0  0  0  0  0  0  0  0  # atno 17342 bound_to 10162
  140.7341  143.2724  151.3845 LP  0  0  0  0  0  0  0  0  0  0  0  0  # atno 17343 bound_to 10162
  156.1456  130.6275  151.0527 LP  0  0  0  0  0  0  0  0  0  0  0  0  # atno 17370 bound_to 10713
  157.6813  131.0837  150.7362 LP  0  0  0  0  0  0  0  0  0  0  0  0  # atno 17371 bound_to 10713
  140.0518  134.6119  155.8852 LP  0  0  0  0  0  0  0  0  0  0  0  0  # atno 17394 bound_to 11000
  141.1941  133.6581  156.5577 LP  0  0  0  0  0  0  0  0  0  0  0  0  # atno 17395 bound_to 11000

$$$$
