AV-unprocessed.smi:203|AV-procd|sdf|1594|dock8
  -GOLD-   2262019493D 1   1.00000     0.00000
 Structure written by MMmdl.
 57 61  0  0  0  0  0  0  0  0  1 V2000
  146.5903  132.5513  154.1983 O   0  0  0  0  0  0  0  0  0  0  0  0
  146.1466  133.6182  154.6159 C   0  0  0  0  0  0  0  0  0  0  0  0
  146.9965  134.8621  154.8109 C   0  0  0  0  0  0  0  0  0  0  0  0
  145.9605  135.9677  155.1003 C   0  0  1  0  0  0  0  0  0  0  0  0
  145.8037  137.0234  153.9598 C   0  0  2  0  0  0  0  0  0  0  0  0
  145.5403  136.3763  152.5739 C   0  0  0  0  0  0  0  0  0  0  0  0
  145.3857  137.4334  151.4726 C   0  0  0  0  0  0  0  0  0  0  0  0
  146.6199  138.3410  151.4441 C   0  0  0  0  0  0  0  0  0  0  0  0
  146.8508  138.9704  152.8243 C   0  0  0  0  0  0  0  0  0  0  0  0
  146.9478  137.9487  153.8665 N   0  0  0  0  0  0  0  0  0  0  0  0
  147.3742  138.4987  155.0254 C   0  0  0  0  0  0  0  0  0  0  0  0
  146.5112  138.4854  156.0704 N   0  0  0  0  0  0  0  0  0  0  0  0
  146.8707  139.0252  157.2390 C   0  0  0  0  0  0  0  0  0  0  0  0
  148.0228  139.6139  157.5684 N   0  0  0  0  0  0  0  0  0  0  0  0
  148.8949  139.6195  156.5197 C   0  0  0  0  0  0  0  0  0  0  0  0
  148.6558  139.0861  155.2223 C   0  0  0  0  0  0  0  0  0  0  0  0
  149.7736  139.2747  154.4181 N   0  0  0  0  0  0  0  0  0  0  0  0
  150.6237  139.8890  155.1948 C   0  0  0  0  0  0  0  0  0  0  0  0
  150.1763  140.1390  156.4720 N   0  0  0  0  0  0  0  0  0  0  0  0
  150.9118  140.8093  157.5304 C   0  0  0  0  0  0  0  0  0  0  0  0
  151.0581  142.3247  157.2745 C   0  0  1  0  0  0  0  0  0  0  0  0
  149.7624  142.8922  157.2434 O   0  0  0  0  0  0  0  0  0  0  0  0
  151.8636  143.0524  158.3699 C   0  0  1  0  0  0  0  0  0  0  0  0
  152.0103  144.5621  158.1663 C   0  0  0  0  0  0  0  0  0  0  0  0
  152.2409  145.0940  159.5709 C   0  0  0  0  0  0  0  0  0  0  0  0
  151.7466  143.9639  160.4764 C   0  0  0  0  0  0  0  0  0  0  0  0
  151.1513  143.0188  159.5982 O   0  0  0  0  0  0  0  0  0  0  0  0
  144.6518  135.2115  155.4145 C   0  0  0  0  0  0  0  0  0  0  0  0
  144.8818  133.8543  154.9585 N   0  0  0  0  0  0  0  0  0  0  0  0
  147.6585  134.7125  155.6643 H   0  0  0  0  0  0  0  0  0  0  0  0
  147.6152  135.0652  153.9363 H   0  0  0  0  0  0  0  0  0  0  0  0
  146.2479  136.4787  156.0196 H   0  0  0  0  0  0  0  0  0  0  0  0
  144.9280  137.6282  154.1977 H   0  0  0  0  0  0  0  0  0  0  0  0
  146.3607  135.7109  152.3049 H   0  0  0  0  0  0  0  0  0  0  0  0
  144.6431  135.7588  152.5962 H   0  0  0  0  0  0  0  0  0  0  0  0
  145.2507  136.9509  150.5042 H   0  0  0  0  0  0  0  0  0  0  0  0
  144.4907  138.0296  151.6548 H   0  0  0  0  0  0  0  0  0  0  0  0
  147.4976  137.7623  151.1526 H   0  0  0  0  0  0  0  0  0  0  0  0
  146.4961  139.1210  150.6923 H   0  0  0  0  0  0  0  0  0  0  0  0
  147.7630  139.5687  152.8020 H   0  0  0  0  0  0  0  0  0  0  0  0
  146.0307  139.6506  153.0590 H   0  0  0  0  0  0  0  0  0  0  0  0
  146.1279  138.9806  158.0218 H   0  0  0  0  0  0  0  0  0  0  0  0
  151.6064  140.1830  154.8550 H   0  0  0  0  0  0  0  0  0  0  0  0
  150.4083  140.6282  158.4810 H   0  0  0  0  0  0  0  0  0  0  0  0
  151.8904  140.3345  157.6023 H   0  0  0  0  0  0  0  0  0  0  0  0
  151.5337  142.4808  156.3053 H   0  0  0  0  0  0  0  0  0  0  0  0
  149.7646  143.6119  156.6308 H   0  0  0  0  0  0  0  0  0  0  0  0
  152.8495  142.6012  158.4997 H   0  0  0  0  0  0  0  0  0  0  0  0
  152.8178  144.8204  157.4807 H   0  0  0  0  0  0  0  0  0  0  0  0
  151.0835  144.9787  157.7690 H   0  0  0  0  0  0  0  0  0  0  0  0
  153.2980  145.2922  159.7521 H   0  0  0  0  0  0  0  0  0  0  0  0
  151.6906  146.0207  159.7364 H   0  0  0  0  0  0  0  0  0  0  0  0
  152.5820  143.4951  160.9984 H   0  0  0  0  0  0  0  0  0  0  0  0
  151.0291  144.3088  161.2213 H   0  0  0  0  0  0  0  0  0  0  0  0
  144.4646  135.1909  156.4889 H   0  0  0  0  0  0  0  0  0  0  0  0
  143.7745  135.6486  154.9376 H   0  0  0  0  0  0  0  0  0  0  0  0
  144.1447  133.1659  154.9075 H   0  0  0  0  0  0  0  0  0  0  0  0
  1  2  2  0  0  0  0
  2 29  1  0  0  0  0
  2  3  1  0  0  0  0
  3  4  1  0  0  0  0
  3 30  1  0  0  0  0
  3 31  1  0  0  0  0
  4  5  1  0  0  0  0
  4 28  1  0  0  0  0
  4 32  1  0  0  0  0
  5 10  1  0  0  0  0
  5  6  1  0  0  0  0
  5 33  1  0  0  0  0
  6  7  1  0  0  0  0
  6 34  1  0  0  0  0
  6 35  1  0  0  0  0
  7  8  1  0  0  0  0
  7 36  1  0  0  0  0
  7 37  1  0  0  0  0
  8  9  1  0  0  0  0
  8 38  1  0  0  0  0
  8 39  1  0  0  0  0
  9 10  1  0  0  0  0
  9 40  1  0  0  0  0
  9 41  1  0  0  0  0
 10 11  1  0  0  0  0
 11 16  1  0  0  0  0
 11 12  2  0  0  0  0
 12 13  1  0  0  0  0
 13 14  2  0  0  0  0
 13 42  1  0  0  0  0
 14 15  1  0  0  0  0
 15 19  1  0  0  0  0
 15 16  2  0  0  0  0
 16 17  1  0  0  0  0
 17 18  2  0  0  0  0
 18 19  1  0  0  0  0
 18 43  1  0  0  0  0
 19 20  1  0  0  0  0
 20 21  1  0  0  0  0
 20 44  1  0  0  0  0
 20 45  1  0  0  0  0
 21 22  1  0  0  0  0
 21 23  1  0  0  0  0
 21 46  1  0  0  0  0
 22 47  1  0  0  0  0
 23 27  1  0  0  0  0
 23 24  1  0  0  0  0
 23 48  1  0  0  0  0
 24 25  1  0  0  0  0
 24 49  1  0  0  0  0
 24 50  1  0  0  0  0
 25 26  1  0  0  0  0
 25 51  1  0  0  0  0
 25 52  1  0  0  0  0
 26 27  1  0  0  0  0
 26 53  1  0  0  0  0
 26 54  1  0  0  0  0
 28 29  1  0  0  0  0
 28 55  1  0  0  0  0
 28 56  1  0  0  0  0
 29 57  1  0  0  0  0
M  END
> <s_m_source_file>
AV-unprocessed.smi

> <i_m_source_file_index>
203

> <i_lp_mmshare_version>
43012

> <i_f3d_flags>
0

> <s_epik_input>
Tz1DMVtDSDJdW0NASF0oW0NIMl1bTkhdMSlbQ0BASF0yW0NIMl1bQ0gyXVtDSDJdW0NIMl1OMmMobltjSF1uMyljKGMzNCluW2NIXW40W0NIMl1bQ0BIXShbT0hdKVtDQEBIXTVbQ0gyXVtDSDJdW0NIMl1PNQ==

> <s_epik_cmdline>
J2VwaWtfcHl0aG9uJywgJy1waCcsICc3LjAnLCAnLXRuJywgJzgnLCAnLW1hJywgJzIwMCcsICctbWV0YWxfYmluZGluZycsICctaW1hZScsICc8aW5maWxlLm1hZT4nLCAnLW9tYWUnLCAnPG91dGZpbGUubWFlPic=

> <r_lp_tautomer_probability>
1

> <r_epik_Ionization_Penalty>
0.00175146

> <r_epik_Ionization_Penalty_Charging>
0

> <r_epik_Ionization_Penalty_Neutral>
0.00175146

> <r_epik_State_Penalty>
0.00109045

> <r_epik_Charging_Adjusted_Penalty>
0.00109045

> <i_epik_Tot_Q>
0

> <i_epik_Tot_abs_Q>
0

> <r_epik_Metal_State_Penalty>
-0

> <b_epik_Metal_Only>
0

> <s_lp_Force_Field>
OPLS_2005

> <r_lp_Energy>
57.3178

> <b_lp_Chiralities_Consistent>
1

> <s_lp_Variant>
AV-unprocessed.smi:203-13

> <Gold.Version>
5.8.1

> <Gold.Id.Protein>
6NUR|6NUR_protein|mol2

> <Gold.PLP.Fitness>
40.3643

> <Gold.PLP.PLP>
-35.2689

> <Gold.PLP.part.hbond>
-2.1489

> <Gold.PLP.part.metal>
0.0000

> <Gold.PLP.part.buried>
0.3684

> <Gold.PLP.part.nonpolar>
-34.2417

> <Gold.PLP.part.repulsive>
0.3984

> <Gold.PLP.ligand.clash>
0.0000

> <Gold.PLP.ligand.torsion>
0.5501

> <Gold.PLP.Chemscore.Hbond>
1.9750

> <Gold.PLP.Chemscore.CHOScore>
0.0000

> <Gold.PLP.Chemscore.Metal>
0.0000

> <Gold.Chemscore.Hbonds>
donor molecule, donor type, donor heavy atom, donor atom, acceptor molecule, acceptor atom, score
      L1  H    22    47       P1  8028  0.99
      L1  H    29    57       P1 10957  0.99

> <Gold.PLP.Chemscore.Internal.Correction>
0.2705

> <Gold.Rescore>
     Score         DG    S(hbond)    S(metal)    S(lipo)     H(rot)  DE(clash)    DE(int)     intcor
     13.16     -16.76       1.98        0.00      99.40       2.72       1.57       2.03       ----

> <Gold.Chemscore.Fitness>
13.1562

> <Gold.Chemscore.DG>
-16.7579

> <Gold.Chemscore.ZeroCoef>
-5.4800

> <Gold.Chemscore.Hbond>
1.9773

> <Gold.Chemscore.Metal>
0.0000

> <Gold.Chemscore.Lipo>
99.3977

> <Gold.Chemscore.Internal_Hbond>
0.0000

> <Gold.Chemscore.DEClash>
1.5707

> <Gold.Chemscore.DEInternal>
2.0311

> <Gold.Chemscore.Rot>
2.7171

> <Gold.Chemscore.Internal.Correction>
   9.000000E+99

> <Gold.Chemscore.Hbonds>
donor molecule, donor type, donor heavy atom, donor atom, acceptor molecule, acceptor atom, score
      L1  H    22    47       P1  8028  0.93
      L1  H    29    57       P1 10957  0.92

> <Gold.Chemscore.Hbond.Weighted>
-6.6041

> <Gold.Chemscore.Metal.Weighted>
-0.0000

> <Gold.Chemscore.Lipo.Weighted>
-11.6295

> <Gold.Chemscore.Internal_Hbond.Weighted>
0.0000

> <Gold.Chemscore.DEClash.Weighted>
1.5707

> <Gold.Chemscore.DEInternal.Weighted>
2.0311

> <Gold.Chemscore.Rot.Weighted>
6.9557

> <Gold.Chemscore.Internal.Correction.Weighted>
   9.000000E+99

> <Gold.Protein.RotatedTorsions>
[ 6907 6896 6895 6894 ] final -147.12 input  -60.11 | X-H torsion
[ 7974 7965 7964 7962 ] final  -16.68 input  175.53 | X-H torsion
[ 8008 7997 7996 7995 ] final   13.84 input   59.86 | X-H torsion
[ 10167 10162 10161 10158 ] final  107.36 input  -65.29 | X-H torsion
[ 10718 10713 10712 10709 ] final   73.86 input   66.30 | X-H torsion
[ 10763 10752 10751 10750 ] final -121.76 input  -60.55 | X-H torsion
[ 11005 11000 10999 10996 ] final  144.51 input  -57.11 | X-H torsion

> <Gold.Protein.ActiveResidues>
 VAL166  LYS551  ARG553  GLY616  TRP617  ASP618  TYR619  PRO620  LYS621  CYS622 
 ASP623  PHE694  ASN695  SER759  ASP760  ASP761  ALA762  ILE779  LEU786  VAL792 
 PHE793  MET794  SER795  GLU796  ALA797  LYS798  CYS799  TRP800  GLU811  SER814 

> <Gold.Protein.RotatedAtoms>
  151.1512  133.4906  159.2595 H   0  0  0  0  0  0  0  0  0  0  0  0  # atno 6907 bound_to 6896
  151.1552  135.0246  159.8696 H   0  0  0  0  0  0  0  0  0  0  0  0  # atno 6908 bound_to 6896
  152.5463  134.1392  159.8525 H   0  0  0  0  0  0  0  0  0  0  0  0  # atno 6909 bound_to 6896
  146.1976  140.3671  142.8435 H   0  0  0  0  0  0  0  0  0  0  0  0  # atno 7974 bound_to 7965
  154.8401  140.2913  155.5665 H   0  0  0  0  0  0  0  0  0  0  0  0  # atno 8008 bound_to 7997
  156.3011  140.2515  156.3274 H   0  0  0  0  0  0  0  0  0  0  0  0  # atno 8009 bound_to 7997
  154.9135  140.0388  157.1948 H   0  0  0  0  0  0  0  0  0  0  0  0  # atno 8010 bound_to 7997
  139.6933  144.7105  151.1310 H   0  0  0  0  0  0  0  0  0  0  0  0  # atno 10167 bound_to 10162
  157.6567  130.9649  150.1130 H   0  0  0  0  0  0  0  0  0  0  0  0  # atno 10718 bound_to 10713
  154.8675  135.4156  154.2673 H   0  0  0  0  0  0  0  0  0  0  0  0  # atno 10763 bound_to 10752
  153.3590  135.7002  153.6733 H   0  0  0  0  0  0  0  0  0  0  0  0  # atno 10764 bound_to 10752
  153.5642  135.3604  155.2784 H   0  0  0  0  0  0  0  0  0  0  0  0  # atno 10765 bound_to 10752
  140.0638  134.9190  157.1230 H   0  0  0  0  0  0  0  0  0  0  0  0  # atno 11005 bound_to 11000
  144.8614  140.7144  143.6105 LP  0  0  0  0  0  0  0  0  0  0  0  0  # atno 17320 bound_to 7965
  145.3591  139.1686  143.4393 LP  0  0  0  0  0  0  0  0  0  0  0  0  # atno 17321 bound_to 7965
  140.7689  143.5528  150.9186 LP  0  0  0  0  0  0  0  0  0  0  0  0  # atno 17342 bound_to 10162
  139.9206  143.6610  152.3097 LP  0  0  0  0  0  0  0  0  0  0  0  0  # atno 17343 bound_to 10162
  156.2021  130.3661  149.8775 LP  0  0  0  0  0  0  0  0  0  0  0  0  # atno 17370 bound_to 10713
  156.6676  130.8807  151.3557 LP  0  0  0  0  0  0  0  0  0  0  0  0  # atno 17371 bound_to 10713
  140.3730  134.2370  155.7176 LP  0  0  0  0  0  0  0  0  0  0  0  0  # atno 17394 bound_to 11000
  141.1984  133.8036  157.0583 LP  0  0  0  0  0  0  0  0  0  0  0  0  # atno 17395 bound_to 11000

$$$$
