AV-unprocessed.smi:2764|AV-procd|sdf|10643|dock10
  -GOLD-   2272015 93D 1   1.00000     0.00000
 Structure written by MMmdl.
 47 49  0  0  0  0  0  0  0  0  2 V2000
  149.4934  140.3857  156.2763 O   0  0  0  0  0  0  0  0  0  0  0  0
  149.3885  141.5966  156.0800 C   0  0  0  0  0  0  0  0  0  0  0  0
  150.0238  142.5566  156.7753 N   0  0  0  0  0  0  0  0  0  0  0  0
  150.9408  142.4017  157.8491 C   0  0  0  0  0  0  0  0  0  0  0  0
  151.5751  143.5927  158.2703 C   0  0  0  0  0  0  0  0  0  0  0  0
  152.5031  143.5466  159.3291 C   0  0  0  0  0  0  0  0  0  0  0  0
  152.7717  142.3082  159.9386 C   0  0  0  0  0  0  0  0  0  0  0  0
  153.6552  142.2145  160.9604 F   0  0  0  0  0  0  0  0  0  0  0  0
  152.0984  141.1693  159.4593 C   0  0  0  0  0  0  0  0  0  0  0  0
  151.2091  141.2122  158.4442 N   0  0  0  0  0  0  0  0  0  0  0  0
  148.6103  142.1237  155.1230 N   0  0  0  0  0  0  0  0  0  0  0  0
  147.7743  141.3595  154.1969 C   0  0  2  0  0  0  0  0  0  0  0  0
  146.9467  142.2758  153.2747 C   0  0  0  0  0  0  0  0  0  0  0  0
  145.8322  143.0099  154.0405 C   0  0  0  0  0  0  0  0  0  0  0  0
  144.9430  142.0542  154.7523 N   0  3  2  0  0  0  0  0  0  0  0  0
  143.7808  142.7343  155.3839 C   0  0  0  0  0  0  0  0  0  0  0  0
  144.0911  144.1804  155.8253 C   0  0  1  0  0  0  0  0  0  0  0  0
  143.9278  145.2543  154.7522 C   0  0  0  0  0  0  0  0  0  0  0  0
  143.3268  146.4554  155.4900 C   0  0  0  0  0  0  0  0  0  0  0  0
  143.3186  146.0889  156.8612 O   0  0  0  0  0  0  0  0  0  0  0  0
  143.1505  144.6844  156.9189 C   0  0  0  0  0  0  0  0  0  0  0  0
  145.7122  141.1983  155.6947 C   0  0  0  0  0  0  0  0  0  0  0  0
  146.8295  140.4246  154.9703 C   0  0  0  0  0  0  0  0  0  0  0  0
  149.8326  143.5097  156.5044 H   0  0  0  0  0  0  0  0  0  0  0  0
  151.3556  144.5356  157.7908 H   0  0  0  0  0  0  0  0  0  0  0  0
  152.9982  144.4451  159.6664 H   0  0  0  0  0  0  0  0  0  0  0  0
  152.2766  140.1999  159.9010 H   0  0  0  0  0  0  0  0  0  0  0  0
  148.5802  143.1293  155.0399 H   0  0  0  0  0  0  0  0  0  0  0  0
  148.4334  140.7431  153.5827 H   0  0  0  0  0  0  0  0  0  0  0  0
  147.5892  142.9968  152.7681 H   0  0  0  0  0  0  0  0  0  0  0  0
  146.4960  141.6724  152.4855 H   0  0  0  0  0  0  0  0  0  0  0  0
  146.2617  143.7137  154.7554 H   0  0  0  0  0  0  0  0  0  0  0  0
  145.2496  143.5977  153.3302 H   0  0  0  0  0  0  0  0  0  0  0  0
  142.9041  142.6894  154.7362 H   0  0  0  0  0  0  0  0  0  0  0  0
  143.5089  142.1812  156.2842 H   0  0  0  0  0  0  0  0  0  0  0  0
  145.1066  144.2316  156.2219 H   0  0  0  0  0  0  0  0  0  0  0  0
  144.8869  145.5054  154.2987 H   0  0  0  0  0  0  0  0  0  0  0  0
  143.2529  144.9361  153.9569 H   0  0  0  0  0  0  0  0  0  0  0  0
  143.8988  147.3707  155.3361 H   0  0  0  0  0  0  0  0  0  0  0  0
  142.3031  146.6348  155.1590 H   0  0  0  0  0  0  0  0  0  0  0  0
  142.1114  144.4302  156.7014 H   0  0  0  0  0  0  0  0  0  0  0  0
  143.4029  144.2920  157.9043 H   0  0  0  0  0  0  0  0  0  0  0  0
  146.1334  141.8167  156.4888 H   0  0  0  0  0  0  0  0  0  0  0  0
  145.0549  140.4781  156.1760 H   0  0  0  0  0  0  0  0  0  0  0  0
  146.3768  139.7185  154.2729 H   0  0  0  0  0  0  0  0  0  0  0  0
  147.3935  139.8231  155.6844 H   0  0  0  0  0  0  0  0  0  0  0  0
  144.5645  141.4458  154.0405 H   0  0  0  0  0  0  0  0  0  0  0  0
  1  2  2  0  0  0  0
  2  3  1  0  0  0  0
  2 11  1  0  0  0  0
  3  4  1  0  0  0  0
  3 24  1  0  0  0  0
  4 10  1  0  0  0  0
  4  5  2  0  0  0  0
  5  6  1  0  0  0  0
  5 25  1  0  0  0  0
  6  7  2  0  0  0  0
  6 26  1  0  0  0  0
  7  8  1  0  0  0  0
  7  9  1  0  0  0  0
  9 10  2  0  0  0  0
  9 27  1  0  0  0  0
 11 12  1  0  0  0  0
 11 28  1  0  0  0  0
 12 23  1  0  0  0  0
 12 13  1  0  0  0  0
 12 29  1  0  0  0  0
 13 14  1  0  0  0  0
 13 30  1  0  0  0  0
 13 31  1  0  0  0  0
 14 15  1  0  0  0  0
 14 32  1  0  0  0  0
 14 33  1  0  0  0  0
 15 16  1  0  0  0  0
 15 22  1  0  0  0  0
 15 47  1  0  0  0  0
 16 17  1  0  0  0  0
 16 34  1  0  0  0  0
 16 35  1  0  0  0  0
 17 21  1  0  0  0  0
 17 18  1  0  0  0  0
 17 36  1  0  0  0  0
 18 19  1  0  0  0  0
 18 37  1  0  0  0  0
 18 38  1  0  0  0  0
 19 20  1  0  0  0  0
 19 39  1  0  0  0  0
 19 40  1  0  0  0  0
 20 21  1  0  0  0  0
 21 41  1  0  0  0  0
 21 42  1  0  0  0  0
 22 23  1  0  0  0  0
 22 43  1  0  0  0  0
 22 44  1  0  0  0  0
 23 45  1  0  0  0  0
 23 46  1  0  0  0  0
M  CHG  1  15   1
M  END
> <s_m_source_file>
AV-unprocessed.smi

> <i_m_source_file_index>
2764

> <i_lp_mmshare_version>
43012

> <i_f3d_flags>
0

> <s_epik_input>
bjFbY0hdYyhGKVtjSF1bY0hdYzFbTkhdQyg9TylbTkhdW0NIXTJbQ0gyXVtDSDJdTihbQ0gyXVtDSDJdMilbQ0gyXVtDQEBIXTNbQ0gyXVtDSDJdT1tDSDJdMw==

> <s_epik_cmdline>
J2VwaWtfcHl0aG9uJywgJy1waCcsICc3LjAnLCAnLXRuJywgJzgnLCAnLW1hJywgJzIwMCcsICctbWV0YWxfYmluZGluZycsICctaW1hZScsICc8aW5maWxlLm1hZT4nLCAnLW9tYWUnLCAnPG91dGZpbGUubWFlPic=

> <r_epik_Ionization_Penalty>
0.0075076

> <r_epik_Ionization_Penalty_Charging>
0.00747775

> <r_epik_Ionization_Penalty_Neutral>
2.98483e-05

> <r_epik_State_Penalty>
0.00558817

> <r_epik_Charging_Adjusted_Penalty>
0.0130659

> <i_epik_Tot_Q>
1

> <i_epik_Tot_abs_Q>
1

> <r_epik_Metal_State_Penalty>
-0

> <b_epik_Metal_Only>
0

> <s_lp_Force_Field>
OPLS_2005

> <r_lp_Energy>
38.1344

> <b_lp_Chiralities_Consistent>
1

> <s_lp_Variant>
AV-unprocessed.smi:2764-4

> <Gold.Version>
5.8.1

> <Gold.Id.Protein>
6NUR|6NUR_protein|mol2

> <Gold.PLP.Fitness>
52.4528

> <Gold.PLP.PLP>
-41.8773

> <Gold.PLP.part.hbond>
-3.0000

> <Gold.PLP.part.metal>
0.0000

> <Gold.PLP.part.buried>
-7.3021

> <Gold.PLP.part.nonpolar>
-31.8393

> <Gold.PLP.part.repulsive>
0.2757

> <Gold.PLP.ligand.clash>
0.0000

> <Gold.PLP.ligand.torsion>
0.7239

> <Gold.PLP.Chemscore.Hbond>
4.0000

> <Gold.PLP.Chemscore.CHOScore>
0.0000

> <Gold.PLP.Chemscore.Metal>
0.0000

> <Gold.Chemscore.Hbonds>
donor molecule, donor type, donor heavy atom, donor atom, acceptor molecule, acceptor atom, score
      L1  H     3    24       P1  8028  1.00
      L1  H    11    28       P1  8028  1.00
      L1  H    15    47       P1 10175  2.00

> <Gold.PLP.Chemscore.Internal.Correction>
0.0231

> <Gold.Rescore>
     Score         DG    S(hbond)    S(metal)    S(lipo)     H(rot)  DE(clash)    DE(int)     intcor
     17.81     -21.97       2.75        0.00      95.12       1.49       2.17       2.00       ----

> <Gold.Chemscore.Fitness>
17.8089

> <Gold.Chemscore.DG>
-21.9724

> <Gold.Chemscore.ZeroCoef>
-5.4800

> <Gold.Chemscore.Hbond>
2.7472

> <Gold.Chemscore.Metal>
0.0000

> <Gold.Chemscore.Lipo>
95.1188

> <Gold.Chemscore.Internal_Hbond>
0.0000

> <Gold.Chemscore.DEClash>
2.1662

> <Gold.Chemscore.DEInternal>
1.9973

> <Gold.Chemscore.Rot>
1.4891

> <Gold.Chemscore.Internal.Correction>
   9.000000E+99

> <Gold.Chemscore.Hbonds>
donor molecule, donor type, donor heavy atom, donor atom, acceptor molecule, acceptor atom, score
      L1  H     3    24       P1  8028  0.97
      L1  H    11    28       P1  8028  0.97
      L1  H    15    47       P1 10175  0.33

> <Gold.Chemscore.Hbond.Weighted>
-9.1756

> <Gold.Chemscore.Metal.Weighted>
-0.0000

> <Gold.Chemscore.Lipo.Weighted>
-11.1289

> <Gold.Chemscore.Internal_Hbond.Weighted>
0.0000

> <Gold.Chemscore.DEClash.Weighted>
2.1662

> <Gold.Chemscore.DEInternal.Weighted>
1.9973

> <Gold.Chemscore.Rot.Weighted>
3.8121

> <Gold.Chemscore.Internal.Correction.Weighted>
   9.000000E+99

> <Gold.Protein.RotatedTorsions>
[ 6907 6896 6895 6894 ] final    1.45 input  -60.11 | X-H torsion
[ 7974 7965 7964 7962 ] final  147.15 input  175.53 | X-H torsion
[ 8008 7997 7996 7995 ] final  -62.71 input   59.86 | X-H torsion
[ 10167 10162 10161 10158 ] final -153.53 input  -65.29 | X-H torsion
[ 10718 10713 10712 10709 ] final   45.72 input   66.30 | X-H torsion
[ 10763 10752 10751 10750 ] final  147.93 input  -60.55 | X-H torsion
[ 11005 11000 10999 10996 ] final   13.26 input  -57.11 | X-H torsion

> <Gold.Protein.ActiveResidues>
 VAL166  LYS551  ARG553  GLY616  TRP617  ASP618  TYR619  PRO620  LYS621  CYS622 
 ASP623  PHE694  ASN695  SER759  ASP760  ASP761  ALA762  ILE779  LEU786  VAL792 
 PHE793  MET794  SER795  GLU796  ALA797  LYS798  CYS799  TRP800  GLU811  SER814 

> <Gold.Protein.RotatedAtoms>
  151.5929  135.1052  160.0042 H   0  0  0  0  0  0  0  0  0  0  0  0  # atno 6907 bound_to 6896
  152.4297  133.7252  159.6567 H   0  0  0  0  0  0  0  0  0  0  0  0  # atno 6908 bound_to 6896
  150.8189  133.8217  159.3170 H   0  0  0  0  0  0  0  0  0  0  0  0  # atno 6909 bound_to 6896
  144.8614  139.5993  143.5929 H   0  0  0  0  0  0  0  0  0  0  0  0  # atno 7974 bound_to 7965
  154.4514  140.0990  156.6630 H   0  0  0  0  0  0  0  0  0  0  0  0  # atno 8008 bound_to 7997
  155.5272  140.3480  155.4400 H   0  0  0  0  0  0  0  0  0  0  0  0  # atno 8009 bound_to 7997
  156.0689  140.1344  156.9841 H   0  0  0  0  0  0  0  0  0  0  0  0  # atno 8010 bound_to 7997
  139.7089  143.9140  152.2460 H   0  0  0  0  0  0  0  0  0  0  0  0  # atno 10167 bound_to 10162
  157.4405  130.8078  149.7689 H   0  0  0  0  0  0  0  0  0  0  0  0  # atno 10718 bound_to 10713
  154.0464  135.2885  155.3347 H   0  0  0  0  0  0  0  0  0  0  0  0  # atno 10763 bound_to 10752
  154.6896  135.5231  153.8378 H   0  0  0  0  0  0  0  0  0  0  0  0  # atno 10764 bound_to 10752
  153.0578  135.6602  154.0664 H   0  0  0  0  0  0  0  0  0  0  0  0  # atno 10765 bound_to 10752
  140.4827  134.0919  155.7754 H   0  0  0  0  0  0  0  0  0  0  0  0  # atno 11005 bound_to 11000
  146.2863  139.7014  142.9193 LP  0  0  0  0  0  0  0  0  0  0  0  0  # atno 17320 bound_to 7965
  145.4305  141.0414  143.2913 LP  0  0  0  0  0  0  0  0  0  0  0  0  # atno 17321 bound_to 7965
  139.9004  144.6915  150.8672 LP  0  0  0  0  0  0  0  0  0  0  0  0  # atno 17342 bound_to 10162
  140.7728  143.3518  151.1999 LP  0  0  0  0  0  0  0  0  0  0  0  0  # atno 17343 bound_to 10162
  155.9947  130.3916  150.2849 LP  0  0  0  0  0  0  0  0  0  0  0  0  # atno 17370 bound_to 10713
  157.1013  131.0196  151.3084 LP  0  0  0  0  0  0  0  0  0  0  0  0  # atno 17371 bound_to 10713
  141.1523  133.8946  157.2066 LP  0  0  0  0  0  0  0  0  0  0  0  0  # atno 17394 bound_to 11000
  139.9817  135.0096  156.9764 LP  0  0  0  0  0  0  0  0  0  0  0  0  # atno 17395 bound_to 11000

$$$$
