AV-unprocessed.smi:221|AV-procd|sdf|1701|dock9
  -GOLD-   2262020153D 1   1.00000     0.00000
 Structure written by MMmdl.
 50 53  0  0  0  0  0  0  0  0  1 V2000
  145.0287  135.9246  149.7596 N   0  0  0  0  0  0  0  0  0  0  0  0
  145.2075  135.4153  150.9835 C   0  0  0  0  0  0  0  0  0  0  0  0
  145.7264  134.3133  151.1477 O   0  0  0  0  0  0  0  0  0  0  0  0
  144.7342  136.2277  152.2056 C   0  0  1  0  0  0  0  0  0  0  0  0
  143.2110  136.4649  152.1988 C   0  0  0  0  0  0  0  0  0  0  0  0
  142.6668  135.3706  153.1097 C   0  0  2  0  0  0  0  0  0  0  0  0
  141.4667  135.6671  153.6078 F   0  0  0  0  0  0  0  0  0  0  0  0
  143.7449  135.2822  154.1833 C   0  0  0  0  0  0  0  0  0  0  0  0
  144.9941  135.5388  153.4777 N   0  0  0  0  0  0  0  0  0  0  0  0
  146.0068  135.9990  154.2438 C   0  0  0  0  0  0  0  0  0  0  0  0
  146.4024  135.3041  155.3422 N   0  0  0  0  0  0  0  0  0  0  0  0
  147.4100  135.7623  156.0916 C   0  0  0  0  0  0  0  0  0  0  0  0
  148.1413  136.8672  155.9236 N   0  0  0  0  0  0  0  0  0  0  0  0
  147.7444  137.5612  154.8179 C   0  0  0  0  0  0  0  0  0  0  0  0
  146.6946  137.1988  153.9294 C   0  0  0  0  0  0  0  0  0  0  0  0
  146.5735  138.1435  152.9186 N   0  0  0  0  0  0  0  0  0  0  0  0
  147.4999  139.0207  153.1962 C   0  0  0  0  0  0  0  0  0  0  0  0
  148.2457  138.7521  154.3223 N   0  0  0  0  0  0  0  0  0  0  0  0
  149.3310  139.5588  154.8536 C   0  0  0  0  0  0  0  0  0  0  0  0
  150.4887  138.7167  155.4475 C   0  0  1  0  0  0  0  0  0  0  0  0
  151.2379  137.9392  154.3342 C   0  0  0  0  0  0  0  0  0  0  0  0
  151.5144  136.6076  154.7123 O   0  0  0  0  0  0  0  0  0  0  0  0
  151.4438  139.6172  156.2805 C   0  0  1  0  0  0  0  0  0  0  0  0
  150.7908  140.3326  157.4526 C   0  0  0  0  0  0  0  0  0  0  0  0
  151.9881  140.7310  158.3084 C   0  0  0  0  0  0  0  0  0  0  0  0
  152.9690  139.7244  158.0923 O   0  0  0  0  0  0  0  0  0  0  0  0
  152.5717  138.8828  157.0152 C   0  0  0  0  0  0  0  0  0  0  0  0
  145.2442  137.1911  152.1540 H   0  0  0  0  0  0  0  0  0  0  0  0
  142.5825  134.4277  152.5671 H   0  0  0  0  0  0  0  0  0  0  0  0
  145.3296  135.4020  148.9498 H   0  0  0  0  0  0  0  0  0  0  0  0
  144.5896  136.8276  149.6495 H   0  0  0  0  0  0  0  0  0  0  0  0
  142.9966  137.4433  152.6310 H   0  0  0  0  0  0  0  0  0  0  0  0
  142.7587  136.4433  151.2063 H   0  0  0  0  0  0  0  0  0  0  0  0
  143.5750  136.0349  154.9559 H   0  0  0  0  0  0  0  0  0  0  0  0
  143.7562  134.3029  154.6631 H   0  0  0  0  0  0  0  0  0  0  0  0
  147.6670  135.1575  156.9487 H   0  0  0  0  0  0  0  0  0  0  0  0
  147.6643  139.8969  152.5860 H   0  0  0  0  0  0  0  0  0  0  0  0
  149.7062  140.2095  154.0629 H   0  0  0  0  0  0  0  0  0  0  0  0
  148.8973  140.2122  155.6102 H   0  0  0  0  0  0  0  0  0  0  0  0
  150.0379  137.9854  156.1207 H   0  0  0  0  0  0  0  0  0  0  0  0
  150.6457  137.8727  153.4229 H   0  0  0  0  0  0  0  0  0  0  0  0
  152.1662  138.4451  154.0669 H   0  0  0  0  0  0  0  0  0  0  0  0
  150.7603  136.2610  155.1646 H   0  0  0  0  0  0  0  0  0  0  0  0
  151.8896  140.3693  155.6275 H   0  0  0  0  0  0  0  0  0  0  0  0
  150.1951  141.1965  157.1561 H   0  0  0  0  0  0  0  0  0  0  0  0
  150.1479  139.6470  158.0065 H   0  0  0  0  0  0  0  0  0  0  0  0
  152.3935  141.6874  157.9761 H   0  0  0  0  0  0  0  0  0  0  0  0
  151.7332  140.8195  159.3648 H   0  0  0  0  0  0  0  0  0  0  0  0
  152.2117  137.9423  157.4342 H   0  0  0  0  0  0  0  0  0  0  0  0
  153.4205  138.6630  156.3672 H   0  0  0  0  0  0  0  0  0  0  0  0
  1  2  1  0  0  0  0
  1 30  1  0  0  0  0
  1 31  1  0  0  0  0
  2  3  2  0  0  0  0
  2  4  1  0  0  0  0
  4 28  1  0  0  0  0
  4  9  1  0  0  0  0
  4  5  1  0  0  0  0
  5  6  1  0  0  0  0
  5 32  1  0  0  0  0
  5 33  1  0  0  0  0
  6 29  1  0  0  0  0
  6  7  1  0  0  0  0
  6  8  1  0  0  0  0
  8  9  1  0  0  0  0
  8 34  1  0  0  0  0
  8 35  1  0  0  0  0
  9 10  1  0  0  0  0
 10 15  1  0  0  0  0
 10 11  2  0  0  0  0
 11 12  1  0  0  0  0
 12 13  2  0  0  0  0
 12 36  1  0  0  0  0
 13 14  1  0  0  0  0
 14 18  1  0  0  0  0
 14 15  2  0  0  0  0
 15 16  1  0  0  0  0
 16 17  2  0  0  0  0
 17 18  1  0  0  0  0
 17 37  1  0  0  0  0
 18 19  1  0  0  0  0
 19 20  1  0  0  0  0
 19 38  1  0  0  0  0
 19 39  1  0  0  0  0
 20 21  1  0  0  0  0
 20 23  1  0  0  0  0
 20 40  1  0  0  0  0
 21 22  1  0  0  0  0
 21 41  1  0  0  0  0
 21 42  1  0  0  0  0
 22 43  1  0  0  0  0
 23 27  1  0  0  0  0
 23 24  1  0  0  0  0
 23 44  1  0  0  0  0
 24 25  1  0  0  0  0
 24 45  1  0  0  0  0
 24 46  1  0  0  0  0
 25 26  1  0  0  0  0
 25 47  1  0  0  0  0
 25 48  1  0  0  0  0
 26 27  1  0  0  0  0
 27 49  1  0  0  0  0
 27 50  1  0  0  0  0
M  END
> <s_m_source_file>
AV-unprocessed.smi

> <i_m_source_file_index>
221

> <i_lp_mmshare_version>
43012

> <i_f3d_flags>
0

> <s_epik_input>
W05IMl1DKD1PKVtDQEBIXTFbQ0gyXVtDQEBIXShGKVtDSDJdTjFjKG5bY0hdbjIpYyhjMjMpbltjSF1uM1tDSDJdW0NASF0oW0NIMl1bT0hdKVtDQEBIXTRbQ0gyXVtDSDJdT1tDSDJdNA==

> <s_epik_cmdline>
J2VwaWtfcHl0aG9uJywgJy1waCcsICc3LjAnLCAnLXRuJywgJzgnLCAnLW1hJywgJzIwMCcsICctbWV0YWxfYmluZGluZycsICctaW1hZScsICc8aW5maWxlLm1hZT4nLCAnLW9tYWUnLCAnPG91dGZpbGUubWFlPic=

> <r_lp_tautomer_probability>
1

> <r_epik_Ionization_Penalty>
0.000818822

> <r_epik_Ionization_Penalty_Charging>
0

> <r_epik_Ionization_Penalty_Neutral>
0.000818822

> <r_epik_State_Penalty>
0.000440551

> <r_epik_Charging_Adjusted_Penalty>
0.000440551

> <i_epik_Tot_Q>
0

> <i_epik_Tot_abs_Q>
0

> <r_epik_Metal_State_Penalty>
-0

> <b_epik_Metal_Only>
0

> <s_lp_Force_Field>
OPLS_2005

> <r_lp_Energy>
50.9528

> <b_lp_Chiralities_Consistent>
1

> <s_lp_Variant>
AV-unprocessed.smi:221-16

> <Gold.Version>
5.8.1

> <Gold.Id.Protein>
6NUR|6NUR_protein|mol2

> <Gold.PLP.Fitness>
45.5189

> <Gold.PLP.PLP>
-33.5956

> <Gold.PLP.part.hbond>
-5.0000

> <Gold.PLP.part.metal>
0.0000

> <Gold.PLP.part.buried>
-4.4347

> <Gold.PLP.part.nonpolar>
-25.0771

> <Gold.PLP.part.repulsive>
0.7075

> <Gold.PLP.ligand.clash>
0.0079

> <Gold.PLP.ligand.torsion>
1.0775

> <Gold.PLP.Chemscore.Hbond>
3.8640

> <Gold.PLP.Chemscore.CHOScore>
0.7216

> <Gold.PLP.Chemscore.Metal>
0.0000

> <Gold.Chemscore.Hbonds>
donor molecule, donor type, donor heavy atom, donor atom, acceptor molecule, acceptor atom, score
      L1  H     1    30       P1  7921  1.00
      L1  H     1    31       P1 10171  1.00
      P1  H  7997  8008       L1    26  0.39
      P1  H 10752 10764       L1    22  1.00
      L1  C    17    37       P1  7957  0.81

> <Gold.PLP.Chemscore.Internal.Correction>
0.3293

> <Gold.Rescore>
     Score         DG    S(hbond)    S(metal)    S(lipo)     H(rot)  DE(clash)    DE(int)     intcor
     10.25     -13.65       3.28        0.00      57.70       3.72       0.11       3.29       ----

> <Gold.Chemscore.Fitness>
10.2451

> <Gold.Chemscore.DG>
-13.6504

> <Gold.Chemscore.ZeroCoef>
-5.4800

> <Gold.Chemscore.Hbond>
3.2763

> <Gold.Chemscore.Metal>
0.0000

> <Gold.Chemscore.Lipo>
57.7021

> <Gold.Chemscore.Internal_Hbond>
0.0000

> <Gold.Chemscore.DEClash>
0.1141

> <Gold.Chemscore.DEInternal>
3.2912

> <Gold.Chemscore.Rot>
3.7202

> <Gold.Chemscore.Internal.Correction>
   9.000000E+99

> <Gold.Chemscore.Hbonds>
donor molecule, donor type, donor heavy atom, donor atom, acceptor molecule, acceptor atom, score
      L1  H     1    30       P1  7921  1.00
      L1  H     1    31       P1 10171  1.00
      P1  H  7997  8008       L1    26  0.02
      P1  H 10752 10764       L1    22  0.98

> <Gold.Chemscore.Hbond.Weighted>
-10.9430

> <Gold.Chemscore.Metal.Weighted>
-0.0000

> <Gold.Chemscore.Lipo.Weighted>
-6.7511

> <Gold.Chemscore.Internal_Hbond.Weighted>
0.0000

> <Gold.Chemscore.DEClash.Weighted>
0.1141

> <Gold.Chemscore.DEInternal.Weighted>
3.2912

> <Gold.Chemscore.Rot.Weighted>
9.5237

> <Gold.Chemscore.Internal.Correction.Weighted>
   9.000000E+99

> <Gold.Protein.RotatedTorsions>
[ 6907 6896 6895 6894 ] final  -82.31 input  -60.11 | X-H torsion
[ 7974 7965 7964 7962 ] final  -76.01 input  175.53 | X-H torsion
[ 8008 7997 7996 7995 ] final -105.44 input   59.86 | X-H torsion
[ 10167 10162 10161 10158 ] final  155.59 input  -65.29 | X-H torsion
[ 10718 10713 10712 10709 ] final   11.15 input   66.30 | X-H torsion
[ 10763 10752 10751 10750 ] final  -65.27 input  -60.55 | X-H torsion
[ 11005 11000 10999 10996 ] final  -31.26 input  -57.11 | X-H torsion

> <Gold.Protein.ActiveResidues>
 VAL166  LYS551  ARG553  GLY616  TRP617  ASP618  TYR619  PRO620  LYS621  CYS622 
 ASP623  PHE694  ASN695  SER759  ASP760  ASP761  ALA762  ILE779  LEU786  VAL792 
 PHE793  MET794  SER795  GLU796  ALA797  LYS798  CYS799  TRP800  GLU811  SER814 

> <Gold.Protein.RotatedAtoms>
  150.6899  134.3685  159.4981 H   0  0  0  0  0  0  0  0  0  0  0  0  # atno 6907 bound_to 6896
  152.1504  134.8990  160.0557 H   0  0  0  0  0  0  0  0  0  0  0  0  # atno 6908 bound_to 6896
  152.0090  133.3819  159.4249 H   0  0  0  0  0  0  0  0  0  0  0  0  # atno 6909 bound_to 6896
  145.6185  140.9369  143.1151 H   0  0  0  0  0  0  0  0  0  0  0  0  # atno 7974 bound_to 7965
  154.8999  140.0413  157.1887 H   0  0  0  0  0  0  0  0  0  0  0  0  # atno 8008 bound_to 7997
  154.8454  140.2921  155.5611 H   0  0  0  0  0  0  0  0  0  0  0  0  # atno 8009 bound_to 7997
  156.2994  140.2475  156.3404 H   0  0  0  0  0  0  0  0  0  0  0  0  # atno 8010 bound_to 7997
  139.4821  144.5085  151.8061 H   0  0  0  0  0  0  0  0  0  0  0  0  # atno 10167 bound_to 10162
  156.9913  130.6044  149.5686 H   0  0  0  0  0  0  0  0  0  0  0  0  # atno 10718 bound_to 10713
  154.3425  135.6153  153.5603 H   0  0  0  0  0  0  0  0  0  0  0  0  # atno 10763 bound_to 10752
  152.9803  135.5773  154.4836 H   0  0  0  0  0  0  0  0  0  0  0  0  # atno 10764 bound_to 10752
  154.4543  135.2854  155.1736 H   0  0  0  0  0  0  0  0  0  0  0  0  # atno 10765 bound_to 10752
  140.9453  133.7254  156.1137 H   0  0  0  0  0  0  0  0  0  0  0  0  # atno 11005 bound_to 11000
  144.7240  139.7935  143.7371 LP  0  0  0  0  0  0  0  0  0  0  0  0  # atno 17320 bound_to 7965
  146.1449  139.4516  143.0085 LP  0  0  0  0  0  0  0  0  0  0  0  0  # atno 17321 bound_to 7965
  140.4585  144.1755  150.5904 LP  0  0  0  0  0  0  0  0  0  0  0  0  # atno 17342 bound_to 10162
  140.4509  143.2487  151.9349 LP  0  0  0  0  0  0  0  0  0  0  0  0  # atno 17343 bound_to 10162
  156.0206  130.5301  150.8264 LP  0  0  0  0  0  0  0  0  0  0  0  0  # atno 17370 bound_to 10713
  157.5456  131.0942  150.9767 LP  0  0  0  0  0  0  0  0  0  0  0  0  # atno 17371 bound_to 10713
  140.7678  134.3867  157.5513 LP  0  0  0  0  0  0  0  0  0  0  0  0  # atno 17394 bound_to 11000
  139.8831  134.9002  156.2784 LP  0  0  0  0  0  0  0  0  0  0  0  0  # atno 17395 bound_to 11000

$$$$
