AV-unprocessed.smi:224|AV-procd|sdf|1708|dock5
  -GOLD-   2262020173D 1   1.00000     0.00000
 Structure written by MMmdl.
 56 59  0  0  0  0  0  0  0  0  2 V2000
  145.2699  131.9474  149.7420 C   0  0  0  0  0  0  0  0  0  0  0  0
  143.9822  132.7231  150.0487 C   0  0  1  0  0  0  0  0  0  0  0  0
  142.8818  131.8994  149.7194 O   0  0  0  0  0  0  0  0  0  0  0  0
  143.8829  133.1234  151.5326 C   0  0  0  0  0  0  0  0  0  0  0  0
  143.7866  134.6012  151.6983 N   0  3  2  0  0  0  0  0  0  0  0  0
  145.1204  135.2433  151.5248 C   0  0  0  0  0  0  0  0  0  0  0  0
  145.0457  136.7716  151.6335 C   0  0  0  0  0  0  0  0  0  0  0  0
  144.4372  137.1531  152.8998 N   0  0  0  0  0  0  0  0  0  0  0  0
  145.2755  137.2668  153.9644 C   0  0  0  0  0  0  0  0  0  0  0  0
  144.9676  136.6510  155.1372 N   0  0  0  0  0  0  0  0  0  0  0  0
  145.7881  136.7434  156.1876 C   0  0  0  0  0  0  0  0  0  0  0  0
  146.9477  137.3952  156.2840 N   0  0  0  0  0  0  0  0  0  0  0  0
  147.2577  138.0289  155.1174 C   0  0  0  0  0  0  0  0  0  0  0  0
  146.4867  138.0152  153.9202 C   0  0  0  0  0  0  0  0  0  0  0  0
  147.1173  138.7803  152.9459 N   0  0  0  0  0  0  0  0  0  0  0  0
  148.2004  139.2144  153.5305 C   0  0  0  0  0  0  0  0  0  0  0  0
  148.3614  138.8163  154.8382 N   0  0  0  0  0  0  0  0  0  0  0  0
  149.4660  139.1585  155.7215 C   0  0  0  0  0  0  0  0  0  0  0  0
  150.6884  138.2246  155.5647 C   0  0  1  0  0  0  0  0  0  0  0  0
  150.3548  136.9419  156.0672 O   0  0  0  0  0  0  0  0  0  0  0  0
  151.1764  138.0705  154.1270 C   0  0  0  0  0  0  0  0  0  0  0  0
  152.6744  137.8621  154.2980 C   0  0  0  0  0  0  0  0  0  0  0  0
  152.9928  138.7621  155.3452 O   0  0  0  0  0  0  0  0  0  0  0  0
  151.9432  138.7265  156.3072 C   0  0  0  0  0  0  0  0  0  0  0  0
  143.1068  136.5845  153.0931 C   0  0  0  0  0  0  0  0  0  0  0  0
  143.0825  135.0423  152.9449 C   0  0  1  0  0  0  0  0  0  0  0  0
  141.6085  134.5882  152.9846 C   0  0  0  0  0  0  0  0  0  0  0  0
  146.1509  132.5514  149.9603 H   0  0  0  0  0  0  0  0  0  0  0  0
  145.3184  131.6658  148.6895 H   0  0  0  0  0  0  0  0  0  0  0  0
  145.3376  131.0342  150.3347 H   0  0  0  0  0  0  0  0  0  0  0  0
  143.9497  133.6070  149.4118 H   0  0  0  0  0  0  0  0  0  0  0  0
  142.2431  132.4171  149.2525 H   0  0  0  0  0  0  0  0  0  0  0  0
  143.0366  132.6005  151.9718 H   0  0  0  0  0  0  0  0  0  0  0  0
  144.7515  132.7545  152.0807 H   0  0  0  0  0  0  0  0  0  0  0  0
  145.8074  134.8614  152.2822 H   0  0  0  0  0  0  0  0  0  0  0  0
  145.5424  134.9754  150.5564 H   0  0  0  0  0  0  0  0  0  0  0  0
  146.0408  137.1975  151.5131 H   0  0  0  0  0  0  0  0  0  0  0  0
  144.4403  137.1741  150.8206 H   0  0  0  0  0  0  0  0  0  0  0  0
  145.4700  136.2213  157.0779 H   0  0  0  0  0  0  0  0  0  0  0  0
  148.9138  139.8482  153.0237 H   0  0  0  0  0  0  0  0  0  0  0  0
  149.7552  140.1913  155.5225 H   0  0  0  0  0  0  0  0  0  0  0  0
  149.1028  139.1365  156.7500 H   0  0  0  0  0  0  0  0  0  0  0  0
  151.0048  136.6927  156.7065 H   0  0  0  0  0  0  0  0  0  0  0  0
  150.6867  137.2652  153.5776 H   0  0  0  0  0  0  0  0  0  0  0  0
  151.0166  138.9960  153.5730 H   0  0  0  0  0  0  0  0  0  0  0  0
  152.8975  136.8399  154.6076 H   0  0  0  0  0  0  0  0  0  0  0  0
  153.2385  138.0821  153.3913 H   0  0  0  0  0  0  0  0  0  0  0  0
  151.8086  139.7258  156.7224 H   0  0  0  0  0  0  0  0  0  0  0  0
  152.2251  138.0677  157.1302 H   0  0  0  0  0  0  0  0  0  0  0  0
  142.6980  136.8865  154.0586 H   0  0  0  0  0  0  0  0  0  0  0  0
  142.4529  137.0312  152.3429 H   0  0  0  0  0  0  0  0  0  0  0  0
  143.6052  134.6004  153.7940 H   0  0  0  0  0  0  0  0  0  0  0  0
  141.0920  135.0323  153.8362 H   0  0  0  0  0  0  0  0  0  0  0  0
  141.4922  133.5113  153.0911 H   0  0  0  0  0  0  0  0  0  0  0  0
  141.0761  134.8960  152.0840 H   0  0  0  0  0  0  0  0  0  0  0  0
  143.2099  134.9304  150.9371 H   0  0  0  0  0  0  0  0  0  0  0  0
  1  2  1  0  0  0  0
  1 28  1  0  0  0  0
  1 29  1  0  0  0  0
  1 30  1  0  0  0  0
  2  3  1  0  0  0  0
  2  4  1  0  0  0  0
  2 31  1  0  0  0  0
  3 32  1  0  0  0  0
  4  5  1  0  0  0  0
  4 33  1  0  0  0  0
  4 34  1  0  0  0  0
  5 26  1  0  0  0  0
  5  6  1  0  0  0  0
  5 56  1  0  0  0  0
  6  7  1  0  0  0  0
  6 35  1  0  0  0  0
  6 36  1  0  0  0  0
  7  8  1  0  0  0  0
  7 37  1  0  0  0  0
  7 38  1  0  0  0  0
  8  9  1  0  0  0  0
  8 25  1  0  0  0  0
  9 14  1  0  0  0  0
  9 10  2  0  0  0  0
 10 11  1  0  0  0  0
 11 12  2  0  0  0  0
 11 39  1  0  0  0  0
 12 13  1  0  0  0  0
 13 17  1  0  0  0  0
 13 14  2  0  0  0  0
 14 15  1  0  0  0  0
 15 16  2  0  0  0  0
 16 17  1  0  0  0  0
 16 40  1  0  0  0  0
 17 18  1  0  0  0  0
 18 19  1  0  0  0  0
 18 41  1  0  0  0  0
 18 42  1  0  0  0  0
 19 24  1  0  0  0  0
 19 20  1  0  0  0  0
 19 21  1  0  0  0  0
 20 43  1  0  0  0  0
 21 22  1  0  0  0  0
 21 44  1  0  0  0  0
 21 45  1  0  0  0  0
 22 23  1  0  0  0  0
 22 46  1  0  0  0  0
 22 47  1  0  0  0  0
 23 24  1  0  0  0  0
 24 48  1  0  0  0  0
 24 49  1  0  0  0  0
 25 26  1  0  0  0  0
 25 50  1  0  0  0  0
 25 51  1  0  0  0  0
 26 27  1  0  0  0  0
 26 52  1  0  0  0  0
 27 53  1  0  0  0  0
 27 54  1  0  0  0  0
 27 55  1  0  0  0  0
M  CHG  1   5   1
M  END
> <s_m_source_file>
AV-unprocessed.smi

> <i_m_source_file_index>
224

> <i_lp_mmshare_version>
43012

> <i_f3d_flags>
0

> <s_epik_input>
W0NIM11bQ0BIXShbT0hdKVtDSDJdTjFbQ0gyXVtDSDJdTihbQ0gyXVtDQEhdMVtDSDNdKWMobltjSF1uMiljKGMyMyluW2NIXW4zW0NIMl1bQ0BAXTQoW09IXSlbQ0gyXVtDSDJdT1tDSDJdNA==

> <s_epik_cmdline>
J2VwaWtfcHl0aG9uJywgJy1waCcsICc3LjAnLCAnLXRuJywgJzgnLCAnLW1hJywgJzIwMCcsICctbWV0YWxfYmluZGluZycsICctaW1hZScsICc8aW5maWxlLm1hZT4nLCAnLW9tYWUnLCAnPG91dGZpbGUubWFlPic=

> <r_lp_tautomer_probability>
1

> <r_epik_Ionization_Penalty>
0.00516958

> <r_epik_Ionization_Penalty_Charging>
0.00509693

> <r_epik_Ionization_Penalty_Neutral>
7.26542e-05

> <r_epik_State_Penalty>
-0

> <r_epik_Charging_Adjusted_Penalty>
0.00509693

> <i_epik_Tot_Q>
1

> <i_epik_Tot_abs_Q>
1

> <r_epik_Metal_State_Penalty>
-0

> <b_epik_Metal_Only>
0

> <s_lp_Force_Field>
OPLS_2005

> <r_lp_Energy>
48.4109

> <b_lp_Chiralities_Consistent>
1

> <s_lp_Variant>
AV-unprocessed.smi:224-2

> <Gold.Version>
5.8.1

> <Gold.Id.Protein>
6NUR|6NUR_protein|mol2

> <Gold.PLP.Fitness>
42.5466

> <Gold.PLP.PLP>
-36.2464

> <Gold.PLP.part.hbond>
-3.0000

> <Gold.PLP.part.metal>
0.0000

> <Gold.PLP.part.buried>
-5.0359

> <Gold.PLP.part.nonpolar>
-27.5490

> <Gold.PLP.part.repulsive>
0.4591

> <Gold.PLP.ligand.clash>
0.0000

> <Gold.PLP.ligand.torsion>
1.6104

> <Gold.PLP.Chemscore.Hbond>
2.0000

> <Gold.PLP.Chemscore.CHOScore>
1.0000

> <Gold.PLP.Chemscore.Metal>
0.0000

> <Gold.Chemscore.Hbonds>
donor molecule, donor type, donor heavy atom, donor atom, acceptor molecule, acceptor atom, score
      L1  H     3    32       P1 10186  0.14
      P1  H  7997  8010       L1    23  0.83
      P1  H 10785 10796       L1     3  0.99
      L1  C    16    40       P1  7957  0.92

> <Gold.PLP.Chemscore.Internal.Correction>
0.5210

> <Gold.Rescore>
     Score         DG    S(hbond)    S(metal)    S(lipo)     H(rot)  DE(clash)    DE(int)     intcor
      9.61     -11.38       1.33        0.00      85.91       3.36       0.25       1.53       ----

> <Gold.Chemscore.Fitness>
9.6092

> <Gold.Chemscore.DG>
-11.3804

> <Gold.Chemscore.ZeroCoef>
-5.4800

> <Gold.Chemscore.Hbond>
1.3333

> <Gold.Chemscore.Metal>
0.0000

> <Gold.Chemscore.Lipo>
85.9117

> <Gold.Chemscore.Internal_Hbond>
0.0000

> <Gold.Chemscore.DEClash>
0.2459

> <Gold.Chemscore.DEInternal>
1.5253

> <Gold.Chemscore.Rot>
3.3611

> <Gold.Chemscore.Internal.Correction>
   9.000000E+99

> <Gold.Chemscore.Hbonds>
donor molecule, donor type, donor heavy atom, donor atom, acceptor molecule, acceptor atom, score
      L1  H     3    32       P1 10186  0.15
      P1  H  7997  8010       L1    23  0.36
      P1  H 10785 10796       L1     3  0.67

> <Gold.Chemscore.Hbond.Weighted>
-4.4532

> <Gold.Chemscore.Metal.Weighted>
-0.0000

> <Gold.Chemscore.Lipo.Weighted>
-10.0517

> <Gold.Chemscore.Internal_Hbond.Weighted>
0.0000

> <Gold.Chemscore.DEClash.Weighted>
0.2459

> <Gold.Chemscore.DEInternal.Weighted>
1.5253

> <Gold.Chemscore.Rot.Weighted>
8.6045

> <Gold.Chemscore.Internal.Correction.Weighted>
   9.000000E+99

> <Gold.Protein.RotatedTorsions>
[ 6907 6896 6895 6894 ] final   -5.39 input  -60.11 | X-H torsion
[ 7974 7965 7964 7962 ] final  166.29 input  175.53 | X-H torsion
[ 8008 7997 7996 7995 ] final   88.37 input   59.86 | X-H torsion
[ 10167 10162 10161 10158 ] final   13.18 input  -65.29 | X-H torsion
[ 10718 10713 10712 10709 ] final  -74.04 input   66.30 | X-H torsion
[ 10763 10752 10751 10750 ] final  -94.57 input  -60.55 | X-H torsion
[ 11005 11000 10999 10996 ] final -175.83 input  -57.11 | X-H torsion

> <Gold.Protein.ActiveResidues>
 VAL166  LYS551  ARG553  GLY616  TRP617  ASP618  TYR619  PRO620  LYS621  CYS622 
 ASP623  PHE694  ASN695  SER759  ASP760  ASP761  ALA762  ILE779  LEU786  VAL792 
 PHE793  MET794  SER795  GLU796  ALA797  LYS798  CYS799  TRP800  GLU811  SER814 

> <Gold.Protein.RotatedAtoms>
  151.4823  135.1053  159.9780 H   0  0  0  0  0  0  0  0  0  0  0  0  # atno 6907 bound_to 6896
  152.4774  133.8167  159.7042 H   0  0  0  0  0  0  0  0  0  0  0  0  # atno 6908 bound_to 6896
  150.8821  133.7296  159.2955 H   0  0  0  0  0  0  0  0  0  0  0  0  # atno 6909 bound_to 6896
  144.7468  139.8593  143.6379 H   0  0  0  0  0  0  0  0  0  0  0  0  # atno 7974 bound_to 7965
  155.9869  140.3372  155.6716 H   0  0  0  0  0  0  0  0  0  0  0  0  # atno 8008 bound_to 7997
  155.6473  140.0702  157.2616 H   0  0  0  0  0  0  0  0  0  0  0  0  # atno 8009 bound_to 7997
  154.4208  140.1732  156.1624 H   0  0  0  0  0  0  0  0  0  0  0  0  # atno 8010 bound_to 7997
  140.6019  143.8586  150.6974 H   0  0  0  0  0  0  0  0  0  0  0  0  # atno 10167 bound_to 10162
  156.0257  130.4408  150.2832 H   0  0  0  0  0  0  0  0  0  0  0  0  # atno 10718 bound_to 10713
  154.7067  135.5153  153.8605 H   0  0  0  0  0  0  0  0  0  0  0  0  # atno 10763 bound_to 10752
  153.0747  135.6612  154.0180 H   0  0  0  0  0  0  0  0  0  0  0  0  # atno 10764 bound_to 10752
  154.0030  135.3009  155.3380 H   0  0  0  0  0  0  0  0  0  0  0  0  # atno 10765 bound_to 10752
  140.4589  134.6273  157.4834 H   0  0  0  0  0  0  0  0  0  0  0  0  # atno 11005 bound_to 11000
  146.1359  139.4405  143.0139 LP  0  0  0  0  0  0  0  0  0  0  0  0  # atno 17320 bound_to 7965
  145.7092  141.0112  143.1463 LP  0  0  0  0  0  0  0  0  0  0  0  0  # atno 17321 bound_to 7965
  140.2134  143.3865  152.1700 LP  0  0  0  0  0  0  0  0  0  0  0  0  # atno 17342 bound_to 10162
  139.5297  144.7145  151.5100 LP  0  0  0  0  0  0  0  0  0  0  0  0  # atno 17343 bound_to 10162
  157.0936  131.0176  151.3112 LP  0  0  0  0  0  0  0  0  0  0  0  0  # atno 17370 bound_to 10713
  157.4835  130.7779  149.7437 LP  0  0  0  0  0  0  0  0  0  0  0  0  # atno 17371 bound_to 10713
  139.9958  134.6913  155.9612 LP  0  0  0  0  0  0  0  0  0  0  0  0  # atno 17394 bound_to 11000
  141.1630  133.6538  156.4384 LP  0  0  0  0  0  0  0  0  0  0  0  0  # atno 17395 bound_to 11000

$$$$
