AV-unprocessed.smi:1807|AV-procd|sdf|7304|dock8
  -GOLD-   22720 8563D 1   1.00000     0.00000
 Structure written by MMmdl.
 44 45  0  0  0  0  0  0  0  0  1 V2000
  150.4503  139.7196  157.5563 C   0  0  0  0  0  0  0  0  0  0  0  0
  150.7476  141.1375  158.0762 C   0  0  1  0  0  0  0  0  0  0  0  0
  151.9528  141.1177  159.0384 C   0  0  0  0  0  0  0  0  0  0  0  0
  152.2767  142.5174  159.5813 C   0  0  0  0  0  0  0  0  0  0  0  0
  152.5218  143.5092  158.4360 C   0  0  0  0  0  0  0  0  0  0  0  0
  151.3221  143.5529  157.4787 C   0  0  0  0  0  0  0  0  0  0  0  0
  150.9814  142.1518  156.9288 C   0  0  2  0  0  0  0  0  0  0  0  0
  149.8004  142.2290  156.0723 N   0  0  0  0  0  0  0  0  0  0  0  0
  149.5147  141.3942  155.0622 C   0  0  0  0  0  0  0  0  0  0  0  0
  150.2587  140.4785  154.7084 O   0  0  0  0  0  0  0  0  0  0  0  0
  148.1916  141.6495  154.3314 C   0  0  0  0  0  0  0  0  0  0  0  0
  148.0425  140.8102  153.1477 N   0  0  0  0  0  0  0  0  0  0  0  0
  147.1426  139.7362  153.1679 C   0  0  0  0  0  0  0  0  0  0  0  0
  146.9599  138.8842  152.0450 C   0  0  0  0  0  0  0  0  0  0  0  0
  146.0304  137.9841  152.4839 C   0  0  0  0  0  0  0  0  0  0  0  0
  145.7075  138.3196  153.7846 N   0  0  0  0  0  0  0  0  0  0  0  0
  144.7748  137.6602  154.6812 C   0  0  0  0  0  0  0  0  0  0  0  0
  143.5002  137.2435  153.9437 C   0  0  0  0  0  0  0  0  0  0  0  0
  143.0029  138.1016  153.0494 N   0  0  0  0  0  0  0  0  0  0  0  0
  142.9703  136.1594  154.1767 O   0  0  0  0  0  0  0  0  0  0  0  0
  146.3896  139.4068  154.2070 N   0  0  0  0  0  0  0  0  0  0  0  0
  151.2793  139.3397  156.9592 H   0  0  0  0  0  0  0  0  0  0  0  0
  149.5545  139.6932  156.9354 H   0  0  0  0  0  0  0  0  0  0  0  0
  150.2909  139.0250  158.3813 H   0  0  0  0  0  0  0  0  0  0  0  0
  149.8770  141.4665  158.6457 H   0  0  0  0  0  0  0  0  0  0  0  0
  151.7536  140.4432  159.8717 H   0  0  0  0  0  0  0  0  0  0  0  0
  152.8278  140.7185  158.5232 H   0  0  0  0  0  0  0  0  0  0  0  0
  151.4525  142.8700  160.2026 H   0  0  0  0  0  0  0  0  0  0  0  0
  153.1542  142.4713  160.2271 H   0  0  0  0  0  0  0  0  0  0  0  0
  152.7125  144.5042  158.8388 H   0  0  0  0  0  0  0  0  0  0  0  0
  153.4185  143.2204  157.8862 H   0  0  0  0  0  0  0  0  0  0  0  0
  150.4578  143.9646  158.0018 H   0  0  0  0  0  0  0  0  0  0  0  0
  151.5392  144.2366  156.6571 H   0  0  0  0  0  0  0  0  0  0  0  0
  151.8270  141.7970  156.3356 H   0  0  0  0  0  0  0  0  0  0  0  0
  149.1324  142.9553  156.2858 H   0  0  0  0  0  0  0  0  0  0  0  0
  147.3426  141.5109  155.0032 H   0  0  0  0  0  0  0  0  0  0  0  0
  148.1698  142.6925  154.0156 H   0  0  0  0  0  0  0  0  0  0  0  0
  148.7833  140.8148  152.4616 H   0  0  0  0  0  0  0  0  0  0  0  0
  147.4373  138.9211  151.0772 H   0  0  0  0  0  0  0  0  0  0  0  0
  145.5781  137.1395  151.9855 H   0  0  0  0  0  0  0  0  0  0  0  0
  145.2493  136.7790  155.1163 H   0  0  0  0  0  0  0  0  0  0  0  0
  144.5417  138.3379  155.5039 H   0  0  0  0  0  0  0  0  0  0  0  0
  142.1666  137.8689  152.5343 H   0  0  0  0  0  0  0  0  0  0  0  0
  143.4712  138.9818  152.8883 H   0  0  0  0  0  0  0  0  0  0  0  0
  1  2  1  0  0  0  0
  1 22  1  0  0  0  0
  1 23  1  0  0  0  0
  1 24  1  0  0  0  0
  2  7  1  0  0  0  0
  2  3  1  0  0  0  0
  2 25  1  0  0  0  0
  3  4  1  0  0  0  0
  3 26  1  0  0  0  0
  3 27  1  0  0  0  0
  4  5  1  0  0  0  0
  4 28  1  0  0  0  0
  4 29  1  0  0  0  0
  5  6  1  0  0  0  0
  5 30  1  0  0  0  0
  5 31  1  0  0  0  0
  6  7  1  0  0  0  0
  6 32  1  0  0  0  0
  6 33  1  0  0  0  0
  7  8  1  0  0  0  0
  7 34  1  0  0  0  0
  8  9  1  0  0  0  0
  8 35  1  0  0  0  0
  9 10  2  0  0  0  0
  9 11  1  0  0  0  0
 11 12  1  0  0  0  0
 11 36  1  0  0  0  0
 11 37  1  0  0  0  0
 12 13  1  0  0  0  0
 12 38  1  0  0  0  0
 13 21  2  0  0  0  0
 13 14  1  0  0  0  0
 14 15  2  0  0  0  0
 14 39  1  0  0  0  0
 15 16  1  0  0  0  0
 15 40  1  0  0  0  0
 16 17  1  0  0  0  0
 16 21  1  0  0  0  0
 17 18  1  0  0  0  0
 17 41  1  0  0  0  0
 17 42  1  0  0  0  0
 18 19  1  0  0  0  0
 18 20  2  0  0  0  0
 19 43  1  0  0  0  0
 19 44  1  0  0  0  0
M  END
> <s_m_source_file>
AV-unprocessed.smi

> <i_m_source_file_index>
1807

> <i_lp_mmshare_version>
43012

> <i_f3d_flags>
0

> <s_epik_input>
W0NIM11bQ0BASF0xW0NIMl1bQ0gyXVtDSDJdW0NIMl1bQ0BIXTFbTkhdQyg9TylbQ0gyXVtOSF1jMltjSF1bY0hdbihuMilbQ0gyXUMoPU8pW05IMl0=

> <s_epik_cmdline>
J2VwaWtfcHl0aG9uJywgJy1waCcsICc3LjAnLCAnLXRuJywgJzgnLCAnLW1hJywgJzIwMCcsICctbWV0YWxfYmluZGluZycsICctaW1hZScsICc8aW5maWxlLm1hZT4nLCAnLW9tYWUnLCAnPG91dGZpbGUubWFlPic=

> <r_lp_tautomer_probability>
1

> <r_epik_Ionization_Penalty>
0.000167642

> <r_epik_Ionization_Penalty_Charging>
0

> <r_epik_Ionization_Penalty_Neutral>
0.000167642

> <r_epik_State_Penalty>
-0

> <r_epik_Charging_Adjusted_Penalty>
0

> <i_epik_Tot_Q>
0

> <i_epik_Tot_abs_Q>
0

> <r_epik_Metal_State_Penalty>
-0

> <b_epik_Metal_Only>
0

> <s_lp_Force_Field>
OPLS_2005

> <r_lp_Energy>
6.04908

> <b_lp_Chiralities_Consistent>
1

> <s_lp_Variant>
AV-unprocessed.smi:1807-4

> <Gold.Version>
5.8.1

> <Gold.Id.Protein>
6NUR|6NUR_protein|mol2

> <Gold.PLP.Fitness>
46.9712

> <Gold.PLP.PLP>
-38.0221

> <Gold.PLP.part.hbond>
-3.9548

> <Gold.PLP.part.metal>
0.0000

> <Gold.PLP.part.buried>
-3.8966

> <Gold.PLP.part.nonpolar>
-31.4081

> <Gold.PLP.part.repulsive>
0.5252

> <Gold.PLP.ligand.clash>
0.0000

> <Gold.PLP.ligand.torsion>
1.0069

> <Gold.PLP.Chemscore.Hbond>
3.6480

> <Gold.PLP.Chemscore.CHOScore>
0.0000

> <Gold.PLP.Chemscore.Metal>
0.0000

> <Gold.Chemscore.Hbonds>
donor molecule, donor type, donor heavy atom, donor atom, acceptor molecule, acceptor atom, score
      L1  H     8    35       P1  8028  0.67
      L1  H    12    38       P1  7957  0.99
      L1  H    19    44       P1 10175  0.98
      P1  H  7989  7998       L1    10  0.98

> <Gold.PLP.Chemscore.Internal.Correction>
0.0188

> <Gold.Rescore>
     Score         DG    S(hbond)    S(metal)    S(lipo)     H(rot)  DE(clash)    DE(int)     intcor
     18.65     -20.64       3.53        0.00      86.46       2.64       0.19       1.79       ----

> <Gold.Chemscore.Fitness>
18.6517

> <Gold.Chemscore.DG>
-20.6391

> <Gold.Chemscore.ZeroCoef>
-5.4800

> <Gold.Chemscore.Hbond>
3.5311

> <Gold.Chemscore.Metal>
0.0000

> <Gold.Chemscore.Lipo>
86.4571

> <Gold.Chemscore.Internal_Hbond>
0.0000

> <Gold.Chemscore.DEClash>
0.1946

> <Gold.Chemscore.DEInternal>
1.7928

> <Gold.Chemscore.Rot>
2.6369

> <Gold.Chemscore.Internal.Correction>
   9.000000E+99

> <Gold.Chemscore.Hbonds>
donor molecule, donor type, donor heavy atom, donor atom, acceptor molecule, acceptor atom, score
      L1  H     8    35       P1  8028  0.68
      L1  H    12    38       P1  7957  0.94
      L1  H    19    44       P1 10175  0.91
      P1  H  7989  7998       L1    10  0.89

> <Gold.Chemscore.Hbond.Weighted>
-11.7940

> <Gold.Chemscore.Metal.Weighted>
-0.0000

> <Gold.Chemscore.Lipo.Weighted>
-10.1155

> <Gold.Chemscore.Internal_Hbond.Weighted>
0.0000

> <Gold.Chemscore.DEClash.Weighted>
0.1946

> <Gold.Chemscore.DEInternal.Weighted>
1.7928

> <Gold.Chemscore.Rot.Weighted>
6.7504

> <Gold.Chemscore.Internal.Correction.Weighted>
   9.000000E+99

> <Gold.Protein.RotatedTorsions>
[ 6907 6896 6895 6894 ] final  146.74 input  -60.11 | X-H torsion
[ 7974 7965 7964 7962 ] final -138.72 input  175.53 | X-H torsion
[ 8008 7997 7996 7995 ] final  -11.71 input   59.86 | X-H torsion
[ 10167 10162 10161 10158 ] final  143.08 input  -65.29 | X-H torsion
[ 10718 10713 10712 10709 ] final  -29.76 input   66.30 | X-H torsion
[ 10763 10752 10751 10750 ] final -125.30 input  -60.55 | X-H torsion
[ 11005 11000 10999 10996 ] final  -88.99 input  -57.11 | X-H torsion

> <Gold.Protein.ActiveResidues>
 VAL166  LYS551  ARG553  GLY616  TRP617  ASP618  TYR619  PRO620  LYS621  CYS622 
 ASP623  PHE694  ASN695  SER759  ASP760  ASP761  ALA762  ILE779  LEU786  VAL792 
 PHE793  MET794  SER795  GLU796  ALA797  LYS798  CYS799  TRP800  GLU811  SER814 

> <Gold.Protein.RotatedAtoms>
  152.1639  133.4599  159.4874 H   0  0  0  0  0  0  0  0  0  0  0  0  # atno 6907 bound_to 6896
  150.6910  134.2037  159.4341 H   0  0  0  0  0  0  0  0  0  0  0  0  # atno 6908 bound_to 6896
  151.9941  134.9963  160.0613 H   0  0  0  0  0  0  0  0  0  0  0  0  # atno 6909 bound_to 6896
  144.8735  140.6403  143.5251 H   0  0  0  0  0  0  0  0  0  0  0  0  # atno 7974 bound_to 7965
  154.5440  140.2295  155.8593 H   0  0  0  0  0  0  0  0  0  0  0  0  # atno 8008 bound_to 7997
  156.1886  140.3083  155.9249 H   0  0  0  0  0  0  0  0  0  0  0  0  # atno 8009 bound_to 7997
  155.3200  140.0440  157.3029 H   0  0  0  0  0  0  0  0  0  0  0  0  # atno 8010 bound_to 7997
  139.4978  144.6064  151.6368 H   0  0  0  0  0  0  0  0  0  0  0  0  # atno 10167 bound_to 10162
  156.4084  130.4403  149.7270 H   0  0  0  0  0  0  0  0  0  0  0  0  # atno 10718 bound_to 10713
  154.8734  135.4034  154.3245 H   0  0  0  0  0  0  0  0  0  0  0  0  # atno 10763 bound_to 10752
  153.4068  135.7019  153.6392 H   0  0  0  0  0  0  0  0  0  0  0  0  # atno 10764 bound_to 10752
  153.5111  135.3707  155.2558 H   0  0  0  0  0  0  0  0  0  0  0  0  # atno 10765 bound_to 10752
  141.1592  133.7603  156.9530 H   0  0  0  0  0  0  0  0  0  0  0  0  # atno 11005 bound_to 11000
  145.4085  139.1584  143.4138 LP  0  0  0  0  0  0  0  0  0  0  0  0  # atno 17320 bound_to 7965
  146.2947  140.4188  142.8726 LP  0  0  0  0  0  0  0  0  0  0  0  0  # atno 17321 bound_to 7965
  140.5727  144.0081  150.6225 LP  0  0  0  0  0  0  0  0  0  0  0  0  # atno 17342 bound_to 10162
  140.3204  143.3141  152.0790 LP  0  0  0  0  0  0  0  0  0  0  0  0  # atno 17343 bound_to 10162
  156.4258  130.7791  151.2810 LP  0  0  0  0  0  0  0  0  0  0  0  0  # atno 17370 bound_to 10713
  157.7506  131.0169  150.3563 LP  0  0  0  0  0  0  0  0  0  0  0  0  # atno 17371 bound_to 10713
  140.1244  134.9396  157.2249 LP  0  0  0  0  0  0  0  0  0  0  0  0  # atno 17394 bound_to 11000
  140.3031  134.3109  155.7285 LP  0  0  0  0  0  0  0  0  0  0  0  0  # atno 17395 bound_to 11000

$$$$
