AV-unprocessed.smi:21|AV-procd|sdf|140|dock2
  -GOLD-   2262015343D 1   1.00000     0.00000
 Structure written by MMmdl.
 62 65  0  0  0  0  0  0  0  0  2 V2000
  146.3379  132.4053  152.8479 C   0  0  0  0  0  0  0  0  0  0  0  0
  145.9676  132.8538  154.1416 O   0  0  0  0  0  0  0  0  0  0  0  0
  146.0532  134.2622  154.2976 C   0  0  2  0  0  0  0  0  0  0  0  0
  147.4595  134.6683  154.7144 C   0  0  0  0  0  0  0  0  0  0  0  0
  147.2439  136.0414  155.3576 C   0  0  2  0  0  0  0  0  0  0  0  0
  148.3598  136.4611  156.3354 C   0  0  0  0  0  0  0  0  0  0  0  0
  149.6899  136.4247  155.7206 N   0  0  0  0  0  0  0  0  0  0  0  0
  150.3287  135.1227  155.5698 C   0  0  0  0  0  0  0  0  0  0  0  0
  150.4099  137.5701  155.5292 C   0  0  0  0  0  0  0  0  0  0  0  0
  151.5206  137.5098  154.7455 N   0  0  0  0  0  0  0  0  0  0  0  0
  152.2658  138.5937  154.5180 C   0  0  0  0  0  0  0  0  0  0  0  0
  152.0897  139.8336  154.9714 N   0  0  0  0  0  0  0  0  0  0  0  0
  150.9829  139.9140  155.7621 C   0  0  0  0  0  0  0  0  0  0  0  0
  150.0935  138.8480  156.0907 C   0  0  0  0  0  0  0  0  0  0  0  0
  149.0804  139.3374  156.9114 N   0  0  0  0  0  0  0  0  0  0  0  0
  149.3567  140.6031  157.0611 C   0  0  0  0  0  0  0  0  0  0  0  0
  150.4888  141.0316  156.4102 N   0  0  0  0  0  0  0  0  0  0  0  0
  151.0334  142.3776  156.4000 C   0  0  0  0  0  0  0  0  0  0  0  0
  151.1921  142.9904  157.8188 C   0  0  2  0  0  0  0  0  0  0  0  0
  151.2800  144.5358  157.7946 C   0  0  0  0  0  0  0  0  0  0  0  0
  150.3676  145.1343  158.6918 O   0  0  0  0  0  0  0  0  0  0  0  0
  152.3867  142.4003  158.6151 C   0  0  2  0  0  0  0  0  0  0  0  0
  152.3323  140.9184  158.9391 C   0  0  0  0  0  0  0  0  0  0  0  0
  153.4335  140.8009  159.9878 C   0  0  0  0  0  0  0  0  0  0  0  0
  153.4144  142.0319  160.7057 O   0  0  0  0  0  0  0  0  0  0  0  0
  152.6538  143.0074  159.9962 C   0  0  0  0  0  0  0  0  0  0  0  0
  145.9326  135.9375  156.0412 N   0  3  1  0  0  0  0  0  0  0  0  0
  145.1629  137.2004  156.0725 C   0  0  0  0  0  0  0  0  0  0  0  0
  145.1906  134.7996  155.4468 C   0  0  0  0  0  0  0  0  0  0  0  0
  145.8026  134.7737  153.3661 H   0  0  0  0  0  0  0  0  0  0  0  0
  147.1558  136.7788  154.5572 H   0  0  0  0  0  0  0  0  0  0  0  0
  146.2682  131.3183  152.8056 H   0  0  0  0  0  0  0  0  0  0  0  0
  147.3660  132.6841  152.6135 H   0  0  0  0  0  0  0  0  0  0  0  0
  145.6807  132.8117  152.0785 H   0  0  0  0  0  0  0  0  0  0  0  0
  147.8418  133.9611  155.4522 H   0  0  0  0  0  0  0  0  0  0  0  0
  148.1590  134.6939  153.8784 H   0  0  0  0  0  0  0  0  0  0  0  0
  148.1817  137.4864  156.6604 H   0  0  0  0  0  0  0  0  0  0  0  0
  148.3084  135.8690  157.2490 H   0  0  0  0  0  0  0  0  0  0  0  0
  151.1031  134.9829  156.3245 H   0  0  0  0  0  0  0  0  0  0  0  0
  150.7743  135.0222  154.5799 H   0  0  0  0  0  0  0  0  0  0  0  0
  149.6047  134.3158  155.6856 H   0  0  0  0  0  0  0  0  0  0  0  0
  153.1270  138.4461  153.8828 H   0  0  0  0  0  0  0  0  0  0  0  0
  148.7429  141.2601  157.6600 H   0  0  0  0  0  0  0  0  0  0  0  0
  151.9886  142.3284  155.8805 H   0  0  0  0  0  0  0  0  0  0  0  0
  150.3829  143.0005  155.7859 H   0  0  0  0  0  0  0  0  0  0  0  0
  150.3035  142.7295  158.3962 H   0  0  0  0  0  0  0  0  0  0  0  0
  152.2744  144.8691  158.0924 H   0  0  0  0  0  0  0  0  0  0  0  0
  151.1081  144.9196  156.7884 H   0  0  0  0  0  0  0  0  0  0  0  0
  149.6869  145.5578  158.1915 H   0  0  0  0  0  0  0  0  0  0  0  0
  153.2937  142.5711  158.0321 H   0  0  0  0  0  0  0  0  0  0  0  0
  151.3778  140.6412  159.3860 H   0  0  0  0  0  0  0  0  0  0  0  0
  152.5042  140.2806  158.0716 H   0  0  0  0  0  0  0  0  0  0  0  0
  153.2899  139.9482  160.6518 H   0  0  0  0  0  0  0  0  0  0  0  0
  154.4064  140.6944  159.5061 H   0  0  0  0  0  0  0  0  0  0  0  0
  153.1904  143.9542  159.9325 H   0  0  0  0  0  0  0  0  0  0  0  0
  151.7370  143.1839  160.5559 H   0  0  0  0  0  0  0  0  0  0  0  0
  144.8972  137.5243  155.0653 H   0  0  0  0  0  0  0  0  0  0  0  0
  145.7418  137.9937  156.5463 H   0  0  0  0  0  0  0  0  0  0  0  0
  144.2432  137.0707  156.6439 H   0  0  0  0  0  0  0  0  0  0  0  0
  144.1910  135.0732  155.1053 H   0  0  0  0  0  0  0  0  0  0  0  0
  145.0755  134.0409  156.2219 H   0  0  0  0  0  0  0  0  0  0  0  0
  146.1237  135.6779  156.9986 H   0  0  0  0  0  0  0  0  0  0  0  0
  1  2  1  0  0  0  0
  1 32  1  0  0  0  0
  1 33  1  0  0  0  0
  1 34  1  0  0  0  0
  2  3  1  0  0  0  0
  3 30  1  0  0  0  0
  3 29  1  0  0  0  0
  3  4  1  0  0  0  0
  4  5  1  0  0  0  0
  4 35  1  0  0  0  0
  4 36  1  0  0  0  0
  5 31  1  0  0  0  0
  5  6  1  0  0  0  0
  5 27  1  0  0  0  0
  6  7  1  0  0  0  0
  6 37  1  0  0  0  0
  6 38  1  0  0  0  0
  7  8  1  0  0  0  0
  7  9  1  0  0  0  0
  8 39  1  0  0  0  0
  8 40  1  0  0  0  0
  8 41  1  0  0  0  0
  9 14  1  0  0  0  0
  9 10  2  0  0  0  0
 10 11  1  0  0  0  0
 11 12  2  0  0  0  0
 11 42  1  0  0  0  0
 12 13  1  0  0  0  0
 13 17  1  0  0  0  0
 13 14  2  0  0  0  0
 14 15  1  0  0  0  0
 15 16  2  0  0  0  0
 16 17  1  0  0  0  0
 16 43  1  0  0  0  0
 17 18  1  0  0  0  0
 18 19  1  0  0  0  0
 18 44  1  0  0  0  0
 18 45  1  0  0  0  0
 19 20  1  0  0  0  0
 19 22  1  0  0  0  0
 19 46  1  0  0  0  0
 20 21  1  0  0  0  0
 20 47  1  0  0  0  0
 20 48  1  0  0  0  0
 21 49  1  0  0  0  0
 22 26  1  0  0  0  0
 22 23  1  0  0  0  0
 22 50  1  0  0  0  0
 23 24  1  0  0  0  0
 23 51  1  0  0  0  0
 23 52  1  0  0  0  0
 24 25  1  0  0  0  0
 24 53  1  0  0  0  0
 24 54  1  0  0  0  0
 25 26  1  0  0  0  0
 26 55  1  0  0  0  0
 26 56  1  0  0  0  0
 27 28  1  0  0  0  0
 27 29  1  0  0  0  0
 27 62  1  0  0  0  0
 28 57  1  0  0  0  0
 28 58  1  0  0  0  0
 28 59  1  0  0  0  0
 29 60  1  0  0  0  0
 29 61  1  0  0  0  0
M  CHG  1  27   1
M  END
> <s_m_source_file>
AV-unprocessed.smi

> <i_m_source_file_index>
21

> <i_lp_mmshare_version>
43012

> <i_f3d_flags>
0

> <s_epik_input>
W0NIM11PW0NASF0xW0NIMl1bQ0BIXShOKFtDSDNdKVtDSDJdMSlbQ0gyXU4oW0NIM10pYyhuW2NIXW4yKWMoYzIzKW5bY0hdbjNbQ0gyXVtDQEhdKFtDSDJdW09IXSlbQ0BASF00W0NIMl1bQ0gyXU9bQ0gyXTQ=

> <s_epik_cmdline>
J2VwaWtfcHl0aG9uJywgJy1waCcsICc3LjAnLCAnLXRuJywgJzgnLCAnLW1hJywgJzIwMCcsICctbWV0YWxfYmluZGluZycsICctaW1hZScsICc8aW5maWxlLm1hZT4nLCAnLW9tYWUnLCAnPG91dGZpbGUubWFlPic=

> <r_lp_tautomer_probability>
1

> <r_epik_Ionization_Penalty>
0.0157465

> <r_epik_Ionization_Penalty_Charging>
0.015354

> <r_epik_Ionization_Penalty_Neutral>
0.000392529

> <r_epik_State_Penalty>
0.0120612

> <r_epik_Charging_Adjusted_Penalty>
0.0274152

> <i_epik_Tot_Q>
1

> <i_epik_Tot_abs_Q>
1

> <r_epik_Metal_State_Penalty>
0.0121253

> <b_epik_Metal_Only>
0

> <s_lp_Force_Field>
OPLS_2005

> <r_lp_Energy>
59.0143

> <b_lp_Chiralities_Consistent>
1

> <s_lp_Variant>
AV-unprocessed.smi:21-20

> <Gold.Version>
5.8.1

> <Gold.Id.Protein>
6NUR|6NUR_protein|mol2

> <Gold.PLP.Fitness>
46.9009

> <Gold.PLP.PLP>
-41.0343

> <Gold.PLP.part.hbond>
-3.2057

> <Gold.PLP.part.metal>
0.0000

> <Gold.PLP.part.buried>
-7.8710

> <Gold.PLP.part.nonpolar>
-31.3852

> <Gold.PLP.part.repulsive>
0.2780

> <Gold.PLP.ligand.clash>
0.0000

> <Gold.PLP.ligand.torsion>
1.5347

> <Gold.PLP.Chemscore.Hbond>
2.6969

> <Gold.PLP.Chemscore.CHOScore>
0.0000

> <Gold.PLP.Chemscore.Metal>
0.0000

> <Gold.Chemscore.Hbonds>
donor molecule, donor type, donor heavy atom, donor atom, acceptor molecule, acceptor atom, score
      L1  H    21    49       P1  8029  1.00
      P1  H  7989  7998       L1    12  0.83
      P1  H 10752 10764       L1    10  0.16

> <Gold.PLP.Chemscore.Internal.Correction>
0.8456

> <Gold.Rescore>
     Score         DG    S(hbond)    S(metal)    S(lipo)     H(rot)  DE(clash)    DE(int)     intcor
     10.46     -14.01       1.65        0.00      93.21       3.08       0.61       2.94       ----

> <Gold.Chemscore.Fitness>
10.4611

> <Gold.Chemscore.DG>
-14.0124

> <Gold.Chemscore.ZeroCoef>
-5.4800

> <Gold.Chemscore.Hbond>
1.6468

> <Gold.Chemscore.Metal>
0.0000

> <Gold.Chemscore.Lipo>
93.2149

> <Gold.Chemscore.Internal_Hbond>
0.0000

> <Gold.Chemscore.DEClash>
0.6106

> <Gold.Chemscore.DEInternal>
2.9407

> <Gold.Chemscore.Rot>
3.0758

> <Gold.Chemscore.Internal.Correction>
   9.000000E+99

> <Gold.Chemscore.Hbonds>
donor molecule, donor type, donor heavy atom, donor atom, acceptor molecule, acceptor atom, score
      L1  H    21    49       P1  8029  0.47
      P1  H  7989  7998       L1    12  0.21
      P1  H 10752 10764       L1    10  0.09

> <Gold.Chemscore.Hbond.Weighted>
-5.5004

> <Gold.Chemscore.Metal.Weighted>
-0.0000

> <Gold.Chemscore.Lipo.Weighted>
-10.9061

> <Gold.Chemscore.Internal_Hbond.Weighted>
0.0000

> <Gold.Chemscore.DEClash.Weighted>
0.6106

> <Gold.Chemscore.DEInternal.Weighted>
2.9407

> <Gold.Chemscore.Rot.Weighted>
7.8741

> <Gold.Chemscore.Internal.Correction.Weighted>
   9.000000E+99

> <Gold.Protein.RotatedTorsions>
[ 6907 6896 6895 6894 ] final   20.87 input  -60.11 | X-H torsion
[ 7974 7965 7964 7962 ] final  140.65 input  175.53 | X-H torsion
[ 8008 7997 7996 7995 ] final  -56.82 input   59.86 | X-H torsion
[ 10167 10162 10161 10158 ] final   99.23 input  -65.29 | X-H torsion
[ 10718 10713 10712 10709 ] final  -35.64 input   66.30 | X-H torsion
[ 10763 10752 10751 10750 ] final  -74.99 input  -60.55 | X-H torsion
[ 11005 11000 10999 10996 ] final -161.76 input  -57.11 | X-H torsion

> <Gold.Protein.ActiveResidues>
 VAL166  LYS551  ARG553  GLY616  TRP617  ASP618  TYR619  PRO620  LYS621  CYS622 
 ASP623  PHE694  ASN695  SER759  ASP760  ASP761  ALA762  ILE779  LEU786  VAL792 
 PHE793  MET794  SER795  GLU796  ALA797  LYS798  CYS799  TRP800  GLU811  SER814 

> <Gold.Protein.RotatedAtoms>
  151.9030  135.0370  160.0507 H   0  0  0  0  0  0  0  0  0  0  0  0  # atno 6907 bound_to 6896
  152.2342  133.5078  159.5241 H   0  0  0  0  0  0  0  0  0  0  0  0  # atno 6908 bound_to 6896
  150.7034  134.1092  159.4036 H   0  0  0  0  0  0  0  0  0  0  0  0  # atno 6909 bound_to 6896
  144.9167  139.5221  143.5683 H   0  0  0  0  0  0  0  0  0  0  0  0  # atno 7974 bound_to 7965
  154.4244  140.1121  156.5699 H   0  0  0  0  0  0  0  0  0  0  0  0  # atno 8008 bound_to 7997
  155.6223  140.3495  155.4637 H   0  0  0  0  0  0  0  0  0  0  0  0  # atno 8009 bound_to 7997
  156.0014  140.1200  157.0533 H   0  0  0  0  0  0  0  0  0  0  0  0  # atno 8010 bound_to 7997
  139.7637  144.6946  151.0256 H   0  0  0  0  0  0  0  0  0  0  0  0  # atno 10167 bound_to 10162
  156.3362  130.4286  149.7828 H   0  0  0  0  0  0  0  0  0  0  0  0  # atno 10718 bound_to 10713
  154.4805  135.5846  153.6386 H   0  0  0  0  0  0  0  0  0  0  0  0  # atno 10763 bound_to 10752
  152.9847  135.6088  154.3252 H   0  0  0  0  0  0  0  0  0  0  0  0  # atno 10764 bound_to 10752
  154.3143  135.2844  155.2530 H   0  0  0  0  0  0  0  0  0  0  0  0  # atno 10765 bound_to 10752
  140.6168  134.4792  157.5220 H   0  0  0  0  0  0  0  0  0  0  0  0  # atno 11005 bound_to 11000
  146.3185  139.8015  142.8964 LP  0  0  0  0  0  0  0  0  0  0  0  0  # atno 17320 bound_to 7965
  145.3364  141.0278  143.3417 LP  0  0  0  0  0  0  0  0  0  0  0  0  # atno 17321 bound_to 7965
  140.7809  143.4668  151.0201 LP  0  0  0  0  0  0  0  0  0  0  0  0  # atno 17342 bound_to 10162
  139.8353  143.7636  152.3180 LP  0  0  0  0  0  0  0  0  0  0  0  0  # atno 17343 bound_to 10162
  156.5081  130.8160  151.3158 LP  0  0  0  0  0  0  0  0  0  0  0  0  # atno 17370 bound_to 10713
  157.7439  130.9922  150.2630 LP  0  0  0  0  0  0  0  0  0  0  0  0  # atno 17371 bound_to 10713
  139.9169  134.8227  156.1336 LP  0  0  0  0  0  0  0  0  0  0  0  0  # atno 17394 bound_to 11000
  141.0770  133.6771  156.2257 LP  0  0  0  0  0  0  0  0  0  0  0  0  # atno 17395 bound_to 11000

$$$$
