AV-unprocessed.smi:1578|AV-procd|sdf|6353|dock1
  -GOLD-   22720 6573D 1   1.00000     0.00000
 Structure written by MMmdl.
 45 46  0  0  0  0  0  0  0  0  2 V2000
  149.3502  131.8489  153.6319 C   0  0  0  0  0  0  0  0  0  0  0  0
  148.6135  133.1803  153.4334 C   0  0  1  0  0  0  0  0  0  0  0  0
  147.3320  132.9963  152.5864 C   0  0  0  0  0  0  0  0  0  0  0  0
  146.7684  134.2776  152.0877 N   0  3  0  0  0  0  0  0  0  0  0  0
  145.8570  134.1128  150.9299 C   0  0  0  0  0  0  0  0  0  0  0  0
  145.3911  135.4881  150.4257 C   0  0  0  0  0  0  0  0  0  0  0  0
  144.7411  136.1818  151.4837 O   0  0  0  0  0  0  0  0  0  0  0  0
  145.6136  136.4179  152.5820 C   0  0  0  0  0  0  0  0  0  0  0  0
  146.1148  135.0779  153.1500 C   0  0  0  0  0  0  0  0  0  0  0  0
  148.2946  133.7543  154.7405 N   0  0  0  0  0  0  0  0  0  0  0  0
  149.1754  134.0344  155.7139 C   0  0  0  0  0  0  0  0  0  0  0  0
  150.3749  133.7676  155.6423 O   0  0  0  0  0  0  0  0  0  0  0  0
  148.6159  134.7482  156.9502 C   0  0  0  0  0  0  0  0  0  0  0  0
  149.4296  135.9145  157.3336 N   0  0  0  0  0  0  0  0  0  0  0  0
  150.0029  136.6732  156.2945 C   0  0  0  0  0  0  0  0  0  0  0  0
  150.7661  137.7600  156.5163 C   0  0  0  0  0  0  0  0  0  0  0  0
  151.3513  138.5580  155.3621 C   0  0  0  0  0  0  0  0  0  0  0  0
  152.1663  137.8140  154.6145 F   0  0  0  0  0  0  0  0  0  0  0  0
  150.3736  139.0205  154.5838 F   0  0  0  0  0  0  0  0  0  0  0  0
  152.0397  139.6026  155.8225 F   0  0  0  0  0  0  0  0  0  0  0  0
  150.9711  138.1352  157.9023 C   0  0  0  0  0  0  0  0  0  0  0  0
  150.4257  137.4233  158.9079 C   0  0  0  0  0  0  0  0  0  0  0  0
  149.6045  136.2388  158.6507 C   0  0  0  0  0  0  0  0  0  0  0  0
  149.0985  135.5816  159.5614 O   0  0  0  0  0  0  0  0  0  0  0  0
  149.6239  131.4068  152.6735 H   0  0  0  0  0  0  0  0  0  0  0  0
  148.7320  131.1267  154.1666 H   0  0  0  0  0  0  0  0  0  0  0  0
  150.2685  131.9887  154.2032 H   0  0  0  0  0  0  0  0  0  0  0  0
  149.2984  133.8427  152.9024 H   0  0  0  0  0  0  0  0  0  0  0  0
  147.5154  132.3227  151.7477 H   0  0  0  0  0  0  0  0  0  0  0  0
  146.5838  132.5056  153.2110 H   0  0  0  0  0  0  0  0  0  0  0  0
  146.3567  133.5804  150.1214 H   0  0  0  0  0  0  0  0  0  0  0  0
  144.9954  133.5103  151.2219 H   0  0  0  0  0  0  0  0  0  0  0  0
  146.2335  136.0720  150.0505 H   0  0  0  0  0  0  0  0  0  0  0  0
  144.6912  135.3683  149.5986 H   0  0  0  0  0  0  0  0  0  0  0  0
  146.4466  137.0464  152.2653 H   0  0  0  0  0  0  0  0  0  0  0  0
  145.0732  136.9720  153.3497 H   0  0  0  0  0  0  0  0  0  0  0  0
  145.2816  134.5143  153.5728 H   0  0  0  0  0  0  0  0  0  0  0  0
  146.8205  135.2672  153.9597 H   0  0  0  0  0  0  0  0  0  0  0  0
  147.3279  133.9993  154.9010 H   0  0  0  0  0  0  0  0  0  0  0  0
  147.5865  135.0648  156.7691 H   0  0  0  0  0  0  0  0  0  0  0  0
  148.5568  134.0228  157.7624 H   0  0  0  0  0  0  0  0  0  0  0  0
  149.7803  136.3202  155.2979 H   0  0  0  0  0  0  0  0  0  0  0  0
  151.5715  139.0001  158.1422 H   0  0  0  0  0  0  0  0  0  0  0  0
  150.5989  137.7315  159.9285 H   0  0  0  0  0  0  0  0  0  0  0  0
  147.5539  134.8267  151.7679 H   0  0  0  0  0  0  0  0  0  0  0  0
  1  2  1  0  0  0  0
  1 25  1  0  0  0  0
  1 26  1  0  0  0  0
  1 27  1  0  0  0  0
  2  3  1  0  0  0  0
  2 10  1  0  0  0  0
  2 28  1  0  0  0  0
  3  4  1  0  0  0  0
  3 29  1  0  0  0  0
  3 30  1  0  0  0  0
  4  9  1  0  0  0  0
  4  5  1  0  0  0  0
  4 45  1  0  0  0  0
  5  6  1  0  0  0  0
  5 31  1  0  0  0  0
  5 32  1  0  0  0  0
  6  7  1  0  0  0  0
  6 33  1  0  0  0  0
  6 34  1  0  0  0  0
  7  8  1  0  0  0  0
  8  9  1  0  0  0  0
  8 35  1  0  0  0  0
  8 36  1  0  0  0  0
  9 37  1  0  0  0  0
  9 38  1  0  0  0  0
 10 11  1  0  0  0  0
 10 39  1  0  0  0  0
 11 12  2  0  0  0  0
 11 13  1  0  0  0  0
 13 14  1  0  0  0  0
 13 40  1  0  0  0  0
 13 41  1  0  0  0  0
 14 23  1  0  0  0  0
 14 15  1  0  0  0  0
 15 16  2  0  0  0  0
 15 42  1  0  0  0  0
 16 17  1  0  0  0  0
 16 21  1  0  0  0  0
 17 18  1  0  0  0  0
 17 19  1  0  0  0  0
 17 20  1  0  0  0  0
 21 22  2  0  0  0  0
 21 43  1  0  0  0  0
 22 23  1  0  0  0  0
 22 44  1  0  0  0  0
 23 24  2  0  0  0  0
M  CHG  1   4   1
M  END
> <s_m_source_file>
AV-unprocessed.smi

> <i_m_source_file_index>
1578

> <i_lp_mmshare_version>
43012

> <i_f3d_flags>
0

> <s_epik_input>
W0NIMl0xW0NIMl1PW0NIMl1bQ0gyXU4xW0NIMl1bQ0BASF0oW0NIM10pW05IXUMoPU8pW0NIMl1uMltjSF1jKEMoRikoRilGKVtjSF1bY0hdYzI9Tw==

> <s_epik_cmdline>
J2VwaWtfcHl0aG9uJywgJy1waCcsICc3LjAnLCAnLXRuJywgJzgnLCAnLW1hJywgJzIwMCcsICctbWV0YWxfYmluZGluZycsICctaW1hZScsICc8aW5maWxlLm1hZT4nLCAnLW9tYWUnLCAnPG91dGZpbGUubWFlPic=

> <r_lp_tautomer_probability>
1

> <r_epik_Ionization_Penalty>
0.656654

> <r_epik_Ionization_Penalty_Charging>
0.656653

> <r_epik_Ionization_Penalty_Neutral>
9.12373e-08

> <r_epik_State_Penalty>
0.675641

> <r_epik_Charging_Adjusted_Penalty>
1.33229

> <i_epik_Tot_Q>
1

> <i_epik_Tot_abs_Q>
1

> <r_epik_Metal_State_Penalty>
0.675695

> <b_epik_Metal_Only>
0

> <s_lp_Force_Field>
OPLS_2005

> <r_lp_Energy>
32.4409

> <b_lp_Chiralities_Consistent>
1

> <s_lp_Variant>
AV-unprocessed.smi:1578-4

> <Gold.Version>
5.8.1

> <Gold.Id.Protein>
6NUR|6NUR_protein|mol2

> <Gold.PLP.Fitness>
41.9042

> <Gold.PLP.PLP>
-34.2215

> <Gold.PLP.part.hbond>
-2.0000

> <Gold.PLP.part.metal>
0.0000

> <Gold.PLP.part.buried>
-3.8637

> <Gold.PLP.part.nonpolar>
-28.0761

> <Gold.PLP.part.repulsive>
0.2606

> <Gold.PLP.ligand.clash>
0.0000

> <Gold.PLP.ligand.torsion>
0.7011

> <Gold.PLP.Chemscore.Hbond>
2.9500

> <Gold.PLP.Chemscore.CHOScore>
0.0000

> <Gold.PLP.Chemscore.Metal>
0.0000

> <Gold.Chemscore.Hbonds>
donor molecule, donor type, donor heavy atom, donor atom, acceptor molecule, acceptor atom, score
      L1  H     4    45       P1  7948  2.00
      P1  H  6896  6909       L1    24  0.30

> <Gold.PLP.Chemscore.Internal.Correction>
0.2348

> <Gold.Rescore>
     Score         DG    S(hbond)    S(metal)    S(lipo)     H(rot)  DE(clash)    DE(int)     intcor
     10.08     -13.32       1.90        0.00      60.34       2.17       1.45       1.79       ----

> <Gold.Chemscore.Fitness>
10.0841

> <Gold.Chemscore.DG>
-13.3236

> <Gold.Chemscore.ZeroCoef>
-5.4800

> <Gold.Chemscore.Hbond>
1.8991

> <Gold.Chemscore.Metal>
0.0000

> <Gold.Chemscore.Lipo>
60.3382

> <Gold.Chemscore.Internal_Hbond>
0.0000

> <Gold.Chemscore.DEClash>
1.4467

> <Gold.Chemscore.DEInternal>
1.7928

> <Gold.Chemscore.Rot>
2.1716

> <Gold.Chemscore.Internal.Correction>
   9.000000E+99

> <Gold.Chemscore.Hbonds>
donor molecule, donor type, donor heavy atom, donor atom, acceptor molecule, acceptor atom, score
      L1  H     4    45       P1  7948  0.59

> <Gold.Chemscore.Hbond.Weighted>
-6.3432

> <Gold.Chemscore.Metal.Weighted>
-0.0000

> <Gold.Chemscore.Lipo.Weighted>
-7.0596

> <Gold.Chemscore.Internal_Hbond.Weighted>
0.0000

> <Gold.Chemscore.DEClash.Weighted>
1.4467

> <Gold.Chemscore.DEInternal.Weighted>
1.7928

> <Gold.Chemscore.Rot.Weighted>
5.5592

> <Gold.Chemscore.Internal.Correction.Weighted>
   9.000000E+99

> <Gold.Protein.RotatedTorsions>
[ 6907 6896 6895 6894 ] final   57.95 input  -60.11 | X-H torsion
[ 7974 7965 7964 7962 ] final -115.87 input  175.53 | X-H torsion
[ 8008 7997 7996 7995 ] final -156.88 input   59.86 | X-H torsion
[ 10167 10162 10161 10158 ] final  177.76 input  -65.29 | X-H torsion
[ 10718 10713 10712 10709 ] final   37.43 input   66.30 | X-H torsion
[ 10763 10752 10751 10750 ] final  138.46 input  -60.55 | X-H torsion
[ 11005 11000 10999 10996 ] final -101.46 input  -57.11 | X-H torsion

> <Gold.Protein.ActiveResidues>
 VAL166  LYS551  ARG553  GLY616  TRP617  ASP618  TYR619  PRO620  LYS621  CYS622 
 ASP623  PHE694  ASN695  SER759  ASP760  ASP761  ALA762  ILE779  LEU786  VAL792 
 PHE793  MET794  SER795  GLU796  ALA797  LYS798  CYS799  TRP800  GLU811  SER814 

> <Gold.Protein.RotatedAtoms>
  152.3779  134.6635  160.0153 H   0  0  0  0  0  0  0  0  0  0  0  0  # atno 6907 bound_to 6896
  151.6907  133.3305  159.3250 H   0  0  0  0  0  0  0  0  0  0  0  0  # atno 6908 bound_to 6896
  150.7724  134.6636  159.6398 H   0  0  0  0  0  0  0  0  0  0  0  0  # atno 6909 bound_to 6896
  145.1034  140.8566  143.3913 H   0  0  0  0  0  0  0  0  0  0  0  0  # atno 7974 bound_to 7965
  155.7239  140.0793  157.2318 H   0  0  0  0  0  0  0  0  0  0  0  0  # atno 8008 bound_to 7997
  154.4041  140.1607  156.2487 H   0  0  0  0  0  0  0  0  0  0  0  0  # atno 8009 bound_to 7997
  155.9171  140.3400  155.6146 H   0  0  0  0  0  0  0  0  0  0  0  0  # atno 8010 bound_to 7997
  139.5266  144.2760  152.0587 H   0  0  0  0  0  0  0  0  0  0  0  0  # atno 10167 bound_to 10162
  157.3468  130.7577  149.6950 H   0  0  0  0  0  0  0  0  0  0  0  0  # atno 10718 bound_to 10713
  153.8900  135.3034  155.3447 H   0  0  0  0  0  0  0  0  0  0  0  0  # atno 10763 bound_to 10752
  154.7721  135.4880  153.9672 H   0  0  0  0  0  0  0  0  0  0  0  0  # atno 10764 bound_to 10752
  153.1303  135.6802  153.9288 H   0  0  0  0  0  0  0  0  0  0  0  0  # atno 10765 bound_to 10752
  141.1230  133.8480  157.1234 H   0  0  0  0  0  0  0  0  0  0  0  0  # atno 11005 bound_to 11000
  145.0930  139.2877  143.5725 LP  0  0  0  0  0  0  0  0  0  0  0  0  # atno 17320 bound_to 7965
  146.3529  140.0473  142.8638 LP  0  0  0  0  0  0  0  0  0  0  0  0  # atno 17321 bound_to 7965
  140.2217  144.4459  150.6339 LP  0  0  0  0  0  0  0  0  0  0  0  0  # atno 17342 bound_to 10162
  140.6414  143.2204  151.6282 LP  0  0  0  0  0  0  0  0  0  0  0  0  # atno 17343 bound_to 10162
  155.9715  130.4152  150.4169 LP  0  0  0  0  0  0  0  0  0  0  0  0  # atno 17370 bound_to 10713
  157.2225  131.0486  151.2538 LP  0  0  0  0  0  0  0  0  0  0  0  0  # atno 17371 bound_to 10713
  140.0203  134.9949  157.0578 LP  0  0  0  0  0  0  0  0  0  0  0  0  # atno 17394 bound_to 11000
  140.4451  134.1640  155.7177 LP  0  0  0  0  0  0  0  0  0  0  0  0  # atno 17395 bound_to 11000

$$$$
