AV-unprocessed.smi:1545|AV-procd|sdf|6217|dock10
  -GOLD-   22720 6393D 1   1.00000     0.00000
 Structure written by MMmdl.
 41 43  0  0  0  0  0  0  0  0  1 V2000
  153.8315  135.5009  159.3742 O   0  0  0  0  0  0  0  0  0  0  0  0
  153.5733  136.7283  158.7276 C   0  0  0  0  0  0  0  0  0  0  0  0
  153.4951  137.8672  159.7549 C   0  0  0  0  0  0  0  0  0  0  0  0
  153.0831  139.1206  159.1499 N   0  0  0  0  0  0  0  0  0  0  0  0
  152.8884  140.3919  159.6777 C   0  0  0  0  0  0  0  0  0  0  0  0
  153.0633  140.7022  160.9608 N   0  0  0  0  0  0  0  0  0  0  0  0
  152.7449  142.0470  160.9835 C   0  0  0  0  0  0  0  0  0  0  0  0
  152.7287  142.9678  162.0556 C   0  0  0  0  0  0  0  0  0  0  0  0
  152.3593  144.3112  161.8377 C   0  0  0  0  0  0  0  0  0  0  0  0
  152.0013  144.7533  160.5474 C   0  0  0  0  0  0  0  0  0  0  0  0
  152.0122  143.8535  159.4643 C   0  0  0  0  0  0  0  0  0  0  0  0
  152.3827  142.5134  159.6861 C   0  0  0  0  0  0  0  0  0  0  0  0
  152.4932  141.3974  158.8618 N   0  0  0  0  0  0  0  0  0  0  0  0
  152.2262  141.3414  157.4305 C   0  0  0  0  0  0  0  0  0  0  0  0
  150.8134  141.8447  157.0735 C   0  0  1  0  0  0  0  0  0  0  0  0
  150.8586  143.2251  156.7672 O   0  0  0  0  0  0  0  0  0  0  0  0
  150.2031  141.0289  155.9451 C   0  0  0  0  0  0  0  0  0  0  0  0
  150.8388  139.8556  155.4820 C   0  0  0  0  0  0  0  0  0  0  0  0
  150.2649  139.1013  154.4401 C   0  0  0  0  0  0  0  0  0  0  0  0
  149.0522  139.5152  153.8563 C   0  0  0  0  0  0  0  0  0  0  0  0
  148.4120  140.6818  154.3166 C   0  0  0  0  0  0  0  0  0  0  0  0
  147.2439  141.0783  153.7581 F   0  0  0  0  0  0  0  0  0  0  0  0
  148.9851  141.4359  155.3591 C   0  0  0  0  0  0  0  0  0  0  0  0
  154.3882  134.9782  158.8177 H   0  0  0  0  0  0  0  0  0  0  0  0
  154.4004  136.9132  158.0419 H   0  0  0  0  0  0  0  0  0  0  0  0
  152.6666  136.6621  158.1250 H   0  0  0  0  0  0  0  0  0  0  0  0
  152.8363  137.6088  160.5848 H   0  0  0  0  0  0  0  0  0  0  0  0
  154.4846  138.0321  160.1816 H   0  0  0  0  0  0  0  0  0  0  0  0
  152.8579  139.0379  158.1695 H   0  0  0  0  0  0  0  0  0  0  0  0
  152.9993  142.6391  163.0480 H   0  0  0  0  0  0  0  0  0  0  0  0
  152.3490  145.0059  162.6649 H   0  0  0  0  0  0  0  0  0  0  0  0
  151.7172  145.7835  160.3900 H   0  0  0  0  0  0  0  0  0  0  0  0
  151.7349  144.1884  158.4758 H   0  0  0  0  0  0  0  0  0  0  0  0
  152.9838  141.9293  156.9108 H   0  0  0  0  0  0  0  0  0  0  0  0
  152.3587  140.3128  157.0925 H   0  0  0  0  0  0  0  0  0  0  0  0
  150.1734  141.7440  157.9510 H   0  0  0  0  0  0  0  0  0  0  0  0
  150.0544  143.4618  156.3312 H   0  0  0  0  0  0  0  0  0  0  0  0
  151.7680  139.5295  155.9265 H   0  0  0  0  0  0  0  0  0  0  0  0
  150.7548  138.2048  154.0893 H   0  0  0  0  0  0  0  0  0  0  0  0
  148.6121  138.9372  153.0569 H   0  0  0  0  0  0  0  0  0  0  0  0
  148.4849  142.3277  155.7070 H   0  0  0  0  0  0  0  0  0  0  0  0
  1  2  1  0  0  0  0
  1 24  1  0  0  0  0
  2  3  1  0  0  0  0
  2 25  1  0  0  0  0
  2 26  1  0  0  0  0
  3  4  1  0  0  0  0
  3 27  1  0  0  0  0
  3 28  1  0  0  0  0
  4  5  1  0  0  0  0
  4 29  1  0  0  0  0
  5 13  1  0  0  0  0
  5  6  2  0  0  0  0
  6  7  1  0  0  0  0
  7 12  2  0  0  0  0
  7  8  1  0  0  0  0
  8  9  2  0  0  0  0
  8 30  1  0  0  0  0
  9 10  1  0  0  0  0
  9 31  1  0  0  0  0
 10 11  2  0  0  0  0
 10 32  1  0  0  0  0
 11 12  1  0  0  0  0
 11 33  1  0  0  0  0
 12 13  1  0  0  0  0
 13 14  1  0  0  0  0
 14 15  1  0  0  0  0
 14 34  1  0  0  0  0
 14 35  1  0  0  0  0
 15 16  1  0  0  0  0
 15 17  1  0  0  0  0
 15 36  1  0  0  0  0
 16 37  1  0  0  0  0
 17 23  1  0  0  0  0
 17 18  2  0  0  0  0
 18 19  1  0  0  0  0
 18 38  1  0  0  0  0
 19 20  2  0  0  0  0
 19 39  1  0  0  0  0
 20 21  1  0  0  0  0
 20 40  1  0  0  0  0
 21 22  1  0  0  0  0
 21 23  2  0  0  0  0
 23 41  1  0  0  0  0
M  END
> <s_m_source_file>
AV-unprocessed.smi

> <i_m_source_file_index>
1545

> <i_lp_mmshare_version>
43012

> <i_f3d_flags>
0

> <s_epik_input>
W09IXVtDSDJdW0NIMl1bTkhdYyhuMSluKGMoYzEyKVtjSF1bY0hdW2NIXVtjSF0yKVtDSDJdW0NASF0oW09IXSljM1tjSF1bY0hdW2NIXWMoRilbY0hdMw==

> <s_epik_cmdline>
J2VwaWtfcHl0aG9uJywgJy1waCcsICc3LjAnLCAnLXRuJywgJzgnLCAnLW1hJywgJzIwMCcsICctbWV0YWxfYmluZGluZycsICctaW1hZScsICc8aW5maWxlLm1hZT4nLCAnLW9tYWUnLCAnPG91dGZpbGUubWFlPic=

> <r_epik_Ionization_Penalty>
1.30972

> <r_epik_Ionization_Penalty_Charging>
0

> <r_epik_Ionization_Penalty_Neutral>
1.30972

> <r_epik_State_Penalty>
1.38438

> <r_epik_Charging_Adjusted_Penalty>
1.38438

> <i_epik_Tot_Q>
0

> <i_epik_Tot_abs_Q>
0

> <r_epik_Metal_State_Penalty>
0.00551145

> <b_epik_Metal_Only>
0

> <s_lp_Force_Field>
OPLS_2005

> <r_lp_Energy>
10.2352

> <b_lp_Chiralities_Consistent>
1

> <s_lp_Variant>
AV-unprocessed.smi:1545-4

> <Gold.Version>
5.8.1

> <Gold.Id.Protein>
6NUR|6NUR_protein|mol2

> <Gold.PLP.Fitness>
50.5588

> <Gold.PLP.PLP>
-45.9009

> <Gold.PLP.part.hbond>
-2.0000

> <Gold.PLP.part.metal>
0.0000

> <Gold.PLP.part.buried>
-2.8102

> <Gold.PLP.part.nonpolar>
-41.4587

> <Gold.PLP.part.repulsive>
0.0862

> <Gold.PLP.ligand.clash>
0.0000

> <Gold.PLP.ligand.torsion>
0.6921

> <Gold.PLP.Chemscore.Hbond>
2.0000

> <Gold.PLP.Chemscore.CHOScore>
0.0000

> <Gold.PLP.Chemscore.Metal>
0.0000

> <Gold.Chemscore.Hbonds>
donor molecule, donor type, donor heavy atom, donor atom, acceptor molecule, acceptor atom, score
      L1  H    16    37       P1  8028  1.00
      P1  H  6896  6908       L1     1  1.00

> <Gold.PLP.Chemscore.Internal.Correction>
0.0420

> <Gold.Rescore>
     Score         DG    S(hbond)    S(metal)    S(lipo)     H(rot)  DE(clash)    DE(int)     intcor
     17.14     -19.36       1.87        0.00     132.61       3.08       1.49       0.72       ----

> <Gold.Chemscore.Fitness>
17.1440

> <Gold.Chemscore.DG>
-19.3569

> <Gold.Chemscore.ZeroCoef>
-5.4800

> <Gold.Chemscore.Hbond>
1.8711

> <Gold.Chemscore.Metal>
0.0000

> <Gold.Chemscore.Lipo>
132.6085

> <Gold.Chemscore.Internal_Hbond>
0.0000

> <Gold.Chemscore.DEClash>
1.4905

> <Gold.Chemscore.DEInternal>
0.7224

> <Gold.Chemscore.Rot>
3.0812

> <Gold.Chemscore.Internal.Correction>
   9.000000E+99

> <Gold.Chemscore.Hbonds>
donor molecule, donor type, donor heavy atom, donor atom, acceptor molecule, acceptor atom, score
      L1  H    16    37       P1  8028  0.95
      P1  H  6896  6908       L1     1  0.74

> <Gold.Chemscore.Hbond.Weighted>
-6.2495

> <Gold.Chemscore.Metal.Weighted>
-0.0000

> <Gold.Chemscore.Lipo.Weighted>
-15.5152

> <Gold.Chemscore.Internal_Hbond.Weighted>
0.0000

> <Gold.Chemscore.DEClash.Weighted>
1.4905

> <Gold.Chemscore.DEInternal.Weighted>
0.7224

> <Gold.Chemscore.Rot.Weighted>
7.8878

> <Gold.Chemscore.Internal.Correction.Weighted>
   9.000000E+99

> <Gold.Protein.RotatedTorsions>
[ 6907 6896 6895 6894 ] final  -54.39 input  -60.11 | X-H torsion
[ 7974 7965 7964 7962 ] final   10.47 input  175.53 | X-H torsion
[ 8008 7997 7996 7995 ] final  -56.04 input   59.86 | X-H torsion
[ 10167 10162 10161 10158 ] final -164.65 input  -65.29 | X-H torsion
[ 10718 10713 10712 10709 ] final  -75.11 input   66.30 | X-H torsion
[ 10763 10752 10751 10750 ] final  134.52 input  -60.55 | X-H torsion
[ 11005 11000 10999 10996 ] final  153.83 input  -57.11 | X-H torsion

> <Gold.Protein.ActiveResidues>
 VAL166  LYS551  ARG553  GLY616  TRP617  ASP618  TYR619  PRO620  LYS621  CYS622 
 ASP623  PHE694  ASN695  SER759  ASP760  ASP761  ALA762  ILE779  LEU786  VAL792 
 PHE793  MET794  SER795  GLU796  ALA797  LYS798  CYS799  TRP800  GLU811  SER814 

> <Gold.Protein.RotatedAtoms>
  150.8342  134.7609  159.6879 H   0  0  0  0  0  0  0  0  0  0  0  0  # atno 6907 bound_to 6896
  152.4442  134.5526  159.9881 H   0  0  0  0  0  0  0  0  0  0  0  0  # atno 6908 bound_to 6896
  151.5680  133.3356  159.3020 H   0  0  0  0  0  0  0  0  0  0  0  0  # atno 6909 bound_to 6896
  146.2388  139.9630  142.8456 H   0  0  0  0  0  0  0  0  0  0  0  0  # atno 7974 bound_to 7965
  154.4216  140.1139  156.5573 H   0  0  0  0  0  0  0  0  0  0  0  0  # atno 8008 bound_to 7997
  155.6348  140.3496  155.4676 H   0  0  0  0  0  0  0  0  0  0  0  0  # atno 8009 bound_to 7997
  155.9919  140.1181  157.0620 H   0  0  0  0  0  0  0  0  0  0  0  0  # atno 8010 bound_to 7997
  139.6236  144.0576  152.1955 H   0  0  0  0  0  0  0  0  0  0  0  0  # atno 10167 bound_to 10162
  156.0219  130.4433  150.2994 H   0  0  0  0  0  0  0  0  0  0  0  0  # atno 10718 bound_to 10713
  153.8249  135.3111  155.3413 H   0  0  0  0  0  0  0  0  0  0  0  0  # atno 10763 bound_to 10752
  154.7997  135.4734  154.0249 H   0  0  0  0  0  0  0  0  0  0  0  0  # atno 10764 bound_to 10752
  153.1670  135.6871  153.8751 H   0  0  0  0  0  0  0  0  0  0  0  0  # atno 10765 bound_to 10752
  140.1434  134.8724  157.2360 H   0  0  0  0  0  0  0  0  0  0  0  0  # atno 11005 bound_to 11000
  145.1753  140.9741  143.4298 LP  0  0  0  0  0  0  0  0  0  0  0  0  # atno 17320 bound_to 7965
  144.9991  139.3615  143.6176 LP  0  0  0  0  0  0  0  0  0  0  0  0  # atno 17321 bound_to 7965
  140.0224  144.6143  150.7556 LP  0  0  0  0  0  0  0  0  0  0  0  0  # atno 17342 bound_to 10162
  140.7397  143.2795  151.3641 LP  0  0  0  0  0  0  0  0  0  0  0  0  # atno 17343 bound_to 10162
  157.1097  131.0218  151.3053 LP  0  0  0  0  0  0  0  0  0  0  0  0  # atno 17370 bound_to 10713
  157.4714  130.7711  149.7327 LP  0  0  0  0  0  0  0  0  0  0  0  0  # atno 17371 bound_to 10713
  140.2694  134.3478  155.7378 LP  0  0  0  0  0  0  0  0  0  0  0  0  # atno 17394 bound_to 11000
  141.2189  133.7415  156.9200 LP  0  0  0  0  0  0  0  0  0  0  0  0  # atno 17395 bound_to 11000

$$$$
