AV-unprocessed.smi:2550|AV-procd|sdf|10011|dock5
  -GOLD-   2272014 53D 1   1.00000     0.00000
 Structure written by MMmdl.
 28 29  0  0  0  0  0  0  0  0  2 V2000
  149.4978  132.3076  153.9898 C   0  0  0  0  0  0  0  0  0  0  0  0
  148.3339  133.2437  154.3534 C   0  0  0  0  0  0  0  0  0  0  0  0
  147.9306  133.1178  155.8315 C   0  0  0  0  0  0  0  0  0  0  0  0
  148.7901  134.5691  154.1569 O   0  0  0  0  0  0  0  0  0  0  0  0
  147.1523  133.0495  153.4334 C   0  0  0  0  0  0  0  0  0  0  0  0
  146.5512  133.9221  152.5665 C   0  0  0  0  0  0  0  0  0  0  0  0
  145.5418  133.1733  152.0010 N   0  0  0  0  0  0  0  0  0  0  0  0
  144.5452  133.6086  151.0690 C   0  0  0  0  0  0  0  0  0  0  0  0
  144.4891  133.0512  149.6465 C   0  0  0  0  0  0  0  0  0  0  0  0
  144.0299  134.3658  149.2158 N   0  3  0  0  0  0  0  0  0  0  0  0
  144.6595  134.9688  150.3840 C   0  0  0  0  0  0  0  0  0  0  0  0
  145.4912  131.9278  152.5258 N   0  0  0  0  0  0  0  0  0  0  0  0
  146.4669  131.8334  153.3726 N   0  0  0  0  0  0  0  0  0  0  0  0
  149.2164  131.2614  154.1155 H   0  0  0  0  0  0  0  0  0  0  0  0
  150.3683  132.4901  154.6208 H   0  0  0  0  0  0  0  0  0  0  0  0
  149.8067  132.4423  152.9525 H   0  0  0  0  0  0  0  0  0  0  0  0
  147.5549  132.1186  156.0543 H   0  0  0  0  0  0  0  0  0  0  0  0
  147.1457  133.8295  156.0908 H   0  0  0  0  0  0  0  0  0  0  0  0
  148.7778  133.3039  156.4924 H   0  0  0  0  0  0  0  0  0  0  0  0
  148.7354  134.7706  153.2352 H   0  0  0  0  0  0  0  0  0  0  0  0
  146.7473  134.9547  152.3176 H   0  0  0  0  0  0  0  0  0  0  0  0
  143.5806  133.5023  151.5703 H   0  0  0  0  0  0  0  0  0  0  0  0
  145.4687  132.8034  149.2325 H   0  0  0  0  0  0  0  0  0  0  0  0
  143.7627  132.2527  149.4925 H   0  0  0  0  0  0  0  0  0  0  0  0
  144.4197  134.6702  148.3351 H   0  0  0  0  0  0  0  0  0  0  0  0
  144.0749  135.7663  150.8435 H   0  0  0  0  0  0  0  0  0  0  0  0
  145.6889  135.2740  150.1856 H   0  0  0  0  0  0  0  0  0  0  0  0
  143.0233  134.4384  149.2594 H   0  0  0  0  0  0  0  0  0  0  0  0
  1  2  1  0  0  0  0
  1 14  1  0  0  0  0
  1 15  1  0  0  0  0
  1 16  1  0  0  0  0
  2  3  1  0  0  0  0
  2  4  1  0  0  0  0
  2  5  1  0  0  0  0
  3 17  1  0  0  0  0
  3 18  1  0  0  0  0
  3 19  1  0  0  0  0
  4 20  1  0  0  0  0
  5 13  1  0  0  0  0
  5  6  2  0  0  0  0
  6  7  1  0  0  0  0
  6 21  1  0  0  0  0
  7  8  1  0  0  0  0
  7 12  1  0  0  0  0
  8 11  1  0  0  0  0
  8  9  1  0  0  0  0
  8 22  1  0  0  0  0
  9 10  1  0  0  0  0
  9 23  1  0  0  0  0
  9 24  1  0  0  0  0
 10 11  1  0  0  0  0
 10 25  1  0  0  0  0
 10 28  1  0  0  0  0
 11 26  1  0  0  0  0
 11 27  1  0  0  0  0
 12 13  2  0  0  0  0
M  CHG  1  10   1
M  END
> <s_m_source_file>
AV-unprocessed.smi

> <i_m_source_file_index>
2550

> <i_lp_mmshare_version>
43012

> <i_f3d_flags>
0

> <s_epik_input>
W0NIM11DKFtDSDNdKShbT0hdKWMxW2NIXW4obm4xKVtDSF0yW0NIMl1bTkhdW0NIMl0y

> <s_epik_cmdline>
J2VwaWtfcHl0aG9uJywgJy1waCcsICc3LjAnLCAnLXRuJywgJzgnLCAnLW1hJywgJzIwMCcsICctbWV0YWxfYmluZGluZycsICctaW1hZScsICc8aW5maWxlLm1hZT4nLCAnLW9tYWUnLCAnPG91dGZpbGUubWFlPic=

> <r_lp_tautomer_probability>
1

> <r_epik_Ionization_Penalty>
0.215038

> <r_epik_Ionization_Penalty_Charging>
0.215038

> <r_epik_Ionization_Penalty_Neutral>
3.71976e-07

> <r_epik_State_Penalty>
0.20523

> <r_epik_Charging_Adjusted_Penalty>
0.420268

> <i_epik_Tot_Q>
1

> <i_epik_Tot_abs_Q>
1

> <r_epik_Metal_State_Penalty>
0.20531

> <b_epik_Metal_Only>
0

> <s_lp_Force_Field>
OPLS_2005

> <r_lp_Energy>
9.80929

> <b_lp_Chiralities_Consistent>
1

> <s_lp_Variant>
AV-unprocessed.smi:2550-1

> <Gold.Version>
5.8.1

> <Gold.Id.Protein>
6NUR|6NUR_protein|mol2

> <Gold.PLP.Fitness>
34.3339

> <Gold.PLP.PLP>
-20.6008

> <Gold.PLP.part.hbond>
-2.9944

> <Gold.PLP.part.metal>
0.0000

> <Gold.PLP.part.buried>
-2.4876

> <Gold.PLP.part.nonpolar>
-14.7029

> <Gold.PLP.part.repulsive>
0.4345

> <Gold.PLP.ligand.clash>
0.0000

> <Gold.PLP.ligand.torsion>
0.1633

> <Gold.PLP.Chemscore.Hbond>
3.6000

> <Gold.PLP.Chemscore.CHOScore>
0.9789

> <Gold.PLP.Chemscore.Metal>
0.0000

> <Gold.Chemscore.Hbonds>
donor molecule, donor type, donor heavy atom, donor atom, acceptor molecule, acceptor atom, score
      L1  H     4    20       P1  7948  0.91
      L1  H    10    25       P1  7921  0.72
      L1  H    10    28       P1 10186  2.00
      L1  C     6    21       P1  7948  0.93

> <Gold.PLP.Chemscore.Internal.Correction>
0.3229

> <Gold.Rescore>
     Score         DG    S(hbond)    S(metal)    S(lipo)     H(rot)  DE(clash)    DE(int)     intcor
     14.33     -14.56       2.50        0.00      45.13       1.78       0.01       0.23       ----

> <Gold.Chemscore.Fitness>
14.3323

> <Gold.Chemscore.DG>
-14.5649

> <Gold.Chemscore.ZeroCoef>
-5.4800

> <Gold.Chemscore.Hbond>
2.5013

> <Gold.Chemscore.Metal>
0.0000

> <Gold.Chemscore.Lipo>
45.1342

> <Gold.Chemscore.Internal_Hbond>
0.0000

> <Gold.Chemscore.DEClash>
0.0073

> <Gold.Chemscore.DEInternal>
0.2253

> <Gold.Chemscore.Rot>
1.7775

> <Gold.Chemscore.Internal.Correction>
   9.000000E+99

> <Gold.Chemscore.Hbonds>
donor molecule, donor type, donor heavy atom, donor atom, acceptor molecule, acceptor atom, score
      L1  H     4    20       P1  7948  0.30
      L1  H    10    25       P1  7921  0.72
      L1  H    10    28       P1 10186  0.93

> <Gold.Chemscore.Hbond.Weighted>
-8.3545

> <Gold.Chemscore.Metal.Weighted>
-0.0000

> <Gold.Chemscore.Lipo.Weighted>
-5.2807

> <Gold.Chemscore.Internal_Hbond.Weighted>
0.0000

> <Gold.Chemscore.DEClash.Weighted>
0.0073

> <Gold.Chemscore.DEInternal.Weighted>
0.2253

> <Gold.Chemscore.Rot.Weighted>
4.5503

> <Gold.Chemscore.Internal.Correction.Weighted>
   9.000000E+99

> <Gold.Protein.RotatedTorsions>
[ 6907 6896 6895 6894 ] final   56.68 input  -60.11 | X-H torsion
[ 7974 7965 7964 7962 ] final   95.87 input  175.53 | X-H torsion
[ 8008 7997 7996 7995 ] final   76.76 input   59.86 | X-H torsion
[ 10167 10162 10161 10158 ] final  152.74 input  -65.29 | X-H torsion
[ 10718 10713 10712 10709 ] final  154.56 input   66.30 | X-H torsion
[ 10763 10752 10751 10750 ] final -170.75 input  -60.55 | X-H torsion
[ 11005 11000 10999 10996 ] final   19.62 input  -57.11 | X-H torsion

> <Gold.Protein.ActiveResidues>
 VAL166  LYS551  ARG553  GLY616  TRP617  ASP618  TYR619  PRO620  LYS621  CYS622 
 ASP623  PHE694  ASN695  SER759  ASP760  ASP761  ALA762  ILE779  LEU786  VAL792 
 PHE793  MET794  SER795  GLU796  ALA797  LYS798  CYS799  TRP800  GLU811  SER814 

> <Gold.Protein.RotatedAtoms>
  152.3659  134.6804  160.0191 H   0  0  0  0  0  0  0  0  0  0  0  0  # atno 6907 bound_to 6896
  151.7112  133.3307  159.3299 H   0  0  0  0  0  0  0  0  0  0  0  0  # atno 6908 bound_to 6896
  150.7638  134.6465  159.6309 H   0  0  0  0  0  0  0  0  0  0  0  0  # atno 6909 bound_to 6896
  145.4464  139.2297  143.3063 H   0  0  0  0  0  0  0  0  0  0  0  0  # atno 7974 bound_to 7965
  155.8319  140.3466  155.5577 H   0  0  0  0  0  0  0  0  0  0  0  0  # atno 8008 bound_to 7997
  155.8233  140.0916  157.1856 H   0  0  0  0  0  0  0  0  0  0  0  0  # atno 8009 bound_to 7997
  154.4004  140.1426  156.3513 H   0  0  0  0  0  0  0  0  0  0  0  0  # atno 8010 bound_to 7997
  139.4831  144.5332  151.7688 H   0  0  0  0  0  0  0  0  0  0  0  0  # atno 10167 bound_to 10162
  157.2299  131.0737  151.1859 H   0  0  0  0  0  0  0  0  0  0  0  0  # atno 10718 bound_to 10713
  154.6380  135.2895  155.0137 H   0  0  0  0  0  0  0  0  0  0  0  0  # atno 10763 bound_to 10752
  154.1274  135.6539  153.4919 H   0  0  0  0  0  0  0  0  0  0  0  0  # atno 10764 bound_to 10752
  153.0312  135.5302  154.7235 H   0  0  0  0  0  0  0  0  0  0  0  0  # atno 10765 bound_to 10752
  140.4117  134.1612  155.7667 H   0  0  0  0  0  0  0  0  0  0  0  0  # atno 11005 bound_to 11000
  146.2528  140.5218  142.8886 LP  0  0  0  0  0  0  0  0  0  0  0  0  # atno 17320 bound_to 7965
  144.8089  140.6349  143.6428 LP  0  0  0  0  0  0  0  0  0  0  0  0  # atno 17321 bound_to 7965
  140.4861  144.1378  150.5941 LP  0  0  0  0  0  0  0  0  0  0  0  0  # atno 17342 bound_to 10162
  140.4223  143.2606  151.9699 LP  0  0  0  0  0  0  0  0  0  0  0  0  # atno 17343 bound_to 10162
  157.3489  130.7071  149.6428 LP  0  0  0  0  0  0  0  0  0  0  0  0  # atno 17370 bound_to 10713
  155.9676  130.4258  150.4671 LP  0  0  0  0  0  0  0  0  0  0  0  0  # atno 17371 bound_to 10713
  141.1819  133.8396  157.1229 LP  0  0  0  0  0  0  0  0  0  0  0  0  # atno 17394 bound_to 11000
  140.0263  134.9922  157.0692 LP  0  0  0  0  0  0  0  0  0  0  0  0  # atno 17395 bound_to 11000

$$$$
