AV-unprocessed.smi:1410|AV-procd|sdf|5734|dock1
  -GOLD-   22720 5363D 1   1.00000     0.00000
 Structure written by MMmdl.
 41 42  0  0  0  0  0  0  0  0  3 V2000
  142.8060  139.3561  154.9484 N   0  0  0  0  0  0  0  0  0  0  0  0
  143.3072  139.9257  156.0466 C   0  0  0  0  0  0  0  0  0  0  0  0
  143.2157  139.4032  157.1563 O   0  0  0  0  0  0  0  0  0  0  0  0
  144.0291  141.2648  155.8633 C   0  0  0  0  0  0  0  0  0  0  0  0
  145.1895  141.1761  154.9398 N   0  3  2  0  0  0  0  0  0  0  0  0
  146.3096  140.3637  155.4852 C   0  0  0  0  0  0  0  0  0  0  0  0
  147.4191  140.1763  154.4358 C   0  0  0  0  0  0  0  0  0  0  0  0
  147.9381  141.5234  153.8933 C   0  0  2  0  0  0  0  0  0  0  0  0
  148.7283  142.2500  154.8879 N   0  0  0  0  0  0  0  0  0  0  0  0
  149.6421  141.7005  155.7019 C   0  0  0  0  0  0  0  0  0  0  0  0
  149.8933  140.4963  155.7211 O   0  0  0  0  0  0  0  0  0  0  0  0
  150.2179  142.6286  156.4864 N   0  0  0  0  0  0  0  0  0  0  0  0
  151.2181  142.4553  157.4828 C   0  0  0  0  0  0  0  0  0  0  0  0
  151.8033  143.6204  158.0272 C   0  0  0  0  0  0  0  0  0  0  0  0
  152.8073  143.5023  159.0098 C   0  0  0  0  0  0  0  0  0  0  0  0
  153.2086  142.2793  159.4172 N   0  3  0  0  0  0  0  0  0  0  0  0
  152.6901  141.1374  158.9173 C   0  0  0  0  0  0  0  0  0  0  0  0
  151.6835  141.1925  157.9315 C   0  0  0  0  0  0  0  0  0  0  0  0
  146.7543  142.3809  153.4123 C   0  0  0  0  0  0  0  0  0  0  0  0
  145.6560  142.5102  154.4839 C   0  0  0  0  0  0  0  0  0  0  0  0
  142.3245  138.4706  155.0188 H   0  0  0  0  0  0  0  0  0  0  0  0
  142.9097  139.8049  154.0497 H   0  0  0  0  0  0  0  0  0  0  0  0
  143.2920  141.9609  155.4609 H   0  0  0  0  0  0  0  0  0  0  0  0
  144.3459  141.6669  156.8272 H   0  0  0  0  0  0  0  0  0  0  0  0
  146.7113  140.8447  156.3783 H   0  0  0  0  0  0  0  0  0  0  0  0
  145.9458  139.3837  155.7953 H   0  0  0  0  0  0  0  0  0  0  0  0
  148.2356  139.5874  154.8553 H   0  0  0  0  0  0  0  0  0  0  0  0
  147.0236  139.5882  153.6065 H   0  0  0  0  0  0  0  0  0  0  0  0
  148.5830  141.3295  153.0342 H   0  0  0  0  0  0  0  0  0  0  0  0
  148.5868  143.2482  154.9401 H   0  0  0  0  0  0  0  0  0  0  0  0
  149.8562  143.5669  156.3980 H   0  0  0  0  0  0  0  0  0  0  0  0
  151.4843  144.6000  157.7013 H   0  0  0  0  0  0  0  0  0  0  0  0
  153.2987  144.3431  159.4773 H   0  0  0  0  0  0  0  0  0  0  0  0
  153.0968  140.2186  159.3142 H   0  0  0  0  0  0  0  0  0  0  0  0
  151.3003  140.2653  157.5345 H   0  0  0  0  0  0  0  0  0  0  0  0
  147.1005  143.3695  153.1081 H   0  0  0  0  0  0  0  0  0  0  0  0
  146.3243  141.9246  152.5196 H   0  0  0  0  0  0  0  0  0  0  0  0
  144.8180  143.0697  154.0664 H   0  0  0  0  0  0  0  0  0  0  0  0
  146.0214  143.0809  155.3390 H   0  0  0  0  0  0  0  0  0  0  0  0
  144.8520  140.6966  154.1168 H   0  0  0  0  0  0  0  0  0  0  0  0
  153.9368  142.2153  160.1290 H   0  0  0  0  0  0  0  0  0  0  0  0
  1  2  1  0  0  0  0
  1 21  1  0  0  0  0
  1 22  1  0  0  0  0
  2  3  2  0  0  0  0
  2  4  1  0  0  0  0
  4  5  1  0  0  0  0
  4 23  1  0  0  0  0
  4 24  1  0  0  0  0
  5 20  1  0  0  0  0
  5  6  1  0  0  0  0
  5 40  1  0  0  0  0
  6  7  1  0  0  0  0
  6 25  1  0  0  0  0
  6 26  1  0  0  0  0
  7  8  1  0  0  0  0
  7 27  1  0  0  0  0
  7 28  1  0  0  0  0
  8  9  1  0  0  0  0
  8 19  1  0  0  0  0
  8 29  1  0  0  0  0
  9 10  1  0  0  0  0
  9 30  1  0  0  0  0
 10 11  2  0  0  0  0
 10 12  1  0  0  0  0
 12 13  1  0  0  0  0
 12 31  1  0  0  0  0
 13 18  1  0  0  0  0
 13 14  2  0  0  0  0
 14 15  1  0  0  0  0
 14 32  1  0  0  0  0
 15 16  2  0  0  0  0
 15 33  1  0  0  0  0
 16 17  1  0  0  0  0
 16 41  1  0  0  0  0
 17 18  2  0  0  0  0
 17 34  1  0  0  0  0
 18 35  1  0  0  0  0
 19 20  1  0  0  0  0
 19 36  1  0  0  0  0
 19 37  1  0  0  0  0
 20 38  1  0  0  0  0
 20 39  1  0  0  0  0
M  CHG  1   5   1
M  CHG  1  16   1
M  END
> <s_m_source_file>
AV-unprocessed.smi

> <i_m_source_file_index>
1410

> <i_lp_mmshare_version>
43012

> <i_f3d_flags>
0

> <s_epik_input>
W05IMl1DKD1PKVtDSDJdTjFbQ0gyXVtDSDJdW0NIXShbQ0gyXVtDSDJdMSlbTkhdQyg9TylbTkhdYzJbY0hdW2NIXW5bY0hdW2NIXTI=

> <s_epik_cmdline>
J2VwaWtfcHl0aG9uJywgJy1waCcsICc3LjAnLCAnLXRuJywgJzgnLCAnLW1hJywgJzIwMCcsICctbWV0YWxfYmluZGluZycsICctaW1hZScsICc8aW5maWxlLm1hZT4nLCAnLW9tYWUnLCAnPG91dGZpbGUubWFlPic=

> <r_epik_Ionization_Penalty>
1.97414

> <r_epik_Ionization_Penalty_Charging>
1.97408

> <r_epik_Ionization_Penalty_Neutral>
5.94508e-05

> <r_epik_State_Penalty>
2.00676

> <r_epik_Charging_Adjusted_Penalty>
3.98084

> <i_epik_Tot_Q>
2

> <i_epik_Tot_abs_Q>
2

> <r_epik_Metal_State_Penalty>
2.12108

> <b_epik_Metal_Only>
0

> <s_lp_Force_Field>
OPLS_2005

> <r_lp_Energy>
26.1476

> <b_lp_Chiralities_Consistent>
1

> <s_lp_Variant>
AV-unprocessed.smi:1410-6

> <Gold.Version>
5.8.1

> <Gold.Id.Protein>
6NUR|6NUR_protein|mol2

> <Gold.PLP.Fitness>
45.8330

> <Gold.PLP.PLP>
-31.4105

> <Gold.PLP.part.hbond>
-4.0000

> <Gold.PLP.part.metal>
0.0000

> <Gold.PLP.part.buried>
-5.9315

> <Gold.PLP.part.nonpolar>
-22.4665

> <Gold.PLP.part.repulsive>
0.4052

> <Gold.PLP.ligand.clash>
0.0000

> <Gold.PLP.ligand.torsion>
0.3015

> <Gold.PLP.Chemscore.Hbond>
5.0000

> <Gold.PLP.Chemscore.CHOScore>
0.0000

> <Gold.PLP.Chemscore.Metal>
0.0000

> <Gold.Chemscore.Hbonds>
donor molecule, donor type, donor heavy atom, donor atom, acceptor molecule, acceptor atom, score
      L1  H     1    22       P1 10175  1.00
      L1  H     5    40       P1 10175  2.00
      L1  H     9    30       P1  8028  1.00
      L1  H    12    31       P1  8028  1.00

> <Gold.PLP.Chemscore.Internal.Correction>
0.0255

> <Gold.Rescore>
     Score         DG    S(hbond)    S(metal)    S(lipo)     H(rot)  DE(clash)    DE(int)     intcor
     18.57     -22.57       3.88        0.00      78.94       1.99       1.32       2.68       ----

> <Gold.Chemscore.Fitness>
18.5743

> <Gold.Chemscore.DG>
-22.5719

> <Gold.Chemscore.ZeroCoef>
-5.4800

> <Gold.Chemscore.Hbond>
3.8768

> <Gold.Chemscore.Metal>
0.0000

> <Gold.Chemscore.Lipo>
78.9426

> <Gold.Chemscore.Internal_Hbond>
0.0000

> <Gold.Chemscore.DEClash>
1.3187

> <Gold.Chemscore.DEInternal>
2.6789

> <Gold.Chemscore.Rot>
1.9894

> <Gold.Chemscore.Internal.Correction>
   9.000000E+99

> <Gold.Chemscore.Hbonds>
donor molecule, donor type, donor heavy atom, donor atom, acceptor molecule, acceptor atom, score
      L1  H     1    22       P1 10175  1.00
      L1  H     5    40       P1 10175  0.91
      L1  H     9    30       P1  8028  0.96
      L1  H    12    31       P1  8028  0.97

> <Gold.Chemscore.Hbond.Weighted>
-12.9484

> <Gold.Chemscore.Metal.Weighted>
-0.0000

> <Gold.Chemscore.Lipo.Weighted>
-9.2363

> <Gold.Chemscore.Internal_Hbond.Weighted>
0.0000

> <Gold.Chemscore.DEClash.Weighted>
1.3187

> <Gold.Chemscore.DEInternal.Weighted>
2.6789

> <Gold.Chemscore.Rot.Weighted>
5.0927

> <Gold.Chemscore.Internal.Correction.Weighted>
   9.000000E+99

> <Gold.Protein.RotatedTorsions>
[ 6907 6896 6895 6894 ] final -176.81 input  -60.11 | X-H torsion
[ 7974 7965 7964 7962 ] final   71.31 input  175.53 | X-H torsion
[ 8008 7997 7996 7995 ] final -118.04 input   59.86 | X-H torsion
[ 10167 10162 10161 10158 ] final  -53.50 input  -65.29 | X-H torsion
[ 10718 10713 10712 10709 ] final   83.83 input   66.30 | X-H torsion
[ 10763 10752 10751 10750 ] final -151.03 input  -60.55 | X-H torsion
[ 11005 11000 10999 10996 ] final  -37.03 input  -57.11 | X-H torsion

> <Gold.Protein.ActiveResidues>
 VAL166  LYS551  ARG553  GLY616  TRP617  ASP618  TYR619  PRO620  LYS621  CYS622 
 ASP623  PHE694  ASN695  SER759  ASP760  ASP761  ALA762  ILE779  LEU786  VAL792 
 PHE793  MET794  SER795  GLU796  ALA797  LYS798  CYS799  TRP800  GLU811  SER814 

> <Gold.Protein.RotatedAtoms>
  151.6108  133.3347  159.3066 H   0  0  0  0  0  0  0  0  0  0  0  0  # atno 6907 bound_to 6896
  150.8157  134.7342  159.6739 H   0  0  0  0  0  0  0  0  0  0  0  0  # atno 6908 bound_to 6896
  152.4253  134.5885  160.0019 H   0  0  0  0  0  0  0  0  0  0  0  0  # atno 6909 bound_to 6896
  145.7674  139.2827  143.1341 H   0  0  0  0  0  0  0  0  0  0  0  0  # atno 7974 bound_to 7965
  155.0932  140.0395  157.2675 H   0  0  0  0  0  0  0  0  0  0  0  0  # atno 8008 bound_to 7997
  154.6815  140.2634  155.6878 H   0  0  0  0  0  0  0  0  0  0  0  0  # atno 8009 bound_to 7997
  156.2696  140.2777  156.1361 H   0  0  0  0  0  0  0  0  0  0  0  0  # atno 8010 bound_to 7997
  140.6481  143.2548  151.4801 H   0  0  0  0  0  0  0  0  0  0  0  0  # atno 10167 bound_to 10162
  157.6886  131.0107  150.2582 H   0  0  0  0  0  0  0  0  0  0  0  0  # atno 10718 bound_to 10713
  154.8083  135.3270  154.7373 H   0  0  0  0  0  0  0  0  0  0  0  0  # atno 10763 bound_to 10752
  153.8027  135.6902  153.4857 H   0  0  0  0  0  0  0  0  0  0  0  0  # atno 10764 bound_to 10752
  153.1843  135.4575  155.0014 H   0  0  0  0  0  0  0  0  0  0  0  0  # atno 10765 bound_to 10752
  140.9920  133.7000  156.1867 H   0  0  0  0  0  0  0  0  0  0  0  0  # atno 11005 bound_to 11000
  146.0204  140.8353  142.9926 LP  0  0  0  0  0  0  0  0  0  0  0  0  # atno 17320 bound_to 7965
  144.6819  140.2621  143.7317 LP  0  0  0  0  0  0  0  0  0  0  0  0  # atno 17321 bound_to 7965
  139.5693  144.1966  152.1813 LP  0  0  0  0  0  0  0  0  0  0  0  0  # atno 17342 bound_to 10162
  140.1257  144.5333  150.6834 LP  0  0  0  0  0  0  0  0  0  0  0  0  # atno 17343 bound_to 10162
  156.3166  130.3779  149.7613 LP  0  0  0  0  0  0  0  0  0  0  0  0  # atno 17370 bound_to 10713
  156.5196  130.8209  151.3199 LP  0  0  0  0  0  0  0  0  0  0  0  0  # atno 17371 bound_to 10713
  140.7024  134.4549  157.5585 LP  0  0  0  0  0  0  0  0  0  0  0  0  # atno 17394 bound_to 11000
  139.8997  134.8585  156.1950 LP  0  0  0  0  0  0  0  0  0  0  0  0  # atno 17395 bound_to 11000

$$$$
