AV-unprocessed.smi:1958|AV-procd|sdf|7908|dock9
  -GOLD-   2272010 73D 1   1.00000     0.00000
 Structure written by MMmdl.
 48 49  0  0  0  0  0  0  0  0  2 V2000
  152.4920  144.7546  158.4621 C   0  0  0  0  0  0  0  0  0  0  0  0
  151.8359  143.7776  159.2508 O   0  0  0  0  0  0  0  0  0  0  0  0
  150.8499  143.0651  158.5235 C   0  0  0  0  0  0  0  0  0  0  0  0
  151.1028  141.5592  158.6896 C   0  0  0  0  0  0  0  0  0  0  0  0
  151.1146  140.8701  157.3954 N   0  0  0  0  0  0  0  0  0  0  0  0
  150.1237  141.2899  156.5236 N   0  0  0  0  0  0  0  0  0  0  0  0
  150.0229  140.7566  155.3489 C   0  0  0  0  0  0  0  0  0  0  0  0
  148.9697  141.1784  154.3840 C   0  0  0  0  0  0  0  0  0  0  0  0
  149.1544  141.1582  153.1660 O   0  0  0  0  0  0  0  0  0  0  0  0
  147.8104  141.5775  154.9348 N   0  0  0  0  0  0  0  0  0  0  0  0
  146.6424  142.0164  154.1802 C   0  0  0  0  0  0  0  0  0  0  0  0
  145.4200  142.2934  155.0956 C   0  0  2  0  0  0  0  0  0  0  0  0
  145.8890  142.8653  156.4547 C   0  0  0  0  0  0  0  0  0  0  0  0
  144.5500  141.0885  155.3072 N   0  3  0  0  0  0  0  0  0  0  0  0
  145.2828  139.9515  155.9297 C   0  0  0  0  0  0  0  0  0  0  0  0
  144.3816  138.7132  156.0658 C   0  0  0  0  0  0  0  0  0  0  0  0
  143.2377  139.0435  156.8381 O   0  0  0  0  0  0  0  0  0  0  0  0
  142.4602  140.0486  156.2065 C   0  0  0  0  0  0  0  0  0  0  0  0
  143.2880  141.3372  156.0592 C   0  0  0  0  0  0  0  0  0  0  0  0
  150.9411  139.7140  154.9233 C   0  0  0  0  0  0  0  0  0  0  0  0
  151.8978  139.3100  155.7875 C   0  0  0  0  0  0  0  0  0  0  0  0
  152.0303  139.8917  157.1242 C   0  0  0  0  0  0  0  0  0  0  0  0
  152.8844  139.5313  157.9333 O   0  0  0  0  0  0  0  0  0  0  0  0
  153.2397  145.2707  159.0643 H   0  0  0  0  0  0  0  0  0  0  0  0
  151.7872  145.4994  158.0903 H   0  0  0  0  0  0  0  0  0  0  0  0
  153.0011  144.2985  157.6120 H   0  0  0  0  0  0  0  0  0  0  0  0
  149.8556  143.3268  158.8892 H   0  0  0  0  0  0  0  0  0  0  0  0
  150.8962  143.3390  157.4681 H   0  0  0  0  0  0  0  0  0  0  0  0
  152.0559  141.4067  159.1992 H   0  0  0  0  0  0  0  0  0  0  0  0
  150.3495  141.1236  159.3484 H   0  0  0  0  0  0  0  0  0  0  0  0
  147.7354  141.5688  155.9421 H   0  0  0  0  0  0  0  0  0  0  0  0
  146.9471  142.9183  153.6487 H   0  0  0  0  0  0  0  0  0  0  0  0
  146.3864  141.2637  153.4321 H   0  0  0  0  0  0  0  0  0  0  0  0
  144.8148  143.0521  154.5964 H   0  0  0  0  0  0  0  0  0  0  0  0
  146.5206  143.7450  156.3327 H   0  0  0  0  0  0  0  0  0  0  0  0
  146.4639  142.1261  157.0133 H   0  0  0  0  0  0  0  0  0  0  0  0
  145.0618  143.1868  157.0846 H   0  0  0  0  0  0  0  0  0  0  0  0
  146.1529  139.6717  155.3394 H   0  0  0  0  0  0  0  0  0  0  0  0
  145.6493  140.2490  156.9134 H   0  0  0  0  0  0  0  0  0  0  0  0
  144.0833  138.3351  155.0865 H   0  0  0  0  0  0  0  0  0  0  0  0
  144.9224  137.9093  156.5654 H   0  0  0  0  0  0  0  0  0  0  0  0
  142.1092  139.6981  155.2345 H   0  0  0  0  0  0  0  0  0  0  0  0
  141.5743  140.2400  156.8123 H   0  0  0  0  0  0  0  0  0  0  0  0
  143.5217  141.7474  157.0430 H   0  0  0  0  0  0  0  0  0  0  0  0
  142.6615  142.0617  155.5402 H   0  0  0  0  0  0  0  0  0  0  0  0
  150.8665  139.2667  153.9428 H   0  0  0  0  0  0  0  0  0  0  0  0
  152.5868  138.5350  155.4849 H   0  0  0  0  0  0  0  0  0  0  0  0
  144.2637  140.7836  154.3877 H   0  0  0  0  0  0  0  0  0  0  0  0
  1  2  1  0  0  0  0
  1 24  1  0  0  0  0
  1 25  1  0  0  0  0
  1 26  1  0  0  0  0
  2  3  1  0  0  0  0
  3  4  1  0  0  0  0
  3 27  1  0  0  0  0
  3 28  1  0  0  0  0
  4  5  1  0  0  0  0
  4 29  1  0  0  0  0
  4 30  1  0  0  0  0
  5 22  1  0  0  0  0
  5  6  1  0  0  0  0
  6  7  2  0  0  0  0
  7  8  1  0  0  0  0
  7 20  1  0  0  0  0
  8  9  2  0  0  0  0
  8 10  1  0  0  0  0
 10 11  1  0  0  0  0
 10 31  1  0  0  0  0
 11 12  1  0  0  0  0
 11 32  1  0  0  0  0
 11 33  1  0  0  0  0
 12 13  1  0  0  0  0
 12 14  1  0  0  0  0
 12 34  1  0  0  0  0
 13 35  1  0  0  0  0
 13 36  1  0  0  0  0
 13 37  1  0  0  0  0
 14 19  1  0  0  0  0
 14 15  1  0  0  0  0
 14 48  1  0  0  0  0
 15 16  1  0  0  0  0
 15 38  1  0  0  0  0
 15 39  1  0  0  0  0
 16 17  1  0  0  0  0
 16 40  1  0  0  0  0
 16 41  1  0  0  0  0
 17 18  1  0  0  0  0
 18 19  1  0  0  0  0
 18 42  1  0  0  0  0
 18 43  1  0  0  0  0
 19 44  1  0  0  0  0
 19 45  1  0  0  0  0
 20 21  2  0  0  0  0
 20 46  1  0  0  0  0
 21 22  1  0  0  0  0
 21 47  1  0  0  0  0
 22 23  2  0  0  0  0
M  CHG  1  14   1
M  END
> <s_m_source_file>
AV-unprocessed.smi

> <i_m_source_file_index>
1958

> <i_lp_mmshare_version>
43012

> <i_f3d_flags>
0

> <s_epik_input>
W0NIM11PW0NIMl1bQ0gyXW4xbmMoW2NIXVtjSF1jMT1PKUMoPU8pW05IXVtDSDJdW0NASF0oW0NIM10pTjJbQ0gyXVtDSDJdT1tDSDJdW0NIMl0y

> <s_epik_cmdline>
J2VwaWtfcHl0aG9uJywgJy1waCcsICc3LjAnLCAnLXRuJywgJzgnLCAnLW1hJywgJzIwMCcsICctbWV0YWxfYmluZGluZycsICctaW1hZScsICc8aW5maWxlLm1hZT4nLCAnLW9tYWUnLCAnPG91dGZpbGUubWFlPic=

> <r_lp_tautomer_probability>
1

> <r_epik_Ionization_Penalty>
0.724355

> <r_epik_Ionization_Penalty_Charging>
0.724348

> <r_epik_Ionization_Penalty_Neutral>
6.31911e-06

> <r_epik_State_Penalty>
0.749058

> <r_epik_Charging_Adjusted_Penalty>
1.47341

> <i_epik_Tot_Q>
1

> <i_epik_Tot_abs_Q>
1

> <r_epik_Metal_State_Penalty>
0.750821

> <b_epik_Metal_Only>
0

> <s_lp_Force_Field>
OPLS_2005

> <r_lp_Energy>
41.4704

> <b_lp_Chiralities_Consistent>
1

> <s_lp_Variant>
AV-unprocessed.smi:1958-3

> <Gold.Version>
5.8.1

> <Gold.Id.Protein>
6NUR|6NUR_protein|mol2

> <Gold.PLP.Fitness>
40.8130

> <Gold.PLP.PLP>
-32.0964

> <Gold.PLP.part.hbond>
-4.0000

> <Gold.PLP.part.metal>
0.0000

> <Gold.PLP.part.buried>
-5.4431

> <Gold.PLP.part.nonpolar>
-29.1022

> <Gold.PLP.part.repulsive>
5.4363

> <Gold.PLP.ligand.clash>
0.0000

> <Gold.PLP.ligand.torsion>
1.7443

> <Gold.PLP.Chemscore.Hbond>
4.0068

> <Gold.PLP.Chemscore.CHOScore>
0.0000

> <Gold.PLP.Chemscore.Metal>
0.0000

> <Gold.Chemscore.Hbonds>
donor molecule, donor type, donor heavy atom, donor atom, acceptor molecule, acceptor atom, score
      L1  H    14    48       P1 10175  2.00
      P1  H  7997  8010       L1    23  1.00
      P1  H  8011  8017       L1     9  1.00

> <Gold.PLP.Chemscore.Internal.Correction>
0.1848

> <Gold.Rescore>
     Score         DG    S(hbond)    S(metal)    S(lipo)     H(rot)  DE(clash)    DE(int)     intcor
     13.40     -17.20       2.70        0.00      69.40       2.12       1.97       1.83       ----

> <Gold.Chemscore.Fitness>
13.3955

> <Gold.Chemscore.DG>
-17.1985

> <Gold.Chemscore.ZeroCoef>
-5.4800

> <Gold.Chemscore.Hbond>
2.7041

> <Gold.Chemscore.Metal>
0.0000

> <Gold.Chemscore.Lipo>
69.3967

> <Gold.Chemscore.Internal_Hbond>
0.0000

> <Gold.Chemscore.DEClash>
1.9734

> <Gold.Chemscore.DEInternal>
1.8297

> <Gold.Chemscore.Rot>
2.1221

> <Gold.Chemscore.Internal.Correction>
   9.000000E+99

> <Gold.Chemscore.Hbonds>
donor molecule, donor type, donor heavy atom, donor atom, acceptor molecule, acceptor atom, score
      L1  H    14    48       P1 10175  0.95
      P1  H  7997  8010       L1    23  0.47
      P1  H  8011  8017       L1     9  0.98

> <Gold.Chemscore.Hbond.Weighted>
-9.0316

> <Gold.Chemscore.Metal.Weighted>
-0.0000

> <Gold.Chemscore.Lipo.Weighted>
-8.1194

> <Gold.Chemscore.Internal_Hbond.Weighted>
0.0000

> <Gold.Chemscore.DEClash.Weighted>
1.9734

> <Gold.Chemscore.DEInternal.Weighted>
1.8297

> <Gold.Chemscore.Rot.Weighted>
5.4325

> <Gold.Chemscore.Internal.Correction.Weighted>
   9.000000E+99

> <Gold.Protein.RotatedTorsions>
[ 6907 6896 6895 6894 ] final -130.11 input  -60.11 | X-H torsion
[ 7974 7965 7964 7962 ] final   39.32 input  175.53 | X-H torsion
[ 8008 7997 7996 7995 ] final   29.08 input   59.86 | X-H torsion
[ 10167 10162 10161 10158 ] final -135.34 input  -65.29 | X-H torsion
[ 10718 10713 10712 10709 ] final    8.80 input   66.30 | X-H torsion
[ 10763 10752 10751 10750 ] final -135.60 input  -60.55 | X-H torsion
[ 11005 11000 10999 10996 ] final  145.43 input  -57.11 | X-H torsion

> <Gold.Protein.ActiveResidues>
 VAL166  LYS551  ARG553  GLY616  TRP617  ASP618  TYR619  PRO620  LYS621  CYS622 
 ASP623  PHE694  ASN695  SER759  ASP760  ASP761  ALA762  ILE779  LEU786  VAL792 
 PHE793  MET794  SER795  GLU796  ALA797  LYS798  CYS799  TRP800  GLU811  SER814 

> <Gold.Protein.RotatedAtoms>
  150.9361  133.6710  159.2800 H   0  0  0  0  0  0  0  0  0  0  0  0  # atno 6907 bound_to 6896
  151.4115  135.0984  159.9596 H   0  0  0  0  0  0  0  0  0  0  0  0  # atno 6908 bound_to 6896
  152.5048  133.8833  159.7412 H   0  0  0  0  0  0  0  0  0  0  0  0  # atno 6909 bound_to 6896
  146.0993  139.5666  142.9424 H   0  0  0  0  0  0  0  0  0  0  0  0  # atno 7974 bound_to 7965
  155.0688  140.3198  155.4637 H   0  0  0  0  0  0  0  0  0  0  0  0  # atno 8008 bound_to 7997
  156.2795  140.2115  156.5760 H   0  0  0  0  0  0  0  0  0  0  0  0  # atno 8009 bound_to 7997
  154.7072  140.0501  157.0502 H   0  0  0  0  0  0  0  0  0  0  0  0  # atno 8010 bound_to 7997
  139.8788  143.6864  152.2630 H   0  0  0  0  0  0  0  0  0  0  0  0  # atno 10167 bound_to 10162
  156.9570  130.5918  149.5660 H   0  0  0  0  0  0  0  0  0  0  0  0  # atno 10718 bound_to 10713
  154.8700  135.3698  154.4924 H   0  0  0  0  0  0  0  0  0  0  0  0  # atno 10763 bound_to 10752
  153.5570  135.7023  153.5569 H   0  0  0  0  0  0  0  0  0  0  0  0  # atno 10764 bound_to 10752
  153.3662  135.4033  155.1719 H   0  0  0  0  0  0  0  0  0  0  0  0  # atno 10765 bound_to 10752
  140.0712  134.9151  157.1348 H   0  0  0  0  0  0  0  0  0  0  0  0  # atno 11005 bound_to 11000
  145.5885  141.0373  143.2083 LP  0  0  0  0  0  0  0  0  0  0  0  0  # atno 17320 bound_to 7965
  144.7420  139.7422  143.7307 LP  0  0  0  0  0  0  0  0  0  0  0  0  # atno 17321 bound_to 7965
  139.7215  144.7601  151.0948 LP  0  0  0  0  0  0  0  0  0  0  0  0  # atno 17342 bound_to 10162
  140.7748  143.5202  150.9546 LP  0  0  0  0  0  0  0  0  0  0  0  0  # atno 17343 bound_to 10162
  156.0338  130.5427  150.8602 LP  0  0  0  0  0  0  0  0  0  0  0  0  # atno 17370 bound_to 10713
  157.5683  131.0946  150.9456 LP  0  0  0  0  0  0  0  0  0  0  0  0  # atno 17371 bound_to 10713
  140.3625  134.2479  155.7185 LP  0  0  0  0  0  0  0  0  0  0  0  0  # atno 17394 bound_to 11000
  141.2012  133.7968  157.0451 LP  0  0  0  0  0  0  0  0  0  0  0  0  # atno 17395 bound_to 11000

$$$$
