AV-unprocessed.smi:411|AV-procd|sdf|2508|dock6
  -GOLD-   2262022453D 1   1.00000     0.00000
 Structure written by MMmdl.
 35 36  0  0  0  0  0  0  0  0  1 V2000
  149.3295  140.3878  157.0187 O   0  0  0  0  0  0  0  0  0  0  0  0
  149.5354  141.4403  156.4155 C   0  0  0  0  0  0  0  0  0  0  0  0
  150.9713  141.9879  156.3356 C   0  0  0  0  0  0  0  0  0  0  0  0
  151.5656  142.3637  157.6324 N   0  0  0  0  0  0  0  0  0  0  0  0
  151.2275  143.6304  158.1412 C   0  0  0  0  0  0  0  0  0  0  0  0
  151.7005  144.0682  159.3156 C   0  0  0  0  0  0  0  0  0  0  0  0
  152.5805  143.2026  160.0621 C   0  0  0  0  0  0  0  0  0  0  0  0
  152.9197  141.9764  159.6011 C   0  0  0  0  0  0  0  0  0  0  0  0
  153.8495  141.0475  160.3778 C   0  0  0  0  0  0  0  0  0  0  0  0
  153.3842  139.7980  160.3565 F   0  0  0  0  0  0  0  0  0  0  0  0
  155.0703  141.0466  159.8408 F   0  0  0  0  0  0  0  0  0  0  0  0
  153.9665  141.4179  161.6539 F   0  0  0  0  0  0  0  0  0  0  0  0
  152.3894  141.5022  158.3064 C   0  0  0  0  0  0  0  0  0  0  0  0
  152.6581  140.3893  157.8514 O   0  0  0  0  0  0  0  0  0  0  0  0
  148.5549  142.1377  155.8168 N   0  0  0  0  0  0  0  0  0  0  0  0
  147.1439  141.7717  155.7997 C   0  0  2  0  0  0  0  0  0  0  0  0
  146.3266  142.6550  154.8348 C   0  0  0  0  0  0  0  0  0  0  0  0
  144.8368  142.4844  155.1546 C   0  0  0  0  0  0  0  0  0  0  0  0
  144.7378  142.1380  156.9517 S   0  0  0  0  0  0  0  0  0  0  0  0
  144.3023  143.3489  157.6641 O   0  0  0  0  0  0  0  0  0  0  0  0
  144.0517  140.8528  157.1528 O   0  0  0  0  0  0  0  0  0  0  0  0
  146.5384  141.9140  157.2031 C   0  0  0  0  0  0  0  0  0  0  0  0
  151.5957  141.2481  155.8315 H   0  0  0  0  0  0  0  0  0  0  0  0
  150.9646  142.8478  155.6645 H   0  0  0  0  0  0  0  0  0  0  0  0
  150.5588  144.2125  157.5236 H   0  0  0  0  0  0  0  0  0  0  0  0
  151.4279  145.0421  159.6951 H   0  0  0  0  0  0  0  0  0  0  0  0
  152.9660  143.5555  161.0071 H   0  0  0  0  0  0  0  0  0  0  0  0
  148.8085  142.9906  155.3397 H   0  0  0  0  0  0  0  0  0  0  0  0
  147.0388  140.7297  155.4912 H   0  0  0  0  0  0  0  0  0  0  0  0
  146.5983  143.7004  154.9886 H   0  0  0  0  0  0  0  0  0  0  0  0
  146.5381  142.4226  153.7906 H   0  0  0  0  0  0  0  0  0  0  0  0
  144.2445  143.3650  154.9058 H   0  0  0  0  0  0  0  0  0  0  0  0
  144.4244  141.6256  154.6246 H   0  0  0  0  0  0  0  0  0  0  0  0
  146.7251  141.0476  157.8381 H   0  0  0  0  0  0  0  0  0  0  0  0
  146.9137  142.8039  157.7098 H   0  0  0  0  0  0  0  0  0  0  0  0
  1  2  2  0  0  0  0
  2  3  1  0  0  0  0
  2 15  1  0  0  0  0
  3  4  1  0  0  0  0
  3 23  1  0  0  0  0
  3 24  1  0  0  0  0
  4 13  1  0  0  0  0
  4  5  1  0  0  0  0
  5  6  2  0  0  0  0
  5 25  1  0  0  0  0
  6  7  1  0  0  0  0
  6 26  1  0  0  0  0
  7  8  2  0  0  0  0
  7 27  1  0  0  0  0
  8  9  1  0  0  0  0
  8 13  1  0  0  0  0
  9 10  1  0  0  0  0
  9 11  1  0  0  0  0
  9 12  1  0  0  0  0
 13 14  2  0  0  0  0
 15 16  1  0  0  0  0
 15 28  1  0  0  0  0
 16 22  1  0  0  0  0
 16 17  1  0  0  0  0
 16 29  1  0  0  0  0
 17 18  1  0  0  0  0
 17 30  1  0  0  0  0
 17 31  1  0  0  0  0
 18 19  1  0  0  0  0
 18 32  1  0  0  0  0
 18 33  1  0  0  0  0
 19 20  2  0  0  0  0
 19 21  2  0  0  0  0
 19 22  1  0  0  0  0
 22 34  1  0  0  0  0
 22 35  1  0  0  0  0
M  END
> <s_m_source_file>
AV-unprocessed.smi

> <i_m_source_file_index>
411

> <i_lp_mmshare_version>
43012

> <i_f3d_flags>
0

> <s_epik_input>
Tz1TMSg9TylbQ0gyXVtDSDJdW0NASF0oW0NIMl0xKVtOSF1DKD1PKVtDSDJdbjJbY0hdW2NIXVtjSF1jKEMoRikoRilGKWMyPU8=

> <s_epik_cmdline>
J2VwaWtfcHl0aG9uJywgJy1waCcsICc3LjAnLCAnLXRuJywgJzgnLCAnLW1hJywgJzIwMCcsICctbWV0YWxfYmluZGluZycsICctaW1hZScsICc8aW5maWxlLm1hZT4nLCAnLW9tYWUnLCAnPG91dGZpbGUubWFlPic=

> <r_lp_tautomer_probability>
1

> <r_epik_Ionization_Penalty>
1.08759e-07

> <r_epik_Ionization_Penalty_Charging>
1.56656e-09

> <r_epik_Ionization_Penalty_Neutral>
1.07193e-07

> <r_epik_State_Penalty>
-0

> <r_epik_Charging_Adjusted_Penalty>
1.56656e-09

> <i_epik_Tot_Q>
0

> <i_epik_Tot_abs_Q>
0

> <r_epik_Metal_State_Penalty>
-0

> <b_epik_Metal_Only>
0

> <s_lp_Force_Field>
OPLS_2005

> <r_lp_Energy>
11.8943

> <b_lp_Chiralities_Consistent>
1

> <s_lp_Variant>
AV-unprocessed.smi:411-1

> <Gold.Version>
5.8.1

> <Gold.Id.Protein>
6NUR|6NUR_protein|mol2

> <Gold.PLP.Fitness>
45.7414

> <Gold.PLP.PLP>
-39.8777

> <Gold.PLP.part.hbond>
-2.0000

> <Gold.PLP.part.metal>
0.0000

> <Gold.PLP.part.buried>
-4.7306

> <Gold.PLP.part.nonpolar>
-32.1137

> <Gold.PLP.part.repulsive>
0.1561

> <Gold.PLP.ligand.clash>
0.0000

> <Gold.PLP.ligand.torsion>
1.0883

> <Gold.PLP.Chemscore.Hbond>
1.5706

> <Gold.PLP.Chemscore.CHOScore>
1.0000

> <Gold.PLP.Chemscore.Metal>
0.0000

> <Gold.Chemscore.Hbonds>
donor molecule, donor type, donor heavy atom, donor atom, acceptor molecule, acceptor atom, score
      L1  H    15    28       P1  8028  0.78
      P1  H  7997  8010       L1    14  0.66
      L1  C     5    25       P1  8028  1.00

> <Gold.PLP.Chemscore.Internal.Correction>
0.3284

> <Gold.Rescore>
     Score         DG    S(hbond)    S(metal)    S(lipo)     H(rot)  DE(clash)    DE(int)     intcor
     13.45     -15.66       1.87        0.00      71.59       1.73       0.02       2.19       ----

> <Gold.Chemscore.Fitness>
13.4525

> <Gold.Chemscore.DG>
-15.6593

> <Gold.Chemscore.ZeroCoef>
-5.4800

> <Gold.Chemscore.Hbond>
1.8671

> <Gold.Chemscore.Metal>
0.0000

> <Gold.Chemscore.Lipo>
71.5863

> <Gold.Chemscore.Internal_Hbond>
0.0000

> <Gold.Chemscore.DEClash>
0.0212

> <Gold.Chemscore.DEInternal>
2.1856

> <Gold.Chemscore.Rot>
1.7314

> <Gold.Chemscore.Internal.Correction>
   9.000000E+99

> <Gold.Chemscore.Hbonds>
donor molecule, donor type, donor heavy atom, donor atom, acceptor molecule, acceptor atom, score
      L1  H    15    28       P1  8028  0.80
      P1  H  7997  8010       L1    14  0.63

> <Gold.Chemscore.Hbond.Weighted>
-6.2361

> <Gold.Chemscore.Metal.Weighted>
-0.0000

> <Gold.Chemscore.Lipo.Weighted>
-8.3756

> <Gold.Chemscore.Internal_Hbond.Weighted>
0.0000

> <Gold.Chemscore.DEClash.Weighted>
0.0212

> <Gold.Chemscore.DEInternal.Weighted>
2.1856

> <Gold.Chemscore.Rot.Weighted>
4.4324

> <Gold.Chemscore.Internal.Correction.Weighted>
   9.000000E+99

> <Gold.Protein.RotatedTorsions>
[ 6907 6896 6895 6894 ] final  -82.18 input  -60.11 | X-H torsion
[ 7974 7965 7964 7962 ] final    6.54 input  175.53 | X-H torsion
[ 8008 7997 7996 7995 ] final   36.91 input   59.86 | X-H torsion
[ 10167 10162 10161 10158 ] final    2.43 input  -65.29 | X-H torsion
[ 10718 10713 10712 10709 ] final  -36.95 input   66.30 | X-H torsion
[ 10763 10752 10751 10750 ] final    2.11 input  -60.55 | X-H torsion
[ 11005 11000 10999 10996 ] final   79.86 input  -57.11 | X-H torsion

> <Gold.Protein.ActiveResidues>
 VAL166  LYS551  ARG553  GLY616  TRP617  ASP618  TYR619  PRO620  LYS621  CYS622 
 ASP623  PHE694  ASN695  SER759  ASP760  ASP761  ALA762  ILE779  LEU786  VAL792 
 PHE793  MET794  SER795  GLU796  ALA797  LYS798  CYS799  TRP800  GLU811  SER814 

> <Gold.Protein.RotatedAtoms>
  150.6901  134.3704  159.4989 H   0  0  0  0  0  0  0  0  0  0  0  0  # atno 6907 bound_to 6896
  152.1521  134.8977  160.0556 H   0  0  0  0  0  0  0  0  0  0  0  0  # atno 6908 bound_to 6896
  152.0071  133.3812  159.4242 H   0  0  0  0  0  0  0  0  0  0  0  0  # atno 6909 bound_to 6896
  146.2434  140.0218  142.8397 H   0  0  0  0  0  0  0  0  0  0  0  0  # atno 7974 bound_to 7965
  155.1951  140.3311  155.4352 H   0  0  0  0  0  0  0  0  0  0  0  0  # atno 8008 bound_to 7997
  156.2428  140.1903  156.6992 H   0  0  0  0  0  0  0  0  0  0  0  0  # atno 8009 bound_to 7997
  154.6179  140.0599  156.9563 H   0  0  0  0  0  0  0  0  0  0  0  0  # atno 8010 bound_to 7997
  140.6635  143.7241  150.7783 H   0  0  0  0  0  0  0  0  0  0  0  0  # atno 10167 bound_to 10162
  156.3209  130.4265  149.7961 H   0  0  0  0  0  0  0  0  0  0  0  0  # atno 10718 bound_to 10713
  153.2997  135.6955  153.7215 H   0  0  0  0  0  0  0  0  0  0  0  0  # atno 10763 bound_to 10752
  153.6134  135.3440  155.2987 H   0  0  0  0  0  0  0  0  0  0  0  0  # atno 10764 bound_to 10752
  154.8547  135.4369  154.2104 H   0  0  0  0  0  0  0  0  0  0  0  0  # atno 10765 bound_to 10752
  139.9156  134.7875  156.1834 H   0  0  0  0  0  0  0  0  0  0  0  0  # atno 11005 bound_to 11000
  145.1234  140.9475  143.4587 LP  0  0  0  0  0  0  0  0  0  0  0  0  # atno 17320 bound_to 7965
  145.0459  139.3221  143.5953 LP  0  0  0  0  0  0  0  0  0  0  0  0  # atno 17321 bound_to 7965
  140.0914  143.4874  152.2477 LP  0  0  0  0  0  0  0  0  0  0  0  0  # atno 17342 bound_to 10162
  139.5876  144.7537  151.3480 LP  0  0  0  0  0  0  0  0  0  0  0  0  # atno 17343 bound_to 10162
  156.5269  130.8240  151.3223 LP  0  0  0  0  0  0  0  0  0  0  0  0  # atno 17370 bound_to 10713
  157.7411  130.9864  150.2426 LP  0  0  0  0  0  0  0  0  0  0  0  0  # atno 17371 bound_to 10713
  141.0628  133.6833  156.1986 LP  0  0  0  0  0  0  0  0  0  0  0  0  # atno 17394 bound_to 11000
  140.6633  134.4945  157.5584 LP  0  0  0  0  0  0  0  0  0  0  0  0  # atno 17395 bound_to 11000

$$$$
