AV-unprocessed.smi:256|AV-procd|sdf|1959|dock5
  -GOLD-   2262021103D 1   1.00000     0.00000
 Structure written by MMmdl.
 62 65  0  0  0  0  0  0  0  0  2 V2000
  146.5190  141.7562  155.3297 C   0  0  0  0  0  0  0  0  0  0  0  0
  147.7136  141.3649  156.2110 C   0  0  0  0  0  0  0  0  0  0  0  0
  149.0949  141.5663  155.5321 C   0  0  2  0  0  0  0  0  0  0  0  0
  149.3242  140.6328  154.3192 C   0  0  0  0  0  0  0  0  0  0  0  0
  149.5705  139.2561  154.7476 N   0  0  0  0  0  0  0  0  0  0  0  0
  148.5234  138.3847  154.7616 C   0  0  0  0  0  0  0  0  0  0  0  0
  148.4470  137.5246  155.8111 N   0  0  0  0  0  0  0  0  0  0  0  0
  147.4557  136.6346  155.8970 C   0  0  0  0  0  0  0  0  0  0  0  0
  146.4446  136.4327  155.0536 N   0  0  0  0  0  0  0  0  0  0  0  0
  146.5069  137.2877  153.9944 C   0  0  0  0  0  0  0  0  0  0  0  0
  147.4968  138.2896  153.7708 C   0  0  0  0  0  0  0  0  0  0  0  0
  147.2169  138.9505  152.5782 N   0  0  0  0  0  0  0  0  0  0  0  0
  146.1285  138.3857  152.1349 C   0  0  0  0  0  0  0  0  0  0  0  0
  145.6409  137.3663  152.9180 N   0  0  0  0  0  0  0  0  0  0  0  0
  144.4579  136.5580  152.6634 C   0  0  0  0  0  0  0  0  0  0  0  0
  144.6627  135.4604  151.5896 C   0  0  0  0  0  0  0  0  0  0  0  0
  144.5574  136.0705  150.3148 O   0  0  0  0  0  0  0  0  0  0  0  0
  146.0701  134.8437  151.7176 C   0  0  0  0  0  0  0  0  0  0  0  0
  146.2597  133.6319  150.7884 C   0  0  0  0  0  0  0  0  0  0  0  0
  145.2487  132.6641  151.0417 O   0  0  0  0  0  0  0  0  0  0  0  0
  143.9413  133.1490  150.7612 C   0  0  0  0  0  0  0  0  0  0  0  0
  143.6066  134.3372  151.6806 C   0  0  0  0  0  0  0  0  0  0  0  0
  150.6901  139.1168  155.6708 C   0  0  0  0  0  0  0  0  0  0  0  0
  150.5121  140.0337  156.8950 C   0  0  0  0  0  0  0  0  0  0  0  0
  150.2464  141.4378  156.4825 N   0  3  2  0  0  0  0  0  0  0  0  0
  150.2607  142.3747  157.6392 C   0  0  0  0  0  0  0  0  0  0  0  0
  151.5857  142.3607  158.4272 C   0  0  0  0  0  0  0  0  0  0  0  0
  151.7304  143.5096  159.2523 O   0  0  0  0  0  0  0  0  0  0  0  0
  152.1628  144.6736  158.5650 C   0  0  0  0  0  0  0  0  0  0  0  0
  145.5883  141.6879  155.8933 H   0  0  0  0  0  0  0  0  0  0  0  0
  146.4190  141.1003  154.4654 H   0  0  0  0  0  0  0  0  0  0  0  0
  146.6122  142.7807  154.9686 H   0  0  0  0  0  0  0  0  0  0  0  0
  147.6510  141.9745  157.1111 H   0  0  0  0  0  0  0  0  0  0  0  0
  147.5905  140.3332  156.5390 H   0  0  0  0  0  0  0  0  0  0  0  0
  149.1124  142.5792  155.1311 H   0  0  0  0  0  0  0  0  0  0  0  0
  148.5098  140.7164  153.6012 H   0  0  0  0  0  0  0  0  0  0  0  0
  150.2111  140.9664  153.7790 H   0  0  0  0  0  0  0  0  0  0  0  0
  147.4766  135.9915  156.7645 H   0  0  0  0  0  0  0  0  0  0  0  0
  145.6547  138.6908  151.2131 H   0  0  0  0  0  0  0  0  0  0  0  0
  144.1411  136.1097  153.6062 H   0  0  0  0  0  0  0  0  0  0  0  0
  143.6518  137.2285  152.3629 H   0  0  0  0  0  0  0  0  0  0  0  0
  144.4231  136.9981  150.4352 H   0  0  0  0  0  0  0  0  0  0  0  0
  146.8363  135.5935  151.5155 H   0  0  0  0  0  0  0  0  0  0  0  0
  146.2286  134.5165  152.7461 H   0  0  0  0  0  0  0  0  0  0  0  0
  146.2391  133.9320  149.7397 H   0  0  0  0  0  0  0  0  0  0  0  0
  147.2339  133.1763  150.9655 H   0  0  0  0  0  0  0  0  0  0  0  0
  143.8628  133.4311  149.7103 H   0  0  0  0  0  0  0  0  0  0  0  0
  143.2271  132.3416  150.9240 H   0  0  0  0  0  0  0  0  0  0  0  0
  143.5553  133.9760  152.7084 H   0  0  0  0  0  0  0  0  0  0  0  0
  142.6128  134.7151  151.4382 H   0  0  0  0  0  0  0  0  0  0  0  0
  150.8509  138.0801  155.9636 H   0  0  0  0  0  0  0  0  0  0  0  0
  151.5943  139.4090  155.1358 H   0  0  0  0  0  0  0  0  0  0  0  0
  149.6977  139.6823  157.5284 H   0  0  0  0  0  0  0  0  0  0  0  0
  151.4170  139.9923  157.5024 H   0  0  0  0  0  0  0  0  0  0  0  0
  150.0313  143.3875  157.3086 H   0  0  0  0  0  0  0  0  0  0  0  0
  149.4480  142.1050  158.3135 H   0  0  0  0  0  0  0  0  0  0  0  0
  151.6366  141.4759  159.0615 H   0  0  0  0  0  0  0  0  0  0  0  0
  152.4320  142.2782  157.7439 H   0  0  0  0  0  0  0  0  0  0  0  0
  152.3061  145.4835  159.2803 H   0  0  0  0  0  0  0  0  0  0  0  0
  151.4288  145.0089  157.8324 H   0  0  0  0  0  0  0  0  0  0  0  0
  153.1139  144.5047  158.0583 H   0  0  0  0  0  0  0  0  0  0  0  0
  151.0539  141.6980  155.9344 H   0  0  0  0  0  0  0  0  0  0  0  0
  1  2  1  0  0  0  0
  1 30  1  0  0  0  0
  1 31  1  0  0  0  0
  1 32  1  0  0  0  0
  2  3  1  0  0  0  0
  2 33  1  0  0  0  0
  2 34  1  0  0  0  0
  3 25  1  0  0  0  0
  3  4  1  0  0  0  0
  3 35  1  0  0  0  0
  4  5  1  0  0  0  0
  4 36  1  0  0  0  0
  4 37  1  0  0  0  0
  5  6  1  0  0  0  0
  5 23  1  0  0  0  0
  6 11  1  0  0  0  0
  6  7  2  0  0  0  0
  7  8  1  0  0  0  0
  8  9  2  0  0  0  0
  8 38  1  0  0  0  0
  9 10  1  0  0  0  0
 10 14  1  0  0  0  0
 10 11  2  0  0  0  0
 11 12  1  0  0  0  0
 12 13  2  0  0  0  0
 13 14  1  0  0  0  0
 13 39  1  0  0  0  0
 14 15  1  0  0  0  0
 15 16  1  0  0  0  0
 15 40  1  0  0  0  0
 15 41  1  0  0  0  0
 16 22  1  0  0  0  0
 16 17  1  0  0  0  0
 16 18  1  0  0  0  0
 17 42  1  0  0  0  0
 18 19  1  0  0  0  0
 18 43  1  0  0  0  0
 18 44  1  0  0  0  0
 19 20  1  0  0  0  0
 19 45  1  0  0  0  0
 19 46  1  0  0  0  0
 20 21  1  0  0  0  0
 21 22  1  0  0  0  0
 21 47  1  0  0  0  0
 21 48  1  0  0  0  0
 22 49  1  0  0  0  0
 22 50  1  0  0  0  0
 23 24  1  0  0  0  0
 23 51  1  0  0  0  0
 23 52  1  0  0  0  0
 24 25  1  0  0  0  0
 24 53  1  0  0  0  0
 24 54  1  0  0  0  0
 25 26  1  0  0  0  0
 25 62  1  0  0  0  0
 26 27  1  0  0  0  0
 26 55  1  0  0  0  0
 26 56  1  0  0  0  0
 27 28  1  0  0  0  0
 27 57  1  0  0  0  0
 27 58  1  0  0  0  0
 28 29  1  0  0  0  0
 29 59  1  0  0  0  0
 29 60  1  0  0  0  0
 29 61  1  0  0  0  0
M  CHG  1  25   1
M  END
> <s_m_source_file>
AV-unprocessed.smi

> <i_m_source_file_index>
256

> <i_lp_mmshare_version>
43012

> <i_f3d_flags>
0

> <s_epik_input>
W0NIM11PW0NIMl1bQ0gyXU4xW0NIMl1bQ0gyXU4oW0NIMl1bQ0BIXTFbQ0gyXVtDSDNdKWMobltjSF1uMiljKGMyMyluW2NIXW4zW0NIMl1DNChbT0hdKVtDSDJdW0NIMl1PW0NIMl1bQ0gyXTQ=

> <s_epik_cmdline>
J2VwaWtfcHl0aG9uJywgJy1waCcsICc3LjAnLCAnLXRuJywgJzgnLCAnLW1hJywgJzIwMCcsICctbWV0YWxfYmluZGluZycsICctaW1hZScsICc8aW5maWxlLm1hZT4nLCAnLW9tYWUnLCAnPG91dGZpbGUubWFlPic=

> <r_lp_tautomer_probability>
1

> <r_epik_Ionization_Penalty>
0.233023

> <r_epik_Ionization_Penalty_Charging>
0.23295

> <r_epik_Ionization_Penalty_Neutral>
7.2493e-05

> <r_epik_State_Penalty>
0.223667

> <r_epik_Charging_Adjusted_Penalty>
0.456618

> <i_epik_Tot_Q>
1

> <i_epik_Tot_abs_Q>
1

> <r_epik_Metal_State_Penalty>
0.226879

> <b_epik_Metal_Only>
0

> <s_lp_Force_Field>
OPLS_2005

> <r_lp_Energy>
46.9359

> <b_lp_Chiralities_Consistent>
1

> <s_lp_Variant>
AV-unprocessed.smi:256-3

> <Gold.Version>
5.8.1

> <Gold.Id.Protein>
6NUR|6NUR_protein|mol2

> <Gold.PLP.Fitness>
44.4833

> <Gold.PLP.PLP>
-40.1757

> <Gold.PLP.part.hbond>
-1.0000

> <Gold.PLP.part.metal>
0.0000

> <Gold.PLP.part.buried>
-4.4228

> <Gold.PLP.part.nonpolar>
-38.5919

> <Gold.PLP.part.repulsive>
2.1038

> <Gold.PLP.ligand.clash>
0.0000

> <Gold.PLP.ligand.torsion>
1.1062

> <Gold.PLP.Chemscore.Hbond>
1.0000

> <Gold.PLP.Chemscore.CHOScore>
1.0000

> <Gold.PLP.Chemscore.Metal>
0.0000

> <Gold.Chemscore.Hbonds>
donor molecule, donor type, donor heavy atom, donor atom, acceptor molecule, acceptor atom, score
      L1  H    17    42       P1 10171  0.98
      L1  C    13    39       P1 10171  1.00
      L1  C    13    39       P1 10175  0.01

> <Gold.PLP.Chemscore.Internal.Correction>
0.5199

> <Gold.Rescore>
     Score         DG    S(hbond)    S(metal)    S(lipo)     H(rot)  DE(clash)    DE(int)     intcor
     11.32     -13.39       0.91        0.00      99.53       2.65       1.07       0.99       ----

> <Gold.Chemscore.Fitness>
11.3237

> <Gold.Chemscore.DG>
-13.3873

> <Gold.Chemscore.ZeroCoef>
-5.4800

> <Gold.Chemscore.Hbond>
0.9093

> <Gold.Chemscore.Metal>
0.0000

> <Gold.Chemscore.Lipo>
99.5263

> <Gold.Chemscore.Internal_Hbond>
0.0000

> <Gold.Chemscore.DEClash>
1.0744

> <Gold.Chemscore.DEInternal>
0.9893

> <Gold.Chemscore.Rot>
2.6462

> <Gold.Chemscore.Internal.Correction>
   9.000000E+99

> <Gold.Chemscore.Hbonds>
donor molecule, donor type, donor heavy atom, donor atom, acceptor molecule, acceptor atom, score
      L1  H    17    42       P1 10171  0.93

> <Gold.Chemscore.Hbond.Weighted>
-3.0369

> <Gold.Chemscore.Metal.Weighted>
-0.0000

> <Gold.Chemscore.Lipo.Weighted>
-11.6446

> <Gold.Chemscore.Internal_Hbond.Weighted>
0.0000

> <Gold.Chemscore.DEClash.Weighted>
1.0744

> <Gold.Chemscore.DEInternal.Weighted>
0.9893

> <Gold.Chemscore.Rot.Weighted>
6.7742

> <Gold.Chemscore.Internal.Correction.Weighted>
   9.000000E+99

> <Gold.Protein.RotatedTorsions>
[ 6907 6896 6895 6894 ] final -103.60 input  -60.11 | X-H torsion
[ 7974 7965 7964 7962 ] final  160.04 input  175.53 | X-H torsion
[ 8008 7997 7996 7995 ] final -172.76 input   59.86 | X-H torsion
[ 10167 10162 10161 10158 ] final -177.85 input  -65.29 | X-H torsion
[ 10718 10713 10712 10709 ] final  173.14 input   66.30 | X-H torsion
[ 10763 10752 10751 10750 ] final  114.78 input  -60.55 | X-H torsion
[ 11005 11000 10999 10996 ] final   -5.60 input  -57.11 | X-H torsion

> <Gold.Protein.ActiveResidues>
 VAL166  LYS551  ARG553  GLY616  TRP617  ASP618  TYR619  PRO620  LYS621  CYS622 
 ASP623  PHE694  ASN695  SER759  ASP760  ASP761  ALA762  ILE779  LEU786  VAL792 
 PHE793  MET794  SER795  GLU796  ALA797  LYS798  CYS799  TRP800  GLU811  SER814 

> <Gold.Protein.RotatedAtoms>
  150.7248  134.0405  159.3763 H   0  0  0  0  0  0  0  0  0  0  0  0  # atno 6907 bound_to 6896
  151.8378  135.0598  160.0454 H   0  0  0  0  0  0  0  0  0  0  0  0  # atno 6908 bound_to 6896
  152.2885  133.5503  159.5579 H   0  0  0  0  0  0  0  0  0  0  0  0  # atno 6909 bound_to 6896
  144.7758  139.7701  143.6279 H   0  0  0  0  0  0  0  0  0  0  0  0  # atno 7974 bound_to 7965
  155.9488  140.1122  157.0994 H   0  0  0  0  0  0  0  0  0  0  0  0  # atno 8008 bound_to 7997
  154.4105  140.1204  156.5091 H   0  0  0  0  0  0  0  0  0  0  0  0  # atno 8009 bound_to 7997
  155.6869  140.3473  155.4880 H   0  0  0  0  0  0  0  0  0  0  0  0  # atno 8010 bound_to 7997
  139.5460  144.2234  152.0989 H   0  0  0  0  0  0  0  0  0  0  0  0  # atno 10167 bound_to 10162
  156.9687  131.0083  151.2910 H   0  0  0  0  0  0  0  0  0  0  0  0  # atno 10718 bound_to 10713
  153.5124  135.3615  155.2593 H   0  0  0  0  0  0  0  0  0  0  0  0  # atno 10763 bound_to 10752
  154.8741  135.4026  154.3354 H   0  0  0  0  0  0  0  0  0  0  0  0  # atno 10764 bound_to 10752
  153.4009  135.7075  153.6493 H   0  0  0  0  0  0  0  0  0  0  0  0  # atno 10765 bound_to 10752
  140.6929  133.9056  155.8630 H   0  0  0  0  0  0  0  0  0  0  0  0  # atno 11005 bound_to 11000
  146.1936  139.5190  142.9789 LP  0  0  0  0  0  0  0  0  0  0  0  0  # atno 17320 bound_to 7965
  145.6191  141.0326  143.1925 LP  0  0  0  0  0  0  0  0  0  0  0  0  # atno 17321 bound_to 7965
  140.1721  144.4926  150.6574 LP  0  0  0  0  0  0  0  0  0  0  0  0  # atno 17342 bound_to 10162
  140.6708  143.2285  151.5629 LP  0  0  0  0  0  0  0  0  0  0  0  0  # atno 17343 bound_to 10162
  157.5608  130.8244  149.8263 LP  0  0  0  0  0  0  0  0  0  0  0  0  # atno 17370 bound_to 10713
  156.0292  130.3770  150.1736 LP  0  0  0  0  0  0  0  0  0  0  0  0  # atno 17371 bound_to 10713
  141.0227  134.0867  157.4103 LP  0  0  0  0  0  0  0  0  0  0  0  0  # atno 17394 bound_to 11000
  139.8918  135.0121  156.6813 LP  0  0  0  0  0  0  0  0  0  0  0  0  # atno 17395 bound_to 11000

$$$$
