AV-unprocessed.smi:232|AV-procd|sdf|1775|dock6
  -GOLD-   2262020313D 1   1.00000     0.00000
 Structure written by MMmdl.
 52 55  0  0  0  0  0  0  0  0  1 V2000
  151.7979  139.3410  155.0254 C   0  0  0  0  0  0  0  0  0  0  0  0
  150.5486  139.8332  155.7683 C   0  0  0  0  0  0  0  0  0  0  0  0
  149.3188  140.0121  154.8589 C   0  0  2  0  0  0  0  0  0  0  0  0
  149.1990  141.4322  154.2822 C   0  0  0  0  0  0  0  0  0  0  0  0
  147.6940  141.6577  154.1916 C   0  0  0  0  0  0  0  0  0  0  0  0
  147.2048  140.9388  155.4453 C   0  0  1  0  0  0  0  0  0  0  0  0
  145.6805  140.7071  155.4930 C   0  0  0  0  0  0  0  0  0  0  0  0
  148.0578  139.7524  155.5644 N   0  0  0  0  0  0  0  0  0  0  0  0
  147.4897  138.5360  155.3820 C   0  0  0  0  0  0  0  0  0  0  0  0
  147.4947  137.6140  156.3811 N   0  0  0  0  0  0  0  0  0  0  0  0
  146.9482  136.4105  156.1814 C   0  0  0  0  0  0  0  0  0  0  0  0
  146.3611  135.9311  155.0822 N   0  0  0  0  0  0  0  0  0  0  0  0
  146.3635  136.8540  154.0779 C   0  0  0  0  0  0  0  0  0  0  0  0
  146.9034  138.1680  154.1429 C   0  0  0  0  0  0  0  0  0  0  0  0
  146.7270  138.8186  152.9283 N   0  0  0  0  0  0  0  0  0  0  0  0
  146.1165  137.9366  152.1843 C   0  0  0  0  0  0  0  0  0  0  0  0
  145.8615  136.7293  152.7954 N   0  0  0  0  0  0  0  0  0  0  0  0
  145.2060  135.5740  152.2091 C   0  0  0  0  0  0  0  0  0  0  0  0
  145.8268  135.1730  150.8563 C   0  0  2  0  0  0  0  0  0  0  0  0
  145.3361  136.0366  149.8481 O   0  0  0  0  0  0  0  0  0  0  0  0
  145.5018  133.7184  150.4690 C   0  0  1  0  0  0  0  0  0  0  0  0
  145.8624  132.6865  151.5409 C   0  0  0  0  0  0  0  0  0  0  0  0
  144.9016  131.5635  151.2270 C   0  0  0  0  0  0  0  0  0  0  0  0
  143.6436  132.3375  150.8506 C   0  0  0  0  0  0  0  0  0  0  0  0
  144.0978  133.5565  150.2691 O   0  0  0  0  0  0  0  0  0  0  0  0
  152.6555  139.2994  155.6971 H   0  0  0  0  0  0  0  0  0  0  0  0
  152.0533  140.0066  154.2004 H   0  0  0  0  0  0  0  0  0  0  0  0
  151.6528  138.3406  154.6182 H   0  0  0  0  0  0  0  0  0  0  0  0
  150.3131  139.1480  156.5836 H   0  0  0  0  0  0  0  0  0  0  0  0
  150.7837  140.7908  156.2339 H   0  0  0  0  0  0  0  0  0  0  0  0
  149.4258  139.3324  154.0129 H   0  0  0  0  0  0  0  0  0  0  0  0
  149.6314  142.1612  154.9696 H   0  0  0  0  0  0  0  0  0  0  0  0
  149.7023  141.5411  153.3212 H   0  0  0  0  0  0  0  0  0  0  0  0
  147.4220  142.7135  154.1724 H   0  0  0  0  0  0  0  0  0  0  0  0
  147.2945  141.1816  153.2948 H   0  0  0  0  0  0  0  0  0  0  0  0
  147.4564  141.5613  156.3052 H   0  0  0  0  0  0  0  0  0  0  0  0
  145.1470  141.6568  155.4479 H   0  0  0  0  0  0  0  0  0  0  0  0
  145.3824  140.2108  156.4169 H   0  0  0  0  0  0  0  0  0  0  0  0
  145.3343  140.1012  154.6551 H   0  0  0  0  0  0  0  0  0  0  0  0
  146.9902  135.7331  157.0216 H   0  0  0  0  0  0  0  0  0  0  0  0
  145.8383  138.1424  151.1610 H   0  0  0  0  0  0  0  0  0  0  0  0
  145.2785  134.7504  152.9203 H   0  0  0  0  0  0  0  0  0  0  0  0
  144.1436  135.7935  152.0945 H   0  0  0  0  0  0  0  0  0  0  0  0
  146.9095  135.2956  150.9074 H   0  0  0  0  0  0  0  0  0  0  0  0
  145.4203  135.6016  149.0136 H   0  0  0  0  0  0  0  0  0  0  0  0
  145.9995  133.4539  149.5345 H   0  0  0  0  0  0  0  0  0  0  0  0
  146.9074  132.3781  151.5007 H   0  0  0  0  0  0  0  0  0  0  0  0
  145.6607  133.0794  152.5386 H   0  0  0  0  0  0  0  0  0  0  0  0
  145.2617  130.9884  150.3728 H   0  0  0  0  0  0  0  0  0  0  0  0
  144.7490  130.8802  152.0628 H   0  0  0  0  0  0  0  0  0  0  0  0
  143.0013  131.7824  150.1666 H   0  0  0  0  0  0  0  0  0  0  0  0
  143.0630  132.5768  151.7423 H   0  0  0  0  0  0  0  0  0  0  0  0
  1  2  1  0  0  0  0
  1 26  1  0  0  0  0
  1 27  1  0  0  0  0
  1 28  1  0  0  0  0
  2  3  1  0  0  0  0
  2 29  1  0  0  0  0
  2 30  1  0  0  0  0
  3  8  1  0  0  0  0
  3  4  1  0  0  0  0
  3 31  1  0  0  0  0
  4  5  1  0  0  0  0
  4 32  1  0  0  0  0
  4 33  1  0  0  0  0
  5  6  1  0  0  0  0
  5 34  1  0  0  0  0
  5 35  1  0  0  0  0
  6  7  1  0  0  0  0
  6  8  1  0  0  0  0
  6 36  1  0  0  0  0
  7 37  1  0  0  0  0
  7 38  1  0  0  0  0
  7 39  1  0  0  0  0
  8  9  1  0  0  0  0
  9 14  1  0  0  0  0
  9 10  2  0  0  0  0
 10 11  1  0  0  0  0
 11 12  2  0  0  0  0
 11 40  1  0  0  0  0
 12 13  1  0  0  0  0
 13 17  1  0  0  0  0
 13 14  2  0  0  0  0
 14 15  1  0  0  0  0
 15 16  2  0  0  0  0
 16 17  1  0  0  0  0
 16 41  1  0  0  0  0
 17 18  1  0  0  0  0
 18 19  1  0  0  0  0
 18 42  1  0  0  0  0
 18 43  1  0  0  0  0
 19 20  1  0  0  0  0
 19 21  1  0  0  0  0
 19 44  1  0  0  0  0
 20 45  1  0  0  0  0
 21 25  1  0  0  0  0
 21 22  1  0  0  0  0
 21 46  1  0  0  0  0
 22 23  1  0  0  0  0
 22 47  1  0  0  0  0
 22 48  1  0  0  0  0
 23 24  1  0  0  0  0
 23 49  1  0  0  0  0
 23 50  1  0  0  0  0
 24 25  1  0  0  0  0
 24 51  1  0  0  0  0
 24 52  1  0  0  0  0
M  END
> <s_m_source_file>
AV-unprocessed.smi

> <i_m_source_file_index>
232

> <i_lp_mmshare_version>
43012

> <i_f3d_flags>
0

> <s_epik_input>
W0NIM11bQ0gyXVtDQEBIXTFbQ0gyXVtDSDJdW0NAQEhdKFtDSDNdKU4xYyhuW2NIXW4yKWMoYzIzKW5bY0hdbjNbQ0gyXVtDQEhdKFtPSF0pW0NAQEhdNFtDSDJdW0NIMl1bQ0gyXU80

> <s_epik_cmdline>
J2VwaWtfcHl0aG9uJywgJy1waCcsICc3LjAnLCAnLXRuJywgJzgnLCAnLW1hJywgJzIwMCcsICctbWV0YWxfYmluZGluZycsICctaW1hZScsICc8aW5maWxlLm1hZT4nLCAnLW9tYWUnLCAnPG91dGZpbGUubWFlPic=

> <r_lp_tautomer_probability>
1

> <r_epik_Ionization_Penalty>
0.00258048

> <r_epik_Ionization_Penalty_Charging>
0

> <r_epik_Ionization_Penalty_Neutral>
0.00258048

> <r_epik_State_Penalty>
0.00168551

> <r_epik_Charging_Adjusted_Penalty>
0.00168551

> <i_epik_Tot_Q>
0

> <i_epik_Tot_abs_Q>
0

> <r_epik_Metal_State_Penalty>
-0

> <b_epik_Metal_Only>
0

> <s_lp_Force_Field>
OPLS_2005

> <r_lp_Energy>
56.7631

> <b_lp_Chiralities_Consistent>
1

> <s_lp_Variant>
AV-unprocessed.smi:232-9

> <Gold.Version>
5.8.1

> <Gold.Id.Protein>
6NUR|6NUR_protein|mol2

> <Gold.PLP.Fitness>
40.1808

> <Gold.PLP.PLP>
-35.5516

> <Gold.PLP.part.hbond>
-2.0000

> <Gold.PLP.part.metal>
0.0000

> <Gold.PLP.part.buried>
-2.1417

> <Gold.PLP.part.nonpolar>
-31.1922

> <Gold.PLP.part.repulsive>
0.5213

> <Gold.PLP.ligand.clash>
0.0000

> <Gold.PLP.ligand.torsion>
0.7992

> <Gold.PLP.Chemscore.Hbond>
1.0000

> <Gold.PLP.Chemscore.CHOScore>
1.0000

> <Gold.PLP.Chemscore.Metal>
0.0000

> <Gold.Chemscore.Hbonds>
donor molecule, donor type, donor heavy atom, donor atom, acceptor molecule, acceptor atom, score
      L1  H    20    45       P1  7921  1.00
      L1  C    16    41       P1 10171  1.00

> <Gold.PLP.Chemscore.Internal.Correction>
0.2277

> <Gold.Rescore>
     Score         DG    S(hbond)    S(metal)    S(lipo)     H(rot)  DE(clash)    DE(int)     intcor
     11.59     -12.44       1.00        0.00      84.14       2.43       0.09       0.77       ----

> <Gold.Chemscore.Fitness>
11.5852

> <Gold.Chemscore.DG>
-12.4421

> <Gold.Chemscore.ZeroCoef>
-5.4800

> <Gold.Chemscore.Hbond>
0.9966

> <Gold.Chemscore.Metal>
0.0000

> <Gold.Chemscore.Lipo>
84.1368

> <Gold.Chemscore.Internal_Hbond>
0.0000

> <Gold.Chemscore.DEClash>
0.0851

> <Gold.Chemscore.DEInternal>
0.7718

> <Gold.Chemscore.Rot>
2.4260

> <Gold.Chemscore.Internal.Correction>
   9.000000E+99

> <Gold.Chemscore.Hbonds>
donor molecule, donor type, donor heavy atom, donor atom, acceptor molecule, acceptor atom, score
      L1  H    20    45       P1  7921  1.00

> <Gold.Chemscore.Hbond.Weighted>
-3.3287

> <Gold.Chemscore.Metal.Weighted>
-0.0000

> <Gold.Chemscore.Lipo.Weighted>
-9.8440

> <Gold.Chemscore.Internal_Hbond.Weighted>
0.0000

> <Gold.Chemscore.DEClash.Weighted>
0.0851

> <Gold.Chemscore.DEInternal.Weighted>
0.7718

> <Gold.Chemscore.Rot.Weighted>
6.2107

> <Gold.Chemscore.Internal.Correction.Weighted>
   9.000000E+99

> <Gold.Protein.RotatedTorsions>
[ 6907 6896 6895 6894 ] final  109.67 input  -60.11 | X-H torsion
[ 7974 7965 7964 7962 ] final  109.80 input  175.53 | X-H torsion
[ 8008 7997 7996 7995 ] final    5.93 input   59.86 | X-H torsion
[ 10167 10162 10161 10158 ] final  -50.87 input  -65.29 | X-H torsion
[ 10718 10713 10712 10709 ] final -164.27 input   66.30 | X-H torsion
[ 10763 10752 10751 10750 ] final   81.23 input  -60.55 | X-H torsion
[ 11005 11000 10999 10996 ] final   65.98 input  -57.11 | X-H torsion

> <Gold.Protein.ActiveResidues>
 VAL166  LYS551  ARG553  GLY616  TRP617  ASP618  TYR619  PRO620  LYS621  CYS622 
 ASP623  PHE694  ASN695  SER759  ASP760  ASP761  ALA762  ILE779  LEU786  VAL792 
 PHE793  MET794  SER795  GLU796  ALA797  LYS798  CYS799  TRP800  GLU811  SER814 

> <Gold.Protein.RotatedAtoms>
  152.5056  133.8910  159.7393 H   0  0  0  0  0  0  0  0  0  0  0  0  # atno 6907 bound_to 6896
  150.9349  133.6715  159.2809 H   0  0  0  0  0  0  0  0  0  0  0  0  # atno 6908 bound_to 6896
  151.4047  135.0981  159.9619 H   0  0  0  0  0  0  0  0  0  0  0  0  # atno 6909 bound_to 6896
  145.2632  139.2694  143.4006 H   0  0  0  0  0  0  0  0  0  0  0  0  # atno 7974 bound_to 7965
  154.7346  140.2737  155.6426 H   0  0  0  0  0  0  0  0  0  0  0  0  # atno 8008 bound_to 7997
  156.2858  140.2709  156.1981 H   0  0  0  0  0  0  0  0  0  0  0  0  # atno 8009 bound_to 7997
  155.0337  140.0371  157.2473 H   0  0  0  0  0  0  0  0  0  0  0  0  # atno 8010 bound_to 7997
  140.6616  143.2641  151.4421 H   0  0  0  0  0  0  0  0  0  0  0  0  # atno 10167 bound_to 10162
  156.6366  130.8951  151.2988 H   0  0  0  0  0  0  0  0  0  0  0  0  # atno 10718 bound_to 10713
  153.1099  135.4773  154.9017 H   0  0  0  0  0  0  0  0  0  0  0  0  # atno 10763 bound_to 10752
  154.7470  135.3096  154.8630 H   0  0  0  0  0  0  0  0  0  0  0  0  # atno 10764 bound_to 10752
  153.9222  135.6854  153.4801 H   0  0  0  0  0  0  0  0  0  0  0  0  # atno 10765 bound_to 10752
  139.9860  134.6667  156.0175 H   0  0  0  0  0  0  0  0  0  0  0  0  # atno 11005 bound_to 11000
  146.3269  140.3054  142.8623 LP  0  0  0  0  0  0  0  0  0  0  0  0  # atno 17320 bound_to 7965
  144.9400  140.8068  143.5636 LP  0  0  0  0  0  0  0  0  0  0  0  0  # atno 17321 bound_to 7965
  139.5852  144.1620  152.2020 LP  0  0  0  0  0  0  0  0  0  0  0  0  # atno 17342 bound_to 10162
  140.0957  144.5582  150.7023 LP  0  0  0  0  0  0  0  0  0  0  0  0  # atno 17343 bound_to 10162
  157.7184  130.9526  150.1341 LP  0  0  0  0  0  0  0  0  0  0  0  0  # atno 17370 bound_to 10713
  156.2192  130.3672  149.8576 LP  0  0  0  0  0  0  0  0  0  0  0  0  # atno 17371 bound_to 10713
  141.1525  133.6546  156.4057 LP  0  0  0  0  0  0  0  0  0  0  0  0  # atno 17394 bound_to 11000
  140.5001  134.6493  157.5245 LP  0  0  0  0  0  0  0  0  0  0  0  0  # atno 17395 bound_to 11000

$$$$
