AV-unprocessed.smi:1284|AV-procd|sdf|5363|dock6
  -GOLD-   22720 4503D 1   1.00000     0.00000
 Structure written by MMmdl.
 39 41  0  0  0  0  0  0  0  0  1 V2000
  152.8825  138.4299  154.6008 N   0  0  0  0  0  0  0  0  0  0  0  0
  151.7890  138.9596  155.1565 C   0  0  0  0  0  0  0  0  0  0  0  0
  151.0039  139.6593  154.5204 O   0  0  0  0  0  0  0  0  0  0  0  0
  151.5311  138.6484  156.6339 C   0  0  0  0  0  0  0  0  0  0  0  0
  151.6826  139.9149  157.4301 C   0  0  0  0  0  0  0  0  0  0  0  0
  152.8287  140.2241  158.0409 N   0  0  0  0  0  0  0  0  0  0  0  0
  152.5363  141.4285  158.6497 C   0  0  0  0  0  0  0  0  0  0  0  0
  153.3399  142.2723  159.4493 C   0  0  0  0  0  0  0  0  0  0  0  0
  152.8141  143.4711  159.9741 C   0  0  0  0  0  0  0  0  0  0  0  0
  151.4803  143.8426  159.7074 C   0  0  0  0  0  0  0  0  0  0  0  0
  150.6634  143.0169  158.9112 C   0  0  0  0  0  0  0  0  0  0  0  0
  151.1936  141.8217  158.3896 C   0  0  0  0  0  0  0  0  0  0  0  0
  150.6715  140.8084  157.5924 N   0  0  0  0  0  0  0  0  0  0  0  0
  149.3145  140.7582  157.0639 C   0  0  0  0  0  0  0  0  0  0  0  0
  149.1935  141.4105  155.6722 C   0  0  2  0  0  0  0  0  0  0  0  0
  150.0945  142.4954  155.5615 O   0  0  0  0  0  0  0  0  0  0  0  0
  147.7600  141.8258  155.3821 C   0  0  0  0  0  0  0  0  0  0  0  0
  146.7787  141.7343  156.3927 C   0  0  0  0  0  0  0  0  0  0  0  0
  145.4511  142.1248  156.1302 C   0  0  0  0  0  0  0  0  0  0  0  0
  145.0976  142.6106  154.8567 C   0  0  0  0  0  0  0  0  0  0  0  0
  146.0731  142.7087  153.8462 C   0  0  0  0  0  0  0  0  0  0  0  0
  147.4008  142.3186  154.1082 C   0  0  0  0  0  0  0  0  0  0  0  0
  153.0942  138.6180  153.6317 H   0  0  0  0  0  0  0  0  0  0  0  0
  153.4983  137.8511  155.1539 H   0  0  0  0  0  0  0  0  0  0  0  0
  150.5389  138.2189  156.7710 H   0  0  0  0  0  0  0  0  0  0  0  0
  152.2471  137.9056  156.9883 H   0  0  0  0  0  0  0  0  0  0  0  0
  154.3624  141.9960  159.6601 H   0  0  0  0  0  0  0  0  0  0  0  0
  153.4368  144.1077  160.5852 H   0  0  0  0  0  0  0  0  0  0  0  0
  151.0848  144.7617  160.1146 H   0  0  0  0  0  0  0  0  0  0  0  0
  149.6413  143.2979  158.7049 H   0  0  0  0  0  0  0  0  0  0  0  0
  149.0168  139.7106  157.0059 H   0  0  0  0  0  0  0  0  0  0  0  0
  148.6268  141.2231  157.7687 H   0  0  0  0  0  0  0  0  0  0  0  0
  149.4965  140.6822  154.9188 H   0  0  0  0  0  0  0  0  0  0  0  0
  149.5936  143.2942  155.4992 H   0  0  0  0  0  0  0  0  0  0  0  0
  147.0401  141.3657  157.3737 H   0  0  0  0  0  0  0  0  0  0  0  0
  144.7037  142.0526  156.9066 H   0  0  0  0  0  0  0  0  0  0  0  0
  144.0793  142.9099  154.6560 H   0  0  0  0  0  0  0  0  0  0  0  0
  145.8042  143.0842  152.8700 H   0  0  0  0  0  0  0  0  0  0  0  0
  148.1444  142.4015  153.3287 H   0  0  0  0  0  0  0  0  0  0  0  0
  1  2  1  0  0  0  0
  1 23  1  0  0  0  0
  1 24  1  0  0  0  0
  2  3  2  0  0  0  0
  2  4  1  0  0  0  0
  4  5  1  0  0  0  0
  4 25  1  0  0  0  0
  4 26  1  0  0  0  0
  5 13  1  0  0  0  0
  5  6  2  0  0  0  0
  6  7  1  0  0  0  0
  7 12  2  0  0  0  0
  7  8  1  0  0  0  0
  8  9  2  0  0  0  0
  8 27  1  0  0  0  0
  9 10  1  0  0  0  0
  9 28  1  0  0  0  0
 10 11  2  0  0  0  0
 10 29  1  0  0  0  0
 11 12  1  0  0  0  0
 11 30  1  0  0  0  0
 12 13  1  0  0  0  0
 13 14  1  0  0  0  0
 14 15  1  0  0  0  0
 14 31  1  0  0  0  0
 14 32  1  0  0  0  0
 15 16  1  0  0  0  0
 15 17  1  0  0  0  0
 15 33  1  0  0  0  0
 16 34  1  0  0  0  0
 17 22  1  0  0  0  0
 17 18  2  0  0  0  0
 18 19  1  0  0  0  0
 18 35  1  0  0  0  0
 19 20  2  0  0  0  0
 19 36  1  0  0  0  0
 20 21  1  0  0  0  0
 20 37  1  0  0  0  0
 21 22  2  0  0  0  0
 21 38  1  0  0  0  0
 22 39  1  0  0  0  0
M  END
> <s_m_source_file>
AV-unprocessed.smi

> <i_m_source_file_index>
1284

> <i_lp_mmshare_version>
43012

> <i_f3d_flags>
0

> <s_epik_input>
W2NIXTFbY0hdW2NIXVtjSF1jKGMxMiluKGMobjIpW0NIMl1DKD1PKVtOSDJdKVtDSDJdW0NASF0oW09IXSljM1tjSF1bY0hdW2NIXVtjSF1bY0hdMw==

> <s_epik_cmdline>
J2VwaWtfcHl0aG9uJywgJy1waCcsICc3LjAnLCAnLXRuJywgJzgnLCAnLW1hJywgJzIwMCcsICctbWV0YWxfYmluZGluZycsICctaW1hZScsICc8aW5maWxlLm1hZT4nLCAnLW9tYWUnLCAnPG91dGZpbGUubWFlPic=

> <r_epik_Ionization_Penalty>
0.0366899

> <r_epik_Ionization_Penalty_Charging>
0

> <r_epik_Ionization_Penalty_Neutral>
0.0366899

> <r_epik_State_Penalty>
0.0306642

> <r_epik_Charging_Adjusted_Penalty>
0.0306642

> <i_epik_Tot_Q>
0

> <i_epik_Tot_abs_Q>
0

> <r_epik_Metal_State_Penalty>
0.028853

> <b_epik_Metal_Only>
0

> <s_lp_Force_Field>
OPLS_2005

> <r_lp_Energy>
12.351

> <b_lp_Chiralities_Consistent>
1

> <s_lp_Variant>
AV-unprocessed.smi:1284-1

> <Gold.Version>
5.8.1

> <Gold.Id.Protein>
6NUR|6NUR_protein|mol2

> <Gold.PLP.Fitness>
48.0668

> <Gold.PLP.PLP>
-41.2299

> <Gold.PLP.part.hbond>
-3.0000

> <Gold.PLP.part.metal>
0.0000

> <Gold.PLP.part.buried>
-4.9696

> <Gold.PLP.part.nonpolar>
-33.6163

> <Gold.PLP.part.repulsive>
0.3344

> <Gold.PLP.ligand.clash>
0.0000

> <Gold.PLP.ligand.torsion>
1.0972

> <Gold.PLP.Chemscore.Hbond>
2.9920

> <Gold.PLP.Chemscore.CHOScore>
0.0000

> <Gold.PLP.Chemscore.Metal>
0.0000

> <Gold.Chemscore.Hbonds>
donor molecule, donor type, donor heavy atom, donor atom, acceptor molecule, acceptor atom, score
      L1  H    16    34       P1  8028  1.00
      P1  H  7989  7998       L1     3  1.00
      P1  H  7997  8009       L1     6  0.98

> <Gold.PLP.Chemscore.Internal.Correction>
0.0553

> <Gold.Rescore>
     Score         DG    S(hbond)    S(metal)    S(lipo)     H(rot)  DE(clash)    DE(int)     intcor
     17.58     -19.05       2.81        0.00      98.23       2.86       0.44       1.03       ----

> <Gold.Chemscore.Fitness>
17.5755

> <Gold.Chemscore.DG>
-19.0486

> <Gold.Chemscore.ZeroCoef>
-5.4800

> <Gold.Chemscore.Hbond>
2.8139

> <Gold.Chemscore.Metal>
0.0000

> <Gold.Chemscore.Lipo>
98.2323

> <Gold.Chemscore.Internal_Hbond>
0.0000

> <Gold.Chemscore.DEClash>
0.4420

> <Gold.Chemscore.DEInternal>
1.0310

> <Gold.Chemscore.Rot>
2.8606

> <Gold.Chemscore.Internal.Correction>
   9.000000E+99

> <Gold.Chemscore.Hbonds>
donor molecule, donor type, donor heavy atom, donor atom, acceptor molecule, acceptor atom, score
      L1  H    16    34       P1  8028  0.98
      P1  H  7989  7998       L1     3  0.96
      P1  H  7997  8009       L1     6  0.79

> <Gold.Chemscore.Hbond.Weighted>
-9.3985

> <Gold.Chemscore.Metal.Weighted>
-0.0000

> <Gold.Chemscore.Lipo.Weighted>
-11.4932

> <Gold.Chemscore.Internal_Hbond.Weighted>
0.0000

> <Gold.Chemscore.DEClash.Weighted>
0.4420

> <Gold.Chemscore.DEInternal.Weighted>
1.0310

> <Gold.Chemscore.Rot.Weighted>
7.3231

> <Gold.Chemscore.Internal.Correction.Weighted>
   9.000000E+99

> <Gold.Protein.RotatedTorsions>
[ 6907 6896 6895 6894 ] final   27.30 input  -60.11 | X-H torsion
[ 7974 7965 7964 7962 ] final  120.66 input  175.53 | X-H torsion
[ 8008 7997 7996 7995 ] final  164.23 input   59.86 | X-H torsion
[ 10167 10162 10161 10158 ] final  -20.48 input  -65.29 | X-H torsion
[ 10718 10713 10712 10709 ] final -142.05 input   66.30 | X-H torsion
[ 10763 10752 10751 10750 ] final   68.83 input  -60.55 | X-H torsion
[ 11005 11000 10999 10996 ] final -127.32 input  -57.11 | X-H torsion

> <Gold.Protein.ActiveResidues>
 VAL166  LYS551  ARG553  GLY616  TRP617  ASP618  TYR619  PRO620  LYS621  CYS622 
 ASP623  PHE694  ASN695  SER759  ASP760  ASP761  ALA762  ILE779  LEU786  VAL792 
 PHE793  MET794  SER795  GLU796  ALA797  LYS798  CYS799  TRP800  GLU811  SER814 

> <Gold.Protein.RotatedAtoms>
  152.0002  134.9932  160.0564 H   0  0  0  0  0  0  0  0  0  0  0  0  # atno 6907 bound_to 6896
  152.1526  133.4527  159.4829 H   0  0  0  0  0  0  0  0  0  0  0  0  # atno 6908 bound_to 6896
  150.6877  134.2088  159.4394 H   0  0  0  0  0  0  0  0  0  0  0  0  # atno 6909 bound_to 6896
  145.1285  139.3342  143.4677 H   0  0  0  0  0  0  0  0  0  0  0  0  # atno 7974 bound_to 7965
  156.1896  140.1702  156.8117 H   0  0  0  0  0  0  0  0  0  0  0  0  # atno 8008 bound_to 7997
  154.5455  140.0728  156.8614 H   0  0  0  0  0  0  0  0  0  0  0  0  # atno 8009 bound_to 7997
  155.3130  140.3368  155.4245 H   0  0  0  0  0  0  0  0  0  0  0  0  # atno 8010 bound_to 7997
  140.7276  143.4718  151.0236 H   0  0  0  0  0  0  0  0  0  0  0  0  # atno 10167 bound_to 10162
  156.3413  130.7638  151.1775 H   0  0  0  0  0  0  0  0  0  0  0  0  # atno 10718 bound_to 10713
  153.0255  135.5233  154.7194 H   0  0  0  0  0  0  0  0  0  0  0  0  # atno 10763 bound_to 10752
  154.6254  135.2894  155.0280 H   0  0  0  0  0  0  0  0  0  0  0  0  # atno 10764 bound_to 10752
  154.1252  135.6601  153.4963 H   0  0  0  0  0  0  0  0  0  0  0  0  # atno 10765 bound_to 10752
  140.9609  134.0937  157.3969 H   0  0  0  0  0  0  0  0  0  0  0  0  # atno 11005 bound_to 11000
  146.3516  140.1274  142.8598 LP  0  0  0  0  0  0  0  0  0  0  0  0  # atno 17320 bound_to 7965
  145.0661  140.9122  143.4910 LP  0  0  0  0  0  0  0  0  0  0  0  0  # atno 17321 bound_to 7965
  139.8411  143.7563  152.3180 LP  0  0  0  0  0  0  0  0  0  0  0  0  # atno 17342 bound_to 10162
  139.7712  144.7476  151.0222 LP  0  0  0  0  0  0  0  0  0  0  0  0  # atno 17343 bound_to 10162
  157.7447  131.0454  150.4840 LP  0  0  0  0  0  0  0  0  0  0  0  0  # atno 17370 bound_to 10713
  156.5021  130.4119  149.6347 LP  0  0  0  0  0  0  0  0  0  0  0  0  # atno 17371 bound_to 10713
  139.8878  135.0092  156.6581 LP  0  0  0  0  0  0  0  0  0  0  0  0  # atno 17394 bound_to 11000
  140.7469  133.8930  155.8318 LP  0  0  0  0  0  0  0  0  0  0  0  0  # atno 17395 bound_to 11000

$$$$
