AV-unprocessed.smi:280|AV-procd|sdf|2099|dock9
  -GOLD-   2262021383D 1   1.00000     0.00000
 Structure written by MMmdl.
 59 62  0  0  0  0  0  0  0  0  2 V2000
  145.9540  140.1564  156.7609 C   0  0  0  0  0  0  0  0  0  0  0  0
  145.3574  140.2367  155.3381 C   0  0  2  0  0  0  0  0  0  0  0  0
  146.4053  139.8987  154.2560 C   0  0  0  0  0  0  0  0  0  0  0  0
  147.3585  140.9958  154.0856 N   0  0  0  0  0  0  0  0  0  0  0  0
  148.5757  140.8976  154.6874 C   0  0  0  0  0  0  0  0  0  0  0  0
  148.9505  141.9199  155.5007 N   0  0  0  0  0  0  0  0  0  0  0  0
  150.1277  141.8967  156.1300 C   0  0  0  0  0  0  0  0  0  0  0  0
  151.0744  140.9600  156.0891 N   0  0  0  0  0  0  0  0  0  0  0  0
  150.7131  139.9278  155.2754 C   0  0  0  0  0  0  0  0  0  0  0  0
  149.4960  139.8142  154.5411 C   0  0  0  0  0  0  0  0  0  0  0  0
  149.5091  138.6284  153.8134 N   0  0  0  0  0  0  0  0  0  0  0  0
  150.6496  138.0707  154.1122 C   0  0  0  0  0  0  0  0  0  0  0  0
  151.4315  138.7781  154.9946 N   0  0  0  0  0  0  0  0  0  0  0  0
  152.7411  138.3976  155.5012 C   0  0  0  0  0  0  0  0  0  0  0  0
  152.7761  138.0362  157.0023 C   0  0  0  0  0  0  0  0  0  0  0  0
  151.6719  137.0175  157.3418 C   0  0  0  0  0  0  0  0  0  0  0  0
  151.5996  136.7515  158.7288 O   0  0  0  0  0  0  0  0  0  0  0  0
  154.1616  137.7642  157.6094 C   0  0  0  0  0  0  0  0  0  0  0  0
  154.2334  139.0828  158.1903 O   0  0  0  0  0  0  0  0  0  0  0  0
  152.8278  139.2664  157.9213 C   0  0  0  0  0  0  0  0  0  0  0  0
  146.7516  142.2924  153.8039 C   0  0  0  0  0  0  0  0  0  0  0  0
  145.7004  142.6550  154.8695 C   0  0  0  0  0  0  0  0  0  0  0  0
  144.7157  141.5517  155.0389 N   0  3  2  0  0  0  0  0  0  0  0  0
  143.5685  141.8914  155.9249 C   0  0  0  0  0  0  0  0  0  0  0  0
  142.3488  140.9574  155.7308 C   0  0  0  0  0  0  0  0  0  0  0  0
  142.5863  139.5552  156.3213 C   0  0  0  0  0  0  0  0  0  0  0  0
  141.0966  141.5920  156.3591 C   0  0  0  0  0  0  0  0  0  0  0  0
  142.0713  140.8175  154.3523 O   0  0  0  0  0  0  0  0  0  0  0  0
  146.4018  139.1775  156.9336 H   0  0  0  0  0  0  0  0  0  0  0  0
  145.1972  140.3004  157.5313 H   0  0  0  0  0  0  0  0  0  0  0  0
  146.7342  140.8993  156.9248 H   0  0  0  0  0  0  0  0  0  0  0  0
  144.5779  139.4765  155.2719 H   0  0  0  0  0  0  0  0  0  0  0  0
  146.8898  138.9506  154.4895 H   0  0  0  0  0  0  0  0  0  0  0  0
  145.9026  139.7473  153.3001 H   0  0  0  0  0  0  0  0  0  0  0  0
  150.3405  142.7501  156.7572 H   0  0  0  0  0  0  0  0  0  0  0  0
  150.9518  137.1232  153.6914 H   0  0  0  0  0  0  0  0  0  0  0  0
  153.0910  137.5553  154.9025 H   0  0  0  0  0  0  0  0  0  0  0  0
  153.4379  139.2104  155.2924 H   0  0  0  0  0  0  0  0  0  0  0  0
  150.6937  137.3900  157.0369 H   0  0  0  0  0  0  0  0  0  0  0  0
  151.8216  136.0796  156.8065 H   0  0  0  0  0  0  0  0  0  0  0  0
  152.0409  137.4478  159.1912 H   0  0  0  0  0  0  0  0  0  0  0  0
  154.1651  136.9868  158.3752 H   0  0  0  0  0  0  0  0  0  0  0  0
  154.9499  137.5895  156.8784 H   0  0  0  0  0  0  0  0  0  0  0  0
  152.6190  140.2098  157.4150 H   0  0  0  0  0  0  0  0  0  0  0  0
  152.2297  139.1770  158.8296 H   0  0  0  0  0  0  0  0  0  0  0  0
  147.4999  143.0767  153.6974 H   0  0  0  0  0  0  0  0  0  0  0  0
  146.2642  142.2226  152.8307 H   0  0  0  0  0  0  0  0  0  0  0  0
  146.1774  142.8679  155.8257 H   0  0  0  0  0  0  0  0  0  0  0  0
  145.1979  143.5728  154.5691 H   0  0  0  0  0  0  0  0  0  0  0  0
  143.8789  141.7995  156.9665 H   0  0  0  0  0  0  0  0  0  0  0  0
  143.2894  142.9381  155.7916 H   0  0  0  0  0  0  0  0  0  0  0  0
  142.8145  139.6107  157.3862 H   0  0  0  0  0  0  0  0  0  0  0  0
  143.4152  139.0427  155.8322 H   0  0  0  0  0  0  0  0  0  0  0  0
  141.7046  138.9234  156.2081 H   0  0  0  0  0  0  0  0  0  0  0  0
  141.2206  141.7286  157.4340 H   0  0  0  0  0  0  0  0  0  0  0  0
  140.2139  140.9689  156.2084 H   0  0  0  0  0  0  0  0  0  0  0  0
  140.8852  142.5706  155.9260 H   0  0  0  0  0  0  0  0  0  0  0  0
  142.8905  140.7778  153.8816 H   0  0  0  0  0  0  0  0  0  0  0  0
  144.3029  141.4264  154.1257 H   0  0  0  0  0  0  0  0  0  0  0  0
  1  2  1  0  0  0  0
  1 29  1  0  0  0  0
  1 30  1  0  0  0  0
  1 31  1  0  0  0  0
  2 23  1  0  0  0  0
  2  3  1  0  0  0  0
  2 32  1  0  0  0  0
  3  4  1  0  0  0  0
  3 33  1  0  0  0  0
  3 34  1  0  0  0  0
  4  5  1  0  0  0  0
  4 21  1  0  0  0  0
  5 10  1  0  0  0  0
  5  6  2  0  0  0  0
  6  7  1  0  0  0  0
  7  8  2  0  0  0  0
  7 35  1  0  0  0  0
  8  9  1  0  0  0  0
  9 13  1  0  0  0  0
  9 10  2  0  0  0  0
 10 11  1  0  0  0  0
 11 12  2  0  0  0  0
 12 13  1  0  0  0  0
 12 36  1  0  0  0  0
 13 14  1  0  0  0  0
 14 15  1  0  0  0  0
 14 37  1  0  0  0  0
 14 38  1  0  0  0  0
 15 20  1  0  0  0  0
 15 16  1  0  0  0  0
 15 18  1  0  0  0  0
 16 17  1  0  0  0  0
 16 39  1  0  0  0  0
 16 40  1  0  0  0  0
 17 41  1  0  0  0  0
 18 19  1  0  0  0  0
 18 42  1  0  0  0  0
 18 43  1  0  0  0  0
 19 20  1  0  0  0  0
 20 44  1  0  0  0  0
 20 45  1  0  0  0  0
 21 22  1  0  0  0  0
 21 46  1  0  0  0  0
 21 47  1  0  0  0  0
 22 23  1  0  0  0  0
 22 48  1  0  0  0  0
 22 49  1  0  0  0  0
 23 24  1  0  0  0  0
 23 59  1  0  0  0  0
 24 25  1  0  0  0  0
 24 50  1  0  0  0  0
 24 51  1  0  0  0  0
 25 26  1  0  0  0  0
 25 27  1  0  0  0  0
 25 28  1  0  0  0  0
 26 52  1  0  0  0  0
 26 53  1  0  0  0  0
 26 54  1  0  0  0  0
 27 55  1  0  0  0  0
 27 56  1  0  0  0  0
 27 57  1  0  0  0  0
 28 58  1  0  0  0  0
M  CHG  1  23   1
M  END
> <s_m_source_file>
AV-unprocessed.smi

> <i_m_source_file_index>
280

> <i_lp_mmshare_version>
43012

> <i_f3d_flags>
0

> <s_epik_input>
W0NIM11DKFtDSDNdKShbT0hdKVtDSDJdTjFbQ0gyXVtDSDJdTihbQ0gyXVtDQEhdMVtDSDNdKWMobltjSF1uMiljKGMyMyluW2NIXW4zW0NIMl1DNChbQ0gyXVtPSF0pW0NIMl1PW0NIMl00

> <s_epik_cmdline>
J2VwaWtfcHl0aG9uJywgJy1waCcsICc3LjAnLCAnLXRuJywgJzgnLCAnLW1hJywgJzIwMCcsICctbWV0YWxfYmluZGluZycsICctaW1hZScsICc8aW5maWxlLm1hZT4nLCAnLW9tYWUnLCAnPG91dGZpbGUubWFlPic=

> <r_lp_tautomer_probability>
1

> <r_epik_Ionization_Penalty>
0.00179402

> <r_epik_Ionization_Penalty_Charging>
0.00173996

> <r_epik_Ionization_Penalty_Neutral>
5.40607e-05

> <r_epik_State_Penalty>
-0

> <r_epik_Charging_Adjusted_Penalty>
0.00173996

> <i_epik_Tot_Q>
1

> <i_epik_Tot_abs_Q>
1

> <r_epik_Metal_State_Penalty>
-0

> <b_epik_Metal_Only>
0

> <s_lp_Force_Field>
OPLS_2005

> <r_lp_Energy>
53.0384

> <b_lp_Chiralities_Consistent>
1

> <s_lp_Variant>
AV-unprocessed.smi:280-3

> <Gold.Version>
5.8.1

> <Gold.Id.Protein>
6NUR|6NUR_protein|mol2

> <Gold.PLP.Fitness>
50.9138

> <Gold.PLP.PLP>
-34.1295

> <Gold.PLP.part.hbond>
-4.3926

> <Gold.PLP.part.metal>
0.0000

> <Gold.PLP.part.buried>
-1.7269

> <Gold.PLP.part.nonpolar>
-29.2521

> <Gold.PLP.part.repulsive>
3.4234

> <Gold.PLP.ligand.clash>
0.0000

> <Gold.PLP.ligand.torsion>
1.1893

> <Gold.PLP.Chemscore.Hbond>
4.7120

> <Gold.PLP.Chemscore.CHOScore>
1.3504

> <Gold.PLP.Chemscore.Metal>
0.0000

> <Gold.Chemscore.Hbonds>
donor molecule, donor type, donor heavy atom, donor atom, acceptor molecule, acceptor atom, score
      L1  H    23    59       P1 10175  2.00
      L1  H    28    58       P1 10175  0.93
      P1  H  6896  6907       L1    17  0.78
      P1  H  7997  8008       L1    19  0.99
      L1  C     7    35       P1  8028  0.30
      L1  C    12    36       P1  7948  0.06
      L1  C    12    36       P1  7949  1.00

> <Gold.PLP.Chemscore.Internal.Correction>
0.9758

> <Gold.Rescore>
     Score         DG    S(hbond)    S(metal)    S(lipo)     H(rot)  DE(clash)    DE(int)     intcor
     11.78     -13.66       3.34        0.00      46.65       3.30       0.28       1.60       ----

> <Gold.Chemscore.Fitness>
11.7769

> <Gold.Chemscore.DG>
-13.6565

> <Gold.Chemscore.ZeroCoef>
-5.4800

> <Gold.Chemscore.Hbond>
3.3426

> <Gold.Chemscore.Metal>
0.0000

> <Gold.Chemscore.Lipo>
46.6483

> <Gold.Chemscore.Internal_Hbond>
0.0000

> <Gold.Chemscore.DEClash>
0.2758

> <Gold.Chemscore.DEInternal>
1.6037

> <Gold.Chemscore.Rot>
3.2991

> <Gold.Chemscore.Internal.Correction>
   9.000000E+99

> <Gold.Chemscore.Hbonds>
donor molecule, donor type, donor heavy atom, donor atom, acceptor molecule, acceptor atom, score
      L1  H    23    59       P1 10175  0.34
      L1  H    28    58       P1 10175  0.48
      P1  H  6896  6907       L1    17  0.64
      P1  H  7997  8008       L1    19  0.52

> <Gold.Chemscore.Hbond.Weighted>
-11.1642

> <Gold.Chemscore.Metal.Weighted>
-0.0000

> <Gold.Chemscore.Lipo.Weighted>
-5.4579

> <Gold.Chemscore.Internal_Hbond.Weighted>
0.0000

> <Gold.Chemscore.DEClash.Weighted>
0.2758

> <Gold.Chemscore.DEInternal.Weighted>
1.6037

> <Gold.Chemscore.Rot.Weighted>
8.4456

> <Gold.Chemscore.Internal.Correction.Weighted>
   9.000000E+99

> <Gold.Protein.RotatedTorsions>
[ 6907 6896 6895 6894 ] final  -21.38 input  -60.11 | X-H torsion
[ 7974 7965 7964 7962 ] final  -63.96 input  175.53 | X-H torsion
[ 8008 7997 7996 7995 ] final -119.88 input   59.86 | X-H torsion
[ 10167 10162 10161 10158 ] final -101.53 input  -65.29 | X-H torsion
[ 10718 10713 10712 10709 ] final   32.61 input   66.30 | X-H torsion
[ 10763 10752 10751 10750 ] final -126.73 input  -60.55 | X-H torsion
[ 11005 11000 10999 10996 ] final   14.08 input  -57.11 | X-H torsion

> <Gold.Protein.ActiveResidues>
 VAL166  LYS551  ARG553  GLY616  TRP617  ASP618  TYR619  PRO620  LYS621  CYS622 
 ASP623  PHE694  ASN695  SER759  ASP760  ASP761  ALA762  ILE779  LEU786  VAL792 
 PHE793  MET794  SER795  GLU796  ALA797  LYS798  CYS799  TRP800  GLU811  SER814 

> <Gold.Protein.RotatedAtoms>
  151.2342  135.0565  159.8999 H   0  0  0  0  0  0  0  0  0  0  0  0  # atno 6907 bound_to 6896
  152.5401  134.0504  159.8117 H   0  0  0  0  0  0  0  0  0  0  0  0  # atno 6908 bound_to 6896
  151.0688  133.5435  159.2660 H   0  0  0  0  0  0  0  0  0  0  0  0  # atno 6909 bound_to 6896
  145.7726  140.8805  143.0372 H   0  0  0  0  0  0  0  0  0  0  0  0  # atno 7974 bound_to 7965
  155.1228  140.0399  157.2754 H   0  0  0  0  0  0  0  0  0  0  0  0  # atno 8008 bound_to 7997
  154.6601  140.2589  155.7093 H   0  0  0  0  0  0  0  0  0  0  0  0  # atno 8009 bound_to 7997
  156.2615  140.2819  156.1069 H   0  0  0  0  0  0  0  0  0  0  0  0  # atno 8010 bound_to 7997
  140.2403  143.3543  152.0807 H   0  0  0  0  0  0  0  0  0  0  0  0  # atno 10167 bound_to 10162
  157.2873  130.7285  149.6591 H   0  0  0  0  0  0  0  0  0  0  0  0  # atno 10718 bound_to 10713
  154.8748  135.3986  154.3478 H   0  0  0  0  0  0  0  0  0  0  0  0  # atno 10763 bound_to 10752
  153.4268  135.7024  153.6262 H   0  0  0  0  0  0  0  0  0  0  0  0  # atno 10764 bound_to 10752
  153.4901  135.3750  155.2457 H   0  0  0  0  0  0  0  0  0  0  0  0  # atno 10765 bound_to 10752
  140.4735  134.1007  155.7737 H   0  0  0  0  0  0  0  0  0  0  0  0  # atno 11005 bound_to 11000
  144.6810  139.9876  143.7484 LP  0  0  0  0  0  0  0  0  0  0  0  0  # atno 17320 bound_to 7965
  146.0155  139.3206  143.0844 LP  0  0  0  0  0  0  0  0  0  0  0  0  # atno 17321 bound_to 7965
  139.5079  144.6841  151.5933 LP  0  0  0  0  0  0  0  0  0  0  0  0  # atno 17342 bound_to 10162
  140.6118  143.9421  150.6459 LP  0  0  0  0  0  0  0  0  0  0  0  0  # atno 17343 bound_to 10162
  155.9666  130.4319  150.4942 LP  0  0  0  0  0  0  0  0  0  0  0  0  # atno 17370 bound_to 10713
  157.2898  131.0624  151.2142 LP  0  0  0  0  0  0  0  0  0  0  0  0  # atno 17371 bound_to 10713
  141.1566  133.8872  157.1962 LP  0  0  0  0  0  0  0  0  0  0  0  0  # atno 17394 bound_to 11000
  139.9870  135.0078  156.9887 LP  0  0  0  0  0  0  0  0  0  0  0  0  # atno 17395 bound_to 11000

$$$$
