AV-unprocessed.smi:2881|AV-procd|sdf|11069|dock6
  -GOLD-   2272015543D 1   1.00000     0.00000
 Structure written by MMmdl.
 40 42  0  0  0  0  0  0  0  0  1 V2000
  155.2231  136.1696  161.9122 C   0  0  0  0  0  0  0  0  0  0  0  0
  154.4954  137.1012  160.9883 C   0  0  0  0  0  0  0  0  0  0  0  0
  153.0908  137.2002  160.7645 C   0  0  0  0  0  0  0  0  0  0  0  0
  152.9645  138.2027  159.8437 C   0  0  0  0  0  0  0  0  0  0  0  0
  151.7570  138.7989  159.1916 C   0  0  0  0  0  0  0  0  0  0  0  0
  152.1138  140.0184  158.3359 C   0  0  0  0  0  0  0  0  0  0  0  0
  152.7845  139.8893  157.3112 O   0  0  0  0  0  0  0  0  0  0  0  0
  151.6660  141.2047  158.7746 N   0  0  0  0  0  0  0  0  0  0  0  0
  151.9033  142.4871  158.1104 C   0  0  2  0  0  0  0  0  0  0  0  0
  152.9166  143.3928  158.8583 C   0  0  2  0  0  0  0  0  0  0  0  0
  152.5539  143.5246  160.3528 C   0  0  0  0  0  0  0  0  0  0  0  0
  151.2785  144.3852  160.3130 C   0  0  0  0  0  0  0  0  0  0  0  0
  151.0919  144.6589  158.8057 C   0  0  1  0  0  0  0  0  0  0  0  0
  152.5404  144.7798  158.3470 C   0  0  0  0  0  0  0  0  0  0  0  0
  150.6430  143.3942  158.0325 C   0  0  2  0  0  0  0  0  0  0  0  0
  149.2966  142.7730  158.4676 C   0  0  0  0  0  0  0  0  0  0  0  0
  148.3663  143.7895  158.7751 O   0  0  0  0  0  0  0  0  0  0  0  0
  154.2433  138.6313  159.5671 N   0  0  0  0  0  0  0  0  0  0  0  0
  155.1858  137.9671  160.2614 N   0  0  0  0  0  0  0  0  0  0  0  0
  154.4843  139.3673  158.9185 H   0  0  0  0  0  0  0  0  0  0  0  0
  154.5361  135.4672  162.3846 H   0  0  0  0  0  0  0  0  0  0  0  0
  155.7311  136.7204  162.7042 H   0  0  0  0  0  0  0  0  0  0  0  0
  155.9731  135.5885  161.3751 H   0  0  0  0  0  0  0  0  0  0  0  0
  152.2961  136.6253  161.2164 H   0  0  0  0  0  0  0  0  0  0  0  0
  151.0409  139.1093  159.9528 H   0  0  0  0  0  0  0  0  0  0  0  0
  151.2566  138.0459  158.5810 H   0  0  0  0  0  0  0  0  0  0  0  0
  151.1305  141.2251  159.6301 H   0  0  0  0  0  0  0  0  0  0  0  0
  152.2592  142.2959  157.0958 H   0  0  0  0  0  0  0  0  0  0  0  0
  153.9571  143.1130  158.6896 H   0  0  0  0  0  0  0  0  0  0  0  0
  152.4021  142.5691  160.8544 H   0  0  0  0  0  0  0  0  0  0  0  0
  153.3454  144.0476  160.8912 H   0  0  0  0  0  0  0  0  0  0  0  0
  150.4231  143.8929  160.7727 H   0  0  0  0  0  0  0  0  0  0  0  0
  151.4398  145.3195  160.8522 H   0  0  0  0  0  0  0  0  0  0  0  0
  150.4790  145.5362  158.5964 H   0  0  0  0  0  0  0  0  0  0  0  0
  153.0859  145.5872  158.8391 H   0  0  0  0  0  0  0  0  0  0  0  0
  152.6479  144.8865  157.2660 H   0  0  0  0  0  0  0  0  0  0  0  0
  150.5237  143.6831  156.9863 H   0  0  0  0  0  0  0  0  0  0  0  0
  148.8840  142.1713  157.6574 H   0  0  0  0  0  0  0  0  0  0  0  0
  149.4036  142.1129  159.3276 H   0  0  0  0  0  0  0  0  0  0  0  0
  148.4890  144.5035  158.1684 H   0  0  0  0  0  0  0  0  0  0  0  0
  1 21  1  0  0  0  0
  1 22  1  0  0  0  0
  1 23  1  0  0  0  0
  1  2  1  0  0  0  0
  2 19  2  0  0  0  0
  2  3  1  0  0  0  0
  3  4  2  0  0  0  0
  3 24  1  0  0  0  0
  4 18  1  0  0  0  0
  4  5  1  0  0  0  0
  5  6  1  0  0  0  0
  5 25  1  0  0  0  0
  5 26  1  0  0  0  0
  6  7  2  0  0  0  0
  6  8  1  0  0  0  0
  8  9  1  0  0  0  0
  8 27  1  0  0  0  0
  9 15  1  0  0  0  0
  9 10  1  0  0  0  0
  9 28  1  0  0  0  0
 10 14  1  0  0  0  0
 10 11  1  0  0  0  0
 10 29  1  0  0  0  0
 11 12  1  0  0  0  0
 11 30  1  0  0  0  0
 11 31  1  0  0  0  0
 12 13  1  0  0  0  0
 12 32  1  0  0  0  0
 12 33  1  0  0  0  0
 13 14  1  0  0  0  0
 13 15  1  0  0  0  0
 13 34  1  0  0  0  0
 14 35  1  0  0  0  0
 14 36  1  0  0  0  0
 15 16  1  0  0  0  0
 15 37  1  0  0  0  0
 16 17  1  0  0  0  0
 16 38  1  0  0  0  0
 16 39  1  0  0  0  0
 17 40  1  0  0  0  0
 18 19  1  0  0  0  0
 18 20  1  0  0  0  0
M  END
> <s_m_source_file>
AV-unprocessed.smi

> <i_m_source_file_index>
2881

> <i_lp_mmshare_version>
43012

> <i_f3d_flags>
0

> <s_epik_input>
W0NIM11jMVtjSF1jKG5bbkhdMSlbQ0gyXUMoPU8pW05IXVtDQEhdKFtDQEBIXTIzKVtDQEhdKFtDSDJdW09IXSlbQ0BASF0oW0NIMl0zKVtDSDJdW0NIMl0y

> <s_epik_cmdline>
J2VwaWtfcHl0aG9uJywgJy1waCcsICc3LjAnLCAnLXRuJywgJzgnLCAnLW1hJywgJzIwMCcsICctbWV0YWxfYmluZGluZycsICctaW1hZScsICc8aW5maWxlLm1hZT4nLCAnLW9tYWUnLCAnPG91dGZpbGUubWFlPic=

> <r_lp_tautomer_probability>
0.5

> <r_epik_Ionization_Penalty>
0.00013396

> <r_epik_Ionization_Penalty_Charging>
0

> <r_epik_Ionization_Penalty_Neutral>
0.00013396

> <r_epik_State_Penalty>
0.41068

> <r_epik_Charging_Adjusted_Penalty>
0.41068

> <i_epik_Tot_Q>
0

> <i_epik_Tot_abs_Q>
0

> <r_epik_Metal_State_Penalty>
0.41066

> <b_epik_Metal_Only>
0

> <s_lp_Force_Field>
OPLS_2005

> <r_lp_Energy>
50.1234

> <b_lp_Chiralities_Consistent>
1

> <s_lp_Variant>
AV-unprocessed.smi:2881-15

> <Gold.Version>
5.8.1

> <Gold.Id.Protein>
6NUR|6NUR_protein|mol2

> <Gold.PLP.Fitness>
40.6595

> <Gold.PLP.PLP>
-35.5865

> <Gold.PLP.part.hbond>
-2.2551

> <Gold.PLP.part.metal>
0.0000

> <Gold.PLP.part.buried>
-3.7201

> <Gold.PLP.part.nonpolar>
-29.3948

> <Gold.PLP.part.repulsive>
0.1941

> <Gold.PLP.ligand.clash>
0.0000

> <Gold.PLP.ligand.torsion>
0.4697

> <Gold.PLP.Chemscore.Hbond>
2.0000

> <Gold.PLP.Chemscore.CHOScore>
0.0000

> <Gold.PLP.Chemscore.Metal>
0.0000

> <Gold.Chemscore.Hbonds>
donor molecule, donor type, donor heavy atom, donor atom, acceptor molecule, acceptor atom, score
      L1  H    17    40       P1  8029  1.00
      P1  H  7997  8010       L1     7  1.00

> <Gold.PLP.Chemscore.Internal.Correction>
0.0123

> <Gold.Rescore>
     Score         DG    S(hbond)    S(metal)    S(lipo)     H(rot)  DE(clash)    DE(int)     intcor
     18.52     -19.20       1.91        0.00     112.59       2.28       0.00       0.68       ----

> <Gold.Chemscore.Fitness>
18.5212

> <Gold.Chemscore.DG>
-19.1965

> <Gold.Chemscore.ZeroCoef>
-5.4800

> <Gold.Chemscore.Hbond>
1.9068

> <Gold.Chemscore.Metal>
0.0000

> <Gold.Chemscore.Lipo>
112.5897

> <Gold.Chemscore.Internal_Hbond>
0.0000

> <Gold.Chemscore.DEClash>
0.0000

> <Gold.Chemscore.DEInternal>
0.6753

> <Gold.Chemscore.Rot>
2.2755

> <Gold.Chemscore.Internal.Correction>
   9.000000E+99

> <Gold.Chemscore.Hbonds>
donor molecule, donor type, donor heavy atom, donor atom, acceptor molecule, acceptor atom, score
      L1  H    17    40       P1  8029  0.38
      P1  H  7997  8010       L1     7  1.00

> <Gold.Chemscore.Hbond.Weighted>
-6.3687

> <Gold.Chemscore.Metal.Weighted>
-0.0000

> <Gold.Chemscore.Lipo.Weighted>
-13.1730

> <Gold.Chemscore.Internal_Hbond.Weighted>
0.0000

> <Gold.Chemscore.DEClash.Weighted>
0.0000

> <Gold.Chemscore.DEInternal.Weighted>
0.6753

> <Gold.Chemscore.Rot.Weighted>
5.8252

> <Gold.Chemscore.Internal.Correction.Weighted>
   9.000000E+99

> <Gold.Protein.RotatedTorsions>
[ 6907 6896 6895 6894 ] final   12.57 input  -60.11 | X-H torsion
[ 7974 7965 7964 7962 ] final -121.38 input  175.53 | X-H torsion
[ 8008 7997 7996 7995 ] final   58.57 input   59.86 | X-H torsion
[ 10167 10162 10161 10158 ] final   -2.79 input  -65.29 | X-H torsion
[ 10718 10713 10712 10709 ] final -120.48 input   66.30 | X-H torsion
[ 10763 10752 10751 10750 ] final  -71.92 input  -60.55 | X-H torsion
[ 11005 11000 10999 10996 ] final   59.40 input  -57.11 | X-H torsion

> <Gold.Protein.ActiveResidues>
 VAL166  LYS551  ARG553  GLY616  TRP617  ASP618  TYR619  PRO620  LYS621  CYS622 
 ASP623  PHE694  ASN695  SER759  ASP760  ASP761  ALA762  ILE779  LEU786  VAL792 
 PHE793  MET794  SER795  GLU796  ALA797  LYS798  CYS799  TRP800  GLU811  SER814 

> <Gold.Protein.RotatedAtoms>
  151.7724  135.0783  160.0361 H   0  0  0  0  0  0  0  0  0  0  0  0  # atno 6907 bound_to 6896
  152.3279  133.5921  159.5798 H   0  0  0  0  0  0  0  0  0  0  0  0  # atno 6908 bound_to 6896
  150.7406  133.9828  159.3623 H   0  0  0  0  0  0  0  0  0  0  0  0  # atno 6909 bound_to 6896
  145.0410  140.8144  143.4266 H   0  0  0  0  0  0  0  0  0  0  0  0  # atno 7974 bound_to 7965
  155.5521  140.3486  155.4471 H   0  0  0  0  0  0  0  0  0  0  0  0  # atno 8008 bound_to 7997
  156.0575  140.1332  157.0005 H   0  0  0  0  0  0  0  0  0  0  0  0  # atno 8009 bound_to 7997
  154.4463  140.0992  156.6453 H   0  0  0  0  0  0  0  0  0  0  0  0  # atno 8010 bound_to 7997
  140.6865  143.6616  150.8262 H   0  0  0  0  0  0  0  0  0  0  0  0  # atno 10167 bound_to 10162
  156.1262  130.6360  150.9546 H   0  0  0  0  0  0  0  0  0  0  0  0  # atno 10718 bound_to 10713
  154.4385  135.5946  153.6114 H   0  0  0  0  0  0  0  0  0  0  0  0  # atno 10763 bound_to 10752
  152.9804  135.5992  154.3751 H   0  0  0  0  0  0  0  0  0  0  0  0  # atno 10764 bound_to 10752
  154.3598  135.2841  155.2305 H   0  0  0  0  0  0  0  0  0  0  0  0  # atno 10765 bound_to 10752
  140.0306  134.6017  155.9512 H   0  0  0  0  0  0  0  0  0  0  0  0  # atno 11005 bound_to 11000
  145.1648  139.2438  143.5373 LP  0  0  0  0  0  0  0  0  0  0  0  0  # atno 17320 bound_to 7965
  146.3509  140.1384  142.8595 LP  0  0  0  0  0  0  0  0  0  0  0  0  # atno 17321 bound_to 7965
  140.0323  143.5431  152.2754 LP  0  0  0  0  0  0  0  0  0  0  0  0  # atno 17342 bound_to 10162
  139.6228  144.7632  151.2704 LP  0  0  0  0  0  0  0  0  0  0  0  0  # atno 17343 bound_to 10162
  157.6443  131.0906  150.8186 LP  0  0  0  0  0  0  0  0  0  0  0  0  # atno 17370 bound_to 10713
  156.8276  130.5005  149.5335 LP  0  0  0  0  0  0  0  0  0  0  0  0  # atno 17371 bound_to 10713
  141.1829  133.6550  156.5094 LP  0  0  0  0  0  0  0  0  0  0  0  0  # atno 17394 bound_to 11000
  140.4232  134.7169  157.4901 LP  0  0  0  0  0  0  0  0  0  0  0  0  # atno 17395 bound_to 11000

$$$$
