AV-unprocessed.smi:1453|AV-procd|sdf|5912|dock5
  -GOLD-   22720 5593D 1   1.00000     0.00000
 Structure written by MMmdl.
 43 44  0  0  0  0  0  0  0  0  1 V2000
  150.2332  135.0168  155.2979 C   0  0  0  0  0  0  0  0  0  0  0  0
  151.5557  134.4544  155.8438 C   0  0  1  0  0  0  0  0  0  0  0  0
  152.5726  135.5683  156.1275 C   0  0  0  0  0  0  0  0  0  0  0  0
  152.8917  135.8439  157.2843 O   0  0  0  0  0  0  0  0  0  0  0  0
  153.0713  136.2094  155.0584 N   0  0  0  0  0  0  0  0  0  0  0  0
  154.0437  137.2963  155.1155 C   0  0  0  0  0  0  0  0  0  0  0  0
  153.6243  138.4722  155.9866 C   0  0  0  0  0  0  0  0  0  0  0  0
  152.8395  139.5086  155.4453 C   0  0  0  0  0  0  0  0  0  0  0  0
  152.4528  140.5800  156.2729 C   0  0  0  0  0  0  0  0  0  0  0  0
  152.8571  140.5866  157.6291 C   0  0  0  0  0  0  0  0  0  0  0  0
  152.4780  141.6490  158.4788 N   0  0  0  0  0  0  0  0  0  0  0  0
  152.1336  142.9015  157.8103 C   0  0  0  0  0  0  0  0  0  0  0  0
  152.0397  144.0470  158.8327 C   0  0  0  0  0  0  0  0  0  0  0  0
  151.1205  143.7003  159.8630 O   0  0  0  0  0  0  0  0  0  0  0  0
  151.5381  142.5405  160.5753 C   0  0  0  0  0  0  0  0  0  0  0  0
  151.6115  141.3412  159.6153 C   0  0  0  0  0  0  0  0  0  0  0  0
  153.6144  139.5877  158.1467 N   0  0  0  0  0  0  0  0  0  0  0  0
  153.9816  138.5630  157.3491 C   0  0  0  0  0  0  0  0  0  0  0  0
  151.2370  133.4746  157.3858 S   0  0  0  0  0  0  0  0  0  0  0  0
  151.1875  131.7379  156.7726 C   0  0  0  0  0  0  0  0  0  0  0  0
  152.3933  133.6071  158.2852 O   0  0  0  0  0  0  0  0  0  0  0  0
  149.8965  133.8249  157.8795 O   0  0  0  0  0  0  0  0  0  0  0  0
  150.3977  135.6279  154.4097 H   0  0  0  0  0  0  0  0  0  0  0  0
  149.7231  135.6331  156.0393 H   0  0  0  0  0  0  0  0  0  0  0  0
  149.5549  134.2103  155.0193 H   0  0  0  0  0  0  0  0  0  0  0  0
  151.9709  133.7670  155.1059 H   0  0  0  0  0  0  0  0  0  0  0  0
  152.7566  135.9271  154.1415 H   0  0  0  0  0  0  0  0  0  0  0  0
  155.0073  136.9106  155.4535 H   0  0  0  0  0  0  0  0  0  0  0  0
  154.1991  137.6636  154.1010 H   0  0  0  0  0  0  0  0  0  0  0  0
  152.5388  139.4881  154.4080 H   0  0  0  0  0  0  0  0  0  0  0  0
  151.8665  141.3852  155.8562 H   0  0  0  0  0  0  0  0  0  0  0  0
  152.8645  143.1676  157.0483 H   0  0  0  0  0  0  0  0  0  0  0  0
  151.1766  142.7768  157.3020 H   0  0  0  0  0  0  0  0  0  0  0  0
  153.0185  144.2660  159.2623 H   0  0  0  0  0  0  0  0  0  0  0  0
  151.6965  144.9586  158.3433 H   0  0  0  0  0  0  0  0  0  0  0  0
  152.5048  142.7192  161.0491 H   0  0  0  0  0  0  0  0  0  0  0  0
  150.8248  142.3385  161.3744 H   0  0  0  0  0  0  0  0  0  0  0  0
  150.6134  141.0921  159.2526 H   0  0  0  0  0  0  0  0  0  0  0  0
  151.9903  140.4716  160.1536 H   0  0  0  0  0  0  0  0  0  0  0  0
  154.5749  137.7940  157.8212 H   0  0  0  0  0  0  0  0  0  0  0  0
  150.9170  131.0751  157.5942 H   0  0  0  0  0  0  0  0  0  0  0  0
  152.1669  131.4497  156.3919 H   0  0  0  0  0  0  0  0  0  0  0  0
  150.4448  131.6500  155.9802 H   0  0  0  0  0  0  0  0  0  0  0  0
  1  2  1  0  0  0  0
  1 23  1  0  0  0  0
  1 24  1  0  0  0  0
  1 25  1  0  0  0  0
  2  3  1  0  0  0  0
  2 19  1  0  0  0  0
  2 26  1  0  0  0  0
  3  4  2  0  0  0  0
  3  5  1  0  0  0  0
  5  6  1  0  0  0  0
  5 27  1  0  0  0  0
  6  7  1  0  0  0  0
  6 28  1  0  0  0  0
  6 29  1  0  0  0  0
  7 18  1  0  0  0  0
  7  8  2  0  0  0  0
  8  9  1  0  0  0  0
  8 30  1  0  0  0  0
  9 10  2  0  0  0  0
  9 31  1  0  0  0  0
 10 11  1  0  0  0  0
 10 17  1  0  0  0  0
 11 16  1  0  0  0  0
 11 12  1  0  0  0  0
 12 13  1  0  0  0  0
 12 32  1  0  0  0  0
 12 33  1  0  0  0  0
 13 14  1  0  0  0  0
 13 34  1  0  0  0  0
 13 35  1  0  0  0  0
 14 15  1  0  0  0  0
 15 16  1  0  0  0  0
 15 36  1  0  0  0  0
 15 37  1  0  0  0  0
 16 38  1  0  0  0  0
 16 39  1  0  0  0  0
 17 18  2  0  0  0  0
 18 40  1  0  0  0  0
 19 20  1  0  0  0  0
 19 21  2  0  0  0  0
 19 22  2  0  0  0  0
 20 41  1  0  0  0  0
 20 42  1  0  0  0  0
 20 43  1  0  0  0  0
M  END
> <s_m_source_file>
AV-unprocessed.smi

> <i_m_source_file_index>
1453

> <i_lp_mmshare_version>
43012

> <i_f3d_flags>
0

> <s_epik_input>
W0NIM11TKD1PKSg9TylbQ0BIXShbQ0gzXSlDKD1PKVtOSF1bQ0gyXWMxW2NIXVtjSF1jKG5bY0hdMSlOMltDSDJdW0NIMl1PW0NIMl1bQ0gyXTI=

> <s_epik_cmdline>
J2VwaWtfcHl0aG9uJywgJy1waCcsICc3LjAnLCAnLXRuJywgJzgnLCAnLW1hJywgJzIwMCcsICctbWV0YWxfYmluZGluZycsICctaW1hZScsICc8aW5maWxlLm1hZT4nLCAnLW9tYWUnLCAnPG91dGZpbGUubWFlPic=

> <r_lp_tautomer_probability>
1

> <r_epik_Ionization_Penalty>
0.00349781

> <r_epik_Ionization_Penalty_Charging>
0

> <r_epik_Ionization_Penalty_Neutral>
0.00349781

> <r_epik_State_Penalty>
0.00248024

> <r_epik_Charging_Adjusted_Penalty>
0.00248024

> <i_epik_Tot_Q>
0

> <i_epik_Tot_abs_Q>
0

> <r_epik_Metal_State_Penalty>
-0

> <b_epik_Metal_Only>
0

> <s_lp_Force_Field>
OPLS_2005

> <r_lp_Energy>
14.4852

> <b_lp_Chiralities_Consistent>
1

> <s_lp_Variant>
AV-unprocessed.smi:1453-2

> <Gold.Version>
5.8.1

> <Gold.Id.Protein>
6NUR|6NUR_protein|mol2

> <Gold.PLP.Fitness>
47.1965

> <Gold.PLP.PLP>
-38.5252

> <Gold.PLP.part.hbond>
-5.6703

> <Gold.PLP.part.metal>
0.0000

> <Gold.PLP.part.buried>
-1.1038

> <Gold.PLP.part.nonpolar>
-30.3563

> <Gold.PLP.part.repulsive>
0.1455

> <Gold.PLP.ligand.clash>
0.0000

> <Gold.PLP.ligand.torsion>
1.7237

> <Gold.PLP.Chemscore.Hbond>
3.8720

> <Gold.PLP.Chemscore.CHOScore>
0.0000

> <Gold.PLP.Chemscore.Metal>
0.0000

> <Gold.Chemscore.Hbonds>
donor molecule, donor type, donor heavy atom, donor atom, acceptor molecule, acceptor atom, score
      P1  H  6896  6908       L1    21  0.04

> <Gold.PLP.Chemscore.Internal.Correction>
0.5027

> <Gold.Rescore>
     Score         DG    S(hbond)    S(metal)    S(lipo)     H(rot)  DE(clash)    DE(int)     intcor
     14.92     -20.72       3.03        0.00      89.33       2.08       0.63       5.17       ----

> <Gold.Chemscore.Fitness>
14.9225

> <Gold.Chemscore.DG>
-20.7222

> <Gold.Chemscore.ZeroCoef>
-5.4800

> <Gold.Chemscore.Hbond>
3.0259

> <Gold.Chemscore.Metal>
0.0000

> <Gold.Chemscore.Lipo>
89.3278

> <Gold.Chemscore.Internal_Hbond>
0.0000

> <Gold.Chemscore.DEClash>
0.6271

> <Gold.Chemscore.DEInternal>
5.1726

> <Gold.Chemscore.Rot>
2.0764

> <Gold.Chemscore.Internal.Correction>
   9.000000E+99

> <Gold.Chemscore.Hbonds>
donor molecule, donor type, donor heavy atom, donor atom, acceptor molecule, acceptor atom, score
      P1  H  6896  6908       L1    21  0.06

> <Gold.Chemscore.Hbond.Weighted>
-10.1064

> <Gold.Chemscore.Metal.Weighted>
-0.0000

> <Gold.Chemscore.Lipo.Weighted>
-10.4513

> <Gold.Chemscore.Internal_Hbond.Weighted>
0.0000

> <Gold.Chemscore.DEClash.Weighted>
0.6271

> <Gold.Chemscore.DEInternal.Weighted>
5.1726

> <Gold.Chemscore.Rot.Weighted>
5.3155

> <Gold.Chemscore.Internal.Correction.Weighted>
   9.000000E+99

> <Gold.Protein.RotatedTorsions>
[ 6907 6896 6895 6894 ] final   -6.98 input  -60.11 | X-H torsion
[ 7974 7965 7964 7962 ] final  160.40 input  175.53 | X-H torsion
[ 8008 7997 7996 7995 ] final  -77.28 input   59.86 | X-H torsion
[ 10167 10162 10161 10158 ] final  -62.35 input  -65.29 | X-H torsion
[ 10718 10713 10712 10709 ] final -123.50 input   66.30 | X-H torsion
[ 10763 10752 10751 10750 ] final  -36.18 input  -60.55 | X-H torsion
[ 11005 11000 10999 10996 ] final  157.64 input  -57.11 | X-H torsion

> <Gold.Protein.ActiveResidues>
 VAL166  LYS551  ARG553  GLY616  TRP617  ASP618  TYR619  PRO620  LYS621  CYS622 
 ASP623  PHE694  ASN695  SER759  ASP760  ASP761  ALA762  ILE779  LEU786  VAL792 
 PHE793  MET794  SER795  GLU796  ALA797  LYS798  CYS799  TRP800  GLU811  SER814 

> <Gold.Protein.RotatedAtoms>
  151.4569  135.1035  159.9713 H   0  0  0  0  0  0  0  0  0  0  0  0  # atno 6907 bound_to 6896
  152.4867  133.8388  159.7152 H   0  0  0  0  0  0  0  0  0  0  0  0  # atno 6908 bound_to 6896
  150.8983  133.7091  159.2913 H   0  0  0  0  0  0  0  0  0  0  0  0  # atno 6909 bound_to 6896
  144.7739  139.7752  143.6286 H   0  0  0  0  0  0  0  0  0  0  0  0  # atno 7974 bound_to 7965
  154.5582  140.0713  156.8776 H   0  0  0  0  0  0  0  0  0  0  0  0  # atno 8008 bound_to 7997
  155.2862  140.3375  155.4237 H   0  0  0  0  0  0  0  0  0  0  0  0  # atno 8009 bound_to 7997
  156.2020  140.1725  156.7866 H   0  0  0  0  0  0  0  0  0  0  0  0  # atno 8010 bound_to 7997
  140.5944  143.2348  151.6067 H   0  0  0  0  0  0  0  0  0  0  0  0  # atno 10167 bound_to 10162
  156.1507  130.6532  150.9909 H   0  0  0  0  0  0  0  0  0  0  0  0  # atno 10718 bound_to 10713
  153.8756  135.6826  153.4771 H   0  0  0  0  0  0  0  0  0  0  0  0  # atno 10763 bound_to 10752
  153.1263  135.4717  154.9275 H   0  0  0  0  0  0  0  0  0  0  0  0  # atno 10764 bound_to 10752
  154.7693  135.3234  154.8173 H   0  0  0  0  0  0  0  0  0  0  0  0  # atno 10765 bound_to 10752
  140.1789  134.8490  157.2779 H   0  0  0  0  0  0  0  0  0  0  0  0  # atno 11005 bound_to 11000
  146.1904  139.5142  142.9808 LP  0  0  0  0  0  0  0  0  0  0  0  0  # atno 17320 bound_to 7965
  145.6244  141.0316  143.1897 LP  0  0  0  0  0  0  0  0  0  0  0  0  # atno 17321 bound_to 7965
  139.5249  144.3091  152.1008 LP  0  0  0  0  0  0  0  0  0  0  0  0  # atno 17342 bound_to 10162
  140.2261  144.4416  150.6320 LP  0  0  0  0  0  0  0  0  0  0  0  0  # atno 17343 bound_to 10162
  157.6654  131.0872  150.7740 LP  0  0  0  0  0  0  0  0  0  0  0  0  # atno 17370 bound_to 10713
  156.7808  130.4858  149.5401 LP  0  0  0  0  0  0  0  0  0  0  0  0  # atno 17371 bound_to 10713
  140.2291  134.3931  155.7530 LP  0  0  0  0  0  0  0  0  0  0  0  0  # atno 17394 bound_to 11000
  141.2222  133.7205  156.8612 LP  0  0  0  0  0  0  0  0  0  0  0  0  # atno 17395 bound_to 11000

$$$$
