AV-unprocessed.smi:957|AV-procd|sdf|4265|dock9
  -GOLD-   22720 2173D 1   1.00000     0.00000
 Structure written by MMmdl.
 30 31  0  0  0  0  0  0  0  0  2 V2000
  151.9222  145.7275  160.0768 C   0  0  0  0  0  0  0  0  0  0  0  0
  152.2167  144.9963  158.7613 C   0  0  0  0  0  0  0  0  0  0  0  0
  152.4616  143.5802  158.9735 N   0  0  0  0  0  0  0  0  0  0  0  0
  153.4177  143.0144  159.7263 C   0  0  0  0  0  0  0  0  0  0  0  0
  153.4102  141.6829  159.7433 N   0  0  0  0  0  0  0  0  0  0  0  0
  152.3535  141.3324  158.9295 N   0  0  0  0  0  0  0  0  0  0  0  0
  151.8279  142.4859  158.4960 C   0  0  0  0  0  0  0  0  0  0  0  0
  150.6384  142.5510  157.5784 C   0  0  2  0  0  0  0  0  0  0  0  0
  149.3876  141.9108  158.2106 C   0  0  0  0  0  0  0  0  0  0  0  0
  148.1983  141.9807  157.2406 C   0  0  0  0  0  0  0  0  0  0  0  0
  148.5596  141.3543  155.8837 C   0  0  0  0  0  0  0  0  0  0  0  0
  149.7602  142.0019  155.3119 N   0  3  0  0  0  0  0  0  0  0  0  0
  150.9395  141.9223  156.2021 C   0  0  0  0  0  0  0  0  0  0  0  0
  151.7538  146.7898  159.8993 H   0  0  0  0  0  0  0  0  0  0  0  0
  152.7571  145.6356  160.7721 H   0  0  0  0  0  0  0  0  0  0  0  0
  151.0340  145.3288  160.5670 H   0  0  0  0  0  0  0  0  0  0  0  0
  151.3935  145.1154  158.0566 H   0  0  0  0  0  0  0  0  0  0  0  0
  153.0955  145.4326  158.2851 H   0  0  0  0  0  0  0  0  0  0  0  0
  154.1419  143.5936  160.2804 H   0  0  0  0  0  0  0  0  0  0  0  0
  150.4006  143.5989  157.3997 H   0  0  0  0  0  0  0  0  0  0  0  0
  149.5877  140.8685  158.4631 H   0  0  0  0  0  0  0  0  0  0  0  0
  149.1354  142.4144  159.1444 H   0  0  0  0  0  0  0  0  0  0  0  0
  147.3361  141.4696  157.6703 H   0  0  0  0  0  0  0  0  0  0  0  0
  147.9016  143.0207  157.0979 H   0  0  0  0  0  0  0  0  0  0  0  0
  148.7474  140.2856  155.9967 H   0  0  0  0  0  0  0  0  0  0  0  0
  147.7301  141.4606  155.1844 H   0  0  0  0  0  0  0  0  0  0  0  0
  149.9841  141.5586  154.4322 H   0  0  0  0  0  0  0  0  0  0  0  0
  151.7752  142.4355  155.7251 H   0  0  0  0  0  0  0  0  0  0  0  0
  151.2286  140.8760  156.3108 H   0  0  0  0  0  0  0  0  0  0  0  0
  149.5501  142.9750  155.1422 H   0  0  0  0  0  0  0  0  0  0  0  0
  1  2  1  0  0  0  0
  1 14  1  0  0  0  0
  1 15  1  0  0  0  0
  1 16  1  0  0  0  0
  2  3  1  0  0  0  0
  2 17  1  0  0  0  0
  2 18  1  0  0  0  0
  3  7  1  0  0  0  0
  3  4  1  0  0  0  0
  4  5  2  0  0  0  0
  4 19  1  0  0  0  0
  5  6  1  0  0  0  0
  6  7  2  0  0  0  0
  7  8  1  0  0  0  0
  8 13  1  0  0  0  0
  8  9  1  0  0  0  0
  8 20  1  0  0  0  0
  9 10  1  0  0  0  0
  9 21  1  0  0  0  0
  9 22  1  0  0  0  0
 10 11  1  0  0  0  0
 10 23  1  0  0  0  0
 10 24  1  0  0  0  0
 11 12  1  0  0  0  0
 11 25  1  0  0  0  0
 11 26  1  0  0  0  0
 12 13  1  0  0  0  0
 12 27  1  0  0  0  0
 12 30  1  0  0  0  0
 13 28  1  0  0  0  0
 13 29  1  0  0  0  0
M  CHG  1  12   1
M  END
> <s_m_source_file>
AV-unprocessed.smi

> <i_m_source_file_index>
957

> <i_lp_mmshare_version>
43012

> <i_f3d_flags>
0

> <s_epik_input>
W0NIM11bQ0gyXW4xW2NIXW5uYzFbQ0BASF0yW0NIMl1bQ0gyXVtDSDJdW05IXVtDSDJdMg==

> <s_epik_cmdline>
J2VwaWtfcHl0aG9uJywgJy1waCcsICc3LjAnLCAnLXRuJywgJzgnLCAnLW1hJywgJzIwMCcsICctbWV0YWxfYmluZGluZycsICctaW1hZScsICc8aW5maWxlLm1hZT4nLCAnLW9tYWUnLCAnPG91dGZpbGUubWFlPic=

> <r_lp_tautomer_probability>
1

> <r_epik_Ionization_Penalty>
0.000442722

> <r_epik_Ionization_Penalty_Charging>
0.000426856

> <r_epik_Ionization_Penalty_Neutral>
1.58656e-05

> <r_epik_State_Penalty>
-0

> <r_epik_Charging_Adjusted_Penalty>
0.000426856

> <i_epik_Tot_Q>
1

> <i_epik_Tot_abs_Q>
1

> <r_epik_Metal_State_Penalty>
-0

> <b_epik_Metal_Only>
0

> <s_lp_Force_Field>
OPLS_2005

> <r_lp_Energy>
16.0383

> <b_lp_Chiralities_Consistent>
1

> <s_lp_Variant>
AV-unprocessed.smi:957-1

> <Gold.Version>
5.8.1

> <Gold.Id.Protein>
6NUR|6NUR_protein|mol2

> <Gold.PLP.Fitness>
36.7928

> <Gold.PLP.PLP>
-30.7972

> <Gold.PLP.part.hbond>
-1.0000

> <Gold.PLP.part.metal>
0.0000

> <Gold.PLP.part.buried>
-4.3962

> <Gold.PLP.part.nonpolar>
-24.1942

> <Gold.PLP.part.repulsive>
0.1931

> <Gold.PLP.ligand.clash>
0.0000

> <Gold.PLP.ligand.torsion>
0.0155

> <Gold.PLP.Chemscore.Hbond>
2.0000

> <Gold.PLP.Chemscore.CHOScore>
0.0000

> <Gold.PLP.Chemscore.Metal>
0.0000

> <Gold.Chemscore.Hbonds>
donor molecule, donor type, donor heavy atom, donor atom, acceptor molecule, acceptor atom, score
      L1  H    12    30       P1  8028  2.00

> <Gold.PLP.Chemscore.Internal.Correction>
0.0267

> <Gold.Rescore>
     Score         DG    S(hbond)    S(metal)    S(lipo)     H(rot)  DE(clash)    DE(int)     intcor
     11.49     -11.55       0.99        0.00      51.03       1.26       0.02       0.04       ----

> <Gold.Chemscore.Fitness>
11.4939

> <Gold.Chemscore.DG>
-11.5508

> <Gold.Chemscore.ZeroCoef>
-5.4800

> <Gold.Chemscore.Hbond>
0.9937

> <Gold.Chemscore.Metal>
0.0000

> <Gold.Chemscore.Lipo>
51.0308

> <Gold.Chemscore.Internal_Hbond>
0.0000

> <Gold.Chemscore.DEClash>
0.0174

> <Gold.Chemscore.DEInternal>
0.0395

> <Gold.Chemscore.Rot>
1.2573

> <Gold.Chemscore.Internal.Correction>
   9.000000E+99

> <Gold.Chemscore.Hbonds>
donor molecule, donor type, donor heavy atom, donor atom, acceptor molecule, acceptor atom, score
      L1  H    12    30       P1  8028  0.97

> <Gold.Chemscore.Hbond.Weighted>
-3.3190

> <Gold.Chemscore.Metal.Weighted>
-0.0000

> <Gold.Chemscore.Lipo.Weighted>
-5.9706

> <Gold.Chemscore.Internal_Hbond.Weighted>
0.0000

> <Gold.Chemscore.DEClash.Weighted>
0.0174

> <Gold.Chemscore.DEInternal.Weighted>
0.0395

> <Gold.Chemscore.Rot.Weighted>
3.2188

> <Gold.Chemscore.Internal.Correction.Weighted>
   9.000000E+99

> <Gold.Protein.RotatedTorsions>
[ 6907 6896 6895 6894 ] final -163.63 input  -60.11 | X-H torsion
[ 7974 7965 7964 7962 ] final   11.09 input  175.53 | X-H torsion
[ 8008 7997 7996 7995 ] final   95.42 input   59.86 | X-H torsion
[ 10167 10162 10161 10158 ] final -134.73 input  -65.29 | X-H torsion
[ 10718 10713 10712 10709 ] final -100.90 input   66.30 | X-H torsion
[ 10763 10752 10751 10750 ] final  118.02 input  -60.55 | X-H torsion
[ 11005 11000 10999 10996 ] final  168.59 input  -57.11 | X-H torsion

> <Gold.Protein.ActiveResidues>
 VAL166  LYS551  ARG553  GLY616  TRP617  ASP618  TYR619  PRO620  LYS621  CYS622 
 ASP623  PHE694  ASN695  SER759  ASP760  ASP761  ALA762  ILE779  LEU786  VAL792 
 PHE793  MET794  SER795  GLU796  ALA797  LYS798  CYS799  TRP800  GLU811  SER814 

> <Gold.Protein.RotatedAtoms>
  151.3990  133.3764  159.2729 H   0  0  0  0  0  0  0  0  0  0  0  0  # atno 6907 bound_to 6896
  150.9448  134.8855  159.7645 H   0  0  0  0  0  0  0  0  0  0  0  0  # atno 6908 bound_to 6896
  152.5087  134.3942  159.9446 H   0  0  0  0  0  0  0  0  0  0  0  0  # atno 6909 bound_to 6896
  146.2377  139.9537  142.8467 H   0  0  0  0  0  0  0  0  0  0  0  0  # atno 7974 bound_to 7965
  156.0687  140.3286  155.7549 H   0  0  0  0  0  0  0  0  0  0  0  0  # atno 8008 bound_to 7997
  155.5340  140.0596  157.2901 H   0  0  0  0  0  0  0  0  0  0  0  0  # atno 8009 bound_to 7997
  154.4519  140.1922  156.0512 H   0  0  0  0  0  0  0  0  0  0  0  0  # atno 8010 bound_to 7997
  139.8850  143.6792  152.2621 H   0  0  0  0  0  0  0  0  0  0  0  0  # atno 10167 bound_to 10162
  156.0177  130.5348  150.6884 H   0  0  0  0  0  0  0  0  0  0  0  0  # atno 10718 bound_to 10713
  153.5612  135.3520  155.2800 H   0  0  0  0  0  0  0  0  0  0  0  0  # atno 10763 bound_to 10752
  154.8694  135.4137  154.2828 H   0  0  0  0  0  0  0  0  0  0  0  0  # atno 10764 bound_to 10752
  153.3575  135.7058  153.6808 H   0  0  0  0  0  0  0  0  0  0  0  0  # atno 10765 bound_to 10752
  140.2889  134.7689  157.3821 H   0  0  0  0  0  0  0  0  0  0  0  0  # atno 11005 bound_to 11000
  145.1837  140.9779  143.4251 LP  0  0  0  0  0  0  0  0  0  0  0  0  # atno 17320 bound_to 7965
  144.9919  139.3681  143.6210 LP  0  0  0  0  0  0  0  0  0  0  0  0  # atno 17321 bound_to 7965
  139.7161  144.7611  151.1032 LP  0  0  0  0  0  0  0  0  0  0  0  0  # atno 17342 bound_to 10162
  140.7737  143.5267  150.9471 LP  0  0  0  0  0  0  0  0  0  0  0  0  # atno 17343 bound_to 10162
  157.4571  131.0879  151.0785 LP  0  0  0  0  0  0  0  0  0  0  0  0  # atno 17370 bound_to 10713
  157.1284  130.6091  149.5523 LP  0  0  0  0  0  0  0  0  0  0  0  0  # atno 17371 bound_to 10713
  140.1214  134.5215  155.8181 LP  0  0  0  0  0  0  0  0  0  0  0  0  # atno 17394 bound_to 11000
  141.2150  133.6757  156.6872 LP  0  0  0  0  0  0  0  0  0  0  0  0  # atno 17395 bound_to 11000

$$$$
