AV-unprocessed.smi:2659|AV-procd|sdf|10313|dock5
  -GOLD-   2272014333D 1   1.00000     0.00000
 Structure written by MMmdl.
 47 48  0  0  0  0  0  0  0  0  1 V2000
  147.7355  139.6056  153.7049 C   0  0  0  0  0  0  0  0  0  0  0  0
  148.9800  139.7318  154.4378 N   0  0  0  0  0  0  0  0  0  0  0  0
  149.3645  140.9350  154.9144 N   0  0  0  0  0  0  0  0  0  0  0  0
  150.5216  140.7146  155.5300 C   0  0  0  0  0  0  0  0  0  0  0  0
  151.2429  141.8585  156.1968 C   0  0  0  0  0  0  0  0  0  0  0  0
  151.2233  141.8380  157.7518 C   0  0  0  0  0  0  0  0  0  0  0  0
  152.0614  143.0071  158.3069 C   0  0  0  0  0  0  0  0  0  0  0  0
  151.8490  140.5152  158.2356 C   0  0  0  0  0  0  0  0  0  0  0  0
  149.7890  141.9349  158.3154 C   0  0  0  0  0  0  0  0  0  0  0  0
  150.9283  139.3499  155.4584 C   0  0  0  0  0  0  0  0  0  0  0  0
  149.9092  138.7670  154.7564 C   0  0  0  0  0  0  0  0  0  0  0  0
  149.7580  137.4670  154.3883 N   0  0  0  0  0  0  0  0  0  0  0  0
  150.0701  136.3562  155.0781 C   0  0  0  0  0  0  0  0  0  0  0  0
  150.5659  136.3294  156.2048 O   0  0  0  0  0  0  0  0  0  0  0  0
  149.7710  135.2534  154.3775 N   0  0  0  0  0  0  0  0  0  0  0  0
  149.9958  133.8858  154.8315 C   0  0  0  0  0  0  0  0  0  0  0  0
  149.4955  132.8583  153.8031 C   0  0  1  0  0  0  0  0  0  0  0  0
  149.5072  131.4206  154.3161 C   0  0  0  0  0  0  0  0  0  0  0  0
  148.4907  130.7686  153.4069 C   0  0  0  0  0  0  0  0  0  0  0  0
  147.4470  131.8723  153.2518 C   0  0  0  0  0  0  0  0  0  0  0  0
  148.1328  133.1041  153.4666 O   0  0  0  0  0  0  0  0  0  0  0  0
  147.1143  138.8384  154.1674 H   0  0  0  0  0  0  0  0  0  0  0  0
  147.9461  139.3210  152.6739 H   0  0  0  0  0  0  0  0  0  0  0  0
  147.1897  140.5501  153.7084 H   0  0  0  0  0  0  0  0  0  0  0  0
  152.2802  141.8307  155.8604 H   0  0  0  0  0  0  0  0  0  0  0  0
  150.8575  142.8108  155.8298 H   0  0  0  0  0  0  0  0  0  0  0  0
  152.1045  142.9821  159.3964 H   0  0  0  0  0  0  0  0  0  0  0  0
  151.6424  143.9726  158.0231 H   0  0  0  0  0  0  0  0  0  0  0  0
  153.0874  142.9734  157.9388 H   0  0  0  0  0  0  0  0  0  0  0  0
  152.8667  140.3971  157.8617 H   0  0  0  0  0  0  0  0  0  0  0  0
  151.2722  139.6538  157.8967 H   0  0  0  0  0  0  0  0  0  0  0  0
  151.8925  140.4687  159.3244 H   0  0  0  0  0  0  0  0  0  0  0  0
  149.7840  141.8344  159.4013 H   0  0  0  0  0  0  0  0  0  0  0  0
  149.1515  141.1476  157.9112 H   0  0  0  0  0  0  0  0  0  0  0  0
  149.3215  142.8923  158.0837 H   0  0  0  0  0  0  0  0  0  0  0  0
  151.8196  138.8974  155.8655 H   0  0  0  0  0  0  0  0  0  0  0  0
  149.3502  137.3229  153.4763 H   0  0  0  0  0  0  0  0  0  0  0  0
  149.3711  135.3655  153.4575 H   0  0  0  0  0  0  0  0  0  0  0  0
  151.0571  133.7324  155.0336 H   0  0  0  0  0  0  0  0  0  0  0  0
  149.4774  133.7490  155.7808 H   0  0  0  0  0  0  0  0  0  0  0  0
  150.0865  132.9109  152.8871 H   0  0  0  0  0  0  0  0  0  0  0  0
  150.4922  130.9567  154.2599 H   0  0  0  0  0  0  0  0  0  0  0  0
  149.1652  131.3768  155.3512 H   0  0  0  0  0  0  0  0  0  0  0  0
  148.9452  130.5433  152.4414 H   0  0  0  0  0  0  0  0  0  0  0  0
  148.0781  129.8454  153.8145 H   0  0  0  0  0  0  0  0  0  0  0  0
  146.9696  131.8509  152.2719 H   0  0  0  0  0  0  0  0  0  0  0  0
  146.6691  131.7739  154.0094 H   0  0  0  0  0  0  0  0  0  0  0  0
  1  2  1  0  0  0  0
  1 22  1  0  0  0  0
  1 23  1  0  0  0  0
  1 24  1  0  0  0  0
  2 11  1  0  0  0  0
  2  3  1  0  0  0  0
  3  4  2  0  0  0  0
  4  5  1  0  0  0  0
  4 10  1  0  0  0  0
  5  6  1  0  0  0  0
  5 25  1  0  0  0  0
  5 26  1  0  0  0  0
  6  7  1  0  0  0  0
  6  8  1  0  0  0  0
  6  9  1  0  0  0  0
  7 27  1  0  0  0  0
  7 28  1  0  0  0  0
  7 29  1  0  0  0  0
  8 30  1  0  0  0  0
  8 31  1  0  0  0  0
  8 32  1  0  0  0  0
  9 33  1  0  0  0  0
  9 34  1  0  0  0  0
  9 35  1  0  0  0  0
 10 11  2  0  0  0  0
 10 36  1  0  0  0  0
 11 12  1  0  0  0  0
 12 13  1  0  0  0  0
 12 37  1  0  0  0  0
 13 14  2  0  0  0  0
 13 15  1  0  0  0  0
 15 16  1  0  0  0  0
 15 38  1  0  0  0  0
 16 17  1  0  0  0  0
 16 39  1  0  0  0  0
 16 40  1  0  0  0  0
 17 21  1  0  0  0  0
 17 18  1  0  0  0  0
 17 41  1  0  0  0  0
 18 19  1  0  0  0  0
 18 42  1  0  0  0  0
 18 43  1  0  0  0  0
 19 20  1  0  0  0  0
 19 44  1  0  0  0  0
 19 45  1  0  0  0  0
 20 21  1  0  0  0  0
 20 46  1  0  0  0  0
 20 47  1  0  0  0  0
M  END
> <s_m_source_file>
AV-unprocessed.smi

> <i_m_source_file_index>
2659

> <i_lp_mmshare_version>
43012

> <i_f3d_flags>
0

> <s_epik_input>
W0NIM11uMW5jKFtDSDJdQyhbQ0gzXSkoW0NIM10pW0NIM10pW2NIXWMxW05IXUMoPU8pW05IXVtDSDJdW0NAQEhdMltDSDJdW0NIMl1bQ0gyXU8y

> <s_epik_cmdline>
J2VwaWtfcHl0aG9uJywgJy1waCcsICc3LjAnLCAnLXRuJywgJzgnLCAnLW1hJywgJzIwMCcsICctbWV0YWxfYmluZGluZycsICctaW1hZScsICc8aW5maWxlLm1hZT4nLCAnLW9tYWUnLCAnPG91dGZpbGUubWFlPic=

> <r_lp_tautomer_probability>
1

> <r_epik_Ionization_Penalty>
9.6187e-05

> <r_epik_Ionization_Penalty_Charging>
0

> <r_epik_Ionization_Penalty_Neutral>
9.6187e-05

> <r_epik_State_Penalty>
-0

> <r_epik_Charging_Adjusted_Penalty>
0

> <i_epik_Tot_Q>
0

> <i_epik_Tot_abs_Q>
0

> <r_epik_Metal_State_Penalty>
-0

> <b_epik_Metal_Only>
0

> <s_lp_Force_Field>
OPLS_2005

> <r_lp_Energy>
21.1922

> <b_lp_Chiralities_Consistent>
1

> <s_lp_Variant>
AV-unprocessed.smi:2659-2

> <Gold.Version>
5.8.1

> <Gold.Id.Protein>
6NUR|6NUR_protein|mol2

> <Gold.PLP.Fitness>
41.4502

> <Gold.PLP.PLP>
-36.3392

> <Gold.PLP.part.hbond>
-2.0324

> <Gold.PLP.part.metal>
0.0000

> <Gold.PLP.part.buried>
-4.7490

> <Gold.PLP.part.nonpolar>
-29.0904

> <Gold.PLP.part.repulsive>
0.3520

> <Gold.PLP.ligand.clash>
0.0000

> <Gold.PLP.ligand.torsion>
0.4508

> <Gold.PLP.Chemscore.Hbond>
2.0000

> <Gold.PLP.Chemscore.CHOScore>
0.0000

> <Gold.PLP.Chemscore.Metal>
0.0000

> <Gold.Chemscore.Hbonds>
donor molecule, donor type, donor heavy atom, donor atom, acceptor molecule, acceptor atom, score
      L1  H    12    37       P1  7948  1.00
      L1  H    15    38       P1  7948  0.90

> <Gold.PLP.Chemscore.Internal.Correction>
0.0127

> <Gold.Rescore>
     Score         DG    S(hbond)    S(metal)    S(lipo)     H(rot)  DE(clash)    DE(int)     intcor
     16.15     -16.60       1.61        0.00      81.65       1.49       0.01       0.44       ----

> <Gold.Chemscore.Fitness>
16.1469

> <Gold.Chemscore.DG>
-16.5966

> <Gold.Chemscore.ZeroCoef>
-5.4800

> <Gold.Chemscore.Hbond>
1.6099

> <Gold.Chemscore.Metal>
0.0000

> <Gold.Chemscore.Lipo>
81.6456

> <Gold.Chemscore.Internal_Hbond>
0.0000

> <Gold.Chemscore.DEClash>
0.0101

> <Gold.Chemscore.DEInternal>
0.4396

> <Gold.Chemscore.Rot>
1.4894

> <Gold.Chemscore.Internal.Correction>
   9.000000E+99

> <Gold.Chemscore.Hbonds>
donor molecule, donor type, donor heavy atom, donor atom, acceptor molecule, acceptor atom, score
      L1  H    12    37       P1  7948  0.93
      L1  H    15    38       P1  7948  0.18

> <Gold.Chemscore.Hbond.Weighted>
-5.3769

> <Gold.Chemscore.Metal.Weighted>
-0.0000

> <Gold.Chemscore.Lipo.Weighted>
-9.5525

> <Gold.Chemscore.Internal_Hbond.Weighted>
0.0000

> <Gold.Chemscore.DEClash.Weighted>
0.0101

> <Gold.Chemscore.DEInternal.Weighted>
0.4396

> <Gold.Chemscore.Rot.Weighted>
3.8129

> <Gold.Chemscore.Internal.Correction.Weighted>
   9.000000E+99

> <Gold.Protein.RotatedTorsions>
[ 6907 6896 6895 6894 ] final   99.04 input  -60.11 | X-H torsion
[ 7974 7965 7964 7962 ] final   50.60 input  175.53 | X-H torsion
[ 8008 7997 7996 7995 ] final  107.05 input   59.86 | X-H torsion
[ 10167 10162 10161 10158 ] final  168.20 input  -65.29 | X-H torsion
[ 10718 10713 10712 10709 ] final  -33.48 input   66.30 | X-H torsion
[ 10763 10752 10751 10750 ] final -176.17 input  -60.55 | X-H torsion
[ 11005 11000 10999 10996 ] final  174.79 input  -57.11 | X-H torsion

> <Gold.Protein.ActiveResidues>
 VAL166  LYS551  ARG553  GLY616  TRP617  ASP618  TYR619  PRO620  LYS621  CYS622 
 ASP623  PHE694  ASN695  SER759  ASP760  ASP761  ALA762  ILE779  LEU786  VAL792 
 PHE793  MET794  SER795  GLU796  ALA797  LYS798  CYS799  TRP800  GLU811  SER814 

> <Gold.Protein.RotatedAtoms>
  152.5399  134.0489  159.8100 H   0  0  0  0  0  0  0  0  0  0  0  0  # atno 6907 bound_to 6896
  151.0633  133.5518  159.2640 H   0  0  0  0  0  0  0  0  0  0  0  0  # atno 6908 bound_to 6896
  151.2409  135.0596  159.9078 H   0  0  0  0  0  0  0  0  0  0  0  0  # atno 6909 bound_to 6896
  145.9996  139.4425  143.0023 H   0  0  0  0  0  0  0  0  0  0  0  0  # atno 7974 bound_to 7965
  156.1793  140.3102  155.9118 H   0  0  0  0  0  0  0  0  0  0  0  0  # atno 8008 bound_to 7997
  155.3419  140.0466  157.3062 H   0  0  0  0  0  0  0  0  0  0  0  0  # atno 8009 bound_to 7997
  154.5324  140.2235  155.8790 H   0  0  0  0  0  0  0  0  0  0  0  0  # atno 8010 bound_to 7997
  139.4962  144.3840  151.9591 H   0  0  0  0  0  0  0  0  0  0  0  0  # atno 10167 bound_to 10162
  156.3621  130.4325  149.7615 H   0  0  0  0  0  0  0  0  0  0  0  0  # atno 10718 bound_to 10713
  154.5756  135.2831  155.0784 H   0  0  0  0  0  0  0  0  0  0  0  0  # atno 10763 bound_to 10752
  154.2139  135.6403  153.5127 H   0  0  0  0  0  0  0  0  0  0  0  0  # atno 10764 bound_to 10752
  153.0071  135.5498  154.6394 H   0  0  0  0  0  0  0  0  0  0  0  0  # atno 10765 bound_to 10752
  140.3551  134.7161  157.4294 H   0  0  0  0  0  0  0  0  0  0  0  0  # atno 11005 bound_to 11000
  145.7508  140.9973  143.1251 LP  0  0  0  0  0  0  0  0  0  0  0  0  # atno 17320 bound_to 7965
  144.6915  139.9212  143.7468 LP  0  0  0  0  0  0  0  0  0  0  0  0  # atno 17321 bound_to 7965
  140.3277  144.3354  150.5994 LP  0  0  0  0  0  0  0  0  0  0  0  0  # atno 17342 bound_to 10162
  140.5671  143.2185  151.7664 LP  0  0  0  0  0  0  0  0  0  0  0  0  # atno 17343 bound_to 10162
  156.4775  130.8025  151.3041 LP  0  0  0  0  0  0  0  0  0  0  0  0  # atno 17370 bound_to 10713
  157.7474  131.0016  150.2970 LP  0  0  0  0  0  0  0  0  0  0  0  0  # atno 17371 bound_to 10713
  140.0671  134.5914  155.8683 LP  0  0  0  0  0  0  0  0  0  0  0  0  # atno 17394 bound_to 11000
  141.2001  133.6610  156.5877 LP  0  0  0  0  0  0  0  0  0  0  0  0  # atno 17395 bound_to 11000

$$$$
