AV-unprocessed.smi:2270|AV-procd|sdf|9156|dock10
  -GOLD-   2272012363D 1   1.00000     0.00000
 Structure written by MMmdl.
 53 54  0  0  0  0  0  0  0  0  2 V2000
  153.5686  141.9364  161.1552 C   0  0  0  0  0  0  0  0  0  0  0  0
  152.8044  143.0093  160.4082 C   0  0  0  0  0  0  0  0  0  0  0  0
  152.8116  144.3460  160.8525 C   0  0  0  0  0  0  0  0  0  0  0  0
  152.0854  145.2950  160.1109 C   0  0  0  0  0  0  0  0  0  0  0  0
  151.3886  144.8717  158.9626 C   0  0  0  0  0  0  0  0  0  0  0  0
  151.4343  143.5110  158.5845 C   0  0  0  0  0  0  0  0  0  0  0  0
  150.7006  143.1866  157.4127 N   0  0  0  0  0  0  0  0  0  0  0  0
  150.8490  142.1181  156.6100 C   0  0  0  0  0  0  0  0  0  0  0  0
  151.6733  141.2167  156.7637 O   0  0  0  0  0  0  0  0  0  0  0  0
  149.9615  142.1388  155.6053 N   0  0  0  0  0  0  0  0  0  0  0  0
  149.8700  141.1320  154.5519 C   0  0  0  0  0  0  0  0  0  0  0  0
  148.6774  140.1405  154.7091 C   0  0  2  0  0  0  0  0  0  0  0  0
  147.3611  140.8525  155.1364 C   0  0  0  0  0  0  0  0  0  0  0  0
  146.1588  139.8869  155.1408 C   0  0  0  0  0  0  0  0  0  0  0  0
  147.0186  142.0659  154.2505 C   0  0  0  0  0  0  0  0  0  0  0  0
  148.9529  138.9948  155.6323 N   0  3  0  0  0  0  0  0  0  0  0  0
  149.0164  139.3122  157.0814 C   0  0  0  0  0  0  0  0  0  0  0  0
  149.0294  138.0095  157.9078 C   0  0  0  0  0  0  0  0  0  0  0  0
  150.1307  137.1224  157.5251 N   0  0  0  0  0  0  0  0  0  0  0  0
  151.4381  137.6142  157.9472 C   0  0  0  0  0  0  0  0  0  0  0  0
  150.0633  136.8266  156.0922 C   0  0  0  0  0  0  0  0  0  0  0  0
  150.0736  138.1079  155.2332 C   0  0  0  0  0  0  0  0  0  0  0  0
  152.1356  142.6029  159.3074 N   0  0  0  0  0  0  0  0  0  0  0  0
  153.8921  142.2920  162.1338 H   0  0  0  0  0  0  0  0  0  0  0  0
  154.4524  141.6411  160.5895 H   0  0  0  0  0  0  0  0  0  0  0  0
  152.9452  141.0543  161.3052 H   0  0  0  0  0  0  0  0  0  0  0  0
  153.3587  144.6391  161.7364 H   0  0  0  0  0  0  0  0  0  0  0  0
  152.0636  146.3308  160.4162 H   0  0  0  0  0  0  0  0  0  0  0  0
  150.8274  145.5891  158.3814 H   0  0  0  0  0  0  0  0  0  0  0  0
  149.9792  143.8449  157.1587 H   0  0  0  0  0  0  0  0  0  0  0  0
  149.3216  142.9180  155.5501 H   0  0  0  0  0  0  0  0  0  0  0  0
  149.8112  141.6488  153.5938 H   0  0  0  0  0  0  0  0  0  0  0  0
  150.8174  140.5933  154.5375 H   0  0  0  0  0  0  0  0  0  0  0  0
  148.4777  139.7175  153.7233 H   0  0  0  0  0  0  0  0  0  0  0  0
  147.4835  141.2242  156.1543 H   0  0  0  0  0  0  0  0  0  0  0  0
  146.0031  139.4441  154.1563 H   0  0  0  0  0  0  0  0  0  0  0  0
  145.2402  140.4050  155.4182 H   0  0  0  0  0  0  0  0  0  0  0  0
  146.2874  139.0742  155.8559 H   0  0  0  0  0  0  0  0  0  0  0  0
  146.9805  141.7901  153.1961 H   0  0  0  0  0  0  0  0  0  0  0  0
  147.7418  142.8727  154.3632 H   0  0  0  0  0  0  0  0  0  0  0  0
  146.0473  142.4847  154.5158 H   0  0  0  0  0  0  0  0  0  0  0  0
  149.8945  139.9149  157.3113 H   0  0  0  0  0  0  0  0  0  0  0  0
  148.1471  139.9052  157.3653 H   0  0  0  0  0  0  0  0  0  0  0  0
  149.0929  138.2347  158.9729 H   0  0  0  0  0  0  0  0  0  0  0  0
  148.0889  137.4765  157.7608 H   0  0  0  0  0  0  0  0  0  0  0  0
  152.2117  136.8870  157.6991 H   0  0  0  0  0  0  0  0  0  0  0  0
  151.4556  137.7583  159.0278 H   0  0  0  0  0  0  0  0  0  0  0  0
  151.7033  138.5604  157.4771 H   0  0  0  0  0  0  0  0  0  0  0  0
  150.8903  136.1730  155.8120 H   0  0  0  0  0  0  0  0  0  0  0  0
  149.1477  136.2662  155.8977 H   0  0  0  0  0  0  0  0  0  0  0  0
  149.9659  137.8303  154.1843 H   0  0  0  0  0  0  0  0  0  0  0  0
  151.0307  138.6174  155.3246 H   0  0  0  0  0  0  0  0  0  0  0  0
  148.1378  138.4070  155.5315 H   0  0  0  0  0  0  0  0  0  0  0  0
  1  2  1  0  0  0  0
  1 24  1  0  0  0  0
  1 25  1  0  0  0  0
  1 26  1  0  0  0  0
  2 23  1  0  0  0  0
  2  3  2  0  0  0  0
  3  4  1  0  0  0  0
  3 27  1  0  0  0  0
  4  5  2  0  0  0  0
  4 28  1  0  0  0  0
  5  6  1  0  0  0  0
  5 29  1  0  0  0  0
  6  7  1  0  0  0  0
  6 23  2  0  0  0  0
  7  8  1  0  0  0  0
  7 30  1  0  0  0  0
  8  9  2  0  0  0  0
  8 10  1  0  0  0  0
 10 11  1  0  0  0  0
 10 31  1  0  0  0  0
 11 12  1  0  0  0  0
 11 32  1  0  0  0  0
 11 33  1  0  0  0  0
 12 13  1  0  0  0  0
 12 16  1  0  0  0  0
 12 34  1  0  0  0  0
 13 14  1  0  0  0  0
 13 15  1  0  0  0  0
 13 35  1  0  0  0  0
 14 36  1  0  0  0  0
 14 37  1  0  0  0  0
 14 38  1  0  0  0  0
 15 39  1  0  0  0  0
 15 40  1  0  0  0  0
 15 41  1  0  0  0  0
 16 22  1  0  0  0  0
 16 17  1  0  0  0  0
 16 53  1  0  0  0  0
 17 18  1  0  0  0  0
 17 42  1  0  0  0  0
 17 43  1  0  0  0  0
 18 19  1  0  0  0  0
 18 44  1  0  0  0  0
 18 45  1  0  0  0  0
 19 20  1  0  0  0  0
 19 21  1  0  0  0  0
 20 46  1  0  0  0  0
 20 47  1  0  0  0  0
 20 48  1  0  0  0  0
 21 22  1  0  0  0  0
 21 49  1  0  0  0  0
 21 50  1  0  0  0  0
 22 51  1  0  0  0  0
 22 52  1  0  0  0  0
M  CHG  1  16   1
M  END
> <s_m_source_file>
AV-unprocessed.smi

> <i_m_source_file_index>
2270

> <i_lp_mmshare_version>
43012

> <i_f3d_flags>
0

> <s_epik_input>
W0NIM11jMVtjSF1bY0hdW2NIXWMobjEpW05IXUMoPU8pW05IXVtDSDJdW0NASF0oW0NIXShbQ0gzXSlbQ0gzXSlOMltDSDJdW0NIMl1OKFtDSDNdKVtDSDJdW0NIMl0y

> <s_epik_cmdline>
J2VwaWtfcHl0aG9uJywgJy1waCcsICc3LjAnLCAnLXRuJywgJzgnLCAnLW1hJywgJzIwMCcsICctbWV0YWxfYmluZGluZycsICctaW1hZScsICc8aW5maWxlLm1hZT4nLCAnLW9tYWUnLCAnPG91dGZpbGUubWFlPic=

> <r_epik_Ionization_Penalty>
0.201855

> <r_epik_Ionization_Penalty_Charging>
0.20006

> <r_epik_Ionization_Penalty_Neutral>
0.00179462

> <r_epik_State_Penalty>
1.43207

> <r_epik_Charging_Adjusted_Penalty>
1.63213

> <i_epik_Tot_Q>
1

> <i_epik_Tot_abs_Q>
1

> <r_epik_Metal_State_Penalty>
1.43208

> <b_epik_Metal_Only>
0

> <s_lp_Force_Field>
OPLS_2005

> <r_lp_Energy>
33.4642

> <b_lp_Chiralities_Consistent>
1

> <s_lp_Variant>
AV-unprocessed.smi:2270-3

> <Gold.Version>
5.8.1

> <Gold.Id.Protein>
6NUR|6NUR_protein|mol2

> <Gold.PLP.Fitness>
44.5809

> <Gold.PLP.PLP>
-39.3679

> <Gold.PLP.part.hbond>
-2.0000

> <Gold.PLP.part.metal>
0.0000

> <Gold.PLP.part.buried>
-6.5159

> <Gold.PLP.part.nonpolar>
-31.7208

> <Gold.PLP.part.repulsive>
0.1855

> <Gold.PLP.ligand.clash>
0.0000

> <Gold.PLP.ligand.torsion>
0.4798

> <Gold.PLP.Chemscore.Hbond>
1.9920

> <Gold.PLP.Chemscore.CHOScore>
0.0000

> <Gold.PLP.Chemscore.Metal>
0.0000

> <Gold.Chemscore.Hbonds>
donor molecule, donor type, donor heavy atom, donor atom, acceptor molecule, acceptor atom, score
      L1  H     7    30       P1  8028  0.97
      L1  H    10    31       P1  8028  1.00

> <Gold.PLP.Chemscore.Internal.Correction>
0.1966

> <Gold.Rescore>
     Score         DG    S(hbond)    S(metal)    S(lipo)     H(rot)  DE(clash)    DE(int)     intcor
     16.39     -19.39       1.87        0.00     100.62       1.61       1.35       1.65       ----

> <Gold.Chemscore.Fitness>
16.3874

> <Gold.Chemscore.DG>
-19.3928

> <Gold.Chemscore.ZeroCoef>
-5.4800

> <Gold.Chemscore.Hbond>
1.8724

> <Gold.Chemscore.Metal>
0.0000

> <Gold.Chemscore.Lipo>
100.6227

> <Gold.Chemscore.Internal_Hbond>
0.0000

> <Gold.Chemscore.DEClash>
1.3523

> <Gold.Chemscore.DEInternal>
1.6531

> <Gold.Chemscore.Rot>
1.6070

> <Gold.Chemscore.Internal.Correction>
   9.000000E+99

> <Gold.Chemscore.Hbonds>
donor molecule, donor type, donor heavy atom, donor atom, acceptor molecule, acceptor atom, score
      L1  H     7    30       P1  8028  0.77
      L1  H    10    31       P1  8028  0.98

> <Gold.Chemscore.Hbond.Weighted>
-6.2539

> <Gold.Chemscore.Metal.Weighted>
-0.0000

> <Gold.Chemscore.Lipo.Weighted>
-11.7729

> <Gold.Chemscore.Internal_Hbond.Weighted>
0.0000

> <Gold.Chemscore.DEClash.Weighted>
1.3523

> <Gold.Chemscore.DEInternal.Weighted>
1.6531

> <Gold.Chemscore.Rot.Weighted>
4.1140

> <Gold.Chemscore.Internal.Correction.Weighted>
   9.000000E+99

> <Gold.Protein.RotatedTorsions>
[ 6907 6896 6895 6894 ] final -122.31 input  -60.11 | X-H torsion
[ 7974 7965 7964 7962 ] final   -5.84 input  175.53 | X-H torsion
[ 8008 7997 7996 7995 ] final   95.15 input   59.86 | X-H torsion
[ 10167 10162 10161 10158 ] final  114.75 input  -65.29 | X-H torsion
[ 10718 10713 10712 10709 ] final   67.01 input   66.30 | X-H torsion
[ 10763 10752 10751 10750 ] final  172.15 input  -60.55 | X-H torsion
[ 11005 11000 10999 10996 ] final  -30.73 input  -57.11 | X-H torsion

> <Gold.Protein.ActiveResidues>
 VAL166  LYS551  ARG553  GLY616  TRP617  ASP618  TYR619  PRO620  LYS621  CYS622 
 ASP623  PHE694  ASN695  SER759  ASP760  ASP761  ALA762  ILE779  LEU786  VAL792 
 PHE793  MET794  SER795  GLU796  ALA797  LYS798  CYS799  TRP800  GLU811  SER814 

> <Gold.Protein.RotatedAtoms>
  150.8564  133.7708  159.3007 H   0  0  0  0  0  0  0  0  0  0  0  0  # atno 6907 bound_to 6896
  151.5364  135.1067  159.9925 H   0  0  0  0  0  0  0  0  0  0  0  0  # atno 6908 bound_to 6896
  152.4593  133.7745  159.6873 H   0  0  0  0  0  0  0  0  0  0  0  0  # atno 6909 bound_to 6896
  146.2344  140.2082  142.8335 H   0  0  0  0  0  0  0  0  0  0  0  0  # atno 7974 bound_to 7965
  156.0657  140.3290  155.7515 H   0  0  0  0  0  0  0  0  0  0  0  0  # atno 8008 bound_to 7997
  155.5384  140.0599  157.2892 H   0  0  0  0  0  0  0  0  0  0  0  0  # atno 8009 bound_to 7997
  154.4504  140.1915  156.0555 H   0  0  0  0  0  0  0  0  0  0  0  0  # atno 8010 bound_to 7997
  139.6366  144.7120  151.2322 H   0  0  0  0  0  0  0  0  0  0  0  0  # atno 10167 bound_to 10162
  157.6204  130.9298  150.0186 H   0  0  0  0  0  0  0  0  0  0  0  0  # atno 10718 bound_to 10713
  154.4220  135.2758  155.1969 H   0  0  0  0  0  0  0  0  0  0  0  0  # atno 10763 bound_to 10752
  154.3911  135.6066  153.5847 H   0  0  0  0  0  0  0  0  0  0  0  0  # atno 10764 bound_to 10752
  152.9833  135.5903  154.4518 H   0  0  0  0  0  0  0  0  0  0  0  0  # atno 10765 bound_to 10752
  140.9408  133.7280  156.1073 H   0  0  0  0  0  0  0  0  0  0  0  0  # atno 11005 bound_to 11000
  144.9728  140.8385  143.5445 LP  0  0  0  0  0  0  0  0  0  0  0  0  # atno 17320 bound_to 7965
  145.2065  139.2225  143.5165 LP  0  0  0  0  0  0  0  0  0  0  0  0  # atno 17321 bound_to 7965
  140.7468  143.6385  150.8356 LP  0  0  0  0  0  0  0  0  0  0  0  0  # atno 17342 bound_to 10162
  140.0017  143.5737  152.2873 LP  0  0  0  0  0  0  0  0  0  0  0  0  # atno 17343 bound_to 10162
  156.1347  130.3643  149.9676 LP  0  0  0  0  0  0  0  0  0  0  0  0  # atno 17370 bound_to 10713
  156.7729  130.9193  151.3644 LP  0  0  0  0  0  0  0  0  0  0  0  0  # atno 17371 bound_to 10713
  140.7736  134.3804  157.5502 LP  0  0  0  0  0  0  0  0  0  0  0  0  # atno 17394 bound_to 11000
  139.8820  134.9038  156.2862 LP  0  0  0  0  0  0  0  0  0  0  0  0  # atno 17395 bound_to 11000

$$$$
