AV-unprocessed.smi:81|AV-procd|sdf|790|dock1
  -GOLD-   2262017163D 1   1.00000     0.00000
 Structure written by MMmdl.
 64 67  0  0  0  0  0  0  0  0  2 V2000
  148.5658  130.3000  158.5511 C   0  0  0  0  0  0  0  0  0  0  0  0
  149.0402  131.4387  157.6333 C   0  0  0  0  0  0  0  0  0  0  0  0
  148.8502  132.7980  158.3208 C   0  0  0  0  0  0  0  0  0  0  0  0
  148.3112  131.4191  156.2693 C   0  0  0  0  0  0  0  0  0  0  0  0
  148.8546  132.3506  155.2743 N   0  0  0  0  0  0  0  0  0  0  0  0
  148.4815  133.6459  155.4150 C   0  0  0  0  0  0  0  0  0  0  0  0
  147.1511  133.9074  155.4617 N   0  0  0  0  0  0  0  0  0  0  0  0
  146.7174  135.1666  155.5650 C   0  0  0  0  0  0  0  0  0  0  0  0
  147.4315  136.2917  155.6283 N   0  0  0  0  0  0  0  0  0  0  0  0
  148.7697  136.0362  155.5629 C   0  0  0  0  0  0  0  0  0  0  0  0
  149.3765  134.7537  155.4547 C   0  0  0  0  0  0  0  0  0  0  0  0
  150.7586  134.8897  155.4174 N   0  0  0  0  0  0  0  0  0  0  0  0
  150.9566  136.1769  155.4943 C   0  0  0  0  0  0  0  0  0  0  0  0
  149.8158  136.9436  155.5780 N   0  0  0  0  0  0  0  0  0  0  0  0
  149.7216  138.3961  155.6621 C   0  0  0  0  0  0  0  0  0  0  0  0
  149.0269  139.0532  154.4389 C   0  0  1  0  0  0  0  0  0  0  0  0
  149.6533  138.5639  153.2635 O   0  0  0  0  0  0  0  0  0  0  0  0
  147.5407  138.7515  154.3518 C   0  0  0  0  0  0  0  0  0  0  0  0
  147.0240  139.8428  153.4170 C   0  0  0  0  0  0  0  0  0  0  0  0
  147.9371  140.9322  153.5315 O   0  0  0  0  0  0  0  0  0  0  0  0
  149.0414  140.5957  154.3713 C   0  0  1  0  0  0  0  0  0  0  0  0
  148.7692  141.3270  155.7002 C   0  0  0  0  0  0  0  0  0  0  0  0
  149.0690  131.8224  153.9156 C   0  0  2  0  0  0  0  0  0  0  0  0
  148.5757  132.7228  152.7574 C   0  0  0  0  0  0  0  0  0  0  0  0
  147.1089  132.4813  152.3506 C   0  0  0  0  0  0  0  0  0  0  0  0
  146.8560  131.0460  152.0851 N   0  3  2  0  0  0  0  0  0  0  0  0
  145.4979  130.8053  151.5517 C   0  0  0  0  0  0  0  0  0  0  0  0
  147.1497  130.2102  153.2723 C   0  0  0  0  0  0  0  0  0  0  0  0
  148.6190  130.3567  153.7083 C   0  0  0  0  0  0  0  0  0  0  0  0
  147.4962  130.3723  158.7506 H   0  0  0  0  0  0  0  0  0  0  0  0
  149.0857  130.3262  159.5093 H   0  0  0  0  0  0  0  0  0  0  0  0
  148.7558  129.3232  158.1064 H   0  0  0  0  0  0  0  0  0  0  0  0
  150.1123  131.3184  157.4747 H   0  0  0  0  0  0  0  0  0  0  0  0
  147.7979  132.9942  158.5293 H   0  0  0  0  0  0  0  0  0  0  0  0
  149.2231  133.6094  157.6950 H   0  0  0  0  0  0  0  0  0  0  0  0
  149.3909  132.8390  159.2669 H   0  0  0  0  0  0  0  0  0  0  0  0
  148.3565  130.4078  155.8637 H   0  0  0  0  0  0  0  0  0  0  0  0
  147.2520  131.6268  156.4169 H   0  0  0  0  0  0  0  0  0  0  0  0
  145.6451  135.2907  155.5996 H   0  0  0  0  0  0  0  0  0  0  0  0
  151.9512  136.5935  155.4889 H   0  0  0  0  0  0  0  0  0  0  0  0
  149.1562  138.6373  156.5631 H   0  0  0  0  0  0  0  0  0  0  0  0
  150.7174  138.8055  155.8289 H   0  0  0  0  0  0  0  0  0  0  0  0
  149.1897  137.7914  152.9776 H   0  0  0  0  0  0  0  0  0  0  0  0
  147.3195  137.7447  153.9948 H   0  0  0  0  0  0  0  0  0  0  0  0
  147.0782  138.8613  155.3335 H   0  0  0  0  0  0  0  0  0  0  0  0
  147.0274  139.4962  152.3832 H   0  0  0  0  0  0  0  0  0  0  0  0
  146.0082  140.1500  153.6660 H   0  0  0  0  0  0  0  0  0  0  0  0
  149.9719  140.9712  153.9429 H   0  0  0  0  0  0  0  0  0  0  0  0
  149.5570  141.1685  156.4322 H   0  0  0  0  0  0  0  0  0  0  0  0
  147.8305  141.0063  156.1519 H   0  0  0  0  0  0  0  0  0  0  0  0
  148.6992  142.4024  155.5359 H   0  0  0  0  0  0  0  0  0  0  0  0
  150.1559  131.8166  153.8234 H   0  0  0  0  0  0  0  0  0  0  0  0
  148.7456  133.7754  152.9862 H   0  0  0  0  0  0  0  0  0  0  0  0
  149.1955  132.5137  151.8845 H   0  0  0  0  0  0  0  0  0  0  0  0
  146.4185  132.8309  153.1170 H   0  0  0  0  0  0  0  0  0  0  0  0
  146.8888  133.0599  151.4527 H   0  0  0  0  0  0  0  0  0  0  0  0
  144.7359  131.0910  152.2782 H   0  0  0  0  0  0  0  0  0  0  0  0
  145.3604  129.7512  151.3085 H   0  0  0  0  0  0  0  0  0  0  0  0
  145.3348  131.3802  150.6397 H   0  0  0  0  0  0  0  0  0  0  0  0
  146.4686  130.4783  154.0774 H   0  0  0  0  0  0  0  0  0  0  0  0
  146.9515  129.1638  153.0371 H   0  0  0  0  0  0  0  0  0  0  0  0
  149.2404  129.9235  152.9234 H   0  0  0  0  0  0  0  0  0  0  0  0
  148.8115  129.7539  154.5959 H   0  0  0  0  0  0  0  0  0  0  0  0
  147.5031  130.7643  151.3626 H   0  0  0  0  0  0  0  0  0  0  0  0
  1  2  1  0  0  0  0
  1 30  1  0  0  0  0
  1 31  1  0  0  0  0
  1 32  1  0  0  0  0
  2  3  1  0  0  0  0
  2  4  1  0  0  0  0
  2 33  1  0  0  0  0
  3 34  1  0  0  0  0
  3 35  1  0  0  0  0
  3 36  1  0  0  0  0
  4  5  1  0  0  0  0
  4 37  1  0  0  0  0
  4 38  1  0  0  0  0
  5  6  1  0  0  0  0
  5 23  1  0  0  0  0
  6 11  1  0  0  0  0
  6  7  2  0  0  0  0
  7  8  1  0  0  0  0
  8  9  2  0  0  0  0
  8 39  1  0  0  0  0
  9 10  1  0  0  0  0
 10 14  1  0  0  0  0
 10 11  2  0  0  0  0
 11 12  1  0  0  0  0
 12 13  2  0  0  0  0
 13 14  1  0  0  0  0
 13 40  1  0  0  0  0
 14 15  1  0  0  0  0
 15 16  1  0  0  0  0
 15 41  1  0  0  0  0
 15 42  1  0  0  0  0
 16 21  1  0  0  0  0
 16 17  1  0  0  0  0
 16 18  1  0  0  0  0
 17 43  1  0  0  0  0
 18 19  1  0  0  0  0
 18 44  1  0  0  0  0
 18 45  1  0  0  0  0
 19 20  1  0  0  0  0
 19 46  1  0  0  0  0
 19 47  1  0  0  0  0
 20 21  1  0  0  0  0
 21 22  1  0  0  0  0
 21 48  1  0  0  0  0
 22 49  1  0  0  0  0
 22 50  1  0  0  0  0
 22 51  1  0  0  0  0
 23 29  1  0  0  0  0
 23 24  1  0  0  0  0
 23 52  1  0  0  0  0
 24 25  1  0  0  0  0
 24 53  1  0  0  0  0
 24 54  1  0  0  0  0
 25 26  1  0  0  0  0
 25 55  1  0  0  0  0
 25 56  1  0  0  0  0
 26 27  1  0  0  0  0
 26 28  1  0  0  0  0
 26 64  1  0  0  0  0
 27 57  1  0  0  0  0
 27 58  1  0  0  0  0
 27 59  1  0  0  0  0
 28 29  1  0  0  0  0
 28 60  1  0  0  0  0
 28 61  1  0  0  0  0
 29 62  1  0  0  0  0
 29 63  1  0  0  0  0
M  CHG  1  26   1
M  END
> <s_m_source_file>
AV-unprocessed.smi

> <i_m_source_file_index>
81

> <i_lp_mmshare_version>
43012

> <i_f3d_flags>
0

> <s_epik_input>
W0NIMl0xW0NIMl1OKFtDSDNdKVtDSDJdW0NIMl1bQ0hdMU4oW0NIMl1bQ0hdKFtDSDNdKVtDSDNdKWMobltjSF1uMiljKGMyMyluW2NIXW4zW0NIMl1bQ0BAXTQoW09IXSlbQ0gyXVtDSDJdT1tDQEhdNFtDSDNd

> <s_epik_cmdline>
J2VwaWtfcHl0aG9uJywgJy1waCcsICc3LjAnLCAnLXRuJywgJzgnLCAnLW1hJywgJzIwMCcsICctbWV0YWxfYmluZGluZycsICctaW1hZScsICc8aW5maWxlLm1hZT4nLCAnLW9tYWUnLCAnPG91dGZpbGUubWFlPic=

> <r_lp_tautomer_probability>
1

> <r_epik_Ionization_Penalty>
0.00272708

> <r_epik_Ionization_Penalty_Charging>
0.00158983

> <r_epik_Ionization_Penalty_Neutral>
0.00113725

> <r_epik_State_Penalty>
-0

> <r_epik_Charging_Adjusted_Penalty>
0.00158983

> <i_epik_Tot_Q>
1

> <i_epik_Tot_abs_Q>
1

> <r_epik_Metal_State_Penalty>
-0

> <b_epik_Metal_Only>
0

> <s_lp_Force_Field>
OPLS_2005

> <r_lp_Energy>
53.2372

> <b_lp_Chiralities_Consistent>
1

> <s_lp_Variant>
AV-unprocessed.smi:81-5

> <Gold.Version>
5.8.1

> <Gold.Id.Protein>
6NUR|6NUR_protein|mol2

> <Gold.PLP.Fitness>
38.3285

> <Gold.PLP.PLP>
-34.4476

> <Gold.PLP.part.hbond>
-3.2297

> <Gold.PLP.part.metal>
0.0000

> <Gold.PLP.part.buried>
-3.1078

> <Gold.PLP.part.nonpolar>
-28.4964

> <Gold.PLP.part.repulsive>
0.8259

> <Gold.PLP.ligand.clash>
0.0000

> <Gold.PLP.ligand.torsion>
1.8608

> <Gold.PLP.Chemscore.Hbond>
2.0000

> <Gold.PLP.Chemscore.CHOScore>
0.0000

> <Gold.PLP.Chemscore.Metal>
0.0000

> <Gold.Chemscore.Hbonds>
donor molecule, donor type, donor heavy atom, donor atom, acceptor molecule, acceptor atom, score
      L1  H    17    43       P1  7948  1.00
      L1  H    26    64       P1 10747  1.00

> <Gold.PLP.Chemscore.Internal.Correction>
1.6025

> <Gold.Rescore>
     Score         DG    S(hbond)    S(metal)    S(lipo)     H(rot)  DE(clash)    DE(int)     intcor
     12.37     -15.99       1.93        0.00      85.35       2.32       0.35       3.27       ----

> <Gold.Chemscore.Fitness>
12.3744

> <Gold.Chemscore.DG>
-15.9907

> <Gold.Chemscore.ZeroCoef>
-5.4800

> <Gold.Chemscore.Hbond>
1.9325

> <Gold.Chemscore.Metal>
0.0000

> <Gold.Chemscore.Lipo>
85.3492

> <Gold.Chemscore.Internal_Hbond>
0.0000

> <Gold.Chemscore.DEClash>
0.3503

> <Gold.Chemscore.DEInternal>
3.2660

> <Gold.Chemscore.Rot>
2.3163

> <Gold.Chemscore.Internal.Correction>
   9.000000E+99

> <Gold.Chemscore.Hbonds>
donor molecule, donor type, donor heavy atom, donor atom, acceptor molecule, acceptor atom, score
      L1  H    17    43       P1  7948  0.95
      L1  H    26    64       P1 10747  0.99

> <Gold.Chemscore.Hbond.Weighted>
-6.4546

> <Gold.Chemscore.Metal.Weighted>
-0.0000

> <Gold.Chemscore.Lipo.Weighted>
-9.9859

> <Gold.Chemscore.Internal_Hbond.Weighted>
0.0000

> <Gold.Chemscore.DEClash.Weighted>
0.3503

> <Gold.Chemscore.DEInternal.Weighted>
3.2660

> <Gold.Chemscore.Rot.Weighted>
5.9297

> <Gold.Chemscore.Internal.Correction.Weighted>
   9.000000E+99

> <Gold.Protein.RotatedTorsions>
[ 6907 6896 6895 6894 ] final  -35.57 input  -60.11 | X-H torsion
[ 7974 7965 7964 7962 ] final   98.32 input  175.53 | X-H torsion
[ 8008 7997 7996 7995 ] final  119.63 input   59.86 | X-H torsion
[ 10167 10162 10161 10158 ] final -114.04 input  -65.29 | X-H torsion
[ 10718 10713 10712 10709 ] final  118.64 input   66.30 | X-H torsion
[ 10763 10752 10751 10750 ] final  162.42 input  -60.55 | X-H torsion
[ 11005 11000 10999 10996 ] final -127.71 input  -57.11 | X-H torsion

> <Gold.Protein.ActiveResidues>
 VAL166  LYS551  ARG553  GLY616  TRP617  ASP618  TYR619  PRO620  LYS621  CYS622 
 ASP623  PHE694  ASN695  SER759  ASP760  ASP761  ALA762  ILE779  LEU786  VAL792 
 PHE793  MET794  SER795  GLU796  ALA797  LYS798  CYS799  TRP800  GLU811  SER814 

> <Gold.Protein.RotatedAtoms>
  151.0381  134.9588  159.8146 H   0  0  0  0  0  0  0  0  0  0  0  0  # atno 6907 bound_to 6896
  152.5359  134.2693  159.8975 H   0  0  0  0  0  0  0  0  0  0  0  0  # atno 6908 bound_to 6896
  151.2704  133.4215  159.2655 H   0  0  0  0  0  0  0  0  0  0  0  0  # atno 6909 bound_to 6896
  145.4138  139.2330  143.3234 H   0  0  0  0  0  0  0  0  0  0  0  0  # atno 7974 bound_to 7965
  156.2605  140.2848  156.1022 H   0  0  0  0  0  0  0  0  0  0  0  0  # atno 8008 bound_to 7997
  155.1347  140.0394  157.2801 H   0  0  0  0  0  0  0  0  0  0  0  0  # atno 8009 bound_to 7997
  154.6573  140.2558  155.7153 H   0  0  0  0  0  0  0  0  0  0  0  0  # atno 8010 bound_to 7997
  140.1053  143.4576  152.1786 H   0  0  0  0  0  0  0  0  0  0  0  0  # atno 10167 bound_to 10162
  157.6016  131.1050  150.7784 H   0  0  0  0  0  0  0  0  0  0  0  0  # atno 10718 bound_to 10713
  154.2780  135.2764  155.2709 H   0  0  0  0  0  0  0  0  0  0  0  0  # atno 10763 bound_to 10752
  154.5243  135.5747  153.6710 H   0  0  0  0  0  0  0  0  0  0  0  0  # atno 10764 bound_to 10752
  152.9934  135.6212  154.2938 H   0  0  0  0  0  0  0  0  0  0  0  0  # atno 10765 bound_to 10752
  140.9576  134.0980  157.4000 H   0  0  0  0  0  0  0  0  0  0  0  0  # atno 11005 bound_to 11000
  146.2691  140.4853  142.8821 LP  0  0  0  0  0  0  0  0  0  0  0  0  # atno 17320 bound_to 7965
  144.8291  140.6678  143.6302 LP  0  0  0  0  0  0  0  0  0  0  0  0  # atno 17321 bound_to 7965
  139.5648  144.7428  151.4052 LP  0  0  0  0  0  0  0  0  0  0  0  0  # atno 17342 bound_to 10162
  140.6955  143.7759  150.7320 LP  0  0  0  0  0  0  0  0  0  0  0  0  # atno 17343 bound_to 10162
  156.8182  130.4975  149.5346 LP  0  0  0  0  0  0  0  0  0  0  0  0  # atno 17370 bound_to 10713
  156.1091  130.6027  151.0019 LP  0  0  0  0  0  0  0  0  0  0  0  0  # atno 17371 bound_to 10713
  139.8867  135.0084  156.6517 LP  0  0  0  0  0  0  0  0  0  0  0  0  # atno 17394 bound_to 11000
  140.7513  133.8895  155.8349 LP  0  0  0  0  0  0  0  0  0  0  0  0  # atno 17395 bound_to 11000

$$$$
