AV-unprocessed.smi:1637|AV-procd|sdf|6544|dock4
  -GOLD-   22720 7223D 1   1.00000     0.00000
 Structure written by MMmdl.
 38 39  0  0  0  0  0  0  0  0  1 V2000
  153.3851  142.5975  162.8339 C   0  0  0  0  0  0  0  0  0  0  0  0
  152.9513  143.7888  162.1867 O   0  0  0  0  0  0  0  0  0  0  0  0
  152.2384  143.6729  161.0109 C   0  0  0  0  0  0  0  0  0  0  0  0
  151.8590  144.8490  160.3338 C   0  0  0  0  0  0  0  0  0  0  0  0
  151.1279  144.7401  159.1353 C   0  0  0  0  0  0  0  0  0  0  0  0
  150.7920  143.4523  158.6542 C   0  0  0  0  0  0  0  0  0  0  0  0
  150.0745  143.2100  157.4521 N   0  0  0  0  0  0  0  0  0  0  0  0
  149.6169  142.0403  156.9744 C   0  0  0  0  0  0  0  0  0  0  0  0
  149.7586  140.9450  157.5176 O   0  0  0  0  0  0  0  0  0  0  0  0
  148.9930  142.2094  155.7999 N   0  0  0  0  0  0  0  0  0  0  0  0
  148.3710  141.1521  155.0027 C   0  0  2  0  0  0  0  0  0  0  0  0
  147.2266  140.4693  155.7956 C   0  0  0  0  0  0  0  0  0  0  0  0
  146.8820  139.0233  155.3816 C   0  0  0  0  0  0  0  0  0  0  0  0
  146.5773  138.8156  153.8842 C   0  0  0  0  0  0  0  0  0  0  0  0
  147.6577  139.2882  152.8826 C   0  0  0  0  0  0  0  0  0  0  0  0
  149.0097  139.3496  153.4369 N   0  0  0  0  0  0  0  0  0  0  0  0
  149.4176  140.1967  154.3978 C   0  0  0  0  0  0  0  0  0  0  0  0
  150.5804  140.1995  154.8001 O   0  0  0  0  0  0  0  0  0  0  0  0
  151.2340  142.3382  159.3971 C   0  0  0  0  0  0  0  0  0  0  0  0
  151.9329  142.4356  160.5476 N   0  0  0  0  0  0  0  0  0  0  0  0
  153.9347  142.8577  163.7382 H   0  0  0  0  0  0  0  0  0  0  0  0
  154.0534  142.0171  162.1964 H   0  0  0  0  0  0  0  0  0  0  0  0
  152.5397  141.9740  163.1286 H   0  0  0  0  0  0  0  0  0  0  0  0
  152.1271  145.8193  160.7252 H   0  0  0  0  0  0  0  0  0  0  0  0
  150.8541  145.6402  158.6069 H   0  0  0  0  0  0  0  0  0  0  0  0
  149.9510  144.0129  156.8525 H   0  0  0  0  0  0  0  0  0  0  0  0
  148.9233  143.1462  155.4296 H   0  0  0  0  0  0  0  0  0  0  0  0
  147.9184  141.6523  154.1455 H   0  0  0  0  0  0  0  0  0  0  0  0
  147.4818  140.4526  156.8561 H   0  0  0  0  0  0  0  0  0  0  0  0
  146.3305  141.0864  155.7206 H   0  0  0  0  0  0  0  0  0  0  0  0
  147.6937  138.3581  155.6795 H   0  0  0  0  0  0  0  0  0  0  0  0
  146.0200  138.6923  155.9616 H   0  0  0  0  0  0  0  0  0  0  0  0
  146.4100  137.7492  153.7286 H   0  0  0  0  0  0  0  0  0  0  0  0
  145.6311  139.2967  153.6343 H   0  0  0  0  0  0  0  0  0  0  0  0
  147.6706  138.6207  152.0209 H   0  0  0  0  0  0  0  0  0  0  0  0
  147.3921  140.2670  152.4814 H   0  0  0  0  0  0  0  0  0  0  0  0
  149.6911  138.7129  153.0498 H   0  0  0  0  0  0  0  0  0  0  0  0
  151.0154  141.3348  159.0624 H   0  0  0  0  0  0  0  0  0  0  0  0
  1  2  1  0  0  0  0
  1 21  1  0  0  0  0
  1 22  1  0  0  0  0
  1 23  1  0  0  0  0
  2  3  1  0  0  0  0
  3 20  1  0  0  0  0
  3  4  2  0  0  0  0
  4  5  1  0  0  0  0
  4 24  1  0  0  0  0
  5  6  2  0  0  0  0
  5 25  1  0  0  0  0
  6  7  1  0  0  0  0
  6 19  1  0  0  0  0
  7  8  1  0  0  0  0
  7 26  1  0  0  0  0
  8  9  2  0  0  0  0
  8 10  1  0  0  0  0
 10 11  1  0  0  0  0
 10 27  1  0  0  0  0
 11 17  1  0  0  0  0
 11 12  1  0  0  0  0
 11 28  1  0  0  0  0
 12 13  1  0  0  0  0
 12 29  1  0  0  0  0
 12 30  1  0  0  0  0
 13 14  1  0  0  0  0
 13 31  1  0  0  0  0
 13 32  1  0  0  0  0
 14 15  1  0  0  0  0
 14 33  1  0  0  0  0
 14 34  1  0  0  0  0
 15 16  1  0  0  0  0
 15 35  1  0  0  0  0
 15 36  1  0  0  0  0
 16 17  1  0  0  0  0
 16 37  1  0  0  0  0
 17 18  2  0  0  0  0
 19 20  2  0  0  0  0
 19 38  1  0  0  0  0
M  END
> <s_m_source_file>
AV-unprocessed.smi

> <i_m_source_file_index>
1637

> <i_lp_mmshare_version>
43012

> <i_f3d_flags>
0

> <s_epik_input>
W0NIM11PYzFbY0hdW2NIXWMoW2NIXW4xKVtOSF1DKD1PKVtOSF1bQ0BASF0yW0NIMl1bQ0gyXVtDSDJdW0NIMl1bTkhdQzI9Tw==

> <s_epik_cmdline>
J2VwaWtfcHl0aG9uJywgJy1waCcsICc3LjAnLCAnLXRuJywgJzgnLCAnLW1hJywgJzIwMCcsICctbWV0YWxfYmluZGluZycsICctaW1hZScsICc8aW5maWxlLm1hZT4nLCAnLW9tYWUnLCAnPG91dGZpbGUubWFlPic=

> <r_lp_tautomer_probability>
1

> <r_epik_Ionization_Penalty>
8.30847e-05

> <r_epik_Ionization_Penalty_Charging>
0

> <r_epik_Ionization_Penalty_Neutral>
8.30847e-05

> <r_epik_State_Penalty>
-0

> <r_epik_Charging_Adjusted_Penalty>
0

> <i_epik_Tot_Q>
0

> <i_epik_Tot_abs_Q>
0

> <r_epik_Metal_State_Penalty>
-0

> <b_epik_Metal_Only>
0

> <s_lp_Force_Field>
OPLS_2005

> <r_lp_Energy>
17.0101

> <b_lp_Chiralities_Consistent>
1

> <s_lp_Variant>
AV-unprocessed.smi:1637-1

> <Gold.Version>
5.8.1

> <Gold.Id.Protein>
6NUR|6NUR_protein|mol2

> <Gold.PLP.Fitness>
39.9888

> <Gold.PLP.PLP>
-31.3682

> <Gold.PLP.part.hbond>
-4.3097

> <Gold.PLP.part.metal>
0.0000

> <Gold.PLP.part.buried>
0.4982

> <Gold.PLP.part.nonpolar>
-27.2644

> <Gold.PLP.part.repulsive>
0.5238

> <Gold.PLP.ligand.clash>
0.0000

> <Gold.PLP.ligand.torsion>
0.0604

> <Gold.PLP.Chemscore.Hbond>
2.8960

> <Gold.PLP.Chemscore.CHOScore>
0.0000

> <Gold.PLP.Chemscore.Metal>
0.0000

> <Gold.Chemscore.Hbonds>
donor molecule, donor type, donor heavy atom, donor atom, acceptor molecule, acceptor atom, score
      L1  H     7    26       P1  8028  0.90
      L1  H    10    27       P1  8028  1.00
      P1  H  7989  7998       L1    18  1.00

> <Gold.PLP.Chemscore.Internal.Correction>
0.0535

> <Gold.Rescore>
     Score         DG    S(hbond)    S(metal)    S(lipo)     H(rot)  DE(clash)    DE(int)     intcor
     15.95     -20.30       3.05        0.00      68.08       1.31       0.62       3.73       ----

> <Gold.Chemscore.Fitness>
15.9521

> <Gold.Chemscore.DG>
-20.2963

> <Gold.Chemscore.ZeroCoef>
-5.4800

> <Gold.Chemscore.Hbond>
3.0545

> <Gold.Chemscore.Metal>
0.0000

> <Gold.Chemscore.Lipo>
68.0782

> <Gold.Chemscore.Internal_Hbond>
0.0000

> <Gold.Chemscore.DEClash>
0.6154

> <Gold.Chemscore.DEInternal>
3.7289

> <Gold.Chemscore.Rot>
1.3090

> <Gold.Chemscore.Internal.Correction>
   9.000000E+99

> <Gold.Chemscore.Hbonds>
donor molecule, donor type, donor heavy atom, donor atom, acceptor molecule, acceptor atom, score
      L1  H     7    26       P1  8028  0.84
      L1  H    10    27       P1  8028  0.93
      P1  H  7989  7998       L1    18  0.65

> <Gold.Chemscore.Hbond.Weighted>
-10.2021

> <Gold.Chemscore.Metal.Weighted>
-0.0000

> <Gold.Chemscore.Lipo.Weighted>
-7.9651

> <Gold.Chemscore.Internal_Hbond.Weighted>
0.0000

> <Gold.Chemscore.DEClash.Weighted>
0.6154

> <Gold.Chemscore.DEInternal.Weighted>
3.7289

> <Gold.Chemscore.Rot.Weighted>
3.3509

> <Gold.Chemscore.Internal.Correction.Weighted>
   9.000000E+99

> <Gold.Protein.RotatedTorsions>
[ 6907 6896 6895 6894 ] final -158.85 input  -60.11 | X-H torsion
[ 7974 7965 7964 7962 ] final  144.63 input  175.53 | X-H torsion
[ 8008 7997 7996 7995 ] final  173.60 input   59.86 | X-H torsion
[ 10167 10162 10161 10158 ] final  169.58 input  -65.29 | X-H torsion
[ 10718 10713 10712 10709 ] final  163.26 input   66.30 | X-H torsion
[ 10763 10752 10751 10750 ] final  -53.89 input  -60.55 | X-H torsion
[ 11005 11000 10999 10996 ] final   41.33 input  -57.11 | X-H torsion

> <Gold.Protein.ActiveResidues>
 VAL166  LYS551  ARG553  GLY616  TRP617  ASP618  TYR619  PRO620  LYS621  CYS622 
 ASP623  PHE694  ASN695  SER759  ASP760  ASP761  ALA762  ILE779  LEU786  VAL792 
 PHE793  MET794  SER795  GLU796  ALA797  LYS798  CYS799  TRP800  GLU811  SER814 

> <Gold.Protein.RotatedAtoms>
  151.3246  133.4026  159.2657 H   0  0  0  0  0  0  0  0  0  0  0  0  # atno 6907 bound_to 6896
  151.0006  134.9320  159.7962 H   0  0  0  0  0  0  0  0  0  0  0  0  # atno 6908 bound_to 6896
  152.5274  134.3211  159.9201 H   0  0  0  0  0  0  0  0  0  0  0  0  # atno 6909 bound_to 6896
  144.8820  139.5685  143.5838 H   0  0  0  0  0  0  0  0  0  0  0  0  # atno 7974 bound_to 7965
  156.1059  140.1456  156.9405 H   0  0  0  0  0  0  0  0  0  0  0  0  # atno 8008 bound_to 7997
  154.4733  140.0902  156.7244 H   0  0  0  0  0  0  0  0  0  0  0  0  # atno 8009 bound_to 7997
  155.4681  140.3440  155.4324 H   0  0  0  0  0  0  0  0  0  0  0  0  # atno 8010 bound_to 7997
  139.4996  144.3691  151.9744 H   0  0  0  0  0  0  0  0  0  0  0  0  # atno 10167 bound_to 10162
  157.1110  131.0468  151.2457 H   0  0  0  0  0  0  0  0  0  0  0  0  # atno 10718 bound_to 10713
  154.1661  135.6467  153.4997 H   0  0  0  0  0  0  0  0  0  0  0  0  # atno 10763 bound_to 10752
  153.0097  135.5372  154.6661 H   0  0  0  0  0  0  0  0  0  0  0  0  # atno 10764 bound_to 10752
  154.5988  135.2941  155.0530 H   0  0  0  0  0  0  0  0  0  0  0  0  # atno 10765 bound_to 10752
  140.1844  134.4063  155.8181 H   0  0  0  0  0  0  0  0  0  0  0  0  # atno 11005 bound_to 11000
  146.3000  139.7397  142.9098 LP  0  0  0  0  0  0  0  0  0  0  0  0  # atno 17320 bound_to 7965
  145.3937  141.0376  143.3109 LP  0  0  0  0  0  0  0  0  0  0  0  0  # atno 17321 bound_to 7965
  140.3127  144.3520  150.6030 LP  0  0  0  0  0  0  0  0  0  0  0  0  # atno 17342 bound_to 10162
  140.5786  143.2174  151.7470 LP  0  0  0  0  0  0  0  0  0  0  0  0  # atno 17343 bound_to 10162
  157.4559  130.7625  149.7192 LP  0  0  0  0  0  0  0  0  0  0  0  0  # atno 17370 bound_to 10713
  155.9850  130.3986  150.3281 LP  0  0  0  0  0  0  0  0  0  0  0  0  # atno 17371 bound_to 10713
  141.2224  133.7016  156.7987 LP  0  0  0  0  0  0  0  0  0  0  0  0  # atno 17394 bound_to 11000
  140.2230  134.8743  157.3397 LP  0  0  0  0  0  0  0  0  0  0  0  0  # atno 17395 bound_to 11000

$$$$
