AV-unprocessed.smi:1244|AV-procd|sdf|5237|dock8
  -GOLD-   22720 4343D 1   1.00000     0.00000
 Structure written by MMmdl.
 55 57  0  0  0  0  0  0  0  0  4 V2000
  145.9476  133.4903  155.8193 C   0  0  0  0  0  0  0  0  0  0  0  0
  147.4525  133.5667  155.5397 C   0  0  2  0  0  0  0  0  0  0  0  0
  147.8268  134.8139  154.7147 C   0  0  0  0  0  0  0  0  0  0  0  0
  149.2767  134.8307  154.4008 N   0  3  1  0  0  0  0  0  0  0  0  0
  150.1359  135.2460  155.5448 C   0  0  0  0  0  0  0  0  0  0  0  0
  149.6820  136.5899  156.1510 C   0  0  0  0  0  0  0  0  0  0  0  0
  150.4674  136.8995  157.3449 N   0  5  0  0  0  0  0  0  0  0  0  0
  151.1443  138.0609  157.5501 C   0  0  0  0  0  0  0  0  0  0  0  0
  152.3485  138.2027  157.7939 O   0  0  0  0  0  0  0  0  0  0  0  0
  150.3445  139.1357  157.4494 N   0  0  0  0  0  0  0  0  0  0  0  0
  150.7137  140.5075  157.4881 C   0  0  0  0  0  0  0  0  0  0  0  0
  151.7251  140.9575  158.3731 C   0  0  0  0  0  0  0  0  0  0  0  0
  152.0248  142.3303  158.4564 C   0  0  0  0  0  0  0  0  0  0  0  0
  151.2949  143.2337  157.6648 C   0  0  0  0  0  0  0  0  0  0  0  0
  150.3292  142.7746  156.8420 N   0  3  0  0  0  0  0  0  0  0  0  0
  150.0045  141.4640  156.7059 C   0  0  0  0  0  0  0  0  0  0  0  0
  148.9760  141.1299  155.7949 N   0  0  0  0  0  0  0  0  0  0  0  0
  147.5905  141.4826  156.0808 C   0  0  0  0  0  0  0  0  0  0  0  0
  146.8495  141.2732  154.7630 C   0  0  0  0  0  0  0  0  0  0  0  0
  147.8948  141.6809  153.7290 C   0  0  0  0  0  0  0  0  0  0  0  0
  149.2211  141.2449  154.3603 C   0  0  0  0  0  0  0  0  0  0  0  0
  149.6758  133.5551  153.7465 C   0  0  0  0  0  0  0  0  0  0  0  0
  149.2278  132.3277  154.5698 C   0  0  2  0  0  0  0  0  0  0  0  0
  149.5150  131.0116  153.8390 C   0  0  0  0  0  0  0  0  0  0  0  0
  147.8258  132.4048  154.8064 O   0  0  0  0  0  0  0  0  0  0  0  0
  145.6097  134.3566  156.3887 H   0  0  0  0  0  0  0  0  0  0  0  0
  145.7039  132.5983  156.3971 H   0  0  0  0  0  0  0  0  0  0  0  0
  145.3745  133.4536  154.8924 H   0  0  0  0  0  0  0  0  0  0  0  0
  147.9803  133.5771  156.4951 H   0  0  0  0  0  0  0  0  0  0  0  0
  147.2738  134.8091  153.7742 H   0  0  0  0  0  0  0  0  0  0  0  0
  147.5374  135.7294  155.2325 H   0  0  0  0  0  0  0  0  0  0  0  0
  150.0873  134.4917  156.3317 H   0  0  0  0  0  0  0  0  0  0  0  0
  151.1818  135.2906  155.2406 H   0  0  0  0  0  0  0  0  0  0  0  0
  149.7610  137.3727  155.3953 H   0  0  0  0  0  0  0  0  0  0  0  0
  148.6198  136.5256  156.3886 H   0  0  0  0  0  0  0  0  0  0  0  0
  149.3971  138.9435  157.1582 H   0  0  0  0  0  0  0  0  0  0  0  0
  152.2601  140.2644  159.0054 H   0  0  0  0  0  0  0  0  0  0  0  0
  152.7936  142.6848  159.1273 H   0  0  0  0  0  0  0  0  0  0  0  0
  151.4490  144.3030  157.6674 H   0  0  0  0  0  0  0  0  0  0  0  0
  147.1780  140.8658  156.8798 H   0  0  0  0  0  0  0  0  0  0  0  0
  147.5196  142.5294  156.3798 H   0  0  0  0  0  0  0  0  0  0  0  0
  146.5966  140.2191  154.6400 H   0  0  0  0  0  0  0  0  0  0  0  0
  145.9292  141.8541  154.6951 H   0  0  0  0  0  0  0  0  0  0  0  0
  147.7244  141.2312  152.7504 H   0  0  0  0  0  0  0  0  0  0  0  0
  147.8857  142.7648  153.6071 H   0  0  0  0  0  0  0  0  0  0  0  0
  150.0188  141.9538  154.1342 H   0  0  0  0  0  0  0  0  0  0  0  0
  149.5148  140.2684  153.9740 H   0  0  0  0  0  0  0  0  0  0  0  0
  149.2071  133.5222  152.7620 H   0  0  0  0  0  0  0  0  0  0  0  0
  150.7523  133.5286  153.5722 H   0  0  0  0  0  0  0  0  0  0  0  0
  149.7488  132.3029  155.5277 H   0  0  0  0  0  0  0  0  0  0  0  0
  150.5812  130.8963  153.6430 H   0  0  0  0  0  0  0  0  0  0  0  0
  148.9919  130.9668  152.8833 H   0  0  0  0  0  0  0  0  0  0  0  0
  149.1928  130.1572  154.4347 H   0  0  0  0  0  0  0  0  0  0  0  0
  149.4004  135.5609  153.7136 H   0  0  0  0  0  0  0  0  0  0  0  0
  149.8165  143.4552  156.2817 H   0  0  0  0  0  0  0  0  0  0  0  0
  1  2  1  0  0  0  0
  1 26  1  0  0  0  0
  1 27  1  0  0  0  0
  1 28  1  0  0  0  0
  2 25  1  0  0  0  0
  2  3  1  0  0  0  0
  2 29  1  0  0  0  0
  3  4  1  0  0  0  0
  3 30  1  0  0  0  0
  3 31  1  0  0  0  0
  4  5  1  0  0  0  0
  4 22  1  0  0  0  0
  4 54  1  0  0  0  0
  5  6  1  0  0  0  0
  5 32  1  0  0  0  0
  5 33  1  0  0  0  0
  6  7  1  0  0  0  0
  6 34  1  0  0  0  0
  6 35  1  0  0  0  0
  7  8  1  0  0  0  0
  8  9  2  0  0  0  0
  8 10  1  0  0  0  0
 10 11  1  0  0  0  0
 10 36  1  0  0  0  0
 11 16  1  0  0  0  0
 11 12  2  0  0  0  0
 12 13  1  0  0  0  0
 12 37  1  0  0  0  0
 13 14  2  0  0  0  0
 13 38  1  0  0  0  0
 14 15  1  0  0  0  0
 14 39  1  0  0  0  0
 15 16  2  0  0  0  0
 15 55  1  0  0  0  0
 16 17  1  0  0  0  0
 17 21  1  0  0  0  0
 17 18  1  0  0  0  0
 18 19  1  0  0  0  0
 18 40  1  0  0  0  0
 18 41  1  0  0  0  0
 19 20  1  0  0  0  0
 19 42  1  0  0  0  0
 19 43  1  0  0  0  0
 20 21  1  0  0  0  0
 20 44  1  0  0  0  0
 20 45  1  0  0  0  0
 21 46  1  0  0  0  0
 21 47  1  0  0  0  0
 22 23  1  0  0  0  0
 22 48  1  0  0  0  0
 22 49  1  0  0  0  0
 23 24  1  0  0  0  0
 23 25  1  0  0  0  0
 23 50  1  0  0  0  0
 24 51  1  0  0  0  0
 24 52  1  0  0  0  0
 24 53  1  0  0  0  0
M  CHG  1   4   1
M  CHG  1   7  -1
M  CHG  1  15   1
M  END
> <s_m_source_file>
AV-unprocessed.smi

> <i_m_source_file_index>
1244

> <i_lp_mmshare_version>
43012

> <i_f3d_flags>
0

> <s_epik_input>
W0NIM11bQ0BASF0xW0NIMl1OKFtDSDJdW0NASF0oTzEpW0NIM10pW0NIMl1bQ0gyXVtOSF1DKD1PKVtOSF1jMltjSF1bY0hdW2NIXW5jMk4zW0NIMl1bQ0gyXVtDSDJdW0NIMl0z

> <s_epik_cmdline>
J2VwaWtfcHl0aG9uJywgJy1waCcsICc3LjAnLCAnLXRuJywgJzgnLCAnLW1hJywgJzIwMCcsICctbWV0YWxfYmluZGluZycsICctaW1hZScsICc8aW5maWxlLm1hZT4nLCAnLW9tYWUnLCAnPG91dGZpbGUubWFlPic=

> <r_lp_tautomer_probability>
0.999994

> <r_epik_Ionization_Penalty>
8.60539

> <r_epik_Ionization_Penalty_Charging>
8.60539

> <r_epik_Ionization_Penalty_Neutral>
3.60441e-06

> <r_epik_State_Penalty>
8.59967

> <r_epik_Charging_Adjusted_Penalty>
17.2051

> <i_epik_Tot_Q>
1

> <i_epik_Tot_abs_Q>
3

> <r_epik_Metal_State_Penalty>
4.59489

> <b_epik_Metal_Only>
1

> <s_lp_Force_Field>
OPLS_2005

> <r_lp_Energy>
45.4407

> <b_lp_Chiralities_Consistent>
1

> <s_lp_Variant>
AV-unprocessed.smi:1244-17

> <Gold.Version>
5.8.1

> <Gold.Id.Protein>
6NUR|6NUR_protein|mol2

> <Gold.PLP.Fitness>
43.8034

> <Gold.PLP.PLP>
-33.2156

> <Gold.PLP.part.hbond>
-2.0000

> <Gold.PLP.part.metal>
0.0000

> <Gold.PLP.part.buried>
-5.2577

> <Gold.PLP.part.nonpolar>
-25.3628

> <Gold.PLP.part.repulsive>
0.1598

> <Gold.PLP.ligand.clash>
0.0000

> <Gold.PLP.ligand.torsion>
1.0288

> <Gold.PLP.Chemscore.Hbond>
3.9840

> <Gold.PLP.Chemscore.CHOScore>
0.0000

> <Gold.PLP.Chemscore.Metal>
0.0000

> <Gold.Chemscore.Hbonds>
donor molecule, donor type, donor heavy atom, donor atom, acceptor molecule, acceptor atom, score
      L1  H     4    54       P1  7948  1.89
      L1  H    15    55       P1  8028  2.00

> <Gold.PLP.Chemscore.Internal.Correction>
0.6934

> <Gold.Rescore>
     Score         DG    S(hbond)    S(metal)    S(lipo)     H(rot)  DE(clash)    DE(int)     intcor
     14.68     -16.98       1.70        0.00      84.74       1.60       0.01       2.28       ----

> <Gold.Chemscore.Fitness>
14.6835

> <Gold.Chemscore.DG>
-16.9810

> <Gold.Chemscore.ZeroCoef>
-5.4800

> <Gold.Chemscore.Hbond>
1.6998

> <Gold.Chemscore.Metal>
0.0000

> <Gold.Chemscore.Lipo>
84.7369

> <Gold.Chemscore.Internal_Hbond>
0.0000

> <Gold.Chemscore.DEClash>
0.0141

> <Gold.Chemscore.DEInternal>
2.2835

> <Gold.Chemscore.Rot>
1.5978

> <Gold.Chemscore.Internal.Correction>
   9.000000E+99

> <Gold.Chemscore.Hbonds>
donor molecule, donor type, donor heavy atom, donor atom, acceptor molecule, acceptor atom, score
      L1  H     4    54       P1  7948  0.31
      L1  H    15    55       P1  8028  1.00

> <Gold.Chemscore.Hbond.Weighted>
-5.6773

> <Gold.Chemscore.Metal.Weighted>
-0.0000

> <Gold.Chemscore.Lipo.Weighted>
-9.9142

> <Gold.Chemscore.Internal_Hbond.Weighted>
0.0000

> <Gold.Chemscore.DEClash.Weighted>
0.0141

> <Gold.Chemscore.DEInternal.Weighted>
2.2835

> <Gold.Chemscore.Rot.Weighted>
4.0905

> <Gold.Chemscore.Internal.Correction.Weighted>
   9.000000E+99

> <Gold.Protein.RotatedTorsions>
[ 6907 6896 6895 6894 ] final  132.40 input  -60.11 | X-H torsion
[ 7974 7965 7964 7962 ] final  -85.61 input  175.53 | X-H torsion
[ 8008 7997 7996 7995 ] final  122.66 input   59.86 | X-H torsion
[ 10167 10162 10161 10158 ] final -165.80 input  -65.29 | X-H torsion
[ 10718 10713 10712 10709 ] final  -93.28 input   66.30 | X-H torsion
[ 10763 10752 10751 10750 ] final  -88.25 input  -60.55 | X-H torsion
[ 11005 11000 10999 10996 ] final  -55.39 input  -57.11 | X-H torsion

> <Gold.Protein.ActiveResidues>
 VAL166  LYS551  ARG553  GLY616  TRP617  ASP618  TYR619  PRO620  LYS621  CYS622 
 ASP623  PHE694  ASN695  SER759  ASP760  ASP761  ALA762  ILE779  LEU786  VAL792 
 PHE793  MET794  SER795  GLU796  ALA797  LYS798  CYS799  TRP800  GLU811  SER814 

> <Gold.Protein.RotatedAtoms>
  152.3328  133.5977  159.5821 H   0  0  0  0  0  0  0  0  0  0  0  0  # atno 6907 bound_to 6896
  150.7433  133.9842  159.3595 H   0  0  0  0  0  0  0  0  0  0  0  0  # atno 6908 bound_to 6896
  151.7715  135.0786  160.0411 H   0  0  0  0  0  0  0  0  0  0  0  0  # atno 6909 bound_to 6896
  145.4910  140.9552  143.1812 H   0  0  0  0  0  0  0  0  0  0  0  0  # atno 7974 bound_to 7965
  156.2736  140.2780  156.1503 H   0  0  0  0  0  0  0  0  0  0  0  0  # atno 8008 bound_to 7997
  155.0860  140.0388  157.2671 H   0  0  0  0  0  0  0  0  0  0  0  0  # atno 8009 bound_to 7997
  154.6927  140.2632  155.6803 H   0  0  0  0  0  0  0  0  0  0  0  0  # atno 8010 bound_to 7997
  139.6157  144.0724  152.1886 H   0  0  0  0  0  0  0  0  0  0  0  0  # atno 10167 bound_to 10162
  156.0011  130.5020  150.5752 H   0  0  0  0  0  0  0  0  0  0  0  0  # atno 10718 bound_to 10713
  154.6425  135.5384  153.7806 H   0  0  0  0  0  0  0  0  0  0  0  0  # atno 10763 bound_to 10752
  153.0342  135.6463  154.1138 H   0  0  0  0  0  0  0  0  0  0  0  0  # atno 10764 bound_to 10752
  154.1061  135.2930  155.3221 H   0  0  0  0  0  0  0  0  0  0  0  0  # atno 10765 bound_to 10752
  141.1071  133.6612  156.4462 H   0  0  0  0  0  0  0  0  0  0  0  0  # atno 11005 bound_to 11000
  144.7834  139.6478  143.7144 LP  0  0  0  0  0  0  0  0  0  0  0  0  # atno 17320 bound_to 7965
  146.2284  139.5766  142.9572 LP  0  0  0  0  0  0  0  0  0  0  0  0  # atno 17321 bound_to 7965
  140.0353  144.6049  150.7454 LP  0  0  0  0  0  0  0  0  0  0  0  0  # atno 17342 bound_to 10162
  140.7349  143.2735  151.3814 LP  0  0  0  0  0  0  0  0  0  0  0  0  # atno 17343 bound_to 10162
  157.3641  131.0754  151.1612 LP  0  0  0  0  0  0  0  0  0  0  0  0  # atno 17370 bound_to 10713
  157.2387  130.6559  149.5880 LP  0  0  0  0  0  0  0  0  0  0  0  0  # atno 17371 bound_to 10713
  140.4873  134.6609  157.5196 LP  0  0  0  0  0  0  0  0  0  0  0  0  # atno 17394 bound_to 11000
  139.9947  134.6930  155.9630 LP  0  0  0  0  0  0  0  0  0  0  0  0  # atno 17395 bound_to 11000

$$$$
