AV-unprocessed.smi:100|AV-procd|sdf|910|dock2
  -GOLD-   2262017403D 1   1.00000     0.00000
 Structure written by MMmdl.
 31 33  0  0  0  0  0  0  0  0  1 V2000
  150.2959  144.1052  161.0461 N   0  0  0  0  0  0  0  0  0  0  0  0
  150.7673  143.9361  159.8031 C   0  0  0  0  0  0  0  0  0  0  0  0
  151.8049  144.7056  159.3981 N   0  0  0  0  0  0  0  0  0  0  0  0
  152.2929  144.5573  158.1619 C   0  0  0  0  0  0  0  0  0  0  0  0
  151.8957  143.7181  157.2008 N   0  0  0  0  0  0  0  0  0  0  0  0
  150.8524  142.9413  157.6154 C   0  0  0  0  0  0  0  0  0  0  0  0
  150.2312  142.9902  158.8936 C   0  0  0  0  0  0  0  0  0  0  0  0
  149.2004  142.0613  158.9541 N   0  0  0  0  0  0  0  0  0  0  0  0
  149.2171  141.4967  157.7759 C   0  0  0  0  0  0  0  0  0  0  0  0
  150.1835  141.9649  156.9112 N   0  0  0  0  0  0  0  0  0  0  0  0
  150.4623  141.5425  155.5075 C   0  0  1  0  0  0  0  0  0  0  0  0
  151.5580  140.6793  155.5442 O   0  0  0  0  0  0  0  0  0  0  0  0
  151.3176  139.5769  154.6808 C   0  0  1  0  0  0  0  0  0  0  0  0
  152.1943  138.3752  155.0650 C   0  0  0  0  0  0  0  0  0  0  0  0
  152.1831  137.4186  154.0276 O   0  0  0  0  0  0  0  0  0  0  0  0
  149.8158  139.3417  154.8486 C   0  0  1  0  0  0  0  0  0  0  0  0
  149.5662  138.6852  155.9838 F   0  0  0  0  0  0  0  0  0  0  0  0
  149.2629  140.7540  154.9528 C   0  0  2  0  0  0  0  0  0  0  0  0
  148.8594  141.2241  153.6822 O   0  0  0  0  0  0  0  0  0  0  0  0
  149.5226  143.5429  161.3714 H   0  0  0  0  0  0  0  0  0  0  0  0
  150.7175  144.7907  161.6557 H   0  0  0  0  0  0  0  0  0  0  0  0
  153.1208  145.2023  157.9067 H   0  0  0  0  0  0  0  0  0  0  0  0
  148.5199  140.7177  157.5032 H   0  0  0  0  0  0  0  0  0  0  0  0
  150.6977  142.4578  154.9620 H   0  0  0  0  0  0  0  0  0  0  0  0
  151.5113  139.8819  153.6504 H   0  0  0  0  0  0  0  0  0  0  0  0
  153.2168  138.6839  155.2857 H   0  0  0  0  0  0  0  0  0  0  0  0
  151.7991  137.8929  155.9595 H   0  0  0  0  0  0  0  0  0  0  0  0
  151.5844  137.7094  153.3570 H   0  0  0  0  0  0  0  0  0  0  0  0
  149.3786  138.7571  154.0382 H   0  0  0  0  0  0  0  0  0  0  0  0
  148.4056  140.8078  155.6262 H   0  0  0  0  0  0  0  0  0  0  0  0
  149.4607  140.8892  153.0344 H   0  0  0  0  0  0  0  0  0  0  0  0
  1  2  1  0  0  0  0
  1 20  1  0  0  0  0
  1 21  1  0  0  0  0
  2  7  1  0  0  0  0
  2  3  2  0  0  0  0
  3  4  1  0  0  0  0
  4  5  2  0  0  0  0
  4 22  1  0  0  0  0
  5  6  1  0  0  0  0
  6 10  1  0  0  0  0
  6  7  2  0  0  0  0
  7  8  1  0  0  0  0
  8  9  2  0  0  0  0
  9 10  1  0  0  0  0
  9 23  1  0  0  0  0
 10 11  1  0  0  0  0
 11 18  1  0  0  0  0
 11 12  1  0  0  0  0
 11 24  1  0  0  0  0
 12 13  1  0  0  0  0
 13 14  1  0  0  0  0
 13 16  1  0  0  0  0
 13 25  1  0  0  0  0
 14 15  1  0  0  0  0
 14 26  1  0  0  0  0
 14 27  1  0  0  0  0
 15 28  1  0  0  0  0
 16 17  1  0  0  0  0
 16 18  1  0  0  0  0
 16 29  1  0  0  0  0
 18 19  1  0  0  0  0
 18 30  1  0  0  0  0
 19 31  1  0  0  0  0
M  END
> <s_m_source_file>
AV-unprocessed.smi

> <i_m_source_file_index>
100

> <i_lp_mmshare_version>
43012

> <i_f3d_flags>
0

> <s_epik_input>
bjFbY0hdbmMoW05IMl0pYyhjMTIpbltjSF1uMltDQEBIXTNPW0NAQEhdKFtDSDJdW09IXSlbQ0BIXShGKVtDQEhdM1tPSF0=

> <s_epik_cmdline>
J2VwaWtfcHl0aG9uJywgJy1waCcsICc3LjAnLCAnLXRuJywgJzgnLCAnLW1hJywgJzIwMCcsICctbWV0YWxfYmluZGluZycsICctaW1hZScsICc8aW5maWxlLm1hZT4nLCAnLW9tYWUnLCAnPG91dGZpbGUubWFlPic=

> <r_lp_tautomer_probability>
1

> <r_epik_Ionization_Penalty>
0.000750324

> <r_epik_Ionization_Penalty_Charging>
0

> <r_epik_Ionization_Penalty_Neutral>
0.000750324

> <r_epik_State_Penalty>
-0

> <r_epik_Charging_Adjusted_Penalty>
0

> <i_epik_Tot_Q>
0

> <i_epik_Tot_abs_Q>
0

> <r_epik_Metal_State_Penalty>
-0

> <b_epik_Metal_Only>
0

> <s_epik_Chemistry_Notes>
This compound contains an acetal/aminal-like group ( X-CH(R)-Y where X, Y are N, S, or O) that may be acid/base labile, releasing an aldehyde.

> <s_lp_Force_Field>
OPLS_2005

> <r_lp_Energy>
27.3407

> <b_lp_Chiralities_Consistent>
1

> <s_lp_Variant>
AV-unprocessed.smi:100-14

> <Gold.Version>
5.8.1

> <Gold.Id.Protein>
6NUR|6NUR_protein|mol2

> <Gold.PLP.Fitness>
34.7315

> <Gold.PLP.PLP>
-30.1022

> <Gold.PLP.part.hbond>
-6.2970

> <Gold.PLP.part.metal>
0.0000

> <Gold.PLP.part.buried>
-0.0332

> <Gold.PLP.part.nonpolar>
-24.3000

> <Gold.PLP.part.repulsive>
0.3606

> <Gold.PLP.ligand.clash>
0.0000

> <Gold.PLP.ligand.torsion>
0.6209

> <Gold.PLP.Chemscore.Hbond>
1.9516

> <Gold.PLP.Chemscore.CHOScore>
0.0000

> <Gold.PLP.Chemscore.Metal>
0.0000

> <Gold.Chemscore.Hbonds>
donor molecule, donor type, donor heavy atom, donor atom, acceptor molecule, acceptor atom, score
      L1  H    19    31       P1  7957  0.84
      P1  H 10752 10765       L1    15  0.85

> <Gold.PLP.Chemscore.Internal.Correction>
0.0163

> <Gold.Rescore>
     Score         DG    S(hbond)    S(metal)    S(lipo)     H(rot)  DE(clash)    DE(int)     intcor
      4.42      -7.89       1.93        0.00      35.40       3.19       2.84       0.64       ----

> <Gold.Chemscore.Fitness>
4.4178

> <Gold.Chemscore.DG>
-7.8880

> <Gold.Chemscore.ZeroCoef>
-5.4800

> <Gold.Chemscore.Hbond>
1.9259

> <Gold.Chemscore.Metal>
0.0000

> <Gold.Chemscore.Lipo>
35.4042

> <Gold.Chemscore.Internal_Hbond>
0.0000

> <Gold.Chemscore.DEClash>
2.8350

> <Gold.Chemscore.DEInternal>
0.6351

> <Gold.Chemscore.Rot>
3.1901

> <Gold.Chemscore.Internal.Correction>
   9.000000E+99

> <Gold.Chemscore.Hbonds>
donor molecule, donor type, donor heavy atom, donor atom, acceptor molecule, acceptor atom, score
      L1  H    19    31       P1  7957  0.79
      P1  H 10752 10765       L1    15  0.82

> <Gold.Chemscore.Hbond.Weighted>
-6.4324

> <Gold.Chemscore.Metal.Weighted>
-0.0000

> <Gold.Chemscore.Lipo.Weighted>
-4.1423

> <Gold.Chemscore.Internal_Hbond.Weighted>
0.0000

> <Gold.Chemscore.DEClash.Weighted>
2.8350

> <Gold.Chemscore.DEInternal.Weighted>
0.6351

> <Gold.Chemscore.Rot.Weighted>
8.1667

> <Gold.Chemscore.Internal.Correction.Weighted>
   9.000000E+99

> <Gold.Protein.RotatedTorsions>
[ 6907 6896 6895 6894 ] final  101.10 input  -60.11 | X-H torsion
[ 7974 7965 7964 7962 ] final  -64.14 input  175.53 | X-H torsion
[ 8008 7997 7996 7995 ] final    8.99 input   59.86 | X-H torsion
[ 10167 10162 10161 10158 ] final  -20.99 input  -65.29 | X-H torsion
[ 10718 10713 10712 10709 ] final   71.99 input   66.30 | X-H torsion
[ 10763 10752 10751 10750 ] final  160.12 input  -60.55 | X-H torsion
[ 11005 11000 10999 10996 ] final   50.35 input  -57.11 | X-H torsion

> <Gold.Protein.ActiveResidues>
 VAL166  LYS551  ARG553  GLY616  TRP617  ASP618  TYR619  PRO620  LYS621  CYS622 
 ASP623  PHE694  ASN695  SER759  ASP760  ASP761  ALA762  ILE779  LEU786  VAL792 
 PHE793  MET794  SER795  GLU796  ALA797  LYS798  CYS799  TRP800  GLU811  SER814 

> <Gold.Protein.RotatedAtoms>
  152.5357  134.0176  159.7966 H   0  0  0  0  0  0  0  0  0  0  0  0  # atno 6907 bound_to 6896
  151.0368  133.5733  159.2662 H   0  0  0  0  0  0  0  0  0  0  0  0  # atno 6908 bound_to 6896
  151.2718  135.0694  159.9190 H   0  0  0  0  0  0  0  0  0  0  0  0  # atno 6909 bound_to 6896
  145.7704  140.8815  143.0383 H   0  0  0  0  0  0  0  0  0  0  0  0  # atno 7974 bound_to 7965
  154.7742  140.2807  155.6114 H   0  0  0  0  0  0  0  0  0  0  0  0  # atno 8008 bound_to 7997
  156.2939  140.2635  156.2479 H   0  0  0  0  0  0  0  0  0  0  0  0  # atno 8009 bound_to 7997
  154.9863  140.0374  157.2290 H   0  0  0  0  0  0  0  0  0  0  0  0  # atno 8010 bound_to 7997
  140.7279  143.4670  151.0300 H   0  0  0  0  0  0  0  0  0  0  0  0  # atno 10167 bound_to 10162
  157.6479  130.9556  150.0866 H   0  0  0  0  0  0  0  0  0  0  0  0  # atno 10718 bound_to 10713
  154.2425  135.2774  155.2848 H   0  0  0  0  0  0  0  0  0  0  0  0  # atno 10763 bound_to 10752
  154.5533  135.5668  153.6945 H   0  0  0  0  0  0  0  0  0  0  0  0  # atno 10764 bound_to 10752
  152.9997  135.6280  154.2569 H   0  0  0  0  0  0  0  0  0  0  0  0  # atno 10765 bound_to 10752
  140.1025  134.5063  155.8750 H   0  0  0  0  0  0  0  0  0  0  0  0  # atno 11005 bound_to 11000
  144.6813  139.9848  143.7484 LP  0  0  0  0  0  0  0  0  0  0  0  0  # atno 17320 bound_to 7965
  146.0175  139.3222  143.0833 LP  0  0  0  0  0  0  0  0  0  0  0  0  # atno 17321 bound_to 7965
  139.8359  143.7629  152.3180 LP  0  0  0  0  0  0  0  0  0  0  0  0  # atno 17342 bound_to 10162
  139.7760  144.7460  151.0155 LP  0  0  0  0  0  0  0  0  0  0  0  0  # atno 17343 bound_to 10162
  156.1827  130.3651  149.9014 LP  0  0  0  0  0  0  0  0  0  0  0  0  # atno 17370 bound_to 10713
  156.6962  130.8915  151.3594 LP  0  0  0  0  0  0  0  0  0  0  0  0  # atno 17371 bound_to 10713
  141.2109  133.6700  156.6545 LP  0  0  0  0  0  0  0  0  0  0  0  0  # atno 17394 bound_to 11000
  140.3201  134.8015  157.4245 LP  0  0  0  0  0  0  0  0  0  0  0  0  # atno 17395 bound_to 11000

$$$$
