AV-unprocessed.smi:217|AV-procd|sdf|1661|dock5
  -GOLD-   2262020 53D 1   1.00000     0.00000
 Structure written by MMmdl.
 57 61  0  0  0  0  0  0  0  0  1 V2000
  146.4492  132.0603  151.2001 O   0  0  0  0  0  0  0  0  0  0  0  0
  146.3032  133.3658  150.6799 C   0  0  0  0  0  0  0  0  0  0  0  0
  145.4777  134.2546  151.6248 C   0  0  0  0  0  0  0  0  0  0  0  0
  144.0047  133.7966  151.6013 C   0  0  0  0  0  0  0  0  0  0  0  0
  143.5031  133.7225  150.2820 O   0  0  0  0  0  0  0  0  0  0  0  0
  146.0794  134.4638  153.0327 C   0  0  0  0  0  0  0  0  0  0  0  0
  145.6833  135.9410  152.9751 C   0  0  0  0  0  0  0  0  0  0  0  0
  146.4752  136.9476  153.6195 N   0  0  0  0  0  0  0  0  0  0  0  0
  146.2671  138.3078  153.5833 C   0  0  0  0  0  0  0  0  0  0  0  0
  147.0967  139.0172  154.2988 N   0  0  0  0  0  0  0  0  0  0  0  0
  147.9219  138.0733  154.8993 C   0  0  0  0  0  0  0  0  0  0  0  0
  149.0152  138.1461  155.8092 C   0  0  0  0  0  0  0  0  0  0  0  0
  149.5072  139.3225  156.2770 N   0  0  0  0  0  0  0  0  0  0  0  0
  149.9644  140.2474  155.2410 C   0  0  0  0  0  0  0  0  0  0  0  0
  150.1378  141.6663  155.8071 C   0  0  0  0  0  0  0  0  0  0  0  0
  151.0732  141.6749  157.0330 C   0  0  0  0  0  0  0  0  0  0  0  0
  151.2334  143.0943  157.6141 C   0  0  1  0  0  0  0  0  0  0  0  0
  150.1008  143.5407  158.5400 C   0  0  0  0  0  0  0  0  0  0  0  0
  150.7519  144.5974  159.4177 C   0  0  0  0  0  0  0  0  0  0  0  0
  152.2534  144.3621  159.2313 C   0  0  0  0  0  0  0  0  0  0  0  0
  152.3540  143.1587  158.4827 O   0  0  0  0  0  0  0  0  0  0  0  0
  150.5282  140.6793  158.0771 C   0  0  0  0  0  0  0  0  0  0  0  0
  150.3478  139.2767  157.4746 C   0  0  0  0  0  0  0  0  0  0  0  0
  149.5683  136.9707  156.2138 N   0  0  0  0  0  0  0  0  0  0  0  0
  149.0941  135.8074  155.7593 C   0  0  0  0  0  0  0  0  0  0  0  0
  148.0905  135.5916  154.9079 N   0  0  0  0  0  0  0  0  0  0  0  0
  147.5288  136.7647  154.4979 C   0  0  0  0  0  0  0  0  0  0  0  0
  145.6943  135.7746  151.4536 C   0  0  0  0  0  0  0  0  0  0  0  0
  147.3660  131.8310  151.1833 H   0  0  0  0  0  0  0  0  0  0  0  0
  147.2913  133.7862  150.4923 H   0  0  0  0  0  0  0  0  0  0  0  0
  145.8185  133.2826  149.7066 H   0  0  0  0  0  0  0  0  0  0  0  0
  143.8922  132.8106  152.0522 H   0  0  0  0  0  0  0  0  0  0  0  0
  143.3688  134.4655  152.1815 H   0  0  0  0  0  0  0  0  0  0  0  0
  142.6021  134.0075  150.2876 H   0  0  0  0  0  0  0  0  0  0  0  0
  145.5961  133.9006  153.8318 H   0  0  0  0  0  0  0  0  0  0  0  0
  147.1620  134.3255  153.0605 H   0  0  0  0  0  0  0  0  0  0  0  0
  144.6649  136.0807  153.3414 H   0  0  0  0  0  0  0  0  0  0  0  0
  145.4772  138.7624  153.0030 H   0  0  0  0  0  0  0  0  0  0  0  0
  150.9153  139.8872  154.8462 H   0  0  0  0  0  0  0  0  0  0  0  0
  149.2720  140.2800  154.4007 H   0  0  0  0  0  0  0  0  0  0  0  0
  150.5298  142.3197  155.0274 H   0  0  0  0  0  0  0  0  0  0  0  0
  149.1618  142.0672  156.0839 H   0  0  0  0  0  0  0  0  0  0  0  0
  152.0557  141.3269  156.7104 H   0  0  0  0  0  0  0  0  0  0  0  0
  151.3673  143.8228  156.8119 H   0  0  0  0  0  0  0  0  0  0  0  0
  149.2345  143.9193  157.9970 H   0  0  0  0  0  0  0  0  0  0  0  0
  149.7705  142.7061  159.1602 H   0  0  0  0  0  0  0  0  0  0  0  0
  150.4801  145.6035  159.0959 H   0  0  0  0  0  0  0  0  0  0  0  0
  150.4479  144.4839  160.4587 H   0  0  0  0  0  0  0  0  0  0  0  0
  152.7016  145.1780  158.6627 H   0  0  0  0  0  0  0  0  0  0  0  0
  152.7843  144.2765  160.1797 H   0  0  0  0  0  0  0  0  0  0  0  0
  151.1998  140.6158  158.9335 H   0  0  0  0  0  0  0  0  0  0  0  0
  149.5710  141.0351  158.4608 H   0  0  0  0  0  0  0  0  0  0  0  0
  149.8994  138.6201  158.2214 H   0  0  0  0  0  0  0  0  0  0  0  0
  151.3207  138.8560  157.2164 H   0  0  0  0  0  0  0  0  0  0  0  0
  149.5907  134.9230  156.1300 H   0  0  0  0  0  0  0  0  0  0  0  0
  146.6632  136.0178  151.0129 H   0  0  0  0  0  0  0  0  0  0  0  0
  144.8889  136.2965  150.9358 H   0  0  0  0  0  0  0  0  0  0  0  0
  1  2  1  0  0  0  0
  1 29  1  0  0  0  0
  2  3  1  0  0  0  0
  2 30  1  0  0  0  0
  2 31  1  0  0  0  0
  3 28  1  0  0  0  0
  3  4  1  0  0  0  0
  3  6  1  0  0  0  0
  4  5  1  0  0  0  0
  4 32  1  0  0  0  0
  4 33  1  0  0  0  0
  5 34  1  0  0  0  0
  6  7  1  0  0  0  0
  6 35  1  0  0  0  0
  6 36  1  0  0  0  0
  7  8  1  0  0  0  0
  7 28  1  0  0  0  0
  7 37  1  0  0  0  0
  8 27  1  0  0  0  0
  8  9  1  0  0  0  0
  9 10  2  0  0  0  0
  9 38  1  0  0  0  0
 10 11  1  0  0  0  0
 11 27  2  0  0  0  0
 11 12  1  0  0  0  0
 12 13  1  0  0  0  0
 12 24  2  0  0  0  0
 13 23  1  0  0  0  0
 13 14  1  0  0  0  0
 14 15  1  0  0  0  0
 14 39  1  0  0  0  0
 14 40  1  0  0  0  0
 15 16  1  0  0  0  0
 15 41  1  0  0  0  0
 15 42  1  0  0  0  0
 16 17  1  0  0  0  0
 16 22  1  0  0  0  0
 16 43  1  0  0  0  0
 17 21  1  0  0  0  0
 17 18  1  0  0  0  0
 17 44  1  0  0  0  0
 18 19  1  0  0  0  0
 18 45  1  0  0  0  0
 18 46  1  0  0  0  0
 19 20  1  0  0  0  0
 19 47  1  0  0  0  0
 19 48  1  0  0  0  0
 20 21  1  0  0  0  0
 20 49  1  0  0  0  0
 20 50  1  0  0  0  0
 22 23  1  0  0  0  0
 22 51  1  0  0  0  0
 22 52  1  0  0  0  0
 23 53  1  0  0  0  0
 23 54  1  0  0  0  0
 24 25  1  0  0  0  0
 25 26  2  0  0  0  0
 25 55  1  0  0  0  0
 26 27  1  0  0  0  0
 28 56  1  0  0  0  0
 28 57  1  0  0  0  0
M  END
> <s_m_source_file>
AV-unprocessed.smi

> <i_m_source_file_index>
217

> <i_lp_mmshare_version>
43012

> <i_f3d_flags>
0

> <s_epik_input>
W09IXVtDSDJdQzEoW0NIMl1bT0hdKVtDSDJdW0NIXShbQ0gyXTEpbihbY0hdbjIpYyhjMjMpbltjSF1uYzNONFtDSDJdW0NIMl1bQ0hdKFtDSDJdW0NIMl00KVtDQEBIXTVbQ0gyXVtDSDJdW0NIMl1PNQ==

> <s_epik_cmdline>
J2VwaWtfcHl0aG9uJywgJy1waCcsICc3LjAnLCAnLXRuJywgJzgnLCAnLW1hJywgJzIwMCcsICctbWV0YWxfYmluZGluZycsICctaW1hZScsICc8aW5maWxlLm1hZT4nLCAnLW9tYWUnLCAnPG91dGZpbGUubWFlPic=

> <r_lp_tautomer_probability>
1

> <r_epik_Ionization_Penalty>
0.0037022

> <r_epik_Ionization_Penalty_Charging>
0

> <r_epik_Ionization_Penalty_Neutral>
0.0037022

> <r_epik_State_Penalty>
0.00257654

> <r_epik_Charging_Adjusted_Penalty>
0.00257654

> <i_epik_Tot_Q>
0

> <i_epik_Tot_abs_Q>
0

> <r_epik_Metal_State_Penalty>
-0

> <b_epik_Metal_Only>
0

> <s_lp_Force_Field>
OPLS_2005

> <r_lp_Energy>
55.0996

> <b_lp_Chiralities_Consistent>
1

> <s_lp_Variant>
AV-unprocessed.smi:217-2

> <Gold.Version>
5.8.1

> <Gold.Id.Protein>
6NUR|6NUR_protein|mol2

> <Gold.PLP.Fitness>
45.0817

> <Gold.PLP.PLP>
-36.9988

> <Gold.PLP.part.hbond>
-2.0000

> <Gold.PLP.part.metal>
0.0000

> <Gold.PLP.part.buried>
-4.3967

> <Gold.PLP.part.nonpolar>
-31.3077

> <Gold.PLP.part.repulsive>
0.3886

> <Gold.PLP.ligand.clash>
0.0000

> <Gold.PLP.ligand.torsion>
0.9054

> <Gold.PLP.Chemscore.Hbond>
2.0000

> <Gold.PLP.Chemscore.CHOScore>
0.9976

> <Gold.PLP.Chemscore.Metal>
0.0000

> <Gold.Chemscore.Hbonds>
donor molecule, donor type, donor heavy atom, donor atom, acceptor molecule, acceptor atom, score
      L1  H     1    29       P1 10747  0.84
      L1  H     5    34       P1 10186  1.00
      L1  C     9    38       P1 10175  1.00

> <Gold.PLP.Chemscore.Internal.Correction>
0.9009

> <Gold.Rescore>
     Score         DG    S(hbond)    S(metal)    S(lipo)     H(rot)  DE(clash)    DE(int)     intcor
     12.44     -14.68       1.91        0.00      95.89       3.28       0.22       2.03       ----

> <Gold.Chemscore.Fitness>
12.4390

> <Gold.Chemscore.DG>
-14.6826

> <Gold.Chemscore.ZeroCoef>
-5.4800

> <Gold.Chemscore.Hbond>
1.9139

> <Gold.Chemscore.Metal>
0.0000

> <Gold.Chemscore.Lipo>
95.8928

> <Gold.Chemscore.Internal_Hbond>
0.0000

> <Gold.Chemscore.DEClash>
0.2174

> <Gold.Chemscore.DEInternal>
2.0263

> <Gold.Chemscore.Rot>
3.2848

> <Gold.Chemscore.Internal.Correction>
   9.000000E+99

> <Gold.Chemscore.Hbonds>
donor molecule, donor type, donor heavy atom, donor atom, acceptor molecule, acceptor atom, score
      L1  H     1    29       P1 10747  0.79
      L1  H     5    34       P1 10186  0.94

> <Gold.Chemscore.Hbond.Weighted>
-6.3923

> <Gold.Chemscore.Metal.Weighted>
-0.0000

> <Gold.Chemscore.Lipo.Weighted>
-11.2195

> <Gold.Chemscore.Internal_Hbond.Weighted>
0.0000

> <Gold.Chemscore.DEClash.Weighted>
0.2174

> <Gold.Chemscore.DEInternal.Weighted>
2.0263

> <Gold.Chemscore.Rot.Weighted>
8.4092

> <Gold.Chemscore.Internal.Correction.Weighted>
   9.000000E+99

> <Gold.Protein.RotatedTorsions>
[ 6907 6896 6895 6894 ] final  -44.72 input  -60.11 | X-H torsion
[ 7974 7965 7964 7962 ] final -168.59 input  175.53 | X-H torsion
[ 8008 7997 7996 7995 ] final  173.97 input   59.86 | X-H torsion
[ 10167 10162 10161 10158 ] final   56.83 input  -65.29 | X-H torsion
[ 10718 10713 10712 10709 ] final   97.73 input   66.30 | X-H torsion
[ 10763 10752 10751 10750 ] final  -77.36 input  -60.55 | X-H torsion
[ 11005 11000 10999 10996 ] final  -28.27 input  -57.11 | X-H torsion

> <Gold.Protein.ActiveResidues>
 VAL166  LYS551  ARG553  GLY616  TRP617  ASP618  TYR619  PRO620  LYS621  CYS622 
 ASP623  PHE694  ASN695  SER759  ASP760  ASP761  ALA762  ILE779  LEU786  VAL792 
 PHE793  MET794  SER795  GLU796  ALA797  LYS798  CYS799  TRP800  GLU811  SER814 

> <Gold.Protein.RotatedAtoms>
  150.9298  134.8713  159.7543 H   0  0  0  0  0  0  0  0  0  0  0  0  # atno 6907 bound_to 6896
  152.5032  134.4096  159.9454 H   0  0  0  0  0  0  0  0  0  0  0  0  # atno 6908 bound_to 6896
  151.4124  133.3683  159.2780 H   0  0  0  0  0  0  0  0  0  0  0  0  # atno 6909 bound_to 6896
  144.7200  140.2347  143.6299 H   0  0  0  0  0  0  0  0  0  0  0  0  # atno 7974 bound_to 7965
  156.1021  140.1446  156.9453 H   0  0  0  0  0  0  0  0  0  0  0  0  # atno 8008 bound_to 7997
  154.4709  140.0910  156.7188 H   0  0  0  0  0  0  0  0  0  0  0  0  # atno 8009 bound_to 7997
  155.4741  140.3443  155.4332 H   0  0  0  0  0  0  0  0  0  0  0  0  # atno 8010 bound_to 7997
  140.2045  144.3953  150.6514 H   0  0  0  0  0  0  0  0  0  0  0  0  # atno 10167 bound_to 10162
  157.6908  131.0618  150.4688 H   0  0  0  0  0  0  0  0  0  0  0  0  # atno 10718 bound_to 10713
  154.5119  135.5766  153.6611 H   0  0  0  0  0  0  0  0  0  0  0  0  # atno 10763 bound_to 10752
  152.9899  135.6161  154.2868 H   0  0  0  0  0  0  0  0  0  0  0  0  # atno 10764 bound_to 10752
  154.2783  135.2851  155.2688 H   0  0  0  0  0  0  0  0  0  0  0  0  # atno 10765 bound_to 10752
  140.9193  133.7409  156.0779 H   0  0  0  0  0  0  0  0  0  0  0  0  # atno 11005 bound_to 11000
  145.8377  139.2115  143.1845 LP  0  0  0  0  0  0  0  0  0  0  0  0  # atno 17320 bound_to 7965
  146.0374  140.8198  142.9845 LP  0  0  0  0  0  0  0  0  0  0  0  0  # atno 17321 bound_to 7965
  140.6367  143.2196  151.6380 LP  0  0  0  0  0  0  0  0  0  0  0  0  # atno 17342 bound_to 10162
  139.5204  144.3225  152.0898 LP  0  0  0  0  0  0  0  0  0  0  0  0  # atno 17343 bound_to 10162
  156.5027  130.4121  149.6344 LP  0  0  0  0  0  0  0  0  0  0  0  0  # atno 17370 bound_to 10713
  156.3313  130.7333  151.2263 LP  0  0  0  0  0  0  0  0  0  0  0  0  # atno 17371 bound_to 10713
  140.8008  134.3511  157.5440 LP  0  0  0  0  0  0  0  0  0  0  0  0  # atno 17394 bound_to 11000
  139.8772  134.9196  156.3232 LP  0  0  0  0  0  0  0  0  0  0  0  0  # atno 17395 bound_to 11000

$$$$
