AV-unprocessed.smi:2669|AV-procd|sdf|10344|dock9
  -GOLD-   2272014373D 1   1.00000     0.00000
 Structure written by MMmdl.
 39 41  0  0  0  0  0  0  0  0  1 V2000
  146.6198  135.5663  154.0780 C   0  0  0  0  0  0  0  0  0  0  0  0
  147.9484  136.0179  154.4593 N   0  0  0  0  0  0  0  0  0  0  0  0
  148.8816  135.1182  154.9938 C   0  0  0  0  0  0  0  0  0  0  0  0
  148.7039  133.7859  154.8353 N   0  0  0  0  0  0  0  0  0  0  0  0
  149.6215  132.9644  155.3620 C   0  0  0  0  0  0  0  0  0  0  0  0
  150.7343  133.2680  156.0481 N   0  0  0  0  0  0  0  0  0  0  0  0
  150.9193  134.5852  156.2104 C   0  0  0  0  0  0  0  0  0  0  0  0
  151.9781  135.1813  156.8739 N   0  0  0  0  0  0  0  0  0  0  0  0
  151.6846  136.4728  156.7458 C   0  0  0  0  0  0  0  0  0  0  0  0
  150.5590  136.7920  156.0766 N   0  0  0  0  0  0  0  0  0  0  0  0
  150.0509  138.1293  155.8213 C   0  0  0  0  0  0  0  0  0  0  0  0
  151.0786  139.0262  155.1026 C   0  0  1  0  0  0  0  0  0  0  0  0
  150.3976  139.8699  154.1935 O   0  0  0  0  0  0  0  0  0  0  0  0
  151.8657  139.9020  156.0905 C   0  0  0  0  0  0  0  0  0  0  0  0
  151.0685  141.0240  156.4453 O   0  0  0  0  0  0  0  0  0  0  0  0
  151.3675  141.6969  157.6105 C   0  0  0  0  0  0  0  0  0  0  0  0
  150.6756  142.9027  157.8473 C   0  0  0  0  0  0  0  0  0  0  0  0
  150.9189  143.6577  159.0107 C   0  0  0  0  0  0  0  0  0  0  0  0
  151.8618  143.2105  159.9547 C   0  0  0  0  0  0  0  0  0  0  0  0
  152.1621  144.1337  161.3812 Cl  0  0  0  0  0  0  0  0  0  0  0  0
  152.5591  142.0084  159.7319 C   0  0  0  0  0  0  0  0  0  0  0  0
  152.3156  141.2538  158.5677 C   0  0  0  0  0  0  0  0  0  0  0  0
  150.0164  135.5656  155.6992 C   0  0  0  0  0  0  0  0  0  0  0  0
  146.0323  136.4072  153.7095 H   0  0  0  0  0  0  0  0  0  0  0  0
  146.0978  135.1340  154.9323 H   0  0  0  0  0  0  0  0  0  0  0  0
  146.6782  134.8180  153.2870 H   0  0  0  0  0  0  0  0  0  0  0  0
  148.1792  136.9972  154.3749 H   0  0  0  0  0  0  0  0  0  0  0  0
  149.4407  131.9102  155.2132 H   0  0  0  0  0  0  0  0  0  0  0  0
  152.3254  137.2338  157.1668 H   0  0  0  0  0  0  0  0  0  0  0  0
  149.1380  138.0490  155.2294 H   0  0  0  0  0  0  0  0  0  0  0  0
  149.7591  138.5705  156.7747 H   0  0  0  0  0  0  0  0  0  0  0  0
  151.7710  138.3961  154.5431 H   0  0  0  0  0  0  0  0  0  0  0  0
  149.8536  139.3356  153.6357 H   0  0  0  0  0  0  0  0  0  0  0  0
  152.1658  139.3245  156.9667 H   0  0  0  0  0  0  0  0  0  0  0  0
  152.7723  140.2669  155.6050 H   0  0  0  0  0  0  0  0  0  0  0  0
  149.9501  143.2541  157.1281 H   0  0  0  0  0  0  0  0  0  0  0  0
  150.3814  144.5798  159.1764 H   0  0  0  0  0  0  0  0  0  0  0  0
  153.2839  141.6622  160.4541 H   0  0  0  0  0  0  0  0  0  0  0  0
  152.8708  140.3381  158.4326 H   0  0  0  0  0  0  0  0  0  0  0  0
  1  2  1  0  0  0  0
  1 24  1  0  0  0  0
  1 25  1  0  0  0  0
  1 26  1  0  0  0  0
  2  3  1  0  0  0  0
  2 27  1  0  0  0  0
  3 23  1  0  0  0  0
  3  4  2  0  0  0  0
  4  5  1  0  0  0  0
  5  6  2  0  0  0  0
  5 28  1  0  0  0  0
  6  7  1  0  0  0  0
  7 23  2  0  0  0  0
  7  8  1  0  0  0  0
  8  9  2  0  0  0  0
  9 10  1  0  0  0  0
  9 29  1  0  0  0  0
 10 11  1  0  0  0  0
 10 23  1  0  0  0  0
 11 12  1  0  0  0  0
 11 30  1  0  0  0  0
 11 31  1  0  0  0  0
 12 13  1  0  0  0  0
 12 14  1  0  0  0  0
 12 32  1  0  0  0  0
 13 33  1  0  0  0  0
 14 15  1  0  0  0  0
 14 34  1  0  0  0  0
 14 35  1  0  0  0  0
 15 16  1  0  0  0  0
 16 22  1  0  0  0  0
 16 17  2  0  0  0  0
 17 18  1  0  0  0  0
 17 36  1  0  0  0  0
 18 19  2  0  0  0  0
 18 37  1  0  0  0  0
 19 20  1  0  0  0  0
 19 21  1  0  0  0  0
 21 22  2  0  0  0  0
 21 38  1  0  0  0  0
 22 39  1  0  0  0  0
M  END
> <s_m_source_file>
AV-unprocessed.smi

> <i_m_source_file_index>
2669

> <i_lp_mmshare_version>
43012

> <i_f3d_flags>
0

> <s_epik_input>
bjFbY0hdbmMoW05IXVtDSDNdKWMoYzEyKW4oW2NIXW4yKVtDSDJdW0NASF0oW09IXSlbQ0gyXU9jM1tjSF1bY0hdYyhDbClbY0hdW2NIXTM=

> <s_epik_cmdline>
J2VwaWtfcHl0aG9uJywgJy1waCcsICc3LjAnLCAnLXRuJywgJzgnLCAnLW1hJywgJzIwMCcsICctbWV0YWxfYmluZGluZycsICctaW1hZScsICc8aW5maWxlLm1hZT4nLCAnLW9tYWUnLCAnPG91dGZpbGUubWFlPic=

> <r_lp_tautomer_probability>
1

> <r_epik_Ionization_Penalty>
0.00733592

> <r_epik_Ionization_Penalty_Charging>
0

> <r_epik_Ionization_Penalty_Neutral>
0.00733592

> <r_epik_State_Penalty>
-0

> <r_epik_Charging_Adjusted_Penalty>
0

> <i_epik_Tot_Q>
0

> <i_epik_Tot_abs_Q>
0

> <r_epik_Metal_State_Penalty>
-0

> <b_epik_Metal_Only>
0

> <s_lp_Force_Field>
OPLS_2005

> <r_lp_Energy>
13.4458

> <b_lp_Chiralities_Consistent>
1

> <s_lp_Variant>
AV-unprocessed.smi:2669-2

> <Gold.Version>
5.8.1

> <Gold.Id.Protein>
6NUR|6NUR_protein|mol2

> <Gold.PLP.Fitness>
41.9612

> <Gold.PLP.PLP>
-38.6611

> <Gold.PLP.part.hbond>
-3.6611

> <Gold.PLP.part.metal>
0.0000

> <Gold.PLP.part.buried>
-5.7704

> <Gold.PLP.part.nonpolar>
-29.1395

> <Gold.PLP.part.repulsive>
0.1128

> <Gold.PLP.ligand.clash>
0.0000

> <Gold.PLP.ligand.torsion>
0.9259

> <Gold.PLP.Chemscore.Hbond>
1.6720

> <Gold.PLP.Chemscore.CHOScore>
0.0000

> <Gold.PLP.Chemscore.Metal>
0.0000

> <Gold.Chemscore.Hbonds>
donor molecule, donor type, donor heavy atom, donor atom, acceptor molecule, acceptor atom, score
      P1  H  7989  7998       L1    13  1.00
      P1  H 10752 10764       L1     8  0.29

> <Gold.PLP.Chemscore.Internal.Correction>
0.1358

> <Gold.Rescore>
     Score         DG    S(hbond)    S(metal)    S(lipo)     H(rot)  DE(clash)    DE(int)     intcor
     10.65     -11.81       0.96        0.00      91.80       2.97       0.19       0.97       ----

> <Gold.Chemscore.Fitness>
10.6464

> <Gold.Chemscore.DG>
-11.8072

> <Gold.Chemscore.ZeroCoef>
-5.4800

> <Gold.Chemscore.Hbond>
0.9584

> <Gold.Chemscore.Metal>
0.0000

> <Gold.Chemscore.Lipo>
91.8047

> <Gold.Chemscore.Internal_Hbond>
0.0000

> <Gold.Chemscore.DEClash>
0.1875

> <Gold.Chemscore.DEInternal>
0.9733

> <Gold.Chemscore.Rot>
2.9746

> <Gold.Chemscore.Internal.Correction>
   9.000000E+99

> <Gold.Chemscore.Hbonds>
donor molecule, donor type, donor heavy atom, donor atom, acceptor molecule, acceptor atom, score
      P1  H  7989  7998       L1    13  0.53
      P1  H 10752 10764       L1     8  0.01

> <Gold.Chemscore.Hbond.Weighted>
-3.2010

> <Gold.Chemscore.Metal.Weighted>
-0.0000

> <Gold.Chemscore.Lipo.Weighted>
-10.7412

> <Gold.Chemscore.Internal_Hbond.Weighted>
0.0000

> <Gold.Chemscore.DEClash.Weighted>
0.1875

> <Gold.Chemscore.DEInternal.Weighted>
0.9733

> <Gold.Chemscore.Rot.Weighted>
7.6150

> <Gold.Chemscore.Internal.Correction.Weighted>
   9.000000E+99

> <Gold.Protein.RotatedTorsions>
[ 6907 6896 6895 6894 ] final  100.04 input  -60.11 | X-H torsion
[ 7974 7965 7964 7962 ] final  -31.98 input  175.53 | X-H torsion
[ 8008 7997 7996 7995 ] final  149.97 input   59.86 | X-H torsion
[ 10167 10162 10161 10158 ] final  -68.05 input  -65.29 | X-H torsion
[ 10718 10713 10712 10709 ] final   12.00 input   66.30 | X-H torsion
[ 10763 10752 10751 10750 ] final    3.65 input  -60.55 | X-H torsion
[ 11005 11000 10999 10996 ] final   77.36 input  -57.11 | X-H torsion

> <Gold.Protein.ActiveResidues>
 VAL166  LYS551  ARG553  GLY616  TRP617  ASP618  TYR619  PRO620  LYS621  CYS622 
 ASP623  PHE694  ASN695  SER759  ASP760  ASP761  ALA762  ILE779  LEU786  VAL792 
 PHE793  MET794  SER795  GLU796  ALA797  LYS798  CYS799  TRP800  GLU811  SER814 

> <Gold.Protein.RotatedAtoms>
  152.5380  134.0338  159.8036 H   0  0  0  0  0  0  0  0  0  0  0  0  # atno 6907 bound_to 6896
  151.0504  133.5621  159.2650 H   0  0  0  0  0  0  0  0  0  0  0  0  # atno 6908 bound_to 6896
  151.2557  135.0645  159.9133 H   0  0  0  0  0  0  0  0  0  0  0  0  # atno 6909 bound_to 6896
  146.1026  140.5735  142.8814 H   0  0  0  0  0  0  0  0  0  0  0  0  # atno 7974 bound_to 7965
  156.2734  140.2087  156.5942 H   0  0  0  0  0  0  0  0  0  0  0  0  # atno 8008 bound_to 7997
  154.6958  140.0526  157.0432 H   0  0  0  0  0  0  0  0  0  0  0  0  # atno 8009 bound_to 7997
  155.0803  140.3186  155.4606 H   0  0  0  0  0  0  0  0  0  0  0  0  # atno 8010 bound_to 7997
  140.5537  143.2312  151.6863 H   0  0  0  0  0  0  0  0  0  0  0  0  # atno 10167 bound_to 10162
  157.0038  130.6090  149.5699 H   0  0  0  0  0  0  0  0  0  0  0  0  # atno 10718 bound_to 10713
  153.2808  135.6940  153.7388 H   0  0  0  0  0  0  0  0  0  0  0  0  # atno 10763 bound_to 10752
  153.6376  135.3399  155.3062 H   0  0  0  0  0  0  0  0  0  0  0  0  # atno 10764 bound_to 10752
  154.8494  135.4424  154.1860 H   0  0  0  0  0  0  0  0  0  0  0  0  # atno 10765 bound_to 10752
  139.9258  134.7676  156.1512 H   0  0  0  0  0  0  0  0  0  0  0  0  # atno 11005 bound_to 11000
  144.7444  140.5030  143.6846 LP  0  0  0  0  0  0  0  0  0  0  0  0  # atno 17320 bound_to 7965
  145.5825  139.1490  143.3227 LP  0  0  0  0  0  0  0  0  0  0  0  0  # atno 17321 bound_to 7965
  139.5038  144.3777  152.0408 LP  0  0  0  0  0  0  0  0  0  0  0  0  # atno 17342 bound_to 10162
  140.2896  144.3769  150.6093 LP  0  0  0  0  0  0  0  0  0  0  0  0  # atno 17343 bound_to 10162
  156.0161  130.5255  150.8139 LP  0  0  0  0  0  0  0  0  0  0  0  0  # atno 17370 bound_to 10713
  157.5371  131.0939  150.9878 LP  0  0  0  0  0  0  0  0  0  0  0  0  # atno 17371 bound_to 10713
  141.0814  133.6753  156.2344 LP  0  0  0  0  0  0  0  0  0  0  0  0  # atno 17394 bound_to 11000
  140.6341  134.5233  157.5563 LP  0  0  0  0  0  0  0  0  0  0  0  0  # atno 17395 bound_to 11000

$$$$
