AV-unprocessed.smi:2783|AV-procd|sdf|10725|dock2
  -GOLD-   2272015163D 1   1.00000     0.00000
 Structure written by MMmdl.
 28 28  0  0  0  0  0  0  0  0  2 V2000
  152.5838  139.1180  155.3109 C   0  0  0  0  0  0  0  0  0  0  0  0
  151.7231  140.1993  154.9574 O   0  0  0  0  0  0  0  0  0  0  0  0
  150.6340  140.5161  155.8374 C   0  0  0  0  0  0  0  0  0  0  0  0
  149.6697  141.3787  155.0041 C   0  0  0  0  0  0  0  0  0  0  0  0
  149.9081  139.2268  156.2883 C   0  0  0  0  0  0  0  0  0  0  0  0
  151.1229  141.3466  157.0477 C   0  0  0  0  0  0  0  0  0  0  0  0
  150.7061  142.4951  157.1993 O   0  0  0  0  0  0  0  0  0  0  0  0
  152.0155  140.7450  157.8580 N   0  0  0  0  0  0  0  0  0  0  0  0
  152.6466  141.2074  159.0486 C   0  0  0  0  0  0  0  0  0  0  0  0
  152.2217  142.3359  159.7923 C   0  0  0  0  0  0  0  0  0  0  0  0
  152.9298  142.6836  160.9595 C   0  0  0  0  0  0  0  0  0  0  0  0
  153.9959  141.9969  161.4187 N   0  0  0  0  0  0  0  0  0  0  0  0
  154.3962  140.9183  160.7144 C   0  0  0  0  0  0  0  0  0  0  0  0
  153.7617  140.4817  159.5328 C   0  0  0  0  0  0  0  0  0  0  0  0
  154.2323  139.3731  158.8833 O   0  5  0  0  0  0  0  0  0  0  0  0
  153.4205  139.0885  154.6135 H   0  0  0  0  0  0  0  0  0  0  0  0
  152.0710  138.1591  155.2388 H   0  0  0  0  0  0  0  0  0  0  0  0
  152.9981  139.2159  156.3140 H   0  0  0  0  0  0  0  0  0  0  0  0
  148.7919  141.6727  155.5811 H   0  0  0  0  0  0  0  0  0  0  0  0
  149.3188  140.8367  154.1253 H   0  0  0  0  0  0  0  0  0  0  0  0
  150.1541  142.2903  154.6510 H   0  0  0  0  0  0  0  0  0  0  0  0
  148.9719  139.4542  156.7995 H   0  0  0  0  0  0  0  0  0  0  0  0
  150.5129  138.6346  156.9758 H   0  0  0  0  0  0  0  0  0  0  0  0
  149.6644  138.5960  155.4330 H   0  0  0  0  0  0  0  0  0  0  0  0
  152.2937  139.8147  157.5788 H   0  0  0  0  0  0  0  0  0  0  0  0
  151.3745  142.9380  159.5077 H   0  0  0  0  0  0  0  0  0  0  0  0
  152.6268  143.5396  161.5442 H   0  0  0  0  0  0  0  0  0  0  0  0
  155.2495  140.3857  161.1087 H   0  0  0  0  0  0  0  0  0  0  0  0
  1  2  1  0  0  0  0
  1 16  1  0  0  0  0
  1 17  1  0  0  0  0
  1 18  1  0  0  0  0
  2  3  1  0  0  0  0
  3  4  1  0  0  0  0
  3  5  1  0  0  0  0
  3  6  1  0  0  0  0
  4 19  1  0  0  0  0
  4 20  1  0  0  0  0
  4 21  1  0  0  0  0
  5 22  1  0  0  0  0
  5 23  1  0  0  0  0
  5 24  1  0  0  0  0
  6  7  2  0  0  0  0
  6  8  1  0  0  0  0
  8 25  1  0  0  0  0
  8  9  1  0  0  0  0
  9 10  2  0  0  0  0
  9 14  1  0  0  0  0
 10 11  1  0  0  0  0
 10 26  1  0  0  0  0
 11 12  2  0  0  0  0
 11 27  1  0  0  0  0
 12 13  1  0  0  0  0
 13 14  2  0  0  0  0
 13 28  1  0  0  0  0
 14 15  1  0  0  0  0
M  CHG  1  15  -1
M  END
> <s_m_source_file>
AV-unprocessed.smi

> <i_m_source_file_index>
2783

> <i_lp_mmshare_version>
43012

> <i_f3d_flags>
0

> <s_epik_input>
W0NIM11PQyhbQ0gzXSkoW0NIM10pQyg9TylbTkhdYzFbY0hdW2NIXW5bY0hdYzFbT0hd

> <s_epik_cmdline>
J2VwaWtfcHl0aG9uJywgJy1waCcsICc3LjAnLCAnLXRuJywgJzgnLCAnLW1hJywgJzIwMCcsICctbWV0YWxfYmluZGluZycsICctaW1hZScsICc8aW5maWxlLm1hZT4nLCAnLW9tYWUnLCAnPG91dGZpbGUubWFlPic=

> <r_lp_tautomer_probability>
0.56342

> <r_epik_Ionization_Penalty>
4.44895

> <r_epik_Ionization_Penalty_Charging>
2.11839

> <r_epik_Ionization_Penalty_Neutral>
2.33056

> <r_epik_State_Penalty>
2.66573

> <r_epik_Charging_Adjusted_Penalty>
4.78411

> <i_epik_Tot_Q>
-1

> <i_epik_Tot_abs_Q>
1

> <r_epik_Metal_State_Penalty>
0.617134

> <b_epik_Metal_Only>
1

> <s_lp_Force_Field>
OPLS_2005

> <r_lp_Energy>
12.8614

> <b_lp_Chiralities_Consistent>
1

> <s_lp_Variant>
AV-unprocessed.smi:2783-3

> <Gold.Version>
5.8.1

> <Gold.Id.Protein>
6NUR|6NUR_protein|mol2

> <Gold.PLP.Fitness>
38.0593

> <Gold.PLP.PLP>
-29.6051

> <Gold.PLP.part.hbond>
-2.8537

> <Gold.PLP.part.metal>
0.0000

> <Gold.PLP.part.buried>
-3.2304

> <Gold.PLP.part.nonpolar>
-23.8012

> <Gold.PLP.part.repulsive>
0.2525

> <Gold.PLP.ligand.clash>
0.0000

> <Gold.PLP.ligand.torsion>
0.2777

> <Gold.PLP.Chemscore.Hbond>
2.9920

> <Gold.PLP.Chemscore.CHOScore>
0.0000

> <Gold.PLP.Chemscore.Metal>
0.0000

> <Gold.Chemscore.Hbonds>
donor molecule, donor type, donor heavy atom, donor atom, acceptor molecule, acceptor atom, score
      P1  H  7989  7998       L1     2  0.93
      P1  H  7997  8009       L1    15  2.00

> <Gold.PLP.Chemscore.Internal.Correction>
0.0336

> <Gold.Rescore>
     Score         DG    S(hbond)    S(metal)    S(lipo)     H(rot)  DE(clash)    DE(int)     intcor
     15.48     -16.95       1.89        0.00      71.24       1.24       0.15       1.32       ----

> <Gold.Chemscore.Fitness>
15.4750

> <Gold.Chemscore.DG>
-16.9512

> <Gold.Chemscore.ZeroCoef>
-5.4800

> <Gold.Chemscore.Hbond>
1.8897

> <Gold.Chemscore.Metal>
0.0000

> <Gold.Chemscore.Lipo>
71.2365

> <Gold.Chemscore.Internal_Hbond>
0.0000

> <Gold.Chemscore.DEClash>
0.1534

> <Gold.Chemscore.DEInternal>
1.3227

> <Gold.Chemscore.Rot>
1.2402

> <Gold.Chemscore.Internal.Correction>
   9.000000E+99

> <Gold.Chemscore.Hbonds>
donor molecule, donor type, donor heavy atom, donor atom, acceptor molecule, acceptor atom, score
      P1  H  7989  7998       L1     2  0.83
      P1  H  7997  8009       L1    15  0.50

> <Gold.Chemscore.Hbond.Weighted>
-6.3115

> <Gold.Chemscore.Metal.Weighted>
-0.0000

> <Gold.Chemscore.Lipo.Weighted>
-8.3347

> <Gold.Chemscore.Internal_Hbond.Weighted>
0.0000

> <Gold.Chemscore.DEClash.Weighted>
0.1534

> <Gold.Chemscore.DEInternal.Weighted>
1.3227

> <Gold.Chemscore.Rot.Weighted>
3.1750

> <Gold.Chemscore.Internal.Correction.Weighted>
   9.000000E+99

> <Gold.Protein.RotatedTorsions>
[ 6907 6896 6895 6894 ] final -115.37 input  -60.11 | X-H torsion
[ 7974 7965 7964 7962 ] final  -79.95 input  175.53 | X-H torsion
[ 8008 7997 7996 7995 ] final  126.07 input   59.86 | X-H torsion
[ 10167 10162 10161 10158 ] final -159.59 input  -65.29 | X-H torsion
[ 10718 10713 10712 10709 ] final  139.01 input   66.30 | X-H torsion
[ 10763 10752 10751 10750 ] final  163.14 input  -60.55 | X-H torsion
[ 11005 11000 10999 10996 ] final  126.29 input  -57.11 | X-H torsion

> <Gold.Protein.ActiveResidues>
 VAL166  LYS551  ARG553  GLY616  TRP617  ASP618  TYR619  PRO620  LYS621  CYS622 
 ASP623  PHE694  ASN695  SER759  ASP760  ASP761  ALA762  ILE779  LEU786  VAL792 
 PHE793  MET794  SER795  GLU796  ALA797  LYS798  CYS799  TRP800  GLU811  SER814 

> <Gold.Protein.RotatedAtoms>
  150.7972  133.8669  159.3247 H   0  0  0  0  0  0  0  0  0  0  0  0  # atno 6907 bound_to 6896
  151.6490  135.1002  160.0166 H   0  0  0  0  0  0  0  0  0  0  0  0  # atno 6908 bound_to 6896
  152.4056  133.6844  159.6388 H   0  0  0  0  0  0  0  0  0  0  0  0  # atno 6909 bound_to 6896
  145.5664  140.9473  143.1419 H   0  0  0  0  0  0  0  0  0  0  0  0  # atno 7974 bound_to 7965
  156.2853  140.2701  156.2051 H   0  0  0  0  0  0  0  0  0  0  0  0  # atno 8008 bound_to 7997
  155.0321  140.0386  157.2496 H   0  0  0  0  0  0  0  0  0  0  0  0  # atno 8009 bound_to 7997
  154.7345  140.2713  155.6432 H   0  0  0  0  0  0  0  0  0  0  0  0  # atno 8010 bound_to 7997
  139.6604  143.9923  152.2221 H   0  0  0  0  0  0  0  0  0  0  0  0  # atno 10167 bound_to 10162
  157.4190  131.1036  151.0373 H   0  0  0  0  0  0  0  0  0  0  0  0  # atno 10718 bound_to 10713
  154.2891  135.2761  155.2663 H   0  0  0  0  0  0  0  0  0  0  0  0  # atno 10763 bound_to 10752
  154.5149  135.5772  153.6638 H   0  0  0  0  0  0  0  0  0  0  0  0  # atno 10764 bound_to 10752
  152.9917  135.6190  154.3055 H   0  0  0  0  0  0  0  0  0  0  0  0  # atno 10765 bound_to 10752
  139.9448  134.9631  156.8684 H   0  0  0  0  0  0  0  0  0  0  0  0  # atno 11005 bound_to 11000
  144.7458  139.7324  143.7293 LP  0  0  0  0  0  0  0  0  0  0  0  0  # atno 17320 bound_to 7965
  146.1815  139.5009  142.9863 LP  0  0  0  0  0  0  0  0  0  0  0  0  # atno 17321 bound_to 7965
  139.9661  144.6525  150.8033 LP  0  0  0  0  0  0  0  0  0  0  0  0  # atno 17342 bound_to 10162
  140.7577  143.3092  151.2886 LP  0  0  0  0  0  0  0  0  0  0  0  0  # atno 17343 bound_to 10162
  157.1310  130.6102  149.5529 LP  0  0  0  0  0  0  0  0  0  0  0  0  # atno 17370 bound_to 10713
  155.9874  130.4914  150.7125 LP  0  0  0  0  0  0  0  0  0  0  0  0  # atno 17371 bound_to 10713
  140.5861  134.0306  155.7482 LP  0  0  0  0  0  0  0  0  0  0  0  0  # atno 17394 bound_to 11000
  141.1095  133.9639  157.2935 LP  0  0  0  0  0  0  0  0  0  0  0  0  # atno 17395 bound_to 11000

$$$$
