AV-unprocessed.smi:3010|AV-procd|sdf|11456|dock8
  -GOLD-   2272016393D 1   1.00000     0.00000
 Structure written by MMmdl.
 38 40  0  0  0  0  0  0  0  0  1 V2000
  150.5270  144.6414  159.3769 C   0  0  0  0  0  0  0  0  0  0  0  0
  151.2080  143.3330  159.4031 N   0  0  0  0  0  0  0  0  0  0  0  0
  150.7704  142.3574  158.5460 C   0  0  0  0  0  0  0  0  0  0  0  0
  149.8344  142.4842  157.7558 O   0  0  0  0  0  0  0  0  0  0  0  0
  151.5256  141.1034  158.6392 C   0  0  0  0  0  0  0  0  0  0  0  0
  152.5496  140.9237  159.5082 C   0  0  0  0  0  0  0  0  0  0  0  0
  153.0894  139.6470  159.3997 N   0  0  0  0  0  0  0  0  0  0  0  0
  152.3370  139.1087  158.4393 C   0  0  0  0  0  0  0  0  0  0  0  0
  151.3793  139.9106  157.9311 N   0  0  0  0  0  0  0  0  0  0  0  0
  150.4337  139.5559  156.8827 C   0  0  0  0  0  0  0  0  0  0  0  0
  150.6021  140.4125  155.6116 C   0  0  1  0  0  0  0  0  0  0  0  0
  151.7282  139.9844  154.8694 O   0  0  0  0  0  0  0  0  0  0  0  0
  149.3297  140.4118  154.7786 C   0  0  0  0  0  0  0  0  0  0  0  0
  148.6195  141.6114  154.5493 C   0  0  0  0  0  0  0  0  0  0  0  0
  147.4470  141.6043  153.7692 C   0  0  0  0  0  0  0  0  0  0  0  0
  146.9794  140.3992  153.2111 C   0  0  0  0  0  0  0  0  0  0  0  0
  147.6858  139.2014  153.4323 C   0  0  0  0  0  0  0  0  0  0  0  0
  148.8582  139.2077  154.2131 C   0  0  0  0  0  0  0  0  0  0  0  0
  152.9136  141.9942  160.3618 N   0  0  0  0  0  0  0  0  0  0  0  0
  154.0190  141.7591  161.2955 C   0  0  0  0  0  0  0  0  0  0  0  0
  152.2483  143.1953  160.3067 C   0  0  0  0  0  0  0  0  0  0  0  0
  152.5719  144.1287  161.0465 O   0  0  0  0  0  0  0  0  0  0  0  0
  149.7234  144.7275  158.6448 H   0  0  0  0  0  0  0  0  0  0  0  0
  151.2388  145.4359  159.1466 H   0  0  0  0  0  0  0  0  0  0  0  0
  150.0850  144.8591  160.3505 H   0  0  0  0  0  0  0  0  0  0  0  0
  152.4855  138.0959  158.0941 H   0  0  0  0  0  0  0  0  0  0  0  0
  150.5239  138.4947  156.6554 H   0  0  0  0  0  0  0  0  0  0  0  0
  149.4266  139.6879  157.2803 H   0  0  0  0  0  0  0  0  0  0  0  0
  150.8097  141.4404  155.9129 H   0  0  0  0  0  0  0  0  0  0  0  0
  151.7954  139.0448  154.9437 H   0  0  0  0  0  0  0  0  0  0  0  0
  148.9732  142.5421  154.9689 H   0  0  0  0  0  0  0  0  0  0  0  0
  146.9073  142.5242  153.5978 H   0  0  0  0  0  0  0  0  0  0  0  0
  146.0806  140.3939  152.6121 H   0  0  0  0  0  0  0  0  0  0  0  0
  147.3292  138.2771  153.0020 H   0  0  0  0  0  0  0  0  0  0  0  0
  149.3947  138.2840  154.3740 H   0  0  0  0  0  0  0  0  0  0  0  0
  154.2838  142.6212  161.9080 H   0  0  0  0  0  0  0  0  0  0  0  0
  154.9148  141.4671  160.7466 H   0  0  0  0  0  0  0  0  0  0  0  0
  153.7633  140.9450  161.9744 H   0  0  0  0  0  0  0  0  0  0  0  0
  1  2  1  0  0  0  0
  1 23  1  0  0  0  0
  1 24  1  0  0  0  0
  1 25  1  0  0  0  0
  2 21  1  0  0  0  0
  2  3  1  0  0  0  0
  3  4  2  0  0  0  0
  3  5  1  0  0  0  0
  5  9  1  0  0  0  0
  5  6  2  0  0  0  0
  6  7  1  0  0  0  0
  6 19  1  0  0  0  0
  7  8  2  0  0  0  0
  8  9  1  0  0  0  0
  8 26  1  0  0  0  0
  9 10  1  0  0  0  0
 10 11  1  0  0  0  0
 10 27  1  0  0  0  0
 10 28  1  0  0  0  0
 11 12  1  0  0  0  0
 11 13  1  0  0  0  0
 11 29  1  0  0  0  0
 12 30  1  0  0  0  0
 13 18  1  0  0  0  0
 13 14  2  0  0  0  0
 14 15  1  0  0  0  0
 14 31  1  0  0  0  0
 15 16  2  0  0  0  0
 15 32  1  0  0  0  0
 16 17  1  0  0  0  0
 16 33  1  0  0  0  0
 17 18  2  0  0  0  0
 17 34  1  0  0  0  0
 18 35  1  0  0  0  0
 19 20  1  0  0  0  0
 19 21  1  0  0  0  0
 20 36  1  0  0  0  0
 20 37  1  0  0  0  0
 20 38  1  0  0  0  0
 21 22  2  0  0  0  0
M  END
> <s_m_source_file>
AV-unprocessed.smi

> <i_m_source_file_index>
3010

> <i_lp_mmshare_version>
43012

> <i_f3d_flags>
0

> <s_epik_input>
Tz1jMW4oW0NIM10pYyg9TyluKFtDSDNdKWMoYzEyKW5bY0hdbjJbQ0gyXVtDQEhdKFtPSF0pYzNbY0hdW2NIXVtjSF1bY0hdW2NIXTM=

> <s_epik_cmdline>
J2VwaWtfcHl0aG9uJywgJy1waCcsICc3LjAnLCAnLXRuJywgJzgnLCAnLW1hJywgJzIwMCcsICctbWV0YWxfYmluZGluZycsICctaW1hZScsICc8aW5maWxlLm1hZT4nLCAnLW9tYWUnLCAnPG91dGZpbGUubWFlPic=

> <r_lp_tautomer_probability>
1

> <r_epik_Ionization_Penalty>
1.43747e-06

> <r_epik_Ionization_Penalty_Charging>
3.74189e-09

> <r_epik_Ionization_Penalty_Neutral>
1.43373e-06

> <r_epik_State_Penalty>
-0

> <r_epik_Charging_Adjusted_Penalty>
3.74189e-09

> <i_epik_Tot_Q>
0

> <i_epik_Tot_abs_Q>
0

> <r_epik_Metal_State_Penalty>
-0

> <b_epik_Metal_Only>
0

> <s_lp_Force_Field>
OPLS_2005

> <r_lp_Energy>
36.4427

> <b_lp_Chiralities_Consistent>
1

> <s_lp_Variant>
AV-unprocessed.smi:3010-2

> <Gold.Version>
5.8.1

> <Gold.Id.Protein>
6NUR|6NUR_protein|mol2

> <Gold.PLP.Fitness>
46.5332

> <Gold.PLP.PLP>
-43.9236

> <Gold.PLP.part.hbond>
-1.0000

> <Gold.PLP.part.metal>
0.0000

> <Gold.PLP.part.buried>
-2.4282

> <Gold.PLP.part.nonpolar>
-39.3752

> <Gold.PLP.part.repulsive>
0.2534

> <Gold.PLP.ligand.clash>
0.0000

> <Gold.PLP.ligand.torsion>
0.1978

> <Gold.PLP.Chemscore.Hbond>
0.9920

> <Gold.PLP.Chemscore.CHOScore>
0.0000

> <Gold.PLP.Chemscore.Metal>
0.0000

> <Gold.Chemscore.Hbonds>
donor molecule, donor type, donor heavy atom, donor atom, acceptor molecule, acceptor atom, score
      P1  H  7989  7998       L1    12  1.00

> <Gold.PLP.Chemscore.Internal.Correction>
0.0292

> <Gold.Rescore>
     Score         DG    S(hbond)    S(metal)    S(lipo)     H(rot)  DE(clash)    DE(int)     intcor
     10.86     -11.08       0.77        0.00      72.99       2.15       0.01       0.21       ----

> <Gold.Chemscore.Fitness>
10.8634

> <Gold.Chemscore.DG>
-11.0784

> <Gold.Chemscore.ZeroCoef>
-5.4800

> <Gold.Chemscore.Hbond>
0.7652

> <Gold.Chemscore.Metal>
0.0000

> <Gold.Chemscore.Lipo>
72.9929

> <Gold.Chemscore.Internal_Hbond>
0.0000

> <Gold.Chemscore.DEClash>
0.0073

> <Gold.Chemscore.DEInternal>
0.2077

> <Gold.Chemscore.Rot>
2.1474

> <Gold.Chemscore.Internal.Correction>
   9.000000E+99

> <Gold.Chemscore.Hbonds>
donor molecule, donor type, donor heavy atom, donor atom, acceptor molecule, acceptor atom, score
      P1  H  7989  7998       L1    12  0.42

> <Gold.Chemscore.Hbond.Weighted>
-2.5556

> <Gold.Chemscore.Metal.Weighted>
-0.0000

> <Gold.Chemscore.Lipo.Weighted>
-8.5402

> <Gold.Chemscore.Internal_Hbond.Weighted>
0.0000

> <Gold.Chemscore.DEClash.Weighted>
0.0073

> <Gold.Chemscore.DEInternal.Weighted>
0.2077

> <Gold.Chemscore.Rot.Weighted>
5.4974

> <Gold.Chemscore.Internal.Correction.Weighted>
   9.000000E+99

> <Gold.Protein.RotatedTorsions>
[ 6907 6896 6895 6894 ] final  151.44 input  -60.11 | X-H torsion
[ 7974 7965 7964 7962 ] final   23.19 input  175.53 | X-H torsion
[ 8008 7997 7996 7995 ] final -126.53 input   59.86 | X-H torsion
[ 10167 10162 10161 10158 ] final -134.39 input  -65.29 | X-H torsion
[ 10718 10713 10712 10709 ] final  136.46 input   66.30 | X-H torsion
[ 10763 10752 10751 10750 ] final   20.39 input  -60.55 | X-H torsion
[ 11005 11000 10999 10996 ] final   42.68 input  -57.11 | X-H torsion

> <Gold.Protein.ActiveResidues>
 VAL166  LYS551  ARG553  GLY616  TRP617  ASP618  TYR619  PRO620  LYS621  CYS622 
 ASP623  PHE694  ASN695  SER759  ASP760  ASP761  ALA762  ILE779  LEU786  VAL792 
 PHE793  MET794  SER795  GLU796  ALA797  LYS798  CYS799  TRP800  GLU811  SER814 

> <Gold.Protein.RotatedAtoms>
  152.1006  133.4248  159.4585 H   0  0  0  0  0  0  0  0  0  0  0  0  # atno 6907 bound_to 6896
  150.6864  134.2765  159.4619 H   0  0  0  0  0  0  0  0  0  0  0  0  # atno 6908 bound_to 6896
  152.0625  134.9585  160.0625 H   0  0  0  0  0  0  0  0  0  0  0  0  # atno 6909 bound_to 6896
  146.1996  139.7780  142.8772 H   0  0  0  0  0  0  0  0  0  0  0  0  # atno 7974 bound_to 7965
  155.2313  140.0425  157.2962 H   0  0  0  0  0  0  0  0  0  0  0  0  # atno 8008 bound_to 7997
  154.5887  140.2420  155.7922 H   0  0  0  0  0  0  0  0  0  0  0  0  # atno 8009 bound_to 7997
  156.2244  140.2959  156.0039 H   0  0  0  0  0  0  0  0  0  0  0  0  # atno 8010 bound_to 7997
  139.8885  143.6751  152.2616 H   0  0  0  0  0  0  0  0  0  0  0  0  # atno 10167 bound_to 10162
  157.4464  131.1062  151.0085 H   0  0  0  0  0  0  0  0  0  0  0  0  # atno 10718 bound_to 10713
  153.1081  135.6690  153.9549 H   0  0  0  0  0  0  0  0  0  0  0  0  # atno 10763 bound_to 10752
  153.9101  135.3026  155.3450 H   0  0  0  0  0  0  0  0  0  0  0  0  # atno 10764 bound_to 10752
  154.7502  135.5038  153.9352 H   0  0  0  0  0  0  0  0  0  0  0  0  # atno 10765 bound_to 10752
  140.1716  134.4215  155.8254 H   0  0  0  0  0  0  0  0  0  0  0  0  # atno 11005 bound_to 11000
  145.3530  141.0311  143.3328 LP  0  0  0  0  0  0  0  0  0  0  0  0  # atno 17320 bound_to 7965
  144.8653  139.5117  143.6793 LP  0  0  0  0  0  0  0  0  0  0  0  0  # atno 17321 bound_to 7965
  139.7131  144.7617  151.1079 LP  0  0  0  0  0  0  0  0  0  0  0  0  # atno 17342 bound_to 10162
  140.7731  143.5305  150.9429 LP  0  0  0  0  0  0  0  0  0  0  0  0  # atno 17343 bound_to 10162
  157.0930  130.5950  149.5443 LP  0  0  0  0  0  0  0  0  0  0  0  0  # atno 17370 bound_to 10713
  155.9969  130.5039  150.7514 LP  0  0  0  0  0  0  0  0  0  0  0  0  # atno 17371 bound_to 10713
  141.2218  133.6958  156.7773 LP  0  0  0  0  0  0  0  0  0  0  0  0  # atno 17394 bound_to 11000
  140.2371  134.8642  157.3536 LP  0  0  0  0  0  0  0  0  0  0  0  0  # atno 17395 bound_to 11000

$$$$
