AV-unprocessed.smi:1240|AV-procd|sdf|5198|dock5
  -GOLD-   22720 4283D 1   1.00000     0.00000
 Structure written by MMmdl.
 47 49  0  0  0  0  0  0  0  0  1 V2000
  144.5358  136.4428  152.3493 O   0  0  0  0  0  0  0  0  0  0  0  0
  145.7030  136.3736  151.9645 C   0  0  0  0  0  0  0  0  0  0  0  0
  146.6247  137.3087  152.2350 N   0  0  0  0  0  0  0  0  0  0  0  0
  146.3936  138.5026  153.0425 C   0  0  0  0  0  0  0  0  0  0  0  0
  147.3107  138.5668  154.2977 C   0  0  1  0  0  0  0  0  0  0  0  0
  148.5440  139.4978  154.0910 C   0  0  1  0  0  0  0  0  0  0  0  0
  148.3152  141.0114  154.1044 C   0  0  0  0  0  0  0  0  0  0  0  0
  149.4812  141.5543  154.9336 C   0  0  0  0  0  0  0  0  0  0  0  0
  150.4418  140.5092  154.9280 O   0  0  0  0  0  0  0  0  0  0  0  0
  149.7221  139.2937  155.0504 C   0  0  0  0  0  0  0  0  0  0  0  0
  146.5998  138.7497  155.5782 N   0  0  0  0  0  0  0  0  0  0  0  0
  147.3851  138.4780  156.7804 C   0  0  0  0  0  0  0  0  0  0  0  0
  146.5358  138.6052  158.0577 C   0  0  0  0  0  0  0  0  0  0  0  0
  145.9223  139.8888  158.1086 O   0  0  0  0  0  0  0  0  0  0  0  0
  145.0991  140.1475  156.9763 C   0  0  0  0  0  0  0  0  0  0  0  0
  145.9474  140.0516  155.6979 C   0  0  0  0  0  0  0  0  0  0  0  0
  146.2321  135.3625  151.2543 N   0  0  0  0  0  0  0  0  0  0  0  0
  145.6032  134.1680  150.8104 C   0  0  0  0  0  0  0  0  0  0  0  0
  146.4291  133.0705  150.4907 C   0  0  0  0  0  0  0  0  0  0  0  0
  145.8294  131.8793  150.0358 C   0  0  0  0  0  0  0  0  0  0  0  0
  144.4970  131.7333  149.8781 N   0  0  0  0  0  0  0  0  0  0  0  0
  143.7093  132.7900  150.1695 C   0  0  0  0  0  0  0  0  0  0  0  0
  144.2062  134.0249  150.6321 C   0  0  0  0  0  0  0  0  0  0  0  0
  147.5602  137.1742  151.8803 H   0  0  0  0  0  0  0  0  0  0  0  0
  146.5555  139.3681  152.4009 H   0  0  0  0  0  0  0  0  0  0  0  0
  145.3397  138.5280  153.3195 H   0  0  0  0  0  0  0  0  0  0  0  0
  147.7608  137.5757  154.3712 H   0  0  0  0  0  0  0  0  0  0  0  0
  148.9431  139.2737  153.1004 H   0  0  0  0  0  0  0  0  0  0  0  0
  148.3551  141.4003  153.0862 H   0  0  0  0  0  0  0  0  0  0  0  0
  147.3582  141.3163  154.5239 H   0  0  0  0  0  0  0  0  0  0  0  0
  149.8921  142.4786  154.5270 H   0  0  0  0  0  0  0  0  0  0  0  0
  149.1661  141.7443  155.9606 H   0  0  0  0  0  0  0  0  0  0  0  0
  149.4051  139.1784  156.0876 H   0  0  0  0  0  0  0  0  0  0  0  0
  150.3371  138.4341  154.7831 H   0  0  0  0  0  0  0  0  0  0  0  0
  147.7888  137.4688  156.7494 H   0  0  0  0  0  0  0  0  0  0  0  0
  148.2308  139.1631  156.8411 H   0  0  0  0  0  0  0  0  0  0  0  0
  145.7690  137.8296  158.0870 H   0  0  0  0  0  0  0  0  0  0  0  0
  147.1590  138.4718  158.9416 H   0  0  0  0  0  0  0  0  0  0  0  0
  144.2709  139.4378  156.9469 H   0  0  0  0  0  0  0  0  0  0  0  0
  144.6656  141.1431  157.0702 H   0  0  0  0  0  0  0  0  0  0  0  0
  146.6909  140.8478  155.7181 H   0  0  0  0  0  0  0  0  0  0  0  0
  145.3135  140.2331  154.8292 H   0  0  0  0  0  0  0  0  0  0  0  0
  147.2245  135.4178  151.0791 H   0  0  0  0  0  0  0  0  0  0  0  0
  147.5023  133.1328  150.5970 H   0  0  0  0  0  0  0  0  0  0  0  0
  146.4375  131.0211  149.7905 H   0  0  0  0  0  0  0  0  0  0  0  0
  142.6484  132.6499  150.0236 H   0  0  0  0  0  0  0  0  0  0  0  0
  143.5147  134.8300  150.8267 H   0  0  0  0  0  0  0  0  0  0  0  0
  1  2  2  0  0  0  0
  2  3  1  0  0  0  0
  2 17  1  0  0  0  0
  3  4  1  0  0  0  0
  3 24  1  0  0  0  0
  4  5  1  0  0  0  0
  4 25  1  0  0  0  0
  4 26  1  0  0  0  0
  5  6  1  0  0  0  0
  5 11  1  0  0  0  0
  5 27  1  0  0  0  0
  6 10  1  0  0  0  0
  6  7  1  0  0  0  0
  6 28  1  0  0  0  0
  7  8  1  0  0  0  0
  7 29  1  0  0  0  0
  7 30  1  0  0  0  0
  8  9  1  0  0  0  0
  8 31  1  0  0  0  0
  8 32  1  0  0  0  0
  9 10  1  0  0  0  0
 10 33  1  0  0  0  0
 10 34  1  0  0  0  0
 11 16  1  0  0  0  0
 11 12  1  0  0  0  0
 12 13  1  0  0  0  0
 12 35  1  0  0  0  0
 12 36  1  0  0  0  0
 13 14  1  0  0  0  0
 13 37  1  0  0  0  0
 13 38  1  0  0  0  0
 14 15  1  0  0  0  0
 15 16  1  0  0  0  0
 15 39  1  0  0  0  0
 15 40  1  0  0  0  0
 16 41  1  0  0  0  0
 16 42  1  0  0  0  0
 17 18  1  0  0  0  0
 17 43  1  0  0  0  0
 18 23  1  0  0  0  0
 18 19  2  0  0  0  0
 19 20  1  0  0  0  0
 19 44  1  0  0  0  0
 20 21  2  0  0  0  0
 20 45  1  0  0  0  0
 21 22  1  0  0  0  0
 22 23  2  0  0  0  0
 22 46  1  0  0  0  0
 23 47  1  0  0  0  0
M  END
> <s_m_source_file>
AV-unprocessed.smi

> <i_m_source_file_index>
1240

> <i_lp_mmshare_version>
43012

> <i_f3d_flags>
0

> <s_epik_input>
W2NIXTFbY0hdbltjSF1bY0hdYzFbTkhdQyg9TylbTkhdW0NIMl1bQ0BIXShbQ0BASF0yW0NIMl1bQ0gyXU9bQ0gyXTIpTjNbQ0gyXVtDSDJdT1tDSDJdW0NIMl0z

> <s_epik_cmdline>
J2VwaWtfcHl0aG9uJywgJy1waCcsICc3LjAnLCAnLXRuJywgJzgnLCAnLW1hJywgJzIwMCcsICctbWV0YWxfYmluZGluZycsICctaW1hZScsICc8aW5maWxlLm1hZT4nLCAnLW9tYWUnLCAnPG91dGZpbGUubWFlPic=

> <r_epik_Ionization_Penalty>
0.238664

> <r_epik_Ionization_Penalty_Charging>
0

> <r_epik_Ionization_Penalty_Neutral>
0.238664

> <r_epik_State_Penalty>
0.217087

> <r_epik_Charging_Adjusted_Penalty>
0.217087

> <i_epik_Tot_Q>
0

> <i_epik_Tot_abs_Q>
0

> <r_epik_Metal_State_Penalty>
0.199194

> <b_epik_Metal_Only>
0

> <s_lp_Force_Field>
OPLS_2005

> <r_lp_Energy>
57.1619

> <b_lp_Chiralities_Consistent>
1

> <s_lp_Variant>
AV-unprocessed.smi:1240-4

> <Gold.Version>
5.8.1

> <Gold.Id.Protein>
6NUR|6NUR_protein|mol2

> <Gold.PLP.Fitness>
45.6624

> <Gold.PLP.PLP>
-32.9746

> <Gold.PLP.part.hbond>
-4.1685

> <Gold.PLP.part.metal>
0.0000

> <Gold.PLP.part.buried>
-4.2035

> <Gold.PLP.part.nonpolar>
-26.3488

> <Gold.PLP.part.repulsive>
0.5510

> <Gold.PLP.ligand.clash>
0.0000

> <Gold.PLP.ligand.torsion>
0.9659

> <Gold.PLP.Chemscore.Hbond>
2.9402

> <Gold.PLP.Chemscore.CHOScore>
1.8186

> <Gold.PLP.Chemscore.Metal>
0.0000

> <Gold.Chemscore.Hbonds>
donor molecule, donor type, donor heavy atom, donor atom, acceptor molecule, acceptor atom, score
      L1  H     3    24       P1  7948  0.98
      L1  H    17    43       P1  7948  0.86
      P1  H  7989  7998       L1     9  0.99
      P1  H 10785 10796       L1    21  0.13
      L1  C    20    45       P1 10747  0.81
      L1  C    22    46       P1 10186  0.93

> <Gold.PLP.Chemscore.Internal.Correction>
0.3434

> <Gold.Rescore>
     Score         DG    S(hbond)    S(metal)    S(lipo)     H(rot)  DE(clash)    DE(int)     intcor
     15.82     -19.54       2.65        0.00      80.67       1.65       0.30       3.42       ----

> <Gold.Chemscore.Fitness>
15.8194

> <Gold.Chemscore.DG>
-19.5441

> <Gold.Chemscore.ZeroCoef>
-5.4800

> <Gold.Chemscore.Hbond>
2.6503

> <Gold.Chemscore.Metal>
0.0000

> <Gold.Chemscore.Lipo>
80.6675

> <Gold.Chemscore.Internal_Hbond>
0.0000

> <Gold.Chemscore.DEClash>
0.3022

> <Gold.Chemscore.DEInternal>
3.4225

> <Gold.Chemscore.Rot>
1.6508

> <Gold.Chemscore.Internal.Correction>
   9.000000E+99

> <Gold.Chemscore.Hbonds>
donor molecule, donor type, donor heavy atom, donor atom, acceptor molecule, acceptor atom, score
      L1  H     3    24       P1  7948  0.93
      L1  H    17    43       P1  7948  0.60
      P1  H  7989  7998       L1     9  0.52
      P1  H 10785 10796       L1    21  0.09

> <Gold.Chemscore.Hbond.Weighted>
-8.8522

> <Gold.Chemscore.Metal.Weighted>
-0.0000

> <Gold.Chemscore.Lipo.Weighted>
-9.4381

> <Gold.Chemscore.Internal_Hbond.Weighted>
0.0000

> <Gold.Chemscore.DEClash.Weighted>
0.3022

> <Gold.Chemscore.DEInternal.Weighted>
3.4225

> <Gold.Chemscore.Rot.Weighted>
4.2262

> <Gold.Chemscore.Internal.Correction.Weighted>
   9.000000E+99

> <Gold.Protein.RotatedTorsions>
[ 6907 6896 6895 6894 ] final -129.90 input  -60.11 | X-H torsion
[ 7974 7965 7964 7962 ] final  -30.96 input  175.53 | X-H torsion
[ 8008 7997 7996 7995 ] final   -1.49 input   59.86 | X-H torsion
[ 10167 10162 10161 10158 ] final  121.36 input  -65.29 | X-H torsion
[ 10718 10713 10712 10709 ] final  106.03 input   66.30 | X-H torsion
[ 10763 10752 10751 10750 ] final   32.81 input  -60.55 | X-H torsion
[ 11005 11000 10999 10996 ] final -121.75 input  -57.11 | X-H torsion

> <Gold.Protein.ActiveResidues>
 VAL166  LYS551  ARG553  GLY616  TRP617  ASP618  TYR619  PRO620  LYS621  CYS622 
 ASP623  PHE694  ASN695  SER759  ASP760  ASP761  ALA762  ILE779  LEU786  VAL792 
 PHE793  MET794  SER795  GLU796  ALA797  LYS798  CYS799  TRP800  GLU811  SER814 

> <Gold.Protein.RotatedAtoms>
  150.9338  133.6735  159.2804 H   0  0  0  0  0  0  0  0  0  0  0  0  # atno 6907 bound_to 6896
  151.4148  135.0989  159.9606 H   0  0  0  0  0  0  0  0  0  0  0  0  # atno 6908 bound_to 6896
  152.5038  133.8803  159.7398 H   0  0  0  0  0  0  0  0  0  0  0  0  # atno 6909 bound_to 6896
  146.1103  140.5607  142.8781 H   0  0  0  0  0  0  0  0  0  0  0  0  # atno 7974 bound_to 7965
  154.6462  140.2558  155.7266 H   0  0  0  0  0  0  0  0  0  0  0  0  # atno 8008 bound_to 7997
  156.2553  140.2877  156.0797 H   0  0  0  0  0  0  0  0  0  0  0  0  # atno 8009 bound_to 7997
  155.1521  140.0382  157.2813 H   0  0  0  0  0  0  0  0  0  0  0  0  # atno 8010 bound_to 7997
  139.5925  144.7030  151.3257 H   0  0  0  0  0  0  0  0  0  0  0  0  # atno 10167 bound_to 10162
  157.6683  131.0841  150.5946 H   0  0  0  0  0  0  0  0  0  0  0  0  # atno 10718 bound_to 10713
  153.0243  135.6403  154.1412 H   0  0  0  0  0  0  0  0  0  0  0  0  # atno 10763 bound_to 10752
  154.1143  135.2851  155.3225 H   0  0  0  0  0  0  0  0  0  0  0  0  # atno 10764 bound_to 10752
  154.6309  135.5493  153.7742 H   0  0  0  0  0  0  0  0  0  0  0  0  # atno 10765 bound_to 10752
  141.0046  134.0353  157.3493 H   0  0  0  0  0  0  0  0  0  0  0  0  # atno 11005 bound_to 11000
  144.7506  140.5181  143.6804 LP  0  0  0  0  0  0  0  0  0  0  0  0  # atno 17320 bound_to 7965
  145.5676  139.1482  143.3306 LP  0  0  0  0  0  0  0  0  0  0  0  0  # atno 17321 bound_to 7965
  140.7184  143.7202  150.7701 LP  0  0  0  0  0  0  0  0  0  0  0  0  # atno 17342 bound_to 10162
  140.0761  143.5014  152.2555 LP  0  0  0  0  0  0  0  0  0  0  0  0  # atno 17343 bound_to 10162
  156.6246  130.4415  149.5809 LP  0  0  0  0  0  0  0  0  0  0  0  0  # atno 17370 bound_to 10713
  156.2329  130.6805  151.1481 LP  0  0  0  0  0  0  0  0  0  0  0  0  # atno 17371 bound_to 10713
  139.9057  135.0178  156.7473 LP  0  0  0  0  0  0  0  0  0  0  0  0  # atno 17394 bound_to 11000
  140.6833  133.9455  155.7923 LP  0  0  0  0  0  0  0  0  0  0  0  0  # atno 17395 bound_to 11000

$$$$
