AV-unprocessed.smi:737|AV-procd|sdf|3536|dock4
  -GOLD-   22720 0533D 1   1.00000     0.00000
 Structure written by MMmdl.
 45 47  0  0  0  0  0  0  0  0  1 V2000
  147.9694  139.2114  153.6826 C   0  0  0  0  0  0  0  0  0  0  0  0
  149.0564  138.2574  153.5322 N   0  0  0  0  0  0  0  0  0  0  0  0
  150.1348  138.2542  154.4278 C   0  0  0  0  0  0  0  0  0  0  0  0
  150.8443  139.3879  154.6337 N   0  0  0  0  0  0  0  0  0  0  0  0
  151.8696  139.3382  155.4939 C   0  0  0  0  0  0  0  0  0  0  0  0
  152.3227  138.2978  156.2107 N   0  0  0  0  0  0  0  0  0  0  0  0
  151.6258  137.1702  156.0153 C   0  0  0  0  0  0  0  0  0  0  0  0
  151.8705  135.9490  156.6198 N   0  0  0  0  0  0  0  0  0  0  0  0
  150.9137  135.1894  156.0925 C   0  0  0  0  0  0  0  0  0  0  0  0
  150.0730  135.7690  155.2135 N   0  0  0  0  0  0  0  0  0  0  0  0
  148.9654  135.1263  154.5274 C   0  0  0  0  0  0  0  0  0  0  0  0
  147.8541  134.6700  155.4951 C   0  0  2  0  0  0  0  0  0  0  0  0
  148.2925  133.6437  156.3633 O   0  0  0  0  0  0  0  0  0  0  0  0
  146.5758  134.2044  154.7815 C   0  0  0  0  0  0  0  0  0  0  0  0
  146.9193  133.4857  153.6045 O   0  0  0  0  0  0  0  0  0  0  0  0
  145.8384  133.1090  152.8510 C   0  0  0  0  0  0  0  0  0  0  0  0
  145.0473  134.0813  152.1931 C   0  0  0  0  0  0  0  0  0  0  0  0
  145.3701  135.5599  152.3097 C   0  0  0  0  0  0  0  0  0  0  0  0
  143.9389  133.6753  151.4217 C   0  0  0  0  0  0  0  0  0  0  0  0
  143.6100  132.3113  151.3154 C   0  0  0  0  0  0  0  0  0  0  0  0
  144.3843  131.3461  151.9852 C   0  0  0  0  0  0  0  0  0  0  0  0
  145.4955  131.7402  152.7585 C   0  0  0  0  0  0  0  0  0  0  0  0
  146.3158  130.6911  153.4855 C   0  0  0  0  0  0  0  0  0  0  0  0
  150.5102  137.0898  155.1282 C   0  0  0  0  0  0  0  0  0  0  0  0
  147.2356  139.0655  152.8902 H   0  0  0  0  0  0  0  0  0  0  0  0
  148.3405  140.2348  153.6197 H   0  0  0  0  0  0  0  0  0  0  0  0
  147.4674  139.0773  154.6414 H   0  0  0  0  0  0  0  0  0  0  0  0
  149.0577  137.6356  152.7362 H   0  0  0  0  0  0  0  0  0  0  0  0
  152.4073  140.2649  155.6290 H   0  0  0  0  0  0  0  0  0  0  0  0
  150.8176  134.1474  156.3617 H   0  0  0  0  0  0  0  0  0  0  0  0
  148.5567  135.8297  153.8006 H   0  0  0  0  0  0  0  0  0  0  0  0
  149.3532  134.2896  153.9479 H   0  0  0  0  0  0  0  0  0  0  0  0
  147.5904  135.5121  156.1360 H   0  0  0  0  0  0  0  0  0  0  0  0
  149.0738  133.9377  156.8065 H   0  0  0  0  0  0  0  0  0  0  0  0
  145.9602  133.6009  155.4498 H   0  0  0  0  0  0  0  0  0  0  0  0
  145.9811  135.0766  154.5056 H   0  0  0  0  0  0  0  0  0  0  0  0
  144.4709  136.1646  152.1887 H   0  0  0  0  0  0  0  0  0  0  0  0
  146.0828  135.8527  151.5390 H   0  0  0  0  0  0  0  0  0  0  0  0
  145.7992  135.7951  153.2840 H   0  0  0  0  0  0  0  0  0  0  0  0
  143.3339  134.4105  150.9115 H   0  0  0  0  0  0  0  0  0  0  0  0
  142.7589  132.0057  150.7247 H   0  0  0  0  0  0  0  0  0  0  0  0
  144.1200  130.3020  151.9046 H   0  0  0  0  0  0  0  0  0  0  0  0
  145.7803  129.7433  153.5460 H   0  0  0  0  0  0  0  0  0  0  0  0
  146.5409  131.0137  154.5024 H   0  0  0  0  0  0  0  0  0  0  0  0
  147.2565  130.5184  152.9630 H   0  0  0  0  0  0  0  0  0  0  0  0
  1  2  1  0  0  0  0
  1 25  1  0  0  0  0
  1 26  1  0  0  0  0
  1 27  1  0  0  0  0
  2  3  1  0  0  0  0
  2 28  1  0  0  0  0
  3 24  1  0  0  0  0
  3  4  2  0  0  0  0
  4  5  1  0  0  0  0
  5  6  2  0  0  0  0
  5 29  1  0  0  0  0
  6  7  1  0  0  0  0
  7 24  2  0  0  0  0
  7  8  1  0  0  0  0
  8  9  2  0  0  0  0
  9 10  1  0  0  0  0
  9 30  1  0  0  0  0
 10 11  1  0  0  0  0
 10 24  1  0  0  0  0
 11 12  1  0  0  0  0
 11 31  1  0  0  0  0
 11 32  1  0  0  0  0
 12 13  1  0  0  0  0
 12 14  1  0  0  0  0
 12 33  1  0  0  0  0
 13 34  1  0  0  0  0
 14 15  1  0  0  0  0
 14 35  1  0  0  0  0
 14 36  1  0  0  0  0
 15 16  1  0  0  0  0
 16 22  1  0  0  0  0
 16 17  2  0  0  0  0
 17 18  1  0  0  0  0
 17 19  1  0  0  0  0
 18 37  1  0  0  0  0
 18 38  1  0  0  0  0
 18 39  1  0  0  0  0
 19 20  2  0  0  0  0
 19 40  1  0  0  0  0
 20 21  1  0  0  0  0
 20 41  1  0  0  0  0
 21 22  2  0  0  0  0
 21 42  1  0  0  0  0
 22 23  1  0  0  0  0
 23 43  1  0  0  0  0
 23 44  1  0  0  0  0
 23 45  1  0  0  0  0
M  END
> <s_m_source_file>
AV-unprocessed.smi

> <i_m_source_file_index>
737

> <i_lp_mmshare_version>
43012

> <i_f3d_flags>
0

> <s_epik_input>
bjFbY0hdbmMoW05IXVtDSDNdKWMoYzEyKW4oW2NIXW4yKVtDSDJdW0NASF0oW09IXSlbQ0gyXU9jM2MoW0NIM10pW2NIXVtjSF1bY0hdYzNbQ0gzXQ==

> <s_epik_cmdline>
J2VwaWtfcHl0aG9uJywgJy1waCcsICc3LjAnLCAnLXRuJywgJzgnLCAnLW1hJywgJzIwMCcsICctbWV0YWxfYmluZGluZycsICctaW1hZScsICc8aW5maWxlLm1hZT4nLCAnLW9tYWUnLCAnPG91dGZpbGUubWFlPic=

> <r_lp_tautomer_probability>
1

> <r_epik_Ionization_Penalty>
0.0070961

> <r_epik_Ionization_Penalty_Charging>
0

> <r_epik_Ionization_Penalty_Neutral>
0.0070961

> <r_epik_State_Penalty>
-0

> <r_epik_Charging_Adjusted_Penalty>
0

> <i_epik_Tot_Q>
0

> <i_epik_Tot_abs_Q>
0

> <r_epik_Metal_State_Penalty>
-0

> <b_epik_Metal_Only>
0

> <s_lp_Force_Field>
OPLS_2005

> <r_lp_Energy>
18.2803

> <b_lp_Chiralities_Consistent>
1

> <s_lp_Variant>
AV-unprocessed.smi:737-1

> <Gold.Version>
5.8.1

> <Gold.Id.Protein>
6NUR|6NUR_protein|mol2

> <Gold.PLP.Fitness>
40.2814

> <Gold.PLP.PLP>
-33.4556

> <Gold.PLP.part.hbond>
-4.0000

> <Gold.PLP.part.metal>
0.0000

> <Gold.PLP.part.buried>
-1.5230

> <Gold.PLP.part.nonpolar>
-28.2341

> <Gold.PLP.part.repulsive>
0.2681

> <Gold.PLP.ligand.clash>
0.0000

> <Gold.PLP.ligand.torsion>
0.8965

> <Gold.PLP.Chemscore.Hbond>
2.8278

> <Gold.PLP.Chemscore.CHOScore>
0.0000

> <Gold.PLP.Chemscore.Metal>
0.0000

> <Gold.Chemscore.Hbonds>
donor molecule, donor type, donor heavy atom, donor atom, acceptor molecule, acceptor atom, score
      L1  H     2    28       P1  7948  1.00
      P1  H  7989  7998       L1     4  0.75
      P1  H 10752 10765       L1     8  0.50

> <Gold.PLP.Chemscore.Internal.Correction>
0.1353

> <Gold.Rescore>
     Score         DG    S(hbond)    S(metal)    S(lipo)     H(rot)  DE(clash)    DE(int)     intcor
      9.47     -10.24       1.00        0.00      75.77       2.91       0.00       0.76       ----

> <Gold.Chemscore.Fitness>
9.4713

> <Gold.Chemscore.DG>
-10.2378

> <Gold.Chemscore.ZeroCoef>
-5.4800

> <Gold.Chemscore.Hbond>
0.9983

> <Gold.Chemscore.Metal>
0.0000

> <Gold.Chemscore.Lipo>
75.7656

> <Gold.Chemscore.Internal_Hbond>
0.0000

> <Gold.Chemscore.DEClash>
0.0021

> <Gold.Chemscore.DEInternal>
0.7643

> <Gold.Chemscore.Rot>
2.9067

> <Gold.Chemscore.Internal.Correction>
   9.000000E+99

> <Gold.Chemscore.Hbonds>
donor molecule, donor type, donor heavy atom, donor atom, acceptor molecule, acceptor atom, score
      L1  H     2    28       P1  7948  0.99
      P1  H  7989  7998       L1     4  0.09
      P1  H 10752 10765       L1     8  0.01

> <Gold.Chemscore.Hbond.Weighted>
-3.3344

> <Gold.Chemscore.Metal.Weighted>
-0.0000

> <Gold.Chemscore.Lipo.Weighted>
-8.8646

> <Gold.Chemscore.Internal_Hbond.Weighted>
0.0000

> <Gold.Chemscore.DEClash.Weighted>
0.0021

> <Gold.Chemscore.DEInternal.Weighted>
0.7643

> <Gold.Chemscore.Rot.Weighted>
7.4412

> <Gold.Chemscore.Internal.Correction.Weighted>
   9.000000E+99

> <Gold.Protein.RotatedTorsions>
[ 6907 6896 6895 6894 ] final   42.49 input  -60.11 | X-H torsion
[ 7974 7965 7964 7962 ] final  -39.07 input  175.53 | X-H torsion
[ 8008 7997 7996 7995 ] final   43.75 input   59.86 | X-H torsion
[ 10167 10162 10161 10158 ] final   25.81 input  -65.29 | X-H torsion
[ 10718 10713 10712 10709 ] final -110.40 input   66.30 | X-H torsion
[ 10763 10752 10751 10750 ] final -124.18 input  -60.55 | X-H torsion
[ 11005 11000 10999 10996 ] final   86.00 input  -57.11 | X-H torsion

> <Gold.Protein.ActiveResidues>
 VAL166  LYS551  ARG553  GLY616  TRP617  ASP618  TYR619  PRO620  LYS621  CYS622 
 ASP623  PHE694  ASN695  SER759  ASP760  ASP761  ALA762  ILE779  LEU786  VAL792 
 PHE793  MET794  SER795  GLU796  ALA797  LYS798  CYS799  TRP800  GLU811  SER814 

> <Gold.Protein.RotatedAtoms>
  152.2085  134.8523  160.0499 H   0  0  0  0  0  0  0  0  0  0  0  0  # atno 6907 bound_to 6896
  151.9350  133.3616  159.3952 H   0  0  0  0  0  0  0  0  0  0  0  0  # atno 6908 bound_to 6896
  150.6971  134.4423  159.5342 H   0  0  0  0  0  0  0  0  0  0  0  0  # atno 6909 bound_to 6896
  146.0429  140.6584  142.9078 H   0  0  0  0  0  0  0  0  0  0  0  0  # atno 7974 bound_to 7965
  155.3079  140.3389  155.4245 H   0  0  0  0  0  0  0  0  0  0  0  0  # atno 8008 bound_to 7997
  156.1970  140.1718  156.8016 H   0  0  0  0  0  0  0  0  0  0  0  0  # atno 8009 bound_to 7997
  154.5511  140.0705  156.8653 H   0  0  0  0  0  0  0  0  0  0  0  0  # atno 8010 bound_to 7997
  140.5075  144.0214  150.6358 H   0  0  0  0  0  0  0  0  0  0  0  0  # atno 10167 bound_to 10162
  156.0589  130.5813  150.8232 H   0  0  0  0  0  0  0  0  0  0  0  0  # atno 10718 bound_to 10713
  154.8719  135.4072  154.3064 H   0  0  0  0  0  0  0  0  0  0  0  0  # atno 10763 bound_to 10752
  153.3915  135.7015  153.6497 H   0  0  0  0  0  0  0  0  0  0  0  0  # atno 10764 bound_to 10752
  153.5277  135.3674  155.2632 H   0  0  0  0  0  0  0  0  0  0  0  0  # atno 10765 bound_to 10752
  139.8956  134.8325  156.2659 H   0  0  0  0  0  0  0  0  0  0  0  0  # atno 11005 bound_to 11000
  144.7083  140.3941  143.7100 LP  0  0  0  0  0  0  0  0  0  0  0  0  # atno 17320 bound_to 7965
  145.6854  139.1627  143.2677 LP  0  0  0  0  0  0  0  0  0  0  0  0  # atno 17321 bound_to 7965
  140.3528  143.2953  152.0469 LP  0  0  0  0  0  0  0  0  0  0  0  0  # atno 17342 bound_to 10162
  139.4887  144.6361  151.6972 LP  0  0  0  0  0  0  0  0  0  0  0  0  # atno 17343 bound_to 10162
  157.5581  131.0945  150.9598 LP  0  0  0  0  0  0  0  0  0  0  0  0  # atno 17370 bound_to 10713
  156.9842  130.5538  149.5298 LP  0  0  0  0  0  0  0  0  0  0  0  0  # atno 17371 bound_to 10713
  141.0132  133.7083  156.1146 LP  0  0  0  0  0  0  0  0  0  0  0  0  # atno 17394 bound_to 11000
  140.7338  134.4225  157.5563 LP  0  0  0  0  0  0  0  0  0  0  0  0  # atno 17395 bound_to 11000

$$$$
