AV-unprocessed.smi:2044|AV-procd|sdf|8301|dock3
  -GOLD-   2272010563D 1   1.00000     0.00000
 Structure written by MMmdl.
 40 41  0  0  0  0  0  0  0  0  2 V2000
  152.2197  140.1165  156.9462 C   0  0  0  0  0  0  0  0  0  0  0  0
  151.5049  139.2497  155.9670 C   0  0  0  0  0  0  0  0  0  0  0  0
  151.0785  137.9524  156.0118 C   0  0  0  0  0  0  0  0  0  0  0  0
  150.4677  137.7729  154.7366 C   0  0  0  0  0  0  0  0  0  0  0  0
  149.8492  136.5885  154.2594 N   0  0  0  0  0  0  0  0  0  0  0  0
  149.6780  135.4201  154.9003 C   0  0  0  0  0  0  0  0  0  0  0  0
  150.0646  135.1663  156.0411 O   0  0  0  0  0  0  0  0  0  0  0  0
  149.0148  134.5392  154.1372 N   0  0  0  0  0  0  0  0  0  0  0  0
  148.6504  133.1873  154.5516 C   0  0  0  0  0  0  0  0  0  0  0  0
  149.0302  132.1057  153.5043 C   0  0  1  0  0  0  0  0  0  0  0  0
  149.3776  130.7751  154.2163 C   0  0  0  0  0  0  0  0  0  0  0  0
  147.9452  131.9683  152.4780 N   0  3  0  0  0  0  0  0  0  0  0  0
  146.8219  131.1106  152.9467 C   0  0  0  0  0  0  0  0  0  0  0  0
  145.7680  130.9228  151.8435 C   0  0  0  0  0  0  0  0  0  0  0  0
  145.2799  132.1919  151.4364 O   0  0  0  0  0  0  0  0  0  0  0  0
  146.3140  132.9937  150.8863 C   0  0  0  0  0  0  0  0  0  0  0  0
  147.4015  133.2484  151.9446 C   0  0  0  0  0  0  0  0  0  0  0  0
  150.5208  138.8603  153.9897 N   0  0  0  0  0  0  0  0  0  0  0  0
  151.1849  139.8129  154.7711 O   0  0  0  0  0  0  0  0  0  0  0  0
  152.6645  139.5190  157.7422 H   0  0  0  0  0  0  0  0  0  0  0  0
  151.5332  140.8299  157.4021 H   0  0  0  0  0  0  0  0  0  0  0  0
  153.0176  140.6771  156.4588 H   0  0  0  0  0  0  0  0  0  0  0  0
  151.1924  137.2608  156.8328 H   0  0  0  0  0  0  0  0  0  0  0  0
  149.4816  136.6447  153.3211 H   0  0  0  0  0  0  0  0  0  0  0  0
  148.7354  134.8249  153.2096 H   0  0  0  0  0  0  0  0  0  0  0  0
  149.1572  132.9796  155.4946 H   0  0  0  0  0  0  0  0  0  0  0  0
  147.5847  133.1845  154.7772 H   0  0  0  0  0  0  0  0  0  0  0  0
  149.9331  132.4231  152.9799 H   0  0  0  0  0  0  0  0  0  0  0  0
  150.1468  130.9115  154.9762 H   0  0  0  0  0  0  0  0  0  0  0  0
  149.7790  130.0337  153.5254 H   0  0  0  0  0  0  0  0  0  0  0  0
  148.5044  130.3469  154.7098 H   0  0  0  0  0  0  0  0  0  0  0  0
  147.1754  130.1284  153.2538 H   0  0  0  0  0  0  0  0  0  0  0  0
  146.3576  131.5653  153.8231 H   0  0  0  0  0  0  0  0  0  0  0  0
  146.1842  130.3837  150.9907 H   0  0  0  0  0  0  0  0  0  0  0  0
  144.9340  130.3297  152.2189 H   0  0  0  0  0  0  0  0  0  0  0  0
  146.7356  132.5097  150.0038 H   0  0  0  0  0  0  0  0  0  0  0  0
  145.8864  133.9399  150.5543 H   0  0  0  0  0  0  0  0  0  0  0  0
  146.9950  133.8445  152.7634 H   0  0  0  0  0  0  0  0  0  0  0  0
  148.1860  133.8357  151.4685 H   0  0  0  0  0  0  0  0  0  0  0  0
  148.3632  131.4985  151.6875 H   0  0  0  0  0  0  0  0  0  0  0  0
  1  2  1  0  0  0  0
  1 20  1  0  0  0  0
  1 21  1  0  0  0  0
  1 22  1  0  0  0  0
  2 19  1  0  0  0  0
  2  3  2  0  0  0  0
  3  4  1  0  0  0  0
  3 23  1  0  0  0  0
  4  5  1  0  0  0  0
  4 18  2  0  0  0  0
  5  6  1  0  0  0  0
  5 24  1  0  0  0  0
  6  7  2  0  0  0  0
  6  8  1  0  0  0  0
  8  9  1  0  0  0  0
  8 25  1  0  0  0  0
  9 10  1  0  0  0  0
  9 26  1  0  0  0  0
  9 27  1  0  0  0  0
 10 11  1  0  0  0  0
 10 12  1  0  0  0  0
 10 28  1  0  0  0  0
 11 29  1  0  0  0  0
 11 30  1  0  0  0  0
 11 31  1  0  0  0  0
 12 17  1  0  0  0  0
 12 13  1  0  0  0  0
 12 40  1  0  0  0  0
 13 14  1  0  0  0  0
 13 32  1  0  0  0  0
 13 33  1  0  0  0  0
 14 15  1  0  0  0  0
 14 34  1  0  0  0  0
 14 35  1  0  0  0  0
 15 16  1  0  0  0  0
 16 17  1  0  0  0  0
 16 36  1  0  0  0  0
 16 37  1  0  0  0  0
 17 38  1  0  0  0  0
 17 39  1  0  0  0  0
 18 19  1  0  0  0  0
M  CHG  1  12   1
M  END
> <s_m_source_file>
AV-unprocessed.smi

> <i_m_source_file_index>
2044

> <i_lp_mmshare_version>
43012

> <i_f3d_flags>
0

> <s_epik_input>
W0NIM11jMVtjSF1jKG5vMSlbTkhdQyg9TylbTkhdW0NIMl1bQ0BIXShbQ0gzXSlOMltDSDJdW0NIMl1PW0NIMl1bQ0gyXTI=

> <s_epik_cmdline>
J2VwaWtfcHl0aG9uJywgJy1waCcsICc3LjAnLCAnLXRuJywgJzgnLCAnLW1hJywgJzIwMCcsICctbWV0YWxfYmluZGluZycsICctaW1hZScsICc8aW5maWxlLm1hZT4nLCAnLW9tYWUnLCAnPG91dGZpbGUubWFlPic=

> <r_epik_Ionization_Penalty>
0.707076

> <r_epik_Ionization_Penalty_Charging>
0.707039

> <r_epik_Ionization_Penalty_Neutral>
3.67886e-05

> <r_epik_State_Penalty>
0.730276

> <r_epik_Charging_Adjusted_Penalty>
1.43732

> <i_epik_Tot_Q>
1

> <i_epik_Tot_abs_Q>
1

> <r_epik_Metal_State_Penalty>
0.743216

> <b_epik_Metal_Only>
0

> <s_lp_Force_Field>
OPLS_2005

> <r_lp_Energy>
19.4768

> <b_lp_Chiralities_Consistent>
1

> <s_lp_Variant>
AV-unprocessed.smi:2044-4

> <Gold.Version>
5.8.1

> <Gold.Id.Protein>
6NUR|6NUR_protein|mol2

> <Gold.PLP.Fitness>
39.3037

> <Gold.PLP.PLP>
-29.2516

> <Gold.PLP.part.hbond>
-4.8709

> <Gold.PLP.part.metal>
0.0000

> <Gold.PLP.part.buried>
-2.9188

> <Gold.PLP.part.nonpolar>
-21.7120

> <Gold.PLP.part.repulsive>
0.4874

> <Gold.PLP.ligand.clash>
0.0000

> <Gold.PLP.ligand.torsion>
0.6674

> <Gold.PLP.Chemscore.Hbond>
3.7800

> <Gold.PLP.Chemscore.CHOScore>
0.0000

> <Gold.PLP.Chemscore.Metal>
0.0000

> <Gold.Chemscore.Hbonds>
donor molecule, donor type, donor heavy atom, donor atom, acceptor molecule, acceptor atom, score
      L1  H     5    24       P1  7948  1.00
      L1  H     8    25       P1  7948  0.88
      L1  H    12    40       P1 10747  1.00
      P1  H  7989  7998       L1    19  0.85

> <Gold.PLP.Chemscore.Internal.Correction>
0.0469

> <Gold.Rescore>
     Score         DG    S(hbond)    S(metal)    S(lipo)     H(rot)  DE(clash)    DE(int)     intcor
     16.01     -18.08       2.91        0.00      60.05       1.62       0.44       1.63       ----

> <Gold.Chemscore.Fitness>
16.0138

> <Gold.Chemscore.DG>
-18.0793

> <Gold.Chemscore.ZeroCoef>
-5.4800

> <Gold.Chemscore.Hbond>
2.9115

> <Gold.Chemscore.Metal>
0.0000

> <Gold.Chemscore.Lipo>
60.0464

> <Gold.Chemscore.Internal_Hbond>
0.0000

> <Gold.Chemscore.DEClash>
0.4360

> <Gold.Chemscore.DEInternal>
1.6295

> <Gold.Chemscore.Rot>
1.6213

> <Gold.Chemscore.Internal.Correction>
   9.000000E+99

> <Gold.Chemscore.Hbonds>
donor molecule, donor type, donor heavy atom, donor atom, acceptor molecule, acceptor atom, score
      L1  H     5    24       P1  7948  0.72
      L1  H     8    25       P1  7948  0.30
      L1  H    12    40       P1 10747  1.00
      P1  H  7989  7998       L1    19  0.15

> <Gold.Chemscore.Hbond.Weighted>
-9.7245

> <Gold.Chemscore.Metal.Weighted>
-0.0000

> <Gold.Chemscore.Lipo.Weighted>
-7.0254

> <Gold.Chemscore.Internal_Hbond.Weighted>
0.0000

> <Gold.Chemscore.DEClash.Weighted>
0.4360

> <Gold.Chemscore.DEInternal.Weighted>
1.6295

> <Gold.Chemscore.Rot.Weighted>
4.1506

> <Gold.Chemscore.Internal.Correction.Weighted>
   9.000000E+99

> <Gold.Protein.RotatedTorsions>
[ 6907 6896 6895 6894 ] final   22.37 input  -60.11 | X-H torsion
[ 7974 7965 7964 7962 ] final   18.38 input  175.53 | X-H torsion
[ 8008 7997 7996 7995 ] final  105.49 input   59.86 | X-H torsion
[ 10167 10162 10161 10158 ] final -151.79 input  -65.29 | X-H torsion
[ 10718 10713 10712 10709 ] final -127.63 input   66.30 | X-H torsion
[ 10763 10752 10751 10750 ] final  125.86 input  -60.55 | X-H torsion
[ 11005 11000 10999 10996 ] final  -95.54 input  -57.11 | X-H torsion

> <Gold.Protein.ActiveResidues>
 VAL166  LYS551  ARG553  GLY616  TRP617  ASP618  TYR619  PRO620  LYS621  CYS622 
 ASP623  PHE694  ASN695  SER759  ASP760  ASP761  ALA762  ILE779  LEU786  VAL792 
 PHE793  MET794  SER795  GLU796  ALA797  LYS798  CYS799  TRP800  GLU811  SER814 

> <Gold.Protein.RotatedAtoms>
  151.9262  135.0277  160.0525 H   0  0  0  0  0  0  0  0  0  0  0  0  # atno 6907 bound_to 6896
  152.2158  133.4941  159.5143 H   0  0  0  0  0  0  0  0  0  0  0  0  # atno 6908 bound_to 6896
  150.6987  134.1324  159.4117 H   0  0  0  0  0  0  0  0  0  0  0  0  # atno 6909 bound_to 6896
  146.2187  139.8466  142.8630 H   0  0  0  0  0  0  0  0  0  0  0  0  # atno 7974 bound_to 7965
  156.1664  140.3129  155.8896 H   0  0  0  0  0  0  0  0  0  0  0  0  # atno 8008 bound_to 7997
  155.3678  140.0480  157.3063 H   0  0  0  0  0  0  0  0  0  0  0  0  # atno 8009 bound_to 7997
  154.5196  140.2193  155.9011 H   0  0  0  0  0  0  0  0  0  0  0  0  # atno 8010 bound_to 7997
  139.7237  143.8917  152.2512 H   0  0  0  0  0  0  0  0  0  0  0  0  # atno 10167 bound_to 10162
  156.1875  130.6773  151.0382 H   0  0  0  0  0  0  0  0  0  0  0  0  # atno 10718 bound_to 10713
  153.6841  135.3309  155.3186 H   0  0  0  0  0  0  0  0  0  0  0  0  # atno 10763 bound_to 10752
  154.8458  135.4416  154.1576 H   0  0  0  0  0  0  0  0  0  0  0  0  # atno 10764 bound_to 10752
  153.2600  135.6990  153.7666 H   0  0  0  0  0  0  0  0  0  0  0  0  # atno 10765 bound_to 10752
  141.1439  133.8033  157.0449 H   0  0  0  0  0  0  0  0  0  0  0  0  # atno 11005 bound_to 11000
  145.2844  141.0148  143.3699 LP  0  0  0  0  0  0  0  0  0  0  0  0  # atno 17320 bound_to 7965
  144.9125  139.4511  143.6580 LP  0  0  0  0  0  0  0  0  0  0  0  0  # atno 17321 bound_to 7965
  139.8820  144.7012  150.8867 LP  0  0  0  0  0  0  0  0  0  0  0  0  # atno 17342 bound_to 10162
  140.7758  143.3654  151.1750 LP  0  0  0  0  0  0  0  0  0  0  0  0  # atno 17343 bound_to 10162
  157.6908  131.0810  150.7113 LP  0  0  0  0  0  0  0  0  0  0  0  0  # atno 17370 bound_to 10713
  156.7170  130.4669  149.5532 LP  0  0  0  0  0  0  0  0  0  0  0  0  # atno 17371 bound_to 10713
  140.0669  134.9724  157.1401 LP  0  0  0  0  0  0  0  0  0  0  0  0  # atno 17394 bound_to 11000
  140.3767  134.2332  155.7174 LP  0  0  0  0  0  0  0  0  0  0  0  0  # atno 17395 bound_to 11000

$$$$
