AV-unprocessed.smi:437|AV-procd|sdf|2561|dock5
  -GOLD-   2262022533D 1   1.00000     0.00000
 Structure written by MMmdl.
 48 49  0  0  0  0  0  0  0  0  1 V2000
  147.7168  133.1020  152.9616 C   0  0  0  0  0  0  0  0  0  0  0  0
  148.7366  133.0178  154.0655 C   0  0  0  0  0  0  0  0  0  0  0  0
  148.9294  134.0897  154.7616 N   0  0  0  0  0  0  0  0  0  0  0  0
  149.8467  134.1219  155.7941 N   0  0  0  0  0  0  0  0  0  0  0  0
  149.9457  135.4263  156.4663 C   0  0  0  0  0  0  0  0  0  0  0  0
  150.5173  136.5308  155.5634 C   0  0  0  0  0  0  0  0  0  0  0  0
  151.5200  136.3144  154.8777 O   0  0  0  0  0  0  0  0  0  0  0  0
  149.8377  137.6952  155.5903 N   0  0  0  0  0  0  0  0  0  0  0  0
  150.1134  138.8225  154.9067 C   0  0  0  0  0  0  0  0  0  0  0  0
  151.0546  138.9791  154.1258 O   0  0  0  0  0  0  0  0  0  0  0  0
  149.2179  139.7812  155.1841 N   0  0  0  0  0  0  0  0  0  0  0  0
  149.4103  141.2162  154.9697 C   0  0  2  0  0  0  0  0  0  0  0  0
  150.6309  141.7281  155.7642 C   0  0  0  0  0  0  0  0  0  0  0  0
  150.3764  141.7318  157.2813 C   0  0  0  0  0  0  0  0  0  0  0  0
  149.1127  142.5317  157.6313 C   0  0  0  0  0  0  0  0  0  0  0  0
  147.8890  142.0115  156.8603 C   0  0  0  0  0  0  0  0  0  0  0  0
  148.1337  142.0128  155.3370 C   0  0  2  0  0  0  0  0  0  0  0  0
  146.8909  141.5377  154.5647 C   0  0  0  0  0  0  0  0  0  0  0  0
  150.6130  133.0632  156.1857 C   0  0  0  0  0  0  0  0  0  0  0  0
  151.4149  133.1351  157.1183 O   0  0  0  0  0  0  0  0  0  0  0  0
  150.3892  131.8523  155.3928 C   0  0  0  0  0  0  0  0  0  0  0  0
  151.1772  130.7218  155.7647 C   0  0  0  0  0  0  0  0  0  0  0  0
  151.8190  129.8131  156.0846 N   0  0  0  0  0  0  0  0  0  0  0  0
  149.4945  131.8096  154.3740 C   0  0  0  0  0  0  0  0  0  0  0  0
  149.2239  130.5781  153.5206 C   0  0  0  0  0  0  0  0  0  0  0  0
  146.8913  132.4140  153.1449 H   0  0  0  0  0  0  0  0  0  0  0  0
  148.1637  132.8466  152.0007 H   0  0  0  0  0  0  0  0  0  0  0  0
  147.2962  134.1048  152.8715 H   0  0  0  0  0  0  0  0  0  0  0  0
  148.9607  135.7472  156.8103 H   0  0  0  0  0  0  0  0  0  0  0  0
  150.5552  135.3396  157.3679 H   0  0  0  0  0  0  0  0  0  0  0  0
  149.0278  137.7239  156.1916 H   0  0  0  0  0  0  0  0  0  0  0  0
  148.3296  139.5022  155.5739 H   0  0  0  0  0  0  0  0  0  0  0  0
  149.6056  141.3815  153.9083 H   0  0  0  0  0  0  0  0  0  0  0  0
  151.5133  141.1292  155.5354 H   0  0  0  0  0  0  0  0  0  0  0  0
  150.8655  142.7433  155.4416 H   0  0  0  0  0  0  0  0  0  0  0  0
  150.2737  140.7076  157.6417 H   0  0  0  0  0  0  0  0  0  0  0  0
  151.2373  142.1546  157.7998 H   0  0  0  0  0  0  0  0  0  0  0  0
  148.9250  142.4792  158.7041 H   0  0  0  0  0  0  0  0  0  0  0  0
  149.2709  143.5853  157.3968 H   0  0  0  0  0  0  0  0  0  0  0  0
  147.6476  141.0031  157.1985 H   0  0  0  0  0  0  0  0  0  0  0  0
  147.0222  142.6292  157.0977 H   0  0  0  0  0  0  0  0  0  0  0  0
  148.3084  143.0481  155.0400 H   0  0  0  0  0  0  0  0  0  0  0  0
  146.6027  140.5246  154.8459 H   0  0  0  0  0  0  0  0  0  0  0  0
  147.0702  141.5475  153.4893 H   0  0  0  0  0  0  0  0  0  0  0  0
  146.0380  142.1878  154.7611 H   0  0  0  0  0  0  0  0  0  0  0  0
  149.7981  129.7127  153.8503 H   0  0  0  0  0  0  0  0  0  0  0  0
  149.4865  130.7704  152.4797 H   0  0  0  0  0  0  0  0  0  0  0  0
  148.1689  130.3052  153.5643 H   0  0  0  0  0  0  0  0  0  0  0  0
  1  2  1  0  0  0  0
  1 26  1  0  0  0  0
  1 27  1  0  0  0  0
  1 28  1  0  0  0  0
  2 24  1  0  0  0  0
  2  3  2  0  0  0  0
  3  4  1  0  0  0  0
  4  5  1  0  0  0  0
  4 19  1  0  0  0  0
  5  6  1  0  0  0  0
  5 29  1  0  0  0  0
  5 30  1  0  0  0  0
  6  7  2  0  0  0  0
  6  8  1  0  0  0  0
  8  9  1  0  0  0  0
  8 31  1  0  0  0  0
  9 10  2  0  0  0  0
  9 11  1  0  0  0  0
 11 12  1  0  0  0  0
 11 32  1  0  0  0  0
 12 17  1  0  0  0  0
 12 13  1  0  0  0  0
 12 33  1  0  0  0  0
 13 14  1  0  0  0  0
 13 34  1  0  0  0  0
 13 35  1  0  0  0  0
 14 15  1  0  0  0  0
 14 36  1  0  0  0  0
 14 37  1  0  0  0  0
 15 16  1  0  0  0  0
 15 38  1  0  0  0  0
 15 39  1  0  0  0  0
 16 17  1  0  0  0  0
 16 40  1  0  0  0  0
 16 41  1  0  0  0  0
 17 18  1  0  0  0  0
 17 42  1  0  0  0  0
 18 43  1  0  0  0  0
 18 44  1  0  0  0  0
 18 45  1  0  0  0  0
 19 20  2  0  0  0  0
 19 21  1  0  0  0  0
 21 22  1  0  0  0  0
 21 24  2  0  0  0  0
 22 23  3  0  0  0  0
 24 25  1  0  0  0  0
 25 46  1  0  0  0  0
 25 47  1  0  0  0  0
 25 48  1  0  0  0  0
M  END
> <s_m_source_file>
AV-unprocessed.smi

> <i_m_source_file_index>
437

> <i_lp_mmshare_version>
43012

> <i_f3d_flags>
0

> <s_epik_input>
TiNDYyhjMVtDSDNdKWMoPU8pbihuYzFbQ0gzXSlbQ0gyXUMoPU8pW05IXUMoPU8pW05IXVtDQEBIXTJbQ0gyXVtDSDJdW0NIMl1bQ0gyXVtDQEhdMltDSDNd

> <s_epik_cmdline>
J2VwaWtfcHl0aG9uJywgJy1waCcsICc3LjAnLCAnLXRuJywgJzgnLCAnLW1hJywgJzIwMCcsICctbWV0YWxfYmluZGluZycsICctaW1hZScsICc8aW5maWxlLm1hZT4nLCAnLW9tYWUnLCAnPG91dGZpbGUubWFlPic=

> <r_lp_tautomer_probability>
1

> <r_epik_Ionization_Penalty>
3.27035e-05

> <r_epik_Ionization_Penalty_Charging>
1.6965e-11

> <r_epik_Ionization_Penalty_Neutral>
3.27035e-05

> <r_epik_State_Penalty>
-0

> <r_epik_Charging_Adjusted_Penalty>
1.6965e-11

> <i_epik_Tot_Q>
0

> <i_epik_Tot_abs_Q>
0

> <r_epik_Metal_State_Penalty>
-0

> <b_epik_Metal_Only>
0

> <s_lp_Force_Field>
OPLS_2005

> <r_lp_Energy>
26.4777

> <b_lp_Chiralities_Consistent>
1

> <s_lp_Variant>
AV-unprocessed.smi:437-3

> <Gold.Version>
5.8.1

> <Gold.Id.Protein>
6NUR|6NUR_protein|mol2

> <Gold.PLP.Fitness>
41.6235

> <Gold.PLP.PLP>
-34.6443

> <Gold.PLP.part.hbond>
-2.7353

> <Gold.PLP.part.metal>
0.0000

> <Gold.PLP.part.buried>
-2.5971

> <Gold.PLP.part.nonpolar>
-28.9760

> <Gold.PLP.part.repulsive>
0.4555

> <Gold.PLP.ligand.clash>
0.0000

> <Gold.PLP.ligand.torsion>
0.2999

> <Gold.PLP.Chemscore.Hbond>
2.5148

> <Gold.PLP.Chemscore.CHOScore>
0.0000

> <Gold.PLP.Chemscore.Metal>
0.0000

> <Gold.Chemscore.Hbonds>
donor molecule, donor type, donor heavy atom, donor atom, acceptor molecule, acceptor atom, score
      P1  H  6896  6908       L1    20  0.61
      P1  H  7989  7998       L1    10  0.93
      P1  H 10752 10764       L1     7  1.00

> <Gold.PLP.Chemscore.Internal.Correction>
0.0348

> <Gold.Rescore>
     Score         DG    S(hbond)    S(metal)    S(lipo)     H(rot)  DE(clash)    DE(int)     intcor
     14.50     -16.65       2.21        0.00      66.60       1.57       0.46       1.69       ----

> <Gold.Chemscore.Fitness>
14.5003

> <Gold.Chemscore.DG>
-16.6495

> <Gold.Chemscore.ZeroCoef>
-5.4800

> <Gold.Chemscore.Hbond>
2.2111

> <Gold.Chemscore.Metal>
0.0000

> <Gold.Chemscore.Lipo>
66.6005

> <Gold.Chemscore.Internal_Hbond>
0.0000

> <Gold.Chemscore.DEClash>
0.4575

> <Gold.Chemscore.DEInternal>
1.6918

> <Gold.Chemscore.Rot>
1.5656

> <Gold.Chemscore.Internal.Correction>
   9.000000E+99

> <Gold.Chemscore.Hbonds>
donor molecule, donor type, donor heavy atom, donor atom, acceptor molecule, acceptor atom, score
      P1  H  6896  6908       L1    20  0.60
      P1  H  7989  7998       L1    10  0.86
      P1  H 10752 10764       L1     7  0.99

> <Gold.Chemscore.Hbond.Weighted>
-7.3852

> <Gold.Chemscore.Metal.Weighted>
-0.0000

> <Gold.Chemscore.Lipo.Weighted>
-7.7923

> <Gold.Chemscore.Internal_Hbond.Weighted>
0.0000

> <Gold.Chemscore.DEClash.Weighted>
0.4575

> <Gold.Chemscore.DEInternal.Weighted>
1.6918

> <Gold.Chemscore.Rot.Weighted>
4.0079

> <Gold.Chemscore.Internal.Correction.Weighted>
   9.000000E+99

> <Gold.Protein.RotatedTorsions>
[ 6907 6896 6895 6894 ] final   70.52 input  -60.11 | X-H torsion
[ 7974 7965 7964 7962 ] final   11.20 input  175.53 | X-H torsion
[ 8008 7997 7996 7995 ] final  -61.83 input   59.86 | X-H torsion
[ 10167 10162 10161 10158 ] final -116.55 input  -65.29 | X-H torsion
[ 10718 10713 10712 10709 ] final   97.32 input   66.30 | X-H torsion
[ 10763 10752 10751 10750 ] final  -49.28 input  -60.55 | X-H torsion
[ 11005 11000 10999 10996 ] final  -99.16 input  -57.11 | X-H torsion

> <Gold.Protein.ActiveResidues>
 VAL166  LYS551  ARG553  GLY616  TRP617  ASP618  TYR619  PRO620  LYS621  CYS622 
 ASP623  PHE694  ASN695  SER759  ASP760  ASP761  ALA762  ILE779  LEU786  VAL792 
 PHE793  MET794  SER795  GLU796  ALA797  LYS798  CYS799  TRP800  GLU811  SER814 

> <Gold.Protein.RotatedAtoms>
  152.4754  134.4856  159.9679 H   0  0  0  0  0  0  0  0  0  0  0  0  # atno 6907 bound_to 6896
  151.4873  133.3527  159.2855 H   0  0  0  0  0  0  0  0  0  0  0  0  # atno 6908 bound_to 6896
  150.8790  134.8204  159.7272 H   0  0  0  0  0  0  0  0  0  0  0  0  # atno 6909 bound_to 6896
  146.2375  139.9521  142.8469 H   0  0  0  0  0  0  0  0  0  0  0  0  # atno 7974 bound_to 7965
  154.4468  140.1009  156.6492 H   0  0  0  0  0  0  0  0  0  0  0  0  # atno 8008 bound_to 7997
  155.5417  140.3483  155.4430 H   0  0  0  0  0  0  0  0  0  0  0  0  # atno 8009 bound_to 7997
  156.0592  140.1322  156.9949 H   0  0  0  0  0  0  0  0  0  0  0  0  # atno 8010 bound_to 7997
  140.0780  143.4814  152.1942 H   0  0  0  0  0  0  0  0  0  0  0  0  # atno 10167 bound_to 10162
  157.6914  131.0606  150.4626 H   0  0  0  0  0  0  0  0  0  0  0  0  # atno 10718 bound_to 10713
  154.0915  135.6576  153.4853 H   0  0  0  0  0  0  0  0  0  0  0  0  # atno 10763 bound_to 10752
  153.0320  135.5203  154.7375 H   0  0  0  0  0  0  0  0  0  0  0  0  # atno 10764 bound_to 10752
  154.6501  135.3000  154.9966 H   0  0  0  0  0  0  0  0  0  0  0  0  # atno 10765 bound_to 10752
  141.1319  133.8300  157.0935 H   0  0  0  0  0  0  0  0  0  0  0  0  # atno 11005 bound_to 11000
  145.1852  140.9786  143.4243 LP  0  0  0  0  0  0  0  0  0  0  0  0  # atno 17320 bound_to 7965
  144.9907  139.3693  143.6216 LP  0  0  0  0  0  0  0  0  0  0  0  0  # atno 17321 bound_to 7965
  139.5796  144.7504  151.3674 LP  0  0  0  0  0  0  0  0  0  0  0  0  # atno 17342 bound_to 10162
  140.7092  143.7434  150.7536 LP  0  0  0  0  0  0  0  0  0  0  0  0  # atno 17343 bound_to 10162
  156.4970  130.4108  149.6374 LP  0  0  0  0  0  0  0  0  0  0  0  0  # atno 17370 bound_to 10713
  156.3364  130.7359  151.2297 LP  0  0  0  0  0  0  0  0  0  0  0  0  # atno 17371 bound_to 10713
  140.0377  134.9870  157.0903 LP  0  0  0  0  0  0  0  0  0  0  0  0  # atno 17394 bound_to 11000
  140.4184  134.1907  155.7164 LP  0  0  0  0  0  0  0  0  0  0  0  0  # atno 17395 bound_to 11000

$$$$
