AV-unprocessed.smi:2336|AV-procd|sdf|9332|dock3
  -GOLD-   2272012553D 1   1.00000     0.00000
 Structure written by MMmdl.
 49 50  0  0  0  0  0  0  0  0  1 V2000
  147.6192  138.4619  153.9365 C   0  0  0  0  0  0  0  0  0  0  0  0
  146.9245  139.8276  153.7878 C   0  0  0  0  0  0  0  0  0  0  0  0
  146.8609  140.2432  152.3057 C   0  0  0  0  0  0  0  0  0  0  0  0
  147.4853  140.9272  154.7543 C   0  0  1  0  0  0  0  0  0  0  0  0
  148.9127  141.3874  154.3348 C   0  0  0  0  0  0  0  0  0  0  0  0
  149.5372  142.2382  155.3436 N   0  0  0  0  0  0  0  0  0  0  0  0
  150.2065  141.8106  156.4220 C   0  0  0  0  0  0  0  0  0  0  0  0
  150.3453  140.6224  156.7115 O   0  0  0  0  0  0  0  0  0  0  0  0
  150.6827  142.8474  157.1316 N   0  0  0  0  0  0  0  0  0  0  0  0
  151.4915  142.8344  158.3004 C   0  0  0  0  0  0  0  0  0  0  0  0
  152.2002  141.6999  158.7656 C   0  0  0  0  0  0  0  0  0  0  0  0
  152.9885  141.8268  159.9270 C   0  0  0  0  0  0  0  0  0  0  0  0
  153.1118  142.9781  160.6208 N   0  0  0  0  0  0  0  0  0  0  0  0
  152.4444  144.0602  160.1675 C   0  0  0  0  0  0  0  0  0  0  0  0
  151.6304  144.0415  159.0174 C   0  0  0  0  0  0  0  0  0  0  0  0
  150.9921  145.1667  158.6133 F   0  0  0  0  0  0  0  0  0  0  0  0
  146.5564  142.0606  155.0033 N   0  0  0  0  0  0  0  0  0  0  0  0
  145.2867  141.6241  155.6083 C   0  0  0  0  0  0  0  0  0  0  0  0
  144.3341  142.8004  155.8897 C   0  0  0  0  0  0  0  0  0  0  0  0
  144.0187  143.5333  154.6691 N   0  0  0  0  0  0  0  0  0  0  0  0
  143.1095  144.6390  154.9286 C   0  0  0  0  0  0  0  0  0  0  0  0
  145.2667  143.9934  154.0717 C   0  0  0  0  0  0  0  0  0  0  0  0
  146.2235  142.8206  153.7874 C   0  0  0  0  0  0  0  0  0  0  0  0
  148.6179  138.4577  153.5002 H   0  0  0  0  0  0  0  0  0  0  0  0
  147.0496  137.6830  153.4289 H   0  0  0  0  0  0  0  0  0  0  0  0
  147.7042  138.1728  154.9843 H   0  0  0  0  0  0  0  0  0  0  0  0
  145.9017  139.6183  154.0960 H   0  0  0  0  0  0  0  0  0  0  0  0
  147.8513  140.3048  151.8571 H   0  0  0  0  0  0  0  0  0  0  0  0
  146.3723  141.2088  152.1766 H   0  0  0  0  0  0  0  0  0  0  0  0
  146.2943  139.5138  151.7263 H   0  0  0  0  0  0  0  0  0  0  0  0
  147.6190  140.4175  155.7100 H   0  0  0  0  0  0  0  0  0  0  0  0
  149.5598  140.5247  154.1797 H   0  0  0  0  0  0  0  0  0  0  0  0
  148.8970  141.8764  153.3622 H   0  0  0  0  0  0  0  0  0  0  0  0
  149.4740  143.2340  155.1878 H   0  0  0  0  0  0  0  0  0  0  0  0
  150.4070  143.7651  156.8135 H   0  0  0  0  0  0  0  0  0  0  0  0
  152.1684  140.7498  158.2557 H   0  0  0  0  0  0  0  0  0  0  0  0
  153.5417  140.9799  160.3053 H   0  0  0  0  0  0  0  0  0  0  0  0
  152.5649  144.9699  160.7369 H   0  0  0  0  0  0  0  0  0  0  0  0
  144.7933  140.8990  154.9590 H   0  0  0  0  0  0  0  0  0  0  0  0
  145.4638  141.1248  156.5589 H   0  0  0  0  0  0  0  0  0  0  0  0
  143.4154  142.4206  156.3379 H   0  0  0  0  0  0  0  0  0  0  0  0
  144.7857  143.4698  156.6240 H   0  0  0  0  0  0  0  0  0  0  0  0
  142.8710  145.1673  154.0050 H   0  0  0  0  0  0  0  0  0  0  0  0
  143.5468  145.3545  155.6264 H   0  0  0  0  0  0  0  0  0  0  0  0
  142.1735  144.2769  155.3552 H   0  0  0  0  0  0  0  0  0  0  0  0
  145.0562  144.5196  153.1400 H   0  0  0  0  0  0  0  0  0  0  0  0
  145.7559  144.7118  154.7317 H   0  0  0  0  0  0  0  0  0  0  0  0
  147.1195  143.2536  153.3474 H   0  0  0  0  0  0  0  0  0  0  0  0
  145.7871  142.1585  153.0380 H   0  0  0  0  0  0  0  0  0  0  0  0
  1  2  1  0  0  0  0
  1 24  1  0  0  0  0
  1 25  1  0  0  0  0
  1 26  1  0  0  0  0
  2  3  1  0  0  0  0
  2  4  1  0  0  0  0
  2 27  1  0  0  0  0
  3 28  1  0  0  0  0
  3 29  1  0  0  0  0
  3 30  1  0  0  0  0
  4  5  1  0  0  0  0
  4 17  1  0  0  0  0
  4 31  1  0  0  0  0
  5  6  1  0  0  0  0
  5 32  1  0  0  0  0
  5 33  1  0  0  0  0
  6  7  1  0  0  0  0
  6 34  1  0  0  0  0
  7  8  2  0  0  0  0
  7  9  1  0  0  0  0
  9 10  1  0  0  0  0
  9 35  1  0  0  0  0
 10 15  1  0  0  0  0
 10 11  2  0  0  0  0
 11 12  1  0  0  0  0
 11 36  1  0  0  0  0
 12 13  2  0  0  0  0
 12 37  1  0  0  0  0
 13 14  1  0  0  0  0
 14 15  2  0  0  0  0
 14 38  1  0  0  0  0
 15 16  1  0  0  0  0
 17 23  1  0  0  0  0
 17 18  1  0  0  0  0
 18 19  1  0  0  0  0
 18 39  1  0  0  0  0
 18 40  1  0  0  0  0
 19 20  1  0  0  0  0
 19 41  1  0  0  0  0
 19 42  1  0  0  0  0
 20 21  1  0  0  0  0
 20 22  1  0  0  0  0
 21 43  1  0  0  0  0
 21 44  1  0  0  0  0
 21 45  1  0  0  0  0
 22 23  1  0  0  0  0
 22 46  1  0  0  0  0
 22 47  1  0  0  0  0
 23 48  1  0  0  0  0
 23 49  1  0  0  0  0
M  END
> <s_m_source_file>
AV-unprocessed.smi

> <i_m_source_file_index>
2336

> <i_lp_mmshare_version>
43012

> <i_f3d_flags>
0

> <s_epik_input>
W0NIMl0xW0NIMl1OKFtDSDNdKVtDSDJdW0NIMl1OMVtDQEhdKFtDSF0oW0NIM10pW0NIM10pW0NIMl1bTkhdQyg9TylbTkhdYzJbY0hdW2NIXW5bY0hdYzJG

> <s_epik_cmdline>
J2VwaWtfcHl0aG9uJywgJy1waCcsICc3LjAnLCAnLXRuJywgJzgnLCAnLW1hJywgJzIwMCcsICctbWV0YWxfYmluZGluZycsICctaW1hZScsICc8aW5maWxlLm1hZT4nLCAnLW9tYWUnLCAnPG91dGZpbGUubWFlPic=

> <r_epik_Ionization_Penalty>
2.58102

> <r_epik_Ionization_Penalty_Charging>
0

> <r_epik_Ionization_Penalty_Neutral>
2.58102

> <r_epik_State_Penalty>
2.00874

> <r_epik_Charging_Adjusted_Penalty>
2.00874

> <i_epik_Tot_Q>
0

> <i_epik_Tot_abs_Q>
0

> <r_epik_Metal_State_Penalty>
2.00867

> <b_epik_Metal_Only>
0

> <s_lp_Force_Field>
OPLS_2005

> <r_lp_Energy>
52.4608

> <b_lp_Chiralities_Consistent>
1

> <s_lp_Variant>
AV-unprocessed.smi:2336-6

> <Gold.Version>
5.8.1

> <Gold.Id.Protein>
6NUR|6NUR_protein|mol2

> <Gold.PLP.Fitness>
46.4633

> <Gold.PLP.PLP>
-41.9439

> <Gold.PLP.part.hbond>
-2.0000

> <Gold.PLP.part.metal>
0.0000

> <Gold.PLP.part.buried>
-5.1150

> <Gold.PLP.part.nonpolar>
-36.1912

> <Gold.PLP.part.repulsive>
0.8845

> <Gold.PLP.ligand.clash>
0.0000

> <Gold.PLP.ligand.torsion>
0.4568

> <Gold.PLP.Chemscore.Hbond>
1.7030

> <Gold.PLP.Chemscore.CHOScore>
0.0000

> <Gold.PLP.Chemscore.Metal>
0.0000

> <Gold.Chemscore.Hbonds>
donor molecule, donor type, donor heavy atom, donor atom, acceptor molecule, acceptor atom, score
      L1  H     6    34       P1  8028  1.00
      L1  H     9    35       P1  8028  0.65

> <Gold.PLP.Chemscore.Internal.Correction>
0.3240

> <Gold.Rescore>
     Score         DG    S(hbond)    S(metal)    S(lipo)     H(rot)  DE(clash)    DE(int)     intcor
     17.91     -19.75       1.88        0.00     104.05       1.63       0.12       1.72       ----

> <Gold.Chemscore.Fitness>
17.9120

> <Gold.Chemscore.DG>
-19.7527

> <Gold.Chemscore.ZeroCoef>
-5.4800

> <Gold.Chemscore.Hbond>
1.8762

> <Gold.Chemscore.Metal>
0.0000

> <Gold.Chemscore.Lipo>
104.0451

> <Gold.Chemscore.Internal_Hbond>
0.0000

> <Gold.Chemscore.DEClash>
0.1168

> <Gold.Chemscore.DEInternal>
1.7239

> <Gold.Chemscore.Rot>
1.6277

> <Gold.Chemscore.Internal.Correction>
   9.000000E+99

> <Gold.Chemscore.Hbonds>
donor molecule, donor type, donor heavy atom, donor atom, acceptor molecule, acceptor atom, score
      L1  H     6    34       P1  8028  0.94
      L1  H     9    35       P1  8028  0.64

> <Gold.Chemscore.Hbond.Weighted>
-6.2664

> <Gold.Chemscore.Metal.Weighted>
-0.0000

> <Gold.Chemscore.Lipo.Weighted>
-12.1733

> <Gold.Chemscore.Internal_Hbond.Weighted>
0.0000

> <Gold.Chemscore.DEClash.Weighted>
0.1168

> <Gold.Chemscore.DEInternal.Weighted>
1.7239

> <Gold.Chemscore.Rot.Weighted>
4.1670

> <Gold.Chemscore.Internal.Correction.Weighted>
   9.000000E+99

> <Gold.Protein.RotatedTorsions>
[ 6907 6896 6895 6894 ] final   17.75 input  -60.11 | X-H torsion
[ 7974 7965 7964 7962 ] final -132.76 input  175.53 | X-H torsion
[ 8008 7997 7996 7995 ] final  -19.58 input   59.86 | X-H torsion
[ 10167 10162 10161 10158 ] final   80.30 input  -65.29 | X-H torsion
[ 10718 10713 10712 10709 ] final -179.09 input   66.30 | X-H torsion
[ 10763 10752 10751 10750 ] final   48.34 input  -60.55 | X-H torsion
[ 11005 11000 10999 10996 ] final   32.11 input  -57.11 | X-H torsion

> <Gold.Protein.ActiveResidues>
 VAL166  LYS551  ARG553  GLY616  TRP617  ASP618  TYR619  PRO620  LYS621  CYS622 
 ASP623  PHE694  ASN695  SER759  ASP760  ASP761  ALA762  ILE779  LEU786  VAL792 
 PHE793  MET794  SER795  GLU796  ALA797  LYS798  CYS799  TRP800  GLU811  SER814 

> <Gold.Protein.RotatedAtoms>
  151.8545  135.0546  160.0462 H   0  0  0  0  0  0  0  0  0  0  0  0  # atno 6907 bound_to 6896
  152.2711  133.5378  159.5448 H   0  0  0  0  0  0  0  0  0  0  0  0  # atno 6908 bound_to 6896
  150.7152  134.0613  159.3874 H   0  0  0  0  0  0  0  0  0  0  0  0  # atno 6909 bound_to 6896
  144.9255  140.7066  143.4938 H   0  0  0  0  0  0  0  0  0  0  0  0  # atno 7974 bound_to 7965
  154.4827  140.2085  155.9727 H   0  0  0  0  0  0  0  0  0  0  0  0  # atno 8008 bound_to 7997
  156.1189  140.3216  155.8149 H   0  0  0  0  0  0  0  0  0  0  0  0  # atno 8009 bound_to 7997
  155.4503  140.0516  157.2992 H   0  0  0  0  0  0  0  0  0  0  0  0  # atno 8010 bound_to 7997
  139.9512  144.6025  150.8159 H   0  0  0  0  0  0  0  0  0  0  0  0  # atno 10167 bound_to 10162
  156.8539  130.9728  151.3090 H   0  0  0  0  0  0  0  0  0  0  0  0  # atno 10718 bound_to 10713
  152.9792  135.5947  154.3909 H   0  0  0  0  0  0  0  0  0  0  0  0  # atno 10763 bound_to 10752
  154.3565  135.2767  155.2345 H   0  0  0  0  0  0  0  0  0  0  0  0  # atno 10764 bound_to 10752
  154.4362  135.6024  153.6155 H   0  0  0  0  0  0  0  0  0  0  0  0  # atno 10765 bound_to 10752
  140.2768  134.3018  155.7811 H   0  0  0  0  0  0  0  0  0  0  0  0  # atno 11005 bound_to 11000
  145.3226  139.1784  143.4580 LP  0  0  0  0  0  0  0  0  0  0  0  0  # atno 17320 bound_to 7965
  146.3224  140.3245  142.8636 LP  0  0  0  0  0  0  0  0  0  0  0  0  # atno 17321 bound_to 7965
  140.7582  143.3102  151.2862 LP  0  0  0  0  0  0  0  0  0  0  0  0  # atno 17342 bound_to 10162
  139.6627  144.0161  152.2703 LP  0  0  0  0  0  0  0  0  0  0  0  0  # atno 17343 bound_to 10162
  157.6288  130.8713  149.9237 LP  0  0  0  0  0  0  0  0  0  0  0  0  # atno 17370 bound_to 10713
  156.0813  130.3673  150.0575 LP  0  0  0  0  0  0  0  0  0  0  0  0  # atno 17371 bound_to 10713
  141.2169  133.7501  156.9420 LP  0  0  0  0  0  0  0  0  0  0  0  0  # atno 17394 bound_to 11000
  140.1320  134.9349  157.2350 LP  0  0  0  0  0  0  0  0  0  0  0  0  # atno 17395 bound_to 11000

$$$$
