AV-unprocessed.smi:1676|AV-procd|sdf|6719|dock9
  -GOLD-   22720 7463D 1   1.00000     0.00000
 Structure written by MMmdl.
 42 43  0  0  0  0  0  0  0  0  2 V2000
  150.1676  136.8709  156.8860 C   0  0  0  0  0  0  0  0  0  0  0  0
  150.4694  135.4097  156.7154 C   0  0  0  0  0  0  0  0  0  0  0  0
  151.6514  135.0448  156.2481 N   0  0  0  0  0  0  0  0  0  0  0  0
  151.6376  133.6470  156.2197 O   0  0  0  0  0  0  0  0  0  0  0  0
  150.4334  133.2202  156.6778 C   0  0  0  0  0  0  0  0  0  0  0  0
  150.2252  131.7449  156.7347 C   0  0  0  0  0  0  0  0  0  0  0  0
  149.6411  134.2864  157.0037 C   0  0  0  0  0  0  0  0  0  0  0  0
  148.2326  134.2777  157.5484 C   0  0  0  0  0  0  0  0  0  0  0  0
  148.1410  134.9619  158.9186 C   0  0  0  0  0  0  0  0  0  0  0  0
  149.1409  135.4583  159.4382 O   0  0  0  0  0  0  0  0  0  0  0  0
  146.9106  134.9514  159.4654 N   0  0  0  0  0  0  0  0  0  0  0  0
  146.3683  135.4836  160.7301 C   0  0  0  0  0  0  0  0  0  0  0  0
  147.3011  136.6750  161.0803 C   0  0  0  0  0  0  0  0  0  0  0  0
  147.9314  136.6518  162.1613 O   0  0  0  0  0  0  0  0  0  0  0  0
  147.3450  137.6261  160.2663 O   0  5  0  0  0  0  0  0  0  0  0  0
  144.8782  135.9541  160.6338 C   0  0  0  0  0  0  0  0  0  0  0  0
  144.1941  136.2979  161.9712 C   0  0  0  0  0  0  0  0  0  0  0  0
  143.4568  135.0927  162.5775 C   0  0  0  0  0  0  0  0  0  0  0  0
  144.3734  133.9743  163.0958 C   0  0  0  0  0  0  0  0  0  0  0  0
  145.3787  133.4265  162.0654 C   0  0  0  0  0  0  0  0  0  0  0  0
  146.5651  134.3776  161.8156 C   0  0  0  0  0  0  0  0  0  0  0  0
  149.0990  137.0470  157.0059 H   0  0  0  0  0  0  0  0  0  0  0  0
  150.5004  137.4472  156.0223 H   0  0  0  0  0  0  0  0  0  0  0  0
  150.6685  137.2708  157.7677 H   0  0  0  0  0  0  0  0  0  0  0  0
  149.4656  131.4867  157.4729 H   0  0  0  0  0  0  0  0  0  0  0  0
  151.1473  131.2321  157.0093 H   0  0  0  0  0  0  0  0  0  0  0  0
  149.9004  131.3642  155.7667 H   0  0  0  0  0  0  0  0  0  0  0  0
  147.5452  134.7786  156.8663 H   0  0  0  0  0  0  0  0  0  0  0  0
  147.8620  133.2569  157.6496 H   0  0  0  0  0  0  0  0  0  0  0  0
  146.2132  134.4759  158.9114 H   0  0  0  0  0  0  0  0  0  0  0  0
  144.8062  136.8227  159.9773 H   0  0  0  0  0  0  0  0  0  0  0  0
  144.2717  135.1950  160.1408 H   0  0  0  0  0  0  0  0  0  0  0  0
  144.8986  136.7245  162.6856 H   0  0  0  0  0  0  0  0  0  0  0  0
  143.4551  137.0773  161.7829 H   0  0  0  0  0  0  0  0  0  0  0  0
  142.8380  135.4410  163.4051 H   0  0  0  0  0  0  0  0  0  0  0  0
  142.7617  134.6826  161.8440 H   0  0  0  0  0  0  0  0  0  0  0  0
  144.9069  134.3196  163.9823 H   0  0  0  0  0  0  0  0  0  0  0  0
  143.7428  133.1525  163.4366 H   0  0  0  0  0  0  0  0  0  0  0  0
  145.7821  132.4978  162.4707 H   0  0  0  0  0  0  0  0  0  0  0  0
  144.8874  133.1480  161.1328 H   0  0  0  0  0  0  0  0  0  0  0  0
  147.4316  133.7689  161.5500 H   0  0  0  0  0  0  0  0  0  0  0  0
  146.8363  134.8212  162.7755 H   0  0  0  0  0  0  0  0  0  0  0  0
  1  2  1  0  0  0  0
  1 22  1  0  0  0  0
  1 23  1  0  0  0  0
  1 24  1  0  0  0  0
  2  7  1  0  0  0  0
  2  3  2  0  0  0  0
  3  4  1  0  0  0  0
  4  5  1  0  0  0  0
  5  6  1  0  0  0  0
  5  7  2  0  0  0  0
  6 25  1  0  0  0  0
  6 26  1  0  0  0  0
  6 27  1  0  0  0  0
  7  8  1  0  0  0  0
  8  9  1  0  0  0  0
  8 28  1  0  0  0  0
  8 29  1  0  0  0  0
  9 10  2  0  0  0  0
  9 11  1  0  0  0  0
 11 12  1  0  0  0  0
 11 30  1  0  0  0  0
 12 21  1  0  0  0  0
 12 13  1  0  0  0  0
 12 16  1  0  0  0  0
 13 14  2  0  0  0  0
 13 15  1  0  0  0  0
 16 17  1  0  0  0  0
 16 31  1  0  0  0  0
 16 32  1  0  0  0  0
 17 18  1  0  0  0  0
 17 33  1  0  0  0  0
 17 34  1  0  0  0  0
 18 19  1  0  0  0  0
 18 35  1  0  0  0  0
 18 36  1  0  0  0  0
 19 20  1  0  0  0  0
 19 37  1  0  0  0  0
 19 38  1  0  0  0  0
 20 21  1  0  0  0  0
 20 39  1  0  0  0  0
 20 40  1  0  0  0  0
 21 41  1  0  0  0  0
 21 42  1  0  0  0  0
M  CHG  1  15  -1
M  END
> <s_m_source_file>
AV-unprocessed.smi

> <i_m_source_file_index>
1676

> <i_lp_mmshare_version>
43012

> <i_f3d_flags>
0

> <s_epik_input>
W0NIM11jMW5vYyhbQ0gzXSljMVtDSDJdQyg9TylbTkhdQzIoQyg9TylbT0hdKVtDSDJdW0NIMl1bQ0gyXVtDSDJdW0NIMl1bQ0gyXTI=

> <s_epik_cmdline>
J2VwaWtfcHl0aG9uJywgJy1waCcsICc3LjAnLCAnLXRuJywgJzgnLCAnLW1hJywgJzIwMCcsICctbWV0YWxfYmluZGluZycsICctaW1hZScsICc8aW5maWxlLm1hZT4nLCAnLW9tYWUnLCAnPG91dGZpbGUubWFlPic=

> <r_epik_Ionization_Penalty>
0.000392727

> <r_epik_Ionization_Penalty_Charging>
0.000392708

> <r_epik_Ionization_Penalty_Neutral>
1.90763e-08

> <r_epik_State_Penalty>
0.000240388

> <r_epik_Charging_Adjusted_Penalty>
0.000633096

> <i_epik_Tot_Q>
-1

> <i_epik_Tot_abs_Q>
1

> <r_epik_Metal_State_Penalty>
-0

> <b_epik_Metal_Only>
0

> <s_lp_Force_Field>
OPLS_2005

> <r_lp_Energy>
9.66029

> <b_lp_Chiralities_Consistent>
1

> <s_lp_Variant>
AV-unprocessed.smi:1676-1

> <Gold.Version>
5.8.1

> <Gold.Id.Protein>
6NUR|6NUR_protein|mol2

> <Gold.PLP.Fitness>
40.2030

> <Gold.PLP.PLP>
-23.3303

> <Gold.PLP.part.hbond>
-4.8719

> <Gold.PLP.part.metal>
0.0000

> <Gold.PLP.part.buried>
-0.7692

> <Gold.PLP.part.nonpolar>
-17.8835

> <Gold.PLP.part.repulsive>
0.0203

> <Gold.PLP.ligand.clash>
0.0065

> <Gold.PLP.ligand.torsion>
0.5957

> <Gold.PLP.Chemscore.Hbond>
6.0000

> <Gold.PLP.Chemscore.CHOScore>
0.0000

> <Gold.PLP.Chemscore.Metal>
0.0000

> <Gold.Chemscore.Hbonds>
donor molecule, donor type, donor heavy atom, donor atom, acceptor molecule, acceptor atom, score
      P1  H  6896  6909       L1    10  0.99
      P1  H  6931  6943       L1    14  2.00
      P1  H  6934  6947       L1    15  2.00
      P1  H 10752 10763       L1     3  1.00

> <Gold.PLP.Chemscore.Internal.Correction>
0.0705

> <Gold.Rescore>
     Score         DG    S(hbond)    S(metal)    S(lipo)     H(rot)  DE(clash)    DE(int)     intcor
     15.53     -17.56       3.03        0.00      58.12       1.89       0.19       1.84       ----

> <Gold.Chemscore.Fitness>
15.5265

> <Gold.Chemscore.DG>
-17.5599

> <Gold.Chemscore.ZeroCoef>
-5.4800

> <Gold.Chemscore.Hbond>
3.0313

> <Gold.Chemscore.Metal>
0.0000

> <Gold.Chemscore.Lipo>
58.1182

> <Gold.Chemscore.Internal_Hbond>
0.0000

> <Gold.Chemscore.DEClash>
0.1896

> <Gold.Chemscore.DEInternal>
1.8439

> <Gold.Chemscore.Rot>
1.8924

> <Gold.Chemscore.Internal.Correction>
   9.000000E+99

> <Gold.Chemscore.Hbonds>
donor molecule, donor type, donor heavy atom, donor atom, acceptor molecule, acceptor atom, score
      P1  H  6896  6909       L1    10  0.89
      P1  H  6931  6943       L1    14  0.25
      P1  H  6934  6947       L1    15  0.82
      P1  H 10752 10763       L1     3  0.28

> <Gold.Chemscore.Hbond.Weighted>
-10.1246

> <Gold.Chemscore.Metal.Weighted>
-0.0000

> <Gold.Chemscore.Lipo.Weighted>
-6.7998

> <Gold.Chemscore.Internal_Hbond.Weighted>
0.0000

> <Gold.Chemscore.DEClash.Weighted>
0.1896

> <Gold.Chemscore.DEInternal.Weighted>
1.8439

> <Gold.Chemscore.Rot.Weighted>
4.8445

> <Gold.Chemscore.Internal.Correction.Weighted>
   9.000000E+99

> <Gold.Protein.RotatedTorsions>
[ 6907 6896 6895 6894 ] final   37.85 input  -60.11 | X-H torsion
[ 7974 7965 7964 7962 ] final -108.71 input  175.53 | X-H torsion
[ 8008 7997 7996 7995 ] final  129.53 input   59.86 | X-H torsion
[ 10167 10162 10161 10158 ] final  -39.65 input  -65.29 | X-H torsion
[ 10718 10713 10712 10709 ] final   52.86 input   66.30 | X-H torsion
[ 10763 10752 10751 10750 ] final   86.81 input  -60.55 | X-H torsion
[ 11005 11000 10999 10996 ] final  -69.53 input  -57.11 | X-H torsion

> <Gold.Protein.ActiveResidues>
 VAL166  LYS551  ARG553  GLY616  TRP617  ASP618  TYR619  PRO620  LYS621  CYS622 
 ASP623  PHE694  ASN695  SER759  ASP760  ASP761  ALA762  ILE779  LEU786  VAL792 
 PHE793  MET794  SER795  GLU796  ALA797  LYS798  CYS799  TRP800  GLU811  SER814 

> <Gold.Protein.RotatedAtoms>
  152.1486  134.9006  160.0549 H   0  0  0  0  0  0  0  0  0  0  0  0  # atno 6907 bound_to 6896
  152.0046  133.3833  159.4203 H   0  0  0  0  0  0  0  0  0  0  0  0  # atno 6908 bound_to 6896
  150.6873  134.3718  159.5039 H   0  0  0  0  0  0  0  0  0  0  0  0  # atno 6909 bound_to 6896
  145.1895  140.9008  143.3433 H   0  0  0  0  0  0  0  0  0  0  0  0  # atno 7974 bound_to 7965
  156.2938  140.2618  156.2614 H   0  0  0  0  0  0  0  0  0  0  0  0  # atno 8008 bound_to 7997
  154.9784  140.0390  157.2285 H   0  0  0  0  0  0  0  0  0  0  0  0  # atno 8009 bound_to 7997
  154.7794  140.2792  155.6080 H   0  0  0  0  0  0  0  0  0  0  0  0  # atno 8010 bound_to 7997
  140.7058  143.3201  151.2813 H   0  0  0  0  0  0  0  0  0  0  0  0  # atno 10167 bound_to 10162
  157.5114  130.8503  149.8439 H   0  0  0  0  0  0  0  0  0  0  0  0  # atno 10718 bound_to 10713
  153.1606  135.4567  154.9767 H   0  0  0  0  0  0  0  0  0  0  0  0  # atno 10763 bound_to 10752
  154.7895  135.3215  154.7813 H   0  0  0  0  0  0  0  0  0  0  0  0  # atno 10764 bound_to 10752
  153.8303  135.6939  153.4870 H   0  0  0  0  0  0  0  0  0  0  0  0  # atno 10765 bound_to 10752
  141.1556  133.6767  156.6613 H   0  0  0  0  0  0  0  0  0  0  0  0  # atno 11005 bound_to 11000
  145.0055  139.3558  143.6146 LP  0  0  0  0  0  0  0  0  0  0  0  0  # atno 17320 bound_to 7965
  146.3439  139.9297  142.8755 LP  0  0  0  0  0  0  0  0  0  0  0  0  # atno 17321 bound_to 7965
  139.6652  144.0117  152.2718 LP  0  0  0  0  0  0  0  0  0  0  0  0  # atno 17342 bound_to 10162
  139.9698  144.6501  150.8000 LP  0  0  0  0  0  0  0  0  0  0  0  0  # atno 17343 bound_to 10162
  156.0291  130.3770  150.1738 LP  0  0  0  0  0  0  0  0  0  0  0  0  # atno 17370 bound_to 10713
  156.9927  130.9898  151.3411 LP  0  0  0  0  0  0  0  0  0  0  0  0  # atno 17371 bound_to 10713
  140.3245  134.7980  157.4278 LP  0  0  0  0  0  0  0  0  0  0  0  0  # atno 17394 bound_to 11000
  140.1069  134.5398  155.8301 LP  0  0  0  0  0  0  0  0  0  0  0  0  # atno 17395 bound_to 11000

$$$$
