AV-unprocessed.smi:1510|AV-procd|sdf|6096|dock10
  -GOLD-   22720 6223D 1   1.00000     0.00000
 Structure written by MMmdl.
 33 34  0  0  0  0  0  0  0  0  1 V2000
  153.8251  139.1711  158.4350 O   0  0  0  0  0  0  0  0  0  0  0  0
  152.7388  139.6648  158.7405 C   0  0  0  0  0  0  0  0  0  0  0  0
  151.4305  138.9347  158.4087 C   0  0  0  0  0  0  0  0  0  0  0  0
  151.1825  138.8431  156.9631 N   0  0  0  0  0  0  0  0  0  0  0  0
  151.3238  137.5660  156.4415 N   0  0  0  0  0  0  0  0  0  0  0  0
  151.1187  137.3573  155.1850 C   0  0  0  0  0  0  0  0  0  0  0  0
  151.2639  136.0769  154.7108 O   0  0  0  0  0  0  0  0  0  0  0  0
  150.7467  138.4370  154.2972 C   0  0  0  0  0  0  0  0  0  0  0  0
  150.6150  139.6783  154.8141 C   0  0  0  0  0  0  0  0  0  0  0  0
  150.8368  139.9498  156.2354 C   0  0  0  0  0  0  0  0  0  0  0  0
  150.7225  141.0696  156.7341 O   0  0  0  0  0  0  0  0  0  0  0  0
  152.6158  140.8505  159.3554 N   0  0  0  0  0  0  0  0  0  0  0  0
  153.7263  141.6901  159.7905 C   0  0  0  0  0  0  0  0  0  0  0  0
  153.3532  143.1836  159.8078 C   0  0  2  0  0  0  0  0  0  0  0  0
  152.2637  143.5638  160.8085 C   0  0  0  0  0  0  0  0  0  0  0  0
  151.7034  144.8526  160.2310 C   0  0  0  0  0  0  0  0  0  0  0  0
  152.1367  144.8231  158.7611 C   0  0  0  0  0  0  0  0  0  0  0  0
  152.7734  143.5657  158.5716 O   0  0  0  0  0  0  0  0  0  0  0  0
  151.1896  136.1478  153.7715 H   0  0  0  0  0  0  0  0  0  0  0  0
  151.4367  137.9348  158.8472 H   0  0  0  0  0  0  0  0  0  0  0  0
  150.6142  139.4654  158.9018 H   0  0  0  0  0  0  0  0  0  0  0  0
  150.5806  138.2449  153.2474 H   0  0  0  0  0  0  0  0  0  0  0  0
  150.3378  140.4941  154.1628 H   0  0  0  0  0  0  0  0  0  0  0  0
  151.6852  141.1837  159.5614 H   0  0  0  0  0  0  0  0  0  0  0  0
  154.0689  141.3738  160.7770 H   0  0  0  0  0  0  0  0  0  0  0  0
  154.5590  141.5245  159.1065 H   0  0  0  0  0  0  0  0  0  0  0  0
  154.2403  143.7967  159.9771 H   0  0  0  0  0  0  0  0  0  0  0  0
  151.4850  142.8003  160.8258 H   0  0  0  0  0  0  0  0  0  0  0  0
  152.6442  143.6825  161.8236 H   0  0  0  0  0  0  0  0  0  0  0  0
  150.6196  144.8992  160.3401 H   0  0  0  0  0  0  0  0  0  0  0  0
  152.1290  145.7222  160.7329 H   0  0  0  0  0  0  0  0  0  0  0  0
  151.2955  144.9345  158.0766 H   0  0  0  0  0  0  0  0  0  0  0  0
  152.8496  145.6226  158.5552 H   0  0  0  0  0  0  0  0  0  0  0  0
  1  2  2  0  0  0  0
  2  3  1  0  0  0  0
  2 12  1  0  0  0  0
  3 20  1  0  0  0  0
  3 21  1  0  0  0  0
  3  4  1  0  0  0  0
  4  5  1  0  0  0  0
  4 10  1  0  0  0  0
  5  6  2  0  0  0  0
  6  7  1  0  0  0  0
  6  8  1  0  0  0  0
  7 19  1  0  0  0  0
  8 22  1  0  0  0  0
  8  9  2  0  0  0  0
  9 23  1  0  0  0  0
  9 10  1  0  0  0  0
 10 11  2  0  0  0  0
 12 13  1  0  0  0  0
 12 24  1  0  0  0  0
 13 14  1  0  0  0  0
 13 25  1  0  0  0  0
 13 26  1  0  0  0  0
 14 18  1  0  0  0  0
 14 15  1  0  0  0  0
 14 27  1  0  0  0  0
 15 16  1  0  0  0  0
 15 28  1  0  0  0  0
 15 29  1  0  0  0  0
 16 17  1  0  0  0  0
 16 30  1  0  0  0  0
 16 31  1  0  0  0  0
 17 18  1  0  0  0  0
 17 32  1  0  0  0  0
 17 33  1  0  0  0  0
M  END
> <s_m_source_file>
AV-unprocessed.smi

> <i_m_source_file_index>
1510

> <i_lp_mmshare_version>
43012

> <i_f3d_flags>
0

> <s_epik_input>
TzFbQ0gyXVtDSDJdW0NIMl1bQ0BIXTFbQ0gyXVtOSF1DKD1PKVtDSDJdbjJbbkhdYyg9TylbY0hdW2NIXWMyPU8=

> <s_epik_cmdline>
J2VwaWtfcHl0aG9uJywgJy1waCcsICc3LjAnLCAnLXRuJywgJzgnLCAnLW1hJywgJzIwMCcsICctbWV0YWxfYmluZGluZycsICctaW1hZScsICc8aW5maWxlLm1hZT4nLCAnLW9tYWUnLCAnPG91dGZpbGUubWFlPic=

> <r_lp_tautomer_probability>
0.9996

> <r_epik_Ionization_Penalty>
2.13037

> <r_epik_Ionization_Penalty_Charging>
3.76e-08

> <r_epik_Ionization_Penalty_Neutral>
2.13037

> <r_epik_State_Penalty>
1.70753

> <r_epik_Charging_Adjusted_Penalty>
1.70753

> <i_epik_Tot_Q>
0

> <i_epik_Tot_abs_Q>
0

> <r_epik_Metal_State_Penalty>
1.70753

> <b_epik_Metal_Only>
0

> <s_lp_Force_Field>
OPLS_2005

> <r_lp_Energy>
28.2415

> <b_lp_Chiralities_Consistent>
1

> <s_lp_Variant>
AV-unprocessed.smi:1510-3

> <Gold.Version>
5.8.1

> <Gold.Id.Protein>
6NUR|6NUR_protein|mol2

> <Gold.PLP.Fitness>
45.9564

> <Gold.PLP.PLP>
-37.6937

> <Gold.PLP.part.hbond>
-3.0000

> <Gold.PLP.part.metal>
0.0000

> <Gold.PLP.part.buried>
-3.8579

> <Gold.PLP.part.nonpolar>
-30.5085

> <Gold.PLP.part.repulsive>
0.1706

> <Gold.PLP.ligand.clash>
0.0000

> <Gold.PLP.ligand.torsion>
0.3732

> <Gold.PLP.Chemscore.Hbond>
3.0000

> <Gold.PLP.Chemscore.CHOScore>
0.0000

> <Gold.PLP.Chemscore.Metal>
0.0000

> <Gold.Chemscore.Hbonds>
donor molecule, donor type, donor heavy atom, donor atom, acceptor molecule, acceptor atom, score
      L1  H     7    19       P1  7949  0.37
      P1  H  7997  8010       L1     1  1.00
      P1  H 10752 10765       L1     7  0.70

> <Gold.PLP.Chemscore.Internal.Correction>
0.0090

> <Gold.Rescore>
     Score         DG    S(hbond)    S(metal)    S(lipo)     H(rot)  DE(clash)    DE(int)     intcor
     16.24     -16.82       2.64        0.00      80.49       2.69       0.01       0.57       ----

> <Gold.Chemscore.Fitness>
16.2355

> <Gold.Chemscore.DG>
-16.8204

> <Gold.Chemscore.ZeroCoef>
-5.4800

> <Gold.Chemscore.Hbond>
2.6404

> <Gold.Chemscore.Metal>
0.0000

> <Gold.Chemscore.Lipo>
80.4899

> <Gold.Chemscore.Internal_Hbond>
0.0000

> <Gold.Chemscore.DEClash>
0.0144

> <Gold.Chemscore.DEInternal>
0.5704

> <Gold.Chemscore.Rot>
2.6937

> <Gold.Chemscore.Internal.Correction>
   9.000000E+99

> <Gold.Chemscore.Hbonds>
donor molecule, donor type, donor heavy atom, donor atom, acceptor molecule, acceptor atom, score
      L1  H     7    19       P1  7949  0.17
      P1  H  7997  8010       L1     1  0.70
      P1  H 10752 10765       L1     7  0.06

> <Gold.Chemscore.Hbond.Weighted>
-8.8190

> <Gold.Chemscore.Metal.Weighted>
-0.0000

> <Gold.Chemscore.Lipo.Weighted>
-9.4173

> <Gold.Chemscore.Internal_Hbond.Weighted>
0.0000

> <Gold.Chemscore.DEClash.Weighted>
0.0144

> <Gold.Chemscore.DEInternal.Weighted>
0.5704

> <Gold.Chemscore.Rot.Weighted>
6.8959

> <Gold.Chemscore.Internal.Correction.Weighted>
   9.000000E+99

> <Gold.Protein.RotatedTorsions>
[ 6907 6896 6895 6894 ] final  167.02 input  -60.11 | X-H torsion
[ 7974 7965 7964 7962 ] final  139.40 input  175.53 | X-H torsion
[ 8008 7997 7996 7995 ] final   42.60 input   59.86 | X-H torsion
[ 10167 10162 10161 10158 ] final    6.03 input  -65.29 | X-H torsion
[ 10718 10713 10712 10709 ] final  -19.85 input   66.30 | X-H torsion
[ 10763 10752 10751 10750 ] final -175.75 input  -60.55 | X-H torsion
[ 11005 11000 10999 10996 ] final   90.27 input  -57.11 | X-H torsion

> <Gold.Protein.ActiveResidues>
 VAL166  LYS551  ARG553  GLY616  TRP617  ASP618  TYR619  PRO620  LYS621  CYS622 
 ASP623  PHE694  ASN695  SER759  ASP760  ASP761  ALA762  ILE779  LEU786  VAL792 
 PHE793  MET794  SER795  GLU796  ALA797  LYS798  CYS799  TRP800  GLU811  SER814 

> <Gold.Protein.RotatedAtoms>
  151.8699  133.3473  159.3731 H   0  0  0  0  0  0  0  0  0  0  0  0  # atno 6907 bound_to 6896
  150.7156  134.5123  159.5623 H   0  0  0  0  0  0  0  0  0  0  0  0  # atno 6908 bound_to 6896
  152.2654  134.7990  160.0474 H   0  0  0  0  0  0  0  0  0  0  0  0  # atno 6909 bound_to 6896
  144.9282  139.5080  143.5630 H   0  0  0  0  0  0  0  0  0  0  0  0  # atno 7974 bound_to 7965
  155.2888  140.3377  155.4253 H   0  0  0  0  0  0  0  0  0  0  0  0  # atno 8008 bound_to 7997
  156.2056  140.1749  156.7847 H   0  0  0  0  0  0  0  0  0  0  0  0  # atno 8009 bound_to 7997
  154.5616  140.0686  156.8812 H   0  0  0  0  0  0  0  0  0  0  0  0  # atno 8010 bound_to 7997
  140.6450  143.7684  150.7485 H   0  0  0  0  0  0  0  0  0  0  0  0  # atno 10167 bound_to 10162
  156.5400  130.4676  149.6503 H   0  0  0  0  0  0  0  0  0  0  0  0  # atno 10718 bound_to 10713
  154.5807  135.2836  155.0736 H   0  0  0  0  0  0  0  0  0  0  0  0  # atno 10763 bound_to 10752
  154.2073  135.6414  153.5108 H   0  0  0  0  0  0  0  0  0  0  0  0  # atno 10764 bound_to 10752
  153.0087  135.5483  154.6460 H   0  0  0  0  0  0  0  0  0  0  0  0  # atno 10765 bound_to 10752
  139.8859  134.8603  156.3260 H   0  0  0  0  0  0  0  0  0  0  0  0  # atno 11005 bound_to 11000
  146.3235  139.8213  142.8926 LP  0  0  0  0  0  0  0  0  0  0  0  0  # atno 17320 bound_to 7965
  145.3184  141.0238  143.3514 LP  0  0  0  0  0  0  0  0  0  0  0  0  # atno 17321 bound_to 7965
  140.1323  143.4515  152.2246 LP  0  0  0  0  0  0  0  0  0  0  0  0  # atno 17342 bound_to 10162
  139.5660  144.7435  151.4021 LP  0  0  0  0  0  0  0  0  0  0  0  0  # atno 17343 bound_to 10162
  156.2980  130.7161  151.2026 LP  0  0  0  0  0  0  0  0  0  0  0  0  # atno 17370 bound_to 10713
  157.7407  131.0514  150.5149 LP  0  0  0  0  0  0  0  0  0  0  0  0  # atno 17371 bound_to 10713
  140.9755  133.7300  156.0595 LP  0  0  0  0  0  0  0  0  0  0  0  0  # atno 17394 bound_to 11000
  140.7817  134.3718  157.5486 LP  0  0  0  0  0  0  0  0  0  0  0  0  # atno 17395 bound_to 11000

$$$$
