AV-unprocessed.smi:1633|AV-procd|sdf|6535|dock8
  -GOLD-   22720 7213D 1   1.00000     0.00000
 Structure written by MMmdl.
 52 54  0  0  0  0  0  0  0  0  3 V2000
  147.6189  136.3908  162.7757 C   0  0  0  0  0  0  0  0  0  0  0  0
  146.7767  136.6984  161.5357 C   0  0  0  0  0  0  0  0  0  0  0  0
  145.6485  137.1610  161.7032 O   0  0  0  0  0  0  0  0  0  0  0  0
  147.2915  136.4556  160.3062 N   0  0  0  0  0  0  0  0  0  0  0  0
  148.6516  135.9831  160.0286 C   0  0  0  0  0  0  0  0  0  0  0  0
  149.4336  137.0912  159.2987 C   0  0  0  0  0  0  0  0  0  0  0  0
  148.7257  137.5366  158.0659 N   0  3  0  0  0  0  0  0  0  0  0  0
  149.4378  138.6082  157.3226 C   0  0  0  0  0  0  0  0  0  0  0  0
  150.9759  138.4571  157.3515 C   0  0  1  0  0  0  0  0  0  0  0  0
  151.3262  137.1693  156.8861 O   0  0  0  0  0  0  0  0  0  0  0  0
  151.7146  139.4757  156.4596 C   0  0  0  0  0  0  0  0  0  0  0  0
  151.2993  140.8649  156.7001 N   0  0  0  0  0  0  0  0  0  0  0  0
  150.5443  141.6891  155.9234 C   0  0  0  0  0  0  0  0  0  0  0  0
  150.4258  142.8768  156.5784 N   0  3  0  0  0  0  0  0  0  0  0  0
  151.1093  142.8096  157.7942 C   0  0  0  0  0  0  0  0  0  0  0  0
  151.2743  143.7565  158.7978 C   0  0  0  0  0  0  0  0  0  0  0  0
  152.0360  143.3756  159.9254 C   0  0  0  0  0  0  0  0  0  0  0  0
  152.2376  144.3879  161.0401 C   0  0  0  0  0  0  0  0  0  0  0  0
  152.6034  142.0786  160.0184 C   0  0  0  0  0  0  0  0  0  0  0  0
  153.4230  141.6800  161.2343 C   0  0  0  0  0  0  0  0  0  0  0  0
  152.4226  141.1290  158.9875 C   0  0  0  0  0  0  0  0  0  0  0  0
  151.6699  141.5201  157.8818 C   0  0  0  0  0  0  0  0  0  0  0  0
  147.3026  137.8872  158.3201 C   0  0  0  0  0  0  0  0  0  0  0  0
  146.5686  136.7602  159.0683 C   0  0  0  0  0  0  0  0  0  0  0  0
  148.5387  136.9762  162.7751 H   0  0  0  0  0  0  0  0  0  0  0  0
  147.8715  135.3309  162.8186 H   0  0  0  0  0  0  0  0  0  0  0  0
  147.0690  136.6375  163.6846 H   0  0  0  0  0  0  0  0  0  0  0  0
  149.1990  135.6755  160.9182 H   0  0  0  0  0  0  0  0  0  0  0  0
  148.5944  135.0933  159.4001 H   0  0  0  0  0  0  0  0  0  0  0  0
  149.5711  137.9440  159.9656 H   0  0  0  0  0  0  0  0  0  0  0  0
  150.4268  136.7182  159.0527 H   0  0  0  0  0  0  0  0  0  0  0  0
  149.1134  138.6017  156.2807 H   0  0  0  0  0  0  0  0  0  0  0  0
  149.1333  139.5726  157.7305 H   0  0  0  0  0  0  0  0  0  0  0  0
  151.3518  138.5637  158.3686 H   0  0  0  0  0  0  0  0  0  0  0  0
  150.6964  136.5423  157.2070 H   0  0  0  0  0  0  0  0  0  0  0  0
  152.7871  139.4281  156.6548 H   0  0  0  0  0  0  0  0  0  0  0  0
  151.5915  139.2390  155.4027 H   0  0  0  0  0  0  0  0  0  0  0  0
  150.1142  141.4449  154.9626 H   0  0  0  0  0  0  0  0  0  0  0  0
  150.8394  144.7424  158.7203 H   0  0  0  0  0  0  0  0  0  0  0  0
  151.8707  143.9947  161.9881 H   0  0  0  0  0  0  0  0  0  0  0  0
  151.7041  145.3169  160.8376 H   0  0  0  0  0  0  0  0  0  0  0  0
  153.2951  144.6280  161.1505 H   0  0  0  0  0  0  0  0  0  0  0  0
  153.8000  140.6608  161.1461 H   0  0  0  0  0  0  0  0  0  0  0  0
  152.8168  141.7330  162.1389 H   0  0  0  0  0  0  0  0  0  0  0  0
  154.2806  142.3426  161.3521 H   0  0  0  0  0  0  0  0  0  0  0  0
  152.8565  140.1432  159.0639 H   0  0  0  0  0  0  0  0  0  0  0  0
  147.2566  138.8090  158.9026 H   0  0  0  0  0  0  0  0  0  0  0  0
  146.7978  138.0833  157.3734 H   0  0  0  0  0  0  0  0  0  0  0  0
  146.5270  135.8632  158.4487 H   0  0  0  0  0  0  0  0  0  0  0  0
  145.5309  137.0494  159.2413 H   0  0  0  0  0  0  0  0  0  0  0  0
  148.6971  136.7370  157.4494 H   0  0  0  0  0  0  0  0  0  0  0  0
  149.9096  143.6716  156.2226 H   0  0  0  0  0  0  0  0  0  0  0  0
  1  2  1  0  0  0  0
  1 25  1  0  0  0  0
  1 26  1  0  0  0  0
  1 27  1  0  0  0  0
  2  3  2  0  0  0  0
  2  4  1  0  0  0  0
  4 24  1  0  0  0  0
  4  5  1  0  0  0  0
  5  6  1  0  0  0  0
  5 28  1  0  0  0  0
  5 29  1  0  0  0  0
  6  7  1  0  0  0  0
  6 30  1  0  0  0  0
  6 31  1  0  0  0  0
  7  8  1  0  0  0  0
  7 23  1  0  0  0  0
  7 51  1  0  0  0  0
  8  9  1  0  0  0  0
  8 32  1  0  0  0  0
  8 33  1  0  0  0  0
  9 10  1  0  0  0  0
  9 11  1  0  0  0  0
  9 34  1  0  0  0  0
 10 35  1  0  0  0  0
 11 12  1  0  0  0  0
 11 36  1  0  0  0  0
 11 37  1  0  0  0  0
 12 22  1  0  0  0  0
 12 13  1  0  0  0  0
 13 14  2  0  0  0  0
 13 38  1  0  0  0  0
 14 15  1  0  0  0  0
 14 52  1  0  0  0  0
 15 22  2  0  0  0  0
 15 16  1  0  0  0  0
 16 17  2  0  0  0  0
 16 39  1  0  0  0  0
 17 18  1  0  0  0  0
 17 19  1  0  0  0  0
 18 40  1  0  0  0  0
 18 41  1  0  0  0  0
 18 42  1  0  0  0  0
 19 20  1  0  0  0  0
 19 21  2  0  0  0  0
 20 43  1  0  0  0  0
 20 44  1  0  0  0  0
 20 45  1  0  0  0  0
 21 22  1  0  0  0  0
 21 46  1  0  0  0  0
 23 24  1  0  0  0  0
 23 47  1  0  0  0  0
 23 48  1  0  0  0  0
 24 49  1  0  0  0  0
 24 50  1  0  0  0  0
M  CHG  1   7   1
M  CHG  1  14   1
M  END
> <s_m_source_file>
AV-unprocessed.smi

> <i_m_source_file_index>
1633

> <i_lp_mmshare_version>
43012

> <i_f3d_flags>
0

> <s_epik_input>
W0NIM11DKD1PKU4xW0NIMl1bQ0gyXU4oW0NIMl1bQ0gyXTEpW0NIMl1bQ0BIXShbT0hdKVtDSDJdbihbY0hdbjIpYyhjMjMpW2NIXWMoW0NIM10pYyhbY0hdMylbQ0gzXQ==

> <s_epik_cmdline>
J2VwaWtfcHl0aG9uJywgJy1waCcsICc3LjAnLCAnLXRuJywgJzgnLCAnLW1hJywgJzIwMCcsICctbWV0YWxfYmluZGluZycsICctaW1hZScsICc8aW5maWxlLm1hZT4nLCAnLW9tYWUnLCAnPG91dGZpbGUubWFlPic=

> <r_epik_Ionization_Penalty>
1.18448

> <r_epik_Ionization_Penalty_Charging>
1.18447

> <r_epik_Ionization_Penalty_Neutral>
4.53746e-06

> <r_epik_State_Penalty>
1.28566

> <r_epik_Charging_Adjusted_Penalty>
2.47013

> <i_epik_Tot_Q>
2

> <i_epik_Tot_abs_Q>
2

> <r_epik_Metal_State_Penalty>
5.30076

> <b_epik_Metal_Only>
0

> <s_lp_Force_Field>
OPLS_2005

> <r_lp_Energy>
59.1266

> <b_lp_Chiralities_Consistent>
1

> <s_lp_Variant>
AV-unprocessed.smi:1633-4

> <Gold.Version>
5.8.1

> <Gold.Id.Protein>
6NUR|6NUR_protein|mol2

> <Gold.PLP.Fitness>
51.3521

> <Gold.PLP.PLP>
-46.0406

> <Gold.PLP.part.hbond>
-1.0000

> <Gold.PLP.part.metal>
0.0000

> <Gold.PLP.part.buried>
-7.1778

> <Gold.PLP.part.nonpolar>
-38.8555

> <Gold.PLP.part.repulsive>
0.1659

> <Gold.PLP.ligand.clash>
0.0000

> <Gold.PLP.ligand.torsion>
0.3668

> <Gold.PLP.Chemscore.Hbond>
2.0000

> <Gold.PLP.Chemscore.CHOScore>
0.0000

> <Gold.PLP.Chemscore.Metal>
0.0000

> <Gold.Chemscore.Hbonds>
donor molecule, donor type, donor heavy atom, donor atom, acceptor molecule, acceptor atom, score
      L1  H    14    52       P1  8028  2.00

> <Gold.PLP.Chemscore.Internal.Correction>
0.0451

> <Gold.Rescore>
     Score         DG    S(hbond)    S(metal)    S(lipo)     H(rot)  DE(clash)    DE(int)     intcor
     16.32     -16.65       1.00        0.00     115.45       2.22       0.06       0.27       ----

> <Gold.Chemscore.Fitness>
16.3191

> <Gold.Chemscore.DG>
-16.6505

> <Gold.Chemscore.ZeroCoef>
-5.4800

> <Gold.Chemscore.Hbond>
1.0000

> <Gold.Chemscore.Metal>
0.0000

> <Gold.Chemscore.Lipo>
115.4530

> <Gold.Chemscore.Internal_Hbond>
0.0000

> <Gold.Chemscore.DEClash>
0.0613

> <Gold.Chemscore.DEInternal>
0.2701

> <Gold.Chemscore.Rot>
2.2178

> <Gold.Chemscore.Internal.Correction>
   9.000000E+99

> <Gold.Chemscore.Hbonds>
donor molecule, donor type, donor heavy atom, donor atom, acceptor molecule, acceptor atom, score
      L1  H    14    52       P1  8028  0.97

> <Gold.Chemscore.Hbond.Weighted>
-3.3400

> <Gold.Chemscore.Metal.Weighted>
-0.0000

> <Gold.Chemscore.Lipo.Weighted>
-13.5080

> <Gold.Chemscore.Internal_Hbond.Weighted>
0.0000

> <Gold.Chemscore.DEClash.Weighted>
0.0613

> <Gold.Chemscore.DEInternal.Weighted>
0.2701

> <Gold.Chemscore.Rot.Weighted>
5.6775

> <Gold.Chemscore.Internal.Correction.Weighted>
   9.000000E+99

> <Gold.Protein.RotatedTorsions>
[ 6907 6896 6895 6894 ] final -158.88 input  -60.11 | X-H torsion
[ 7974 7965 7964 7962 ] final  -29.93 input  175.53 | X-H torsion
[ 8008 7997 7996 7995 ] final   86.73 input   59.86 | X-H torsion
[ 10167 10162 10161 10158 ] final  166.58 input  -65.29 | X-H torsion
[ 10718 10713 10712 10709 ] final  -92.39 input   66.30 | X-H torsion
[ 10763 10752 10751 10750 ] final  -44.39 input  -60.55 | X-H torsion
[ 11005 11000 10999 10996 ] final  113.36 input  -57.11 | X-H torsion

> <Gold.Protein.ActiveResidues>
 VAL166  LYS551  ARG553  GLY616  TRP617  ASP618  TYR619  PRO620  LYS621  CYS622 
 ASP623  PHE694  ASN695  SER759  ASP760  ASP761  ALA762  ILE779  LEU786  VAL792 
 PHE793  MET794  SER795  GLU796  ALA797  LYS798  CYS799  TRP800  GLU811  SER814 

> <Gold.Protein.RotatedAtoms>
  151.3250  133.4024  159.2657 H   0  0  0  0  0  0  0  0  0  0  0  0  # atno 6907 bound_to 6896
  151.0003  134.9317  159.7960 H   0  0  0  0  0  0  0  0  0  0  0  0  # atno 6908 bound_to 6896
  152.5273  134.3215  159.9202 H   0  0  0  0  0  0  0  0  0  0  0  0  # atno 6909 bound_to 6896
  146.1180  140.5475  142.8748 H   0  0  0  0  0  0  0  0  0  0  0  0  # atno 7974 bound_to 7965
  155.9665  140.3389  155.6537 H   0  0  0  0  0  0  0  0  0  0  0  0  # atno 8008 bound_to 7997
  155.6731  140.0729  157.2531 H   0  0  0  0  0  0  0  0  0  0  0  0  # atno 8009 bound_to 7997
  154.4156  140.1688  156.1888 H   0  0  0  0  0  0  0  0  0  0  0  0  # atno 8010 bound_to 7997
  139.4927  144.4013  151.9406 H   0  0  0  0  0  0  0  0  0  0  0  0  # atno 10167 bound_to 10162
  156.0002  130.4985  150.5619 H   0  0  0  0  0  0  0  0  0  0  0  0  # atno 10718 bound_to 10713
  154.0113  135.6681  153.4765 H   0  0  0  0  0  0  0  0  0  0  0  0  # atno 10763 bound_to 10752
  153.0620  135.5022  154.8110 H   0  0  0  0  0  0  0  0  0  0  0  0  # atno 10764 bound_to 10752
  154.6994  135.3076  154.9328 H   0  0  0  0  0  0  0  0  0  0  0  0  # atno 10765 bound_to 10752
  139.8951  134.9548  156.6726 H   0  0  0  0  0  0  0  0  0  0  0  0  # atno 11005 bound_to 11000
  144.7571  140.5333  143.6761 LP  0  0  0  0  0  0  0  0  0  0  0  0  # atno 17320 bound_to 7965
  145.5525  139.1477  143.3386 LP  0  0  0  0  0  0  0  0  0  0  0  0  # atno 17321 bound_to 7965
  140.3452  144.3155  150.5959 LP  0  0  0  0  0  0  0  0  0  0  0  0  # atno 17342 bound_to 10162
  140.5532  143.2203  151.7891 LP  0  0  0  0  0  0  0  0  0  0  0  0  # atno 17343 bound_to 10162
  157.3527  131.0736  151.1700 LP  0  0  0  0  0  0  0  0  0  0  0  0  # atno 17370 bound_to 10713
  157.2512  130.6614  149.5932 LP  0  0  0  0  0  0  0  0  0  0  0  0  # atno 17371 bound_to 10713
  140.7361  133.9017  155.8245 LP  0  0  0  0  0  0  0  0  0  0  0  0  # atno 17394 bound_to 11000
  141.0115  134.1014  157.4216 LP  0  0  0  0  0  0  0  0  0  0  0  0  # atno 17395 bound_to 11000

$$$$
