AV-unprocessed.smi:229|AV-procd|sdf|1750|dock7
  -GOLD-   2262020273D 1   1.00000     0.00000
 Structure written by MMmdl.
 58 62  0  0  0  0  0  0  0  0  1 V2000
  153.4084  142.5226  162.2265 C   0  0  0  0  0  0  0  0  0  0  0  0
  153.5377  141.2887  161.3237 C   0  0  0  0  0  0  0  0  0  0  0  0
  153.0799  141.5308  159.8760 C   0  0  1  0  0  0  0  0  0  0  0  0
  152.7155  140.2287  159.1388 C   0  0  0  0  0  0  0  0  0  0  0  0
  152.1495  140.5340  157.8313 N   0  0  0  0  0  0  0  0  0  0  0  0
  152.0961  139.4829  156.9753 C   0  0  0  0  0  0  0  0  0  0  0  0
  153.0225  139.3606  155.9868 N   0  0  0  0  0  0  0  0  0  0  0  0
  152.9707  138.3308  155.1367 C   0  0  0  0  0  0  0  0  0  0  0  0
  152.0955  137.3247  155.0968 N   0  0  0  0  0  0  0  0  0  0  0  0
  151.1699  137.4364  156.0919 C   0  0  0  0  0  0  0  0  0  0  0  0
  151.0968  138.4733  157.0640 C   0  0  0  0  0  0  0  0  0  0  0  0
  150.0289  138.2410  157.9236 N   0  0  0  0  0  0  0  0  0  0  0  0
  149.5039  137.1286  157.4871 C   0  0  0  0  0  0  0  0  0  0  0  0
  150.1298  136.5750  156.3941 N   0  0  0  0  0  0  0  0  0  0  0  0
  149.7696  135.3391  155.7231 C   0  0  0  0  0  0  0  0  0  0  0  0
  148.2625  135.2435  155.4033 C   0  0  1  0  0  0  0  0  0  0  0  0
  147.9906  136.1788  154.3785 O   0  0  0  0  0  0  0  0  0  0  0  0
  147.7975  133.8421  154.9478 C   0  0  2  0  0  0  0  0  0  0  0  0
  148.6061  133.2373  153.7989 C   0  0  0  0  0  0  0  0  0  0  0  0
  147.6545  132.2141  153.2006 C   0  0  0  0  0  0  0  0  0  0  0  0
  146.2760  132.6634  153.6917 C   0  0  0  0  0  0  0  0  0  0  0  0
  146.5052  133.8949  154.3611 O   0  0  0  0  0  0  0  0  0  0  0  0
  150.9898  141.4158  157.9091 C   0  0  0  0  0  0  0  0  0  0  0  0
  151.3412  142.7116  158.6687 C   0  0  1  0  0  0  0  0  0  0  0  0
  152.1873  143.6988  157.8703 C   0  0  0  0  0  0  0  0  0  0  0  0
  151.8704  145.0171  158.5591 C   0  0  0  0  0  0  0  0  0  0  0  0
  150.4799  144.9326  158.8320 O   0  0  0  0  0  0  0  0  0  0  0  0
  150.1001  143.5652  158.9749 C   0  0  0  0  0  0  0  0  0  0  0  0
  151.9321  142.3798  159.9315 O   0  0  0  0  0  0  0  0  0  0  0  0
  153.6897  142.2812  163.2516 H   0  0  0  0  0  0  0  0  0  0  0  0
  152.3831  142.8927  162.2427 H   0  0  0  0  0  0  0  0  0  0  0  0
  154.0542  143.3345  161.8923 H   0  0  0  0  0  0  0  0  0  0  0  0
  154.5686  140.9330  161.3317 H   0  0  0  0  0  0  0  0  0  0  0  0
  152.9374  140.4856  161.7527 H   0  0  0  0  0  0  0  0  0  0  0  0
  153.8852  142.0373  159.3452 H   0  0  0  0  0  0  0  0  0  0  0  0
  153.5977  139.5970  159.0459 H   0  0  0  0  0  0  0  0  0  0  0  0
  151.9819  139.6634  159.7154 H   0  0  0  0  0  0  0  0  0  0  0  0
  153.7418  138.3094  154.3808 H   0  0  0  0  0  0  0  0  0  0  0  0
  148.6457  136.6731  157.9592 H   0  0  0  0  0  0  0  0  0  0  0  0
  150.3550  135.2703  154.8050 H   0  0  0  0  0  0  0  0  0  0  0  0
  150.0785  134.5018  156.3502 H   0  0  0  0  0  0  0  0  0  0  0  0
  147.6861  135.5436  156.2794 H   0  0  0  0  0  0  0  0  0  0  0  0
  148.5567  135.9948  153.6449 H   0  0  0  0  0  0  0  0  0  0  0  0
  147.7839  133.1513  155.7932 H   0  0  0  0  0  0  0  0  0  0  0  0
  148.8341  134.0038  153.0568 H   0  0  0  0  0  0  0  0  0  0  0  0
  149.5472  132.7964  154.1289 H   0  0  0  0  0  0  0  0  0  0  0  0
  147.7193  132.1999  152.1122 H   0  0  0  0  0  0  0  0  0  0  0  0
  147.8776  131.2106  153.5648 H   0  0  0  0  0  0  0  0  0  0  0  0
  145.5622  132.7926  152.8778 H   0  0  0  0  0  0  0  0  0  0  0  0
  145.8625  131.9411  154.3968 H   0  0  0  0  0  0  0  0  0  0  0  0
  150.6250  141.6548  156.9090 H   0  0  0  0  0  0  0  0  0  0  0  0
  150.1851  140.8926  158.4280 H   0  0  0  0  0  0  0  0  0  0  0  0
  153.2530  143.4780  157.8430 H   0  0  0  0  0  0  0  0  0  0  0  0
  151.8387  143.7412  156.8375 H   0  0  0  0  0  0  0  0  0  0  0  0
  152.4182  145.1020  159.4986 H   0  0  0  0  0  0  0  0  0  0  0  0
  152.1074  145.8844  157.9428 H   0  0  0  0  0  0  0  0  0  0  0  0
  149.3017  143.3693  158.2583 H   0  0  0  0  0  0  0  0  0  0  0  0
  149.7000  143.3712  159.9708 H   0  0  0  0  0  0  0  0  0  0  0  0
  1  2  1  0  0  0  0
  1 30  1  0  0  0  0
  1 31  1  0  0  0  0
  1 32  1  0  0  0  0
  2  3  1  0  0  0  0
  2 33  1  0  0  0  0
  2 34  1  0  0  0  0
  3 29  1  0  0  0  0
  3  4  1  0  0  0  0
  3 35  1  0  0  0  0
  4  5  1  0  0  0  0
  4 36  1  0  0  0  0
  4 37  1  0  0  0  0
  5  6  1  0  0  0  0
  5 23  1  0  0  0  0
  6 11  1  0  0  0  0
  6  7  2  0  0  0  0
  7  8  1  0  0  0  0
  8  9  2  0  0  0  0
  8 38  1  0  0  0  0
  9 10  1  0  0  0  0
 10 14  1  0  0  0  0
 10 11  2  0  0  0  0
 11 12  1  0  0  0  0
 12 13  2  0  0  0  0
 13 14  1  0  0  0  0
 13 39  1  0  0  0  0
 14 15  1  0  0  0  0
 15 16  1  0  0  0  0
 15 40  1  0  0  0  0
 15 41  1  0  0  0  0
 16 17  1  0  0  0  0
 16 18  1  0  0  0  0
 16 42  1  0  0  0  0
 17 43  1  0  0  0  0
 18 22  1  0  0  0  0
 18 19  1  0  0  0  0
 18 44  1  0  0  0  0
 19 20  1  0  0  0  0
 19 45  1  0  0  0  0
 19 46  1  0  0  0  0
 20 21  1  0  0  0  0
 20 47  1  0  0  0  0
 20 48  1  0  0  0  0
 21 22  1  0  0  0  0
 21 49  1  0  0  0  0
 21 50  1  0  0  0  0
 23 24  1  0  0  0  0
 23 51  1  0  0  0  0
 23 52  1  0  0  0  0
 24 28  1  0  0  0  0
 24 25  1  0  0  0  0
 24 29  1  0  0  0  0
 25 26  1  0  0  0  0
 25 53  1  0  0  0  0
 25 54  1  0  0  0  0
 26 27  1  0  0  0  0
 26 55  1  0  0  0  0
 26 56  1  0  0  0  0
 27 28  1  0  0  0  0
 28 57  1  0  0  0  0
 28 58  1  0  0  0  0
M  END
> <s_m_source_file>
AV-unprocessed.smi

> <i_m_source_file_index>
229

> <i_lp_mmshare_version>
43012

> <i_f3d_flags>
0

> <s_epik_input>
W0NIMl0xT1tDSDJdW0NIMl1bQ0BdMTJbQ0gyXU4oW0NIMl1bQ0BIXShPMilbQ0gyXVtDSDNdKWMobltjSF1uMyljKGMzNCluW2NIXW40W0NIMl1bQ0BIXShbT0hdKVtDQEBIXTVbQ0gyXVtDSDJdW0NIMl1PNQ==

> <s_epik_cmdline>
J2VwaWtfcHl0aG9uJywgJy1waCcsICc3LjAnLCAnLXRuJywgJzgnLCAnLW1hJywgJzIwMCcsICctbWV0YWxfYmluZGluZycsICctaW1hZScsICc8aW5maWxlLm1hZT4nLCAnLW9tYWUnLCAnPG91dGZpbGUubWFlPic=

> <r_lp_tautomer_probability>
1

> <r_epik_Ionization_Penalty>
0.00318402

> <r_epik_Ionization_Penalty_Charging>
0

> <r_epik_Ionization_Penalty_Neutral>
0.00318402

> <r_epik_State_Penalty>
0.00215642

> <r_epik_Charging_Adjusted_Penalty>
0.00215642

> <i_epik_Tot_Q>
0

> <i_epik_Tot_abs_Q>
0

> <r_epik_Metal_State_Penalty>
-0

> <b_epik_Metal_Only>
0

> <s_lp_Force_Field>
OPLS_2005

> <r_lp_Energy>
55.6403

> <b_lp_Chiralities_Consistent>
1

> <s_lp_Variant>
AV-unprocessed.smi:229-4

> <Gold.Version>
5.8.1

> <Gold.Id.Protein>
6NUR|6NUR_protein|mol2

> <Gold.PLP.Fitness>
53.3264

> <Gold.PLP.PLP>
-46.2983

> <Gold.PLP.part.hbond>
-2.6790

> <Gold.PLP.part.metal>
0.0000

> <Gold.PLP.part.buried>
-8.3201

> <Gold.PLP.part.nonpolar>
-36.4825

> <Gold.PLP.part.repulsive>
0.3430

> <Gold.PLP.ligand.clash>
0.0000

> <Gold.PLP.ligand.torsion>
0.7893

> <Gold.PLP.Chemscore.Hbond>
2.7590

> <Gold.PLP.Chemscore.CHOScore>
0.0000

> <Gold.PLP.Chemscore.Metal>
0.0000

> <Gold.Chemscore.Hbonds>
donor molecule, donor type, donor heavy atom, donor atom, acceptor molecule, acceptor atom, score
      L1  H    17    43       P1  7948  0.99
      P1  H  7997  8010       L1     7  1.00
      P1  H 10752 10763       L1     9  0.82

> <Gold.PLP.Chemscore.Internal.Correction>
0.3298

> <Gold.Rescore>
     Score         DG    S(hbond)    S(metal)    S(lipo)     H(rot)  DE(clash)    DE(int)     intcor
     20.04     -21.51       2.57        0.00     117.49       2.46       0.68       0.78       ----

> <Gold.Chemscore.Fitness>
20.0421

> <Gold.Chemscore.DG>
-21.5079

> <Gold.Chemscore.ZeroCoef>
-5.4800

> <Gold.Chemscore.Hbond>
2.5679

> <Gold.Chemscore.Metal>
0.0000

> <Gold.Chemscore.Lipo>
117.4902

> <Gold.Chemscore.Internal_Hbond>
0.0000

> <Gold.Chemscore.DEClash>
0.6848

> <Gold.Chemscore.DEInternal>
0.7810

> <Gold.Chemscore.Rot>
2.4591

> <Gold.Chemscore.Internal.Correction>
   9.000000E+99

> <Gold.Chemscore.Hbonds>
donor molecule, donor type, donor heavy atom, donor atom, acceptor molecule, acceptor atom, score
      L1  H    17    43       P1  7948  0.94
      P1  H  7997  8010       L1     7  0.89
      P1  H 10752 10763       L1     9  0.65

> <Gold.Chemscore.Hbond.Weighted>
-8.5769

> <Gold.Chemscore.Metal.Weighted>
-0.0000

> <Gold.Chemscore.Lipo.Weighted>
-13.7464

> <Gold.Chemscore.Internal_Hbond.Weighted>
0.0000

> <Gold.Chemscore.DEClash.Weighted>
0.6848

> <Gold.Chemscore.DEInternal.Weighted>
0.7810

> <Gold.Chemscore.Rot.Weighted>
6.2953

> <Gold.Chemscore.Internal.Correction.Weighted>
   9.000000E+99

> <Gold.Protein.RotatedTorsions>
[ 6907 6896 6895 6894 ] final  -18.78 input  -60.11 | X-H torsion
[ 7974 7965 7964 7962 ] final   78.79 input  175.53 | X-H torsion
[ 8008 7997 7996 7995 ] final   97.54 input   59.86 | X-H torsion
[ 10167 10162 10161 10158 ] final  177.11 input  -65.29 | X-H torsion
[ 10718 10713 10712 10709 ] final   75.81 input   66.30 | X-H torsion
[ 10763 10752 10751 10750 ] final   54.90 input  -60.55 | X-H torsion
[ 11005 11000 10999 10996 ] final   45.94 input  -57.11 | X-H torsion

> <Gold.Protein.ActiveResidues>
 VAL166  LYS551  ARG553  GLY616  TRP617  ASP618  TYR619  PRO620  LYS621  CYS622 
 ASP623  PHE694  ASN695  SER759  ASP760  ASP761  ALA762  ILE779  LEU786  VAL792 
 PHE793  MET794  SER795  GLU796  ALA797  LYS798  CYS799  TRP800  GLU811  SER814 

> <Gold.Protein.RotatedAtoms>
  151.2730  135.0690  159.9140 H   0  0  0  0  0  0  0  0  0  0  0  0  # atno 6907 bound_to 6896
  152.5347  134.0111  159.7949 H   0  0  0  0  0  0  0  0  0  0  0  0  # atno 6908 bound_to 6896
  151.0352  133.5705  159.2687 H   0  0  0  0  0  0  0  0  0  0  0  0  # atno 6909 bound_to 6896
  145.6726  139.2501  143.1860 H   0  0  0  0  0  0  0  0  0  0  0  0  # atno 7974 bound_to 7965
  156.0912  140.3257  155.7818 H   0  0  0  0  0  0  0  0  0  0  0  0  # atno 8008 bound_to 7997
  155.4993  140.0568  157.2959 H   0  0  0  0  0  0  0  0  0  0  0  0  # atno 8009 bound_to 7997
  154.4639  140.1980  156.0187 H   0  0  0  0  0  0  0  0  0  0  0  0  # atno 8010 bound_to 7997
  139.5240  144.2836  152.0525 H   0  0  0  0  0  0  0  0  0  0  0  0  # atno 10167 bound_to 10162
  157.6649  130.9744  150.1407 H   0  0  0  0  0  0  0  0  0  0  0  0  # atno 10718 bound_to 10713
  152.9810  135.5729  154.4979 H   0  0  0  0  0  0  0  0  0  0  0  0  # atno 10763 bound_to 10752
  154.4503  135.2778  155.1788 H   0  0  0  0  0  0  0  0  0  0  0  0  # atno 10764 bound_to 10752
  154.3418  135.6228  153.5653 H   0  0  0  0  0  0  0  0  0  0  0  0  # atno 10765 bound_to 10752
  140.1414  134.4578  155.8447 H   0  0  0  0  0  0  0  0  0  0  0  0  # atno 11005 bound_to 11000
  146.1032  140.7518  142.9539 LP  0  0  0  0  0  0  0  0  0  0  0  0  # atno 17320 bound_to 7965
  144.7052  140.3821  143.7124 LP  0  0  0  0  0  0  0  0  0  0  0  0  # atno 17321 bound_to 7965
  140.2290  144.4388  150.6308 LP  0  0  0  0  0  0  0  0  0  0  0  0  # atno 17342 bound_to 10162
  140.6368  143.2196  151.6378 LP  0  0  0  0  0  0  0  0  0  0  0  0  # atno 17343 bound_to 10162
  156.2230  130.3675  149.8533 LP  0  0  0  0  0  0  0  0  0  0  0  0  # atno 17370 bound_to 10713
  156.6381  130.8693  151.3508 LP  0  0  0  0  0  0  0  0  0  0  0  0  # atno 17371 bound_to 10713
  141.2186  133.6835  156.7254 LP  0  0  0  0  0  0  0  0  0  0  0  0  # atno 17394 bound_to 11000
  140.2717  134.8387  157.3853 LP  0  0  0  0  0  0  0  0  0  0  0  0  # atno 17395 bound_to 11000

$$$$
