AV-unprocessed.smi:3029|AV-procd|sdf|11530|dock8
  -GOLD-   2272016473D 1   1.00000     0.00000
 Structure written by MMmdl.
 41 42  0  0  0  0  0  0  0  0  3 V2000
  153.3808  136.3453  159.8853 O   0  0  0  0  0  0  0  0  0  0  0  0
  153.7506  137.3041  160.5632 C   0  0  0  0  0  0  0  0  0  0  0  0
  154.7193  137.1530  161.6538 C   0  0  0  0  0  0  0  0  0  0  0  0
  155.1128  138.2019  162.4024 C   0  0  0  0  0  0  0  0  0  0  0  0
  154.5830  139.5271  162.1472 C   0  0  0  0  0  0  0  0  0  0  0  0
  154.9858  140.6571  162.9552 N   0  3  0  0  0  0  0  0  0  0  0  0
  155.8287  140.4920  163.8320 O   0  0  0  0  0  0  0  0  0  0  0  0
  154.4709  141.7491  162.7376 O   0  5  0  0  0  0  0  0  0  0  0  0
  153.6986  139.6648  161.1400 C   0  0  0  0  0  0  0  0  0  0  0  0
  153.2830  138.5727  160.3539 N   0  0  0  0  0  0  0  0  0  0  0  0
  152.2865  138.8552  159.3093 C   0  0  0  0  0  0  0  0  0  0  0  0
  152.7402  139.9929  158.3767 C   0  0  0  0  0  0  0  0  0  0  0  0
  152.0734  141.2372  158.7317 N   0  0  0  0  0  0  0  0  0  0  0  0
  151.7306  142.0389  157.5615 C   0  0  1  0  0  0  0  0  0  0  0  0
  150.9482  141.1467  156.5742 C   0  0  0  0  0  0  0  0  0  0  0  0
  149.5152  140.8469  157.0488 C   0  0  0  0  0  0  0  0  0  0  0  0
  148.7488  142.1351  157.3758 C   0  0  0  0  0  0  0  0  0  0  0  0
  149.5050  142.9822  158.4098 C   0  0  0  0  0  0  0  0  0  0  0  0
  150.9326  143.3222  157.9300 C   0  0  1  0  0  0  0  0  0  0  0  0
  151.6621  144.2982  158.8815 C   0  0  0  0  0  0  0  0  0  0  0  0
  152.0547  143.6953  160.0037 F   0  0  0  0  0  0  0  0  0  0  0  0
  152.7242  144.8250  158.2724 F   0  0  0  0  0  0  0  0  0  0  0  0
  150.8412  145.2961  159.2089 F   0  0  0  0  0  0  0  0  0  0  0  0
  155.1259  136.1742  161.8615 H   0  0  0  0  0  0  0  0  0  0  0  0
  155.8279  138.0398  163.1958 H   0  0  0  0  0  0  0  0  0  0  0  0
  153.2394  140.6058  160.8729 H   0  0  0  0  0  0  0  0  0  0  0  0
  152.1388  137.9511  158.7170 H   0  0  0  0  0  0  0  0  0  0  0  0
  151.3020  139.0756  159.7257 H   0  0  0  0  0  0  0  0  0  0  0  0
  153.8228  140.1083  158.4214 H   0  0  0  0  0  0  0  0  0  0  0  0
  152.4873  139.7439  157.3455 H   0  0  0  0  0  0  0  0  0  0  0  0
  151.2377  141.0280  159.2593 H   0  0  0  0  0  0  0  0  0  0  0  0
  152.6515  142.3376  157.0580 H   0  0  0  0  0  0  0  0  0  0  0  0
  150.8962  141.6543  155.6102 H   0  0  0  0  0  0  0  0  0  0  0  0
  151.4855  140.2150  156.3917 H   0  0  0  0  0  0  0  0  0  0  0  0
  148.9820  140.2829  156.2831 H   0  0  0  0  0  0  0  0  0  0  0  0
  149.5457  140.2083  157.9327 H   0  0  0  0  0  0  0  0  0  0  0  0
  148.6007  142.7151  156.4641 H   0  0  0  0  0  0  0  0  0  0  0  0
  147.7547  141.8907  157.7512 H   0  0  0  0  0  0  0  0  0  0  0  0
  148.9451  143.8980  158.6001 H   0  0  0  0  0  0  0  0  0  0  0  0
  149.5500  142.4486  159.3601 H   0  0  0  0  0  0  0  0  0  0  0  0
  150.8138  143.8691  156.9930 H   0  0  0  0  0  0  0  0  0  0  0  0
  1  2  2  0  0  0  0
  2 10  1  0  0  0  0
  2  3  1  0  0  0  0
  3  4  2  0  0  0  0
  3 24  1  0  0  0  0
  4  5  1  0  0  0  0
  4 25  1  0  0  0  0
  5  6  1  0  0  0  0
  5  9  2  0  0  0  0
  6  7  2  0  0  0  0
  6  8  1  0  0  0  0
  9 10  1  0  0  0  0
  9 26  1  0  0  0  0
 10 11  1  0  0  0  0
 11 12  1  0  0  0  0
 11 27  1  0  0  0  0
 11 28  1  0  0  0  0
 12 13  1  0  0  0  0
 12 29  1  0  0  0  0
 12 30  1  0  0  0  0
 13 14  1  0  0  0  0
 13 31  1  0  0  0  0
 14 19  1  0  0  0  0
 14 15  1  0  0  0  0
 14 32  1  0  0  0  0
 15 16  1  0  0  0  0
 15 33  1  0  0  0  0
 15 34  1  0  0  0  0
 16 17  1  0  0  0  0
 16 35  1  0  0  0  0
 16 36  1  0  0  0  0
 17 18  1  0  0  0  0
 17 37  1  0  0  0  0
 17 38  1  0  0  0  0
 18 19  1  0  0  0  0
 18 39  1  0  0  0  0
 18 40  1  0  0  0  0
 19 20  1  0  0  0  0
 19 41  1  0  0  0  0
 20 21  1  0  0  0  0
 20 22  1  0  0  0  0
 20 23  1  0  0  0  0
M  CHG  1   6   1
M  CHG  1   8  -1
M  END
> <s_m_source_file>
AV-unprocessed.smi

> <i_m_source_file_index>
3029

> <i_lp_mmshare_version>
43012

> <i_f3d_flags>
0

> <s_epik_input>
Tz1jMVtjSF1bY0hdYyhbTitdKD1PKVtPLV0pW2NIXW4xW0NIMl1bQ0gyXVtOSF1bQ0BASF0yW0NIMl1bQ0gyXVtDSDJdW0NIMl1bQ0BIXTJDKEYpKEYpRg==

> <s_epik_cmdline>
J2VwaWtfcHl0aG9uJywgJy1waCcsICc3LjAnLCAnLXRuJywgJzgnLCAnLW1hJywgJzIwMCcsICctbWV0YWxfYmluZGluZycsICctaW1hZScsICc8aW5maWxlLm1hZT4nLCAnLW9tYWUnLCAnPG91dGZpbGUubWFlPic=

> <r_lp_tautomer_probability>
1

> <r_epik_Ionization_Penalty>
1.65565

> <r_epik_Ionization_Penalty_Charging>
3.32684e-10

> <r_epik_Ionization_Penalty_Neutral>
1.65565

> <r_epik_State_Penalty>
1.75811

> <r_epik_Charging_Adjusted_Penalty>
1.75811

> <i_epik_Tot_Q>
0

> <i_epik_Tot_abs_Q>
2

> <r_epik_Metal_State_Penalty>
1.75811

> <b_epik_Metal_Only>
0

> <s_lp_Force_Field>
OPLS_2005

> <r_lp_Energy>
39.0204

> <b_lp_Chiralities_Consistent>
1

> <s_lp_Variant>
AV-unprocessed.smi:3029-6

> <Gold.Version>
5.8.1

> <Gold.Id.Protein>
6NUR|6NUR_protein|mol2

> <Gold.PLP.Fitness>
42.4730

> <Gold.PLP.PLP>
-40.9507

> <Gold.PLP.part.hbond>
-2.1766

> <Gold.PLP.part.metal>
0.0000

> <Gold.PLP.part.buried>
-4.3480

> <Gold.PLP.part.nonpolar>
-34.0918

> <Gold.PLP.part.repulsive>
0.0000

> <Gold.PLP.ligand.clash>
0.0000

> <Gold.PLP.ligand.torsion>
0.8038

> <Gold.PLP.Chemscore.Hbond>
1.0000

> <Gold.PLP.Chemscore.CHOScore>
0.0000

> <Gold.PLP.Chemscore.Metal>
0.0000

> <Gold.Chemscore.Hbonds>
donor molecule, donor type, donor heavy atom, donor atom, acceptor molecule, acceptor atom, score
      P1  H  6896  6908       L1     1  0.94

> <Gold.PLP.Chemscore.Internal.Correction>
0.1298

> <Gold.Rescore>
     Score         DG    S(hbond)    S(metal)    S(lipo)     H(rot)  DE(clash)    DE(int)     intcor
     10.76     -13.11       1.00        0.00      77.38       1.86       0.25       2.09       ----

> <Gold.Chemscore.Fitness>
10.7588

> <Gold.Chemscore.DG>
-13.1052

> <Gold.Chemscore.ZeroCoef>
-5.4800

> <Gold.Chemscore.Hbond>
0.9968

> <Gold.Chemscore.Metal>
0.0000

> <Gold.Chemscore.Lipo>
77.3793

> <Gold.Chemscore.Internal_Hbond>
0.0000

> <Gold.Chemscore.DEClash>
0.2522

> <Gold.Chemscore.DEInternal>
2.0941

> <Gold.Chemscore.Rot>
1.8584

> <Gold.Chemscore.Internal.Correction>
   9.000000E+99

> <Gold.Chemscore.Hbonds>
donor molecule, donor type, donor heavy atom, donor atom, acceptor molecule, acceptor atom, score
      P1  H  6896  6908       L1     1  0.90

> <Gold.Chemscore.Hbond.Weighted>
-3.3294

> <Gold.Chemscore.Metal.Weighted>
-0.0000

> <Gold.Chemscore.Lipo.Weighted>
-9.0534

> <Gold.Chemscore.Internal_Hbond.Weighted>
0.0000

> <Gold.Chemscore.DEClash.Weighted>
0.2522

> <Gold.Chemscore.DEInternal.Weighted>
2.0941

> <Gold.Chemscore.Rot.Weighted>
4.7576

> <Gold.Chemscore.Internal.Correction.Weighted>
   9.000000E+99

> <Gold.Protein.RotatedTorsions>
[ 6907 6896 6895 6894 ] final  -56.89 input  -60.11 | X-H torsion
[ 7974 7965 7964 7962 ] final  -37.54 input  175.53 | X-H torsion
[ 8008 7997 7996 7995 ] final -170.35 input   59.86 | X-H torsion
[ 10167 10162 10161 10158 ] final  115.93 input  -65.29 | X-H torsion
[ 10718 10713 10712 10709 ] final   81.80 input   66.30 | X-H torsion
[ 10763 10752 10751 10750 ] final   52.82 input  -60.55 | X-H torsion
[ 11005 11000 10999 10996 ] final  -99.19 input  -57.11 | X-H torsion

> <Gold.Protein.ActiveResidues>
 VAL166  LYS551  ARG553  GLY616  TRP617  ASP618  TYR619  PRO620  LYS621  CYS622 
 ASP623  PHE694  ASN695  SER759  ASP760  ASP761  ALA762  ILE779  LEU786  VAL792 
 PHE793  MET794  SER795  GLU796  ALA797  LYS798  CYS799  TRP800  GLU811  SER814 

> <Gold.Protein.RotatedAtoms>
  150.8130  134.7296  159.6704 H   0  0  0  0  0  0  0  0  0  0  0  0  # atno 6907 bound_to 6896
  152.4250  134.5882  159.9976 H   0  0  0  0  0  0  0  0  0  0  0  0  # atno 6908 bound_to 6896
  151.6087  133.3312  159.3099 H   0  0  0  0  0  0  0  0  0  0  0  0  # atno 6909 bound_to 6896
  146.0565  140.6408  142.9017 H   0  0  0  0  0  0  0  0  0  0  0  0  # atno 7974 bound_to 7965
  155.9172  140.1067  157.1235 H   0  0  0  0  0  0  0  0  0  0  0  0  # atno 8008 bound_to 7997
  154.4048  140.1263  156.4697 H   0  0  0  0  0  0  0  0  0  0  0  0  # atno 8009 bound_to 7997
  155.7240  140.3469  155.5031 H   0  0  0  0  0  0  0  0  0  0  0  0  # atno 8010 bound_to 7997
  139.6282  144.7111  151.2488 H   0  0  0  0  0  0  0  0  0  0  0  0  # atno 10167 bound_to 10162
  157.6842  131.0020  150.2280 H   0  0  0  0  0  0  0  0  0  0  0  0  # atno 10718 bound_to 10713
  152.9791  135.5800  154.4640 H   0  0  0  0  0  0  0  0  0  0  0  0  # atno 10763 bound_to 10752
  154.4212  135.2771  155.1976 H   0  0  0  0  0  0  0  0  0  0  0  0  # atno 10764 bound_to 10752
  154.3724  135.6165  153.5801 H   0  0  0  0  0  0  0  0  0  0  0  0  # atno 10765 bound_to 10752
  141.1318  133.8302  157.0939 H   0  0  0  0  0  0  0  0  0  0  0  0  # atno 11005 bound_to 11000
  144.7151  140.4180  143.7050 LP  0  0  0  0  0  0  0  0  0  0  0  0  # atno 17320 bound_to 7965
  145.6634  139.1585  143.2795 LP  0  0  0  0  0  0  0  0  0  0  0  0  # atno 17321 bound_to 7965
  140.7423  143.6528  150.8233 LP  0  0  0  0  0  0  0  0  0  0  0  0  # atno 17342 bound_to 10162
  140.0149  143.5603  152.2824 LP  0  0  0  0  0  0  0  0  0  0  0  0  # atno 17343 bound_to 10162
  156.2918  130.3746  149.7834 LP  0  0  0  0  0  0  0  0  0  0  0  0  # atno 17370 bound_to 10713
  156.5491  130.8334  151.3294 LP  0  0  0  0  0  0  0  0  0  0  0  0  # atno 17371 bound_to 10713
  140.0375  134.9871  157.0899 LP  0  0  0  0  0  0  0  0  0  0  0  0  # atno 17394 bound_to 11000
  140.4187  134.1904  155.7164 LP  0  0  0  0  0  0  0  0  0  0  0  0  # atno 17395 bound_to 11000

$$$$
