AV-unprocessed.smi:970|AV-procd|sdf|4292|dock8
  -GOLD-   22720 2193D 1   1.00000     0.00000
 Structure written by MMmdl.
 31 31  0  0  0  0  0  0  0  0  1 V2000
  152.5423  143.7618  162.1444 C   0  0  0  0  0  0  0  0  0  0  0  0
  152.2555  144.3019  160.8246 N   0  0  0  0  0  0  0  0  0  0  0  0
  151.5879  143.6413  159.8681 C   0  0  0  0  0  0  0  0  0  0  0  0
  151.1590  142.4953  160.0160 O   0  0  0  0  0  0  0  0  0  0  0  0
  151.3902  144.3872  158.5378 C   0  0  1  0  0  0  0  0  0  0  0  0
  152.7789  144.7243  157.9702 C   0  0  0  0  0  0  0  0  0  0  0  0
  150.7038  143.5303  157.5733 N   0  0  0  0  0  0  0  0  0  0  0  0
  151.0638  142.2762  157.2545 C   0  0  0  0  0  0  0  0  0  0  0  0
  151.9994  141.6874  157.7975 O   0  0  0  0  0  0  0  0  0  0  0  0
  150.2438  141.5988  156.1458 C   0  0  2  0  0  0  0  0  0  0  0  0
  148.7512  141.4561  156.5076 C   0  0  0  0  0  0  0  0  0  0  0  0
  150.8517  140.3226  155.7881 N   0  0  0  0  0  0  0  0  0  0  0  0
  151.2593  139.3190  156.5683 C   0  0  0  0  0  0  0  0  0  0  0  0
  151.7209  138.2706  155.9017 N   0  0  0  0  0  0  0  0  0  0  0  0
  151.5437  138.7178  154.6235 C   0  0  0  0  0  0  0  0  0  0  0  0
  151.0176  139.9360  154.4985 N   0  0  0  0  0  0  0  0  0  0  0  0
  153.0913  144.4953  162.7351 H   0  0  0  0  0  0  0  0  0  0  0  0
  153.1498  142.8587  162.0709 H   0  0  0  0  0  0  0  0  0  0  0  0
  151.6197  143.5196  162.6736 H   0  0  0  0  0  0  0  0  0  0  0  0
  152.5780  145.2383  160.6272 H   0  0  0  0  0  0  0  0  0  0  0  0
  150.8236  145.3071  158.6967 H   0  0  0  0  0  0  0  0  0  0  0  0
  153.3408  145.3643  158.6516 H   0  0  0  0  0  0  0  0  0  0  0  0
  152.6922  145.2583  157.0234 H   0  0  0  0  0  0  0  0  0  0  0  0
  153.3739  143.8276  157.7887 H   0  0  0  0  0  0  0  0  0  0  0  0
  149.9268  143.9409  157.0765 H   0  0  0  0  0  0  0  0  0  0  0  0
  150.3009  142.2380  155.2633 H   0  0  0  0  0  0  0  0  0  0  0  0
  148.3028  142.4286  156.7133 H   0  0  0  0  0  0  0  0  0  0  0  0
  148.5993  140.8303  157.3880 H   0  0  0  0  0  0  0  0  0  0  0  0
  148.1936  141.0081  155.6847 H   0  0  0  0  0  0  0  0  0  0  0  0
  151.2122  139.3540  157.6469 H   0  0  0  0  0  0  0  0  0  0  0  0
  151.8056  138.1260  153.7589 H   0  0  0  0  0  0  0  0  0  0  0  0
  1  2  1  0  0  0  0
  1 17  1  0  0  0  0
  1 18  1  0  0  0  0
  1 19  1  0  0  0  0
  2  3  1  0  0  0  0
  2 20  1  0  0  0  0
  3  4  2  0  0  0  0
  3  5  1  0  0  0  0
  5  6  1  0  0  0  0
  5  7  1  0  0  0  0
  5 21  1  0  0  0  0
  6 22  1  0  0  0  0
  6 23  1  0  0  0  0
  6 24  1  0  0  0  0
  7  8  1  0  0  0  0
  7 25  1  0  0  0  0
  8  9  2  0  0  0  0
  8 10  1  0  0  0  0
 10 11  1  0  0  0  0
 10 12  1  0  0  0  0
 10 26  1  0  0  0  0
 11 27  1  0  0  0  0
 11 28  1  0  0  0  0
 11 29  1  0  0  0  0
 12 16  1  0  0  0  0
 12 13  1  0  0  0  0
 13 14  2  0  0  0  0
 13 30  1  0  0  0  0
 14 15  1  0  0  0  0
 15 16  2  0  0  0  0
 15 31  1  0  0  0  0
M  END
> <s_m_source_file>
AV-unprocessed.smi

> <i_m_source_file_index>
970

> <i_lp_mmshare_version>
43012

> <i_f3d_flags>
0

> <s_epik_input>
W0NIM11bTkhdQyg9TylbQ0BIXShbQ0gzXSlbTkhdQyg9TylbQ0BIXShbQ0gzXSluMVtjSF1uW2NIXW4x

> <s_epik_cmdline>
J2VwaWtfcHl0aG9uJywgJy1waCcsICc3LjAnLCAnLXRuJywgJzgnLCAnLW1hJywgJzIwMCcsICctbWV0YWxfYmluZGluZycsICctaW1hZScsICc8aW5maWxlLm1hZT4nLCAnLW9tYWUnLCAnPG91dGZpbGUubWFlPic=

> <r_lp_tautomer_probability>
1

> <r_epik_Ionization_Penalty>
1.07271e-05

> <r_epik_Ionization_Penalty_Charging>
0

> <r_epik_Ionization_Penalty_Neutral>
1.07271e-05

> <r_epik_State_Penalty>
-0

> <r_epik_Charging_Adjusted_Penalty>
0

> <i_epik_Tot_Q>
0

> <i_epik_Tot_abs_Q>
0

> <r_epik_Metal_State_Penalty>
-0

> <b_epik_Metal_Only>
0

> <s_lp_Force_Field>
OPLS_2005

> <r_lp_Energy>
8.21171

> <b_lp_Chiralities_Consistent>
1

> <s_lp_Variant>
AV-unprocessed.smi:970-2

> <Gold.Version>
5.8.1

> <Gold.Id.Protein>
6NUR|6NUR_protein|mol2

> <Gold.PLP.Fitness>
38.3896

> <Gold.PLP.PLP>
-33.3598

> <Gold.PLP.part.hbond>
-3.0000

> <Gold.PLP.part.metal>
0.0000

> <Gold.PLP.part.buried>
-4.6998

> <Gold.PLP.part.nonpolar>
-26.3125

> <Gold.PLP.part.repulsive>
0.1598

> <Gold.PLP.ligand.clash>
0.0000

> <Gold.PLP.ligand.torsion>
0.5440

> <Gold.PLP.Chemscore.Hbond>
2.0000

> <Gold.PLP.Chemscore.CHOScore>
0.0000

> <Gold.PLP.Chemscore.Metal>
0.0000

> <Gold.Chemscore.Hbonds>
donor molecule, donor type, donor heavy atom, donor atom, acceptor molecule, acceptor atom, score
      L1  H     7    25       P1  8028  1.00
      P1  H  7989  7998       L1    16  0.93

> <Gold.PLP.Chemscore.Internal.Correction>
0.1178

> <Gold.Rescore>
     Score         DG    S(hbond)    S(metal)    S(lipo)     H(rot)  DE(clash)    DE(int)     intcor
      6.08     -11.64       1.97        0.00      52.99       2.59       0.18       5.37       ----

> <Gold.Chemscore.Fitness>
6.0829

> <Gold.Chemscore.DG>
-11.6358

> <Gold.Chemscore.ZeroCoef>
-5.4800

> <Gold.Chemscore.Hbond>
1.9682

> <Gold.Chemscore.Metal>
0.0000

> <Gold.Chemscore.Lipo>
52.9927

> <Gold.Chemscore.Internal_Hbond>
0.0000

> <Gold.Chemscore.DEClash>
0.1797

> <Gold.Chemscore.DEInternal>
5.3733

> <Gold.Chemscore.Rot>
2.5852

> <Gold.Chemscore.Internal.Correction>
   9.000000E+99

> <Gold.Chemscore.Hbonds>
donor molecule, donor type, donor heavy atom, donor atom, acceptor molecule, acceptor atom, score
      L1  H     7    25       P1  8028  0.90
      P1  H  7989  7998       L1    16  0.83

> <Gold.Chemscore.Hbond.Weighted>
-6.5738

> <Gold.Chemscore.Metal.Weighted>
-0.0000

> <Gold.Chemscore.Lipo.Weighted>
-6.2001

> <Gold.Chemscore.Internal_Hbond.Weighted>
0.0000

> <Gold.Chemscore.DEClash.Weighted>
0.1797

> <Gold.Chemscore.DEInternal.Weighted>
5.3733

> <Gold.Chemscore.Rot.Weighted>
6.6182

> <Gold.Chemscore.Internal.Correction.Weighted>
   9.000000E+99

> <Gold.Protein.RotatedTorsions>
[ 6907 6896 6895 6894 ] final  -25.91 input  -60.11 | X-H torsion
[ 7974 7965 7964 7962 ] final    8.90 input  175.53 | X-H torsion
[ 8008 7997 7996 7995 ] final  170.20 input   59.86 | X-H torsion
[ 10167 10162 10161 10158 ] final  179.32 input  -65.29 | X-H torsion
[ 10718 10713 10712 10709 ] final  105.72 input   66.30 | X-H torsion
[ 10763 10752 10751 10750 ] final -131.79 input  -60.55 | X-H torsion
[ 11005 11000 10999 10996 ] final   55.22 input  -57.11 | X-H torsion

> <Gold.Protein.ActiveResidues>
 VAL166  LYS551  ARG553  GLY616  TRP617  ASP618  TYR619  PRO620  LYS621  CYS622 
 ASP623  PHE694  ASN695  SER759  ASP760  ASP761  ALA762  ILE779  LEU786  VAL792 
 PHE793  MET794  SER795  GLU796  ALA797  LYS798  CYS799  TRP800  GLU811  SER814 

> <Gold.Protein.RotatedAtoms>
  151.1684  135.0306  159.8740 H   0  0  0  0  0  0  0  0  0  0  0  0  # atno 6907 bound_to 6896
  152.5449  134.1199  159.8404 H   0  0  0  0  0  0  0  0  0  0  0  0  # atno 6908 bound_to 6896
  151.1302  133.4996  159.2632 H   0  0  0  0  0  0  0  0  0  0  0  0  # atno 6909 bound_to 6896
  146.2410  139.9863  142.8430 H   0  0  0  0  0  0  0  0  0  0  0  0  # atno 7974 bound_to 7965
  156.1387  140.1544  156.8954 H   0  0  0  0  0  0  0  0  0  0  0  0  # atno 8008 bound_to 7997
  154.4969  140.0836  156.7755 H   0  0  0  0  0  0  0  0  0  0  0  0  # atno 8009 bound_to 7997
  155.4119  140.3419  155.4266 H   0  0  0  0  0  0  0  0  0  0  0  0  # atno 8010 bound_to 7997
  139.5331  144.2575  152.0734 H   0  0  0  0  0  0  0  0  0  0  0  0  # atno 10167 bound_to 10162
  157.6695  131.0834  150.5900 H   0  0  0  0  0  0  0  0  0  0  0  0  # atno 10718 bound_to 10713
  154.8748  135.3818  154.4304 H   0  0  0  0  0  0  0  0  0  0  0  0  # atno 10763 bound_to 10752
  153.4999  135.7030  153.5843 H   0  0  0  0  0  0  0  0  0  0  0  0  # atno 10764 bound_to 10752
  153.4179  135.3908  155.2059 H   0  0  0  0  0  0  0  0  0  0  0  0  # atno 10765 bound_to 10752
  140.0624  134.5584  155.9137 H   0  0  0  0  0  0  0  0  0  0  0  0  # atno 11005 bound_to 11000
  145.1544  140.9640  143.4414 LP  0  0  0  0  0  0  0  0  0  0  0  0  # atno 17320 bound_to 7965
  145.0174  139.3454  143.6089 LP  0  0  0  0  0  0  0  0  0  0  0  0  # atno 17321 bound_to 7965
  140.2041  144.4628  150.6417 LP  0  0  0  0  0  0  0  0  0  0  0  0  # atno 17342 bound_to 10162
  140.6522  143.2228  151.6051 LP  0  0  0  0  0  0  0  0  0  0  0  0  # atno 17343 bound_to 10162
  156.6200  130.4403  149.5826 LP  0  0  0  0  0  0  0  0  0  0  0  0  # atno 17370 bound_to 10713
  156.2363  130.6824  151.1512 LP  0  0  0  0  0  0  0  0  0  0  0  0  # atno 17371 bound_to 10713
  141.1978  133.6598  156.5762 LP  0  0  0  0  0  0  0  0  0  0  0  0  # atno 17394 bound_to 11000
  140.3750  134.7573  157.4624 LP  0  0  0  0  0  0  0  0  0  0  0  0  # atno 17395 bound_to 11000

$$$$
