AV-unprocessed.smi:907|AV-procd|sdf|4107|dock10
  -GOLD-   22720 2 03D 1   1.00000     0.00000
 Structure written by MMmdl.
 53 56  0  0  0  0  0  0  0  0  2 V2000
  150.4377  137.2196  159.7383 O   0  0  0  0  0  0  0  0  0  0  0  0
  150.4290  137.6939  158.6018 C   0  0  0  0  0  0  0  0  0  0  0  0
  149.4335  137.4503  157.7344 N   0  0  0  0  0  0  0  0  0  0  0  0
  148.2640  136.6311  158.0219 C   0  0  0  0  0  0  0  0  0  0  0  0
  147.5494  137.1347  159.2838 C   0  0  0  0  0  0  0  0  0  0  0  0
  147.0475  135.9980  160.1542 C   0  0  0  0  0  0  0  0  0  0  0  0
  146.4971  136.2552  161.4280 C   0  0  0  0  0  0  0  0  0  0  0  0
  146.0404  135.1653  162.1941 C   0  0  0  0  0  0  0  0  0  0  0  0
  146.1494  133.8674  161.6593 C   0  0  0  0  0  0  0  0  0  0  0  0
  146.7132  133.7164  160.3764 C   0  0  0  0  0  0  0  0  0  0  0  0
  147.1553  134.7545  159.6340 N   0  0  0  0  0  0  0  0  0  0  0  0
  151.4301  138.4695  158.1144 N   0  0  0  0  0  0  0  0  0  0  0  0
  151.5179  139.0346  156.7630 C   0  0  0  0  0  0  0  0  0  0  0  0
  151.2263  140.5461  156.8257 C   0  0  0  0  0  0  0  0  0  0  0  0
  152.1153  141.2556  157.7938 N   0  3  0  0  0  0  0  0  0  0  0  0
  151.8240  142.7154  157.9420 C   0  0  1  0  0  0  0  0  0  0  0  0
  150.4917  142.9666  158.6980 C   0  0  0  0  0  0  0  0  0  0  0  0
  150.8933  143.9165  159.8383 C   0  0  2  0  0  0  0  0  0  0  0  0
  151.2515  145.2951  159.2593 C   0  0  0  0  0  0  0  0  0  0  0  0
  152.6011  145.0260  158.5719 C   0  0  0  0  0  0  0  0  0  0  0  0
  152.8238  143.5207  158.8208 C   0  0  1  0  0  0  0  0  0  0  0  0
  152.2572  143.3621  160.2271 C   0  0  0  0  0  0  0  0  0  0  0  0
  152.1643  140.5672  159.1189 C   0  0  0  0  0  0  0  0  0  0  0  0
  152.4500  139.0622  158.9799 C   0  0  0  0  0  0  0  0  0  0  0  0
  149.4938  137.8554  156.8118 H   0  0  0  0  0  0  0  0  0  0  0  0
  147.5861  136.6643  157.1675 H   0  0  0  0  0  0  0  0  0  0  0  0
  148.5678  135.5913  158.1545 H   0  0  0  0  0  0  0  0  0  0  0  0
  148.2245  137.7581  159.8725 H   0  0  0  0  0  0  0  0  0  0  0  0
  146.7077  137.7713  159.0075 H   0  0  0  0  0  0  0  0  0  0  0  0
  146.4241  137.2628  161.8101 H   0  0  0  0  0  0  0  0  0  0  0  0
  145.6140  135.3226  163.1739 H   0  0  0  0  0  0  0  0  0  0  0  0
  145.8092  133.0083  162.2181 H   0  0  0  0  0  0  0  0  0  0  0  0
  146.8115  132.7359  159.9347 H   0  0  0  0  0  0  0  0  0  0  0  0
  152.5236  138.8678  156.3741 H   0  0  0  0  0  0  0  0  0  0  0  0
  150.8511  138.5629  156.0409 H   0  0  0  0  0  0  0  0  0  0  0  0
  151.3627  140.9377  155.8200 H   0  0  0  0  0  0  0  0  0  0  0  0
  150.1839  140.7123  157.1021 H   0  0  0  0  0  0  0  0  0  0  0  0
  151.7871  143.1518  156.9422 H   0  0  0  0  0  0  0  0  0  0  0  0
  149.7226  143.3934  158.0532 H   0  0  0  0  0  0  0  0  0  0  0  0
  150.0883  142.0501  159.1302 H   0  0  0  0  0  0  0  0  0  0  0  0
  150.1650  143.9582  160.6487 H   0  0  0  0  0  0  0  0  0  0  0  0
  150.4942  145.6617  158.5651 H   0  0  0  0  0  0  0  0  0  0  0  0
  151.3659  146.0349  160.0527 H   0  0  0  0  0  0  0  0  0  0  0  0
  152.5869  145.2780  157.5111 H   0  0  0  0  0  0  0  0  0  0  0  0
  153.3900  145.6158  159.0408 H   0  0  0  0  0  0  0  0  0  0  0  0
  153.8754  143.2632  158.7189 H   0  0  0  0  0  0  0  0  0  0  0  0
  152.7736  143.9690  160.9730 H   0  0  0  0  0  0  0  0  0  0  0  0
  152.2253  142.3258  160.5678 H   0  0  0  0  0  0  0  0  0  0  0  0
  152.9276  141.0107  159.7573 H   0  0  0  0  0  0  0  0  0  0  0  0
  151.2113  140.7078  159.6318 H   0  0  0  0  0  0  0  0  0  0  0  0
  152.4874  138.5966  159.9660 H   0  0  0  0  0  0  0  0  0  0  0  0
  153.4370  138.9044  158.5428 H   0  0  0  0  0  0  0  0  0  0  0  0
  153.0463  141.1894  157.4076 H   0  0  0  0  0  0  0  0  0  0  0  0
  1  2  2  0  0  0  0
  2  3  1  0  0  0  0
  2 12  1  0  0  0  0
  3  4  1  0  0  0  0
  3 25  1  0  0  0  0
  4  5  1  0  0  0  0
  4 26  1  0  0  0  0
  4 27  1  0  0  0  0
  5  6  1  0  0  0  0
  5 28  1  0  0  0  0
  5 29  1  0  0  0  0
  6 11  1  0  0  0  0
  6  7  2  0  0  0  0
  7  8  1  0  0  0  0
  7 30  1  0  0  0  0
  8  9  2  0  0  0  0
  8 31  1  0  0  0  0
  9 10  1  0  0  0  0
  9 32  1  0  0  0  0
 10 11  2  0  0  0  0
 10 33  1  0  0  0  0
 12 24  1  0  0  0  0
 12 13  1  0  0  0  0
 13 14  1  0  0  0  0
 13 34  1  0  0  0  0
 13 35  1  0  0  0  0
 14 15  1  0  0  0  0
 14 36  1  0  0  0  0
 14 37  1  0  0  0  0
 15 16  1  0  0  0  0
 15 23  1  0  0  0  0
 15 53  1  0  0  0  0
 16 21  1  0  0  0  0
 16 17  1  0  0  0  0
 16 38  1  0  0  0  0
 17 18  1  0  0  0  0
 17 39  1  0  0  0  0
 17 40  1  0  0  0  0
 18 22  1  0  0  0  0
 18 19  1  0  0  0  0
 18 41  1  0  0  0  0
 19 20  1  0  0  0  0
 19 42  1  0  0  0  0
 19 43  1  0  0  0  0
 20 21  1  0  0  0  0
 20 44  1  0  0  0  0
 20 45  1  0  0  0  0
 21 22  1  0  0  0  0
 21 46  1  0  0  0  0
 22 47  1  0  0  0  0
 22 48  1  0  0  0  0
 23 24  1  0  0  0  0
 23 49  1  0  0  0  0
 23 50  1  0  0  0  0
 24 51  1  0  0  0  0
 24 52  1  0  0  0  0
M  CHG  1  15   1
M  END
> <s_m_source_file>
AV-unprocessed.smi

> <i_m_source_file_index>
907

> <i_lp_mmshare_version>
43012

> <i_f3d_flags>
0

> <s_epik_input>
W0NIMl0xW0NIMl1bQ0BASF0oW0NIMl0yKVtDQEBIXShbQ0gyXVtDQEhdMTIpTihbQ0gyXVtDSDJdMylbQ0gyXVtDSDJdTjNDKD1PKVtOSF1bQ0gyXVtDSDJdYzRbY0hdW2NIXVtjSF1bY0hdbjQ=

> <s_epik_cmdline>
J2VwaWtfcHl0aG9uJywgJy1waCcsICc3LjAnLCAnLXRuJywgJzgnLCAnLW1hJywgJzIwMCcsICctbWV0YWxfYmluZGluZycsICctaW1hZScsICc8aW5maWxlLm1hZT4nLCAnLW9tYWUnLCAnPG91dGZpbGUubWFlPic=

> <r_epik_Ionization_Penalty>
0.0419258

> <r_epik_Ionization_Penalty_Charging>
0.00262064

> <r_epik_Ionization_Penalty_Neutral>
0.0393052

> <r_epik_State_Penalty>
0.0329887

> <r_epik_Charging_Adjusted_Penalty>
0.0356093

> <i_epik_Tot_Q>
1

> <i_epik_Tot_abs_Q>
1

> <r_epik_Metal_State_Penalty>
0.0309172

> <b_epik_Metal_Only>
0

> <s_lp_Force_Field>
OPLS_2005

> <r_lp_Energy>
96.5641

> <b_lp_Chiralities_Consistent>
1

> <s_lp_Variant>
AV-unprocessed.smi:907-2

> <Gold.Version>
5.8.1

> <Gold.Id.Protein>
6NUR|6NUR_protein|mol2

> <Gold.PLP.Fitness>
51.8190

> <Gold.PLP.PLP>
-49.7124

> <Gold.PLP.part.hbond>
-0.9112

> <Gold.PLP.part.metal>
0.0000

> <Gold.PLP.part.buried>
-5.9806

> <Gold.PLP.part.nonpolar>
-42.1611

> <Gold.PLP.part.repulsive>
0.1753

> <Gold.PLP.ligand.clash>
0.0000

> <Gold.PLP.ligand.torsion>
0.4318

> <Gold.PLP.Chemscore.Hbond>
0.9588

> <Gold.PLP.Chemscore.CHOScore>
0.0000

> <Gold.PLP.Chemscore.Metal>
0.0000

> <Gold.Chemscore.Hbonds>
donor molecule, donor type, donor heavy atom, donor atom, acceptor molecule, acceptor atom, score
      P1  H  6896  6908       L1     1  0.44

> <Gold.PLP.Chemscore.Internal.Correction>
0.0940

> <Gold.Rescore>
     Score         DG    S(hbond)    S(metal)    S(lipo)     H(rot)  DE(clash)    DE(int)     intcor
     20.83     -22.79       0.96        0.00     150.48       1.37       0.01       1.95       ----

> <Gold.Chemscore.Fitness>
20.8315

> <Gold.Chemscore.DG>
-22.7914

> <Gold.Chemscore.ZeroCoef>
-5.4800

> <Gold.Chemscore.Hbond>
0.9641

> <Gold.Chemscore.Metal>
0.0000

> <Gold.Chemscore.Lipo>
150.4831

> <Gold.Chemscore.Internal_Hbond>
0.0000

> <Gold.Chemscore.DEClash>
0.0121

> <Gold.Chemscore.DEInternal>
1.9478

> <Gold.Chemscore.Rot>
1.3731

> <Gold.Chemscore.Internal.Correction>
   9.000000E+99

> <Gold.Chemscore.Hbonds>
donor molecule, donor type, donor heavy atom, donor atom, acceptor molecule, acceptor atom, score
      P1  H  6896  6908       L1     1  0.40

> <Gold.Chemscore.Hbond.Weighted>
-3.2200

> <Gold.Chemscore.Metal.Weighted>
-0.0000

> <Gold.Chemscore.Lipo.Weighted>
-17.6065

> <Gold.Chemscore.Internal_Hbond.Weighted>
0.0000

> <Gold.Chemscore.DEClash.Weighted>
0.0121

> <Gold.Chemscore.DEInternal.Weighted>
1.9478

> <Gold.Chemscore.Rot.Weighted>
3.5152

> <Gold.Chemscore.Internal.Correction.Weighted>
   9.000000E+99

> <Gold.Protein.RotatedTorsions>
[ 6907 6896 6895 6894 ] final -135.45 input  -60.11 | X-H torsion
[ 7974 7965 7964 7962 ] final   10.03 input  175.53 | X-H torsion
[ 8008 7997 7996 7995 ] final -154.64 input   59.86 | X-H torsion
[ 10167 10162 10161 10158 ] final   41.60 input  -65.29 | X-H torsion
[ 10718 10713 10712 10709 ] final   19.71 input   66.30 | X-H torsion
[ 10763 10752 10751 10750 ] final  -51.63 input  -60.55 | X-H torsion
[ 11005 11000 10999 10996 ] final   64.59 input  -57.11 | X-H torsion

> <Gold.Protein.ActiveResidues>
 VAL166  LYS551  ARG553  GLY616  TRP617  ASP618  TYR619  PRO620  LYS621  CYS622 
 ASP623  PHE694  ASN695  SER759  ASP760  ASP761  ALA762  ILE779  LEU786  VAL792 
 PHE793  MET794  SER795  GLU796  ALA797  LYS798  CYS799  TRP800  GLU811  SER814 

> <Gold.Protein.RotatedAtoms>
  150.9981  133.6083  159.2698 H   0  0  0  0  0  0  0  0  0  0  0  0  # atno 6907 bound_to 6896
  151.3279  135.0833  159.9338 H   0  0  0  0  0  0  0  0  0  0  0  0  # atno 6908 bound_to 6896
  152.5266  133.9616  159.7774 H   0  0  0  0  0  0  0  0  0  0  0  0  # atno 6909 bound_to 6896
  146.2394  139.9694  142.8449 H   0  0  0  0  0  0  0  0  0  0  0  0  # atno 7974 bound_to 7965
  155.6895  140.0753  157.2454 H   0  0  0  0  0  0  0  0  0  0  0  0  # atno 8008 bound_to 7997
  154.4091  140.1667  156.2123 H   0  0  0  0  0  0  0  0  0  0  0  0  # atno 8009 bound_to 7997
  155.9465  140.3380  155.6374 H   0  0  0  0  0  0  0  0  0  0  0  0  # atno 8010 bound_to 7997
  140.3627  144.2207  150.6137 H   0  0  0  0  0  0  0  0  0  0  0  0  # atno 10167 bound_to 10162
  157.1143  130.6522  149.5906 H   0  0  0  0  0  0  0  0  0  0  0  0  # atno 10718 bound_to 10713
  154.1297  135.6522  153.4919 H   0  0  0  0  0  0  0  0  0  0  0  0  # atno 10763 bound_to 10752
  153.0199  135.5290  154.7014 H   0  0  0  0  0  0  0  0  0  0  0  0  # atno 10764 bound_to 10752
  154.6245  135.2968  155.0259 H   0  0  0  0  0  0  0  0  0  0  0  0  # atno 10765 bound_to 10752
  139.9949  134.6533  156.0027 H   0  0  0  0  0  0  0  0  0  0  0  0  # atno 11005 bound_to 11000
  145.1695  140.9713  143.4330 LP  0  0  0  0  0  0  0  0  0  0  0  0  # atno 17320 bound_to 7965
  145.0042  139.3570  143.6152 LP  0  0  0  0  0  0  0  0  0  0  0  0  # atno 17321 bound_to 7965
  140.5111  143.2290  151.8534 LP  0  0  0  0  0  0  0  0  0  0  0  0  # atno 17342 bound_to 10162
  139.4812  144.4949  151.9137 LP  0  0  0  0  0  0  0  0  0  0  0  0  # atno 17343 bound_to 10162
  155.9843  130.4867  150.6977 LP  0  0  0  0  0  0  0  0  0  0  0  0  # atno 17370 bound_to 10713
  157.4532  131.0875  151.0824 LP  0  0  0  0  0  0  0  0  0  0  0  0  # atno 17371 bound_to 10713
  141.1596  133.6540  156.4275 LP  0  0  0  0  0  0  0  0  0  0  0  0  # atno 17394 bound_to 11000
  140.4837  134.6640  157.5182 LP  0  0  0  0  0  0  0  0  0  0  0  0  # atno 17395 bound_to 11000

$$$$
