AV-unprocessed.smi:1055|AV-procd|sdf|4625|dock3
  -GOLD-   22720 3123D 1   1.00000     0.00000
 Structure written by MMmdl.
 52 53  0  0  0  0  0  0  0  0  3 V2000
  145.8436  132.2977  149.8271 C   0  0  0  0  0  0  0  0  0  0  0  0
  144.7791  132.4210  150.6370 C   0  0  0  0  0  0  0  0  0  0  0  0
  143.4564  131.7423  150.3341 C   0  0  0  0  0  0  0  0  0  0  0  0
  144.8242  133.2540  151.9084 C   0  0  0  0  0  0  0  0  0  0  0  0
  144.7058  134.7058  151.6233 N   0  3  2  0  0  0  0  0  0  0  0  0
  145.7430  135.1759  150.6704 C   0  0  0  0  0  0  0  0  0  0  0  0
  145.5067  136.6429  150.2680 C   0  0  0  0  0  0  0  0  0  0  0  0
  145.4236  137.5740  151.4899 C   0  0  2  0  0  0  0  0  0  0  0  0
  146.7443  137.7510  152.0941 N   0  0  0  0  0  0  0  0  0  0  0  0
  147.0603  138.6916  152.9964 C   0  0  0  0  0  0  0  0  0  0  0  0
  146.2492  139.5034  153.4401 O   0  0  0  0  0  0  0  0  0  0  0  0
  148.3540  138.6115  153.3535 N   0  0  0  0  0  0  0  0  0  0  0  0
  149.0772  139.4454  154.2496 C   0  0  0  0  0  0  0  0  0  0  0  0
  150.2742  138.9408  154.7990 C   0  0  0  0  0  0  0  0  0  0  0  0
  151.0339  139.7375  155.6801 C   0  0  0  0  0  0  0  0  0  0  0  0
  150.5969  141.0458  156.0021 C   0  0  0  0  0  0  0  0  0  0  0  0
  151.3026  141.9043  156.8727 N   0  0  0  0  0  0  0  0  0  0  0  0
  151.2398  143.3482  156.6754 C   0  0  0  0  0  0  0  0  0  0  0  0
  152.0728  141.3452  157.9757 C   0  0  0  0  0  0  0  0  0  0  0  0
  149.4469  141.4911  155.4397 N   0  3  0  0  0  0  0  0  0  0  0  0
  148.6878  140.7618  154.5937 C   0  0  0  0  0  0  0  0  0  0  0  0
  144.3995  137.0212  152.5010 C   0  0  0  0  0  0  0  0  0  0  0  0
  144.6666  135.5462  152.8494 C   0  0  0  0  0  0  0  0  0  0  0  0
  145.7966  131.7045  148.9253 H   0  0  0  0  0  0  0  0  0  0  0  0
  146.7797  132.7875  150.0523 H   0  0  0  0  0  0  0  0  0  0  0  0
  142.6604  132.4831  150.2535 H   0  0  0  0  0  0  0  0  0  0  0  0
  143.1938  131.0401  151.1255 H   0  0  0  0  0  0  0  0  0  0  0  0
  143.4998  131.1896  149.3949 H   0  0  0  0  0  0  0  0  0  0  0  0
  144.0369  132.9484  152.5996 H   0  0  0  0  0  0  0  0  0  0  0  0
  145.7739  133.0468  152.4036 H   0  0  0  0  0  0  0  0  0  0  0  0
  146.7312  135.0577  151.1178 H   0  0  0  0  0  0  0  0  0  0  0  0
  145.7265  134.5541  149.7745 H   0  0  0  0  0  0  0  0  0  0  0  0
  146.2916  136.9774  149.5886 H   0  0  0  0  0  0  0  0  0  0  0  0
  144.5736  136.7091  149.7065 H   0  0  0  0  0  0  0  0  0  0  0  0
  145.0798  138.5501  151.1423 H   0  0  0  0  0  0  0  0  0  0  0  0
  147.4739  137.1246  151.7868 H   0  0  0  0  0  0  0  0  0  0  0  0
  148.8761  137.8413  152.9622 H   0  0  0  0  0  0  0  0  0  0  0  0
  150.6115  137.9446  154.5525 H   0  0  0  0  0  0  0  0  0  0  0  0
  151.9437  139.3295  156.0939 H   0  0  0  0  0  0  0  0  0  0  0  0
  151.6003  143.6167  155.6818 H   0  0  0  0  0  0  0  0  0  0  0  0
  151.8540  143.8760  157.4054 H   0  0  0  0  0  0  0  0  0  0  0  0
  150.2147  143.7041  156.7813 H   0  0  0  0  0  0  0  0  0  0  0  0
  152.8552  140.6851  157.6004 H   0  0  0  0  0  0  0  0  0  0  0  0
  151.4272  140.7763  158.6453 H   0  0  0  0  0  0  0  0  0  0  0  0
  152.5520  142.1291  158.5625 H   0  0  0  0  0  0  0  0  0  0  0  0
  147.8113  141.2706  154.2222 H   0  0  0  0  0  0  0  0  0  0  0  0
  144.3907  137.6249  153.4092 H   0  0  0  0  0  0  0  0  0  0  0  0
  143.3988  137.1072  152.0756 H   0  0  0  0  0  0  0  0  0  0  0  0
  143.8822  135.1974  153.5211 H   0  0  0  0  0  0  0  0  0  0  0  0
  145.6090  135.4490  153.3907 H   0  0  0  0  0  0  0  0  0  0  0  0
  143.8181  134.8290  151.1571 H   0  0  0  0  0  0  0  0  0  0  0  0
  149.1360  142.4360  155.6659 H   0  0  0  0  0  0  0  0  0  0  0  0
  1  2  2  0  0  0  0
  1 24  1  0  0  0  0
  1 25  1  0  0  0  0
  2  3  1  0  0  0  0
  2  4  1  0  0  0  0
  3 26  1  0  0  0  0
  3 27  1  0  0  0  0
  3 28  1  0  0  0  0
  4  5  1  0  0  0  0
  4 29  1  0  0  0  0
  4 30  1  0  0  0  0
  5 23  1  0  0  0  0
  5  6  1  0  0  0  0
  5 51  1  0  0  0  0
  6  7  1  0  0  0  0
  6 31  1  0  0  0  0
  6 32  1  0  0  0  0
  7  8  1  0  0  0  0
  7 33  1  0  0  0  0
  7 34  1  0  0  0  0
  8  9  1  0  0  0  0
  8 22  1  0  0  0  0
  8 35  1  0  0  0  0
  9 10  1  0  0  0  0
  9 36  1  0  0  0  0
 10 11  2  0  0  0  0
 10 12  1  0  0  0  0
 12 13  1  0  0  0  0
 12 37  1  0  0  0  0
 13 21  1  0  0  0  0
 13 14  2  0  0  0  0
 14 15  1  0  0  0  0
 14 38  1  0  0  0  0
 15 16  2  0  0  0  0
 15 39  1  0  0  0  0
 16 17  1  0  0  0  0
 16 20  1  0  0  0  0
 17 18  1  0  0  0  0
 17 19  1  0  0  0  0
 18 40  1  0  0  0  0
 18 41  1  0  0  0  0
 18 42  1  0  0  0  0
 19 43  1  0  0  0  0
 19 44  1  0  0  0  0
 19 45  1  0  0  0  0
 20 21  2  0  0  0  0
 20 52  1  0  0  0  0
 21 46  1  0  0  0  0
 22 23  1  0  0  0  0
 22 47  1  0  0  0  0
 22 48  1  0  0  0  0
 23 49  1  0  0  0  0
 23 50  1  0  0  0  0
M  CHG  1   5   1
M  CHG  1  20   1
M  END
> <s_m_source_file>
AV-unprocessed.smi

> <i_m_source_file_index>
1055

> <i_lp_mmshare_version>
43012

> <i_f3d_flags>
0

> <s_epik_input>
W0NIMl09QyhbQ0gzXSlbQ0gyXU4xW0NIMl1bQ0gyXVtDSF0oW0NIMl1bQ0gyXTEpW05IXUMoPU8pW05IXWMyW2NIXVtjSF1jKE4oW0NIM10pW0NIM10pbltjSF0y

> <s_epik_cmdline>
J2VwaWtfcHl0aG9uJywgJy1waCcsICc3LjAnLCAnLXRuJywgJzgnLCAnLW1hJywgJzIwMCcsICctbWV0YWxfYmluZGluZycsICctaW1hZScsICc8aW5maWxlLm1hZT4nLCAnLW9tYWUnLCAnPG91dGZpbGUubWFlPic=

> <r_lp_tautomer_probability>
0.999994

> <r_epik_Ionization_Penalty>
0.344238

> <r_epik_Ionization_Penalty_Charging>
0.344219

> <r_epik_Ionization_Penalty_Neutral>
1.87459e-05

> <r_epik_State_Penalty>
0.320654

> <r_epik_Charging_Adjusted_Penalty>
0.664873

> <i_epik_Tot_Q>
2

> <i_epik_Tot_abs_Q>
2

> <r_epik_Metal_State_Penalty>
0.58246

> <b_epik_Metal_Only>
0

> <s_lp_Force_Field>
OPLS_2005

> <r_lp_Energy>
26.4869

> <b_lp_Chiralities_Consistent>
1

> <s_lp_Variant>
AV-unprocessed.smi:1055-2

> <Gold.Version>
5.8.1

> <Gold.Id.Protein>
6NUR|6NUR_protein|mol2

> <Gold.PLP.Fitness>
45.4988

> <Gold.PLP.PLP>
-36.6907

> <Gold.PLP.part.hbond>
-3.7767

> <Gold.PLP.part.metal>
0.0000

> <Gold.PLP.part.buried>
4.3196

> <Gold.PLP.part.nonpolar>
-38.8476

> <Gold.PLP.part.repulsive>
1.3981

> <Gold.PLP.ligand.clash>
0.0000

> <Gold.PLP.ligand.torsion>
0.8922

> <Gold.PLP.Chemscore.Hbond>
3.5127

> <Gold.PLP.Chemscore.CHOScore>
0.0000

> <Gold.PLP.Chemscore.Metal>
0.0000

> <Gold.Chemscore.Hbonds>
donor molecule, donor type, donor heavy atom, donor atom, acceptor molecule, acceptor atom, score
      L1  H     9    36       P1  7948  1.00
      L1  H    12    37       P1  7948  1.00
      L1  H    20    52       P1  8028  0.68

> <Gold.PLP.Chemscore.Internal.Correction>
0.0544

> <Gold.Rescore>
     Score         DG    S(hbond)    S(metal)    S(lipo)     H(rot)  DE(clash)    DE(int)     intcor
     17.04     -22.89       2.35        0.00     111.06       1.35       3.87       1.98       ----

> <Gold.Chemscore.Fitness>
17.0433

> <Gold.Chemscore.DG>
-22.8887

> <Gold.Chemscore.ZeroCoef>
-5.4800

> <Gold.Chemscore.Hbond>
2.3538

> <Gold.Chemscore.Metal>
0.0000

> <Gold.Chemscore.Lipo>
111.0609

> <Gold.Chemscore.Internal_Hbond>
0.0000

> <Gold.Chemscore.DEClash>
3.8676

> <Gold.Chemscore.DEInternal>
1.9778

> <Gold.Chemscore.Rot>
1.3465

> <Gold.Chemscore.Internal.Correction>
   9.000000E+99

> <Gold.Chemscore.Hbonds>
donor molecule, donor type, donor heavy atom, donor atom, acceptor molecule, acceptor atom, score
      L1  H     9    36       P1  7948  0.99
      L1  H    12    37       P1  7948  0.95
      L1  H    20    52       P1  8028  0.35

> <Gold.Chemscore.Hbond.Weighted>
-7.8616

> <Gold.Chemscore.Metal.Weighted>
-0.0000

> <Gold.Chemscore.Lipo.Weighted>
-12.9941

> <Gold.Chemscore.Internal_Hbond.Weighted>
0.0000

> <Gold.Chemscore.DEClash.Weighted>
3.8676

> <Gold.Chemscore.DEInternal.Weighted>
1.9778

> <Gold.Chemscore.Rot.Weighted>
3.4470

> <Gold.Chemscore.Internal.Correction.Weighted>
   9.000000E+99

> <Gold.Protein.RotatedTorsions>
[ 6907 6896 6895 6894 ] final  -57.00 input  -60.11 | X-H torsion
[ 7974 7965 7964 7962 ] final -146.95 input  175.53 | X-H torsion
[ 8008 7997 7996 7995 ] final   46.29 input   59.86 | X-H torsion
[ 10167 10162 10161 10158 ] final   -3.30 input  -65.29 | X-H torsion
[ 10718 10713 10712 10709 ] final   14.90 input   66.30 | X-H torsion
[ 10763 10752 10751 10750 ] final   39.54 input  -60.55 | X-H torsion
[ 11005 11000 10999 10996 ] final  -61.68 input  -57.11 | X-H torsion

> <Gold.Protein.ActiveResidues>
 VAL166  LYS551  ARG553  GLY616  TRP617  ASP618  TYR619  PRO620  LYS621  CYS622 
 ASP623  PHE694  ASN695  SER759  ASP760  ASP761  ALA762  ILE779  LEU786  VAL792 
 PHE793  MET794  SER795  GLU796  ALA797  LYS798  CYS799  TRP800  GLU811  SER814 

> <Gold.Protein.RotatedAtoms>
  150.8121  134.7282  159.6697 H   0  0  0  0  0  0  0  0  0  0  0  0  # atno 6907 bound_to 6896
  152.4241  134.5897  159.9980 H   0  0  0  0  0  0  0  0  0  0  0  0  # atno 6908 bound_to 6896
  151.6104  133.3310  159.3102 H   0  0  0  0  0  0  0  0  0  0  0  0  # atno 6909 bound_to 6896
  144.8125  140.5390  143.5633 H   0  0  0  0  0  0  0  0  0  0  0  0  # atno 7974 bound_to 7965
  155.3500  140.3413  155.4239 H   0  0  0  0  0  0  0  0  0  0  0  0  # atno 8008 bound_to 7997
  156.1769  140.1650  156.8382 H   0  0  0  0  0  0  0  0  0  0  0  0  # atno 8009 bound_to 7997
  154.5291  140.0749  156.8295 H   0  0  0  0  0  0  0  0  0  0  0  0  # atno 8010 bound_to 7997
  140.6885  143.6556  150.8311 H   0  0  0  0  0  0  0  0  0  0  0  0  # atno 10167 bound_to 10162
  157.0458  130.6249  149.5759 H   0  0  0  0  0  0  0  0  0  0  0  0  # atno 10718 bound_to 10713
  152.9964  135.6217  154.2482 H   0  0  0  0  0  0  0  0  0  0  0  0  # atno 10763 bound_to 10752
  154.2221  135.2795  155.2922 H   0  0  0  0  0  0  0  0  0  0  0  0  # atno 10764 bound_to 10752
  154.5520  135.5730  153.6988 H   0  0  0  0  0  0  0  0  0  0  0  0  # atno 10765 bound_to 10752
  141.1333  133.6632  156.5412 H   0  0  0  0  0  0  0  0  0  0  0  0  # atno 11005 bound_to 11000
  145.5290  139.1475  143.3510 LP  0  0  0  0  0  0  0  0  0  0  0  0  # atno 17320 bound_to 7965
  146.2425  140.5431  142.8928 LP  0  0  0  0  0  0  0  0  0  0  0  0  # atno 17321 bound_to 7965
  140.0266  143.5487  152.2778 LP  0  0  0  0  0  0  0  0  0  0  0  0  # atno 17342 bound_to 10162
  139.6264  144.7638  151.2628 LP  0  0  0  0  0  0  0  0  0  0  0  0  # atno 17343 bound_to 10162
  156.0023  130.5105  150.7708 LP  0  0  0  0  0  0  0  0  0  0  0  0  # atno 17370 bound_to 10713
  157.5069  131.0923  151.0246 LP  0  0  0  0  0  0  0  0  0  0  0  0  # atno 17371 bound_to 10713
  140.4138  134.7248  157.4851 LP  0  0  0  0  0  0  0  0  0  0  0  0  # atno 17394 bound_to 11000
  140.0408  134.6270  155.8983 LP  0  0  0  0  0  0  0  0  0  0  0  0  # atno 17395 bound_to 11000

$$$$
