AV-unprocessed.smi:1978|AV-procd|sdf|8001|dock1
  -GOLD-   2272010183D 1   1.00000     0.00000
 Structure written by MMmdl.
 44 45  0  0  0  0  0  0  0  0  3 V2000
  145.9164  134.9097  162.6311 C   0  0  0  0  0  0  0  0  0  0  0  0
  146.7065  135.7403  161.6782 C   0  0  0  0  0  0  0  0  0  0  0  0
  147.2318  135.4869  160.4429 C   0  0  0  0  0  0  0  0  0  0  0  0
  147.8694  136.7117  160.1039 C   0  0  0  0  0  0  0  0  0  0  0  0
  148.5267  136.9690  158.9626 N   0  5  0  0  0  0  0  0  0  0  0  0
  149.7603  137.5214  158.9972 C   0  0  0  0  0  0  0  0  0  0  0  0
  150.6721  137.2311  159.7752 O   0  0  0  0  0  0  0  0  0  0  0  0
  149.9535  138.4657  158.0651 N   0  0  0  0  0  0  0  0  0  0  0  0
  151.1920  139.2084  157.8489 C   0  0  0  0  0  0  0  0  0  0  0  0
  151.6276  140.0457  159.0867 C   0  0  1  0  0  0  0  0  0  0  0  0
  152.7691  139.3024  159.8286 C   0  0  0  0  0  0  0  0  0  0  0  0
  152.0035  141.4507  158.7013 N   0  3  1  0  0  0  0  0  0  0  0  0
  150.8374  142.3122  158.3346 C   0  0  0  0  0  0  0  0  0  0  0  0
  151.2869  143.6471  157.7179 C   0  0  0  0  0  0  0  0  0  0  0  0
  152.2282  144.4083  158.6535 C   0  0  0  0  0  0  0  0  0  0  0  0
  153.4019  143.5043  159.0458 C   0  0  0  0  0  0  0  0  0  0  0  0
  152.9308  142.1622  159.6449 C   0  0  1  0  0  0  0  0  0  0  0  0
  152.3480  142.3380  161.0663 C   0  0  0  0  0  0  0  0  0  0  0  0
  147.7285  137.6322  161.0427 N   0  0  0  0  0  0  0  0  0  0  0  0
  146.9888  137.0153  162.0588 O   0  0  0  0  0  0  0  0  0  0  0  0
  144.9069  134.7460  162.2539 H   0  0  0  0  0  0  0  0  0  0  0  0
  145.8393  135.3942  163.6049 H   0  0  0  0  0  0  0  0  0  0  0  0
  146.3863  133.9369  162.7749 H   0  0  0  0  0  0  0  0  0  0  0  0
  147.1728  134.5716  159.8739 H   0  0  0  0  0  0  0  0  0  0  0  0
  149.1785  138.6773  157.4534 H   0  0  0  0  0  0  0  0  0  0  0  0
  151.9726  138.4911  157.5939 H   0  0  0  0  0  0  0  0  0  0  0  0
  151.0341  139.8160  156.9605 H   0  0  0  0  0  0  0  0  0  0  0  0
  150.7802  140.1138  159.7698 H   0  0  0  0  0  0  0  0  0  0  0  0
  152.5023  138.2722  160.0624 H   0  0  0  0  0  0  0  0  0  0  0  0
  153.0124  139.7539  160.7890 H   0  0  0  0  0  0  0  0  0  0  0  0
  153.6783  139.2736  159.2273 H   0  0  0  0  0  0  0  0  0  0  0  0
  150.1994  141.8362  157.5958 H   0  0  0  0  0  0  0  0  0  0  0  0
  150.2092  142.4856  159.2086 H   0  0  0  0  0  0  0  0  0  0  0  0
  151.7900  143.4575  156.7687 H   0  0  0  0  0  0  0  0  0  0  0  0
  150.4165  144.2621  157.4872 H   0  0  0  0  0  0  0  0  0  0  0  0
  152.5955  145.3107  158.1640 H   0  0  0  0  0  0  0  0  0  0  0  0
  151.6878  144.7366  159.5418 H   0  0  0  0  0  0  0  0  0  0  0  0
  154.0095  143.3074  158.1615 H   0  0  0  0  0  0  0  0  0  0  0  0
  154.0540  144.0248  159.7485 H   0  0  0  0  0  0  0  0  0  0  0  0
  153.8439  141.5764  159.7379 H   0  0  0  0  0  0  0  0  0  0  0  0
  153.0727  142.8240  161.7198 H   0  0  0  0  0  0  0  0  0  0  0  0
  152.0960  141.3846  161.5291 H   0  0  0  0  0  0  0  0  0  0  0  0
  151.4476  142.9511  161.0750 H   0  0  0  0  0  0  0  0  0  0  0  0
  152.5354  141.3466  157.8492 H   0  0  0  0  0  0  0  0  0  0  0  0
  1  2  1  0  0  0  0
  1 21  1  0  0  0  0
  1 22  1  0  0  0  0
  1 23  1  0  0  0  0
  2 20  1  0  0  0  0
  2  3  2  0  0  0  0
  3  4  1  0  0  0  0
  3 24  1  0  0  0  0
  4  5  1  0  0  0  0
  4 19  2  0  0  0  0
  5  6  1  0  0  0  0
  6  7  2  0  0  0  0
  6  8  1  0  0  0  0
  8  9  1  0  0  0  0
  8 25  1  0  0  0  0
  9 10  1  0  0  0  0
  9 26  1  0  0  0  0
  9 27  1  0  0  0  0
 10 11  1  0  0  0  0
 10 12  1  0  0  0  0
 10 28  1  0  0  0  0
 11 29  1  0  0  0  0
 11 30  1  0  0  0  0
 11 31  1  0  0  0  0
 12 17  1  0  0  0  0
 12 13  1  0  0  0  0
 12 44  1  0  0  0  0
 13 14  1  0  0  0  0
 13 32  1  0  0  0  0
 13 33  1  0  0  0  0
 14 15  1  0  0  0  0
 14 34  1  0  0  0  0
 14 35  1  0  0  0  0
 15 16  1  0  0  0  0
 15 36  1  0  0  0  0
 15 37  1  0  0  0  0
 16 17  1  0  0  0  0
 16 38  1  0  0  0  0
 16 39  1  0  0  0  0
 17 18  1  0  0  0  0
 17 40  1  0  0  0  0
 18 41  1  0  0  0  0
 18 42  1  0  0  0  0
 18 43  1  0  0  0  0
 19 20  1  0  0  0  0
M  CHG  1   5  -1
M  CHG  1  12   1
M  END
> <s_m_source_file>
AV-unprocessed.smi

> <i_m_source_file_index>
1978

> <i_lp_mmshare_version>
43012

> <i_f3d_flags>
0

> <s_epik_input>
W0NIM11jMVtjSF1jKG5vMSlbTkhdQyg9TylbTkhdW0NIMl1bQ0BIXShbQ0gzXSlOMltDSDJdW0NIMl1bQ0gyXVtDSDJdW0NASF0yW0NIM10=

> <s_epik_cmdline>
J2VwaWtfcHl0aG9uJywgJy1waCcsICc3LjAnLCAnLXRuJywgJzgnLCAnLW1hJywgJzIwMCcsICctbWV0YWxfYmluZGluZycsICctaW1hZScsICc8aW5maWxlLm1hZT4nLCAnLW9tYWUnLCAnPG91dGZpbGUubWFlPic=

> <r_epik_Ionization_Penalty>
6.22372

> <r_epik_Ionization_Penalty_Charging>
6.22362

> <r_epik_Ionization_Penalty_Neutral>
9.65074e-05

> <r_epik_State_Penalty>
6.22363

> <r_epik_Charging_Adjusted_Penalty>
12.4472

> <i_epik_Tot_Q>
0

> <i_epik_Tot_abs_Q>
2

> <r_epik_Metal_State_Penalty>
2.16675

> <b_epik_Metal_Only>
1

> <s_lp_Force_Field>
OPLS_2005

> <r_lp_Energy>
13.574

> <b_lp_Chiralities_Consistent>
1

> <s_lp_Variant>
AV-unprocessed.smi:1978-10

> <Gold.Version>
5.8.1

> <Gold.Id.Protein>
6NUR|6NUR_protein|mol2

> <Gold.PLP.Fitness>
45.1924

> <Gold.PLP.PLP>
-41.0445

> <Gold.PLP.part.hbond>
-3.1838

> <Gold.PLP.part.metal>
0.0000

> <Gold.PLP.part.buried>
-5.5465

> <Gold.PLP.part.nonpolar>
-33.3127

> <Gold.PLP.part.repulsive>
0.1864

> <Gold.PLP.ligand.clash>
0.0000

> <Gold.PLP.ligand.torsion>
1.7857

> <Gold.PLP.Chemscore.Hbond>
2.4249

> <Gold.PLP.Chemscore.CHOScore>
0.0000

> <Gold.PLP.Chemscore.Metal>
0.0000

> <Gold.Chemscore.Hbonds>
donor molecule, donor type, donor heavy atom, donor atom, acceptor molecule, acceptor atom, score
      P1  H  6896  6907       L1     7  0.14
      P1  H  6931  6943       L1    19  0.67
      P1  H  6934  6947       L1    19  0.70

> <Gold.PLP.Chemscore.Internal.Correction>
0.4447

> <Gold.Rescore>
     Score         DG    S(hbond)    S(metal)    S(lipo)     H(rot)  DE(clash)    DE(int)     intcor
     17.44     -20.11       1.84        0.00     105.79       1.52       0.02       2.65       ----

> <Gold.Chemscore.Fitness>
17.4375

> <Gold.Chemscore.DG>
-20.1068

> <Gold.Chemscore.ZeroCoef>
-5.4800

> <Gold.Chemscore.Hbond>
1.8378

> <Gold.Chemscore.Metal>
0.0000

> <Gold.Chemscore.Lipo>
105.7889

> <Gold.Chemscore.Internal_Hbond>
0.0000

> <Gold.Chemscore.DEClash>
0.0168

> <Gold.Chemscore.DEInternal>
2.6525

> <Gold.Chemscore.Rot>
1.5190

> <Gold.Chemscore.Internal.Correction>
   9.000000E+99

> <Gold.Chemscore.Hbonds>
donor molecule, donor type, donor heavy atom, donor atom, acceptor molecule, acceptor atom, score
      P1  H  6896  6907       L1     7  0.15
      P1  H  6931  6943       L1    19  0.23
      P1  H  6934  6947       L1    19  0.37

> <Gold.Chemscore.Hbond.Weighted>
-6.1381

> <Gold.Chemscore.Metal.Weighted>
-0.0000

> <Gold.Chemscore.Lipo.Weighted>
-12.3773

> <Gold.Chemscore.Internal_Hbond.Weighted>
0.0000

> <Gold.Chemscore.DEClash.Weighted>
0.0168

> <Gold.Chemscore.DEInternal.Weighted>
2.6525

> <Gold.Chemscore.Rot.Weighted>
3.8886

> <Gold.Chemscore.Internal.Correction.Weighted>
   9.000000E+99

> <Gold.Protein.RotatedTorsions>
[ 6907 6896 6895 6894 ] final   12.09 input  -60.11 | X-H torsion
[ 7974 7965 7964 7962 ] final  154.39 input  175.53 | X-H torsion
[ 8008 7997 7996 7995 ] final  144.62 input   59.86 | X-H torsion
[ 10167 10162 10161 10158 ] final   37.61 input  -65.29 | X-H torsion
[ 10718 10713 10712 10709 ] final -102.49 input   66.30 | X-H torsion
[ 10763 10752 10751 10750 ] final   83.40 input  -60.55 | X-H torsion
[ 11005 11000 10999 10996 ] final  -26.94 input  -57.11 | X-H torsion

> <Gold.Protein.ActiveResidues>
 VAL166  LYS551  ARG553  GLY616  TRP617  ASP618  TYR619  PRO620  LYS621  CYS622 
 ASP623  PHE694  ASN695  SER759  ASP760  ASP761  ALA762  ILE779  LEU786  VAL792 
 PHE793  MET794  SER795  GLU796  ALA797  LYS798  CYS799  TRP800  GLU811  SER814 

> <Gold.Protein.RotatedAtoms>
  151.7648  135.0801  160.0350 H   0  0  0  0  0  0  0  0  0  0  0  0  # atno 6907 bound_to 6896
  152.3329  133.5974  159.5830 H   0  0  0  0  0  0  0  0  0  0  0  0  # atno 6908 bound_to 6896
  150.7433  133.9757  159.3601 H   0  0  0  0  0  0  0  0  0  0  0  0  # atno 6909 bound_to 6896
  144.8092  139.6928  143.6149 H   0  0  0  0  0  0  0  0  0  0  0  0  # atno 7974 bound_to 7965
  156.2903  140.2231  156.5083 H   0  0  0  0  0  0  0  0  0  0  0  0  # atno 8008 bound_to 7997
  154.7631  140.0472  157.1011 H   0  0  0  0  0  0  0  0  0  0  0  0  # atno 8009 bound_to 7997
  154.9967  140.3096  155.4887 H   0  0  0  0  0  0  0  0  0  0  0  0  # atno 8010 bound_to 7997
  140.4016  144.1715  150.6134 H   0  0  0  0  0  0  0  0  0  0  0  0  # atno 10167 bound_to 10162
  156.0230  130.5422  150.7116 H   0  0  0  0  0  0  0  0  0  0  0  0  # atno 10718 bound_to 10713
  153.1287  135.4693  154.9314 H   0  0  0  0  0  0  0  0  0  0  0  0  # atno 10763 bound_to 10752
  154.7644  135.3140  154.8317 H   0  0  0  0  0  0  0  0  0  0  0  0  # atno 10764 bound_to 10752
  153.8864  135.6889  153.4817 H   0  0  0  0  0  0  0  0  0  0  0  0  # atno 10765 bound_to 10752
  140.9074  133.7483  156.0625 H   0  0  0  0  0  0  0  0  0  0  0  0  # atno 11005 bound_to 11000
  146.2388  139.5958  142.9506 LP  0  0  0  0  0  0  0  0  0  0  0  0  # atno 17320 bound_to 7965
  145.5365  141.0423  143.2354 LP  0  0  0  0  0  0  0  0  0  0  0  0  # atno 17321 bound_to 7965
  140.4733  143.2405  151.9058 LP  0  0  0  0  0  0  0  0  0  0  0  0  # atno 17342 bound_to 10162
  139.4784  144.5346  151.8617 LP  0  0  0  0  0  0  0  0  0  0  0  0  # atno 17343 bound_to 10162
  157.4752  131.0897  151.0598 LP  0  0  0  0  0  0  0  0  0  0  0  0  # atno 17370 bound_to 10713
  157.1046  130.5996  149.5468 LP  0  0  0  0  0  0  0  0  0  0  0  0  # atno 17371 bound_to 10713
  140.8153  134.3352  157.5399 LP  0  0  0  0  0  0  0  0  0  0  0  0  # atno 17394 bound_to 11000
  139.8752  134.9278  156.3434 LP  0  0  0  0  0  0  0  0  0  0  0  0  # atno 17395 bound_to 11000

$$$$
