AV-unprocessed.smi:657|AV-procd|sdf|3221|dock3
  -GOLD-   22720 0163D 1   1.00000     0.00000
 Structure written by MMmdl.
 47 48  0  0  0  0  0  0  0  0  2 V2000
  147.5459  138.5527  154.8147 C   0  0  0  0  0  0  0  0  0  0  0  0
  146.4804  139.0344  153.8063 C   0  0  0  0  0  0  0  0  0  0  0  0
  147.0710  138.9105  152.3862 C   0  0  0  0  0  0  0  0  0  0  0  0
  145.9868  140.4251  154.0959 N   0  3  1  0  0  0  0  0  0  0  0  0
  145.3043  140.5641  155.4212 C   0  0  0  0  0  0  0  0  0  0  0  0
  144.6562  141.9466  155.6041 C   0  0  0  0  0  0  0  0  0  0  0  0
  145.6709  143.0717  155.3990 C   0  0  0  0  0  0  0  0  0  0  0  0
  146.3062  142.9214  154.0134 C   0  0  0  0  0  0  0  0  0  0  0  0
  146.9653  141.5359  153.8185 C   0  0  1  0  0  0  0  0  0  0  0  0
  148.3082  141.4488  154.5775 C   0  0  0  0  0  0  0  0  0  0  0  0
  149.3673  141.2326  153.9894 O   0  0  0  0  0  0  0  0  0  0  0  0
  148.2333  141.5925  155.9095 N   0  0  0  0  0  0  0  0  0  0  0  0
  149.3480  141.4547  156.8432 C   0  0  0  0  0  0  0  0  0  0  0  0
  150.5152  142.4198  156.5428 C   0  0  0  0  0  0  0  0  0  0  0  0
  151.0741  143.0733  157.7803 C   0  0  0  0  0  0  0  0  0  0  0  0
  151.3151  144.4574  158.0142 C   0  0  0  0  0  0  0  0  0  0  0  0
  151.7723  144.7007  159.2316 N   0  0  0  0  0  0  0  0  0  0  0  0
  151.8515  143.4850  159.8103 N   0  0  0  0  0  0  0  0  0  0  0  0
  152.3152  143.3721  161.1762 C   0  0  0  0  0  0  0  0  0  0  0  0
  151.4454  142.4840  158.9556 C   0  0  0  0  0  0  0  0  0  0  0  0
  147.9524  137.5838  154.5224 H   0  0  0  0  0  0  0  0  0  0  0  0
  147.1381  138.4168  155.8161 H   0  0  0  0  0  0  0  0  0  0  0  0
  148.3804  139.2520  154.8774 H   0  0  0  0  0  0  0  0  0  0  0  0
  145.6361  138.3471  153.8666 H   0  0  0  0  0  0  0  0  0  0  0  0
  147.5453  137.9390  152.2420 H   0  0  0  0  0  0  0  0  0  0  0  0
  147.8271  139.6742  152.2010 H   0  0  0  0  0  0  0  0  0  0  0  0
  146.3099  138.9870  151.6106 H   0  0  0  0  0  0  0  0  0  0  0  0
  144.5052  139.8328  155.5202 H   0  0  0  0  0  0  0  0  0  0  0  0
  146.0003  140.3633  156.2350 H   0  0  0  0  0  0  0  0  0  0  0  0
  143.8351  142.0613  154.8951 H   0  0  0  0  0  0  0  0  0  0  0  0
  144.2157  142.0210  156.5989 H   0  0  0  0  0  0  0  0  0  0  0  0
  145.1825  144.0426  155.4863 H   0  0  0  0  0  0  0  0  0  0  0  0
  146.4339  143.0345  156.1770 H   0  0  0  0  0  0  0  0  0  0  0  0
  145.5385  143.0631  153.2513 H   0  0  0  0  0  0  0  0  0  0  0  0
  147.0310  143.7217  153.8533 H   0  0  0  0  0  0  0  0  0  0  0  0
  147.2088  141.4923  152.7571 H   0  0  0  0  0  0  0  0  0  0  0  0
  147.3252  141.7646  156.3162 H   0  0  0  0  0  0  0  0  0  0  0  0
  149.0038  141.5731  157.8716 H   0  0  0  0  0  0  0  0  0  0  0  0
  149.7043  140.4279  156.7547 H   0  0  0  0  0  0  0  0  0  0  0  0
  151.3007  141.8664  156.0272 H   0  0  0  0  0  0  0  0  0  0  0  0
  150.1796  143.1718  155.8287 H   0  0  0  0  0  0  0  0  0  0  0  0
  151.1548  145.2892  157.3441 H   0  0  0  0  0  0  0  0  0  0  0  0
  152.4487  142.3226  161.4397 H   0  0  0  0  0  0  0  0  0  0  0  0
  151.5830  143.8169  161.8505 H   0  0  0  0  0  0  0  0  0  0  0  0
  153.2688  143.8892  161.2886 H   0  0  0  0  0  0  0  0  0  0  0  0
  151.4382  141.4465  159.2559 H   0  0  0  0  0  0  0  0  0  0  0  0
  145.2515  140.5749  153.4202 H   0  0  0  0  0  0  0  0  0  0  0  0
  1  2  1  0  0  0  0
  1 21  1  0  0  0  0
  1 22  1  0  0  0  0
  1 23  1  0  0  0  0
  2  3  1  0  0  0  0
  2  4  1  0  0  0  0
  2 24  1  0  0  0  0
  3 25  1  0  0  0  0
  3 26  1  0  0  0  0
  3 27  1  0  0  0  0
  4  9  1  0  0  0  0
  4  5  1  0  0  0  0
  4 47  1  0  0  0  0
  5  6  1  0  0  0  0
  5 28  1  0  0  0  0
  5 29  1  0  0  0  0
  6  7  1  0  0  0  0
  6 30  1  0  0  0  0
  6 31  1  0  0  0  0
  7  8  1  0  0  0  0
  7 32  1  0  0  0  0
  7 33  1  0  0  0  0
  8  9  1  0  0  0  0
  8 34  1  0  0  0  0
  8 35  1  0  0  0  0
  9 10  1  0  0  0  0
  9 36  1  0  0  0  0
 10 11  2  0  0  0  0
 10 12  1  0  0  0  0
 12 13  1  0  0  0  0
 12 37  1  0  0  0  0
 13 14  1  0  0  0  0
 13 38  1  0  0  0  0
 13 39  1  0  0  0  0
 14 15  1  0  0  0  0
 14 40  1  0  0  0  0
 14 41  1  0  0  0  0
 15 20  2  0  0  0  0
 15 16  1  0  0  0  0
 16 17  2  0  0  0  0
 16 42  1  0  0  0  0
 17 18  1  0  0  0  0
 18 19  1  0  0  0  0
 18 20  1  0  0  0  0
 19 43  1  0  0  0  0
 19 44  1  0  0  0  0
 19 45  1  0  0  0  0
 20 46  1  0  0  0  0
M  CHG  1   4   1
M  END
> <s_m_source_file>
AV-unprocessed.smi

> <i_m_source_file_index>
657

> <i_lp_mmshare_version>
43012

> <i_f3d_flags>
0

> <s_epik_input>
W0NIM11bQ0hdKFtDSDNdKU4xW0NIMl1bQ0gyXVtDSDJdW0NIMl1bQ0BIXTFDKD1PKVtOSF1bQ0gyXVtDSDJdYzJbY0hdbm4oW0NIM10pW2NIXTI=

> <s_epik_cmdline>
J2VwaWtfcHl0aG9uJywgJy1waCcsICc3LjAnLCAnLXRuJywgJzgnLCAnLW1hJywgJzIwMCcsICctbWV0YWxfYmluZGluZycsICctaW1hZScsICc8aW5maWxlLm1hZT4nLCAnLW9tYWUnLCAnPG91dGZpbGUubWFlPic=

> <r_lp_tautomer_probability>
1

> <r_epik_Ionization_Penalty>
0.0244317

> <r_epik_Ionization_Penalty_Charging>
0.0240236

> <r_epik_Ionization_Penalty_Neutral>
0.00040815

> <r_epik_State_Penalty>
0.0194773

> <r_epik_Charging_Adjusted_Penalty>
0.0435009

> <i_epik_Tot_Q>
1

> <i_epik_Tot_abs_Q>
1

> <r_epik_Metal_State_Penalty>
0.0361957

> <b_epik_Metal_Only>
0

> <s_lp_Force_Field>
OPLS_2005

> <r_lp_Energy>
18.2294

> <b_lp_Chiralities_Consistent>
1

> <s_lp_Variant>
AV-unprocessed.smi:657-2

> <Gold.Version>
5.8.1

> <Gold.Id.Protein>
6NUR|6NUR_protein|mol2

> <Gold.PLP.Fitness>
49.6528

> <Gold.PLP.PLP>
-41.1899

> <Gold.PLP.part.hbond>
-3.4384

> <Gold.PLP.part.metal>
0.0000

> <Gold.PLP.part.buried>
-4.7735

> <Gold.PLP.part.nonpolar>
-34.5283

> <Gold.PLP.part.repulsive>
1.5139

> <Gold.PLP.ligand.clash>
0.0000

> <Gold.PLP.ligand.torsion>
0.5210

> <Gold.PLP.Chemscore.Hbond>
3.0929

> <Gold.PLP.Chemscore.CHOScore>
0.0000

> <Gold.PLP.Chemscore.Metal>
0.0000

> <Gold.Chemscore.Hbonds>
donor molecule, donor type, donor heavy atom, donor atom, acceptor molecule, acceptor atom, score
      L1  H     4    47       P1 10175  2.00
      P1  H  7989  7998       L1    11  0.10
      P1  H  8011  8017       L1    11  0.70
      L1  C    16    42       P1  8028  0.15

> <Gold.PLP.Chemscore.Internal.Correction>
0.2261

> <Gold.Rescore>
     Score         DG    S(hbond)    S(metal)    S(lipo)     H(rot)  DE(clash)    DE(int)     intcor
     14.52     -18.55       1.90        0.00      93.01       1.63       0.56       3.47       ----

> <Gold.Chemscore.Fitness>
14.5223

> <Gold.Chemscore.DG>
-18.5522

> <Gold.Chemscore.ZeroCoef>
-5.4800

> <Gold.Chemscore.Hbond>
1.9033

> <Gold.Chemscore.Metal>
0.0000

> <Gold.Chemscore.Lipo>
93.0132

> <Gold.Chemscore.Internal_Hbond>
0.0000

> <Gold.Chemscore.DEClash>
0.5594

> <Gold.Chemscore.DEInternal>
3.4704

> <Gold.Chemscore.Rot>
1.6279

> <Gold.Chemscore.Internal.Correction>
   9.000000E+99

> <Gold.Chemscore.Hbonds>
donor molecule, donor type, donor heavy atom, donor atom, acceptor molecule, acceptor atom, score
      L1  H     4    47       P1 10175  0.96
      P1  H  7989  7998       L1    11  0.10
      P1  H  8011  8017       L1    11  0.64

> <Gold.Chemscore.Hbond.Weighted>
-6.3569

> <Gold.Chemscore.Metal.Weighted>
-0.0000

> <Gold.Chemscore.Lipo.Weighted>
-10.8825

> <Gold.Chemscore.Internal_Hbond.Weighted>
0.0000

> <Gold.Chemscore.DEClash.Weighted>
0.5594

> <Gold.Chemscore.DEInternal.Weighted>
3.4704

> <Gold.Chemscore.Rot.Weighted>
4.1673

> <Gold.Chemscore.Internal.Correction.Weighted>
   9.000000E+99

> <Gold.Protein.RotatedTorsions>
[ 6907 6896 6895 6894 ] final -120.96 input  -60.11 | X-H torsion
[ 7974 7965 7964 7962 ] final -163.35 input  175.53 | X-H torsion
[ 8008 7997 7996 7995 ] final -100.37 input   59.86 | X-H torsion
[ 10167 10162 10161 10158 ] final    5.64 input  -65.29 | X-H torsion
[ 10718 10713 10712 10709 ] final  -64.03 input   66.30 | X-H torsion
[ 10763 10752 10751 10750 ] final    2.77 input  -60.55 | X-H torsion
[ 11005 11000 10999 10996 ] final  -34.83 input  -57.11 | X-H torsion

> <Gold.Protein.ActiveResidues>
 VAL166  LYS551  ARG553  GLY616  TRP617  ASP618  TYR619  PRO620  LYS621  CYS622 
 ASP623  PHE694  ASN695  SER759  ASP760  ASP761  ALA762  ILE779  LEU786  VAL792 
 PHE793  MET794  SER795  GLU796  ALA797  LYS798  CYS799  TRP800  GLU811  SER814 

> <Gold.Protein.RotatedAtoms>
  150.8440  133.7890  159.3049 H   0  0  0  0  0  0  0  0  0  0  0  0  # atno 6907 bound_to 6896
  151.5583  135.1064  159.9976 H   0  0  0  0  0  0  0  0  0  0  0  0  # atno 6908 bound_to 6896
  152.4498  133.7564  159.6779 H   0  0  0  0  0  0  0  0  0  0  0  0  # atno 6909 bound_to 6896
  144.7329  140.3120  143.6186 H   0  0  0  0  0  0  0  0  0  0  0  0  # atno 7974 bound_to 7965
  154.8277  140.0441  157.1455 H   0  0  0  0  0  0  0  0  0  0  0  0  # atno 8008 bound_to 7997
  154.9188  140.3024  155.5207 H   0  0  0  0  0  0  0  0  0  0  0  0  # atno 8009 bound_to 7997
  156.2985  140.2344  156.4236 H   0  0  0  0  0  0  0  0  0  0  0  0  # atno 8010 bound_to 7997
  140.6471  143.7636  150.7516 H   0  0  0  0  0  0  0  0  0  0  0  0  # atno 10167 bound_to 10162
  156.0754  130.4228  150.1362 H   0  0  0  0  0  0  0  0  0  0  0  0  # atno 10718 bound_to 10713
  153.2915  135.6949  153.7289 H   0  0  0  0  0  0  0  0  0  0  0  0  # atno 10763 bound_to 10752
  153.6238  135.3422  155.3020 H   0  0  0  0  0  0  0  0  0  0  0  0  # atno 10764 bound_to 10752
  154.8525  135.4392  154.1999 H   0  0  0  0  0  0  0  0  0  0  0  0  # atno 10765 bound_to 10752
  140.9748  133.7089  156.1583 H   0  0  0  0  0  0  0  0  0  0  0  0  # atno 11005 bound_to 11000
  145.7656  139.1839  143.2242 LP  0  0  0  0  0  0  0  0  0  0  0  0  # atno 17320 bound_to 7965
  146.0952  140.7609  142.9576 LP  0  0  0  0  0  0  0  0  0  0  0  0  # atno 17321 bound_to 7965
  140.1279  143.4553  152.2273 LP  0  0  0  0  0  0  0  0  0  0  0  0  # atno 17342 bound_to 10162
  139.5682  144.7448  151.3963 LP  0  0  0  0  0  0  0  0  0  0  0  0  # atno 17343 bound_to 10162
  156.9404  130.9743  151.3517 LP  0  0  0  0  0  0  0  0  0  0  0  0  # atno 17370 bound_to 10713
  157.5846  130.8401  149.8572 LP  0  0  0  0  0  0  0  0  0  0  0  0  # atno 17371 bound_to 10713
  140.7276  134.4290  157.5569 LP  0  0  0  0  0  0  0  0  0  0  0  0  # atno 17394 bound_to 11000
  139.8926  134.8751  156.2263 LP  0  0  0  0  0  0  0  0  0  0  0  0  # atno 17395 bound_to 11000

$$$$
