AV-unprocessed.smi:3046|AV-procd|sdf|11619|dock9
  -GOLD-   2272017 03D 1   1.00000     0.00000
 Structure written by MMmdl.
 37 37  0  0  0  0  0  0  0  0  1 V2000
  147.5284  141.5369  153.7046 C   0  0  0  0  0  0  0  0  0  0  0  0
  148.7039  141.1017  154.1819 C   0  0  0  0  0  0  0  0  0  0  0  0
  148.8884  139.8220  154.9739 C   0  0  0  0  0  0  0  0  0  0  0  0
  149.7171  140.0432  156.1519 N   0  0  0  0  0  0  0  0  0  0  0  0
  151.0123  140.3946  156.1323 C   0  0  0  0  0  0  0  0  0  0  0  0
  151.6437  140.5898  155.0931 O   0  0  0  0  0  0  0  0  0  0  0  0
  151.7131  140.5093  157.4959 C   0  0  2  0  0  0  0  0  0  0  0  0
  151.8791  139.1242  158.1407 C   0  0  0  0  0  0  0  0  0  0  0  0
  151.0154  141.4114  158.4294 N   0  0  0  0  0  0  0  0  0  0  0  0
  151.2423  142.8403  158.2123 C   0  0  1  0  0  0  0  0  0  0  0  0
  150.0859  143.6268  158.8486 C   0  0  0  0  0  0  0  0  0  0  0  0
  152.5983  143.2322  158.8316 C   0  0  0  0  0  0  0  0  0  0  0  0
  152.5892  143.1328  160.2813 N   0  0  0  0  0  0  0  0  0  0  0  0
  153.2750  142.2429  161.0808 C   0  0  0  0  0  0  0  0  0  0  0  0
  152.9455  142.5225  162.3759 C   0  0  0  0  0  0  0  0  0  0  0  0
  152.0424  143.6165  162.2657 C   0  0  0  0  0  0  0  0  0  0  0  0
  151.8326  143.9808  161.0113 N   0  0  0  0  0  0  0  0  0  0  0  0
  146.6169  140.9782  153.8602 H   0  0  0  0  0  0  0  0  0  0  0  0
  147.4638  142.4612  153.1498 H   0  0  0  0  0  0  0  0  0  0  0  0
  149.5927  141.6912  154.0083 H   0  0  0  0  0  0  0  0  0  0  0  0
  147.9110  139.4328  155.2633 H   0  0  0  0  0  0  0  0  0  0  0  0
  149.3601  139.0610  154.3512 H   0  0  0  0  0  0  0  0  0  0  0  0
  149.2806  139.8976  157.0507 H   0  0  0  0  0  0  0  0  0  0  0  0
  152.7148  140.9119  157.3330 H   0  0  0  0  0  0  0  0  0  0  0  0
  152.4077  138.4390  157.4769 H   0  0  0  0  0  0  0  0  0  0  0  0
  150.9159  138.6743  158.3855 H   0  0  0  0  0  0  0  0  0  0  0  0
  152.4556  139.1917  159.0640 H   0  0  0  0  0  0  0  0  0  0  0  0
  150.0263  141.2143  158.4824 H   0  0  0  0  0  0  0  0  0  0  0  0
  151.2817  143.0770  157.1481 H   0  0  0  0  0  0  0  0  0  0  0  0
  150.2233  144.6996  158.7109 H   0  0  0  0  0  0  0  0  0  0  0  0
  150.0173  143.4372  159.9205 H   0  0  0  0  0  0  0  0  0  0  0  0
  149.1273  143.3625  158.4015 H   0  0  0  0  0  0  0  0  0  0  0  0
  153.3816  142.5699  158.4611 H   0  0  0  0  0  0  0  0  0  0  0  0
  152.8840  144.2444  158.5388 H   0  0  0  0  0  0  0  0  0  0  0  0
  153.9291  141.4908  160.6652 H   0  0  0  0  0  0  0  0  0  0  0  0
  153.2958  142.0221  163.2663 H   0  0  0  0  0  0  0  0  0  0  0  0
  151.5366  144.1533  163.0547 H   0  0  0  0  0  0  0  0  0  0  0  0
  1  2  2  0  0  0  0
  1 18  1  0  0  0  0
  1 19  1  0  0  0  0
  2  3  1  0  0  0  0
  2 20  1  0  0  0  0
  3  4  1  0  0  0  0
  3 21  1  0  0  0  0
  3 22  1  0  0  0  0
  4  5  1  0  0  0  0
  4 23  1  0  0  0  0
  5  6  2  0  0  0  0
  5  7  1  0  0  0  0
  7  8  1  0  0  0  0
  7  9  1  0  0  0  0
  7 24  1  0  0  0  0
  8 25  1  0  0  0  0
  8 26  1  0  0  0  0
  8 27  1  0  0  0  0
  9 10  1  0  0  0  0
  9 28  1  0  0  0  0
 10 11  1  0  0  0  0
 10 12  1  0  0  0  0
 10 29  1  0  0  0  0
 11 30  1  0  0  0  0
 11 31  1  0  0  0  0
 11 32  1  0  0  0  0
 12 13  1  0  0  0  0
 12 33  1  0  0  0  0
 12 34  1  0  0  0  0
 13 17  1  0  0  0  0
 13 14  1  0  0  0  0
 14 15  2  0  0  0  0
 14 35  1  0  0  0  0
 15 16  1  0  0  0  0
 15 36  1  0  0  0  0
 16 17  2  0  0  0  0
 16 37  1  0  0  0  0
M  END
> <s_m_source_file>
AV-unprocessed.smi

> <i_m_source_file_index>
3046

> <i_lp_mmshare_version>
43012

> <i_f3d_flags>
0

> <s_epik_input>
W0NIMl09W0NIXVtDSDJdW05IXUMoPU8pW0NASF0oW0NIM10pW05IXVtDQEhdKFtDSDNdKVtDSDJdbjFbY0hdW2NIXVtjSF1uMQ==

> <s_epik_cmdline>
J2VwaWtfcHl0aG9uJywgJy1waCcsICc3LjAnLCAnLXRuJywgJzgnLCAnLW1hJywgJzIwMCcsICctbWV0YWxfYmluZGluZycsICctaW1hZScsICc8aW5maWxlLm1hZT4nLCAnLW9tYWUnLCAnPG91dGZpbGUubWFlPic=

> <r_lp_tautomer_probability>
1

> <r_epik_Ionization_Penalty>
0.950627

> <r_epik_Ionization_Penalty_Charging>
0

> <r_epik_Ionization_Penalty_Neutral>
0.950627

> <r_epik_State_Penalty>
0.994814

> <r_epik_Charging_Adjusted_Penalty>
0.994814

> <i_epik_Tot_Q>
0

> <i_epik_Tot_abs_Q>
0

> <r_epik_Metal_State_Penalty>
0.994788

> <b_epik_Metal_Only>
0

> <s_lp_Force_Field>
OPLS_2005

> <r_lp_Energy>
6.36017

> <b_lp_Chiralities_Consistent>
1

> <s_lp_Variant>
AV-unprocessed.smi:3046-7

> <Gold.Version>
5.8.1

> <Gold.Id.Protein>
6NUR|6NUR_protein|mol2

> <Gold.PLP.Fitness>
40.2585

> <Gold.PLP.PLP>
-38.9140

> <Gold.PLP.part.hbond>
-1.0000

> <Gold.PLP.part.metal>
0.0000

> <Gold.PLP.part.buried>
-4.9017

> <Gold.PLP.part.nonpolar>
-32.9048

> <Gold.PLP.part.repulsive>
0.1714

> <Gold.PLP.ligand.clash>
0.0000

> <Gold.PLP.ligand.torsion>
0.7344

> <Gold.PLP.Chemscore.Hbond>
0.8960

> <Gold.PLP.Chemscore.CHOScore>
0.0000

> <Gold.PLP.Chemscore.Metal>
0.0000

> <Gold.Chemscore.Hbonds>
donor molecule, donor type, donor heavy atom, donor atom, acceptor molecule, acceptor atom, score
      P1  H  7989  7998       L1     6  0.77

> <Gold.PLP.Chemscore.Internal.Correction>
0.1253

> <Gold.Rescore>
     Score         DG    S(hbond)    S(metal)    S(lipo)     H(rot)  DE(clash)    DE(int)     intcor
     12.09     -14.10       0.88        0.00      96.13       2.17       0.02       1.99       ----

> <Gold.Chemscore.Fitness>
12.0939

> <Gold.Chemscore.DG>
-14.1031

> <Gold.Chemscore.ZeroCoef>
-5.4800

> <Gold.Chemscore.Hbond>
0.8804

> <Gold.Chemscore.Metal>
0.0000

> <Gold.Chemscore.Lipo>
96.1329

> <Gold.Chemscore.Internal_Hbond>
0.0000

> <Gold.Chemscore.DEClash>
0.0185

> <Gold.Chemscore.DEInternal>
1.9907

> <Gold.Chemscore.Rot>
2.1739

> <Gold.Chemscore.Internal.Correction>
   9.000000E+99

> <Gold.Chemscore.Hbonds>
donor molecule, donor type, donor heavy atom, donor atom, acceptor molecule, acceptor atom, score
      P1  H  7989  7998       L1     6  0.77

> <Gold.Chemscore.Hbond.Weighted>
-2.9407

> <Gold.Chemscore.Metal.Weighted>
-0.0000

> <Gold.Chemscore.Lipo.Weighted>
-11.2476

> <Gold.Chemscore.Internal_Hbond.Weighted>
0.0000

> <Gold.Chemscore.DEClash.Weighted>
0.0185

> <Gold.Chemscore.DEInternal.Weighted>
1.9907

> <Gold.Chemscore.Rot.Weighted>
5.5652

> <Gold.Chemscore.Internal.Correction.Weighted>
   9.000000E+99

> <Gold.Protein.RotatedTorsions>
[ 6907 6896 6895 6894 ] final -137.32 input  -60.11 | X-H torsion
[ 7974 7965 7964 7962 ] final   54.11 input  175.53 | X-H torsion
[ 8008 7997 7996 7995 ] final  -17.39 input   59.86 | X-H torsion
[ 10167 10162 10161 10158 ] final  156.88 input  -65.29 | X-H torsion
[ 10718 10713 10712 10709 ] final   18.54 input   66.30 | X-H torsion
[ 10763 10752 10751 10750 ] final   24.42 input  -60.55 | X-H torsion
[ 11005 11000 10999 10996 ] final  112.68 input  -57.11 | X-H torsion

> <Gold.Protein.ActiveResidues>
 VAL166  LYS551  ARG553  GLY616  TRP617  ASP618  TYR619  PRO620  LYS621  CYS622 
 ASP623  PHE694  ASN695  SER759  ASP760  ASP761  ALA762  ILE779  LEU786  VAL792 
 PHE793  MET794  SER795  GLU796  ALA797  LYS798  CYS799  TRP800  GLU811  SER814 

> <Gold.Protein.RotatedAtoms>
  151.0210  133.5877  159.2671 H   0  0  0  0  0  0  0  0  0  0  0  0  # atno 6907 bound_to 6896
  151.2993  135.0763  159.9242 H   0  0  0  0  0  0  0  0  0  0  0  0  # atno 6908 bound_to 6896
  152.5323  133.9894  159.7898 H   0  0  0  0  0  0  0  0  0  0  0  0  # atno 6909 bound_to 6896
  145.9642  139.4088  143.0229 H   0  0  0  0  0  0  0  0  0  0  0  0  # atno 7974 bound_to 7965
  154.4982  140.2144  155.9402 H   0  0  0  0  0  0  0  0  0  0  0  0  # atno 8008 bound_to 7997
  156.1399  140.3181  155.8446 H   0  0  0  0  0  0  0  0  0  0  0  0  # atno 8009 bound_to 7997
  155.4140  140.0492  157.3020 H   0  0  0  0  0  0  0  0  0  0  0  0  # atno 8010 bound_to 7997
  139.4822  144.4968  151.8227 H   0  0  0  0  0  0  0  0  0  0  0  0  # atno 10167 bound_to 10162
  157.0978  130.6455  149.5865 H   0  0  0  0  0  0  0  0  0  0  0  0  # atno 10718 bound_to 10713
  153.0765  135.6605  154.0135 H   0  0  0  0  0  0  0  0  0  0  0  0  # atno 10763 bound_to 10752
  153.9768  135.2959  155.3424 H   0  0  0  0  0  0  0  0  0  0  0  0  # atno 10764 bound_to 10752
  154.7154  135.5187  153.8801 H   0  0  0  0  0  0  0  0  0  0  0  0  # atno 10765 bound_to 10752
  139.8933  134.9535  156.6623 H   0  0  0  0  0  0  0  0  0  0  0  0  # atno 11005 bound_to 11000
  145.7997  140.9776  143.1005 LP  0  0  0  0  0  0  0  0  0  0  0  0  # atno 17320 bound_to 7965
  144.6822  139.9786  143.7483 LP  0  0  0  0  0  0  0  0  0  0  0  0  # atno 17321 bound_to 7965
  140.4458  144.1924  150.5894 LP  0  0  0  0  0  0  0  0  0  0  0  0  # atno 17342 bound_to 10162
  140.4636  143.2439  151.9185 LP  0  0  0  0  0  0  0  0  0  0  0  0  # atno 17343 bound_to 10162
  155.9881  130.4923  150.7156 LP  0  0  0  0  0  0  0  0  0  0  0  0  # atno 17370 bound_to 10713
  157.4667  131.0889  151.0687 LP  0  0  0  0  0  0  0  0  0  0  0  0  # atno 17371 bound_to 10713
  140.7437  133.8955  155.8297 LP  0  0  0  0  0  0  0  0  0  0  0  0  # atno 17394 bound_to 11000
  141.0056  134.1090  157.4273 LP  0  0  0  0  0  0  0  0  0  0  0  0  # atno 17395 bound_to 11000

$$$$
