AV-unprocessed.smi:88|AV-procd|sdf|824|dock10
  -GOLD-   2262017233D 1   1.00000     0.00000
 Structure written by MMmdl.
 56 60  0  0  0  0  0  0  0  0  1 V2000
  147.7573  131.8111  156.6134 C   0  0  0  0  0  0  0  0  0  0  0  0
  148.0471  132.1426  155.2165 N   0  0  0  0  0  0  0  0  0  0  0  0
  147.7381  131.3603  154.1695 C   0  0  0  0  0  0  0  0  0  0  0  0
  147.1857  130.2624  154.2115 O   0  0  0  0  0  0  0  0  0  0  0  0
  148.1298  131.9742  153.0543 N   0  0  0  0  0  0  0  0  0  0  0  0
  148.7462  133.2590  153.2894 C   0  0  0  0  0  0  0  0  0  0  0  0
  148.7044  133.3972  154.8267 C   0  0  0  0  0  0  0  0  0  0  0  0
  147.8804  134.6323  155.2697 C   0  0  0  0  0  0  0  0  0  0  0  0
  148.5969  135.9503  154.9250 C   0  0  0  0  0  0  0  0  0  0  0  0
  149.9473  135.9660  155.4802 N   0  0  0  0  0  0  0  0  0  0  0  0
  150.5584  137.1641  155.3726 C   0  0  0  0  0  0  0  0  0  0  0  0
  151.7696  137.1896  154.7654 N   0  0  0  0  0  0  0  0  0  0  0  0
  152.4228  138.3477  154.6288 C   0  0  0  0  0  0  0  0  0  0  0  0
  152.0497  139.5691  155.0192 N   0  0  0  0  0  0  0  0  0  0  0  0
  150.8305  139.5436  155.6314 C   0  0  0  0  0  0  0  0  0  0  0  0
  150.0215  138.3933  155.8489 C   0  0  0  0  0  0  0  0  0  0  0  0
  148.8487  138.7540  156.5015 N   0  0  0  0  0  0  0  0  0  0  0  0
  148.9591  140.0447  156.6620 C   0  0  0  0  0  0  0  0  0  0  0  0
  150.1200  140.6004  156.1732 N   0  0  0  0  0  0  0  0  0  0  0  0
  150.5003  142.0040  156.2182 C   0  0  0  0  0  0  0  0  0  0  0  0
  151.0189  142.4683  157.6015 C   0  0  0  0  0  0  0  0  0  0  0  0
  149.9053  142.5353  158.4760 O   0  0  0  0  0  0  0  0  0  0  0  0
  152.0579  141.4975  158.2049 C   0  0  0  0  0  0  0  0  0  0  0  0
  152.7172  142.0685  159.4731 C   0  0  0  0  0  0  0  0  0  0  0  0
  153.2869  143.3430  159.2001 O   0  0  0  0  0  0  0  0  0  0  0  0
  152.3167  144.3078  158.8117 C   0  0  0  0  0  0  0  0  0  0  0  0
  151.6421  143.8747  157.4981 C   0  0  0  0  0  0  0  0  0  0  0  0
  150.7955  134.8468  155.0806 C   0  0  0  0  0  0  0  0  0  0  0  0
  150.1278  133.5045  155.4297 C   0  0  0  0  0  0  0  0  0  0  0  0
  147.3047  130.8243  156.7176 H   0  0  0  0  0  0  0  0  0  0  0  0
  147.0624  132.5299  157.0463 H   0  0  0  0  0  0  0  0  0  0  0  0
  148.6665  131.8093  157.2128 H   0  0  0  0  0  0  0  0  0  0  0  0
  148.0093  131.5907  152.1281 H   0  0  0  0  0  0  0  0  0  0  0  0
  149.7595  133.2564  152.8868 H   0  0  0  0  0  0  0  0  0  0  0  0
  148.1778  134.0344  152.7749 H   0  0  0  0  0  0  0  0  0  0  0  0
  146.8894  134.6162  154.8145 H   0  0  0  0  0  0  0  0  0  0  0  0
  147.7217  134.6093  156.3481 H   0  0  0  0  0  0  0  0  0  0  0  0
  148.6402  136.0822  153.8437 H   0  0  0  0  0  0  0  0  0  0  0  0
  148.0283  136.7918  155.3233 H   0  0  0  0  0  0  0  0  0  0  0  0
  153.3818  138.2867  154.1360 H   0  0  0  0  0  0  0  0  0  0  0  0
  148.1937  140.6314  157.1490 H   0  0  0  0  0  0  0  0  0  0  0  0
  151.2645  142.1707  155.4580 H   0  0  0  0  0  0  0  0  0  0  0  0
  149.6385  142.6007  155.9156 H   0  0  0  0  0  0  0  0  0  0  0  0
  150.1634  143.0035  159.2555 H   0  0  0  0  0  0  0  0  0  0  0  0
  151.6044  140.5320  158.4325 H   0  0  0  0  0  0  0  0  0  0  0  0
  152.8374  141.3033  157.4671 H   0  0  0  0  0  0  0  0  0  0  0  0
  151.9976  142.1473  160.2895 H   0  0  0  0  0  0  0  0  0  0  0  0
  153.5068  141.3987  159.8139 H   0  0  0  0  0  0  0  0  0  0  0  0
  151.5819  144.4446  159.6066 H   0  0  0  0  0  0  0  0  0  0  0  0
  152.8138  145.2682  158.6751 H   0  0  0  0  0  0  0  0  0  0  0  0
  152.3954  143.8778  156.7091 H   0  0  0  0  0  0  0  0  0  0  0  0
  150.8896  144.6074  157.2036 H   0  0  0  0  0  0  0  0  0  0  0  0
  150.9963  134.9003  154.0103 H   0  0  0  0  0  0  0  0  0  0  0  0
  151.7593  134.9190  155.5864 H   0  0  0  0  0  0  0  0  0  0  0  0
  150.0823  133.4266  156.5159 H   0  0  0  0  0  0  0  0  0  0  0  0
  150.7520  132.6770  155.0902 H   0  0  0  0  0  0  0  0  0  0  0  0
  1  2  1  0  0  0  0
  1 30  1  0  0  0  0
  1 31  1  0  0  0  0
  1 32  1  0  0  0  0
  2  7  1  0  0  0  0
  2  3  1  0  0  0  0
  3  4  2  0  0  0  0
  3  5  1  0  0  0  0
  5  6  1  0  0  0  0
  5 33  1  0  0  0  0
  6  7  1  0  0  0  0
  6 34  1  0  0  0  0
  6 35  1  0  0  0  0
  7 29  1  0  0  0  0
  7  8  1  0  0  0  0
  8  9  1  0  0  0  0
  8 36  1  0  0  0  0
  8 37  1  0  0  0  0
  9 10  1  0  0  0  0
  9 38  1  0  0  0  0
  9 39  1  0  0  0  0
 10 11  1  0  0  0  0
 10 28  1  0  0  0  0
 11 16  1  0  0  0  0
 11 12  2  0  0  0  0
 12 13  1  0  0  0  0
 13 14  2  0  0  0  0
 13 40  1  0  0  0  0
 14 15  1  0  0  0  0
 15 19  1  0  0  0  0
 15 16  2  0  0  0  0
 16 17  1  0  0  0  0
 17 18  2  0  0  0  0
 18 19  1  0  0  0  0
 18 41  1  0  0  0  0
 19 20  1  0  0  0  0
 20 21  1  0  0  0  0
 20 42  1  0  0  0  0
 20 43  1  0  0  0  0
 21 27  1  0  0  0  0
 21 22  1  0  0  0  0
 21 23  1  0  0  0  0
 22 44  1  0  0  0  0
 23 24  1  0  0  0  0
 23 45  1  0  0  0  0
 23 46  1  0  0  0  0
 24 25  1  0  0  0  0
 24 47  1  0  0  0  0
 24 48  1  0  0  0  0
 25 26  1  0  0  0  0
 26 27  1  0  0  0  0
 26 49  1  0  0  0  0
 26 50  1  0  0  0  0
 27 51  1  0  0  0  0
 27 52  1  0  0  0  0
 28 29  1  0  0  0  0
 28 53  1  0  0  0  0
 28 54  1  0  0  0  0
 29 55  1  0  0  0  0
 29 56  1  0  0  0  0
M  END
> <s_m_source_file>
AV-unprocessed.smi

> <i_m_source_file_index>
88

> <i_lp_mmshare_version>
43012

> <i_f3d_flags>
0

> <s_epik_input>
W0NIMl0xW05IXUMoPU8pTihbQ0gzXSlDMTJbQ0gyXVtDSDJdTihbQ0gyXVtDSDJdMiljKG5bY0hdbjMpYyhjMzQpbltjSF1uNFtDSDJdQzUoW09IXSlbQ0gyXVtDSDJdT1tDSDJdW0NIMl01

> <s_epik_cmdline>
J2VwaWtfcHl0aG9uJywgJy1waCcsICc3LjAnLCAnLXRuJywgJzgnLCAnLW1hJywgJzIwMCcsICctbWV0YWxfYmluZGluZycsICctaW1hZScsICc8aW5maWxlLm1hZT4nLCAnLW9tYWUnLCAnPG91dGZpbGUubWFlPic=

> <r_lp_tautomer_probability>
1

> <r_epik_Ionization_Penalty>
0.00363326

> <r_epik_Ionization_Penalty_Charging>
0

> <r_epik_Ionization_Penalty_Neutral>
0.00363326

> <r_epik_State_Penalty>
0.00246926

> <r_epik_Charging_Adjusted_Penalty>
0.00246926

> <i_epik_Tot_Q>
0

> <i_epik_Tot_abs_Q>
0

> <r_epik_Metal_State_Penalty>
-0

> <b_epik_Metal_Only>
0

> <s_lp_Force_Field>
OPLS_2005

> <r_lp_Energy>
63.3868

> <b_lp_Chiralities_Consistent>
1

> <s_lp_Variant>
AV-unprocessed.smi:88-1

> <Gold.Version>
5.8.1

> <Gold.Id.Protein>
6NUR|6NUR_protein|mol2

> <Gold.PLP.Fitness>
49.1449

> <Gold.PLP.PLP>
-41.2715

> <Gold.PLP.part.hbond>
-3.0000

> <Gold.PLP.part.metal>
0.0000

> <Gold.PLP.part.buried>
-3.9264

> <Gold.PLP.part.nonpolar>
-34.6922

> <Gold.PLP.part.repulsive>
0.3590

> <Gold.PLP.ligand.clash>
0.0000

> <Gold.PLP.ligand.torsion>
0.4400

> <Gold.PLP.Chemscore.Hbond>
2.8552

> <Gold.PLP.Chemscore.CHOScore>
0.0000

> <Gold.PLP.Chemscore.Metal>
0.0000

> <Gold.Chemscore.Hbonds>
donor molecule, donor type, donor heavy atom, donor atom, acceptor molecule, acceptor atom, score
      L1  H     5    33       P1 10747  0.51
      P1  H  7989  7998       L1    14  0.90
      P1  H 10752 10763       L1    12  1.00

> <Gold.PLP.Chemscore.Internal.Correction>
0.1877

> <Gold.Rescore>
     Score         DG    S(hbond)    S(metal)    S(lipo)     H(rot)  DE(clash)    DE(int)     intcor
     16.49     -17.98       2.32        0.00      88.50       2.18       1.01       0.49       ----

> <Gold.Chemscore.Fitness>
16.4887

> <Gold.Chemscore.DG>
-17.9814

> <Gold.Chemscore.ZeroCoef>
-5.4800

> <Gold.Chemscore.Hbond>
2.3166

> <Gold.Chemscore.Metal>
0.0000

> <Gold.Chemscore.Lipo>
88.4992

> <Gold.Chemscore.Internal_Hbond>
0.0000

> <Gold.Chemscore.DEClash>
1.0061

> <Gold.Chemscore.DEInternal>
0.4867

> <Gold.Chemscore.Rot>
2.1838

> <Gold.Chemscore.Internal.Correction>
   9.000000E+99

> <Gold.Chemscore.Hbonds>
donor molecule, donor type, donor heavy atom, donor atom, acceptor molecule, acceptor atom, score
      L1  H     5    33       P1 10747  0.50
      P1  H  7989  7998       L1    14  0.22
      P1  H 10752 10763       L1    12  0.72

> <Gold.Chemscore.Hbond.Weighted>
-7.7374

> <Gold.Chemscore.Metal.Weighted>
-0.0000

> <Gold.Chemscore.Lipo.Weighted>
-10.3544

> <Gold.Chemscore.Internal_Hbond.Weighted>
0.0000

> <Gold.Chemscore.DEClash.Weighted>
1.0061

> <Gold.Chemscore.DEInternal.Weighted>
0.4867

> <Gold.Chemscore.Rot.Weighted>
5.5905

> <Gold.Chemscore.Internal.Correction.Weighted>
   9.000000E+99

> <Gold.Protein.RotatedTorsions>
[ 6907 6896 6895 6894 ] final -135.39 input  -60.11 | X-H torsion
[ 7974 7965 7964 7962 ] final   44.02 input  175.53 | X-H torsion
[ 8008 7997 7996 7995 ] final   59.44 input   59.86 | X-H torsion
[ 10167 10162 10161 10158 ] final   62.19 input  -65.29 | X-H torsion
[ 10718 10713 10712 10709 ] final   11.24 input   66.30 | X-H torsion
[ 10763 10752 10751 10750 ] final   44.07 input  -60.55 | X-H torsion
[ 11005 11000 10999 10996 ] final -112.29 input  -57.11 | X-H torsion

> <Gold.Protein.ActiveResidues>
 VAL166  LYS551  ARG553  GLY616  TRP617  ASP618  TYR619  PRO620  LYS621  CYS622 
 ASP623  PHE694  ASN695  SER759  ASP760  ASP761  ALA762  ILE779  LEU786  VAL792 
 PHE793  MET794  SER795  GLU796  ALA797  LYS798  CYS799  TRP800  GLU811  SER814 

> <Gold.Protein.RotatedAtoms>
  150.9973  133.6090  159.2699 H   0  0  0  0  0  0  0  0  0  0  0  0  # atno 6907 bound_to 6896
  151.3289  135.0836  159.9341 H   0  0  0  0  0  0  0  0  0  0  0  0  # atno 6908 bound_to 6896
  152.5263  133.9606  159.7770 H   0  0  0  0  0  0  0  0  0  0  0  0  # atno 6909 bound_to 6896
  146.0605  139.5122  142.9661 H   0  0  0  0  0  0  0  0  0  0  0  0  # atno 7974 bound_to 7965
  155.5662  140.3489  155.4504 H   0  0  0  0  0  0  0  0  0  0  0  0  # atno 8008 bound_to 7997
  156.0478  140.1310  157.0110 H   0  0  0  0  0  0  0  0  0  0  0  0  # atno 8009 bound_to 7997
  154.4420  140.1011  156.6316 H   0  0  0  0  0  0  0  0  0  0  0  0  # atno 8010 bound_to 7997
  140.1466  144.4503  150.6782 H   0  0  0  0  0  0  0  0  0  0  0  0  # atno 10167 bound_to 10162
  156.9926  130.6048  149.5687 H   0  0  0  0  0  0  0  0  0  0  0  0  # atno 10718 bound_to 10713
  152.9848  135.6082  154.3213 H   0  0  0  0  0  0  0  0  0  0  0  0  # atno 10763 bound_to 10752
  154.2923  135.2774  155.2651 H   0  0  0  0  0  0  0  0  0  0  0  0  # atno 10764 bound_to 10752
  154.4941  135.5884  153.6537 H   0  0  0  0  0  0  0  0  0  0  0  0  # atno 10765 bound_to 10752
  141.0684  133.9420  157.2533 H   0  0  0  0  0  0  0  0  0  0  0  0  # atno 11005 bound_to 11000
  145.6568  141.0250  143.1730 LP  0  0  0  0  0  0  0  0  0  0  0  0  # atno 17320 bound_to 7965
  144.7172  139.8154  143.7394 LP  0  0  0  0  0  0  0  0  0  0  0  0  # atno 17321 bound_to 7965
  140.6728  143.2293  151.5582 LP  0  0  0  0  0  0  0  0  0  0  0  0  # atno 17342 bound_to 10162
  139.5446  144.2555  152.1418 LP  0  0  0  0  0  0  0  0  0  0  0  0  # atno 17343 bound_to 10162
  156.0201  130.5296  150.8251 LP  0  0  0  0  0  0  0  0  0  0  0  0  # atno 17370 bound_to 10713
  157.5447  131.0942  150.9778 LP  0  0  0  0  0  0  0  0  0  0  0  0  # atno 17371 bound_to 10713
  139.9499  135.0177  156.8963 LP  0  0  0  0  0  0  0  0  0  0  0  0  # atno 17394 bound_to 11000
  140.5725  134.0430  155.7435 LP  0  0  0  0  0  0  0  0  0  0  0  0  # atno 17395 bound_to 11000

$$$$
