AV-unprocessed.smi:2855|AV-procd|sdf|10985|dock3
  -GOLD-   2272015443D 1   1.00000     0.00000
 Structure written by MMmdl.
 46 47  0  0  0  0  0  0  0  0  2 V2000
  149.4297  140.1076  154.6425 C   0  0  0  0  0  0  0  0  0  0  0  0
  149.9755  140.4292  156.0409 C   0  0  2  0  0  0  0  0  0  0  0  0
  149.4066  141.7512  156.5794 C   0  0  0  0  0  0  0  0  0  0  0  0
  149.9512  142.0761  157.9792 C   0  0  0  0  0  0  0  0  0  0  0  0
  151.4996  142.1366  158.0137 C   0  0  1  0  0  0  0  0  0  0  0  0
  152.0508  142.5055  159.4266 C   0  0  0  0  0  0  0  0  0  0  0  0
  151.6976  143.9473  159.8395 C   0  0  0  0  0  0  0  0  0  0  0  0
  153.5763  142.3164  159.5413 C   0  0  0  0  0  0  0  0  0  0  0  0
  152.0911  140.8192  157.4359 C   0  0  1  0  0  0  0  0  0  0  0  0
  151.8991  139.7066  158.3657 N   0  0  0  0  0  0  0  0  0  0  0  0
  152.8069  138.7633  158.6537 C   0  0  0  0  0  0  0  0  0  0  0  0
  153.9091  138.6935  158.1088 O   0  0  0  0  0  0  0  0  0  0  0  0
  152.3924  137.7293  159.7071 C   0  0  0  0  0  0  0  0  0  0  0  0
  153.4430  137.5062  160.7123 N   0  0  0  0  0  0  0  0  0  0  0  0
  153.7912  138.5826  161.5471 C   0  0  0  0  0  0  0  0  0  0  0  0
  154.7347  138.4652  162.5006 C   0  0  0  0  0  0  0  0  0  0  0  0
  155.4027  137.1790  162.6562 C   0  0  0  0  0  0  0  0  0  0  0  0
  156.2704  137.0549  163.5184 O   0  0  0  0  0  0  0  0  0  0  0  0
  155.0264  136.1636  161.8248 N   0  5  0  0  0  0  0  0  0  0  0  0
  154.0634  136.2965  160.8608 C   0  0  0  0  0  0  0  0  0  0  0  0
  153.7365  135.3660  160.1226 O   0  0  0  0  0  0  0  0  0  0  0  0
  151.5133  140.4823  156.0453 C   0  0  0  0  0  0  0  0  0  0  0  0
  149.7188  140.8701  153.9186 H   0  0  0  0  0  0  0  0  0  0  0  0
  148.3410  140.0499  154.6494 H   0  0  0  0  0  0  0  0  0  0  0  0
  149.8074  139.1492  154.2854 H   0  0  0  0  0  0  0  0  0  0  0  0
  149.6573  139.6266  156.7077 H   0  0  0  0  0  0  0  0  0  0  0  0
  149.6525  142.5657  155.8966 H   0  0  0  0  0  0  0  0  0  0  0  0
  148.3178  141.6995  156.6164 H   0  0  0  0  0  0  0  0  0  0  0  0
  149.5206  143.0275  158.2878 H   0  0  0  0  0  0  0  0  0  0  0  0
  149.5923  141.3326  158.6921 H   0  0  0  0  0  0  0  0  0  0  0  0
  151.8006  142.9370  157.3359 H   0  0  0  0  0  0  0  0  0  0  0  0
  151.5910  141.8435  160.1616 H   0  0  0  0  0  0  0  0  0  0  0  0
  152.0397  144.6683  159.0965 H   0  0  0  0  0  0  0  0  0  0  0  0
  152.1628  144.2092  160.7903 H   0  0  0  0  0  0  0  0  0  0  0  0
  150.6256  144.0835  159.9749 H   0  0  0  0  0  0  0  0  0  0  0  0
  154.1057  142.8816  158.7737 H   0  0  0  0  0  0  0  0  0  0  0  0
  153.8652  141.2695  159.4503 H   0  0  0  0  0  0  0  0  0  0  0  0
  153.9430  142.6520  160.5117 H   0  0  0  0  0  0  0  0  0  0  0  0
  153.1629  140.9652  157.2954 H   0  0  0  0  0  0  0  0  0  0  0  0
  151.0198  139.6772  158.8609 H   0  0  0  0  0  0  0  0  0  0  0  0
  151.4673  138.0397  160.1973 H   0  0  0  0  0  0  0  0  0  0  0  0
  152.1463  136.7994  159.1928 H   0  0  0  0  0  0  0  0  0  0  0  0
  153.2448  139.4974  161.3708 H   0  0  0  0  0  0  0  0  0  0  0  0
  154.9878  139.3009  163.1361 H   0  0  0  0  0  0  0  0  0  0  0  0
  151.9220  139.5352  155.6905 H   0  0  0  0  0  0  0  0  0  0  0  0
  151.8480  141.2372  155.3326 H   0  0  0  0  0  0  0  0  0  0  0  0
  1  2  1  0  0  0  0
  1 23  1  0  0  0  0
  1 24  1  0  0  0  0
  1 25  1  0  0  0  0
  2 22  1  0  0  0  0
  2  3  1  0  0  0  0
  2 26  1  0  0  0  0
  3  4  1  0  0  0  0
  3 27  1  0  0  0  0
  3 28  1  0  0  0  0
  4  5  1  0  0  0  0
  4 29  1  0  0  0  0
  4 30  1  0  0  0  0
  5  6  1  0  0  0  0
  5  9  1  0  0  0  0
  5 31  1  0  0  0  0
  6  7  1  0  0  0  0
  6  8  1  0  0  0  0
  6 32  1  0  0  0  0
  7 33  1  0  0  0  0
  7 34  1  0  0  0  0
  7 35  1  0  0  0  0
  8 36  1  0  0  0  0
  8 37  1  0  0  0  0
  8 38  1  0  0  0  0
  9 10  1  0  0  0  0
  9 22  1  0  0  0  0
  9 39  1  0  0  0  0
 10 11  1  0  0  0  0
 10 40  1  0  0  0  0
 11 12  2  0  0  0  0
 11 13  1  0  0  0  0
 13 14  1  0  0  0  0
 13 41  1  0  0  0  0
 13 42  1  0  0  0  0
 14 20  1  0  0  0  0
 14 15  1  0  0  0  0
 15 16  2  0  0  0  0
 15 43  1  0  0  0  0
 16 17  1  0  0  0  0
 16 44  1  0  0  0  0
 17 18  2  0  0  0  0
 17 19  1  0  0  0  0
 19 20  1  0  0  0  0
 20 21  2  0  0  0  0
 22 45  1  0  0  0  0
 22 46  1  0  0  0  0
M  CHG  1  19  -1
M  END
> <s_m_source_file>
AV-unprocessed.smi

> <i_m_source_file_index>
2855

> <i_lp_mmshare_version>
43012

> <i_f3d_flags>
0

> <s_epik_input>
W0NIM11bQ0BASF0xW0NIMl1bQ0gyXVtDQEBIXShbQ0hdKFtDSDNdKVtDSDNdKVtDQEhdKFtDSDJdMSlbTkhdQyg9TylbQ0gyXW4yW2NIXVtjSF1jKD1PKVtuSF1jMj1P

> <s_epik_cmdline>
J2VwaWtfcHl0aG9uJywgJy1waCcsICc3LjAnLCAnLXRuJywgJzgnLCAnLW1hJywgJzIwMCcsICctbWV0YWxfYmluZGluZycsICctaW1hZScsICc8aW5maWxlLm1hZT4nLCAnLW9tYWUnLCAnPG91dGZpbGUubWFlPic=

> <r_lp_tautomer_probability>
0.999537

> <r_epik_Ionization_Penalty>
3.12102

> <r_epik_Ionization_Penalty_Charging>
2.9581e-08

> <r_epik_Ionization_Penalty_Neutral>
3.12102

> <r_epik_State_Penalty>
3.12011

> <r_epik_Charging_Adjusted_Penalty>
3.12011

> <i_epik_Tot_Q>
-1

> <i_epik_Tot_abs_Q>
1

> <r_epik_Metal_State_Penalty>
0.463583

> <b_epik_Metal_Only>
1

> <s_lp_Force_Field>
OPLS_2005

> <r_lp_Energy>
22.0986

> <b_lp_Chiralities_Consistent>
1

> <s_lp_Variant>
AV-unprocessed.smi:2855-9

> <Gold.Version>
5.8.1

> <Gold.Id.Protein>
6NUR|6NUR_protein|mol2

> <Gold.PLP.Fitness>
38.9153

> <Gold.PLP.PLP>
-34.0754

> <Gold.PLP.part.hbond>
-2.0000

> <Gold.PLP.part.metal>
0.0000

> <Gold.PLP.part.buried>
-3.8499

> <Gold.PLP.part.nonpolar>
-26.8010

> <Gold.PLP.part.repulsive>
0.0982

> <Gold.PLP.ligand.clash>
0.0000

> <Gold.PLP.ligand.torsion>
0.6002

> <Gold.PLP.Chemscore.Hbond>
2.0000

> <Gold.PLP.Chemscore.CHOScore>
0.0000

> <Gold.PLP.Chemscore.Metal>
0.0000

> <Gold.Chemscore.Hbonds>
donor molecule, donor type, donor heavy atom, donor atom, acceptor molecule, acceptor atom, score
      P1  H  6896  6908       L1    21  1.00
      P1  H  7997  8009       L1    12  1.00

> <Gold.PLP.Chemscore.Internal.Correction>
0.0403

> <Gold.Rescore>
     Score         DG    S(hbond)    S(metal)    S(lipo)     H(rot)  DE(clash)    DE(int)     intcor
     17.97     -18.56       1.97        0.00      95.09       1.81       0.08       0.51       ----

> <Gold.Chemscore.Fitness>
17.9745

> <Gold.Chemscore.DG>
-18.5640

> <Gold.Chemscore.ZeroCoef>
-5.4800

> <Gold.Chemscore.Hbond>
1.9737

> <Gold.Chemscore.Metal>
0.0000

> <Gold.Chemscore.Lipo>
95.0883

> <Gold.Chemscore.Internal_Hbond>
0.0000

> <Gold.Chemscore.DEClash>
0.0833

> <Gold.Chemscore.DEInternal>
0.5062

> <Gold.Chemscore.Rot>
1.8100

> <Gold.Chemscore.Internal.Correction>
   9.000000E+99

> <Gold.Chemscore.Hbonds>
donor molecule, donor type, donor heavy atom, donor atom, acceptor molecule, acceptor atom, score
      P1  H  6896  6908       L1    21  0.89
      P1  H  7997  8009       L1    12  0.98

> <Gold.Chemscore.Hbond.Weighted>
-6.5922

> <Gold.Chemscore.Metal.Weighted>
-0.0000

> <Gold.Chemscore.Lipo.Weighted>
-11.1253

> <Gold.Chemscore.Internal_Hbond.Weighted>
0.0000

> <Gold.Chemscore.DEClash.Weighted>
0.0833

> <Gold.Chemscore.DEInternal.Weighted>
0.5062

> <Gold.Chemscore.Rot.Weighted>
4.6335

> <Gold.Chemscore.Internal.Correction.Weighted>
   9.000000E+99

> <Gold.Protein.RotatedTorsions>
[ 6907 6896 6895 6894 ] final  -76.15 input  -60.11 | X-H torsion
[ 7974 7965 7964 7962 ] final   36.16 input  175.53 | X-H torsion
[ 8008 7997 7996 7995 ] final  132.01 input   59.86 | X-H torsion
[ 10167 10162 10161 10158 ] final -128.38 input  -65.29 | X-H torsion
[ 10718 10713 10712 10709 ] final  -35.47 input   66.30 | X-H torsion
[ 10763 10752 10751 10750 ] final  -31.56 input  -60.55 | X-H torsion
[ 11005 11000 10999 10996 ] final   30.24 input  -57.11 | X-H torsion

> <Gold.Protein.ActiveResidues>
 VAL166  LYS551  ARG553  GLY616  TRP617  ASP618  TYR619  PRO620  LYS621  CYS622 
 ASP623  PHE694  ASN695  SER759  ASP760  ASP761  ALA762  ILE779  LEU786  VAL792 
 PHE793  MET794  SER795  GLU796  ALA797  LYS798  CYS799  TRP800  GLU811  SER814 

> <Gold.Protein.RotatedAtoms>
  150.7036  134.4615  159.5382 H   0  0  0  0  0  0  0  0  0  0  0  0  # atno 6907 bound_to 6896
  152.2289  134.8338  160.0485 H   0  0  0  0  0  0  0  0  0  0  0  0  # atno 6908 bound_to 6896
  151.9162  133.3538  159.3917 H   0  0  0  0  0  0  0  0  0  0  0  0  # atno 6909 bound_to 6896
  146.1231  139.6052  142.9276 H   0  0  0  0  0  0  0  0  0  0  0  0  # atno 7974 bound_to 7965
  156.2977  140.2557  156.3019 H   0  0  0  0  0  0  0  0  0  0  0  0  # atno 8008 bound_to 7997
  154.9409  140.0396  157.2115 H   0  0  0  0  0  0  0  0  0  0  0  0  # atno 8009 bound_to 7997
  154.8127  140.2847  155.5846 H   0  0  0  0  0  0  0  0  0  0  0  0  # atno 8010 bound_to 7997
  139.9509  143.6057  152.2476 H   0  0  0  0  0  0  0  0  0  0  0  0  # atno 10167 bound_to 10162
  156.3383  130.4289  149.7810 H   0  0  0  0  0  0  0  0  0  0  0  0  # atno 10718 bound_to 10713
  153.7994  135.6891  153.4858 H   0  0  0  0  0  0  0  0  0  0  0  0  # atno 10763 bound_to 10752
  153.1698  135.4547  154.9885 H   0  0  0  0  0  0  0  0  0  0  0  0  # atno 10764 bound_to 10752
  154.8012  135.3338  154.7484 H   0  0  0  0  0  0  0  0  0  0  0  0  # atno 10765 bound_to 10752
  140.2964  134.2806  155.7764 H   0  0  0  0  0  0  0  0  0  0  0  0  # atno 11005 bound_to 11000
  145.5423  141.0420  143.2324 LP  0  0  0  0  0  0  0  0  0  0  0  0  # atno 17320 bound_to 7965
  144.7616  139.6942  143.7232 LP  0  0  0  0  0  0  0  0  0  0  0  0  # atno 17321 bound_to 7965
  139.6629  144.7662  151.1927 LP  0  0  0  0  0  0  0  0  0  0  0  0  # atno 17342 bound_to 10162
  140.7583  143.5982  150.8727 LP  0  0  0  0  0  0  0  0  0  0  0  0  # atno 17343 bound_to 10162
  156.5056  130.8149  151.3149 LP  0  0  0  0  0  0  0  0  0  0  0  0  # atno 17370 bound_to 10713
  157.7442  130.9930  150.2657 LP  0  0  0  0  0  0  0  0  0  0  0  0  # atno 17371 bound_to 10713
  141.2136  133.7618  156.9702 LP  0  0  0  0  0  0  0  0  0  0  0  0  # atno 17394 bound_to 11000
  140.1148  134.9454  157.2118 LP  0  0  0  0  0  0  0  0  0  0  0  0  # atno 17395 bound_to 11000

$$$$
