AV-unprocessed.smi:22|AV-procd|sdf|170|dock10
  -GOLD-   2262015423D 1   1.00000     0.00000
 Structure written by MMmdl.
 56 59  0  0  0  0  0  0  0  0  2 V2000
  144.7023  134.1147  161.3700 C   0  0  0  0  0  0  0  0  0  0  0  0
  145.3584  133.9869  160.0434 N   0  3  1  0  0  0  0  0  0  0  0  0
  144.3721  133.6071  158.9943 C   0  0  0  0  0  0  0  0  0  0  0  0
  143.1612  134.5541  158.9774 C   0  0  0  0  0  0  0  0  0  0  0  0
  142.2385  134.1386  157.9929 O   0  0  0  0  0  0  0  0  0  0  0  0
  146.2144  135.1488  159.6450 C   0  0  0  0  0  0  0  0  0  0  0  0
  147.1271  134.7660  158.4547 C   0  0  0  0  0  0  0  0  0  0  0  0
  148.0157  135.9404  158.0161 C   0  0  0  0  0  0  0  0  0  0  0  0
  148.8027  136.4442  159.1401 N   0  0  0  0  0  0  0  0  0  0  0  0
  149.8464  137.2660  158.8605 C   0  0  0  0  0  0  0  0  0  0  0  0
  151.1194  136.8580  159.1116 N   0  0  0  0  0  0  0  0  0  0  0  0
  152.1525  137.6574  158.8296 C   0  0  0  0  0  0  0  0  0  0  0  0
  152.1392  138.8843  158.3061 N   0  0  0  0  0  0  0  0  0  0  0  0
  150.8652  139.3033  158.0593 C   0  0  0  0  0  0  0  0  0  0  0  0
  149.6731  138.5637  158.3018 C   0  0  0  0  0  0  0  0  0  0  0  0
  148.5654  139.3175  157.9316 N   0  0  0  0  0  0  0  0  0  0  0  0
  149.0741  140.4350  157.4892 C   0  0  0  0  0  0  0  0  0  0  0  0
  150.4476  140.5145  157.5359 N   0  0  0  0  0  0  0  0  0  0  0  0
  151.2690  141.6394  157.1156 C   0  0  0  0  0  0  0  0  0  0  0  0
  151.3701  142.7557  158.1808 C   0  0  1  0  0  0  0  0  0  0  0  0
  150.0791  142.9994  158.7126 O   0  0  0  0  0  0  0  0  0  0  0  0
  152.3183  142.4367  159.3329 C   0  0  0  0  0  0  0  0  0  0  0  0
  152.8411  143.8097  159.7303 C   0  0  0  0  0  0  0  0  0  0  0  0
  153.0118  144.4488  158.4767 O   0  0  0  0  0  0  0  0  0  0  0  0
  151.9277  144.0826  157.6283 C   0  0  0  0  0  0  0  0  0  0  0  0
  148.0173  136.8379  160.3067 C   0  0  0  0  0  0  0  0  0  0  0  0
  147.1209  135.6836  160.7839 C   0  0  0  0  0  0  0  0  0  0  0  0
  144.0992  135.0224  161.4224 H   0  0  0  0  0  0  0  0  0  0  0  0
  145.4336  134.1329  162.1779 H   0  0  0  0  0  0  0  0  0  0  0  0
  144.0463  133.2677  161.5696 H   0  0  0  0  0  0  0  0  0  0  0  0
  144.8624  133.6095  158.0193 H   0  0  0  0  0  0  0  0  0  0  0  0
  144.0115  132.5875  159.1264 H   0  0  0  0  0  0  0  0  0  0  0  0
  142.6662  134.6021  159.9471 H   0  0  0  0  0  0  0  0  0  0  0  0
  143.4862  135.5661  158.7350 H   0  0  0  0  0  0  0  0  0  0  0  0
  142.0169  133.2328  158.1496 H   0  0  0  0  0  0  0  0  0  0  0  0
  145.5534  135.9632  159.3427 H   0  0  0  0  0  0  0  0  0  0  0  0
  147.7603  133.9234  158.7375 H   0  0  0  0  0  0  0  0  0  0  0  0
  146.5494  134.4319  157.5942 H   0  0  0  0  0  0  0  0  0  0  0  0
  148.6792  135.6117  157.2147 H   0  0  0  0  0  0  0  0  0  0  0  0
  147.3984  136.7454  157.6149 H   0  0  0  0  0  0  0  0  0  0  0  0
  153.1296  137.2560  159.0549 H   0  0  0  0  0  0  0  0  0  0  0  0
  148.4569  141.2420  157.1210 H   0  0  0  0  0  0  0  0  0  0  0  0
  152.2634  141.2628  156.8726 H   0  0  0  0  0  0  0  0  0  0  0  0
  150.8582  142.0373  156.1864 H   0  0  0  0  0  0  0  0  0  0  0  0
  149.4502  142.5046  158.2095 H   0  0  0  0  0  0  0  0  0  0  0  0
  151.8487  141.8966  160.1562 H   0  0  0  0  0  0  0  0  0  0  0  0
  153.1561  141.8366  158.9767 H   0  0  0  0  0  0  0  0  0  0  0  0
  152.1066  144.3538  160.3261 H   0  0  0  0  0  0  0  0  0  0  0  0
  153.7755  143.7614  160.2897 H   0  0  0  0  0  0  0  0  0  0  0  0
  152.2968  143.9838  156.6070 H   0  0  0  0  0  0  0  0  0  0  0  0
  151.1787  144.8764  157.6277 H   0  0  0  0  0  0  0  0  0  0  0  0
  148.6589  137.1556  161.1280 H   0  0  0  0  0  0  0  0  0  0  0  0
  147.4036  137.6996  160.0408 H   0  0  0  0  0  0  0  0  0  0  0  0
  146.5263  136.0516  161.6201 H   0  0  0  0  0  0  0  0  0  0  0  0
  147.7481  134.8791  161.1707 H   0  0  0  0  0  0  0  0  0  0  0  0
  145.9927  133.2044  160.1222 H   0  0  0  0  0  0  0  0  0  0  0  0
  1  2  1  0  0  0  0
  1 28  1  0  0  0  0
  1 29  1  0  0  0  0
  1 30  1  0  0  0  0
  2  3  1  0  0  0  0
  2  6  1  0  0  0  0
  2 56  1  0  0  0  0
  3  4  1  0  0  0  0
  3 31  1  0  0  0  0
  3 32  1  0  0  0  0
  4  5  1  0  0  0  0
  4 33  1  0  0  0  0
  4 34  1  0  0  0  0
  5 35  1  0  0  0  0
  6 27  1  0  0  0  0
  6  7  1  0  0  0  0
  6 36  1  0  0  0  0
  7  8  1  0  0  0  0
  7 37  1  0  0  0  0
  7 38  1  0  0  0  0
  8  9  1  0  0  0  0
  8 39  1  0  0  0  0
  8 40  1  0  0  0  0
  9 10  1  0  0  0  0
  9 26  1  0  0  0  0
 10 15  1  0  0  0  0
 10 11  2  0  0  0  0
 11 12  1  0  0  0  0
 12 13  2  0  0  0  0
 12 41  1  0  0  0  0
 13 14  1  0  0  0  0
 14 18  1  0  0  0  0
 14 15  2  0  0  0  0
 15 16  1  0  0  0  0
 16 17  2  0  0  0  0
 17 18  1  0  0  0  0
 17 42  1  0  0  0  0
 18 19  1  0  0  0  0
 19 20  1  0  0  0  0
 19 43  1  0  0  0  0
 19 44  1  0  0  0  0
 20 25  1  0  0  0  0
 20 21  1  0  0  0  0
 20 22  1  0  0  0  0
 21 45  1  0  0  0  0
 22 23  1  0  0  0  0
 22 46  1  0  0  0  0
 22 47  1  0  0  0  0
 23 24  1  0  0  0  0
 23 48  1  0  0  0  0
 23 49  1  0  0  0  0
 24 25  1  0  0  0  0
 25 50  1  0  0  0  0
 25 51  1  0  0  0  0
 26 27  1  0  0  0  0
 26 52  1  0  0  0  0
 26 53  1  0  0  0  0
 27 54  1  0  0  0  0
 27 55  1  0  0  0  0
M  CHG  1   2   1
M  END
> <s_m_source_file>
AV-unprocessed.smi

> <i_m_source_file_index>
22

> <i_lp_mmshare_version>
43012

> <i_f3d_flags>
0

> <s_epik_input>
W09IXVtDSDJdW0NIMl1OKFtDSDNdKVtDSF0xW0NIMl1bQ0gyXU4oW0NIMl1bQ0gyXTEpYyhuW2NIXW4yKWMoYzIzKW5bY0hdbjNbQ0gyXVtDQEBdNChbT0hdKVtDSDJdW0NIMl1PW0NIMl00

> <s_epik_cmdline>
J2VwaWtfcHl0aG9uJywgJy1waCcsICc3LjAnLCAnLXRuJywgJzgnLCAnLW1hJywgJzIwMCcsICctbWV0YWxfYmluZGluZycsICctaW1hZScsICc8aW5maWxlLm1hZT4nLCAnLW9tYWUnLCAnPG91dGZpbGUubWFlPic=

> <r_lp_tautomer_probability>
1

> <r_epik_Ionization_Penalty>
0.00317524

> <r_epik_Ionization_Penalty_Charging>
0.00191487

> <r_epik_Ionization_Penalty_Neutral>
0.00126037

> <r_epik_State_Penalty>
-0

> <r_epik_Charging_Adjusted_Penalty>
0.00191487

> <i_epik_Tot_Q>
1

> <i_epik_Tot_abs_Q>
1

> <r_epik_Metal_State_Penalty>
-0

> <b_epik_Metal_Only>
0

> <s_lp_Force_Field>
OPLS_2005

> <r_lp_Energy>
47.7053

> <b_lp_Chiralities_Consistent>
1

> <s_lp_Variant>
AV-unprocessed.smi:22-2

> <Gold.Version>
5.8.1

> <Gold.Id.Protein>
6NUR|6NUR_protein|mol2

> <Gold.PLP.Fitness>
41.9445

> <Gold.PLP.PLP>
-37.2703

> <Gold.PLP.part.hbond>
-3.2287

> <Gold.PLP.part.metal>
0.0000

> <Gold.PLP.part.buried>
-6.0091

> <Gold.PLP.part.nonpolar>
-27.6908

> <Gold.PLP.part.repulsive>
0.0075

> <Gold.PLP.ligand.clash>
0.0000

> <Gold.PLP.ligand.torsion>
0.9046

> <Gold.PLP.Chemscore.Hbond>
2.0000

> <Gold.PLP.Chemscore.CHOScore>
0.0000

> <Gold.PLP.Chemscore.Metal>
0.0000

> <Gold.Chemscore.Hbonds>
donor molecule, donor type, donor heavy atom, donor atom, acceptor molecule, acceptor atom, score
      P1  H  6896  6909       L1    11  1.00

> <Gold.PLP.Chemscore.Internal.Correction>
0.4834

> <Gold.Rescore>
     Score         DG    S(hbond)    S(metal)    S(lipo)     H(rot)  DE(clash)    DE(int)     intcor
     10.62     -11.72       1.85        0.00      82.63       3.76       0.05       1.04       ----

> <Gold.Chemscore.Fitness>
10.6212

> <Gold.Chemscore.DG>
-11.7159

> <Gold.Chemscore.ZeroCoef>
-5.4800

> <Gold.Chemscore.Hbond>
1.8530

> <Gold.Chemscore.Metal>
0.0000

> <Gold.Chemscore.Lipo>
82.6324

> <Gold.Chemscore.Internal_Hbond>
0.0000

> <Gold.Chemscore.DEClash>
0.0515

> <Gold.Chemscore.DEInternal>
1.0432

> <Gold.Chemscore.Rot>
3.7583

> <Gold.Chemscore.Internal.Correction>
   9.000000E+99

> <Gold.Chemscore.Hbonds>
donor molecule, donor type, donor heavy atom, donor atom, acceptor molecule, acceptor atom, score
      P1  H  6896  6909       L1    11  0.89

> <Gold.Chemscore.Hbond.Weighted>
-6.1892

> <Gold.Chemscore.Metal.Weighted>
-0.0000

> <Gold.Chemscore.Lipo.Weighted>
-9.6680

> <Gold.Chemscore.Internal_Hbond.Weighted>
0.0000

> <Gold.Chemscore.DEClash.Weighted>
0.0515

> <Gold.Chemscore.DEInternal.Weighted>
1.0432

> <Gold.Chemscore.Rot.Weighted>
9.6213

> <Gold.Chemscore.Internal.Correction.Weighted>
   9.000000E+99

> <Gold.Protein.RotatedTorsions>
[ 6907 6896 6895 6894 ] final  100.62 input  -60.11 | X-H torsion
[ 7974 7965 7964 7962 ] final   92.84 input  175.53 | X-H torsion
[ 8008 7997 7996 7995 ] final  -63.94 input   59.86 | X-H torsion
[ 10167 10162 10161 10158 ] final  -77.62 input  -65.29 | X-H torsion
[ 10718 10713 10712 10709 ] final -155.77 input   66.30 | X-H torsion
[ 10763 10752 10751 10750 ] final -126.87 input  -60.55 | X-H torsion
[ 11005 11000 10999 10996 ] final -116.92 input  -57.11 | X-H torsion

> <Gold.Protein.ActiveResidues>
 VAL166  LYS551  ARG553  GLY616  TRP617  ASP618  TYR619  PRO620  LYS621  CYS622 
 ASP623  PHE694  ASN695  SER759  ASP760  ASP761  ALA762  ILE779  LEU786  VAL792 
 PHE793  MET794  SER795  GLU796  ALA797  LYS798  CYS799  TRP800  GLU811  SER814 

> <Gold.Protein.RotatedAtoms>
  152.5368  134.0250  159.7998 H   0  0  0  0  0  0  0  0  0  0  0  0  # atno 6907 bound_to 6896
  151.0430  133.5682  159.2656 H   0  0  0  0  0  0  0  0  0  0  0  0  # atno 6908 bound_to 6896
  151.2645  135.0672  159.9164 H   0  0  0  0  0  0  0  0  0  0  0  0  # atno 6909 bound_to 6896
  145.4870  139.2277  143.2851 H   0  0  0  0  0  0  0  0  0  0  0  0  # atno 7974 bound_to 7965
  154.4583  140.0964  156.6820 H   0  0  0  0  0  0  0  0  0  0  0  0  # atno 8008 bound_to 7997
  155.5071  140.3475  155.4363 H   0  0  0  0  0  0  0  0  0  0  0  0  # atno 8009 bound_to 7997
  156.0821  140.1375  156.9688 H   0  0  0  0  0  0  0  0  0  0  0  0  # atno 8010 bound_to 7997
  140.4754  143.2415  151.8140 H   0  0  0  0  0  0  0  0  0  0  0  0  # atno 10167 bound_to 10162
  156.5174  130.8462  151.2669 H   0  0  0  0  0  0  0  0  0  0  0  0  # atno 10718 bound_to 10713
  154.8749  135.3981  154.3501 H   0  0  0  0  0  0  0  0  0  0  0  0  # atno 10763 bound_to 10752
  153.4288  135.7024  153.6250 H   0  0  0  0  0  0  0  0  0  0  0  0  # atno 10764 bound_to 10752
  153.4880  135.3754  155.2447 H   0  0  0  0  0  0  0  0  0  0  0  0  # atno 10765 bound_to 10752
  141.0389  133.9866  157.3026 H   0  0  0  0  0  0  0  0  0  0  0  0  # atno 11005 bound_to 11000
  146.2307  140.5661  142.8976 LP  0  0  0  0  0  0  0  0  0  0  0  0  # atno 17320 bound_to 7965
  144.7856  140.5929  143.6576 LP  0  0  0  0  0  0  0  0  0  0  0  0  # atno 17321 bound_to 7965
  139.4825  144.4839  151.9271 LP  0  0  0  0  0  0  0  0  0  0  0  0  # atno 17342 bound_to 10162
  140.3924  144.2598  150.5898 LP  0  0  0  0  0  0  0  0  0  0  0  0  # atno 17343 bound_to 10162
  157.7442  130.9929  150.2653 LP  0  0  0  0  0  0  0  0  0  0  0  0  # atno 17370 bound_to 10713
  156.3182  130.3782  149.7599 LP  0  0  0  0  0  0  0  0  0  0  0  0  # atno 17371 bound_to 10713
  139.9261  135.0201  156.8239 LP  0  0  0  0  0  0  0  0  0  0  0  0  # atno 17394 bound_to 11000
  140.6270  133.9940  155.7644 LP  0  0  0  0  0  0  0  0  0  0  0  0  # atno 17395 bound_to 11000

$$$$
