AV-unprocessed.smi:463|AV-procd|sdf|2634|dock2
  -GOLD-   2262023 43D 1   1.00000     0.00000
 Structure written by MMmdl.
 42 44  0  0  0  0  0  0  0  0  1 V2000
  153.7377  141.0793  161.7055 C   0  0  0  0  0  0  0  0  0  0  0  0
  152.9563  142.2848  161.2256 C   0  0  0  0  0  0  0  0  0  0  0  0
  152.6393  143.3264  162.1198 C   0  0  0  0  0  0  0  0  0  0  0  0
  151.9076  144.4408  161.6694 C   0  0  0  0  0  0  0  0  0  0  0  0
  151.4901  144.5187  160.3265 C   0  0  0  0  0  0  0  0  0  0  0  0
  151.8043  143.4773  159.4175 C   0  0  0  0  0  0  0  0  0  0  0  0
  151.4393  143.4710  158.0892 O   0  0  0  0  0  0  0  0  0  0  0  0
  151.2120  142.2193  157.4555 C   0  0  0  0  0  0  0  0  0  0  0  0
  150.4698  142.4474  156.1316 C   0  0  0  0  0  0  0  0  0  0  0  0
  150.0304  141.1942  155.5344 N   0  0  0  0  0  0  0  0  0  0  0  0
  148.7972  140.8513  155.0795 C   0  0  0  0  0  0  0  0  0  0  0  0
  147.6223  141.7857  155.1187 C   0  0  0  0  0  0  0  0  0  0  0  0
  146.9621  141.9929  153.7463 C   0  0  0  0  0  0  0  0  0  0  0  0
  146.4382  140.7805  153.2466 O   0  0  0  0  0  0  0  0  0  0  0  0
  148.6875  139.6189  154.5804 N   0  0  0  0  0  0  0  0  0  0  0  0
  149.9630  139.1122  154.7328 C   0  0  0  0  0  0  0  0  0  0  0  0
  150.4946  137.8455  154.3998 C   0  0  0  0  0  0  0  0  0  0  0  0
  151.8498  137.5506  154.6560 C   0  0  0  0  0  0  0  0  0  0  0  0
  152.6907  138.5154  155.2475 C   0  0  0  0  0  0  0  0  0  0  0  0
  152.1811  139.7837  155.5859 C   0  0  0  0  0  0  0  0  0  0  0  0
  150.8279  140.0732  155.3275 C   0  0  0  0  0  0  0  0  0  0  0  0
  152.5373  142.3660  159.8820 C   0  0  0  0  0  0  0  0  0  0  0  0
  154.3791  141.3394  162.5481 H   0  0  0  0  0  0  0  0  0  0  0  0
  154.3697  140.6852  160.9092 H   0  0  0  0  0  0  0  0  0  0  0  0
  153.0548  140.2915  162.0237 H   0  0  0  0  0  0  0  0  0  0  0  0
  152.9544  143.2740  163.1515 H   0  0  0  0  0  0  0  0  0  0  0  0
  151.6648  145.2385  162.3558 H   0  0  0  0  0  0  0  0  0  0  0  0
  150.9302  145.3884  160.0184 H   0  0  0  0  0  0  0  0  0  0  0  0
  152.1613  141.7183  157.2612 H   0  0  0  0  0  0  0  0  0  0  0  0
  150.6136  141.5720  158.0988 H   0  0  0  0  0  0  0  0  0  0  0  0
  149.6170  143.1082  156.2796 H   0  0  0  0  0  0  0  0  0  0  0  0
  151.1240  142.9557  155.4229 H   0  0  0  0  0  0  0  0  0  0  0  0
  146.8848  141.3532  155.7958 H   0  0  0  0  0  0  0  0  0  0  0  0
  147.8963  142.7404  155.5660 H   0  0  0  0  0  0  0  0  0  0  0  0
  146.1752  142.7460  153.7984 H   0  0  0  0  0  0  0  0  0  0  0  0
  147.7039  142.3525  153.0329 H   0  0  0  0  0  0  0  0  0  0  0  0
  145.6377  140.9684  152.7806 H   0  0  0  0  0  0  0  0  0  0  0  0
  149.8581  137.0991  153.9481 H   0  0  0  0  0  0  0  0  0  0  0  0
  152.2456  136.5790  154.3984 H   0  0  0  0  0  0  0  0  0  0  0  0
  153.7272  138.2814  155.4417 H   0  0  0  0  0  0  0  0  0  0  0  0
  152.8220  140.5247  156.0401 H   0  0  0  0  0  0  0  0  0  0  0  0
  152.7786  141.5672  159.1959 H   0  0  0  0  0  0  0  0  0  0  0  0
  1  2  1  0  0  0  0
  1 23  1  0  0  0  0
  1 24  1  0  0  0  0
  1 25  1  0  0  0  0
  2 22  1  0  0  0  0
  2  3  2  0  0  0  0
  3  4  1  0  0  0  0
  3 26  1  0  0  0  0
  4  5  2  0  0  0  0
  4 27  1  0  0  0  0
  5  6  1  0  0  0  0
  5 28  1  0  0  0  0
  6  7  1  0  0  0  0
  6 22  2  0  0  0  0
  7  8  1  0  0  0  0
  8  9  1  0  0  0  0
  8 29  1  0  0  0  0
  8 30  1  0  0  0  0
  9 10  1  0  0  0  0
  9 31  1  0  0  0  0
  9 32  1  0  0  0  0
 10 21  1  0  0  0  0
 10 11  1  0  0  0  0
 11 12  1  0  0  0  0
 11 15  2  0  0  0  0
 12 13  1  0  0  0  0
 12 33  1  0  0  0  0
 12 34  1  0  0  0  0
 13 14  1  0  0  0  0
 13 35  1  0  0  0  0
 13 36  1  0  0  0  0
 14 37  1  0  0  0  0
 15 16  1  0  0  0  0
 16 21  2  0  0  0  0
 16 17  1  0  0  0  0
 17 18  2  0  0  0  0
 17 38  1  0  0  0  0
 18 19  1  0  0  0  0
 18 39  1  0  0  0  0
 19 20  2  0  0  0  0
 19 40  1  0  0  0  0
 20 21  1  0  0  0  0
 20 41  1  0  0  0  0
 22 42  1  0  0  0  0
M  END
> <s_m_source_file>
AV-unprocessed.smi

> <i_m_source_file_index>
463

> <i_lp_mmshare_version>
43012

> <i_f3d_flags>
0

> <s_epik_input>
W0NIM11jMVtjSF1bY0hdW2NIXWMoW2NIXTEpT1tDSDJdW0NIMl1uKGMobjIpW0NIMl1bQ0gyXVtPSF0pYyhjMjMpW2NIXVtjSF1bY0hdW2NIXTM=

> <s_epik_cmdline>
J2VwaWtfcHl0aG9uJywgJy1waCcsICc3LjAnLCAnLXRuJywgJzgnLCAnLW1hJywgJzIwMCcsICctbWV0YWxfYmluZGluZycsICctaW1hZScsICc8aW5maWxlLm1hZT4nLCAnLW9tYWUnLCAnPG91dGZpbGUubWFlPic=

> <r_lp_tautomer_probability>
1

> <r_epik_Ionization_Penalty>
0.206757

> <r_epik_Ionization_Penalty_Charging>
0

> <r_epik_Ionization_Penalty_Neutral>
0.206757

> <r_epik_State_Penalty>
0.196743

> <r_epik_Charging_Adjusted_Penalty>
0.196743

> <i_epik_Tot_Q>
0

> <i_epik_Tot_abs_Q>
0

> <r_epik_Metal_State_Penalty>
0.000233299

> <b_epik_Metal_Only>
0

> <s_lp_Force_Field>
OPLS_2005

> <r_lp_Energy>
15.5684

> <b_lp_Chiralities_Consistent>
1

> <s_lp_Variant>
AV-unprocessed.smi:463-1

> <Gold.Version>
5.8.1

> <Gold.Id.Protein>
6NUR|6NUR_protein|mol2

> <Gold.PLP.Fitness>
55.1160

> <Gold.PLP.PLP>
-53.1338

> <Gold.PLP.part.hbond>
-1.0000

> <Gold.PLP.part.metal>
0.0000

> <Gold.PLP.part.buried>
0.4677

> <Gold.PLP.part.nonpolar>
-52.0434

> <Gold.PLP.part.repulsive>
0.1959

> <Gold.PLP.ligand.clash>
0.0000

> <Gold.PLP.ligand.torsion>
0.5625

> <Gold.PLP.Chemscore.Hbond>
1.0000

> <Gold.PLP.Chemscore.CHOScore>
0.0000

> <Gold.PLP.Chemscore.Metal>
0.0000

> <Gold.Chemscore.Hbonds>
donor molecule, donor type, donor heavy atom, donor atom, acceptor molecule, acceptor atom, score
      L1  H    14    37       P1 10175  0.91

> <Gold.PLP.Chemscore.Internal.Correction>
0.1073

> <Gold.Rescore>
     Score         DG    S(hbond)    S(metal)    S(lipo)     H(rot)  DE(clash)    DE(int)     intcor
     17.37     -20.40       0.98        0.00     149.62       2.28       1.24       1.79       ----

> <Gold.Chemscore.Fitness>
17.3748

> <Gold.Chemscore.DG>
-20.4041

> <Gold.Chemscore.ZeroCoef>
-5.4800

> <Gold.Chemscore.Hbond>
0.9764

> <Gold.Chemscore.Metal>
0.0000

> <Gold.Chemscore.Lipo>
149.6157

> <Gold.Chemscore.Internal_Hbond>
0.0000

> <Gold.Chemscore.DEClash>
1.2396

> <Gold.Chemscore.DEInternal>
1.7897

> <Gold.Chemscore.Rot>
2.2821

> <Gold.Chemscore.Internal.Correction>
   9.000000E+99

> <Gold.Chemscore.Hbonds>
donor molecule, donor type, donor heavy atom, donor atom, acceptor molecule, acceptor atom, score
      L1  H    14    37       P1 10175  0.19

> <Gold.Chemscore.Hbond.Weighted>
-3.2612

> <Gold.Chemscore.Metal.Weighted>
-0.0000

> <Gold.Chemscore.Lipo.Weighted>
-17.5050

> <Gold.Chemscore.Internal_Hbond.Weighted>
0.0000

> <Gold.Chemscore.DEClash.Weighted>
1.2396

> <Gold.Chemscore.DEInternal.Weighted>
1.7897

> <Gold.Chemscore.Rot.Weighted>
5.8421

> <Gold.Chemscore.Internal.Correction.Weighted>
   9.000000E+99

> <Gold.Protein.RotatedTorsions>
[ 6907 6896 6895 6894 ] final -138.24 input  -60.11 | X-H torsion
[ 7974 7965 7964 7962 ] final   71.42 input  175.53 | X-H torsion
[ 8008 7997 7996 7995 ] final  -65.92 input   59.86 | X-H torsion
[ 10167 10162 10161 10158 ] final  -95.99 input  -65.29 | X-H torsion
[ 10718 10713 10712 10709 ] final  100.35 input   66.30 | X-H torsion
[ 10763 10752 10751 10750 ] final   94.01 input  -60.55 | X-H torsion
[ 11005 11000 10999 10996 ] final   78.37 input  -57.11 | X-H torsion

> <Gold.Protein.ActiveResidues>
 VAL166  LYS551  ARG553  GLY616  TRP617  ASP618  TYR619  PRO620  LYS621  CYS622 
 ASP623  PHE694  ASN695  SER759  ASP760  ASP761  ALA762  ILE779  LEU786  VAL792 
 PHE793  MET794  SER795  GLU796  ALA797  LYS798  CYS799  TRP800  GLU811  SER814 

> <Gold.Protein.RotatedAtoms>
  151.0326  133.5777  159.2658 H   0  0  0  0  0  0  0  0  0  0  0  0  # atno 6907 bound_to 6896
  151.2853  135.0725  159.9194 H   0  0  0  0  0  0  0  0  0  0  0  0  # atno 6908 bound_to 6896
  152.5348  134.0034  159.7959 H   0  0  0  0  0  0  0  0  0  0  0  0  # atno 6909 bound_to 6896
  145.7660  139.2822  143.1348 H   0  0  0  0  0  0  0  0  0  0  0  0  # atno 7974 bound_to 7965
  154.4702  140.0923  156.7124 H   0  0  0  0  0  0  0  0  0  0  0  0  # atno 8008 bound_to 7997
  155.4746  140.3465  155.4312 H   0  0  0  0  0  0  0  0  0  0  0  0  # atno 8009 bound_to 7997
  156.1025  140.1426  156.9436 H   0  0  0  0  0  0  0  0  0  0  0  0  # atno 8010 bound_to 7997
  140.2985  143.3177  152.0273 H   0  0  0  0  0  0  0  0  0  0  0  0  # atno 10167 bound_to 10162
  157.6856  131.0696  150.5087 H   0  0  0  0  0  0  0  0  0  0  0  0  # atno 10718 bound_to 10713
  153.2367  135.4305  155.0654 H   0  0  0  0  0  0  0  0  0  0  0  0  # atno 10763 bound_to 10752
  154.8322  135.3393  154.6708 H   0  0  0  0  0  0  0  0  0  0  0  0  # atno 10764 bound_to 10752
  153.7133  135.7021  153.5088 H   0  0  0  0  0  0  0  0  0  0  0  0  # atno 10765 bound_to 10752
  139.9215  134.7758  156.1641 H   0  0  0  0  0  0  0  0  0  0  0  0  # atno 11005 bound_to 11000
  146.0217  140.8342  142.9920 LP  0  0  0  0  0  0  0  0  0  0  0  0  # atno 17320 bound_to 7965
  144.6821  140.2638  143.7315 LP  0  0  0  0  0  0  0  0  0  0  0  0  # atno 17321 bound_to 7965
  139.4921  144.6473  151.6750 LP  0  0  0  0  0  0  0  0  0  0  0  0  # atno 17342 bound_to 10162
  140.5672  144.0170  150.6198 LP  0  0  0  0  0  0  0  0  0  0  0  0  # atno 17343 bound_to 10162
  156.5405  130.4207  149.6156 LP  0  0  0  0  0  0  0  0  0  0  0  0  # atno 17370 bound_to 10713
  156.2989  130.7166  151.2033 LP  0  0  0  0  0  0  0  0  0  0  0  0  # atno 17371 bound_to 10713
  141.0740  133.6784  156.2198 LP  0  0  0  0  0  0  0  0  0  0  0  0  # atno 17394 bound_to 11000
  140.6459  134.5117  157.5573 LP  0  0  0  0  0  0  0  0  0  0  0  0  # atno 17395 bound_to 11000

$$$$
