AV-unprocessed.smi:2822|AV-procd|sdf|10872|dock1
  -GOLD-   2272015313D 1   1.00000     0.00000
 Structure written by MMmdl.
 40 42  0  0  0  0  0  0  0  0  2 V2000
  150.8825  138.4857  154.8828 Cl  0  0  0  0  0  0  0  0  0  0  0  0
  149.4651  139.4311  154.5856 C   0  0  0  0  0  0  0  0  0  0  0  0
  148.4397  138.9155  153.7664 C   0  0  0  0  0  0  0  0  0  0  0  0
  147.3043  139.5878  153.4835 N   0  0  0  0  0  0  0  0  0  0  0  0
  147.1527  140.8170  154.0185 C   0  0  0  0  0  0  0  0  0  0  0  0
  148.1142  141.4257  154.8495 C   0  0  0  0  0  0  0  0  0  0  0  0
  149.3049  140.7203  155.1441 C   0  0  0  0  0  0  0  0  0  0  0  0
  150.3142  141.2515  155.9622 N   0  0  0  0  0  0  0  0  0  0  0  0
  149.9864  142.1819  157.0316 C   0  0  0  0  0  0  0  0  0  0  0  0
  151.2381  142.8829  157.5777 C   0  0  2  0  0  0  0  0  0  0  0  0
  151.9750  142.0053  158.6060 C   0  0  0  0  0  0  0  0  0  0  0  0
  153.1305  142.7350  159.1846 N   0  3  2  0  0  0  0  0  0  0  0  0
  153.9294  141.9315  160.1466 C   0  0  0  0  0  0  0  0  0  0  0  0
  153.2228  141.7790  161.5072 C   0  0  0  0  0  0  0  0  0  0  0  0
  152.8448  143.1477  162.0896 C   0  0  0  0  0  0  0  0  0  0  0  0
  152.0141  143.9495  161.0773 C   0  0  0  0  0  0  0  0  0  0  0  0
  152.7492  144.0696  159.7239 C   0  0  2  0  0  0  0  0  0  0  0  0
  151.9383  144.8558  158.6746 C   0  0  0  0  0  0  0  0  0  0  0  0
  150.8314  144.0835  158.2260 O   0  0  0  0  0  0  0  0  0  0  0  0
  148.5336  137.9344  153.3246 H   0  0  0  0  0  0  0  0  0  0  0  0
  146.2349  141.3330  153.7783 H   0  0  0  0  0  0  0  0  0  0  0  0
  147.9210  142.4120  155.2438 H   0  0  0  0  0  0  0  0  0  0  0  0
  151.2704  141.2087  155.6387 H   0  0  0  0  0  0  0  0  0  0  0  0
  149.2678  142.9204  156.6736 H   0  0  0  0  0  0  0  0  0  0  0  0
  149.5057  141.6230  157.8354 H   0  0  0  0  0  0  0  0  0  0  0  0
  151.9096  143.1164  156.7488 H   0  0  0  0  0  0  0  0  0  0  0  0
  151.2848  141.6998  159.3929 H   0  0  0  0  0  0  0  0  0  0  0  0
  152.3298  141.0923  158.1258 H   0  0  0  0  0  0  0  0  0  0  0  0
  154.1534  140.9530  159.7202 H   0  0  0  0  0  0  0  0  0  0  0  0
  154.8889  142.4291  160.2925 H   0  0  0  0  0  0  0  0  0  0  0  0
  152.3285  141.1646  161.4002 H   0  0  0  0  0  0  0  0  0  0  0  0
  153.8725  141.2481  162.2034 H   0  0  0  0  0  0  0  0  0  0  0  0
  152.2869  143.0204  163.0178 H   0  0  0  0  0  0  0  0  0  0  0  0
  153.7500  143.7010  162.3431 H   0  0  0  0  0  0  0  0  0  0  0  0
  151.0421  143.4738  160.9422 H   0  0  0  0  0  0  0  0  0  0  0  0
  151.8118  144.9429  161.4794 H   0  0  0  0  0  0  0  0  0  0  0  0
  153.6743  144.6200  159.9023 H   0  0  0  0  0  0  0  0  0  0  0  0
  151.5723  145.7919  159.0975 H   0  0  0  0  0  0  0  0  0  0  0  0
  152.5674  145.1238  157.8240 H   0  0  0  0  0  0  0  0  0  0  0  0
  153.7439  142.9182  158.4032 H   0  0  0  0  0  0  0  0  0  0  0  0
  1  2  1  0  0  0  0
  2  7  1  0  0  0  0
  2  3  2  0  0  0  0
  3  4  1  0  0  0  0
  3 20  1  0  0  0  0
  4  5  2  0  0  0  0
  5  6  1  0  0  0  0
  5 21  1  0  0  0  0
  6  7  2  0  0  0  0
  6 22  1  0  0  0  0
  7  8  1  0  0  0  0
  8  9  1  0  0  0  0
  8 23  1  0  0  0  0
  9 10  1  0  0  0  0
  9 24  1  0  0  0  0
  9 25  1  0  0  0  0
 10 19  1  0  0  0  0
 10 11  1  0  0  0  0
 10 26  1  0  0  0  0
 11 12  1  0  0  0  0
 11 27  1  0  0  0  0
 11 28  1  0  0  0  0
 12 17  1  0  0  0  0
 12 13  1  0  0  0  0
 12 40  1  0  0  0  0
 13 14  1  0  0  0  0
 13 29  1  0  0  0  0
 13 30  1  0  0  0  0
 14 15  1  0  0  0  0
 14 31  1  0  0  0  0
 14 32  1  0  0  0  0
 15 16  1  0  0  0  0
 15 33  1  0  0  0  0
 15 34  1  0  0  0  0
 16 17  1  0  0  0  0
 16 35  1  0  0  0  0
 16 36  1  0  0  0  0
 17 18  1  0  0  0  0
 17 37  1  0  0  0  0
 18 19  1  0  0  0  0
 18 38  1  0  0  0  0
 18 39  1  0  0  0  0
M  CHG  1  12   1
M  END
> <s_m_source_file>
AV-unprocessed.smi

> <i_m_source_file_index>
2822

> <i_lp_mmshare_version>
43012

> <i_f3d_flags>
0

> <s_epik_input>
Q2xjMVtjSF1uW2NIXVtjSF1jMVtOSF1bQ0gyXVtDQEhdKFtDSDJdMilPW0NIMl1bQ0BASF0oTjIzKVtDSDJdW0NIMl1bQ0gyXVtDSDJdMw==

> <s_epik_cmdline>
J2VwaWtfcHl0aG9uJywgJy1waCcsICc3LjAnLCAnLXRuJywgJzgnLCAnLW1hJywgJzIwMCcsICctbWV0YWxfYmluZGluZycsICctaW1hZScsICc8aW5maWxlLm1hZT4nLCAnLW9tYWUnLCAnPG91dGZpbGUubWFlPic=

> <r_lp_tautomer_probability>
0.999999

> <r_epik_Ionization_Penalty>
0.88937

> <r_epik_Ionization_Penalty_Charging>
0.0803403

> <r_epik_Ionization_Penalty_Neutral>
0.80903

> <r_epik_State_Penalty>
0.931884

> <r_epik_Charging_Adjusted_Penalty>
1.01222

> <i_epik_Tot_Q>
1

> <i_epik_Tot_abs_Q>
1

> <r_epik_Metal_State_Penalty>
0.0782275

> <b_epik_Metal_Only>
0

> <s_lp_Force_Field>
OPLS_2005

> <r_lp_Energy>
31.6827

> <b_lp_Chiralities_Consistent>
1

> <s_lp_Variant>
AV-unprocessed.smi:2822-13

> <Gold.Version>
5.8.1

> <Gold.Id.Protein>
6NUR|6NUR_protein|mol2

> <Gold.PLP.Fitness>
45.9950

> <Gold.PLP.PLP>
-43.9592

> <Gold.PLP.part.hbond>
0.0000

> <Gold.PLP.part.metal>
0.0000

> <Gold.PLP.part.buried>
-2.0896

> <Gold.PLP.part.nonpolar>
-42.2159

> <Gold.PLP.part.repulsive>
1.1711

> <Gold.PLP.ligand.clash>
0.0000

> <Gold.PLP.ligand.torsion>
0.4836

> <Gold.PLP.Chemscore.Hbond>
0.0000

> <Gold.PLP.Chemscore.CHOScore>
1.0000

> <Gold.PLP.Chemscore.Metal>
0.0000

> <Gold.Chemscore.Hbonds>
donor molecule, donor type, donor heavy atom, donor atom, acceptor molecule, acceptor atom, score
      L1  C     3    20       P1  7948  1.00

> <Gold.PLP.Chemscore.Internal.Correction>
0.0030

> <Gold.Rescore>
     Score         DG    S(hbond)    S(metal)    S(lipo)     H(rot)  DE(clash)    DE(int)     intcor
     17.71     -18.39       0.00        0.00     135.94       1.17       0.36       0.32       ----

> <Gold.Chemscore.Fitness>
17.7056

> <Gold.Chemscore.DG>
-18.3915

> <Gold.Chemscore.ZeroCoef>
-5.4800

> <Gold.Chemscore.Hbond>
0.0000

> <Gold.Chemscore.Metal>
0.0000

> <Gold.Chemscore.Lipo>
135.9388

> <Gold.Chemscore.Internal_Hbond>
0.0000

> <Gold.Chemscore.DEClash>
0.3620

> <Gold.Chemscore.DEInternal>
0.3238

> <Gold.Chemscore.Rot>
1.1693

> <Gold.Chemscore.Internal.Correction>
   9.000000E+99

> <Gold.Chemscore.Hbond.Weighted>
-0.0000

> <Gold.Chemscore.Metal.Weighted>
-0.0000

> <Gold.Chemscore.Lipo.Weighted>
-15.9048

> <Gold.Chemscore.Internal_Hbond.Weighted>
0.0000

> <Gold.Chemscore.DEClash.Weighted>
0.3620

> <Gold.Chemscore.DEInternal.Weighted>
0.3238

> <Gold.Chemscore.Rot.Weighted>
2.9934

> <Gold.Chemscore.Internal.Correction.Weighted>
   9.000000E+99

> <Gold.Protein.RotatedTorsions>
[ 6907 6896 6895 6894 ] final  100.48 input  -60.11 | X-H torsion
[ 7974 7965 7964 7962 ] final -153.86 input  175.53 | X-H torsion
[ 8008 7997 7996 7995 ] final -119.52 input   59.86 | X-H torsion
[ 10167 10162 10161 10158 ] final -161.31 input  -65.29 | X-H torsion
[ 10718 10713 10712 10709 ] final  -92.54 input   66.30 | X-H torsion
[ 10763 10752 10751 10750 ] final  -57.51 input  -60.55 | X-H torsion
[ 11005 11000 10999 10996 ] final  -79.38 input  -57.11 | X-H torsion

> <Gold.Protein.ActiveResidues>
 VAL166  LYS551  ARG553  GLY616  TRP617  ASP618  TYR619  PRO620  LYS621  CYS622 
 ASP623  PHE694  ASN695  SER759  ASP760  ASP761  ALA762  ILE779  LEU786  VAL792 
 PHE793  MET794  SER795  GLU796  ALA797  LYS798  CYS799  TRP800  GLU811  SER814 

> <Gold.Protein.RotatedAtoms>
  152.5371  134.0270  159.8007 H   0  0  0  0  0  0  0  0  0  0  0  0  # atno 6907 bound_to 6896
  151.0447  133.5668  159.2655 H   0  0  0  0  0  0  0  0  0  0  0  0  # atno 6908 bound_to 6896
  151.2624  135.0666  159.9157 H   0  0  0  0  0  0  0  0  0  0  0  0  # atno 6909 bound_to 6896
  144.7719  140.4468  143.5901 H   0  0  0  0  0  0  0  0  0  0  0  0  # atno 7974 bound_to 7965
  155.1171  140.0398  157.2740 H   0  0  0  0  0  0  0  0  0  0  0  0  # atno 8008 bound_to 7997
  154.6642  140.2597  155.7051 H   0  0  0  0  0  0  0  0  0  0  0  0  # atno 8009 bound_to 7997
  156.2631  140.2811  156.1125 H   0  0  0  0  0  0  0  0  0  0  0  0  # atno 8010 bound_to 7997
  139.6474  144.0146  152.2137 H   0  0  0  0  0  0  0  0  0  0  0  0  # atno 10167 bound_to 10162
  156.0003  130.4991  150.5640 H   0  0  0  0  0  0  0  0  0  0  0  0  # atno 10718 bound_to 10713
  154.2236  135.6373  153.5152 H   0  0  0  0  0  0  0  0  0  0  0  0  # atno 10763 bound_to 10752
  152.9963  135.5502  154.6088 H   0  0  0  0  0  0  0  0  0  0  0  0  # atno 10764 bound_to 10752
  154.5554  135.2905  155.0943 H   0  0  0  0  0  0  0  0  0  0  0  0  # atno 10765 bound_to 10752
  141.1667  133.7103  156.8115 H   0  0  0  0  0  0  0  0  0  0  0  0  # atno 11005 bound_to 11000
  145.6299  139.1535  143.2975 LP  0  0  0  0  0  0  0  0  0  0  0  0  # atno 17320 bound_to 7965
  146.1871  140.6403  142.9162 LP  0  0  0  0  0  0  0  0  0  0  0  0  # atno 17321 bound_to 7965
  139.9851  144.6401  150.7865 LP  0  0  0  0  0  0  0  0  0  0  0  0  # atno 17342 bound_to 10162
  140.7521  143.2985  151.3142 LP  0  0  0  0  0  0  0  0  0  0  0  0  # atno 17343 bound_to 10162
  157.3545  131.0739  151.1686 LP  0  0  0  0  0  0  0  0  0  0  0  0  # atno 17370 bound_to 10713
  157.2492  130.6606  149.5923 LP  0  0  0  0  0  0  0  0  0  0  0  0  # atno 17371 bound_to 10713
  140.2184  134.8775  157.3351 LP  0  0  0  0  0  0  0  0  0  0  0  0  # atno 17394 bound_to 11000
  140.2013  134.4251  155.7661 LP  0  0  0  0  0  0  0  0  0  0  0  0  # atno 17395 bound_to 11000

$$$$
