AV-unprocessed.smi:2059|AV-procd|sdf|8349|dock1
  -GOLD-   2272011 13D 1   1.00000     0.00000
 Structure written by MMmdl.
 30 31  0  0  0  0  0  0  0  0  1 V2000
  148.1930  129.8240  153.4220 C   0  0  0  0  0  0  0  0  0  0  0  0
  148.8142  131.1040  153.8657 C   0  0  0  0  0  0  0  0  0  0  0  0
  148.7195  132.3901  153.4138 C   0  0  0  0  0  0  0  0  0  0  0  0
  149.5728  133.1073  154.2943 C   0  0  0  0  0  0  0  0  0  0  0  0
  149.7415  134.5132  154.1440 N   0  0  0  0  0  0  0  0  0  0  0  0
  150.4971  135.3934  154.8342 C   0  0  0  0  0  0  0  0  0  0  0  0
  151.2006  135.0261  155.7738 O   0  0  0  0  0  0  0  0  0  0  0  0
  150.4323  136.6739  154.4337 N   0  0  0  0  0  0  0  0  0  0  0  0
  151.1657  137.7837  155.0321 C   0  0  1  0  0  0  0  0  0  0  0  0
  150.5728  139.1514  154.6364 C   0  0  0  0  0  0  0  0  0  0  0  0
  151.1336  140.2232  155.5792 C   0  0  0  0  0  0  0  0  0  0  0  0
  151.4520  139.3823  157.1768 S   0  0  0  0  0  0  0  0  0  0  0  0
  152.8763  139.5264  157.5144 O   0  0  0  0  0  0  0  0  0  0  0  0
  150.4046  139.7444  158.1437 O   0  0  0  0  0  0  0  0  0  0  0  0
  151.1406  137.6845  156.5632 C   0  0  0  0  0  0  0  0  0  0  0  0
  150.1361  132.3244  155.2035 N   0  0  0  0  0  0  0  0  0  0  0  0
  149.6535  131.0387  154.9338 O   0  0  0  0  0  0  0  0  0  0  0  0
  147.7154  129.9397  152.4489 H   0  0  0  0  0  0  0  0  0  0  0  0
  147.4357  129.4955  154.1337 H   0  0  0  0  0  0  0  0  0  0  0  0
  148.9433  129.0376  153.3381 H   0  0  0  0  0  0  0  0  0  0  0  0
  148.1323  132.7558  152.5843 H   0  0  0  0  0  0  0  0  0  0  0  0
  149.1973  134.9220  153.3983 H   0  0  0  0  0  0  0  0  0  0  0  0
  149.8300  136.8922  153.6525 H   0  0  0  0  0  0  0  0  0  0  0  0
  152.2083  137.7502  154.7095 H   0  0  0  0  0  0  0  0  0  0  0  0
  150.7724  139.3965  153.5927 H   0  0  0  0  0  0  0  0  0  0  0  0
  149.4886  139.1180  154.7529 H   0  0  0  0  0  0  0  0  0  0  0  0
  152.0838  140.6058  155.2064 H   0  0  0  0  0  0  0  0  0  0  0  0
  150.4519  141.0614  155.7227 H   0  0  0  0  0  0  0  0  0  0  0  0
  150.1583  137.3775  156.9246 H   0  0  0  0  0  0  0  0  0  0  0  0
  151.8881  136.9973  156.9601 H   0  0  0  0  0  0  0  0  0  0  0  0
  1  2  1  0  0  0  0
  1 18  1  0  0  0  0
  1 19  1  0  0  0  0
  1 20  1  0  0  0  0
  2 17  1  0  0  0  0
  2  3  2  0  0  0  0
  3  4  1  0  0  0  0
  3 21  1  0  0  0  0
  4  5  1  0  0  0  0
  4 16  2  0  0  0  0
  5  6  1  0  0  0  0
  5 22  1  0  0  0  0
  6  7  2  0  0  0  0
  6  8  1  0  0  0  0
  8  9  1  0  0  0  0
  8 23  1  0  0  0  0
  9 15  1  0  0  0  0
  9 10  1  0  0  0  0
  9 24  1  0  0  0  0
 10 11  1  0  0  0  0
 10 25  1  0  0  0  0
 10 26  1  0  0  0  0
 11 12  1  0  0  0  0
 11 27  1  0  0  0  0
 11 28  1  0  0  0  0
 12 13  2  0  0  0  0
 12 14  2  0  0  0  0
 12 15  1  0  0  0  0
 15 29  1  0  0  0  0
 15 30  1  0  0  0  0
 16 17  1  0  0  0  0
M  END
> <s_m_source_file>
AV-unprocessed.smi

> <i_m_source_file_index>
2059

> <i_lp_mmshare_version>
43012

> <i_f3d_flags>
0

> <s_epik_input>
W0NIM11jMVtjSF1jKG5vMSlbTkhdQyg9TylbTkhdW0NAQEhdKFtDSDJdMilbQ0gyXVtDSDJdUzIoPU8pPU8=

> <s_epik_cmdline>
J2VwaWtfcHl0aG9uJywgJy1waCcsICc3LjAnLCAnLXRuJywgJzgnLCAnLW1hJywgJzIwMCcsICctbWV0YWxfYmluZGluZycsICctaW1hZScsICc8aW5maWxlLm1hZT4nLCAnLW9tYWUnLCAnPG91dGZpbGUubWFlPic=

> <r_lp_tautomer_probability>
1

> <r_epik_Ionization_Penalty>
3.88767e-05

> <r_epik_Ionization_Penalty_Charging>
0

> <r_epik_Ionization_Penalty_Neutral>
3.88767e-05

> <r_epik_State_Penalty>
-0

> <r_epik_Charging_Adjusted_Penalty>
0

> <i_epik_Tot_Q>
0

> <i_epik_Tot_abs_Q>
0

> <r_epik_Metal_State_Penalty>
0.0251347

> <b_epik_Metal_Only>
0

> <s_lp_Force_Field>
OPLS_2005

> <r_lp_Energy>
4.37502

> <b_lp_Chiralities_Consistent>
1

> <s_lp_Variant>
AV-unprocessed.smi:2059-2

> <Gold.Version>
5.8.1

> <Gold.Id.Protein>
6NUR|6NUR_protein|mol2

> <Gold.PLP.Fitness>
37.0786

> <Gold.PLP.PLP>
-26.5148

> <Gold.PLP.part.hbond>
-4.8711

> <Gold.PLP.part.metal>
0.0000

> <Gold.PLP.part.buried>
-2.4066

> <Gold.PLP.part.nonpolar>
-19.8187

> <Gold.PLP.part.repulsive>
0.1819

> <Gold.PLP.ligand.clash>
0.0000

> <Gold.PLP.ligand.torsion>
0.2287

> <Gold.PLP.Chemscore.Hbond>
3.6736

> <Gold.PLP.Chemscore.CHOScore>
0.0000

> <Gold.PLP.Chemscore.Metal>
0.0000

> <Gold.Chemscore.Hbonds>
donor molecule, donor type, donor heavy atom, donor atom, acceptor molecule, acceptor atom, score
      L1  H     5    22       P1  7948  0.75
      L1  H     8    23       P1  7948  0.84
      P1  H  7997  8009       L1    13  1.00
      P1  H 10752 10764       L1     7  0.67

> <Gold.PLP.Chemscore.Internal.Correction>
0.0004

> <Gold.Rescore>
     Score         DG    S(hbond)    S(metal)    S(lipo)     H(rot)  DE(clash)    DE(int)     intcor
     14.10     -16.77       2.71        0.00      41.12       1.00       0.01       2.66       ----

> <Gold.Chemscore.Fitness>
14.1002

> <Gold.Chemscore.DG>
-16.7712

> <Gold.Chemscore.ZeroCoef>
-5.4800

> <Gold.Chemscore.Hbond>
2.7066

> <Gold.Chemscore.Metal>
0.0000

> <Gold.Chemscore.Lipo>
41.1205

> <Gold.Chemscore.Internal_Hbond>
0.0000

> <Gold.Chemscore.DEClash>
0.0069

> <Gold.Chemscore.DEInternal>
2.6641

> <Gold.Chemscore.Rot>
1.0000

> <Gold.Chemscore.Internal.Correction>
   9.000000E+99

> <Gold.Chemscore.Hbonds>
donor molecule, donor type, donor heavy atom, donor atom, acceptor molecule, acceptor atom, score
      L1  H     5    22       P1  7948  0.09
      L1  H     8    23       P1  7948  0.40
      P1  H  7997  8009       L1    13  1.00
      P1  H 10752 10764       L1     7  0.09

> <Gold.Chemscore.Hbond.Weighted>
-9.0401

> <Gold.Chemscore.Metal.Weighted>
-0.0000

> <Gold.Chemscore.Lipo.Weighted>
-4.8111

> <Gold.Chemscore.Internal_Hbond.Weighted>
0.0000

> <Gold.Chemscore.DEClash.Weighted>
0.0069

> <Gold.Chemscore.DEInternal.Weighted>
2.6641

> <Gold.Chemscore.Rot.Weighted>
2.5600

> <Gold.Chemscore.Internal.Correction.Weighted>
   9.000000E+99

> <Gold.Protein.RotatedTorsions>
[ 6907 6896 6895 6894 ] final -118.88 input  -60.11 | X-H torsion
[ 7974 7965 7964 7962 ] final  179.79 input  175.53 | X-H torsion
[ 8008 7997 7996 7995 ] final  177.09 input   59.86 | X-H torsion
[ 10167 10162 10161 10158 ] final  -92.83 input  -65.29 | X-H torsion
[ 10718 10713 10712 10709 ] final -177.10 input   66.30 | X-H torsion
[ 10763 10752 10751 10750 ] final  -42.45 input  -60.55 | X-H torsion
[ 11005 11000 10999 10996 ] final  163.54 input  -57.11 | X-H torsion

> <Gold.Protein.ActiveResidues>
 VAL166  LYS551  ARG553  GLY616  TRP617  ASP618  TYR619  PRO620  LYS621  CYS622 
 ASP623  PHE694  ASN695  SER759  ASP760  ASP761  ALA762  ILE779  LEU786  VAL792 
 PHE793  MET794  SER795  GLU796  ALA797  LYS798  CYS799  TRP800  GLU811  SER814 

> <Gold.Protein.RotatedAtoms>
  150.8258  133.8175  159.3119 H   0  0  0  0  0  0  0  0  0  0  0  0  # atno 6907 bound_to 6896
  151.5920  135.1051  160.0050 H   0  0  0  0  0  0  0  0  0  0  0  0  # atno 6908 bound_to 6896
  152.4343  133.7291  159.6634 H   0  0  0  0  0  0  0  0  0  0  0  0  # atno 6909 bound_to 6896
  144.7142  140.0601  143.6433 H   0  0  0  0  0  0  0  0  0  0  0  0  # atno 7974 bound_to 7965
  156.0694  140.1367  156.9846 H   0  0  0  0  0  0  0  0  0  0  0  0  # atno 8008 bound_to 7997
  154.4524  140.0975  156.6708 H   0  0  0  0  0  0  0  0  0  0  0  0  # atno 8009 bound_to 7997
  155.5252  140.3457  155.4417 H   0  0  0  0  0  0  0  0  0  0  0  0  # atno 8010 bound_to 7997
  140.3308  143.2996  151.9944 H   0  0  0  0  0  0  0  0  0  0  0  0  # atno 10167 bound_to 10162
  156.8245  130.9631  151.3110 H   0  0  0  0  0  0  0  0  0  0  0  0  # atno 10718 bound_to 10713
  153.9792  135.6719  153.4749 H   0  0  0  0  0  0  0  0  0  0  0  0  # atno 10763 bound_to 10752
  153.0756  135.4950  154.8394 H   0  0  0  0  0  0  0  0  0  0  0  0  # atno 10764 bound_to 10752
  154.7174  135.3110  154.9063 H   0  0  0  0  0  0  0  0  0  0  0  0  # atno 10765 bound_to 10752
  140.2368  134.8081  157.3372 H   0  0  0  0  0  0  0  0  0  0  0  0  # atno 11005 bound_to 11000
  145.9871  139.2986  143.1007 LP  0  0  0  0  0  0  0  0  0  0  0  0  # atno 17320 bound_to 7965
  145.8944  140.9283  143.0535 LP  0  0  0  0  0  0  0  0  0  0  0  0  # atno 17321 bound_to 7965
  139.4857  144.6236  151.7207 LP  0  0  0  0  0  0  0  0  0  0  0  0  # atno 17342 bound_to 10162
  140.5399  144.0596  150.6084 LP  0  0  0  0  0  0  0  0  0  0  0  0  # atno 17343 bound_to 10162
  157.6439  130.8828  149.9501 LP  0  0  0  0  0  0  0  0  0  0  0  0  # atno 17370 bound_to 10713
  156.0969  130.3658  150.0289 LP  0  0  0  0  0  0  0  0  0  0  0  0  # atno 17371 bound_to 10713
  140.1694  134.4628  155.7842 LP  0  0  0  0  0  0  0  0  0  0  0  0  # atno 17394 bound_to 11000
  141.2214  133.6935  156.7681 LP  0  0  0  0  0  0  0  0  0  0  0  0  # atno 17395 bound_to 11000

$$$$
