AV-unprocessed.smi:2538|AV-procd|sdf|9983|dock9
  -GOLD-   2272014 33D 1   1.00000     0.00000
 Structure written by MMmdl.
 49 50  0  0  0  0  0  0  0  0  2 V2000
  151.3655  145.0562  160.0346 C   0  0  0  0  0  0  0  0  0  0  0  0
  151.9651  143.6610  160.0837 C   0  0  0  0  0  0  0  0  0  0  0  0
  152.6856  143.2770  161.2374 C   0  0  0  0  0  0  0  0  0  0  0  0
  153.2223  141.9952  161.2529 C   0  0  0  0  0  0  0  0  0  0  0  0
  153.9705  141.3264  162.2245 N   0  3  0  0  0  0  0  0  0  0  0  0
  154.2717  140.0733  161.7836 C   0  0  0  0  0  0  0  0  0  0  0  0
  153.7255  139.9329  160.5452 N   0  0  0  0  0  0  0  0  0  0  0  0
  153.7393  138.7862  159.6275 C   0  0  0  0  0  0  0  0  0  0  0  0
  152.3323  138.2056  159.3811 C   0  0  2  0  0  0  0  0  0  0  0  0
  152.1370  137.1340  160.2830 O   0  0  0  0  0  0  0  0  0  0  0  0
  152.1700  137.6809  157.9379 C   0  0  0  0  0  0  0  0  0  0  0  0
  151.8416  138.7414  156.9660 N   0  0  0  0  0  0  0  0  0  0  0  0
  150.6441  139.5397  157.2608 C   0  0  0  0  0  0  0  0  0  0  0  0
  152.3725  138.6163  155.3162 S   0  0  0  0  0  0  0  0  0  0  0  0
  152.6116  139.9877  154.8404 O   0  0  0  0  0  0  0  0  0  0  0  0
  153.4641  137.6306  155.2761 O   0  0  0  0  0  0  0  0  0  0  0  0
  150.8912  137.9295  154.4262 C   0  0  0  0  0  0  0  0  0  0  0  0
  149.7378  138.9428  154.4348 C   0  0  0  0  0  0  0  0  0  0  0  0
  150.4636  136.5868  155.0358 C   0  0  0  0  0  0  0  0  0  0  0  0
  153.0630  141.1066  160.1723 C   0  0  0  0  0  0  0  0  0  0  0  0
  152.3565  141.4679  159.0280 C   0  0  0  0  0  0  0  0  0  0  0  0
  151.8016  142.7672  158.9935 C   0  0  0  0  0  0  0  0  0  0  0  0
  151.0236  143.1893  157.7590 C   0  0  0  0  0  0  0  0  0  0  0  0
  151.6150  145.6292  160.9283 H   0  0  0  0  0  0  0  0  0  0  0  0
  150.2787  145.0028  159.9654 H   0  0  0  0  0  0  0  0  0  0  0  0
  151.7415  145.6065  159.1719 H   0  0  0  0  0  0  0  0  0  0  0  0
  152.8127  143.9515  162.0718 H   0  0  0  0  0  0  0  0  0  0  0  0
  154.8358  139.3250  162.3215 H   0  0  0  0  0  0  0  0  0  0  0  0
  154.1998  139.1063  158.6917 H   0  0  0  0  0  0  0  0  0  0  0  0
  154.3981  138.0282  160.0541 H   0  0  0  0  0  0  0  0  0  0  0  0
  151.5988  138.9806  159.5985 H   0  0  0  0  0  0  0  0  0  0  0  0
  151.3218  137.2711  160.7410 H   0  0  0  0  0  0  0  0  0  0  0  0
  153.1056  137.2252  157.6115 H   0  0  0  0  0  0  0  0  0  0  0  0
  151.4352  136.8769  157.8848 H   0  0  0  0  0  0  0  0  0  0  0  0
  149.7491  139.0384  156.8926 H   0  0  0  0  0  0  0  0  0  0  0  0
  150.7119  140.5143  156.7776 H   0  0  0  0  0  0  0  0  0  0  0  0
  150.5383  139.7033  158.3336 H   0  0  0  0  0  0  0  0  0  0  0  0
  151.1776  137.7566  153.3919 H   0  0  0  0  0  0  0  0  0  0  0  0
  148.8671  138.5497  153.9097 H   0  0  0  0  0  0  0  0  0  0  0  0
  150.0225  139.8733  153.9435 H   0  0  0  0  0  0  0  0  0  0  0  0
  149.4327  139.1827  155.4537 H   0  0  0  0  0  0  0  0  0  0  0  0
  149.6267  136.1563  154.4857 H   0  0  0  0  0  0  0  0  0  0  0  0
  150.1537  136.7023  156.0748 H   0  0  0  0  0  0  0  0  0  0  0  0
  151.2809  135.8656  155.0074 H   0  0  0  0  0  0  0  0  0  0  0  0
  152.2333  140.7866  158.1989 H   0  0  0  0  0  0  0  0  0  0  0  0
  150.9550  142.3779  157.0339 H   0  0  0  0  0  0  0  0  0  0  0  0
  151.5112  144.0331  157.2703 H   0  0  0  0  0  0  0  0  0  0  0  0
  150.0081  143.4826  158.0262 H   0  0  0  0  0  0  0  0  0  0  0  0
  154.2541  141.6947  163.1234 H   0  0  0  0  0  0  0  0  0  0  0  0
  1  2  1  0  0  0  0
  1 24  1  0  0  0  0
  1 25  1  0  0  0  0
  1 26  1  0  0  0  0
  2 22  1  0  0  0  0
  2  3  2  0  0  0  0
  3  4  1  0  0  0  0
  3 27  1  0  0  0  0
  4 20  2  0  0  0  0
  4  5  1  0  0  0  0
  5  6  2  0  0  0  0
  5 49  1  0  0  0  0
  6  7  1  0  0  0  0
  6 28  1  0  0  0  0
  7  8  1  0  0  0  0
  7 20  1  0  0  0  0
  8  9  1  0  0  0  0
  8 29  1  0  0  0  0
  8 30  1  0  0  0  0
  9 10  1  0  0  0  0
  9 11  1  0  0  0  0
  9 31  1  0  0  0  0
 10 32  1  0  0  0  0
 11 12  1  0  0  0  0
 11 33  1  0  0  0  0
 11 34  1  0  0  0  0
 12 13  1  0  0  0  0
 12 14  1  0  0  0  0
 13 35  1  0  0  0  0
 13 36  1  0  0  0  0
 13 37  1  0  0  0  0
 14 15  2  0  0  0  0
 14 16  2  0  0  0  0
 14 17  1  0  0  0  0
 17 18  1  0  0  0  0
 17 19  1  0  0  0  0
 17 38  1  0  0  0  0
 18 39  1  0  0  0  0
 18 40  1  0  0  0  0
 18 41  1  0  0  0  0
 19 42  1  0  0  0  0
 19 43  1  0  0  0  0
 19 44  1  0  0  0  0
 20 21  1  0  0  0  0
 21 22  2  0  0  0  0
 21 45  1  0  0  0  0
 22 23  1  0  0  0  0
 23 46  1  0  0  0  0
 23 47  1  0  0  0  0
 23 48  1  0  0  0  0
M  CHG  1   5   1
M  END
> <s_m_source_file>
AV-unprocessed.smi

> <i_m_source_file_index>
2538

> <i_lp_mmshare_version>
43012

> <i_f3d_flags>
0

> <s_epik_input>
W0NIM11jKFtjSF0xKWMoW0NIM10pW2NIXWMoYzEyKW4oW2NIXW4yKVtDSDJdW0NASF0oW09IXSlbQ0gyXU4oW0NIM10pUyg9TykoPU8pW0NIXShbQ0gzXSlbQ0gzXQ==

> <s_epik_cmdline>
J2VwaWtfcHl0aG9uJywgJy1waCcsICc3LjAnLCAnLXRuJywgJzgnLCAnLW1hJywgJzIwMCcsICctbWV0YWxfYmluZGluZycsICctaW1hZScsICc8aW5maWxlLm1hZT4nLCAnLW9tYWUnLCAnPG91dGZpbGUubWFlPic=

> <r_epik_Ionization_Penalty>
1.07686

> <r_epik_Ionization_Penalty_Charging>
1.07685

> <r_epik_Ionization_Penalty_Neutral>
1.40866e-06

> <r_epik_State_Penalty>
1.13193

> <r_epik_Charging_Adjusted_Penalty>
2.20879

> <i_epik_Tot_Q>
1

> <i_epik_Tot_abs_Q>
1

> <r_epik_Metal_State_Penalty>
5.12988

> <b_epik_Metal_Only>
0

> <s_lp_Force_Field>
OPLS_2005

> <r_lp_Energy>
10.0565

> <b_lp_Chiralities_Consistent>
1

> <s_lp_Variant>
AV-unprocessed.smi:2538-3

> <Gold.Version>
5.8.1

> <Gold.Id.Protein>
6NUR|6NUR_protein|mol2

> <Gold.PLP.Fitness>
53.5762

> <Gold.PLP.PLP>
-49.3402

> <Gold.PLP.part.hbond>
-4.1496

> <Gold.PLP.part.metal>
0.0000

> <Gold.PLP.part.buried>
-6.6814

> <Gold.PLP.part.nonpolar>
-39.9085

> <Gold.PLP.part.repulsive>
0.0476

> <Gold.PLP.ligand.clash>
0.0000

> <Gold.PLP.ligand.torsion>
2.0951

> <Gold.PLP.Chemscore.Hbond>
1.9356

> <Gold.PLP.Chemscore.CHOScore>
0.0000

> <Gold.PLP.Chemscore.Metal>
0.0000

> <Gold.Chemscore.Hbonds>
donor molecule, donor type, donor heavy atom, donor atom, acceptor molecule, acceptor atom, score
      P1  H  6896  6908       L1    10  0.55
      P1  H  7989  7998       L1    15  0.50
      P1  H  7997  8008       L1    15  0.57
      P1  H 10752 10765       L1    16  0.07

> <Gold.PLP.Chemscore.Internal.Correction>
2.6195

> <Gold.Rescore>
     Score         DG    S(hbond)    S(metal)    S(lipo)     H(rot)  DE(clash)    DE(int)     intcor
     18.90     -21.88       2.31        0.00     125.90       2.36       0.14       2.84       ----

> <Gold.Chemscore.Fitness>
18.8997

> <Gold.Chemscore.DG>
-21.8767

> <Gold.Chemscore.ZeroCoef>
-5.4800

> <Gold.Chemscore.Hbond>
2.3072

> <Gold.Chemscore.Metal>
0.0000

> <Gold.Chemscore.Lipo>
125.9040

> <Gold.Chemscore.Internal_Hbond>
0.0000

> <Gold.Chemscore.DEClash>
0.1395

> <Gold.Chemscore.DEInternal>
2.8375

> <Gold.Chemscore.Rot>
2.3595

> <Gold.Chemscore.Internal.Correction>
   9.000000E+99

> <Gold.Chemscore.Hbonds>
donor molecule, donor type, donor heavy atom, donor atom, acceptor molecule, acceptor atom, score
      P1  H  6896  6908       L1    10  0.03
      P1  H  7989  7998       L1    15  0.50
      P1  H  7997  8008       L1    15  0.10
      P1  H 10752 10765       L1    16  0.08

> <Gold.Chemscore.Hbond.Weighted>
-7.7062

> <Gold.Chemscore.Metal.Weighted>
-0.0000

> <Gold.Chemscore.Lipo.Weighted>
-14.7308

> <Gold.Chemscore.Internal_Hbond.Weighted>
0.0000

> <Gold.Chemscore.DEClash.Weighted>
0.1395

> <Gold.Chemscore.DEInternal.Weighted>
2.8375

> <Gold.Chemscore.Rot.Weighted>
6.0403

> <Gold.Chemscore.Internal.Correction.Weighted>
   9.000000E+99

> <Gold.Protein.RotatedTorsions>
[ 6907 6896 6895 6894 ] final -111.89 input  -60.11 | X-H torsion
[ 7974 7965 7964 7962 ] final  109.62 input  175.53 | X-H torsion
[ 8008 7997 7996 7995 ] final   -2.25 input   59.86 | X-H torsion
[ 10167 10162 10161 10158 ] final -149.83 input  -65.29 | X-H torsion
[ 10718 10713 10712 10709 ] final -113.07 input   66.30 | X-H torsion
[ 10763 10752 10751 10750 ] final -138.08 input  -60.55 | X-H torsion
[ 11005 11000 10999 10996 ] final  115.03 input  -57.11 | X-H torsion

> <Gold.Protein.ActiveResidues>
 VAL166  LYS551  ARG553  GLY616  TRP617  ASP618  TYR619  PRO620  LYS621  CYS622 
 ASP623  PHE694  ASN695  SER759  ASP760  ASP761  ALA762  ILE779  LEU786  VAL792 
 PHE793  MET794  SER795  GLU796  ALA797  LYS798  CYS799  TRP800  GLU811  SER814 

> <Gold.Protein.RotatedAtoms>
  150.7720  133.9170  159.3386 H   0  0  0  0  0  0  0  0  0  0  0  0  # atno 6907 bound_to 6896
  151.7054  135.0920  160.0267 H   0  0  0  0  0  0  0  0  0  0  0  0  # atno 6908 bound_to 6896
  152.3742  133.6421  159.6146 H   0  0  0  0  0  0  0  0  0  0  0  0  # atno 6909 bound_to 6896
  145.2654  139.2686  143.3994 H   0  0  0  0  0  0  0  0  0  0  0  0  # atno 7974 bound_to 7965
  154.6378  140.2539  155.7357 H   0  0  0  0  0  0  0  0  0  0  0  0  # atno 8008 bound_to 7997
  156.2513  140.2893  156.0679 H   0  0  0  0  0  0  0  0  0  0  0  0  # atno 8009 bound_to 7997
  155.1643  140.0385  157.2840 H   0  0  0  0  0  0  0  0  0  0  0  0  # atno 8010 bound_to 7997
  139.7408  143.8665  152.2561 H   0  0  0  0  0  0  0  0  0  0  0  0  # atno 10167 bound_to 10162
  156.0744  130.5953  150.8592 H   0  0  0  0  0  0  0  0  0  0  0  0  # atno 10718 bound_to 10713
  154.8646  135.3623  154.5327 H   0  0  0  0  0  0  0  0  0  0  0  0  # atno 10763 bound_to 10752
  153.5952  135.7014  153.5411 H   0  0  0  0  0  0  0  0  0  0  0  0  # atno 10764 bound_to 10752
  153.3338  135.4117  155.1479 H   0  0  0  0  0  0  0  0  0  0  0  0  # atno 10765 bound_to 10752
  139.8998  134.9577  156.6982 H   0  0  0  0  0  0  0  0  0  0  0  0  # atno 11005 bound_to 11000
  146.3262  140.3082  142.8625 LP  0  0  0  0  0  0  0  0  0  0  0  0  # atno 17320 bound_to 7965
  144.9381  140.8049  143.5647 LP  0  0  0  0  0  0  0  0  0  0  0  0  # atno 17321 bound_to 7965
  139.8615  144.7114  150.9094 LP  0  0  0  0  0  0  0  0  0  0  0  0  # atno 17342 bound_to 10162
  140.7785  143.3813  151.1471 LP  0  0  0  0  0  0  0  0  0  0  0  0  # atno 17343 bound_to 10162
  157.5831  131.0946  150.9239 LP  0  0  0  0  0  0  0  0  0  0  0  0  # atno 17370 bound_to 10713
  156.9430  130.5391  149.5280 LP  0  0  0  0  0  0  0  0  0  0  0  0  # atno 17371 bound_to 10713
  140.7171  133.9173  155.8122 LP  0  0  0  0  0  0  0  0  0  0  0  0  # atno 17394 bound_to 11000
  141.0256  134.0828  157.4072 LP  0  0  0  0  0  0  0  0  0  0  0  0  # atno 17395 bound_to 11000

$$$$
