AV-unprocessed.smi:2732|AV-procd|sdf|10532|dock2
  -GOLD-   2272014573D 1   1.00000     0.00000
 Structure written by MMmdl.
 34 35  0  0  0  0  0  0  0  0  1 V2000
  149.2338  132.3100  153.3649 C   0  0  0  0  0  0  0  0  0  0  0  0
  148.1266  131.3091  153.7271 C   0  0  2  0  0  0  0  0  0  0  0  0
  148.5516  130.0233  153.2834 O   0  0  0  0  0  0  0  0  0  0  0  0
  147.8546  128.9205  153.8502 C   0  0  0  0  0  0  0  0  0  0  0  0
  147.5880  127.9049  152.7604 C   0  0  0  0  0  0  0  0  0  0  0  0
  148.5163  127.7942  151.5724 C   0  0  0  0  0  0  0  0  0  0  0  0
  147.1273  128.3519  151.3915 C   0  0  0  0  0  0  0  0  0  0  0  0
  146.7916  131.6857  153.0640 C   0  0  0  0  0  0  0  0  0  0  0  0
  145.8153  131.9483  153.7663 O   0  0  0  0  0  0  0  0  0  0  0  0
  146.7895  131.6969  151.7182 N   0  0  0  0  0  0  0  0  0  0  0  0
  145.7308  132.0496  150.8385 C   0  0  0  0  0  0  0  0  0  0  0  0
  144.5326  132.6803  151.2511 C   0  0  0  0  0  0  0  0  0  0  0  0
  143.5663  133.0068  150.2800 C   0  0  0  0  0  0  0  0  0  0  0  0
  143.8353  132.7002  148.9314 C   0  0  0  0  0  0  0  0  0  0  0  0
  142.9034  133.0112  147.9445 N   0  0  0  0  0  0  0  0  0  0  0  0
  144.9789  132.1109  148.5239 N   0  0  0  0  0  0  0  0  0  0  0  0
  145.9013  131.8009  149.4602 C   0  0  0  0  0  0  0  0  0  0  0  0
  148.9649  133.3246  153.6614 H   0  0  0  0  0  0  0  0  0  0  0  0
  149.4360  132.3154  152.2929 H   0  0  0  0  0  0  0  0  0  0  0  0
  150.1642  132.0551  153.8730 H   0  0  0  0  0  0  0  0  0  0  0  0
  148.0148  131.2983  154.8133 H   0  0  0  0  0  0  0  0  0  0  0  0
  148.4572  128.4534  154.6302 H   0  0  0  0  0  0  0  0  0  0  0  0
  146.9079  129.2272  154.2969 H   0  0  0  0  0  0  0  0  0  0  0  0
  147.1619  126.9714  153.1235 H   0  0  0  0  0  0  0  0  0  0  0  0
  149.3500  128.4914  151.5142 H   0  0  0  0  0  0  0  0  0  0  0  0
  148.7149  126.7978  151.1832 H   0  0  0  0  0  0  0  0  0  0  0  0
  146.3989  127.7282  150.8773 H   0  0  0  0  0  0  0  0  0  0  0  0
  147.0364  129.4211  151.2105 H   0  0  0  0  0  0  0  0  0  0  0  0
  147.6331  131.3664  151.2722 H   0  0  0  0  0  0  0  0  0  0  0  0
  144.3435  132.9340  152.2826 H   0  0  0  0  0  0  0  0  0  0  0  0
  142.6430  133.4874  150.5686 H   0  0  0  0  0  0  0  0  0  0  0  0
  142.0253  133.4573  148.1674 H   0  0  0  0  0  0  0  0  0  0  0  0
  143.0807  132.8065  146.9716 H   0  0  0  0  0  0  0  0  0  0  0  0
  146.8051  131.3354  149.0951 H   0  0  0  0  0  0  0  0  0  0  0  0
  1  2  1  0  0  0  0
  1 18  1  0  0  0  0
  1 19  1  0  0  0  0
  1 20  1  0  0  0  0
  2  3  1  0  0  0  0
  2  8  1  0  0  0  0
  2 21  1  0  0  0  0
  3  4  1  0  0  0  0
  4  5  1  0  0  0  0
  4 22  1  0  0  0  0
  4 23  1  0  0  0  0
  5  7  1  0  0  0  0
  5  6  1  0  0  0  0
  5 24  1  0  0  0  0
  6  7  1  0  0  0  0
  6 25  1  0  0  0  0
  6 26  1  0  0  0  0
  7 27  1  0  0  0  0
  7 28  1  0  0  0  0
  8  9  2  0  0  0  0
  8 10  1  0  0  0  0
 10 11  1  0  0  0  0
 10 29  1  0  0  0  0
 11 17  1  0  0  0  0
 11 12  2  0  0  0  0
 12 13  1  0  0  0  0
 12 30  1  0  0  0  0
 13 14  2  0  0  0  0
 13 31  1  0  0  0  0
 14 15  1  0  0  0  0
 14 16  1  0  0  0  0
 15 32  1  0  0  0  0
 15 33  1  0  0  0  0
 16 17  2  0  0  0  0
 17 34  1  0  0  0  0
M  END
> <s_m_source_file>
AV-unprocessed.smi

> <i_m_source_file_index>
2732

> <i_lp_mmshare_version>
43012

> <i_f3d_flags>
0

> <s_epik_input>
W0NIMl0xW0NIMl1bQ0hdMVtDSDJdT1tDQEBIXShbQ0gzXSlDKD1PKVtOSF1jMltjSF1bY0hdYyhbTkgyXSluW2NIXTI=

> <s_epik_cmdline>
J2VwaWtfcHl0aG9uJywgJy1waCcsICc3LjAnLCAnLXRuJywgJzgnLCAnLW1hJywgJzIwMCcsICctbWV0YWxfYmluZGluZycsICctaW1hZScsICc8aW5maWxlLm1hZT4nLCAnLW9tYWUnLCAnPG91dGZpbGUubWFlPic=

> <r_lp_tautomer_probability>
1

> <r_epik_Ionization_Penalty>
0.0764773

> <r_epik_Ionization_Penalty_Charging>
0

> <r_epik_Ionization_Penalty_Neutral>
0.0764773

> <r_epik_State_Penalty>
0.0673619

> <r_epik_Charging_Adjusted_Penalty>
0.0673619

> <i_epik_Tot_Q>
0

> <i_epik_Tot_abs_Q>
0

> <r_epik_Metal_State_Penalty>
0.0594329

> <b_epik_Metal_Only>
0

> <s_lp_Force_Field>
OPLS_2005

> <r_lp_Energy>
19.1894

> <b_lp_Chiralities_Consistent>
1

> <s_lp_Variant>
AV-unprocessed.smi:2732-1

> <Gold.Version>
5.8.1

> <Gold.Id.Protein>
6NUR|6NUR_protein|mol2

> <Gold.PLP.Fitness>
46.0467

> <Gold.PLP.PLP>
-36.7319

> <Gold.PLP.part.hbond>
-4.6333

> <Gold.PLP.part.metal>
0.0000

> <Gold.PLP.part.buried>
-5.7485

> <Gold.PLP.part.nonpolar>
-27.3461

> <Gold.PLP.part.repulsive>
1.3604

> <Gold.PLP.ligand.clash>
0.0000

> <Gold.PLP.ligand.torsion>
0.7334

> <Gold.PLP.Chemscore.Hbond>
2.4080

> <Gold.PLP.Chemscore.CHOScore>
1.0000

> <Gold.PLP.Chemscore.Metal>
0.0000

> <Gold.Chemscore.Hbonds>
donor molecule, donor type, donor heavy atom, donor atom, acceptor molecule, acceptor atom, score
      L1  H    10    29       P1 10747  1.00
      L1  H    15    32       P1 10186  0.94
      L1  H    15    33       P1 10195  0.46
      L1  C    17    34       P1 10747  1.00

> <Gold.PLP.Chemscore.Internal.Correction>
0.5577

> <Gold.Rescore>
     Score         DG    S(hbond)    S(metal)    S(lipo)     H(rot)  DE(clash)    DE(int)     intcor
     16.59     -19.15       2.54        0.00      82.00       1.72       0.53       2.04       ----

> <Gold.Chemscore.Fitness>
16.5852

> <Gold.Chemscore.DG>
-19.1494

> <Gold.Chemscore.ZeroCoef>
-5.4800

> <Gold.Chemscore.Hbond>
2.5414

> <Gold.Chemscore.Metal>
0.0000

> <Gold.Chemscore.Lipo>
81.9998

> <Gold.Chemscore.Internal_Hbond>
0.0000

> <Gold.Chemscore.DEClash>
0.5290

> <Gold.Chemscore.DEInternal>
2.0353

> <Gold.Chemscore.Rot>
1.7237

> <Gold.Chemscore.Internal.Correction>
   9.000000E+99

> <Gold.Chemscore.Hbonds>
donor molecule, donor type, donor heavy atom, donor atom, acceptor molecule, acceptor atom, score
      L1  H    10    29       P1 10747  1.00
      L1  H    15    32       P1 10186  0.90
      L1  H    15    33       P1 10195  0.45

> <Gold.Chemscore.Hbond.Weighted>
-8.4882

> <Gold.Chemscore.Metal.Weighted>
-0.0000

> <Gold.Chemscore.Lipo.Weighted>
-9.5940

> <Gold.Chemscore.Internal_Hbond.Weighted>
0.0000

> <Gold.Chemscore.DEClash.Weighted>
0.5290

> <Gold.Chemscore.DEInternal.Weighted>
2.0353

> <Gold.Chemscore.Rot.Weighted>
4.4127

> <Gold.Chemscore.Internal.Correction.Weighted>
   9.000000E+99

> <Gold.Protein.RotatedTorsions>
[ 6907 6896 6895 6894 ] final  -96.70 input  -60.11 | X-H torsion
[ 7974 7965 7964 7962 ] final -150.84 input  175.53 | X-H torsion
[ 8008 7997 7996 7995 ] final  -72.25 input   59.86 | X-H torsion
[ 10167 10162 10161 10158 ] final -144.57 input  -65.29 | X-H torsion
[ 10718 10713 10712 10709 ] final  -10.00 input   66.30 | X-H torsion
[ 10763 10752 10751 10750 ] final  -57.42 input  -60.55 | X-H torsion
[ 11005 11000 10999 10996 ] final    2.57 input  -57.11 | X-H torsion

> <Gold.Protein.ActiveResidues>
 VAL166  LYS551  ARG553  GLY616  TRP617  ASP618  TYR619  PRO620  LYS621  CYS622 
 ASP623  PHE694  ASN695  SER759  ASP760  ASP761  ALA762  ILE779  LEU786  VAL792 
 PHE793  MET794  SER795  GLU796  ALA797  LYS798  CYS799  TRP800  GLU811  SER814 

> <Gold.Protein.RotatedAtoms>
  150.6996  134.1462  159.4123 H   0  0  0  0  0  0  0  0  0  0  0  0  # atno 6907 bound_to 6896
  151.9445  135.0195  160.0547 H   0  0  0  0  0  0  0  0  0  0  0  0  # atno 6908 bound_to 6896
  152.2064  133.4844  159.5123 H   0  0  0  0  0  0  0  0  0  0  0  0  # atno 6909 bound_to 6896
  144.7884  140.4878  143.5790 H   0  0  0  0  0  0  0  0  0  0  0  0  # atno 7974 bound_to 7965
  154.5151  140.0800  156.8066 H   0  0  0  0  0  0  0  0  0  0  0  0  # atno 8008 bound_to 7997
  155.3698  140.3422  155.4225 H   0  0  0  0  0  0  0  0  0  0  0  0  # atno 8009 bound_to 7997
  156.1618  140.1591  156.8586 H   0  0  0  0  0  0  0  0  0  0  0  0  # atno 8010 bound_to 7997
  139.7886  143.7998  152.2647 H   0  0  0  0  0  0  0  0  0  0  0  0  # atno 10167 bound_to 10162
  156.6798  130.5033  149.5975 H   0  0  0  0  0  0  0  0  0  0  0  0  # atno 10718 bound_to 10713
  154.2221  135.6376  153.5148 H   0  0  0  0  0  0  0  0  0  0  0  0  # atno 10763 bound_to 10752
  152.9967  135.5499  154.6103 H   0  0  0  0  0  0  0  0  0  0  0  0  # atno 10764 bound_to 10752
  154.5566  135.2905  155.0933 H   0  0  0  0  0  0  0  0  0  0  0  0  # atno 10765 bound_to 10752
  140.6029  133.9819  155.8140 H   0  0  0  0  0  0  0  0  0  0  0  0  # atno 11005 bound_to 11000
  145.5859  139.1492  143.3209 LP  0  0  0  0  0  0  0  0  0  0  0  0  # atno 17320 bound_to 7965
  146.2126  140.5987  142.9053 LP  0  0  0  0  0  0  0  0  0  0  0  0  # atno 17321 bound_to 7965
  139.8082  144.7346  150.9732 LP  0  0  0  0  0  0  0  0  0  0  0  0  # atno 17342 bound_to 10162
  140.7820  143.4276  151.0743 LP  0  0  0  0  0  0  0  0  0  0  0  0  # atno 17343 bound_to 10162
  156.1876  130.6539  151.1024 LP  0  0  0  0  0  0  0  0  0  0  0  0  # atno 17370 bound_to 10713
  157.7048  131.0761  150.6704 LP  0  0  0  0  0  0  0  0  0  0  0  0  # atno 17371 bound_to 10713
  141.0860  133.9989  157.3312 LP  0  0  0  0  0  0  0  0  0  0  0  0  # atno 17394 bound_to 11000
  139.9225  135.0201  156.8115 LP  0  0  0  0  0  0  0  0  0  0  0  0  # atno 17395 bound_to 11000

$$$$
