AV-unprocessed.smi:2759|AV-procd|sdf|10626|dock8
  -GOLD-   2272015 73D 1   1.00000     0.00000
 Structure written by MMmdl.
 43 44  0  0  0  0  0  0  0  0  1 V2000
  146.2740  133.8351  160.8164 C   0  0  0  0  0  0  0  0  0  0  0  0
  145.8450  135.2457  161.2660 C   0  0  0  0  0  0  0  0  0  0  0  0
  144.3914  135.4908  160.8193 C   0  0  0  0  0  0  0  0  0  0  0  0
  146.8221  136.3363  160.7510 C   0  0  2  0  0  0  0  0  0  0  0  0
  146.4028  137.5948  161.2479 O   0  0  0  0  0  0  0  0  0  0  0  0
  146.8905  136.4525  159.2119 C   0  0  0  0  0  0  0  0  0  0  0  0
  148.2029  136.9783  158.7296 C   0  0  0  0  0  0  0  0  0  0  0  0
  148.4237  138.1308  158.1021 N   0  0  0  0  0  0  0  0  0  0  0  0
  149.7822  138.1172  157.9992 C   0  0  0  0  0  0  0  0  0  0  0  0
  150.5580  139.2336  157.3753 C   0  0  0  0  0  0  0  0  0  0  0  0
  151.0851  140.1901  158.4478 C   0  0  0  0  0  0  0  0  0  0  0  0
  151.7905  139.7627  159.3612 O   0  0  0  0  0  0  0  0  0  0  0  0
  150.7392  141.4816  158.3234 N   0  0  0  0  0  0  0  0  0  0  0  0
  151.0968  142.5447  159.2576 C   0  0  0  0  0  0  0  0  0  0  0  0
  150.2658  143.8127  158.9827 C   0  0  0  0  0  0  0  0  0  0  0  0
  151.2615  144.9733  158.9528 C   0  0  0  0  0  0  0  0  0  0  0  0
  152.5605  144.3434  158.4605 C   0  0  0  0  0  0  0  0  0  0  0  0
  152.5743  142.9585  159.1083 C   0  0  0  0  0  0  0  0  0  0  0  0
  150.3901  137.0505  158.5061 N   0  0  0  0  0  0  0  0  0  0  0  0
  149.3313  136.2855  159.0158 O   0  0  0  0  0  0  0  0  0  0  0  0
  146.3110  133.7607  159.7292 H   0  0  0  0  0  0  0  0  0  0  0  0
  145.5762  133.0783  161.1761 H   0  0  0  0  0  0  0  0  0  0  0  0
  147.2576  133.5667  161.2022 H   0  0  0  0  0  0  0  0  0  0  0  0
  145.8602  135.2603  162.3568 H   0  0  0  0  0  0  0  0  0  0  0  0
  144.3207  135.5865  159.7353 H   0  0  0  0  0  0  0  0  0  0  0  0
  143.9700  136.3904  161.2658 H   0  0  0  0  0  0  0  0  0  0  0  0
  143.7451  134.6656  161.1195 H   0  0  0  0  0  0  0  0  0  0  0  0
  147.8184  136.1253  161.1426 H   0  0  0  0  0  0  0  0  0  0  0  0
  146.1051  137.4832  162.1381 H   0  0  0  0  0  0  0  0  0  0  0  0
  146.7563  135.4797  158.7426 H   0  0  0  0  0  0  0  0  0  0  0  0
  146.0867  137.0863  158.8348 H   0  0  0  0  0  0  0  0  0  0  0  0
  151.3890  138.8273  156.7969 H   0  0  0  0  0  0  0  0  0  0  0  0
  149.9221  139.7804  156.6778 H   0  0  0  0  0  0  0  0  0  0  0  0
  150.1639  141.7431  157.5357 H   0  0  0  0  0  0  0  0  0  0  0  0
  150.9154  142.2087  160.2804 H   0  0  0  0  0  0  0  0  0  0  0  0
  149.7708  143.7465  158.0123 H   0  0  0  0  0  0  0  0  0  0  0  0
  149.4862  143.9643  159.7299 H   0  0  0  0  0  0  0  0  0  0  0  0
  150.9280  145.7972  158.3211 H   0  0  0  0  0  0  0  0  0  0  0  0
  151.4025  145.3629  159.9619 H   0  0  0  0  0  0  0  0  0  0  0  0
  152.5313  144.2415  157.3748 H   0  0  0  0  0  0  0  0  0  0  0  0
  153.4395  144.9353  158.7173 H   0  0  0  0  0  0  0  0  0  0  0  0
  153.0267  143.0299  160.0980 H   0  0  0  0  0  0  0  0  0  0  0  0
  153.1711  142.2469  158.5360 H   0  0  0  0  0  0  0  0  0  0  0  0
  1  2  1  0  0  0  0
  1 21  1  0  0  0  0
  1 22  1  0  0  0  0
  1 23  1  0  0  0  0
  2  3  1  0  0  0  0
  2  4  1  0  0  0  0
  2 24  1  0  0  0  0
  3 25  1  0  0  0  0
  3 26  1  0  0  0  0
  3 27  1  0  0  0  0
  4  5  1  0  0  0  0
  4  6  1  0  0  0  0
  4 28  1  0  0  0  0
  5 29  1  0  0  0  0
  6  7  1  0  0  0  0
  6 30  1  0  0  0  0
  6 31  1  0  0  0  0
  7 20  1  0  0  0  0
  7  8  2  0  0  0  0
  8  9  1  0  0  0  0
  9 10  1  0  0  0  0
  9 19  2  0  0  0  0
 10 11  1  0  0  0  0
 10 32  1  0  0  0  0
 10 33  1  0  0  0  0
 11 12  2  0  0  0  0
 11 13  1  0  0  0  0
 13 14  1  0  0  0  0
 13 34  1  0  0  0  0
 14 18  1  0  0  0  0
 14 15  1  0  0  0  0
 14 35  1  0  0  0  0
 15 16  1  0  0  0  0
 15 36  1  0  0  0  0
 15 37  1  0  0  0  0
 16 17  1  0  0  0  0
 16 38  1  0  0  0  0
 16 39  1  0  0  0  0
 17 18  1  0  0  0  0
 17 40  1  0  0  0  0
 17 41  1  0  0  0  0
 18 42  1  0  0  0  0
 18 43  1  0  0  0  0
 19 20  1  0  0  0  0
M  END
> <s_m_source_file>
AV-unprocessed.smi

> <i_m_source_file_index>
2759

> <i_lp_mmshare_version>
43012

> <i_f3d_flags>
0

> <s_epik_input>
W0NIM11bQ0hdKFtDSDNdKVtDQEhdKFtPSF0pW0NIMl1jMW5jKG5vMSlbQ0gyXUMoPU8pW05IXVtDSF0yW0NIMl1bQ0gyXVtDSDJdW0NIMl0y

> <s_epik_cmdline>
J2VwaWtfcHl0aG9uJywgJy1waCcsICc3LjAnLCAnLXRuJywgJzgnLCAnLW1hJywgJzIwMCcsICctbWV0YWxfYmluZGluZycsICctaW1hZScsICc8aW5maWxlLm1hZT4nLCAnLW9tYWUnLCAnPG91dGZpbGUubWFlPic=

> <r_lp_tautomer_probability>
1

> <r_epik_Ionization_Penalty>
1.20032e-07

> <r_epik_Ionization_Penalty_Charging>
0

> <r_epik_Ionization_Penalty_Neutral>
1.20032e-07

> <r_epik_State_Penalty>
-0

> <r_epik_Charging_Adjusted_Penalty>
0

> <i_epik_Tot_Q>
0

> <i_epik_Tot_abs_Q>
0

> <r_epik_Metal_State_Penalty>
-0

> <b_epik_Metal_Only>
0

> <s_lp_Force_Field>
OPLS_2005

> <r_lp_Energy>
19.5735

> <b_lp_Chiralities_Consistent>
1

> <s_lp_Variant>
AV-unprocessed.smi:2759-1

> <Gold.Version>
5.8.1

> <Gold.Id.Protein>
6NUR|6NUR_protein|mol2

> <Gold.PLP.Fitness>
47.0402

> <Gold.PLP.PLP>
-42.8413

> <Gold.PLP.part.hbond>
-3.8085

> <Gold.PLP.part.metal>
0.0000

> <Gold.PLP.part.buried>
-5.3934

> <Gold.PLP.part.nonpolar>
-33.1582

> <Gold.PLP.part.repulsive>
0.1325

> <Gold.PLP.ligand.clash>
0.0000

> <Gold.PLP.ligand.torsion>
0.8415

> <Gold.PLP.Chemscore.Hbond>
1.9324

> <Gold.PLP.Chemscore.CHOScore>
0.0000

> <Gold.PLP.Chemscore.Metal>
0.0000

> <Gold.Chemscore.Hbonds>
donor molecule, donor type, donor heavy atom, donor atom, acceptor molecule, acceptor atom, score
      P1  H  6896  6908       L1    20  0.22
      P1  H  6934  6947       L1     5  1.00

> <Gold.PLP.Chemscore.Internal.Correction>
0.0847

> <Gold.Rescore>
     Score         DG    S(hbond)    S(metal)    S(lipo)     H(rot)  DE(clash)    DE(int)     intcor
     14.51     -15.73       1.77        0.00      95.26       2.65       0.02       1.20       ----

> <Gold.Chemscore.Fitness>
14.5104

> <Gold.Chemscore.DG>
-15.7333

> <Gold.Chemscore.ZeroCoef>
-5.4800

> <Gold.Chemscore.Hbond>
1.7672

> <Gold.Chemscore.Metal>
0.0000

> <Gold.Chemscore.Lipo>
95.2636

> <Gold.Chemscore.Internal_Hbond>
0.0000

> <Gold.Chemscore.DEClash>
0.0202

> <Gold.Chemscore.DEInternal>
1.2026

> <Gold.Chemscore.Rot>
2.6543

> <Gold.Chemscore.Internal.Correction>
   9.000000E+99

> <Gold.Chemscore.Hbonds>
donor molecule, donor type, donor heavy atom, donor atom, acceptor molecule, acceptor atom, score
      P1  H  6934  6947       L1     5  0.90

> <Gold.Chemscore.Hbond.Weighted>
-5.9024

> <Gold.Chemscore.Metal.Weighted>
-0.0000

> <Gold.Chemscore.Lipo.Weighted>
-11.1458

> <Gold.Chemscore.Internal_Hbond.Weighted>
0.0000

> <Gold.Chemscore.DEClash.Weighted>
0.0202

> <Gold.Chemscore.DEInternal.Weighted>
1.2026

> <Gold.Chemscore.Rot.Weighted>
6.7950

> <Gold.Chemscore.Internal.Correction.Weighted>
   9.000000E+99

> <Gold.Protein.RotatedTorsions>
[ 6907 6896 6895 6894 ] final -169.83 input  -60.11 | X-H torsion
[ 7974 7965 7964 7962 ] final  -47.64 input  175.53 | X-H torsion
[ 8008 7997 7996 7995 ] final   74.32 input   59.86 | X-H torsion
[ 10167 10162 10161 10158 ] final -152.88 input  -65.29 | X-H torsion
[ 10718 10713 10712 10709 ] final  -17.96 input   66.30 | X-H torsion
[ 10763 10752 10751 10750 ] final  136.16 input  -60.55 | X-H torsion
[ 11005 11000 10999 10996 ] final  129.99 input  -57.11 | X-H torsion

> <Gold.Protein.ActiveResidues>
 VAL166  LYS551  ARG553  GLY616  TRP617  ASP618  TYR619  PRO620  LYS621  CYS622 
 ASP623  PHE694  ASN695  SER759  ASP760  ASP761  ALA762  ILE779  LEU786  VAL792 
 PHE793  MET794  SER795  GLU796  ALA797  LYS798  CYS799  TRP800  GLU811  SER814 

> <Gold.Protein.RotatedAtoms>
  151.4979  133.3510  159.2863 H   0  0  0  0  0  0  0  0  0  0  0  0  # atno 6907 bound_to 6896
  150.8792  134.8182  159.7223 H   0  0  0  0  0  0  0  0  0  0  0  0  # atno 6908 bound_to 6896
  152.4751  134.4874  159.9736 H   0  0  0  0  0  0  0  0  0  0  0  0  # atno 6909 bound_to 6896
  145.9595  140.7493  142.9464 H   0  0  0  0  0  0  0  0  0  0  0  0  # atno 7974 bound_to 7965
  155.7967  140.3477  155.5379 H   0  0  0  0  0  0  0  0  0  0  0  0  # atno 8008 bound_to 7997
  155.8580  140.0966  157.1652 H   0  0  0  0  0  0  0  0  0  0  0  0  # atno 8009 bound_to 7997
  154.4010  140.1364  156.3912 H   0  0  0  0  0  0  0  0  0  0  0  0  # atno 8010 bound_to 7997
  139.7144  143.9056  152.2480 H   0  0  0  0  0  0  0  0  0  0  0  0  # atno 10167 bound_to 10162
  156.5662  130.4738  149.6384 H   0  0  0  0  0  0  0  0  0  0  0  0  # atno 10718 bound_to 10713
  153.8520  135.3078  155.3433 H   0  0  0  0  0  0  0  0  0  0  0  0  # atno 10763 bound_to 10752
  154.7887  135.4795  154.0006 H   0  0  0  0  0  0  0  0  0  0  0  0  # atno 10764 bound_to 10752
  153.1513  135.6843  153.8972 H   0  0  0  0  0  0  0  0  0  0  0  0  # atno 10765 bound_to 10752
  139.9647  134.9593  156.9229 H   0  0  0  0  0  0  0  0  0  0  0  0  # atno 11005 bound_to 11000
  144.6812  140.2567  143.7324 LP  0  0  0  0  0  0  0  0  0  0  0  0  # atno 17320 bound_to 7965
  145.8060  139.1983  143.2020 LP  0  0  0  0  0  0  0  0  0  0  0  0  # atno 17321 bound_to 7965
  139.8935  144.6952  150.8744 LP  0  0  0  0  0  0  0  0  0  0  0  0  # atno 17342 bound_to 10162
  140.7740  143.3568  151.1905 LP  0  0  0  0  0  0  0  0  0  0  0  0  # atno 17343 bound_to 10162
  156.2755  130.7041  151.1851 LP  0  0  0  0  0  0  0  0  0  0  0  0  # atno 17370 bound_to 10713
  157.7358  131.0569  150.5450 LP  0  0  0  0  0  0  0  0  0  0  0  0  # atno 17371 bound_to 10713
  140.5423  134.0708  155.7345 LP  0  0  0  0  0  0  0  0  0  0  0  0  # atno 17394 bound_to 11000
  141.1326  133.9276  157.2503 LP  0  0  0  0  0  0  0  0  0  0  0  0  # atno 17395 bound_to 11000

$$$$
