AV-unprocessed.smi:876|AV-procd|sdf|4020|dock5
  -GOLD-   22720 1503D 1   1.00000     0.00000
 Structure written by MMmdl.
 41 42  0  0  0  0  0  0  0  0  2 V2000
  146.1671  138.8706  150.8400 C   0  0  0  0  0  0  0  0  0  0  0  0
  146.4090  138.4742  152.2212 N   0  0  0  0  0  0  0  0  0  0  0  0
  145.8039  137.2591  152.7552 C   0  0  0  0  0  0  0  0  0  0  0  0
  147.1815  139.3027  153.0638 C   0  0  0  0  0  0  0  0  0  0  0  0
  148.0465  138.7978  154.0654 C   0  0  0  0  0  0  0  0  0  0  0  0
  148.7910  139.6866  154.8677 C   0  0  0  0  0  0  0  0  0  0  0  0
  148.6741  141.0828  154.6590 C   0  0  0  0  0  0  0  0  0  0  0  0
  149.3687  142.0651  155.4165 N   0  0  0  0  0  0  0  0  0  0  0  0
  150.3599  141.8894  156.3077 C   0  0  0  0  0  0  0  0  0  0  0  0
  150.8547  140.8060  156.6174 O   0  0  0  0  0  0  0  0  0  0  0  0
  150.7672  143.0592  156.8203 N   0  0  0  0  0  0  0  0  0  0  0  0
  151.8291  143.2073  157.8096 C   0  0  1  0  0  0  0  0  0  0  0  0
  152.1508  144.6596  158.0318 C   0  0  0  0  0  0  0  0  0  0  0  0
  152.0066  145.0296  159.3022 C   0  0  0  0  0  0  0  0  0  0  0  0
  151.5330  143.9069  160.1900 C   0  0  2  0  0  0  0  0  0  0  0  0
  152.4826  143.6385  161.3705 C   0  0  0  0  0  0  0  0  0  0  0  0
  151.9121  142.7093  162.2684 O   0  0  0  0  0  0  0  0  0  0  0  0
  151.4147  142.7049  159.2181 C   0  0  0  0  0  0  0  0  0  0  0  0
  147.7867  141.5337  153.6614 C   0  0  0  0  0  0  0  0  0  0  0  0
  147.0927  140.6472  152.9157 N   0  3  0  0  0  0  0  0  0  0  0  0
  152.7356  142.7037  157.4692 H   0  0  0  0  0  0  0  0  0  0  0  0
  150.5430  144.1684  160.5668 H   0  0  0  0  0  0  0  0  0  0  0  0
  147.1077  138.9520  150.2944 H   0  0  0  0  0  0  0  0  0  0  0  0
  145.6561  139.8333  150.8008 H   0  0  0  0  0  0  0  0  0  0  0  0
  145.5441  138.1418  150.3211 H   0  0  0  0  0  0  0  0  0  0  0  0
  145.1323  137.4959  153.5811 H   0  0  0  0  0  0  0  0  0  0  0  0
  146.5726  136.5755  153.1171 H   0  0  0  0  0  0  0  0  0  0  0  0
  145.2243  136.7361  151.9941 H   0  0  0  0  0  0  0  0  0  0  0  0
  148.1511  137.7370  154.2374 H   0  0  0  0  0  0  0  0  0  0  0  0
  149.4276  139.2748  155.6353 H   0  0  0  0  0  0  0  0  0  0  0  0
  149.1216  143.0228  155.2141 H   0  0  0  0  0  0  0  0  0  0  0  0
  150.3122  143.9054  156.5102 H   0  0  0  0  0  0  0  0  0  0  0  0
  152.4771  145.3064  157.2307 H   0  0  0  0  0  0  0  0  0  0  0  0
  152.1882  146.0242  159.6824 H   0  0  0  0  0  0  0  0  0  0  0  0
  153.4281  143.2324  161.0097 H   0  0  0  0  0  0  0  0  0  0  0  0
  152.7102  144.5616  161.9049 H   0  0  0  0  0  0  0  0  0  0  0  0
  152.0372  143.0274  163.1494 H   0  0  0  0  0  0  0  0  0  0  0  0
  150.3952  142.3166  159.2263 H   0  0  0  0  0  0  0  0  0  0  0  0
  152.0617  141.8816  159.5234 H   0  0  0  0  0  0  0  0  0  0  0  0
  147.6143  142.5751  153.4304 H   0  0  0  0  0  0  0  0  0  0  0  0
  146.4654  141.0118  152.1985 H   0  0  0  0  0  0  0  0  0  0  0  0
  1  2  1  0  0  0  0
  1 23  1  0  0  0  0
  1 24  1  0  0  0  0
  1 25  1  0  0  0  0
  2  3  1  0  0  0  0
  2  4  1  0  0  0  0
  3 26  1  0  0  0  0
  3 27  1  0  0  0  0
  3 28  1  0  0  0  0
  4 20  1  0  0  0  0
  4  5  2  0  0  0  0
  5  6  1  0  0  0  0
  5 29  1  0  0  0  0
  6  7  2  0  0  0  0
  6 30  1  0  0  0  0
  7  8  1  0  0  0  0
  7 19  1  0  0  0  0
  8  9  1  0  0  0  0
  8 31  1  0  0  0  0
  9 10  2  0  0  0  0
  9 11  1  0  0  0  0
 11 12  1  0  0  0  0
 11 32  1  0  0  0  0
 12 21  1  0  0  0  0
 12 18  1  0  0  0  0
 12 13  1  0  0  0  0
 13 14  2  0  0  0  0
 13 33  1  0  0  0  0
 14 15  1  0  0  0  0
 14 34  1  0  0  0  0
 15 22  1  0  0  0  0
 15 16  1  0  0  0  0
 15 18  1  0  0  0  0
 16 17  1  0  0  0  0
 16 35  1  0  0  0  0
 16 36  1  0  0  0  0
 17 37  1  0  0  0  0
 18 38  1  0  0  0  0
 18 39  1  0  0  0  0
 19 20  2  0  0  0  0
 19 40  1  0  0  0  0
 20 41  1  0  0  0  0
M  CHG  1  20   1
M  END
> <s_m_source_file>
AV-unprocessed.smi

> <i_m_source_file_index>
876

> <i_lp_mmshare_version>
43012

> <i_f3d_flags>
0

> <s_epik_input>
W0NIM11OKFtDSDNdKWMxW2NIXVtjSF1jKFtjSF1uMSlbTkhdQyg9TylbTkhdW0NAQEhdMltDSF09W0NIXVtDQEBIXShbQ0gyXTIpW0NIMl1bT0hd

> <s_epik_cmdline>
J2VwaWtfcHl0aG9uJywgJy1waCcsICc3LjAnLCAnLXRuJywgJzgnLCAnLW1hJywgJzIwMCcsICctbWV0YWxfYmluZGluZycsICctaW1hZScsICc8aW5maWxlLm1hZT4nLCAnLW9tYWUnLCAnPG91dGZpbGUubWFlPic=

> <r_lp_tautomer_probability>
0.999994

> <r_epik_Ionization_Penalty>
0.257994

> <r_epik_Ionization_Penalty_Charging>
0.257974

> <r_epik_Ionization_Penalty_Neutral>
1.95938e-05

> <r_epik_State_Penalty>
0.249586

> <r_epik_Charging_Adjusted_Penalty>
0.50756

> <i_epik_Tot_Q>
1

> <i_epik_Tot_abs_Q>
1

> <r_epik_Metal_State_Penalty>
0.538508

> <b_epik_Metal_Only>
0

> <s_lp_Force_Field>
OPLS_2005

> <r_lp_Energy>
26.3189

> <b_lp_Chiralities_Consistent>
1

> <s_lp_Variant>
AV-unprocessed.smi:876-2

> <Gold.Version>
5.8.1

> <Gold.Id.Protein>
6NUR|6NUR_protein|mol2

> <Gold.PLP.Fitness>
52.1732

> <Gold.PLP.PLP>
-44.5867

> <Gold.PLP.part.hbond>
-5.0000

> <Gold.PLP.part.metal>
0.0000

> <Gold.PLP.part.buried>
-1.3524

> <Gold.PLP.part.nonpolar>
-39.9969

> <Gold.PLP.part.repulsive>
0.2826

> <Gold.PLP.ligand.clash>
0.0000

> <Gold.PLP.ligand.torsion>
0.6805

> <Gold.PLP.Chemscore.Hbond>
2.9750

> <Gold.PLP.Chemscore.CHOScore>
0.0000

> <Gold.PLP.Chemscore.Metal>
0.0000

> <Gold.Chemscore.Hbonds>
donor molecule, donor type, donor heavy atom, donor atom, acceptor molecule, acceptor atom, score
      L1  H     8    31       P1  8028  1.00
      L1  H    11    32       P1  8028  1.00
      P1  H  6933  6945       L1    17  0.86

> <Gold.PLP.Chemscore.Internal.Correction>
0.0224

> <Gold.Rescore>
     Score         DG    S(hbond)    S(metal)    S(lipo)     H(rot)  DE(clash)    DE(int)     intcor
     18.32     -23.48       2.88        0.00     111.37       1.82       3.15       2.00       ----

> <Gold.Chemscore.Fitness>
18.3231

> <Gold.Chemscore.DG>
-23.4785

> <Gold.Chemscore.ZeroCoef>
-5.4800

> <Gold.Chemscore.Hbond>
2.8824

> <Gold.Chemscore.Metal>
0.0000

> <Gold.Chemscore.Lipo>
111.3662

> <Gold.Chemscore.Internal_Hbond>
0.0000

> <Gold.Chemscore.DEClash>
3.1535

> <Gold.Chemscore.DEInternal>
2.0020

> <Gold.Chemscore.Rot>
1.8197

> <Gold.Chemscore.Internal.Correction>
   9.000000E+99

> <Gold.Chemscore.Hbonds>
donor molecule, donor type, donor heavy atom, donor atom, acceptor molecule, acceptor atom, score
      L1  H     8    31       P1  8028  0.98
      L1  H    11    32       P1  8028  0.94
      P1  H  6933  6945       L1    17  0.44

> <Gold.Chemscore.Hbond.Weighted>
-9.6272

> <Gold.Chemscore.Metal.Weighted>
-0.0000

> <Gold.Chemscore.Lipo.Weighted>
-13.0299

> <Gold.Chemscore.Internal_Hbond.Weighted>
0.0000

> <Gold.Chemscore.DEClash.Weighted>
3.1535

> <Gold.Chemscore.DEInternal.Weighted>
2.0020

> <Gold.Chemscore.Rot.Weighted>
4.6585

> <Gold.Chemscore.Internal.Correction.Weighted>
   9.000000E+99

> <Gold.Protein.RotatedTorsions>
[ 6907 6896 6895 6894 ] final   15.82 input  -60.11 | X-H torsion
[ 7974 7965 7964 7962 ] final   89.27 input  175.53 | X-H torsion
[ 8008 7997 7996 7995 ] final   47.53 input   59.86 | X-H torsion
[ 10167 10162 10161 10158 ] final  101.77 input  -65.29 | X-H torsion
[ 10718 10713 10712 10709 ] final  -61.79 input   66.30 | X-H torsion
[ 10763 10752 10751 10750 ] final -100.94 input  -60.55 | X-H torsion
[ 11005 11000 10999 10996 ] final  -24.59 input  -57.11 | X-H torsion

> <Gold.Protein.ActiveResidues>
 VAL166  LYS551  ARG553  GLY616  TRP617  ASP618  TYR619  PRO620  LYS621  CYS622 
 ASP623  PHE694  ASN695  SER759  ASP760  ASP761  ALA762  ILE779  LEU786  VAL792 
 PHE793  MET794  SER795  GLU796  ALA797  LYS798  CYS799  TRP800  GLU811  SER814 

> <Gold.Protein.RotatedAtoms>
  151.8241  135.0642  160.0428 H   0  0  0  0  0  0  0  0  0  0  0  0  # atno 6907 bound_to 6896
  152.2929  133.5574  159.5577 H   0  0  0  0  0  0  0  0  0  0  0  0  # atno 6908 bound_to 6896
  150.7238  134.0319  159.3778 H   0  0  0  0  0  0  0  0  0  0  0  0  # atno 6909 bound_to 6896
  145.5346  139.2285  143.2600 H   0  0  0  0  0  0  0  0  0  0  0  0  # atno 7974 bound_to 7965
  155.3706  140.3423  155.4243 H   0  0  0  0  0  0  0  0  0  0  0  0  # atno 8008 bound_to 7997
  156.1664  140.1617  156.8558 H   0  0  0  0  0  0  0  0  0  0  0  0  # atno 8009 bound_to 7997
  154.5189  140.0771  156.8117 H   0  0  0  0  0  0  0  0  0  0  0  0  # atno 8010 bound_to 7997
  139.7409  144.7011  151.0577 H   0  0  0  0  0  0  0  0  0  0  0  0  # atno 10167 bound_to 10162
  156.0898  130.4202  150.1043 H   0  0  0  0  0  0  0  0  0  0  0  0  # atno 10718 bound_to 10713
  154.7619  135.4916  153.9479 H   0  0  0  0  0  0  0  0  0  0  0  0  # atno 10763 bound_to 10752
  153.1261  135.6742  153.9263 H   0  0  0  0  0  0  0  0  0  0  0  0  # atno 10764 bound_to 10752
  153.8980  135.3113  155.3427 H   0  0  0  0  0  0  0  0  0  0  0  0  # atno 10765 bound_to 10752
  140.8859  133.7621  156.0360 H   0  0  0  0  0  0  0  0  0  0  0  0  # atno 11005 bound_to 11000
  146.2022  140.6163  142.9097 LP  0  0  0  0  0  0  0  0  0  0  0  0  # atno 17320 bound_to 7965
  144.7608  140.5418  143.6737 LP  0  0  0  0  0  0  0  0  0  0  0  0  # atno 17321 bound_to 7965
  140.7785  143.4926  150.9873 LP  0  0  0  0  0  0  0  0  0  0  0  0  # atno 17342 bound_to 10162
  139.8614  143.7309  152.3173 LP  0  0  0  0  0  0  0  0  0  0  0  0  # atno 17343 bound_to 10162
  156.9056  130.9634  151.3570 LP  0  0  0  0  0  0  0  0  0  0  0  0  # atno 17370 bound_to 10713
  157.6044  130.8536  149.8852 LP  0  0  0  0  0  0  0  0  0  0  0  0  # atno 17371 bound_to 10713
  140.8405  134.3072  157.5315 LP  0  0  0  0  0  0  0  0  0  0  0  0  # atno 17394 bound_to 11000
  139.8724  134.9413  156.3794 LP  0  0  0  0  0  0  0  0  0  0  0  0  # atno 17395 bound_to 11000

$$$$
