AV-unprocessed.smi:1005|AV-procd|sdf|4378|dock4
  -GOLD-   22720 2293D 1   1.00000     0.00000
 Structure written by MMmdl.
 58 60  0  0  0  0  0  0  0  0  4 V2000
  152.5701  143.2264  160.7892 C   0  0  0  0  0  0  0  0  0  0  0  0
  152.0235  142.3894  159.6452 C   0  0  0  0  0  0  0  0  0  0  0  0
  151.0782  142.9752  158.7731 C   0  0  0  0  0  0  0  0  0  0  0  0
  150.5983  142.1856  157.7350 C   0  0  0  0  0  0  0  0  0  0  0  0
  149.6742  142.4631  156.7251 N   0  3  0  0  0  0  0  0  0  0  0  0
  149.5251  141.3667  155.9312 C   0  0  0  0  0  0  0  0  0  0  0  0
  150.3461  140.3949  156.4160 N   0  0  0  0  0  0  0  0  0  0  0  0
  150.5758  139.0242  155.9397 C   0  0  0  0  0  0  0  0  0  0  0  0
  149.9663  138.7628  154.5478 C   0  0  2  0  0  0  0  0  0  0  0  0
  150.4890  139.7027  153.6285 O   0  0  0  0  0  0  0  0  0  0  0  0
  148.4301  138.8872  154.5641 C   0  0  0  0  0  0  0  0  0  0  0  0
  147.7504  137.6552  154.0869 N   0  3  1  0  0  0  0  0  0  0  0  0
  147.6996  136.5715  155.0989 C   0  0  0  0  0  0  0  0  0  0  0  0
  147.0197  135.3242  154.5125 C   0  0  0  0  0  0  0  0  0  0  0  0
  145.7212  135.6666  154.0436 O   0  0  0  0  0  0  0  0  0  0  0  0
  145.7552  136.6332  152.9993 C   0  0  1  0  0  0  0  0  0  0  0  0
  144.3036  136.8425  152.5232 C   0  0  0  0  0  0  0  0  0  0  0  0
  143.5055  137.7172  153.4218 N   0  3  0  0  0  0  0  0  0  0  0  0
  143.7378  137.4040  154.8494 C   0  0  0  0  0  0  0  0  0  0  0  0
  142.0594  137.7298  153.0996 C   0  0  0  0  0  0  0  0  0  0  0  0
  146.3948  137.9258  153.5505 C   0  0  0  0  0  0  0  0  0  0  0  0
  151.0283  140.8580  157.5462 C   0  0  0  0  0  0  0  0  0  0  0  0
  151.9559  140.2636  158.3982 C   0  0  0  0  0  0  0  0  0  0  0  0
  152.4547  141.0498  159.4615 C   0  0  0  0  0  0  0  0  0  0  0  0
  153.4675  140.4286  160.4085 C   0  0  0  0  0  0  0  0  0  0  0  0
  152.1636  144.2380  160.7735 H   0  0  0  0  0  0  0  0  0  0  0  0
  153.6556  143.3040  160.7236 H   0  0  0  0  0  0  0  0  0  0  0  0
  152.3114  142.7779  161.7487 H   0  0  0  0  0  0  0  0  0  0  0  0
  150.7436  143.9935  158.9086 H   0  0  0  0  0  0  0  0  0  0  0  0
  148.8761  141.2857  155.0709 H   0  0  0  0  0  0  0  0  0  0  0  0
  151.6505  138.8373  155.9377 H   0  0  0  0  0  0  0  0  0  0  0  0
  150.1454  138.3452  156.6772 H   0  0  0  0  0  0  0  0  0  0  0  0
  150.2617  137.7674  154.2185 H   0  0  0  0  0  0  0  0  0  0  0  0
  149.9855  139.6528  152.8297 H   0  0  0  0  0  0  0  0  0  0  0  0
  148.0761  139.1282  155.5678 H   0  0  0  0  0  0  0  0  0  0  0  0
  148.1459  139.7302  153.9321 H   0  0  0  0  0  0  0  0  0  0  0  0
  148.7029  136.3084  155.4320 H   0  0  0  0  0  0  0  0  0  0  0  0
  147.1512  136.9143  155.9777 H   0  0  0  0  0  0  0  0  0  0  0  0
  147.6146  134.8994  153.7024 H   0  0  0  0  0  0  0  0  0  0  0  0
  146.9271  134.5524  155.2769 H   0  0  0  0  0  0  0  0  0  0  0  0
  146.3610  136.2344  152.1847 H   0  0  0  0  0  0  0  0  0  0  0  0
  144.2936  137.2620  151.5160 H   0  0  0  0  0  0  0  0  0  0  0  0
  143.8247  135.8648  152.4476 H   0  0  0  0  0  0  0  0  0  0  0  0
  143.4114  136.3901  155.0850 H   0  0  0  0  0  0  0  0  0  0  0  0
  143.1924  138.0966  155.4918 H   0  0  0  0  0  0  0  0  0  0  0  0
  144.7958  137.4905  155.0992 H   0  0  0  0  0  0  0  0  0  0  0  0
  141.6293  136.7314  153.1898 H   0  0  0  0  0  0  0  0  0  0  0  0
  141.8758  138.0917  152.0886 H   0  0  0  0  0  0  0  0  0  0  0  0
  141.5215  138.3916  153.7796 H   0  0  0  0  0  0  0  0  0  0  0  0
  145.7714  138.3513  154.3388 H   0  0  0  0  0  0  0  0  0  0  0  0
  146.4614  138.6713  152.7571 H   0  0  0  0  0  0  0  0  0  0  0  0
  152.2837  139.2442  158.2588 H   0  0  0  0  0  0  0  0  0  0  0  0
  153.6721  139.3894  160.1488 H   0  0  0  0  0  0  0  0  0  0  0  0
  153.0971  140.4477  161.4337 H   0  0  0  0  0  0  0  0  0  0  0  0
  154.4111  140.9735  160.3705 H   0  0  0  0  0  0  0  0  0  0  0  0
  143.8437  138.6597  153.2890 H   0  0  0  0  0  0  0  0  0  0  0  0
  148.3002  137.3129  153.3112 H   0  0  0  0  0  0  0  0  0  0  0  0
  149.1785  143.3347  156.5872 H   0  0  0  0  0  0  0  0  0  0  0  0
  1  2  1  0  0  0  0
  1 26  1  0  0  0  0
  1 27  1  0  0  0  0
  1 28  1  0  0  0  0
  2 24  1  0  0  0  0
  2  3  2  0  0  0  0
  3  4  1  0  0  0  0
  3 29  1  0  0  0  0
  4 22  2  0  0  0  0
  4  5  1  0  0  0  0
  5  6  2  0  0  0  0
  5 58  1  0  0  0  0
  6  7  1  0  0  0  0
  6 30  1  0  0  0  0
  7  8  1  0  0  0  0
  7 22  1  0  0  0  0
  8  9  1  0  0  0  0
  8 31  1  0  0  0  0
  8 32  1  0  0  0  0
  9 10  1  0  0  0  0
  9 11  1  0  0  0  0
  9 33  1  0  0  0  0
 10 34  1  0  0  0  0
 11 12  1  0  0  0  0
 11 35  1  0  0  0  0
 11 36  1  0  0  0  0
 12 21  1  0  0  0  0
 12 13  1  0  0  0  0
 12 57  1  0  0  0  0
 13 14  1  0  0  0  0
 13 37  1  0  0  0  0
 13 38  1  0  0  0  0
 14 15  1  0  0  0  0
 14 39  1  0  0  0  0
 14 40  1  0  0  0  0
 15 16  1  0  0  0  0
 16 17  1  0  0  0  0
 16 21  1  0  0  0  0
 16 41  1  0  0  0  0
 17 18  1  0  0  0  0
 17 42  1  0  0  0  0
 17 43  1  0  0  0  0
 18 19  1  0  0  0  0
 18 20  1  0  0  0  0
 18 56  1  0  0  0  0
 19 44  1  0  0  0  0
 19 45  1  0  0  0  0
 19 46  1  0  0  0  0
 20 47  1  0  0  0  0
 20 48  1  0  0  0  0
 20 49  1  0  0  0  0
 21 50  1  0  0  0  0
 21 51  1  0  0  0  0
 22 23  1  0  0  0  0
 23 24  2  0  0  0  0
 23 52  1  0  0  0  0
 24 25  1  0  0  0  0
 25 53  1  0  0  0  0
 25 54  1  0  0  0  0
 25 55  1  0  0  0  0
M  CHG  1   5   1
M  CHG  1  12   1
M  CHG  1  18   1
M  END
> <s_m_source_file>
AV-unprocessed.smi

> <i_m_source_file_index>
1005

> <i_lp_mmshare_version>
43012

> <i_f3d_flags>
0

> <s_epik_input>
W0NIM11jKFtjSF0xKWMoW0NIM10pW2NIXWMoYzEyKW4oW2NIXW4yKVtDSDJdW0NASF0oW09IXSlbQ0gyXU4zW0NIMl1bQ0gyXU9bQ0BIXShbQ0gyXTMpW0NIMl1OKFtDSDNdKVtDSDNd

> <s_epik_cmdline>
J2VwaWtfcHl0aG9uJywgJy1waCcsICc3LjAnLCAnLXRuJywgJzgnLCAnLW1hJywgJzIwMCcsICctbWV0YWxfYmluZGluZycsICctaW1hZScsICc8aW5maWxlLm1hZT4nLCAnLW9tYWUnLCAnPG91dGZpbGUubWFlPic=

> <r_epik_Ionization_Penalty>
2.30802

> <r_epik_Ionization_Penalty_Charging>
2.30798

> <r_epik_Ionization_Penalty_Neutral>
3.4851e-05

> <r_epik_State_Penalty>
2.52618

> <r_epik_Charging_Adjusted_Penalty>
4.83416

> <i_epik_Tot_Q>
3

> <i_epik_Tot_abs_Q>
3

> <r_epik_Metal_State_Penalty>
6.53149

> <b_epik_Metal_Only>
0

> <s_lp_Force_Field>
OPLS_2005

> <r_lp_Energy>
43.2014

> <b_lp_Chiralities_Consistent>
1

> <s_lp_Variant>
AV-unprocessed.smi:1005-17

> <Gold.Version>
5.8.1

> <Gold.Id.Protein>
6NUR|6NUR_protein|mol2

> <Gold.PLP.Fitness>
58.4830

> <Gold.PLP.PLP>
-37.5649

> <Gold.PLP.part.hbond>
-4.7699

> <Gold.PLP.part.metal>
0.0000

> <Gold.PLP.part.buried>
-1.6233

> <Gold.PLP.part.nonpolar>
-31.1764

> <Gold.PLP.part.repulsive>
0.1107

> <Gold.PLP.ligand.clash>
0.0000

> <Gold.PLP.ligand.torsion>
1.3457

> <Gold.PLP.Chemscore.Hbond>
7.8160

> <Gold.PLP.Chemscore.CHOScore>
0.0000

> <Gold.PLP.Chemscore.Metal>
0.0000

> <Gold.Chemscore.Hbonds>
donor molecule, donor type, donor heavy atom, donor atom, acceptor molecule, acceptor atom, score
      L1  H     5    58       P1  8028  2.00
      L1  H    10    34       P1  7957  1.00
      L1  H    12    57       P1  7948  2.00
      L1  H    18    56       P1 10175  1.98
      P1  H  7989  7998       L1    10  0.90

> <Gold.PLP.Chemscore.Internal.Correction>
0.1616

> <Gold.Rescore>
     Score         DG    S(hbond)    S(metal)    S(lipo)     H(rot)  DE(clash)    DE(int)     intcor
     20.25     -26.00       4.38        0.00     106.38       2.56       1.74       4.00       ----

> <Gold.Chemscore.Fitness>
20.2531

> <Gold.Chemscore.DG>
-25.9956

> <Gold.Chemscore.ZeroCoef>
-5.4800

> <Gold.Chemscore.Hbond>
4.3754

> <Gold.Chemscore.Metal>
0.0000

> <Gold.Chemscore.Lipo>
106.3811

> <Gold.Chemscore.Internal_Hbond>
0.0000

> <Gold.Chemscore.DEClash>
1.7419

> <Gold.Chemscore.DEInternal>
4.0006

> <Gold.Chemscore.Rot>
2.5566

> <Gold.Chemscore.Internal.Correction>
   9.000000E+99

> <Gold.Chemscore.Hbonds>
donor molecule, donor type, donor heavy atom, donor atom, acceptor molecule, acceptor atom, score
      L1  H     5    58       P1  8028  0.94
      L1  H    10    34       P1  7957  0.98
      L1  H    12    57       P1  7948  1.00
      L1  H    18    56       P1 10175  0.92
      P1  H  7989  7998       L1    10  0.57

> <Gold.Chemscore.Hbond.Weighted>
-14.6140

> <Gold.Chemscore.Metal.Weighted>
-0.0000

> <Gold.Chemscore.Lipo.Weighted>
-12.4466

> <Gold.Chemscore.Internal_Hbond.Weighted>
0.0000

> <Gold.Chemscore.DEClash.Weighted>
1.7419

> <Gold.Chemscore.DEInternal.Weighted>
4.0006

> <Gold.Chemscore.Rot.Weighted>
6.5450

> <Gold.Chemscore.Internal.Correction.Weighted>
   9.000000E+99

> <Gold.Protein.RotatedTorsions>
[ 6907 6896 6895 6894 ] final   82.82 input  -60.11 | X-H torsion
[ 7974 7965 7964 7962 ] final -130.95 input  175.53 | X-H torsion
[ 8008 7997 7996 7995 ] final -144.25 input   59.86 | X-H torsion
[ 10167 10162 10161 10158 ] final -111.16 input  -65.29 | X-H torsion
[ 10718 10713 10712 10709 ] final -155.39 input   66.30 | X-H torsion
[ 10763 10752 10751 10750 ] final -110.40 input  -60.55 | X-H torsion
[ 11005 11000 10999 10996 ] final   28.31 input  -57.11 | X-H torsion

> <Gold.Protein.ActiveResidues>
 VAL166  LYS551  ARG553  GLY616  TRP617  ASP618  TYR619  PRO620  LYS621  CYS622 
 ASP623  PHE694  ASN695  SER759  ASP760  ASP761  ALA762  ILE779  LEU786  VAL792 
 PHE793  MET794  SER795  GLU796  ALA797  LYS798  CYS799  TRP800  GLU811  SER814 

> <Gold.Protein.RotatedAtoms>
  152.5310  134.2990  159.9071 H   0  0  0  0  0  0  0  0  0  0  0  0  # atno 6907 bound_to 6896
  151.2941  133.4145  159.2643 H   0  0  0  0  0  0  0  0  0  0  0  0  # atno 6908 bound_to 6896
  151.0175  134.9460  159.8098 H   0  0  0  0  0  0  0  0  0  0  0  0  # atno 6909 bound_to 6896
  144.9426  140.7255  143.4837 H   0  0  0  0  0  0  0  0  0  0  0  0  # atno 7974 bound_to 7965
  155.5238  140.0594  157.2902 H   0  0  0  0  0  0  0  0  0  0  0  0  # atno 8008 bound_to 7997
  154.4508  140.1948  156.0471 H   0  0  0  0  0  0  0  0  0  0  0  0  # atno 8009 bound_to 7997
  156.0700  140.3261  155.7568 H   0  0  0  0  0  0  0  0  0  0  0  0  # atno 8010 bound_to 7997
  140.1366  143.4314  152.1591 H   0  0  0  0  0  0  0  0  0  0  0  0  # atno 10167 bound_to 10162
  156.5122  130.8440  151.2651 H   0  0  0  0  0  0  0  0  0  0  0  0  # atno 10718 bound_to 10713
  154.8246  135.4565  154.0880 H   0  0  0  0  0  0  0  0  0  0  0  0  # atno 10763 bound_to 10752
  153.2205  135.6893  153.8012 H   0  0  0  0  0  0  0  0  0  0  0  0  # atno 10764 bound_to 10752
  153.7431  135.3309  155.3284 H   0  0  0  0  0  0  0  0  0  0  0  0  # atno 10765 bound_to 10752
  140.3169  134.2587  155.7724 H   0  0  0  0  0  0  0  0  0  0  0  0  # atno 11005 bound_to 11000
  145.2968  139.1864  143.4711 LP  0  0  0  0  0  0  0  0  0  0  0  0  # atno 17320 bound_to 7965
  146.3291  140.2953  142.8617 LP  0  0  0  0  0  0  0  0  0  0  0  0  # atno 17321 bound_to 7965
  139.5492  144.7324  151.4486 LP  0  0  0  0  0  0  0  0  0  0  0  0  # atno 17342 bound_to 10162
  140.6785  143.8135  150.7090 LP  0  0  0  0  0  0  0  0  0  0  0  0  # atno 17343 bound_to 10162
  157.7449  130.9946  150.2712 LP  0  0  0  0  0  0  0  0  0  0  0  0  # atno 17370 bound_to 10713
  156.3229  130.3788  149.7559 LP  0  0  0  0  0  0  0  0  0  0  0  0  # atno 17371 bound_to 10713
  141.2095  133.7745  156.9989 LP  0  0  0  0  0  0  0  0  0  0  0  0  # atno 17394 bound_to 11000
  140.0976  134.9555  157.1873 LP  0  0  0  0  0  0  0  0  0  0  0  0  # atno 17395 bound_to 11000

$$$$
