AV-unprocessed.smi:2922|AV-procd|sdf|11200|dock4
  -GOLD-   2272016 93D 1   1.00000     0.00000
 Structure written by MMmdl.
 30 31  0  0  0  0  0  0  0  0  1 V2000
  144.5421  140.7314  155.0333 N   0  0  0  0  0  0  0  0  0  0  0  0
  145.6722  141.1385  155.6185 C   0  0  0  0  0  0  0  0  0  0  0  0
  145.7998  141.1524  156.8413 O   0  0  0  0  0  0  0  0  0  0  0  0
  146.8311  141.5696  154.7066 C   0  0  2  0  0  0  0  0  0  0  0  0
  147.2955  140.4904  153.7096 C   0  0  0  0  0  0  0  0  0  0  0  0
  148.7553  140.2695  154.0632 C   0  0  0  0  0  0  0  0  0  0  0  0
  149.1412  141.5867  154.7299 C   0  0  2  0  0  0  0  0  0  0  0  0
  150.3701  141.5009  155.6444 C   0  0  0  0  0  0  0  0  0  0  0  0
  150.4207  142.6107  156.5841 N   0  0  0  0  0  0  0  0  0  0  0  0
  151.0352  142.5531  157.8205 C   0  0  0  0  0  0  0  0  0  0  0  0
  151.5019  141.3707  158.2419 N   0  0  0  0  0  0  0  0  0  0  0  0
  152.0971  141.3417  159.4544 C   0  0  0  0  0  0  0  0  0  0  0  0
  152.2211  142.5036  160.2422 C   0  0  0  0  0  0  0  0  0  0  0  0
  152.9783  142.4737  161.7920 Cl  0  0  0  0  0  0  0  0  0  0  0  0
  151.6937  143.6916  159.6977 C   0  0  0  0  0  0  0  0  0  0  0  0
  151.1008  143.7112  158.4833 N   0  0  0  0  0  0  0  0  0  0  0  0
  147.9822  141.8770  155.4930 O   0  0  0  0  0  0  0  0  0  0  0  0
  143.7571  140.4436  155.5990 H   0  0  0  0  0  0  0  0  0  0  0  0
  144.4788  140.7174  154.0254 H   0  0  0  0  0  0  0  0  0  0  0  0
  146.5337  142.4675  154.1631 H   0  0  0  0  0  0  0  0  0  0  0  0
  146.7332  139.5572  153.7639 H   0  0  0  0  0  0  0  0  0  0  0  0
  147.2053  140.8672  152.6899 H   0  0  0  0  0  0  0  0  0  0  0  0
  148.8408  139.4471  154.7749 H   0  0  0  0  0  0  0  0  0  0  0  0
  149.3724  140.0335  153.1958 H   0  0  0  0  0  0  0  0  0  0  0  0
  149.2712  142.3705  153.9809 H   0  0  0  0  0  0  0  0  0  0  0  0
  150.3398  140.5695  156.2108 H   0  0  0  0  0  0  0  0  0  0  0  0
  151.2836  141.4832  155.0487 H   0  0  0  0  0  0  0  0  0  0  0  0
  149.9628  143.4747  156.3329 H   0  0  0  0  0  0  0  0  0  0  0  0
  152.4738  140.3887  159.7952 H   0  0  0  0  0  0  0  0  0  0  0  0
  151.7463  144.6271  160.2349 H   0  0  0  0  0  0  0  0  0  0  0  0
  1  2  1  0  0  0  0
  1 18  1  0  0  0  0
  1 19  1  0  0  0  0
  2  3  2  0  0  0  0
  2  4  1  0  0  0  0
  4 17  1  0  0  0  0
  4  5  1  0  0  0  0
  4 20  1  0  0  0  0
  5  6  1  0  0  0  0
  5 21  1  0  0  0  0
  5 22  1  0  0  0  0
  6  7  1  0  0  0  0
  6 23  1  0  0  0  0
  6 24  1  0  0  0  0
  7  8  1  0  0  0  0
  7 17  1  0  0  0  0
  7 25  1  0  0  0  0
  8  9  1  0  0  0  0
  8 26  1  0  0  0  0
  8 27  1  0  0  0  0
  9 10  1  0  0  0  0
  9 28  1  0  0  0  0
 10 16  1  0  0  0  0
 10 11  2  0  0  0  0
 11 12  1  0  0  0  0
 12 13  2  0  0  0  0
 12 29  1  0  0  0  0
 13 14  1  0  0  0  0
 13 15  1  0  0  0  0
 15 16  2  0  0  0  0
 15 30  1  0  0  0  0
M  END
> <s_m_source_file>
AV-unprocessed.smi

> <i_m_source_file_index>
2922

> <i_lp_mmshare_version>
43012

> <i_f3d_flags>
0

> <s_epik_input>
W05IMl1DKD1PKVtDQEBIXTFbQ0gyXVtDSDJdW0NASF0oTzEpW0NIMl1bTkhdYzJuW2NIXWMoQ2wpW2NIXW4y

> <s_epik_cmdline>
J2VwaWtfcHl0aG9uJywgJy1waCcsICc3LjAnLCAnLXRuJywgJzgnLCAnLW1hJywgJzIwMCcsICctbWV0YWxfYmluZGluZycsICctaW1hZScsICc8aW5maWxlLm1hZT4nLCAnLW9tYWUnLCAnPG91dGZpbGUubWFlPic=

> <r_lp_tautomer_probability>
1

> <r_epik_Ionization_Penalty>
6.13883e-06

> <r_epik_Ionization_Penalty_Charging>
0

> <r_epik_Ionization_Penalty_Neutral>
6.13883e-06

> <r_epik_State_Penalty>
-0

> <r_epik_Charging_Adjusted_Penalty>
0

> <i_epik_Tot_Q>
0

> <i_epik_Tot_abs_Q>
0

> <r_epik_Metal_State_Penalty>
-0

> <b_epik_Metal_Only>
0

> <s_lp_Force_Field>
OPLS_2005

> <r_lp_Energy>
9.86342

> <b_lp_Chiralities_Consistent>
1

> <s_lp_Variant>
AV-unprocessed.smi:2922-3

> <Gold.Version>
5.8.1

> <Gold.Id.Protein>
6NUR|6NUR_protein|mol2

> <Gold.PLP.Fitness>
37.8340

> <Gold.PLP.PLP>
-32.5147

> <Gold.PLP.part.hbond>
-2.0000

> <Gold.PLP.part.metal>
0.0000

> <Gold.PLP.part.buried>
-5.6208

> <Gold.PLP.part.nonpolar>
-27.6405

> <Gold.PLP.part.repulsive>
2.7062

> <Gold.PLP.ligand.clash>
0.0000

> <Gold.PLP.ligand.torsion>
0.3494

> <Gold.PLP.Chemscore.Hbond>
2.0000

> <Gold.PLP.Chemscore.CHOScore>
0.0000

> <Gold.PLP.Chemscore.Metal>
0.0000

> <Gold.Chemscore.Hbonds>
donor molecule, donor type, donor heavy atom, donor atom, acceptor molecule, acceptor atom, score
      L1  H     1    19       P1 10175  1.00
      L1  H     9    28       P1  8028  1.00

> <Gold.PLP.Chemscore.Internal.Correction>
0.0182

> <Gold.Rescore>
     Score         DG    S(hbond)    S(metal)    S(lipo)     H(rot)  DE(clash)    DE(int)     intcor
     15.67     -16.08       1.98        0.00      76.13       1.91       0.04       0.37       ----

> <Gold.Chemscore.Fitness>
15.6739

> <Gold.Chemscore.DG>
-16.0843

> <Gold.Chemscore.ZeroCoef>
-5.4800

> <Gold.Chemscore.Hbond>
1.9753

> <Gold.Chemscore.Metal>
0.0000

> <Gold.Chemscore.Lipo>
76.1269

> <Gold.Chemscore.Internal_Hbond>
0.0000

> <Gold.Chemscore.DEClash>
0.0413

> <Gold.Chemscore.DEInternal>
0.3691

> <Gold.Chemscore.Rot>
1.9142

> <Gold.Chemscore.Internal.Correction>
   9.000000E+99

> <Gold.Chemscore.Hbonds>
donor molecule, donor type, donor heavy atom, donor atom, acceptor molecule, acceptor atom, score
      L1  H     1    19       P1 10175  0.97
      L1  H     9    28       P1  8028  1.00

> <Gold.Chemscore.Hbond.Weighted>
-6.5977

> <Gold.Chemscore.Metal.Weighted>
-0.0000

> <Gold.Chemscore.Lipo.Weighted>
-8.9068

> <Gold.Chemscore.Internal_Hbond.Weighted>
0.0000

> <Gold.Chemscore.DEClash.Weighted>
0.0413

> <Gold.Chemscore.DEInternal.Weighted>
0.3691

> <Gold.Chemscore.Rot.Weighted>
4.9002

> <Gold.Chemscore.Internal.Correction.Weighted>
   9.000000E+99

> <Gold.Protein.RotatedTorsions>
[ 6907 6896 6895 6894 ] final   33.69 input  -60.11 | X-H torsion
[ 7974 7965 7964 7962 ] final -138.20 input  175.53 | X-H torsion
[ 8008 7997 7996 7995 ] final  105.94 input   59.86 | X-H torsion
[ 10167 10162 10161 10158 ] final   94.22 input  -65.29 | X-H torsion
[ 10718 10713 10712 10709 ] final  -43.98 input   66.30 | X-H torsion
[ 10763 10752 10751 10750 ] final   63.89 input  -60.55 | X-H torsion
[ 11005 11000 10999 10996 ] final  -28.66 input  -57.11 | X-H torsion

> <Gold.Protein.ActiveResidues>
 VAL166  LYS551  ARG553  GLY616  TRP617  ASP618  TYR619  PRO620  LYS621  CYS622 
 ASP623  PHE694  ASN695  SER759  ASP760  ASP761  ALA762  ILE779  LEU786  VAL792 
 PHE793  MET794  SER795  GLU796  ALA797  LYS798  CYS799  TRP800  GLU811  SER814 

> <Gold.Protein.RotatedAtoms>
  152.0920  134.9400  160.0571 H   0  0  0  0  0  0  0  0  0  0  0  0  # atno 6907 bound_to 6896
  152.0648  133.4074  159.4441 H   0  0  0  0  0  0  0  0  0  0  0  0  # atno 6908 bound_to 6896
  150.6837  134.3079  159.4777 H   0  0  0  0  0  0  0  0  0  0  0  0  # atno 6909 bound_to 6896
  144.8778  140.6463  143.5225 H   0  0  0  0  0  0  0  0  0  0  0  0  # atno 7974 bound_to 7965
  156.1701  140.3121  155.8959 H   0  0  0  0  0  0  0  0  0  0  0  0  # atno 8008 bound_to 7997
  155.3603  140.0476  157.3063 H   0  0  0  0  0  0  0  0  0  0  0  0  # atno 8009 bound_to 7997
  154.5233  140.2205  155.8947 H   0  0  0  0  0  0  0  0  0  0  0  0  # atno 8010 bound_to 7997
  139.8104  144.6776  150.9647 H   0  0  0  0  0  0  0  0  0  0  0  0  # atno 10167 bound_to 10162
  156.2433  130.4182  149.8734 H   0  0  0  0  0  0  0  0  0  0  0  0  # atno 10718 bound_to 10713
  153.0034  135.5413  154.6423 H   0  0  0  0  0  0  0  0  0  0  0  0  # atno 10763 bound_to 10752
  154.5675  135.2839  155.0862 H   0  0  0  0  0  0  0  0  0  0  0  0  # atno 10764 bound_to 10752
  154.2040  135.6479  153.5148 H   0  0  0  0  0  0  0  0  0  0  0  0  # atno 10765 bound_to 10752
  140.9228  133.7388  156.0825 H   0  0  0  0  0  0  0  0  0  0  0  0  # atno 11005 bound_to 11000
  145.4010  139.1598  143.4178 LP  0  0  0  0  0  0  0  0  0  0  0  0  # atno 17320 bound_to 7965
  146.2974  140.4106  142.8716 LP  0  0  0  0  0  0  0  0  0  0  0  0  # atno 17321 bound_to 7965
  140.7818  143.4191  151.0870 LP  0  0  0  0  0  0  0  0  0  0  0  0  # atno 17342 bound_to 10162
  139.7857  143.8290  152.3144 LP  0  0  0  0  0  0  0  0  0  0  0  0  # atno 17343 bound_to 10162
  156.6308  130.8665  151.3495 LP  0  0  0  0  0  0  0  0  0  0  0  0  # atno 17370 bound_to 10713
  157.7185  130.9527  150.1345 LP  0  0  0  0  0  0  0  0  0  0  0  0  # atno 17371 bound_to 10713
  140.7965  134.3557  157.5451 LP  0  0  0  0  0  0  0  0  0  0  0  0  # atno 17394 bound_to 11000
  139.8779  134.9172  156.3173 LP  0  0  0  0  0  0  0  0  0  0  0  0  # atno 17395 bound_to 11000

$$$$
