AV-unprocessed.smi:72|AV-procd|sdf|671|dock6
  -GOLD-   2262016573D 1   1.00000     0.00000
 Structure written by MMmdl.
 29 30  0  0  0  0  0  0  0  0  1 V2000
  151.9881  137.0770  159.8399 N   0  0  0  0  0  0  0  0  0  0  0  0
  151.6559  137.6281  158.7275 C   0  0  0  0  0  0  0  0  0  0  0  0
  150.8102  138.7399  158.5948 N   0  0  0  0  0  0  0  0  0  0  0  0
  150.5652  139.1958  157.4052 C   0  0  0  0  0  0  0  0  0  0  0  0
  151.1419  138.5969  156.2114 N   0  0  0  0  0  0  0  0  0  0  0  0
  150.8395  139.1623  154.8391 C   0  0  2  0  0  0  0  0  0  0  0  0
  150.2373  140.4091  155.0037 O   0  0  0  0  0  0  0  0  0  0  0  0
  149.2017  140.5647  154.0458 C   0  0  2  0  0  0  0  0  0  0  0  0
  148.1895  141.5992  154.5629 C   0  0  0  0  0  0  0  0  0  0  0  0
  148.6900  142.9092  154.4025 O   0  0  0  0  0  0  0  0  0  0  0  0
  148.6469  139.1456  153.8737 C   0  0  1  0  0  0  0  0  0  0  0  0
  148.0621  138.9894  152.5962 O   0  0  0  0  0  0  0  0  0  0  0  0
  149.8903  138.2734  154.0020 C   0  0  2  0  0  0  0  0  0  0  0  0
  149.5733  137.0258  154.5930 O   0  0  0  0  0  0  0  0  0  0  0  0
  151.9834  137.4639  156.3257 C   0  0  0  0  0  0  0  0  0  0  0  0
  152.4724  136.8987  155.3480 O   0  0  0  0  0  0  0  0  0  0  0  0
  152.2082  137.0314  157.5855 N   0  0  0  0  0  0  0  0  0  0  0  0
  151.7983  139.3229  154.3445 H   0  0  0  0  0  0  0  0  0  0  0  0
  149.6681  140.9100  153.1208 H   0  0  0  0  0  0  0  0  0  0  0  0
  147.9267  138.9183  154.6615 H   0  0  0  0  0  0  0  0  0  0  0  0
  150.3610  138.1113  153.0311 H   0  0  0  0  0  0  0  0  0  0  0  0
  151.5561  137.5563  160.6164 H   0  0  0  0  0  0  0  0  0  0  0  0
  149.9114  140.0496  157.2212 H   0  0  0  0  0  0  0  0  0  0  0  0
  147.2324  141.5032  154.0497 H   0  0  0  0  0  0  0  0  0  0  0  0
  148.0022  141.4384  155.6248 H   0  0  0  0  0  0  0  0  0  0  0  0
  149.4317  143.0203  154.9773 H   0  0  0  0  0  0  0  0  0  0  0  0
  148.2121  138.1040  152.3028 H   0  0  0  0  0  0  0  0  0  0  0  0
  149.3319  136.4222  153.9073 H   0  0  0  0  0  0  0  0  0  0  0  0
  152.8058  136.2260  157.7006 H   0  0  0  0  0  0  0  0  0  0  0  0
  1  2  2  0  0  0  0
  1 22  1  0  0  0  0
  2 17  1  0  0  0  0
  2  3  1  0  0  0  0
  3  4  2  0  0  0  0
  4  5  1  0  0  0  0
  4 23  1  0  0  0  0
  5  6  1  0  0  0  0
  5 15  1  0  0  0  0
  6 18  1  0  0  0  0
  6 13  1  0  0  0  0
  6  7  1  0  0  0  0
  7  8  1  0  0  0  0
  8 19  1  0  0  0  0
  8  9  1  0  0  0  0
  8 11  1  0  0  0  0
  9 10  1  0  0  0  0
  9 24  1  0  0  0  0
  9 25  1  0  0  0  0
 10 26  1  0  0  0  0
 11 20  1  0  0  0  0
 11 12  1  0  0  0  0
 11 13  1  0  0  0  0
 12 27  1  0  0  0  0
 13 21  1  0  0  0  0
 13 14  1  0  0  0  0
 14 28  1  0  0  0  0
 15 16  2  0  0  0  0
 15 17  1  0  0  0  0
 17 29  1  0  0  0  0
M  END
> <s_m_source_file>
AV-unprocessed.smi

> <i_m_source_file_index>
72

> <i_lp_mmshare_version>
43012

> <i_f3d_flags>
0

> <s_epik_input>
W05IMl1jMW5bY0hdbihjKD1PKW4xKVtDQEBIXTJPW0NASF0oW0NIMl1bT0hdKVtDQEBIXShbT0hdKVtDQEhdMltPSF0=

> <s_epik_cmdline>
J2VwaWtfcHl0aG9uJywgJy1waCcsICc3LjAnLCAnLXRuJywgJzgnLCAnLW1hJywgJzIwMCcsICctbWV0YWxfYmluZGluZycsICctaW1hZScsICc8aW5maWxlLm1hZT4nLCAnLW9tYWUnLCAnPG91dGZpbGUubWFlPic=

> <r_lp_tautomer_probability>
7.17554e-07

> <r_epik_Ionization_Penalty>
0.0066451

> <r_epik_Ionization_Penalty_Charging>
0.00663793

> <r_epik_Ionization_Penalty_Neutral>
7.17052e-06

> <r_epik_State_Penalty>
0.419231

> <r_epik_Charging_Adjusted_Penalty>
0.425868

> <i_epik_Tot_Q>
0

> <i_epik_Tot_abs_Q>
0

> <r_epik_Metal_State_Penalty>
1.44144

> <b_epik_Metal_Only>
0

> <s_epik_Chemistry_Notes>
This compound contains an acetal/aminal-like group ( X-CH(R)-Y where X, Y are N, S, or O) that may be acid/base labile, releasing an aldehyde.

> <s_lp_Force_Field>
OPLS_2005

> <r_lp_Energy>
42.2993

> <b_lp_Chiralities_Consistent>
1

> <s_lp_Variant>
AV-unprocessed.smi:72-9

> <Gold.Version>
5.8.1

> <Gold.Id.Protein>
6NUR|6NUR_protein|mol2

> <Gold.PLP.Fitness>
34.9749

> <Gold.PLP.PLP>
-21.8270

> <Gold.PLP.part.hbond>
-6.5214

> <Gold.PLP.part.metal>
0.0000

> <Gold.PLP.part.buried>
1.3700

> <Gold.PLP.part.nonpolar>
-16.3559

> <Gold.PLP.part.repulsive>
0.2440

> <Gold.PLP.ligand.clash>
0.0000

> <Gold.PLP.ligand.torsion>
0.3901

> <Gold.PLP.Chemscore.Hbond>
4.6072

> <Gold.PLP.Chemscore.CHOScore>
0.0000

> <Gold.PLP.Chemscore.Metal>
0.0000

> <Gold.Chemscore.Hbonds>
donor molecule, donor type, donor heavy atom, donor atom, acceptor molecule, acceptor atom, score
      L1  H    12    27       P1  7948  0.99
      L1  H    14    28       P1  7948  0.82
      P1  H  6896  6909       L1     1  1.00
      P1  H  7989  7998       L1     7  0.02
      P1  H  8022  8030       L1    10  1.00
      P1  H 10752 10765       L1    16  0.78

> <Gold.PLP.Chemscore.Internal.Correction>
0.1066

> <Gold.Rescore>
     Score         DG    S(hbond)    S(metal)    S(lipo)     H(rot)  DE(clash)    DE(int)     intcor
      8.95     -11.88       4.03        0.00      28.44       4.06       0.21       2.72       ----

> <Gold.Chemscore.Fitness>
8.9510

> <Gold.Chemscore.DG>
-11.8813

> <Gold.Chemscore.ZeroCoef>
-5.4800

> <Gold.Chemscore.Hbond>
4.0322

> <Gold.Chemscore.Metal>
0.0000

> <Gold.Chemscore.Lipo>
28.4382

> <Gold.Chemscore.Internal_Hbond>
0.0000

> <Gold.Chemscore.DEClash>
0.2077

> <Gold.Chemscore.DEInternal>
2.7225

> <Gold.Chemscore.Rot>
4.0600

> <Gold.Chemscore.Internal.Correction>
   9.000000E+99

> <Gold.Chemscore.Hbonds>
donor molecule, donor type, donor heavy atom, donor atom, acceptor molecule, acceptor atom, score
      L1  H    10    26       P1  8028  0.02
      L1  H    12    27       P1  7948  0.92
      L1  H    14    28       P1  7948  0.70
      P1  H  6896  6909       L1     1  0.60
      P1  H  8022  8030       L1    10  0.24
      P1  H 10752 10765       L1    16  0.73

> <Gold.Chemscore.Hbond.Weighted>
-13.4676

> <Gold.Chemscore.Metal.Weighted>
-0.0000

> <Gold.Chemscore.Lipo.Weighted>
-3.3273

> <Gold.Chemscore.Internal_Hbond.Weighted>
0.0000

> <Gold.Chemscore.DEClash.Weighted>
0.2077

> <Gold.Chemscore.DEInternal.Weighted>
2.7225

> <Gold.Chemscore.Rot.Weighted>
10.3936

> <Gold.Chemscore.Internal.Correction.Weighted>
   9.000000E+99

> <Gold.Protein.RotatedTorsions>
[ 6907 6896 6895 6894 ] final  121.57 input  -60.11 | X-H torsion
[ 7974 7965 7964 7962 ] final -156.65 input  175.53 | X-H torsion
[ 8008 7997 7996 7995 ] final  -88.20 input   59.86 | X-H torsion
[ 10167 10162 10161 10158 ] final -166.77 input  -65.29 | X-H torsion
[ 10718 10713 10712 10709 ] final  -27.92 input   66.30 | X-H torsion
[ 10763 10752 10751 10750 ] final -170.26 input  -60.55 | X-H torsion
[ 11005 11000 10999 10996 ] final  157.68 input  -57.11 | X-H torsion

> <Gold.Protein.ActiveResidues>
 VAL166  LYS551  ARG553  GLY616  TRP617  ASP618  TYR619  PRO620  LYS621  CYS622 
 ASP623  PHE694  ASN695  SER759  ASP760  ASP761  ALA762  ILE779  LEU786  VAL792 
 PHE793  MET794  SER795  GLU796  ALA797  LYS798  CYS799  TRP800  GLU811  SER814 

> <Gold.Protein.RotatedAtoms>
  152.4311  133.7279  159.6570 H   0  0  0  0  0  0  0  0  0  0  0  0  # atno 6907 bound_to 6896
  150.8190  133.8275  159.3153 H   0  0  0  0  0  0  0  0  0  0  0  0  # atno 6908 bound_to 6896
  151.5962  135.1052  160.0102 H   0  0  0  0  0  0  0  0  0  0  0  0  # atno 6909 bound_to 6896
  144.7583  140.4080  143.5995 H   0  0  0  0  0  0  0  0  0  0  0  0  # atno 7974 bound_to 7965
  154.6720  140.0556  157.0176 H   0  0  0  0  0  0  0  0  0  0  0  0  # atno 8008 bound_to 7997
  155.1075  140.3235  155.4512 H   0  0  0  0  0  0  0  0  0  0  0  0  # atno 8009 bound_to 7997
  156.2661  140.2020  156.6200 H   0  0  0  0  0  0  0  0  0  0  0  0  # atno 8010 bound_to 7997
  139.6093  144.0847  152.1826 H   0  0  0  0  0  0  0  0  0  0  0  0  # atno 10167 bound_to 10162
  156.4319  130.4447  149.7112 H   0  0  0  0  0  0  0  0  0  0  0  0  # atno 10718 bound_to 10713
  154.6434  135.2901  155.0075 H   0  0  0  0  0  0  0  0  0  0  0  0  # atno 10763 bound_to 10752
  154.1194  135.6550  153.4904 H   0  0  0  0  0  0  0  0  0  0  0  0  # atno 10764 bound_to 10752
  153.0338  135.5284  154.7311 H   0  0  0  0  0  0  0  0  0  0  0  0  # atno 10765 bound_to 10752
  140.1792  134.8487  157.2783 H   0  0  0  0  0  0  0  0  0  0  0  0  # atno 11005 bound_to 11000
  145.6703  139.1598  143.2758 LP  0  0  0  0  0  0  0  0  0  0  0  0  # atno 17320 bound_to 7965
  146.1619  140.6775  142.9273 LP  0  0  0  0  0  0  0  0  0  0  0  0  # atno 17321 bound_to 7965
  140.0462  144.5968  150.7372 LP  0  0  0  0  0  0  0  0  0  0  0  0  # atno 17342 bound_to 10162
  140.7308  143.2687  151.3960 LP  0  0  0  0  0  0  0  0  0  0  0  0  # atno 17343 bound_to 10162
  156.4011  130.7675  151.2683 LP  0  0  0  0  0  0  0  0  0  0  0  0  # atno 17370 bound_to 10713
  157.7508  131.0239  150.3855 LP  0  0  0  0  0  0  0  0  0  0  0  0  # atno 17371 bound_to 10713
  140.2287  134.3936  155.7532 LP  0  0  0  0  0  0  0  0  0  0  0  0  # atno 17394 bound_to 11000
  141.2222  133.7203  156.8605 LP  0  0  0  0  0  0  0  0  0  0  0  0  # atno 17395 bound_to 11000

$$$$
