AV-unprocessed.smi:1752|AV-procd|sdf|7059|dock3
  -GOLD-   22720 8273D 1   1.00000     0.00000
 Structure written by MMmdl.
 43 44  0  0  0  0  0  0  0  0  2 V2000
  149.6223  142.5837  158.2631 C   0  0  0  0  0  0  0  0  0  0  0  0
  150.9683  142.6938  157.5342 C   0  0  1  0  0  0  0  0  0  0  0  0
  151.9533  143.5980  158.3058 C   0  0  0  0  0  0  0  0  0  0  0  0
  152.2555  143.0950  159.6343 N   0  0  0  0  0  0  0  0  0  0  0  0
  152.8952  141.9237  159.9820 C   0  0  0  0  0  0  0  0  0  0  0  0
  152.9656  141.8884  161.3449 C   0  0  0  0  0  0  0  0  0  0  0  0
  152.3285  143.0956  161.7472 C   0  0  0  0  0  0  0  0  0  0  0  0
  151.9029  143.8146  160.7211 N   0  0  0  0  0  0  0  0  0  0  0  0
  151.5263  141.3528  157.3618 N   0  0  0  0  0  0  0  0  0  0  0  0
  151.3779  140.5692  156.2782 C   0  0  0  0  0  0  0  0  0  0  0  0
  150.7205  140.9131  155.2952 O   0  0  0  0  0  0  0  0  0  0  0  0
  152.0822  139.4110  156.3247 N   0  0  0  0  0  0  0  0  0  0  0  0
  152.4925  138.7476  157.5824 C   0  0  0  0  0  0  0  0  0  0  0  0
  152.5907  137.2063  157.4858 C   0  0  0  0  0  0  0  0  0  0  0  0
  151.2918  136.4895  157.0570 C   0  0  0  0  0  0  0  0  0  0  0  0
  150.5338  137.1574  155.9646 N   0  3  2  0  0  0  0  0  0  0  0  0
  149.3316  136.3855  155.5800 C   0  0  0  0  0  0  0  0  0  0  0  0
  151.3398  137.5666  154.7829 C   0  0  0  0  0  0  0  0  0  0  0  0
  152.3777  138.6730  155.0847 C   0  0  0  0  0  0  0  0  0  0  0  0
  149.1610  143.5645  158.3825 H   0  0  0  0  0  0  0  0  0  0  0  0
  149.7413  142.1500  159.2566 H   0  0  0  0  0  0  0  0  0  0  0  0
  148.9233  141.9582  157.7066 H   0  0  0  0  0  0  0  0  0  0  0  0
  150.7690  143.1437  156.5599 H   0  0  0  0  0  0  0  0  0  0  0  0
  152.8921  143.6856  157.7567 H   0  0  0  0  0  0  0  0  0  0  0  0
  151.5532  144.6087  158.3984 H   0  0  0  0  0  0  0  0  0  0  0  0
  153.2491  141.2246  159.2386 H   0  0  0  0  0  0  0  0  0  0  0  0
  153.4048  141.1181  161.9611 H   0  0  0  0  0  0  0  0  0  0  0  0
  152.1639  143.4679  162.7477 H   0  0  0  0  0  0  0  0  0  0  0  0
  152.1031  141.0065  158.1144 H   0  0  0  0  0  0  0  0  0  0  0  0
  153.4557  139.1565  157.8902 H   0  0  0  0  0  0  0  0  0  0  0  0
  151.7879  138.9744  158.3844 H   0  0  0  0  0  0  0  0  0  0  0  0
  153.4072  136.9123  156.8270 H   0  0  0  0  0  0  0  0  0  0  0  0
  152.8870  136.8174  158.4605 H   0  0  0  0  0  0  0  0  0  0  0  0
  151.5282  135.4652  156.7651 H   0  0  0  0  0  0  0  0  0  0  0  0
  150.6304  136.4191  157.9215 H   0  0  0  0  0  0  0  0  0  0  0  0
  149.6082  135.4430  155.1058 H   0  0  0  0  0  0  0  0  0  0  0  0
  148.7132  136.9516  154.8825 H   0  0  0  0  0  0  0  0  0  0  0  0
  148.7194  136.1622  156.4546 H   0  0  0  0  0  0  0  0  0  0  0  0
  151.8233  136.6975  154.3346 H   0  0  0  0  0  0  0  0  0  0  0  0
  150.6534  137.9568  154.0298 H   0  0  0  0  0  0  0  0  0  0  0  0
  152.4467  139.3470  154.2285 H   0  0  0  0  0  0  0  0  0  0  0  0
  153.3802  138.2506  155.1445 H   0  0  0  0  0  0  0  0  0  0  0  0
  150.1887  138.0206  156.3600 H   0  0  0  0  0  0  0  0  0  0  0  0
  1  2  1  0  0  0  0
  1 20  1  0  0  0  0
  1 21  1  0  0  0  0
  1 22  1  0  0  0  0
  2  3  1  0  0  0  0
  2  9  1  0  0  0  0
  2 23  1  0  0  0  0
  3  4  1  0  0  0  0
  3 24  1  0  0  0  0
  3 25  1  0  0  0  0
  4  8  1  0  0  0  0
  4  5  1  0  0  0  0
  5  6  2  0  0  0  0
  5 26  1  0  0  0  0
  6  7  1  0  0  0  0
  6 27  1  0  0  0  0
  7  8  2  0  0  0  0
  7 28  1  0  0  0  0
  9 10  1  0  0  0  0
  9 29  1  0  0  0  0
 10 11  2  0  0  0  0
 10 12  1  0  0  0  0
 12 19  1  0  0  0  0
 12 13  1  0  0  0  0
 13 14  1  0  0  0  0
 13 30  1  0  0  0  0
 13 31  1  0  0  0  0
 14 15  1  0  0  0  0
 14 32  1  0  0  0  0
 14 33  1  0  0  0  0
 15 16  1  0  0  0  0
 15 34  1  0  0  0  0
 15 35  1  0  0  0  0
 16 17  1  0  0  0  0
 16 18  1  0  0  0  0
 16 43  1  0  0  0  0
 17 36  1  0  0  0  0
 17 37  1  0  0  0  0
 17 38  1  0  0  0  0
 18 19  1  0  0  0  0
 18 39  1  0  0  0  0
 18 40  1  0  0  0  0
 19 41  1  0  0  0  0
 19 42  1  0  0  0  0
M  CHG  1  16   1
M  END
> <s_m_source_file>
AV-unprocessed.smi

> <i_m_source_file_index>
1752

> <i_lp_mmshare_version>
43012

> <i_f3d_flags>
0

> <s_epik_input>
bjFbY0hdW2NIXVtjSF1uMVtDSDJdW0NAQEhdKFtDSDNdKVtOSF1DKD1PKU4yW0NIMl1bQ0gyXVtDSDJdTihbQ0gzXSlbQ0gyXVtDSDJdMg==

> <s_epik_cmdline>
J2VwaWtfcHl0aG9uJywgJy1waCcsICc3LjAnLCAnLXRuJywgJzgnLCAnLW1hJywgJzIwMCcsICctbWV0YWxfYmluZGluZycsICctaW1hZScsICc8aW5maWxlLm1hZT4nLCAnLW9tYWUnLCAnPG91dGZpbGUubWFlPic=

> <r_lp_tautomer_probability>
1

> <r_epik_Ionization_Penalty>
0.00208423

> <r_epik_Ionization_Penalty_Charging>
0.00203643

> <r_epik_Ionization_Penalty_Neutral>
4.77939e-05

> <r_epik_State_Penalty>
0.00139278

> <r_epik_Charging_Adjusted_Penalty>
0.00342922

> <i_epik_Tot_Q>
1

> <i_epik_Tot_abs_Q>
1

> <r_epik_Metal_State_Penalty>
-0

> <b_epik_Metal_Only>
0

> <s_lp_Force_Field>
OPLS_2005

> <r_lp_Energy>
45.8522

> <b_lp_Chiralities_Consistent>
1

> <s_lp_Variant>
AV-unprocessed.smi:1752-2

> <Gold.Version>
5.8.1

> <Gold.Id.Protein>
6NUR|6NUR_protein|mol2

> <Gold.PLP.Fitness>
41.1339

> <Gold.PLP.PLP>
-39.8152

> <Gold.PLP.part.hbond>
-1.0000

> <Gold.PLP.part.metal>
0.0000

> <Gold.PLP.part.buried>
-3.6535

> <Gold.PLP.part.nonpolar>
-35.0779

> <Gold.PLP.part.repulsive>
0.3022

> <Gold.PLP.ligand.clash>
0.0000

> <Gold.PLP.ligand.torsion>
0.5495

> <Gold.PLP.Chemscore.Hbond>
0.7680

> <Gold.PLP.Chemscore.CHOScore>
0.0000

> <Gold.PLP.Chemscore.Metal>
0.0000

> <Gold.Chemscore.Hbonds>
donor molecule, donor type, donor heavy atom, donor atom, acceptor molecule, acceptor atom, score
      P1  H  7989  7998       L1    11  0.77

> <Gold.PLP.Chemscore.Internal.Correction>
0.1138

> <Gold.Rescore>
     Score         DG    S(hbond)    S(metal)    S(lipo)     H(rot)  DE(clash)    DE(int)     intcor
     14.75     -15.31       0.89        0.00      89.55       1.41       0.01       0.55       ----

> <Gold.Chemscore.Fitness>
14.7499

> <Gold.Chemscore.DG>
-15.3142

> <Gold.Chemscore.ZeroCoef>
-5.4800

> <Gold.Chemscore.Hbond>
0.8899

> <Gold.Chemscore.Metal>
0.0000

> <Gold.Chemscore.Lipo>
89.5544

> <Gold.Chemscore.Internal_Hbond>
0.0000

> <Gold.Chemscore.DEClash>
0.0147

> <Gold.Chemscore.DEInternal>
0.5496

> <Gold.Chemscore.Rot>
1.4125

> <Gold.Chemscore.Internal.Correction>
   9.000000E+99

> <Gold.Chemscore.Hbonds>
donor molecule, donor type, donor heavy atom, donor atom, acceptor molecule, acceptor atom, score
      P1  H  7989  7998       L1    11  0.70

> <Gold.Chemscore.Hbond.Weighted>
-2.9723

> <Gold.Chemscore.Metal.Weighted>
-0.0000

> <Gold.Chemscore.Lipo.Weighted>
-10.4779

> <Gold.Chemscore.Internal_Hbond.Weighted>
0.0000

> <Gold.Chemscore.DEClash.Weighted>
0.0147

> <Gold.Chemscore.DEInternal.Weighted>
0.5496

> <Gold.Chemscore.Rot.Weighted>
3.6160

> <Gold.Chemscore.Internal.Correction.Weighted>
   9.000000E+99

> <Gold.Protein.RotatedTorsions>
[ 6907 6896 6895 6894 ] final   -9.35 input  -60.11 | X-H torsion
[ 7974 7965 7964 7962 ] final    0.58 input  175.53 | X-H torsion
[ 8008 7997 7996 7995 ] final -164.96 input   59.86 | X-H torsion
[ 10167 10162 10161 10158 ] final  101.42 input  -65.29 | X-H torsion
[ 10718 10713 10712 10709 ] final -120.65 input   66.30 | X-H torsion
[ 10763 10752 10751 10750 ] final  -59.67 input  -60.55 | X-H torsion
[ 11005 11000 10999 10996 ] final  -66.32 input  -57.11 | X-H torsion

> <Gold.Protein.ActiveResidues>
 VAL166  LYS551  ARG553  GLY616  TRP617  ASP618  TYR619  PRO620  LYS621  CYS622 
 ASP623  PHE694  ASN695  SER759  ASP760  ASP761  ALA762  ILE779  LEU786  VAL792 
 PHE793  MET794  SER795  GLU796  ALA797  LYS798  CYS799  TRP800  GLU811  SER814 

> <Gold.Protein.RotatedAtoms>
  151.4192  135.0995  159.9608 H   0  0  0  0  0  0  0  0  0  0  0  0  # atno 6907 bound_to 6896
  152.4994  133.8724  159.7315 H   0  0  0  0  0  0  0  0  0  0  0  0  # atno 6908 bound_to 6896
  150.9236  133.6793  159.2854 H   0  0  0  0  0  0  0  0  0  0  0  0  # atno 6909 bound_to 6896
  146.2435  140.1117  142.8343 H   0  0  0  0  0  0  0  0  0  0  0  0  # atno 7974 bound_to 7965
  155.8430  140.0951  157.1722 H   0  0  0  0  0  0  0  0  0  0  0  0  # atno 8008 bound_to 7997
  154.3982  140.1397  156.3813 H   0  0  0  0  0  0  0  0  0  0  0  0  # atno 8009 bound_to 7997
  155.8044  140.3452  155.5423 H   0  0  0  0  0  0  0  0  0  0  0  0  # atno 8010 bound_to 7997
  139.7440  144.7003  151.0532 H   0  0  0  0  0  0  0  0  0  0  0  0  # atno 10167 bound_to 10162
  156.1275  130.6370  150.9567 H   0  0  0  0  0  0  0  0  0  0  0  0  # atno 10718 bound_to 10713
  154.2573  135.6315  153.5261 H   0  0  0  0  0  0  0  0  0  0  0  0  # atno 10763 bound_to 10752
  152.9902  135.5579  154.5743 H   0  0  0  0  0  0  0  0  0  0  0  0  # atno 10764 bound_to 10752
  154.5284  135.2887  155.1177 H   0  0  0  0  0  0  0  0  0  0  0  0  # atno 10765 bound_to 10752
  141.1479  133.6697  156.6122 H   0  0  0  0  0  0  0  0  0  0  0  0  # atno 11005 bound_to 11000
  145.0482  140.8997  143.5011 LP  0  0  0  0  0  0  0  0  0  0  0  0  # atno 17320 bound_to 7965
  145.1209  139.2694  143.5589 LP  0  0  0  0  0  0  0  0  0  0  0  0  # atno 17321 bound_to 7965
  140.7789  143.4890  150.9918 LP  0  0  0  0  0  0  0  0  0  0  0  0  # atno 17342 bound_to 10162
  139.8578  143.7354  152.3175 LP  0  0  0  0  0  0  0  0  0  0  0  0  # atno 17343 bound_to 10162
  157.6455  131.0904  150.8161 LP  0  0  0  0  0  0  0  0  0  0  0  0  # atno 17370 bound_to 10713
  156.8250  130.4996  149.5338 LP  0  0  0  0  0  0  0  0  0  0  0  0  # atno 17371 bound_to 10713
  140.3606  134.7691  157.4531 LP  0  0  0  0  0  0  0  0  0  0  0  0  # atno 17394 bound_to 11000
  140.0788  134.5760  155.8562 LP  0  0  0  0  0  0  0  0  0  0  0  0  # atno 17395 bound_to 11000

$$$$
