AV-unprocessed.smi:871|AV-procd|sdf|4011|dock10
  -GOLD-   22720 1503D 1   1.00000     0.00000
 Structure written by MMmdl.
 19 19  0  0  0  0  0  0  0  0  2 V2000
  149.4947  142.2991  155.0737 N   0  0  0  0  0  0  0  0  0  0  0  0
  150.3442  141.7000  155.9837 C   0  0  0  0  0  0  0  0  0  0  0  0
  150.6617  142.2901  157.1546 C   0  0  0  0  0  0  0  0  0  0  0  0
  151.5542  141.6465  158.0871 C   0  0  0  0  0  0  0  0  0  0  0  0
  152.0479  140.4429  157.7625 C   0  0  0  0  0  0  0  0  0  0  0  0
  151.7147  139.7984  156.5542 N   0  0  0  0  0  0  0  0  0  0  0  0
  152.3507  138.4934  156.3048 C   0  0  0  0  0  0  0  0  0  0  0  0
  152.9783  138.4179  154.9097 C   0  0  0  0  0  0  0  0  0  0  0  0
  152.4919  137.5882  154.1107 O   0  0  0  0  0  0  0  0  0  0  0  0
  153.9322  139.1898  154.6675 O   0  5  0  0  0  0  0  0  0  0  0  0
  150.8947  140.3796  155.6238 C   0  0  0  0  0  0  0  0  0  0  0  0
  150.6304  139.8274  154.5531 O   0  0  0  0  0  0  0  0  0  0  0  0
  149.2545  141.8604  154.1968 H   0  0  0  0  0  0  0  0  0  0  0  0
  149.1474  143.2366  155.2190 H   0  0  0  0  0  0  0  0  0  0  0  0
  150.2482  143.2570  157.4020 H   0  0  0  0  0  0  0  0  0  0  0  0
  151.8225  142.1230  159.0184 H   0  0  0  0  0  0  0  0  0  0  0  0
  152.7276  139.8954  158.4000 H   0  0  0  0  0  0  0  0  0  0  0  0
  153.1148  138.2380  157.0398 H   0  0  0  0  0  0  0  0  0  0  0  0
  151.5941  137.7126  156.3985 H   0  0  0  0  0  0  0  0  0  0  0  0
  1  2  1  0  0  0  0
  1 13  1  0  0  0  0
  1 14  1  0  0  0  0
  2 11  1  0  0  0  0
  2  3  2  0  0  0  0
  3  4  1  0  0  0  0
  3 15  1  0  0  0  0
  4  5  2  0  0  0  0
  4 16  1  0  0  0  0
  5  6  1  0  0  0  0
  5 17  1  0  0  0  0
  6  7  1  0  0  0  0
  6 11  1  0  0  0  0
  7  8  1  0  0  0  0
  7 18  1  0  0  0  0
  7 19  1  0  0  0  0
  8  9  2  0  0  0  0
  8 10  1  0  0  0  0
 11 12  2  0  0  0  0
M  CHG  1  10  -1
M  END
> <s_m_source_file>
AV-unprocessed.smi

> <i_m_source_file_index>
871

> <i_lp_mmshare_version>
43012

> <i_f3d_flags>
0

> <s_epik_input>
W05IMl1jMVtjSF1bY0hdW2NIXW4oYzE9TylbQ0gyXUMoPU8pW09IXQ==

> <s_epik_cmdline>
J2VwaWtfcHl0aG9uJywgJy1waCcsICc3LjAnLCAnLXRuJywgJzgnLCAnLW1hJywgJzIwMCcsICctbWV0YWxfYmluZGluZycsICctaW1hZScsICc8aW5maWxlLm1hZT4nLCAnLW9tYWUnLCAnPG91dGZpbGUubWFlPic=

> <r_lp_tautomer_probability>
1

> <r_epik_Ionization_Penalty>
0.00200637

> <r_epik_Ionization_Penalty_Charging>
0.0012605

> <r_epik_Ionization_Penalty_Neutral>
0.000745874

> <r_epik_State_Penalty>
-0

> <r_epik_Charging_Adjusted_Penalty>
0.0012605

> <i_epik_Tot_Q>
-1

> <i_epik_Tot_abs_Q>
1

> <r_epik_Metal_State_Penalty>
-0

> <b_epik_Metal_Only>
0

> <s_lp_Force_Field>
OPLS_2005

> <r_lp_Energy>
10.9711

> <b_lp_Chiralities_Consistent>
1

> <s_lp_Variant>
AV-unprocessed.smi:871-1

> <Gold.Version>
5.8.1

> <Gold.Id.Protein>
6NUR|6NUR_protein|mol2

> <Gold.PLP.Fitness>
39.9587

> <Gold.PLP.PLP>
-24.5254

> <Gold.PLP.part.hbond>
-4.0000

> <Gold.PLP.part.metal>
0.0000

> <Gold.PLP.part.buried>
-3.6784

> <Gold.PLP.part.nonpolar>
-17.7494

> <Gold.PLP.part.repulsive>
0.4664

> <Gold.PLP.ligand.clash>
0.0000

> <Gold.PLP.ligand.torsion>
0.1521

> <Gold.PLP.Chemscore.Hbond>
5.2440

> <Gold.PLP.Chemscore.CHOScore>
0.0000

> <Gold.PLP.Chemscore.Metal>
0.0000

> <Gold.Chemscore.Hbonds>
donor molecule, donor type, donor heavy atom, donor atom, acceptor molecule, acceptor atom, score
      L1  H     1    14       P1  8028  1.00
      P1  H  7989  7998       L1    12  0.90
      P1  H  7997  8010       L1    10  2.00
      P1  H 10752 10763       L1     9  1.34

> <Gold.PLP.Chemscore.Internal.Correction>
0.0055

> <Gold.Rescore>
     Score         DG    S(hbond)    S(metal)    S(lipo)     H(rot)  DE(clash)    DE(int)     intcor
     12.93     -14.46       2.66        0.00      35.45       1.58       0.00       1.53       ----

> <Gold.Chemscore.Fitness>
12.9317

> <Gold.Chemscore.DG>
-14.4618

> <Gold.Chemscore.ZeroCoef>
-5.4800

> <Gold.Chemscore.Hbond>
2.6614

> <Gold.Chemscore.Metal>
0.0000

> <Gold.Chemscore.Lipo>
35.4540

> <Gold.Chemscore.Internal_Hbond>
0.0000

> <Gold.Chemscore.DEClash>
0.0000

> <Gold.Chemscore.DEInternal>
1.5301

> <Gold.Chemscore.Rot>
1.5841

> <Gold.Chemscore.Internal.Correction>
   9.000000E+99

> <Gold.Chemscore.Hbonds>
donor molecule, donor type, donor heavy atom, donor atom, acceptor molecule, acceptor atom, score
      L1  H     1    14       P1  8028  0.96
      P1  H  7989  7998       L1    12  0.18
      P1  H  7997  8010       L1    10  0.93
      P1  H 10752 10763       L1     9  0.67

> <Gold.Chemscore.Hbond.Weighted>
-8.8891

> <Gold.Chemscore.Metal.Weighted>
-0.0000

> <Gold.Chemscore.Lipo.Weighted>
-4.1481

> <Gold.Chemscore.Internal_Hbond.Weighted>
0.0000

> <Gold.Chemscore.DEClash.Weighted>
0.0000

> <Gold.Chemscore.DEInternal.Weighted>
1.5301

> <Gold.Chemscore.Rot.Weighted>
4.0554

> <Gold.Chemscore.Internal.Correction.Weighted>
   9.000000E+99

> <Gold.Protein.RotatedTorsions>
[ 6907 6896 6895 6894 ] final  155.11 input  -60.11 | X-H torsion
[ 7974 7965 7964 7962 ] final  -45.77 input  175.53 | X-H torsion
[ 8008 7997 7996 7995 ] final  111.24 input   59.86 | X-H torsion
[ 10167 10162 10161 10158 ] final -165.39 input  -65.29 | X-H torsion
[ 10718 10713 10712 10709 ] final   53.83 input   66.30 | X-H torsion
[ 10763 10752 10751 10750 ] final   29.38 input  -60.55 | X-H torsion
[ 11005 11000 10999 10996 ] final  101.86 input  -57.11 | X-H torsion

> <Gold.Protein.ActiveResidues>
 VAL166  LYS551  ARG553  GLY616  TRP617  ASP618  TYR619  PRO620  LYS621  CYS622 
 ASP623  PHE694  ASN695  SER759  ASP760  ASP761  ALA762  ILE779  LEU786  VAL792 
 PHE793  MET794  SER795  GLU796  ALA797  LYS798  CYS799  TRP800  GLU811  SER814 

> <Gold.Protein.RotatedAtoms>
  152.0488  133.4010  159.4367 H   0  0  0  0  0  0  0  0  0  0  0  0  # atno 6907 bound_to 6896
  150.6871  134.3331  159.4845 H   0  0  0  0  0  0  0  0  0  0  0  0  # atno 6908 bound_to 6896
  152.1139  134.9254  160.0616 H   0  0  0  0  0  0  0  0  0  0  0  0  # atno 6909 bound_to 6896
  145.9787  140.7306  142.9374 H   0  0  0  0  0  0  0  0  0  0  0  0  # atno 7974 bound_to 7965
  156.2110  140.3023  155.9733 H   0  0  0  0  0  0  0  0  0  0  0  0  # atno 8008 bound_to 7997
  155.2723  140.0434  157.3025 H   0  0  0  0  0  0  0  0  0  0  0  0  # atno 8009 bound_to 7997
  154.5700  140.2345  155.8215 H   0  0  0  0  0  0  0  0  0  0  0  0  # atno 8010 bound_to 7997
  139.6185  144.0671  152.1911 H   0  0  0  0  0  0  0  0  0  0  0  0  # atno 10167 bound_to 10162
  157.5202  130.8560  149.8549 H   0  0  0  0  0  0  0  0  0  0  0  0  # atno 10718 bound_to 10713
  153.0434  135.6490  154.0881 H   0  0  0  0  0  0  0  0  0  0  0  0  # atno 10763 bound_to 10752
  154.0584  135.2890  155.3330 H   0  0  0  0  0  0  0  0  0  0  0  0  # atno 10764 bound_to 10752
  154.6674  135.5369  153.8160 H   0  0  0  0  0  0  0  0  0  0  0  0  # atno 10765 bound_to 10752
  139.8775  134.9200  156.4971 H   0  0  0  0  0  0  0  0  0  0  0  0  # atno 11005 bound_to 11000
  144.6856  140.2872  143.7283 LP  0  0  0  0  0  0  0  0  0  0  0  0  # atno 17320 bound_to 7965
  145.7801  139.1888  143.2163 LP  0  0  0  0  0  0  0  0  0  0  0  0  # atno 17321 bound_to 7965
  140.0307  144.6083  150.7490 LP  0  0  0  0  0  0  0  0  0  0  0  0  # atno 17342 bound_to 10162
  140.7367  143.2756  151.3753 LP  0  0  0  0  0  0  0  0  0  0  0  0  # atno 17343 bound_to 10162
  156.0348  130.3754  150.1589 LP  0  0  0  0  0  0  0  0  0  0  0  0  # atno 17370 bound_to 10713
  156.9778  130.9854  151.3444 LP  0  0  0  0  0  0  0  0  0  0  0  0  # atno 17371 bound_to 10713
  140.8616  133.8055  155.9271 LP  0  0  0  0  0  0  0  0  0  0  0  0  # atno 17394 bound_to 11000
  140.9043  134.2339  157.5023 LP  0  0  0  0  0  0  0  0  0  0  0  0  # atno 17395 bound_to 11000

$$$$
