AV-unprocessed.smi:79|AV-procd|sdf|782|dock10
  -GOLD-   2262017143D 1   1.00000     0.00000
 Structure written by MMmdl.
 56 59  0  0  0  0  0  0  0  0  2 V2000
  152.0821  145.2479  159.2362 C   0  0  0  0  0  0  0  0  0  0  0  0
  150.9592  144.2950  158.8073 C   0  0  1  0  0  0  0  0  0  0  0  0
  149.7894  145.0586  158.5939 O   0  0  0  0  0  0  0  0  0  0  0  0
  151.3081  143.5332  157.5136 C   0  0  0  0  0  0  0  0  0  0  0  0
  150.2355  142.5935  157.0972 N   0  3  2  0  0  0  0  0  0  0  0  0
  149.4139  142.0940  158.2331 C   0  0  0  0  0  0  0  0  0  0  0  0
  148.2842  141.1685  157.7433 C   0  0  0  0  0  0  0  0  0  0  0  0
  148.8199  140.0777  156.9356 N   0  0  0  0  0  0  0  0  0  0  0  0
  149.2112  139.0139  157.6839 C   0  0  0  0  0  0  0  0  0  0  0  0
  150.5077  138.8722  158.0658 N   0  0  0  0  0  0  0  0  0  0  0  0
  150.8772  137.8369  158.8258 C   0  0  0  0  0  0  0  0  0  0  0  0
  150.1233  136.8505  159.3145 N   0  0  0  0  0  0  0  0  0  0  0  0
  148.8192  136.9929  158.9420 C   0  0  0  0  0  0  0  0  0  0  0  0
  148.2836  138.0370  158.1376 C   0  0  0  0  0  0  0  0  0  0  0  0
  146.9167  137.8555  157.9711 N   0  0  0  0  0  0  0  0  0  0  0  0
  146.6580  136.7642  158.6390 C   0  0  0  0  0  0  0  0  0  0  0  0
  147.7445  136.1754  159.2474 N   0  0  0  0  0  0  0  0  0  0  0  0
  147.7446  134.9631  160.0522 C   0  0  0  0  0  0  0  0  0  0  0  0
  146.9426  135.0831  161.3614 C   0  0  0  0  0  0  0  0  0  0  0  0
  147.3610  136.3833  162.0776 C   0  0  0  0  0  0  0  0  0  0  0  0
  146.6666  137.5157  161.5936 O   0  0  0  0  0  0  0  0  0  0  0  0
  145.4329  134.8418  161.2187 C   0  0  0  0  0  0  0  0  0  0  0  0
  145.4351  133.8361  162.2557 O   0  0  0  0  0  0  0  0  0  0  0  0
  146.8794  133.8221  162.2352 C   0  0  0  0  0  0  0  0  0  0  0  0
  149.6206  140.5429  155.7964 C   0  0  2  0  0  0  0  0  0  0  0  0
  150.0978  139.4157  154.8604 C   0  0  0  0  0  0  0  0  0  0  0  0
  150.7553  141.4894  156.2475 C   0  0  0  0  0  0  0  0  0  0  0  0
  153.0065  144.7015  159.4259 H   0  0  0  0  0  0  0  0  0  0  0  0
  151.8202  145.7762  160.1537 H   0  0  0  0  0  0  0  0  0  0  0  0
  152.2892  145.9944  158.4685 H   0  0  0  0  0  0  0  0  0  0  0  0
  150.7698  143.6013  159.6257 H   0  0  0  0  0  0  0  0  0  0  0  0
  149.9943  145.7705  158.0063 H   0  0  0  0  0  0  0  0  0  0  0  0
  151.4897  144.2616  156.7215 H   0  0  0  0  0  0  0  0  0  0  0  0
  152.2412  142.9803  157.6340 H   0  0  0  0  0  0  0  0  0  0  0  0
  150.0548  141.5589  158.9358 H   0  0  0  0  0  0  0  0  0  0  0  0
  148.9742  142.9259  158.7816 H   0  0  0  0  0  0  0  0  0  0  0  0
  147.7169  140.7882  158.5938 H   0  0  0  0  0  0  0  0  0  0  0  0
  147.5776  141.7343  157.1351 H   0  0  0  0  0  0  0  0  0  0  0  0
  151.9259  137.7941  159.0808 H   0  0  0  0  0  0  0  0  0  0  0  0
  145.6596  136.3581  158.7061 H   0  0  0  0  0  0  0  0  0  0  0  0
  147.3605  134.1435  159.4437 H   0  0  0  0  0  0  0  0  0  0  0  0
  148.7843  134.7092  160.2628 H   0  0  0  0  0  0  0  0  0  0  0  0
  147.1683  136.3226  163.1488 H   0  0  0  0  0  0  0  0  0  0  0  0
  148.4294  136.5654  161.9579 H   0  0  0  0  0  0  0  0  0  0  0  0
  145.9287  137.6812  162.1605 H   0  0  0  0  0  0  0  0  0  0  0  0
  144.8116  135.7025  161.4688 H   0  0  0  0  0  0  0  0  0  0  0  0
  145.1397  134.4243  160.2543 H   0  0  0  0  0  0  0  0  0  0  0  0
  147.2617  132.9232  161.7506 H   0  0  0  0  0  0  0  0  0  0  0  0
  147.3154  133.9423  163.2274 H   0  0  0  0  0  0  0  0  0  0  0  0
  148.9331  141.1444  155.2000 H   0  0  0  0  0  0  0  0  0  0  0  0
  150.5352  139.8308  153.9522 H   0  0  0  0  0  0  0  0  0  0  0  0
  149.2656  138.7786  154.5595 H   0  0  0  0  0  0  0  0  0  0  0  0
  150.8561  138.7821  155.3188 H   0  0  0  0  0  0  0  0  0  0  0  0
  151.2393  141.9138  155.3668 H   0  0  0  0  0  0  0  0  0  0  0  0
  151.5271  140.9456  156.7926 H   0  0  0  0  0  0  0  0  0  0  0  0
  149.6128  143.1242  156.5045 H   0  0  0  0  0  0  0  0  0  0  0  0
  1  2  1  0  0  0  0
  1 28  1  0  0  0  0
  1 29  1  0  0  0  0
  1 30  1  0  0  0  0
  2  3  1  0  0  0  0
  2  4  1  0  0  0  0
  2 31  1  0  0  0  0
  3 32  1  0  0  0  0
  4  5  1  0  0  0  0
  4 33  1  0  0  0  0
  4 34  1  0  0  0  0
  5 27  1  0  0  0  0
  5  6  1  0  0  0  0
  5 56  1  0  0  0  0
  6  7  1  0  0  0  0
  6 35  1  0  0  0  0
  6 36  1  0  0  0  0
  7  8  1  0  0  0  0
  7 37  1  0  0  0  0
  7 38  1  0  0  0  0
  8  9  1  0  0  0  0
  8 25  1  0  0  0  0
  9 14  1  0  0  0  0
  9 10  2  0  0  0  0
 10 11  1  0  0  0  0
 11 12  2  0  0  0  0
 11 39  1  0  0  0  0
 12 13  1  0  0  0  0
 13 17  1  0  0  0  0
 13 14  2  0  0  0  0
 14 15  1  0  0  0  0
 15 16  2  0  0  0  0
 16 17  1  0  0  0  0
 16 40  1  0  0  0  0
 17 18  1  0  0  0  0
 18 19  1  0  0  0  0
 18 41  1  0  0  0  0
 18 42  1  0  0  0  0
 19 24  1  0  0  0  0
 19 20  1  0  0  0  0
 19 22  1  0  0  0  0
 20 21  1  0  0  0  0
 20 43  1  0  0  0  0
 20 44  1  0  0  0  0
 21 45  1  0  0  0  0
 22 23  1  0  0  0  0
 22 46  1  0  0  0  0
 22 47  1  0  0  0  0
 23 24  1  0  0  0  0
 24 48  1  0  0  0  0
 24 49  1  0  0  0  0
 25 26  1  0  0  0  0
 25 27  1  0  0  0  0
 25 50  1  0  0  0  0
 26 51  1  0  0  0  0
 26 52  1  0  0  0  0
 26 53  1  0  0  0  0
 27 54  1  0  0  0  0
 27 55  1  0  0  0  0
M  CHG  1   5   1
M  END
> <s_m_source_file>
AV-unprocessed.smi

> <i_m_source_file_index>
79

> <i_lp_mmshare_version>
43012

> <i_f3d_flags>
0

> <s_epik_input>
W0NIM11bQ0BIXShbT0hdKVtDSDJdTjFbQ0gyXVtDSDJdTihbQ0BASF0oW0NIM10pW0NIMl0xKWMobltjSF1uMiljKGMyMyluW2NIXW4zW0NIMl1DNChbQ0gyXVtPSF0pW0NIMl1PW0NIMl00

> <s_epik_cmdline>
J2VwaWtfcHl0aG9uJywgJy1waCcsICc3LjAnLCAnLXRuJywgJzgnLCAnLW1hJywgJzIwMCcsICctbWV0YWxfYmluZGluZycsICctaW1hZScsICc8aW5maWxlLm1hZT4nLCAnLW9tYWUnLCAnPG91dGZpbGUubWFlPic=

> <r_lp_tautomer_probability>
1

> <r_epik_Ionization_Penalty>
0.00515943

> <r_epik_Ionization_Penalty_Charging>
0.00509693

> <r_epik_Ionization_Penalty_Neutral>
6.25007e-05

> <r_epik_State_Penalty>
-0

> <r_epik_Charging_Adjusted_Penalty>
0.00509693

> <i_epik_Tot_Q>
1

> <i_epik_Tot_abs_Q>
1

> <r_epik_Metal_State_Penalty>
-0

> <b_epik_Metal_Only>
0

> <s_lp_Force_Field>
OPLS_2005

> <r_lp_Energy>
48.9332

> <b_lp_Chiralities_Consistent>
1

> <s_lp_Variant>
AV-unprocessed.smi:79-6

> <Gold.Version>
5.8.1

> <Gold.Id.Protein>
6NUR|6NUR_protein|mol2

> <Gold.PLP.Fitness>
55.4042

> <Gold.PLP.PLP>
-46.2616

> <Gold.PLP.part.hbond>
-5.8479

> <Gold.PLP.part.metal>
0.0000

> <Gold.PLP.part.buried>
-6.5078

> <Gold.PLP.part.nonpolar>
-34.3896

> <Gold.PLP.part.repulsive>
0.0518

> <Gold.PLP.ligand.clash>
0.0024

> <Gold.PLP.ligand.torsion>
1.5213

> <Gold.PLP.Chemscore.Hbond>
3.8160

> <Gold.PLP.Chemscore.CHOScore>
0.0000

> <Gold.PLP.Chemscore.Metal>
0.0000

> <Gold.Chemscore.Hbonds>
donor molecule, donor type, donor heavy atom, donor atom, acceptor molecule, acceptor atom, score
      L1  H     5    56       P1  8028  2.00
      P1  H  6896  6909       L1    12  0.84
      P1  H  6934  6947       L1    21  1.00

> <Gold.PLP.Chemscore.Internal.Correction>
0.7396

> <Gold.Rescore>
     Score         DG    S(hbond)    S(metal)    S(lipo)     H(rot)  DE(clash)    DE(int)     intcor
     14.84     -16.61       2.68        0.00      99.91       3.72       0.08       1.69       ----

> <Gold.Chemscore.Fitness>
14.8384

> <Gold.Chemscore.DG>
-16.6062

> <Gold.Chemscore.ZeroCoef>
-5.4800

> <Gold.Chemscore.Hbond>
2.6845

> <Gold.Chemscore.Metal>
0.0000

> <Gold.Chemscore.Lipo>
99.9132

> <Gold.Chemscore.Internal_Hbond>
0.0000

> <Gold.Chemscore.DEClash>
0.0785

> <Gold.Chemscore.DEInternal>
1.6893

> <Gold.Chemscore.Rot>
3.7226

> <Gold.Chemscore.Internal.Correction>
   9.000000E+99

> <Gold.Chemscore.Hbonds>
donor molecule, donor type, donor heavy atom, donor atom, acceptor molecule, acceptor atom, score
      L1  H     5    56       P1  8028  0.98
      P1  H  6896  6909       L1    12  0.79
      P1  H  6934  6947       L1    21  0.58

> <Gold.Chemscore.Hbond.Weighted>
-8.9662

> <Gold.Chemscore.Metal.Weighted>
-0.0000

> <Gold.Chemscore.Lipo.Weighted>
-11.6898

> <Gold.Chemscore.Internal_Hbond.Weighted>
0.0000

> <Gold.Chemscore.DEClash.Weighted>
0.0785

> <Gold.Chemscore.DEInternal.Weighted>
1.6893

> <Gold.Chemscore.Rot.Weighted>
9.5298

> <Gold.Chemscore.Internal.Correction.Weighted>
   9.000000E+99

> <Gold.Protein.RotatedTorsions>
[ 6907 6896 6895 6894 ] final   90.07 input  -60.11 | X-H torsion
[ 7974 7965 7964 7962 ] final   68.62 input  175.53 | X-H torsion
[ 8008 7997 7996 7995 ] final  -48.52 input   59.86 | X-H torsion
[ 10167 10162 10161 10158 ] final -168.49 input  -65.29 | X-H torsion
[ 10718 10713 10712 10709 ] final -128.07 input   66.30 | X-H torsion
[ 10763 10752 10751 10750 ] final -148.81 input  -60.55 | X-H torsion
[ 11005 11000 10999 10996 ] final  -25.21 input  -57.11 | X-H torsion

> <Gold.Protein.ActiveResidues>
 VAL166  LYS551  ARG553  GLY616  TRP617  ASP618  TYR619  PRO620  LYS621  CYS622 
 ASP623  PHE694  ASN695  SER759  ASP760  ASP761  ALA762  ILE779  LEU786  VAL792 
 PHE793  MET794  SER795  GLU796  ALA797  LYS798  CYS799  TRP800  GLU811  SER814 

> <Gold.Protein.RotatedAtoms>
  152.5442  134.1868  159.8657 H   0  0  0  0  0  0  0  0  0  0  0  0  # atno 6907 bound_to 6896
  151.1866  133.4685  159.2602 H   0  0  0  0  0  0  0  0  0  0  0  0  # atno 6908 bound_to 6896
  151.1125  135.0046  159.8556 H   0  0  0  0  0  0  0  0  0  0  0  0  # atno 6909 bound_to 6896
  145.8004  139.2979  143.1158 H   0  0  0  0  0  0  0  0  0  0  0  0  # atno 7974 bound_to 7965
  154.4030  140.1319  156.4352 H   0  0  0  0  0  0  0  0  0  0  0  0  # atno 8008 bound_to 7997
  155.7512  140.3488  155.5131 H   0  0  0  0  0  0  0  0  0  0  0  0  # atno 8009 bound_to 7997
  155.8948  140.1009  157.1383 H   0  0  0  0  0  0  0  0  0  0  0  0  # atno 8010 bound_to 7997
  139.5982  144.1068  152.1713 H   0  0  0  0  0  0  0  0  0  0  0  0  # atno 10167 bound_to 10162
  156.1916  130.6799  151.0431 H   0  0  0  0  0  0  0  0  0  0  0  0  # atno 10718 bound_to 10713
  154.8213  135.3325  154.7031 H   0  0  0  0  0  0  0  0  0  0  0  0  # atno 10763 bound_to 10752
  153.7663  135.6929  153.4919 H   0  0  0  0  0  0  0  0  0  0  0  0  # atno 10764 bound_to 10752
  153.2075  135.4494  155.0289 H   0  0  0  0  0  0  0  0  0  0  0  0  # atno 10765 bound_to 10752
  140.8917  133.7584  156.0430 H   0  0  0  0  0  0  0  0  0  0  0  0  # atno 11005 bound_to 11000
  145.9884  140.8624  143.0079 LP  0  0  0  0  0  0  0  0  0  0  0  0  # atno 17320 bound_to 7965
  144.6769  140.2180  143.7369 LP  0  0  0  0  0  0  0  0  0  0  0  0  # atno 17321 bound_to 7965
  140.0657  144.5820  150.7229 LP  0  0  0  0  0  0  0  0  0  0  0  0  # atno 17342 bound_to 10162
  140.7228  143.2606  151.4220 LP  0  0  0  0  0  0  0  0  0  0  0  0  # atno 17343 bound_to 10162
  157.6932  131.0803  150.7046 LP  0  0  0  0  0  0  0  0  0  0  0  0  # atno 17370 bound_to 10713
  156.7102  130.4649  149.5549 LP  0  0  0  0  0  0  0  0  0  0  0  0  # atno 17371 bound_to 10713
  140.8338  134.3146  157.5339 LP  0  0  0  0  0  0  0  0  0  0  0  0  # atno 17394 bound_to 11000
  139.8730  134.9378  156.3698 LP  0  0  0  0  0  0  0  0  0  0  0  0  # atno 17395 bound_to 11000

$$$$
