AV-unprocessed.smi:547|AV-procd|sdf|2889|dock9
  -GOLD-   2262023383D 1   1.00000     0.00000
 Structure written by MMmdl.
 37 38  0  0  0  0  0  0  0  0  1 V2000
  150.0270  140.4499  154.0768 O   0  0  0  0  0  0  0  0  0  0  0  0
  149.4958  141.4633  154.5314 C   0  0  0  0  0  0  0  0  0  0  0  0
  148.1921  141.9932  153.9142 C   0  0  0  0  0  0  0  0  0  0  0  0
  147.0830  142.2773  154.8545 N   0  0  0  0  0  0  0  0  0  0  0  0
  147.1861  141.7461  156.1356 N   0  0  0  0  0  0  0  0  0  0  0  0
  146.2589  141.9719  157.0003 C   0  0  0  0  0  0  0  0  0  0  0  0
  145.0922  142.7641  156.6862 C   0  0  0  0  0  0  0  0  0  0  0  0
  143.8792  143.0349  157.8875 Cl  0  0  0  0  0  0  0  0  0  0  0  0
  144.9913  143.2729  155.4330 C   0  0  0  0  0  0  0  0  0  0  0  0
  143.6205  144.2275  154.9814 Cl  0  0  0  0  0  0  0  0  0  0  0  0
  146.0301  143.0354  154.4202 C   0  0  0  0  0  0  0  0  0  0  0  0
  145.9659  143.4782  153.2724 O   0  0  0  0  0  0  0  0  0  0  0  0
  149.9912  142.1588  155.5660 N   0  0  0  0  0  0  0  0  0  0  0  0
  151.1549  141.7728  156.3566 C   0  0  0  0  0  0  0  0  0  0  0  0
  151.1946  142.4754  157.7324 C   0  0  0  0  0  0  0  0  0  0  0  0
  151.5565  143.9747  157.6286 C   0  0  0  0  0  0  0  0  0  0  0  0
  151.5911  144.6454  159.0110 C   0  0  0  0  0  0  0  0  0  0  0  0
  152.5595  143.9204  159.9574 C   0  0  0  0  0  0  0  0  0  0  0  0
  152.2061  142.4298  160.0721 C   0  0  0  0  0  0  0  0  0  0  0  0
  152.1675  141.7578  158.6896 C   0  0  0  0  0  0  0  0  0  0  0  0
  148.4311  142.8948  153.3463 H   0  0  0  0  0  0  0  0  0  0  0  0
  147.8455  141.2597  153.1845 H   0  0  0  0  0  0  0  0  0  0  0  0
  146.3050  141.5770  158.0152 H   0  0  0  0  0  0  0  0  0  0  0  0
  149.4949  142.9874  155.8601 H   0  0  0  0  0  0  0  0  0  0  0  0
  151.1667  140.6887  156.4825 H   0  0  0  0  0  0  0  0  0  0  0  0
  152.0478  142.0256  155.7841 H   0  0  0  0  0  0  0  0  0  0  0  0
  150.1983  142.4066  158.1721 H   0  0  0  0  0  0  0  0  0  0  0  0
  152.5273  144.0868  157.1440 H   0  0  0  0  0  0  0  0  0  0  0  0
  150.8364  144.5008  157.0013 H   0  0  0  0  0  0  0  0  0  0  0  0
  151.8824  145.6911  158.9100 H   0  0  0  0  0  0  0  0  0  0  0  0
  150.5887  144.6444  159.4417 H   0  0  0  0  0  0  0  0  0  0  0  0
  153.5803  144.0274  159.5886 H   0  0  0  0  0  0  0  0  0  0  0  0
  152.5362  144.3862  160.9430 H   0  0  0  0  0  0  0  0  0  0  0  0
  152.9309  141.9243  160.7108 H   0  0  0  0  0  0  0  0  0  0  0  0
  151.2362  142.3202  160.5590 H   0  0  0  0  0  0  0  0  0  0  0  0
  151.8767  140.7126  158.8020 H   0  0  0  0  0  0  0  0  0  0  0  0
  153.1707  141.7536  158.2607 H   0  0  0  0  0  0  0  0  0  0  0  0
  1  2  2  0  0  0  0
  2  3  1  0  0  0  0
  2 13  1  0  0  0  0
  3  4  1  0  0  0  0
  3 21  1  0  0  0  0
  3 22  1  0  0  0  0
  4 11  1  0  0  0  0
  4  5  1  0  0  0  0
  5  6  2  0  0  0  0
  6  7  1  0  0  0  0
  6 23  1  0  0  0  0
  7  8  1  0  0  0  0
  7  9  2  0  0  0  0
  9 10  1  0  0  0  0
  9 11  1  0  0  0  0
 11 12  2  0  0  0  0
 13 14  1  0  0  0  0
 13 24  1  0  0  0  0
 14 15  1  0  0  0  0
 14 25  1  0  0  0  0
 14 26  1  0  0  0  0
 15 20  1  0  0  0  0
 15 16  1  0  0  0  0
 15 27  1  0  0  0  0
 16 17  1  0  0  0  0
 16 28  1  0  0  0  0
 16 29  1  0  0  0  0
 17 18  1  0  0  0  0
 17 30  1  0  0  0  0
 17 31  1  0  0  0  0
 18 19  1  0  0  0  0
 18 32  1  0  0  0  0
 18 33  1  0  0  0  0
 19 20  1  0  0  0  0
 19 34  1  0  0  0  0
 19 35  1  0  0  0  0
 20 36  1  0  0  0  0
 20 37  1  0  0  0  0
M  END
> <s_m_source_file>
AV-unprocessed.smi

> <i_m_source_file_index>
547

> <i_lp_mmshare_version>
43012

> <i_f3d_flags>
0

> <s_epik_input>
W0NIMl0xW0NIMl1bQ0gyXVtDSDJdW0NIMl1bQ0hdMVtDSDJdW05IXUMoPU8pW0NIMl1uMm5bY0hdYyhDbCljKENsKWMyPU8=

> <s_epik_cmdline>
J2VwaWtfcHl0aG9uJywgJy1waCcsICc3LjAnLCAnLXRuJywgJzgnLCAnLW1hJywgJzIwMCcsICctbWV0YWxfYmluZGluZycsICctaW1hZScsICc8aW5maWxlLm1hZT4nLCAnLW9tYWUnLCAnPG91dGZpbGUubWFlPic=

> <r_lp_tautomer_probability>
1

> <r_epik_Ionization_Penalty>
1.98263e-08

> <r_epik_Ionization_Penalty_Charging>
2.84997e-11

> <r_epik_Ionization_Penalty_Neutral>
1.97978e-08

> <r_epik_State_Penalty>
-0

> <r_epik_Charging_Adjusted_Penalty>
2.84997e-11

> <i_epik_Tot_Q>
0

> <i_epik_Tot_abs_Q>
0

> <r_epik_Metal_State_Penalty>
-0

> <b_epik_Metal_Only>
0

> <s_lp_Force_Field>
OPLS_2005

> <r_lp_Energy>
30.5704

> <b_lp_Chiralities_Consistent>
1

> <s_lp_Variant>
AV-unprocessed.smi:547-1

> <Gold.Version>
5.8.1

> <Gold.Id.Protein>
6NUR|6NUR_protein|mol2

> <Gold.PLP.Fitness>
46.3189

> <Gold.PLP.PLP>
-42.0795

> <Gold.PLP.part.hbond>
-2.0000

> <Gold.PLP.part.metal>
0.0000

> <Gold.PLP.part.buried>
-4.6720

> <Gold.PLP.part.nonpolar>
-35.5482

> <Gold.PLP.part.repulsive>
0.6242

> <Gold.PLP.ligand.clash>
0.0000

> <Gold.PLP.ligand.torsion>
0.5231

> <Gold.PLP.Chemscore.Hbond>
1.7579

> <Gold.PLP.Chemscore.CHOScore>
0.0000

> <Gold.PLP.Chemscore.Metal>
0.0000

> <Gold.Chemscore.Hbonds>
donor molecule, donor type, donor heavy atom, donor atom, acceptor molecule, acceptor atom, score
      L1  H    13    24       P1  8028  1.00
      P1  H  7989  7998       L1     1  0.78

> <Gold.PLP.Chemscore.Internal.Correction>
0.0118

> <Gold.Rescore>
     Score         DG    S(hbond)    S(metal)    S(lipo)     H(rot)  DE(clash)    DE(int)     intcor
     15.54     -16.01       1.00        0.00      98.92       1.71       0.09       0.39       ----

> <Gold.Chemscore.Fitness>
15.5362

> <Gold.Chemscore.DG>
-16.0150

> <Gold.Chemscore.ZeroCoef>
-5.4800

> <Gold.Chemscore.Hbond>
0.9997

> <Gold.Chemscore.Metal>
0.0000

> <Gold.Chemscore.Lipo>
98.9168

> <Gold.Chemscore.Internal_Hbond>
0.0000

> <Gold.Chemscore.DEClash>
0.0930

> <Gold.Chemscore.DEInternal>
0.3857

> <Gold.Chemscore.Rot>
1.7099

> <Gold.Chemscore.Internal.Correction>
   9.000000E+99

> <Gold.Chemscore.Hbonds>
donor molecule, donor type, donor heavy atom, donor atom, acceptor molecule, acceptor atom, score
      L1  H    13    24       P1  8028  0.98
      P1  H  7989  7998       L1     1  0.51

> <Gold.Chemscore.Hbond.Weighted>
-3.3391

> <Gold.Chemscore.Metal.Weighted>
-0.0000

> <Gold.Chemscore.Lipo.Weighted>
-11.5733

> <Gold.Chemscore.Internal_Hbond.Weighted>
0.0000

> <Gold.Chemscore.DEClash.Weighted>
0.0930

> <Gold.Chemscore.DEInternal.Weighted>
0.3857

> <Gold.Chemscore.Rot.Weighted>
4.3774

> <Gold.Chemscore.Internal.Correction.Weighted>
   9.000000E+99

> <Gold.Protein.RotatedTorsions>
[ 6907 6896 6895 6894 ] final  175.49 input  -60.11 | X-H torsion
[ 7974 7965 7964 7962 ] final  -27.13 input  175.53 | X-H torsion
[ 8008 7997 7996 7995 ] final -137.75 input   59.86 | X-H torsion
[ 10167 10162 10161 10158 ] final -102.17 input  -65.29 | X-H torsion
[ 10718 10713 10712 10709 ] final  -26.16 input   66.30 | X-H torsion
[ 10763 10752 10751 10750 ] final   91.74 input  -60.55 | X-H torsion
[ 11005 11000 10999 10996 ] final   99.07 input  -57.11 | X-H torsion

> <Gold.Protein.ActiveResidues>
 VAL166  LYS551  ARG553  GLY616  TRP617  ASP618  TYR619  PRO620  LYS621  CYS622 
 ASP623  PHE694  ASN695  SER759  ASP760  ASP761  ALA762  ILE779  LEU786  VAL792 
 PHE793  MET794  SER795  GLU796  ALA797  LYS798  CYS799  TRP800  GLU811  SER814 

> <Gold.Protein.RotatedAtoms>
  151.7353  133.3319  159.3351 H   0  0  0  0  0  0  0  0  0  0  0  0  # atno 6907 bound_to 6896
  150.7595  134.6326  159.6204 H   0  0  0  0  0  0  0  0  0  0  0  0  # atno 6908 bound_to 6896
  152.3565  134.6935  160.0272 H   0  0  0  0  0  0  0  0  0  0  0  0  # atno 6909 bound_to 6896
  146.1378  140.5111  142.8665 H   0  0  0  0  0  0  0  0  0  0  0  0  # atno 7974 bound_to 7965
  155.4169  140.0516  157.3028 H   0  0  0  0  0  0  0  0  0  0  0  0  # atno 8008 bound_to 7997
  154.4920  140.2124  155.9486 H   0  0  0  0  0  0  0  0  0  0  0  0  # atno 8009 bound_to 7997
  156.1355  140.3164  155.8420 H   0  0  0  0  0  0  0  0  0  0  0  0  # atno 8010 bound_to 7997
  140.2335  143.3589  152.0865 H   0  0  0  0  0  0  0  0  0  0  0  0  # atno 10167 bound_to 10162
  156.4548  130.4491  149.6966 H   0  0  0  0  0  0  0  0  0  0  0  0  # atno 10718 bound_to 10713
  153.2115  135.4387  155.0385 H   0  0  0  0  0  0  0  0  0  0  0  0  # atno 10763 bound_to 10752
  154.8202  135.3334  154.7061 H   0  0  0  0  0  0  0  0  0  0  0  0  # atno 10764 bound_to 10752
  153.7499  135.6999  153.5004 H   0  0  0  0  0  0  0  0  0  0  0  0  # atno 10765 bound_to 10752
  139.8771  134.9078  156.4550 H   0  0  0  0  0  0  0  0  0  0  0  0  # atno 11005 bound_to 11000
  144.7759  140.5739  143.6638 LP  0  0  0  0  0  0  0  0  0  0  0  0  # atno 17320 bound_to 7965
  145.5115  139.1479  143.3602 LP  0  0  0  0  0  0  0  0  0  0  0  0  # atno 17321 bound_to 7965
  139.5102  144.6879  151.5837 LP  0  0  0  0  0  0  0  0  0  0  0  0  # atno 17342 bound_to 10162
  140.6167  143.9335  150.6494 LP  0  0  0  0  0  0  0  0  0  0  0  0  # atno 17343 bound_to 10162
  156.3778  130.7563  151.2553 LP  0  0  0  0  0  0  0  0  0  0  0  0  # atno 17370 bound_to 10713
  157.7501  131.0304  150.4137 LP  0  0  0  0  0  0  0  0  0  0  0  0  # atno 17371 bound_to 10713
  140.8904  133.7852  155.9566 LP  0  0  0  0  0  0  0  0  0  0  0  0  # atno 17394 bound_to 11000
  140.8759  134.2670  157.5168 LP  0  0  0  0  0  0  0  0  0  0  0  0  # atno 17395 bound_to 11000

$$$$
