AV-unprocessed.smi:148|AV-procd|sdf|1222|dock4
  -GOLD-   2262018413D 1   1.00000     0.00000
 Structure written by MMmdl.
 63 67  0  0  0  0  0  0  0  0  1 V2000
  145.9824  138.3969  153.9754 O   0  0  0  0  0  0  0  0  0  0  0  0
  145.9133  138.1921  155.3712 C   0  0  0  0  0  0  0  0  0  0  0  0
  147.2645  138.5203  156.0525 C   0  0  2  0  0  0  0  0  0  0  0  0
  147.4966  137.6893  157.3443 C   0  0  0  0  0  0  0  0  0  0  0  0
  148.7005  138.0757  158.0572 N   0  0  0  0  0  0  0  0  0  0  0  0
  148.9282  137.9677  159.4113 C   0  0  0  0  0  0  0  0  0  0  0  0
  150.1070  138.3610  159.8106 N   0  0  0  0  0  0  0  0  0  0  0  0
  150.7309  138.7810  158.6436 C   0  0  0  0  0  0  0  0  0  0  0  0
  152.0210  139.2897  158.3445 C   0  0  0  0  0  0  0  0  0  0  0  0
  152.9605  139.4493  159.3007 N   0  0  0  0  0  0  0  0  0  0  0  0
  153.2354  138.1694  159.9569 C   0  0  0  0  0  0  0  0  0  0  0  0
  154.5069  138.2412  160.8077 C   0  0  0  0  0  0  0  0  0  0  0  0
  154.3911  139.3839  161.8176 C   0  0  0  0  0  0  0  0  0  0  0  0
  154.0953  140.6996  161.0861 C   0  0  0  0  0  0  0  0  0  0  0  0
  152.8254  140.6197  160.1938 C   0  0  1  0  0  0  0  0  0  0  0  0
  152.5971  141.9793  159.4423 C   0  0  1  0  0  0  0  0  0  0  0  0
  151.2429  142.1653  158.7204 C   0  0  0  0  0  0  0  0  0  0  0  0
  151.0030  143.6767  158.5937 C   0  0  0  0  0  0  0  0  0  0  0  0
  152.0982  144.3535  159.4222 C   0  0  0  0  0  0  0  0  0  0  0  0
  152.6659  143.2503  160.3161 C   0  0  1  0  0  0  0  0  0  0  0  0
  151.8416  143.1358  161.4632 O   0  0  0  0  0  0  0  0  0  0  0  0
  152.3014  139.6076  157.0529 N   0  0  0  0  0  0  0  0  0  0  0  0
  151.3737  139.4236  156.1080 C   0  0  0  0  0  0  0  0  0  0  0  0
  150.1355  138.9397  156.2355 N   0  0  0  0  0  0  0  0  0  0  0  0
  149.8564  138.6259  157.5336 C   0  0  0  0  0  0  0  0  0  0  0  0
  147.4560  140.0484  156.2669 C   0  0  1  0  0  0  0  0  0  0  0  0
  147.3836  140.9006  154.9958 C   0  0  0  0  0  0  0  0  0  0  0  0
  146.4090  142.0203  155.3525 C   0  0  0  0  0  0  0  0  0  0  0  0
  145.5678  141.4264  156.3262 O   0  0  0  0  0  0  0  0  0  0  0  0
  146.4146  140.6918  157.1954 C   0  0  0  0  0  0  0  0  0  0  0  0
  146.7371  137.9373  153.6398 H   0  0  0  0  0  0  0  0  0  0  0  0
  145.1066  138.7967  155.7858 H   0  0  0  0  0  0  0  0  0  0  0  0
  145.6370  137.1488  155.5228 H   0  0  0  0  0  0  0  0  0  0  0  0
  148.0413  138.2141  155.3499 H   0  0  0  0  0  0  0  0  0  0  0  0
  146.6600  137.7978  158.0343 H   0  0  0  0  0  0  0  0  0  0  0  0
  147.5691  136.6260  157.1192 H   0  0  0  0  0  0  0  0  0  0  0  0
  148.1930  137.5710  160.0963 H   0  0  0  0  0  0  0  0  0  0  0  0
  152.3887  137.8939  160.5876 H   0  0  0  0  0  0  0  0  0  0  0  0
  153.3450  137.3815  159.2096 H   0  0  0  0  0  0  0  0  0  0  0  0
  154.6676  137.2949  161.3247 H   0  0  0  0  0  0  0  0  0  0  0  0
  155.3737  138.3998  160.1649 H   0  0  0  0  0  0  0  0  0  0  0  0
  153.5942  139.1702  162.5309 H   0  0  0  0  0  0  0  0  0  0  0  0
  155.3130  139.4719  162.3931 H   0  0  0  0  0  0  0  0  0  0  0  0
  154.0017  141.4804  161.8390 H   0  0  0  0  0  0  0  0  0  0  0  0
  154.9554  140.9684  160.4708 H   0  0  0  0  0  0  0  0  0  0  0  0
  151.9699  140.4384  160.8461 H   0  0  0  0  0  0  0  0  0  0  0  0
  153.3842  142.0775  158.6923 H   0  0  0  0  0  0  0  0  0  0  0  0
  151.2187  141.7053  157.7348 H   0  0  0  0  0  0  0  0  0  0  0  0
  150.4408  141.7189  159.3096 H   0  0  0  0  0  0  0  0  0  0  0  0
  151.0479  144.0031  157.5541 H   0  0  0  0  0  0  0  0  0  0  0  0
  150.0138  143.9331  158.9743 H   0  0  0  0  0  0  0  0  0  0  0  0
  152.8822  144.7106  158.7530 H   0  0  0  0  0  0  0  0  0  0  0  0
  151.7339  145.2160  159.9820 H   0  0  0  0  0  0  0  0  0  0  0  0
  153.6839  143.4853  160.6281 H   0  0  0  0  0  0  0  0  0  0  0  0
  151.6600  144.0035  161.7903 H   0  0  0  0  0  0  0  0  0  0  0  0
  151.6686  139.6957  155.1054 H   0  0  0  0  0  0  0  0  0  0  0  0
  148.4294  140.2048  156.7333 H   0  0  0  0  0  0  0  0  0  0  0  0
  148.3586  141.2917  154.7035 H   0  0  0  0  0  0  0  0  0  0  0  0
  146.9993  140.3356  154.1481 H   0  0  0  0  0  0  0  0  0  0  0  0
  146.9343  142.8695  155.7924 H   0  0  0  0  0  0  0  0  0  0  0  0
  145.8418  142.3750  154.4916 H   0  0  0  0  0  0  0  0  0  0  0  0
  145.8553  139.9735  157.7953 H   0  0  0  0  0  0  0  0  0  0  0  0
  146.8974  141.3868  157.8844 H   0  0  0  0  0  0  0  0  0  0  0  0
  1  2  1  0  0  0  0
  1 31  1  0  0  0  0
  2  3  1  0  0  0  0
  2 32  1  0  0  0  0
  2 33  1  0  0  0  0
  3  4  1  0  0  0  0
  3 26  1  0  0  0  0
  3 34  1  0  0  0  0
  4  5  1  0  0  0  0
  4 35  1  0  0  0  0
  4 36  1  0  0  0  0
  5 25  1  0  0  0  0
  5  6  1  0  0  0  0
  6  7  2  0  0  0  0
  6 37  1  0  0  0  0
  7  8  1  0  0  0  0
  8 25  2  0  0  0  0
  8  9  1  0  0  0  0
  9 10  1  0  0  0  0
  9 22  2  0  0  0  0
 10 15  1  0  0  0  0
 10 11  1  0  0  0  0
 11 12  1  0  0  0  0
 11 38  1  0  0  0  0
 11 39  1  0  0  0  0
 12 13  1  0  0  0  0
 12 40  1  0  0  0  0
 12 41  1  0  0  0  0
 13 14  1  0  0  0  0
 13 42  1  0  0  0  0
 13 43  1  0  0  0  0
 14 15  1  0  0  0  0
 14 44  1  0  0  0  0
 14 45  1  0  0  0  0
 15 16  1  0  0  0  0
 15 46  1  0  0  0  0
 16 20  1  0  0  0  0
 16 17  1  0  0  0  0
 16 47  1  0  0  0  0
 17 18  1  0  0  0  0
 17 48  1  0  0  0  0
 17 49  1  0  0  0  0
 18 19  1  0  0  0  0
 18 50  1  0  0  0  0
 18 51  1  0  0  0  0
 19 20  1  0  0  0  0
 19 52  1  0  0  0  0
 19 53  1  0  0  0  0
 20 21  1  0  0  0  0
 20 54  1  0  0  0  0
 21 55  1  0  0  0  0
 22 23  1  0  0  0  0
 23 24  2  0  0  0  0
 23 56  1  0  0  0  0
 24 25  1  0  0  0  0
 26 30  1  0  0  0  0
 26 27  1  0  0  0  0
 26 57  1  0  0  0  0
 27 28  1  0  0  0  0
 27 58  1  0  0  0  0
 27 59  1  0  0  0  0
 28 29  1  0  0  0  0
 28 60  1  0  0  0  0
 28 61  1  0  0  0  0
 29 30  1  0  0  0  0
 30 62  1  0  0  0  0
 30 63  1  0  0  0  0
M  END
> <s_m_source_file>
AV-unprocessed.smi

> <i_m_source_file_index>
148

> <i_lp_mmshare_version>
43012

> <i_f3d_flags>
0

> <s_epik_input>
W0NIMl0xT1tDSDJdW0NIMl1bQ0BIXTFbQ0BIXShbQ0gyXVtPSF0pW0NIMl1uKFtjSF1uMiljKGMyMyluW2NIXW5jM040W0NIMl1bQ0gyXVtDSDJdW0NIMl1bQ0BIXTRbQ0BASF01W0NIMl1bQ0gyXVtDSDJdW0NASF01W09IXQ==

> <s_epik_cmdline>
J2VwaWtfcHl0aG9uJywgJy1waCcsICc3LjAnLCAnLXRuJywgJzgnLCAnLW1hJywgJzIwMCcsICctbWV0YWxfYmluZGluZycsICctaW1hZScsICc8aW5maWxlLm1hZT4nLCAnLW9tYWUnLCAnPG91dGZpbGUubWFlPic=

> <r_lp_tautomer_probability>
1

> <r_epik_Ionization_Penalty>
0.00556303

> <r_epik_Ionization_Penalty_Charging>
0

> <r_epik_Ionization_Penalty_Neutral>
0.00556303

> <r_epik_State_Penalty>
0.00401767

> <r_epik_Charging_Adjusted_Penalty>
0.00401767

> <i_epik_Tot_Q>
0

> <i_epik_Tot_abs_Q>
0

> <r_epik_Metal_State_Penalty>
-0

> <b_epik_Metal_Only>
0

> <s_lp_Force_Field>
OPLS_2005

> <r_lp_Energy>
71.6968

> <b_lp_Chiralities_Consistent>
1

> <s_lp_Variant>
AV-unprocessed.smi:148-21

> <Gold.Version>
5.8.1

> <Gold.Id.Protein>
6NUR|6NUR_protein|mol2

> <Gold.PLP.Fitness>
51.4123

> <Gold.PLP.PLP>
-46.8261

> <Gold.PLP.part.hbond>
-3.0967

> <Gold.PLP.part.metal>
0.0000

> <Gold.PLP.part.buried>
-6.8727

> <Gold.PLP.part.nonpolar>
-37.6461

> <Gold.PLP.part.repulsive>
0.1216

> <Gold.PLP.ligand.clash>
0.0000

> <Gold.PLP.ligand.torsion>
1.0480

> <Gold.PLP.Chemscore.Hbond>
2.0000

> <Gold.PLP.Chemscore.CHOScore>
0.0000

> <Gold.PLP.Chemscore.Metal>
0.0000

> <Gold.Chemscore.Hbonds>
donor molecule, donor type, donor heavy atom, donor atom, acceptor molecule, acceptor atom, score
      P1  H  6933  6945       L1    21  0.07
      P1  H  7997  8010       L1    22  0.45

> <Gold.PLP.Chemscore.Internal.Correction>
0.6821

> <Gold.Rescore>
     Score         DG    S(hbond)    S(metal)    S(lipo)     H(rot)  DE(clash)    DE(int)     intcor
     14.90     -17.45       1.91        0.00     120.33       3.32       0.00       2.55       ----

> <Gold.Chemscore.Fitness>
14.9017

> <Gold.Chemscore.DG>
-17.4545

> <Gold.Chemscore.ZeroCoef>
-5.4800

> <Gold.Chemscore.Hbond>
1.9148

> <Gold.Chemscore.Metal>
0.0000

> <Gold.Chemscore.Lipo>
120.3334

> <Gold.Chemscore.Internal_Hbond>
0.0000

> <Gold.Chemscore.DEClash>
0.0048

> <Gold.Chemscore.DEInternal>
2.5480

> <Gold.Chemscore.Rot>
3.3203

> <Gold.Chemscore.Internal.Correction>
   9.000000E+99

> <Gold.Chemscore.Hbonds>
donor molecule, donor type, donor heavy atom, donor atom, acceptor molecule, acceptor atom, score
      P1  H  6933  6945       L1    21  0.04
      P1  H  7997  8010       L1    22  0.39

> <Gold.Chemscore.Hbond.Weighted>
-6.3955

> <Gold.Chemscore.Metal.Weighted>
-0.0000

> <Gold.Chemscore.Lipo.Weighted>
-14.0790

> <Gold.Chemscore.Internal_Hbond.Weighted>
0.0000

> <Gold.Chemscore.DEClash.Weighted>
0.0048

> <Gold.Chemscore.DEInternal.Weighted>
2.5480

> <Gold.Chemscore.Rot.Weighted>
8.5000

> <Gold.Chemscore.Internal.Correction.Weighted>
   9.000000E+99

> <Gold.Protein.RotatedTorsions>
[ 6907 6896 6895 6894 ] final   41.30 input  -60.11 | X-H torsion
[ 7974 7965 7964 7962 ] final  -65.33 input  175.53 | X-H torsion
[ 8008 7997 7996 7995 ] final   83.08 input   59.86 | X-H torsion
[ 10167 10162 10161 10158 ] final  -64.26 input  -65.29 | X-H torsion
[ 10718 10713 10712 10709 ] final   87.33 input   66.30 | X-H torsion
[ 10763 10752 10751 10750 ] final -162.48 input  -60.55 | X-H torsion
[ 11005 11000 10999 10996 ] final   30.28 input  -57.11 | X-H torsion

> <Gold.Protein.ActiveResidues>
 VAL166  LYS551  ARG553  GLY616  TRP617  ASP618  TYR619  PRO620  LYS621  CYS622 
 ASP623  PHE694  ASN695  SER759  ASP760  ASP761  ALA762  ILE779  LEU786  VAL792 
 PHE793  MET794  SER795  GLU796  ALA797  LYS798  CYS799  TRP800  GLU811  SER814 

> <Gold.Protein.RotatedAtoms>
  152.1936  134.8650  160.0514 H   0  0  0  0  0  0  0  0  0  0  0  0  # atno 6907 bound_to 6896
  151.9530  133.3667  159.4015 H   0  0  0  0  0  0  0  0  0  0  0  0  # atno 6908 bound_to 6896
  150.6940  134.4244  159.5263 H   0  0  0  0  0  0  0  0  0  0  0  0  # atno 6909 bound_to 6896
  145.7556  140.8887  143.0457 H   0  0  0  0  0  0  0  0  0  0  0  0  # atno 7974 bound_to 7965
  155.9191  140.3422  155.6159 H   0  0  0  0  0  0  0  0  0  0  0  0  # atno 8008 bound_to 7997
  155.7295  140.0793  157.2314 H   0  0  0  0  0  0  0  0  0  0  0  0  # atno 8009 bound_to 7997
  154.4067  140.1591  156.2480 H   0  0  0  0  0  0  0  0  0  0  0  0  # atno 8010 bound_to 7997
  140.5813  143.2328  151.6336 H   0  0  0  0  0  0  0  0  0  0  0  0  # atno 10167 bound_to 10162
  157.6939  131.0251  150.3108 H   0  0  0  0  0  0  0  0  0  0  0  0  # atno 10718 bound_to 10713
  154.7210  135.3025  154.9047 H   0  0  0  0  0  0  0  0  0  0  0  0  # atno 10763 bound_to 10752
  153.9919  135.6717  153.4758 H   0  0  0  0  0  0  0  0  0  0  0  0  # atno 10764 bound_to 10752
  153.0834  135.4997  154.8465 H   0  0  0  0  0  0  0  0  0  0  0  0  # atno 10765 bound_to 10752
  140.2961  134.2810  155.7764 H   0  0  0  0  0  0  0  0  0  0  0  0  # atno 11005 bound_to 11000
  144.6840  139.9652  143.7481 LP  0  0  0  0  0  0  0  0  0  0  0  0  # atno 17320 bound_to 7965
  146.0314  139.3338  143.0753 LP  0  0  0  0  0  0  0  0  0  0  0  0  # atno 17321 bound_to 7965
  139.5171  144.3324  152.0814 LP  0  0  0  0  0  0  0  0  0  0  0  0  # atno 17342 bound_to 10162
  140.2475  144.4204  150.6235 LP  0  0  0  0  0  0  0  0  0  0  0  0  # atno 17343 bound_to 10162
  156.3609  130.3847  149.7252 LP  0  0  0  0  0  0  0  0  0  0  0  0  # atno 17370 bound_to 10713
  156.4698  130.7991  151.3009 LP  0  0  0  0  0  0  0  0  0  0  0  0  # atno 17371 bound_to 10713
  141.2137  133.7616  156.9697 LP  0  0  0  0  0  0  0  0  0  0  0  0  # atno 17394 bound_to 11000
  140.1151  134.9452  157.2123 LP  0  0  0  0  0  0  0  0  0  0  0  0  # atno 17395 bound_to 11000

$$$$
