AV-unprocessed.smi:1266|AV-procd|sdf|5321|dock3
  -GOLD-   22720 4443D 1   1.00000     0.00000
 Structure written by MMmdl.
 40 41  0  0  0  0  0  0  0  0  3 V2000
  153.2339  139.0878  157.6706 O   0  0  0  0  0  0  0  0  0  0  0  0
  152.3435  138.9616  158.5124 C   0  0  0  0  0  0  0  0  0  0  0  0
  151.8842  137.5711  158.9740 C   0  0  0  0  0  0  0  0  0  0  0  0
  150.5072  137.2420  158.5681 N   0  0  0  0  0  0  0  0  0  0  0  0
  149.5519  137.1091  159.5952 C   0  0  0  0  0  0  0  0  0  0  0  0
  148.2628  136.8110  159.3404 C   0  0  0  0  0  0  0  0  0  0  0  0
  147.2966  136.6737  160.4081 N   0  3  0  0  0  0  0  0  0  0  0  0
  146.2984  135.9873  160.2138 O   0  0  0  0  0  0  0  0  0  0  0  0
  147.5016  137.2464  161.4743 O   0  5  0  0  0  0  0  0  0  0  0  0
  147.8745  136.6284  157.9552 C   0  0  0  0  0  0  0  0  0  0  0  0
  148.7846  136.7481  156.9687 C   0  0  0  0  0  0  0  0  0  0  0  0
  150.1885  137.0663  157.2490 C   0  0  0  0  0  0  0  0  0  0  0  0
  151.0262  137.1697  156.3528 O   0  0  0  0  0  0  0  0  0  0  0  0
  151.7241  140.0022  159.0911 N   0  0  0  0  0  0  0  0  0  0  0  0
  151.9898  141.4123  158.8158 C   0  0  0  0  0  0  0  0  0  0  0  0
  152.6211  142.0517  160.0706 C   0  0  0  0  0  0  0  0  0  0  0  0
  153.2554  143.4265  159.7988 C   0  0  0  0  0  0  0  0  0  0  0  0
  152.3046  144.6316  159.9071 C   0  0  0  0  0  0  0  0  0  0  0  0
  150.8857  144.4408  159.3435 C   0  0  0  0  0  0  0  0  0  0  0  0
  150.7949  143.5972  158.0619 C   0  0  0  0  0  0  0  0  0  0  0  0
  150.6851  142.0898  158.3481 C   0  0  0  0  0  0  0  0  0  0  0  0
  152.5843  136.8335  158.5793 H   0  0  0  0  0  0  0  0  0  0  0  0
  151.9826  137.5036  160.0591 H   0  0  0  0  0  0  0  0  0  0  0  0
  149.9423  137.2580  160.5918 H   0  0  0  0  0  0  0  0  0  0  0  0
  146.8517  136.3943  157.6988 H   0  0  0  0  0  0  0  0  0  0  0  0
  148.4739  136.6071  155.9438 H   0  0  0  0  0  0  0  0  0  0  0  0
  151.0071  139.8031  159.7737 H   0  0  0  0  0  0  0  0  0  0  0  0
  152.7208  141.4722  158.0072 H   0  0  0  0  0  0  0  0  0  0  0  0
  151.9020  142.1108  160.8887 H   0  0  0  0  0  0  0  0  0  0  0  0
  153.4160  141.3921  160.4223 H   0  0  0  0  0  0  0  0  0  0  0  0
  154.0715  143.5835  160.5052 H   0  0  0  0  0  0  0  0  0  0  0  0
  153.7285  143.4200  158.8162 H   0  0  0  0  0  0  0  0  0  0  0  0
  152.2172  144.9257  160.9535 H   0  0  0  0  0  0  0  0  0  0  0  0
  152.7756  145.4782  159.4059 H   0  0  0  0  0  0  0  0  0  0  0  0
  150.2441  144.0045  160.1099 H   0  0  0  0  0  0  0  0  0  0  0  0
  150.4664  145.4286  159.1491 H   0  0  0  0  0  0  0  0  0  0  0  0
  149.8922  143.8959  157.5280 H   0  0  0  0  0  0  0  0  0  0  0  0
  151.6241  143.8126  157.3871 H   0  0  0  0  0  0  0  0  0  0  0  0
  150.3505  141.5987  157.4335 H   0  0  0  0  0  0  0  0  0  0  0  0
  149.8931  141.9155  159.0779 H   0  0  0  0  0  0  0  0  0  0  0  0
  1  2  2  0  0  0  0
  2  3  1  0  0  0  0
  2 14  1  0  0  0  0
  3  4  1  0  0  0  0
  3 22  1  0  0  0  0
  3 23  1  0  0  0  0
  4 12  1  0  0  0  0
  4  5  1  0  0  0  0
  5  6  2  0  0  0  0
  5 24  1  0  0  0  0
  6  7  1  0  0  0  0
  6 10  1  0  0  0  0
  7  8  2  0  0  0  0
  7  9  1  0  0  0  0
 10 11  2  0  0  0  0
 10 25  1  0  0  0  0
 11 12  1  0  0  0  0
 11 26  1  0  0  0  0
 12 13  2  0  0  0  0
 14 15  1  0  0  0  0
 14 27  1  0  0  0  0
 15 21  1  0  0  0  0
 15 16  1  0  0  0  0
 15 28  1  0  0  0  0
 16 17  1  0  0  0  0
 16 29  1  0  0  0  0
 16 30  1  0  0  0  0
 17 18  1  0  0  0  0
 17 31  1  0  0  0  0
 17 32  1  0  0  0  0
 18 19  1  0  0  0  0
 18 33  1  0  0  0  0
 18 34  1  0  0  0  0
 19 20  1  0  0  0  0
 19 35  1  0  0  0  0
 19 36  1  0  0  0  0
 20 21  1  0  0  0  0
 20 37  1  0  0  0  0
 20 38  1  0  0  0  0
 21 39  1  0  0  0  0
 21 40  1  0  0  0  0
M  CHG  1   7   1
M  CHG  1   9  -1
M  END
> <s_m_source_file>
AV-unprocessed.smi

> <i_m_source_file_index>
1266

> <i_lp_mmshare_version>
43012

> <i_f3d_flags>
0

> <s_epik_input>
W0NIMl0xW0NIMl1bQ0gyXVtDSDJdW0NIMl1bQ0gyXVtDSF0xW05IXUMoPU8pW0NIMl1uMltjSF1jKFtOK10oPU8pW08tXSlbY0hdW2NIXWMyPU8=

> <s_epik_cmdline>
J2VwaWtfcHl0aG9uJywgJy1waCcsICc3LjAnLCAnLXRuJywgJzgnLCAnLW1hJywgJzIwMCcsICctbWV0YWxfYmluZGluZycsICctaW1hZScsICc8aW5maWxlLm1hZT4nLCAnLW9tYWUnLCAnPG91dGZpbGUubWFlPic=

> <r_lp_tautomer_probability>
1

> <r_epik_Ionization_Penalty>
2.02954e-08

> <r_epik_Ionization_Penalty_Charging>
8.05481e-11

> <r_epik_Ionization_Penalty_Neutral>
2.02148e-08

> <r_epik_State_Penalty>
-0

> <r_epik_Charging_Adjusted_Penalty>
8.05481e-11

> <i_epik_Tot_Q>
0

> <i_epik_Tot_abs_Q>
2

> <r_epik_Metal_State_Penalty>
-0

> <b_epik_Metal_Only>
0

> <s_lp_Force_Field>
OPLS_2005

> <r_lp_Energy>
25.8216

> <b_lp_Chiralities_Consistent>
1

> <s_lp_Variant>
AV-unprocessed.smi:1266-1

> <Gold.Version>
5.8.1

> <Gold.Id.Protein>
6NUR|6NUR_protein|mol2

> <Gold.PLP.Fitness>
40.5703

> <Gold.PLP.PLP>
-32.7681

> <Gold.PLP.part.hbond>
-3.0000

> <Gold.PLP.part.metal>
0.0000

> <Gold.PLP.part.buried>
-3.9220

> <Gold.PLP.part.nonpolar>
-26.2022

> <Gold.PLP.part.repulsive>
0.1639

> <Gold.PLP.ligand.clash>
0.0000

> <Gold.PLP.ligand.torsion>
0.3793

> <Gold.PLP.Chemscore.Hbond>
2.8400

> <Gold.PLP.Chemscore.CHOScore>
0.0000

> <Gold.PLP.Chemscore.Metal>
0.0000

> <Gold.Chemscore.Hbonds>
donor molecule, donor type, donor heavy atom, donor atom, acceptor molecule, acceptor atom, score
      P1  H  6931  6943       L1     9  0.91
      P1  H  6934  6947       L1     9  0.85
      P1  H  7997  8010       L1     1  1.00

> <Gold.PLP.Chemscore.Internal.Correction>
0.0408

> <Gold.Rescore>
     Score         DG    S(hbond)    S(metal)    S(lipo)     H(rot)  DE(clash)    DE(int)     intcor
     23.17     -23.72       3.57        0.00      88.08       1.55       0.07       0.49       ----

> <Gold.Chemscore.Fitness>
23.1696

> <Gold.Chemscore.DG>
-23.7250

> <Gold.Chemscore.ZeroCoef>
-5.4800

> <Gold.Chemscore.Hbond>
3.5655

> <Gold.Chemscore.Metal>
0.0000

> <Gold.Chemscore.Lipo>
88.0813

> <Gold.Chemscore.Internal_Hbond>
0.0000

> <Gold.Chemscore.DEClash>
0.0650

> <Gold.Chemscore.DEInternal>
0.4903

> <Gold.Chemscore.Rot>
1.5505

> <Gold.Chemscore.Internal.Correction>
   9.000000E+99

> <Gold.Chemscore.Hbonds>
donor molecule, donor type, donor heavy atom, donor atom, acceptor molecule, acceptor atom, score
      P1  H  6931  6943       L1     9  0.89
      P1  H  6934  6947       L1     9  0.22
      P1  H  7997  8010       L1     1  1.00

> <Gold.Chemscore.Hbond.Weighted>
-11.9086

> <Gold.Chemscore.Metal.Weighted>
-0.0000

> <Gold.Chemscore.Lipo.Weighted>
-10.3055

> <Gold.Chemscore.Internal_Hbond.Weighted>
0.0000

> <Gold.Chemscore.DEClash.Weighted>
0.0650

> <Gold.Chemscore.DEInternal.Weighted>
0.4903

> <Gold.Chemscore.Rot.Weighted>
3.9692

> <Gold.Chemscore.Internal.Correction.Weighted>
   9.000000E+99

> <Gold.Protein.RotatedTorsions>
[ 6907 6896 6895 6894 ] final  158.33 input  -60.11 | X-H torsion
[ 7974 7965 7964 7962 ] final -174.18 input  175.53 | X-H torsion
[ 8008 7997 7996 7995 ] final   38.78 input   59.86 | X-H torsion
[ 10167 10162 10161 10158 ] final  -56.92 input  -65.29 | X-H torsion
[ 10718 10713 10712 10709 ] final   10.07 input   66.30 | X-H torsion
[ 10763 10752 10751 10750 ] final   81.34 input  -60.55 | X-H torsion
[ 11005 11000 10999 10996 ] final   26.58 input  -57.11 | X-H torsion

> <Gold.Protein.ActiveResidues>
 VAL166  LYS551  ARG553  GLY616  TRP617  ASP618  TYR619  PRO620  LYS621  CYS622 
 ASP623  PHE694  ASN695  SER759  ASP760  ASP761  ALA762  ILE779  LEU786  VAL792 
 PHE793  MET794  SER795  GLU796  ALA797  LYS798  CYS799  TRP800  GLU811  SER814 

> <Gold.Protein.RotatedAtoms>
  152.0019  133.3829  159.4184 H   0  0  0  0  0  0  0  0  0  0  0  0  # atno 6907 bound_to 6896
  150.6909  134.3824  159.5049 H   0  0  0  0  0  0  0  0  0  0  0  0  # atno 6908 bound_to 6896
  152.1573  134.8940  160.0595 H   0  0  0  0  0  0  0  0  0  0  0  0  # atno 6909 bound_to 6896
  144.7133  140.1510  143.6384 H   0  0  0  0  0  0  0  0  0  0  0  0  # atno 7974 bound_to 7965
  155.2258  140.3334  155.4309 H   0  0  0  0  0  0  0  0  0  0  0  0  # atno 8008 bound_to 7997
  156.2315  140.1852  156.7277 H   0  0  0  0  0  0  0  0  0  0  0  0  # atno 8009 bound_to 7997
  154.5985  140.0627  156.9322 H   0  0  0  0  0  0  0  0  0  0  0  0  # atno 8010 bound_to 7997
  140.6289  143.2450  151.5293 H   0  0  0  0  0  0  0  0  0  0  0  0  # atno 10167 bound_to 10162
  156.9757  130.5986  149.5672 H   0  0  0  0  0  0  0  0  0  0  0  0  # atno 10718 bound_to 10713
  153.1108  135.4769  154.9032 H   0  0  0  0  0  0  0  0  0  0  0  0  # atno 10763 bound_to 10752
  154.7479  135.3098  154.8614 H   0  0  0  0  0  0  0  0  0  0  0  0  # atno 10764 bound_to 10752
  153.9203  135.6855  153.4801 H   0  0  0  0  0  0  0  0  0  0  0  0  # atno 10765 bound_to 10752
  140.3355  134.2391  155.7696 H   0  0  0  0  0  0  0  0  0  0  0  0  # atno 11005 bound_to 11000
  145.9117  139.2491  143.1434 LP  0  0  0  0  0  0  0  0  0  0  0  0  # atno 17320 bound_to 7965
  145.9710  140.8760  143.0162 LP  0  0  0  0  0  0  0  0  0  0  0  0  # atno 17321 bound_to 7965
  139.5505  144.2408  152.1522 LP  0  0  0  0  0  0  0  0  0  0  0  0  # atno 17342 bound_to 10162
  140.1646  144.4993  150.6613 LP  0  0  0  0  0  0  0  0  0  0  0  0  # atno 17343 bound_to 10162
  156.0265  130.5358  150.8419 LP  0  0  0  0  0  0  0  0  0  0  0  0  # atno 17370 bound_to 10713
  157.5562  131.0945  150.9625 LP  0  0  0  0  0  0  0  0  0  0  0  0  # atno 17371 bound_to 10713
  141.2052  133.7865  157.0244 LP  0  0  0  0  0  0  0  0  0  0  0  0  # atno 17394 bound_to 11000
  140.0825  134.9640  157.1647 LP  0  0  0  0  0  0  0  0  0  0  0  0  # atno 17395 bound_to 11000

$$$$
