AV-unprocessed.smi:2998|AV-procd|sdf|11416|dock10
  -GOLD-   2272016343D 1   1.00000     0.00000
 Structure written by MMmdl.
 41 43  0  0  0  0  0  0  0  0  1 V2000
  152.1527  136.1409  156.1849 O   0  0  0  0  0  0  0  0  0  0  0  0
  151.4415  136.9305  155.5618 C   0  0  0  0  0  0  0  0  0  0  0  0
  152.0097  138.2578  155.0377 C   0  0  0  0  0  0  0  0  0  0  0  0
  151.7908  139.3919  155.9546 N   0  0  0  0  0  0  0  0  0  0  0  0
  152.4553  139.3391  157.1958 C   0  0  0  0  0  0  0  0  0  0  0  0
  152.3399  140.2856  158.0719 N   0  0  0  0  0  0  0  0  0  0  0  0
  151.5325  141.3952  157.7959 C   0  0  0  0  0  0  0  0  0  0  0  0
  151.4129  142.4683  158.8694 C   0  0  0  0  0  0  0  0  0  0  0  0
  151.9788  143.8546  158.5169 C   0  0  0  0  0  0  0  0  0  0  0  0
  152.4860  143.9426  159.9607 C   0  0  0  0  0  0  0  0  0  0  0  0
  152.4610  142.4103  159.9927 C   0  0  0  0  0  0  0  0  0  0  0  0
  150.8629  141.4849  156.6223 C   0  0  0  0  0  0  0  0  0  0  0  0
  150.9790  140.4349  155.6105 C   0  0  0  0  0  0  0  0  0  0  0  0
  150.3913  140.4870  154.5298 O   0  0  0  0  0  0  0  0  0  0  0  0
  150.1509  136.6946  155.2838 N   0  0  0  0  0  0  0  0  0  0  0  0
  149.4079  135.5047  155.6896 C   0  0  0  0  0  0  0  0  0  0  0  0
  150.1642  134.2307  155.2724 C   0  0  0  0  0  0  0  0  0  0  0  0
  149.3909  133.6567  154.0854 C   0  0  0  0  0  0  0  0  0  0  0  0
  147.9414  134.0374  154.3692 C   0  0  0  0  0  0  0  0  0  0  0  0
  148.0294  135.4297  154.9986 C   0  0  0  0  0  0  0  0  0  0  0  0
  153.0705  138.1110  154.8263 H   0  0  0  0  0  0  0  0  0  0  0  0
  151.5590  138.4820  154.0689 H   0  0  0  0  0  0  0  0  0  0  0  0
  153.0653  138.4501  157.3652 H   0  0  0  0  0  0  0  0  0  0  0  0
  150.3975  142.5326  159.2646 H   0  0  0  0  0  0  0  0  0  0  0  0
  152.7958  143.8249  157.7933 H   0  0  0  0  0  0  0  0  0  0  0  0
  151.2290  144.5997  158.2494 H   0  0  0  0  0  0  0  0  0  0  0  0
  153.4756  144.3866  160.0718 H   0  0  0  0  0  0  0  0  0  0  0  0
  151.7595  144.3928  160.6392 H   0  0  0  0  0  0  0  0  0  0  0  0
  152.1053  141.9777  160.9282 H   0  0  0  0  0  0  0  0  0  0  0  0
  153.4104  141.9719  159.6797 H   0  0  0  0  0  0  0  0  0  0  0  0
  150.2350  142.3406  156.4212 H   0  0  0  0  0  0  0  0  0  0  0  0
  149.6415  137.3941  154.7632 H   0  0  0  0  0  0  0  0  0  0  0  0
  149.2891  135.5057  156.7748 H   0  0  0  0  0  0  0  0  0  0  0  0
  151.2144  134.4059  155.0346 H   0  0  0  0  0  0  0  0  0  0  0  0
  150.1386  133.5137  156.0940 H   0  0  0  0  0  0  0  0  0  0  0  0
  149.7226  134.1351  153.1630 H   0  0  0  0  0  0  0  0  0  0  0  0
  149.5297  132.5811  153.9731 H   0  0  0  0  0  0  0  0  0  0  0  0
  147.3189  134.0195  153.4741 H   0  0  0  0  0  0  0  0  0  0  0  0
  147.5132  133.3361  155.0865 H   0  0  0  0  0  0  0  0  0  0  0  0
  147.2116  135.6104  155.6967 H   0  0  0  0  0  0  0  0  0  0  0  0
  147.9497  136.1816  154.2116 H   0  0  0  0  0  0  0  0  0  0  0  0
  1  2  2  0  0  0  0
  2  3  1  0  0  0  0
  2 15  1  0  0  0  0
  3  4  1  0  0  0  0
  3 21  1  0  0  0  0
  3 22  1  0  0  0  0
  4 13  1  0  0  0  0
  4  5  1  0  0  0  0
  5  6  2  0  0  0  0
  5 23  1  0  0  0  0
  6  7  1  0  0  0  0
  7  8  1  0  0  0  0
  7 12  2  0  0  0  0
  8 11  1  0  0  0  0
  8  9  1  0  0  0  0
  8 24  1  0  0  0  0
  9 10  1  0  0  0  0
  9 25  1  0  0  0  0
  9 26  1  0  0  0  0
 10 11  1  0  0  0  0
 10 27  1  0  0  0  0
 10 28  1  0  0  0  0
 11 29  1  0  0  0  0
 11 30  1  0  0  0  0
 12 13  1  0  0  0  0
 12 31  1  0  0  0  0
 13 14  2  0  0  0  0
 15 16  1  0  0  0  0
 15 32  1  0  0  0  0
 16 20  1  0  0  0  0
 16 17  1  0  0  0  0
 16 33  1  0  0  0  0
 17 18  1  0  0  0  0
 17 34  1  0  0  0  0
 17 35  1  0  0  0  0
 18 19  1  0  0  0  0
 18 36  1  0  0  0  0
 18 37  1  0  0  0  0
 19 20  1  0  0  0  0
 19 38  1  0  0  0  0
 19 39  1  0  0  0  0
 20 40  1  0  0  0  0
 20 41  1  0  0  0  0
M  END
> <s_m_source_file>
AV-unprocessed.smi

> <i_m_source_file_index>
2998

> <i_lp_mmshare_version>
43012

> <i_f3d_flags>
0

> <s_epik_input>
W0NIMl0xW0NIMl1bQ0gyXVtDSDJdW0NIXTFbTkhdQyg9TylbQ0gyXW4yW2NIXW5jKFtjSF1jMj1PKVtDSF0zW0NIMl1bQ0gyXVtDSDJdMw==

> <s_epik_cmdline>
J2VwaWtfcHl0aG9uJywgJy1waCcsICc3LjAnLCAnLXRuJywgJzgnLCAnLW1hJywgJzIwMCcsICctbWV0YWxfYmluZGluZycsICctaW1hZScsICc8aW5maWxlLm1hZT4nLCAnLW9tYWUnLCAnPG91dGZpbGUubWFlPic=

> <r_lp_tautomer_probability>
1

> <r_epik_Ionization_Penalty>
7.51496e-06

> <r_epik_Ionization_Penalty_Charging>
8.69507e-09

> <r_epik_Ionization_Penalty_Neutral>
7.50627e-06

> <r_epik_State_Penalty>
-0

> <r_epik_Charging_Adjusted_Penalty>
8.69507e-09

> <i_epik_Tot_Q>
0

> <i_epik_Tot_abs_Q>
0

> <r_epik_Metal_State_Penalty>
-0

> <b_epik_Metal_Only>
0

> <s_lp_Force_Field>
OPLS_2005

> <r_lp_Energy>
32.6408

> <b_lp_Chiralities_Consistent>
1

> <s_lp_Variant>
AV-unprocessed.smi:2998-1

> <Gold.Version>
5.8.1

> <Gold.Id.Protein>
6NUR|6NUR_protein|mol2

> <Gold.PLP.Fitness>
43.7312

> <Gold.PLP.PLP>
-38.7758

> <Gold.PLP.part.hbond>
-2.0204

> <Gold.PLP.part.metal>
0.0000

> <Gold.PLP.part.buried>
-2.2473

> <Gold.PLP.part.nonpolar>
-34.5744

> <Gold.PLP.part.repulsive>
0.1694

> <Gold.PLP.ligand.clash>
0.0000

> <Gold.PLP.ligand.torsion>
0.6751

> <Gold.PLP.Chemscore.Hbond>
1.9760

> <Gold.PLP.Chemscore.CHOScore>
0.0000

> <Gold.PLP.Chemscore.Metal>
0.0000

> <Gold.Chemscore.Hbonds>
donor molecule, donor type, donor heavy atom, donor atom, acceptor molecule, acceptor atom, score
      P1  H  7989  7998       L1    14  0.98
      P1  H 10752 10763       L1     1  0.90

> <Gold.PLP.Chemscore.Internal.Correction>
0.3775

> <Gold.Rescore>
     Score         DG    S(hbond)    S(metal)    S(lipo)     H(rot)  DE(clash)    DE(int)     intcor
     13.15     -15.51       1.32        0.00      83.79       1.63       0.42       1.94       ----

> <Gold.Chemscore.Fitness>
13.1515

> <Gold.Chemscore.DG>
-15.5101

> <Gold.Chemscore.ZeroCoef>
-5.4800

> <Gold.Chemscore.Hbond>
1.3164

> <Gold.Chemscore.Metal>
0.0000

> <Gold.Chemscore.Lipo>
83.7902

> <Gold.Chemscore.Internal_Hbond>
0.0000

> <Gold.Chemscore.DEClash>
0.4169

> <Gold.Chemscore.DEInternal>
1.9417

> <Gold.Chemscore.Rot>
1.6290

> <Gold.Chemscore.Internal.Correction>
   9.000000E+99

> <Gold.Chemscore.Hbonds>
donor molecule, donor type, donor heavy atom, donor atom, acceptor molecule, acceptor atom, score
      P1  H  7989  7998       L1    14  0.32
      P1  H 10752 10763       L1     1  0.18

> <Gold.Chemscore.Hbond.Weighted>
-4.3968

> <Gold.Chemscore.Metal.Weighted>
-0.0000

> <Gold.Chemscore.Lipo.Weighted>
-9.8035

> <Gold.Chemscore.Internal_Hbond.Weighted>
0.0000

> <Gold.Chemscore.DEClash.Weighted>
0.4169

> <Gold.Chemscore.DEInternal.Weighted>
1.9417

> <Gold.Chemscore.Rot.Weighted>
4.1702

> <Gold.Chemscore.Internal.Correction.Weighted>
   9.000000E+99

> <Gold.Protein.RotatedTorsions>
[ 6907 6896 6895 6894 ] final   40.40 input  -60.11 | X-H torsion
[ 7974 7965 7964 7962 ] final -110.52 input  175.53 | X-H torsion
[ 8008 7997 7996 7995 ] final   46.26 input   59.86 | X-H torsion
[ 10167 10162 10161 10158 ] final   89.64 input  -65.29 | X-H torsion
[ 10718 10713 10712 10709 ] final  173.08 input   66.30 | X-H torsion
[ 10763 10752 10751 10750 ] final   76.27 input  -60.55 | X-H torsion
[ 11005 11000 10999 10996 ] final  102.57 input  -57.11 | X-H torsion

> <Gold.Protein.ActiveResidues>
 VAL166  LYS551  ARG553  GLY616  TRP617  ASP618  TYR619  PRO620  LYS621  CYS622 
 ASP623  PHE694  ASN695  SER759  ASP760  ASP761  ALA762  ILE779  LEU786  VAL792 
 PHE793  MET794  SER795  GLU796  ALA797  LYS798  CYS799  TRP800  GLU811  SER814 

> <Gold.Protein.RotatedAtoms>
  152.1820  134.8746  160.0525 H   0  0  0  0  0  0  0  0  0  0  0  0  # atno 6907 bound_to 6896
  151.9667  133.3707  159.4064 H   0  0  0  0  0  0  0  0  0  0  0  0  # atno 6908 bound_to 6896
  150.6919  134.4107  159.5204 H   0  0  0  0  0  0  0  0  0  0  0  0  # atno 6909 bound_to 6896
  145.1673  140.8908  143.3556 H   0  0  0  0  0  0  0  0  0  0  0  0  # atno 7974 bound_to 7965
  155.3496  140.3412  155.4239 H   0  0  0  0  0  0  0  0  0  0  0  0  # atno 8008 bound_to 7997
  156.1771  140.1651  156.8378 H   0  0  0  0  0  0  0  0  0  0  0  0  # atno 8009 bound_to 7997
  154.5293  140.0749  156.8299 H   0  0  0  0  0  0  0  0  0  0  0  0  # atno 8010 bound_to 7997
  139.8552  144.6573  150.9123 H   0  0  0  0  0  0  0  0  0  0  0  0  # atno 10167 bound_to 10162
  156.9695  131.0085  151.2908 H   0  0  0  0  0  0  0  0  0  0  0  0  # atno 10718 bound_to 10713
  153.0713  135.4958  154.8311 H   0  0  0  0  0  0  0  0  0  0  0  0  # atno 10763 bound_to 10752
  154.7026  135.3004  154.9320 H   0  0  0  0  0  0  0  0  0  0  0  0  # atno 10764 bound_to 10752
  154.0039  135.6763  153.4814 H   0  0  0  0  0  0  0  0  0  0  0  0  # atno 10765 bound_to 10752
  139.8778  134.9229  156.5077 H   0  0  0  0  0  0  0  0  0  0  0  0  # atno 11005 bound_to 11000
  145.0269  139.3374  143.6044 LP  0  0  0  0  0  0  0  0  0  0  0  0  # atno 17320 bound_to 7965
  146.3474  139.9592  142.8719 LP  0  0  0  0  0  0  0  0  0  0  0  0  # atno 17321 bound_to 7965
  140.7782  143.3792  151.1507 LP  0  0  0  0  0  0  0  0  0  0  0  0  # atno 17342 bound_to 10162
  139.7427  143.8900  152.3054 LP  0  0  0  0  0  0  0  0  0  0  0  0  # atno 17343 bound_to 10162
  157.5603  130.8241  149.8257 LP  0  0  0  0  0  0  0  0  0  0  0  0  # atno 17370 bound_to 10713
  156.0289  130.3771  150.1744 LP  0  0  0  0  0  0  0  0  0  0  0  0  # atno 17371 bound_to 10713
  140.8543  133.8108  155.9200 LP  0  0  0  0  0  0  0  0  0  0  0  0  # atno 17394 bound_to 11000
  140.9113  134.2257  157.4984 LP  0  0  0  0  0  0  0  0  0  0  0  0  # atno 17395 bound_to 11000

$$$$
