AV-unprocessed.smi:2216|AV-procd|sdf|8966|dock9
  -GOLD-   2272012183D 1   1.00000     0.00000
 Structure written by MMmdl.
 40 41  0  0  0  0  0  0  0  0  2 V2000
  146.3440  134.0107  162.5512 C   0  0  0  0  0  0  0  0  0  0  0  0
  146.8849  134.9184  161.4593 C   0  0  0  0  0  0  0  0  0  0  0  0
  146.7457  134.6128  160.1448 C   0  0  0  0  0  0  0  0  0  0  0  0
  147.2647  135.4809  159.0878 C   0  0  0  0  0  0  0  0  0  0  0  0
  147.1845  135.2722  157.7047 N   0  0  0  0  0  0  0  0  0  0  0  0
  146.2529  134.5975  157.0079 C   0  0  0  0  0  0  0  0  0  0  0  0
  145.2691  134.0277  157.4791 O   0  0  0  0  0  0  0  0  0  0  0  0
  146.5311  134.6171  155.6966 N   0  0  0  0  0  0  0  0  0  0  0  0
  145.7289  133.9803  154.6584 C   0  0  0  0  0  0  0  0  0  0  0  0
  146.5938  133.5388  153.4649 C   0  0  0  0  0  0  0  0  0  0  0  0
  145.7763  132.8644  152.3520 C   0  0  2  0  0  0  0  0  0  0  0  0
  146.6007  132.6812  151.0625 C   0  0  0  0  0  0  0  0  0  0  0  0
  145.7357  132.0786  149.9495 C   0  0  0  0  0  0  0  0  0  0  0  0
  144.4663  132.9182  149.7701 C   0  0  0  0  0  0  0  0  0  0  0  0
  143.7502  133.0982  151.1181 C   0  0  0  0  0  0  0  0  0  0  0  0
  144.6402  133.6788  152.0664 O   0  0  0  0  0  0  0  0  0  0  0  0
  147.8895  136.6063  159.5861 C   0  0  0  0  0  0  0  0  0  0  0  0
  148.0661  136.9784  160.8722 N   0  5  0  0  0  0  0  0  0  0  0  0
  147.5795  136.1618  161.8504 C   0  0  0  0  0  0  0  0  0  0  0  0
  147.7051  136.4346  163.0435 O   0  0  0  0  0  0  0  0  0  0  0  0
  145.8594  133.1286  162.1320 H   0  0  0  0  0  0  0  0  0  0  0  0
  145.6103  134.5412  163.1589 H   0  0  0  0  0  0  0  0  0  0  0  0
  147.1517  133.6740  163.2016 H   0  0  0  0  0  0  0  0  0  0  0  0
  146.2353  133.6965  159.8982 H   0  0  0  0  0  0  0  0  0  0  0  0
  147.9333  135.6883  157.1705 H   0  0  0  0  0  0  0  0  0  0  0  0
  147.3602  135.1077  155.3951 H   0  0  0  0  0  0  0  0  0  0  0  0
  145.1853  133.1300  155.0735 H   0  0  0  0  0  0  0  0  0  0  0  0
  144.9766  134.6977  154.3300 H   0  0  0  0  0  0  0  0  0  0  0  0
  147.1285  134.3982  153.0578 H   0  0  0  0  0  0  0  0  0  0  0  0
  147.3562  132.8417  153.8155 H   0  0  0  0  0  0  0  0  0  0  0  0
  145.4392  131.8884  152.7062 H   0  0  0  0  0  0  0  0  0  0  0  0
  146.9938  133.6451  150.7364 H   0  0  0  0  0  0  0  0  0  0  0  0
  147.4623  132.0397  151.2508 H   0  0  0  0  0  0  0  0  0  0  0  0
  146.2960  132.0303  149.0155 H   0  0  0  0  0  0  0  0  0  0  0  0
  145.4661  131.0537  150.2075 H   0  0  0  0  0  0  0  0  0  0  0  0
  144.7282  133.8960  149.3640 H   0  0  0  0  0  0  0  0  0  0  0  0
  143.8002  132.4464  149.0474 H   0  0  0  0  0  0  0  0  0  0  0  0
  142.8866  133.7530  150.9991 H   0  0  0  0  0  0  0  0  0  0  0  0
  143.3761  132.1438  151.4916 H   0  0  0  0  0  0  0  0  0  0  0  0
  148.3114  137.3131  158.8391 H   0  0  0  0  0  0  0  0  0  0  0  0
  1  2  1  0  0  0  0
  1 21  1  0  0  0  0
  1 22  1  0  0  0  0
  1 23  1  0  0  0  0
  2 19  1  0  0  0  0
  2  3  2  0  0  0  0
  3  4  1  0  0  0  0
  3 24  1  0  0  0  0
  4  5  1  0  0  0  0
  4 17  2  0  0  0  0
  5  6  1  0  0  0  0
  5 25  1  0  0  0  0
  6  7  2  0  0  0  0
  6  8  1  0  0  0  0
  8  9  1  0  0  0  0
  8 26  1  0  0  0  0
  9 10  1  0  0  0  0
  9 27  1  0  0  0  0
  9 28  1  0  0  0  0
 10 11  1  0  0  0  0
 10 29  1  0  0  0  0
 10 30  1  0  0  0  0
 11 16  1  0  0  0  0
 11 12  1  0  0  0  0
 11 31  1  0  0  0  0
 12 13  1  0  0  0  0
 12 32  1  0  0  0  0
 12 33  1  0  0  0  0
 13 14  1  0  0  0  0
 13 34  1  0  0  0  0
 13 35  1  0  0  0  0
 14 15  1  0  0  0  0
 14 36  1  0  0  0  0
 14 37  1  0  0  0  0
 15 16  1  0  0  0  0
 15 38  1  0  0  0  0
 15 39  1  0  0  0  0
 17 18  1  0  0  0  0
 17 40  1  0  0  0  0
 18 19  1  0  0  0  0
 19 20  2  0  0  0  0
M  CHG  1  18  -1
M  END
> <s_m_source_file>
AV-unprocessed.smi

> <i_m_source_file_index>
2216

> <i_lp_mmshare_version>
43012

> <i_f3d_flags>
0

> <s_epik_input>
Tz1jMVtuSF1bY0hdYyhbY0hdYzFbQ0gzXSlbTkhdQyg9TylbTkhdW0NIMl1bQ0gyXVtDQEBIXTJbQ0gyXVtDSDJdW0NIMl1bQ0gyXU8y

> <s_epik_cmdline>
J2VwaWtfcHl0aG9uJywgJy1waCcsICc3LjAnLCAnLXRuJywgJzgnLCAnLW1hJywgJzIwMCcsICctbWV0YWxfYmluZGluZycsICctaW1hZScsICc8aW5maWxlLm1hZT4nLCAnLW9tYWUnLCAnPG91dGZpbGUubWFlPic=

> <r_lp_tautomer_probability>
1

> <r_epik_Ionization_Penalty>
7.55627

> <r_epik_Ionization_Penalty_Charging>
1.50531

> <r_epik_Ionization_Penalty_Neutral>
6.05097

> <r_epik_State_Penalty>
6.05091

> <r_epik_Charging_Adjusted_Penalty>
7.55622

> <i_epik_Tot_Q>
-1

> <i_epik_Tot_abs_Q>
1

> <r_epik_Metal_State_Penalty>
2.00009

> <b_epik_Metal_Only>
1

> <s_lp_Force_Field>
OPLS_2005

> <r_lp_Energy>
21.198

> <b_lp_Chiralities_Consistent>
1

> <s_lp_Variant>
AV-unprocessed.smi:2216-3

> <Gold.Version>
5.8.1

> <Gold.Id.Protein>
6NUR|6NUR_protein|mol2

> <Gold.PLP.Fitness>
40.6022

> <Gold.PLP.PLP>
-30.6878

> <Gold.PLP.part.hbond>
-2.0000

> <Gold.PLP.part.metal>
0.0000

> <Gold.PLP.part.buried>
-5.9555

> <Gold.PLP.part.nonpolar>
-23.9385

> <Gold.PLP.part.repulsive>
0.1458

> <Gold.PLP.ligand.clash>
0.0000

> <Gold.PLP.ligand.torsion>
0.4207

> <Gold.PLP.Chemscore.Hbond>
3.5840

> <Gold.PLP.Chemscore.CHOScore>
0.0000

> <Gold.PLP.Chemscore.Metal>
0.0000

> <Gold.Chemscore.Hbonds>
donor molecule, donor type, donor heavy atom, donor atom, acceptor molecule, acceptor atom, score
      P1  H  6931  6943       L1    18  1.98
      P1  H  6934  6947       L1    18  0.78

> <Gold.PLP.Chemscore.Internal.Correction>
0.0038

> <Gold.Rescore>
     Score         DG    S(hbond)    S(metal)    S(lipo)     H(rot)  DE(clash)    DE(int)     intcor
     13.11     -13.63       0.96        0.00      74.33       1.47       0.09       0.42       ----

> <Gold.Chemscore.Fitness>
13.1113

> <Gold.Chemscore.DG>
-13.6280

> <Gold.Chemscore.ZeroCoef>
-5.4800

> <Gold.Chemscore.Hbond>
0.9631

> <Gold.Chemscore.Metal>
0.0000

> <Gold.Chemscore.Lipo>
74.3317

> <Gold.Chemscore.Internal_Hbond>
0.0000

> <Gold.Chemscore.DEClash>
0.0930

> <Gold.Chemscore.DEInternal>
0.4238

> <Gold.Chemscore.Rot>
1.4709

> <Gold.Chemscore.Internal.Correction>
   9.000000E+99

> <Gold.Chemscore.Hbonds>
donor molecule, donor type, donor heavy atom, donor atom, acceptor molecule, acceptor atom, score
      P1  H  6931  6943       L1    18  0.33
      P1  H  6934  6947       L1    18  0.13

> <Gold.Chemscore.Hbond.Weighted>
-3.2167

> <Gold.Chemscore.Metal.Weighted>
-0.0000

> <Gold.Chemscore.Lipo.Weighted>
-8.6968

> <Gold.Chemscore.Internal_Hbond.Weighted>
0.0000

> <Gold.Chemscore.DEClash.Weighted>
0.0930

> <Gold.Chemscore.DEInternal.Weighted>
0.4238

> <Gold.Chemscore.Rot.Weighted>
3.7654

> <Gold.Chemscore.Internal.Correction.Weighted>
   9.000000E+99

> <Gold.Protein.RotatedTorsions>
[ 6907 6896 6895 6894 ] final -145.24 input  -60.11 | X-H torsion
[ 7974 7965 7964 7962 ] final   21.21 input  175.53 | X-H torsion
[ 8008 7997 7996 7995 ] final  137.19 input   59.86 | X-H torsion
[ 10167 10162 10161 10158 ] final  149.32 input  -65.29 | X-H torsion
[ 10718 10713 10712 10709 ] final -130.66 input   66.30 | X-H torsion
[ 10763 10752 10751 10750 ] final   48.02 input  -60.55 | X-H torsion
[ 11005 11000 10999 10996 ] final -155.17 input  -57.11 | X-H torsion

> <Gold.Protein.ActiveResidues>
 VAL166  LYS551  ARG553  GLY616  TRP617  ASP618  TYR619  PRO620  LYS621  CYS622 
 ASP623  PHE694  ASN695  SER759  ASP760  ASP761  ALA762  ILE779  LEU786  VAL792 
 PHE793  MET794  SER795  GLU796  ALA797  LYS798  CYS799  TRP800  GLU811  SER814 

> <Gold.Protein.RotatedAtoms>
  151.1251  133.5076  159.2600 H   0  0  0  0  0  0  0  0  0  0  0  0  # atno 6907 bound_to 6896
  151.1819  135.0364  159.8806 H   0  0  0  0  0  0  0  0  0  0  0  0  # atno 6908 bound_to 6896
  152.5457  134.1102  159.8408 H   0  0  0  0  0  0  0  0  0  0  0  0  # atno 6909 bound_to 6896
  146.2080  139.8059  142.8711 H   0  0  0  0  0  0  0  0  0  0  0  0  # atno 7974 bound_to 7965
  156.3003  140.2426  156.3869 H   0  0  0  0  0  0  0  0  0  0  0  0  # atno 8008 bound_to 7997
  154.8649  140.0418  157.1708 H   0  0  0  0  0  0  0  0  0  0  0  0  # atno 8009 bound_to 7997
  154.8857  140.2956  155.5403 H   0  0  0  0  0  0  0  0  0  0  0  0  # atno 8010 bound_to 7997
  139.4863  144.5611  151.7229 H   0  0  0  0  0  0  0  0  0  0  0  0  # atno 10167 bound_to 10162
  156.2166  130.6952  151.0709 H   0  0  0  0  0  0  0  0  0  0  0  0  # atno 10718 bound_to 10713
  152.9795  135.5957  154.3858 H   0  0  0  0  0  0  0  0  0  0  0  0  # atno 10763 bound_to 10752
  154.3518  135.2767  155.2369 H   0  0  0  0  0  0  0  0  0  0  0  0  # atno 10764 bound_to 10752
  154.4405  135.6014  153.6181 H   0  0  0  0  0  0  0  0  0  0  0  0  # atno 10765 bound_to 10752
  140.6894  134.4057  157.5220 H   0  0  0  0  0  0  0  0  0  0  0  0  # atno 11005 bound_to 11000
  145.3247  141.0252  143.3480 LP  0  0  0  0  0  0  0  0  0  0  0  0  # atno 17320 bound_to 7965
  144.8841  139.4863  143.6709 LP  0  0  0  0  0  0  0  0  0  0  0  0  # atno 17321 bound_to 7965
  140.5181  144.0922  150.6014 LP  0  0  0  0  0  0  0  0  0  0  0  0  # atno 17342 bound_to 10162
  140.3870  143.2772  152.0104 LP  0  0  0  0  0  0  0  0  0  0  0  0  # atno 17343 bound_to 10162
  157.7066  131.0753  150.6645 LP  0  0  0  0  0  0  0  0  0  0  0  0  # atno 17370 bound_to 10713
  156.6706  130.4538  149.5658 LP  0  0  0  0  0  0  0  0  0  0  0  0  # atno 17371 bound_to 10713
  139.8928  134.8747  156.2255 LP  0  0  0  0  0  0  0  0  0  0  0  0  # atno 17394 bound_to 11000
  141.0253  133.7018  156.1338 LP  0  0  0  0  0  0  0  0  0  0  0  0  # atno 17395 bound_to 11000

$$$$
