AV-unprocessed.smi:837|AV-procd|sdf|3894|dock6
  -GOLD-   22720 1353D 1   1.00000     0.00000
 Structure written by MMmdl.
 49 51  0  0  0  0  0  0  0  0  1 V2000
  146.6627  133.2348  153.0204 C   0  0  0  0  0  0  0  0  0  0  0  0
  145.7131  132.7024  151.9261 C   0  0  2  0  0  0  0  0  0  0  0  0
  146.4809  132.4617  150.6081 C   0  0  0  0  0  0  0  0  0  0  0  0
  145.5783  131.8440  149.5287 C   0  0  0  0  0  0  0  0  0  0  0  0
  144.3358  132.7082  149.2723 C   0  0  0  0  0  0  0  0  0  0  0  0
  143.5536  132.9588  150.5739 C   0  0  0  0  0  0  0  0  0  0  0  0
  144.4281  133.5619  151.7021 C   0  0  1  0  0  0  0  0  0  0  0  0
  143.6472  133.6650  152.9228 N   0  0  0  0  0  0  0  0  0  0  0  0
  143.4892  134.9253  153.3451 C   0  0  0  0  0  0  0  0  0  0  0  0
  142.8796  135.2621  154.3590 O   0  0  0  0  0  0  0  0  0  0  0  0
  144.1163  135.7416  152.4804 N   0  0  0  0  0  0  0  0  0  0  0  0
  144.2103  137.1992  152.6364 C   0  0  0  0  0  0  0  0  0  0  0  0
  145.6233  137.6838  152.9943 C   0  0  0  0  0  0  0  0  0  0  0  0
  146.4957  136.8923  153.3566 O   0  0  0  0  0  0  0  0  0  0  0  0
  145.8298  139.0053  152.8943 N   0  0  0  0  0  0  0  0  0  0  0  0
  147.0877  139.6801  153.1912 C   0  0  0  0  0  0  0  0  0  0  0  0
  147.0079  140.4663  154.5098 C   0  0  0  0  0  0  0  0  0  0  0  0
  148.3793  140.7360  155.0966 C   0  0  0  0  0  0  0  0  0  0  0  0
  148.5206  141.4455  156.3070 C   0  0  0  0  0  0  0  0  0  0  0  0
  149.8148  141.6678  156.8153 C   0  0  0  0  0  0  0  0  0  0  0  0
  150.9152  141.1687  156.0900 C   0  0  0  0  0  0  0  0  0  0  0  0
  150.7917  140.4877  154.9304 N   0  0  0  0  0  0  0  0  0  0  0  0
  149.5471  140.2794  154.4493 C   0  0  0  0  0  0  0  0  0  0  0  0
  144.6976  135.0529  151.4887 C   0  0  0  0  0  0  0  0  0  0  0  0
  145.3564  135.5199  150.5591 O   0  0  0  0  0  0  0  0  0  0  0  0
  147.0963  134.1975  152.7482 H   0  0  0  0  0  0  0  0  0  0  0  0
  147.4887  132.5429  153.1864 H   0  0  0  0  0  0  0  0  0  0  0  0
  146.1507  133.3581  153.9747 H   0  0  0  0  0  0  0  0  0  0  0  0
  145.3764  131.7240  152.2731 H   0  0  0  0  0  0  0  0  0  0  0  0
  146.9079  133.3949  150.2404 H   0  0  0  0  0  0  0  0  0  0  0  0
  147.3257  131.7963  150.7897 H   0  0  0  0  0  0  0  0  0  0  0  0
  146.1400  131.7179  148.6028 H   0  0  0  0  0  0  0  0  0  0  0  0
  145.2694  130.8453  149.8402 H   0  0  0  0  0  0  0  0  0  0  0  0
  144.6329  133.6549  148.8210 H   0  0  0  0  0  0  0  0  0  0  0  0
  143.6898  132.2165  148.5444 H   0  0  0  0  0  0  0  0  0  0  0  0
  142.7019  133.6074  150.3621 H   0  0  0  0  0  0  0  0  0  0  0  0
  143.1289  132.0138  150.9156 H   0  0  0  0  0  0  0  0  0  0  0  0
  143.2769  132.8570  153.4018 H   0  0  0  0  0  0  0  0  0  0  0  0
  143.8891  137.6911  151.7165 H   0  0  0  0  0  0  0  0  0  0  0  0
  143.5198  137.5386  153.4103 H   0  0  0  0  0  0  0  0  0  0  0  0
  145.0607  139.5853  152.5909 H   0  0  0  0  0  0  0  0  0  0  0  0
  147.9026  138.9547  153.2263 H   0  0  0  0  0  0  0  0  0  0  0  0
  147.3109  140.3576  152.3665 H   0  0  0  0  0  0  0  0  0  0  0  0
  146.4976  141.4169  154.3491 H   0  0  0  0  0  0  0  0  0  0  0  0
  146.4135  139.9187  155.2427 H   0  0  0  0  0  0  0  0  0  0  0  0
  147.6542  141.8117  156.8381 H   0  0  0  0  0  0  0  0  0  0  0  0
  149.9607  142.2072  157.7394 H   0  0  0  0  0  0  0  0  0  0  0  0
  151.9216  141.3202  156.4515 H   0  0  0  0  0  0  0  0  0  0  0  0
  149.4818  139.7298  153.5218 H   0  0  0  0  0  0  0  0  0  0  0  0
  1  2  1  0  0  0  0
  1 26  1  0  0  0  0
  1 27  1  0  0  0  0
  1 28  1  0  0  0  0
  2  7  1  0  0  0  0
  2  3  1  0  0  0  0
  2 29  1  0  0  0  0
  3  4  1  0  0  0  0
  3 30  1  0  0  0  0
  3 31  1  0  0  0  0
  4  5  1  0  0  0  0
  4 32  1  0  0  0  0
  4 33  1  0  0  0  0
  5  6  1  0  0  0  0
  5 34  1  0  0  0  0
  5 35  1  0  0  0  0
  6  7  1  0  0  0  0
  6 36  1  0  0  0  0
  6 37  1  0  0  0  0
  7 24  1  0  0  0  0
  7  8  1  0  0  0  0
  8  9  1  0  0  0  0
  8 38  1  0  0  0  0
  9 10  2  0  0  0  0
  9 11  1  0  0  0  0
 11 12  1  0  0  0  0
 11 24  1  0  0  0  0
 12 13  1  0  0  0  0
 12 39  1  0  0  0  0
 12 40  1  0  0  0  0
 13 14  2  0  0  0  0
 13 15  1  0  0  0  0
 15 16  1  0  0  0  0
 15 41  1  0  0  0  0
 16 17  1  0  0  0  0
 16 42  1  0  0  0  0
 16 43  1  0  0  0  0
 17 18  1  0  0  0  0
 17 44  1  0  0  0  0
 17 45  1  0  0  0  0
 18 23  1  0  0  0  0
 18 19  2  0  0  0  0
 19 20  1  0  0  0  0
 19 46  1  0  0  0  0
 20 21  2  0  0  0  0
 20 47  1  0  0  0  0
 21 22  1  0  0  0  0
 21 48  1  0  0  0  0
 22 23  2  0  0  0  0
 23 49  1  0  0  0  0
 24 25  2  0  0  0  0
M  END
> <s_m_source_file>
AV-unprocessed.smi

> <i_m_source_file_index>
837

> <i_lp_mmshare_version>
43012

> <i_f3d_flags>
0

> <s_epik_input>
W0NIMl0xW0NIMl1bQ0gyXVtDSDJdW0NAQEhdKFtDSDNdKVtDQEBdMTJbTkhdQyg9TylOKEMyPU8pW0NIMl1DKD1PKVtOSF1bQ0gyXVtDSDJdYzNbY0hdW2NIXVtjSF1uW2NIXTM=

> <s_epik_cmdline>
J2VwaWtfcHl0aG9uJywgJy1waCcsICc3LjAnLCAnLXRuJywgJzgnLCAnLW1hJywgJzIwMCcsICctbWV0YWxfYmluZGluZycsICctaW1hZScsICc8aW5maWxlLm1hZT4nLCAnLW9tYWUnLCAnPG91dGZpbGUubWFlPic=

> <r_lp_tautomer_probability>
1

> <r_epik_Ionization_Penalty>
0.0127837

> <r_epik_Ionization_Penalty_Charging>
0

> <r_epik_Ionization_Penalty_Neutral>
0.0127837

> <r_epik_State_Penalty>
0.00987657

> <r_epik_Charging_Adjusted_Penalty>
0.00987657

> <i_epik_Tot_Q>
0

> <i_epik_Tot_abs_Q>
0

> <r_epik_Metal_State_Penalty>
0.0309865

> <b_epik_Metal_Only>
0

> <s_lp_Force_Field>
OPLS_2005

> <r_lp_Energy>
17.4759

> <b_lp_Chiralities_Consistent>
1

> <s_lp_Variant>
AV-unprocessed.smi:837-3

> <Gold.Version>
5.8.1

> <Gold.Id.Protein>
6NUR|6NUR_protein|mol2

> <Gold.PLP.Fitness>
52.3889

> <Gold.PLP.PLP>
-41.1620

> <Gold.PLP.part.hbond>
-3.0000

> <Gold.PLP.part.metal>
0.0000

> <Gold.PLP.part.buried>
-2.2420

> <Gold.PLP.part.nonpolar>
-36.3863

> <Gold.PLP.part.repulsive>
2.0980

> <Gold.PLP.ligand.clash>
0.0000

> <Gold.PLP.ligand.torsion>
0.4075

> <Gold.PLP.Chemscore.Hbond>
3.0000

> <Gold.PLP.Chemscore.CHOScore>
1.0000

> <Gold.PLP.Chemscore.Metal>
0.0000

> <Gold.Chemscore.Hbonds>
donor molecule, donor type, donor heavy atom, donor atom, acceptor molecule, acceptor atom, score
      L1  H     8    38       P1 10957  1.00
      L1  H    15    41       P1 10175  1.00
      P1  H  7989  7998       L1    22  1.00
      L1  C    23    49       P1  7957  1.00

> <Gold.PLP.Chemscore.Internal.Correction>
0.0420

> <Gold.Rescore>
     Score         DG    S(hbond)    S(metal)    S(lipo)     H(rot)  DE(clash)    DE(int)     intcor
     19.38     -20.55       2.39        0.00     101.13       1.86       0.76       0.40       ----

> <Gold.Chemscore.Fitness>
19.3843

> <Gold.Chemscore.DG>
-20.5461

> <Gold.Chemscore.ZeroCoef>
-5.4800

> <Gold.Chemscore.Hbond>
2.3904

> <Gold.Chemscore.Metal>
0.0000

> <Gold.Chemscore.Lipo>
101.1263

> <Gold.Chemscore.Internal_Hbond>
0.0000

> <Gold.Chemscore.DEClash>
0.7638

> <Gold.Chemscore.DEInternal>
0.3979

> <Gold.Chemscore.Rot>
1.8553

> <Gold.Chemscore.Internal.Correction>
   9.000000E+99

> <Gold.Chemscore.Hbonds>
donor molecule, donor type, donor heavy atom, donor atom, acceptor molecule, acceptor atom, score
      L1  H     8    38       P1 10957  0.70
      L1  H    15    41       P1 10175  1.00
      P1  H  7989  7998       L1    22  0.29

> <Gold.Chemscore.Hbond.Weighted>
-7.9840

> <Gold.Chemscore.Metal.Weighted>
-0.0000

> <Gold.Chemscore.Lipo.Weighted>
-11.8318

> <Gold.Chemscore.Internal_Hbond.Weighted>
0.0000

> <Gold.Chemscore.DEClash.Weighted>
0.7638

> <Gold.Chemscore.DEInternal.Weighted>
0.3979

> <Gold.Chemscore.Rot.Weighted>
4.7497

> <Gold.Chemscore.Internal.Correction.Weighted>
   9.000000E+99

> <Gold.Protein.RotatedTorsions>
[ 6907 6896 6895 6894 ] final   37.48 input  -60.11 | X-H torsion
[ 7974 7965 7964 7962 ] final   82.50 input  175.53 | X-H torsion
[ 8008 7997 7996 7995 ] final   65.61 input   59.86 | X-H torsion
[ 10167 10162 10161 10158 ] final  -80.50 input  -65.29 | X-H torsion
[ 10718 10713 10712 10709 ] final  177.01 input   66.30 | X-H torsion
[ 10763 10752 10751 10750 ] final  -56.07 input  -60.55 | X-H torsion
[ 11005 11000 10999 10996 ] final   -1.06 input  -57.11 | X-H torsion

> <Gold.Protein.ActiveResidues>
 VAL166  LYS551  ARG553  GLY616  TRP617  ASP618  TYR619  PRO620  LYS621  CYS622 
 ASP623  PHE694  ASN695  SER759  ASP760  ASP761  ALA762  ILE779  LEU786  VAL792 
 PHE793  MET794  SER795  GLU796  ALA797  LYS798  CYS799  TRP800  GLU811  SER814 

> <Gold.Protein.RotatedAtoms>
  152.1437  134.9042  160.0552 H   0  0  0  0  0  0  0  0  0  0  0  0  # atno 6907 bound_to 6896
  152.0101  133.3853  159.4224 H   0  0  0  0  0  0  0  0  0  0  0  0  # atno 6908 bound_to 6896
  150.6868  134.3662  159.5016 H   0  0  0  0  0  0  0  0  0  0  0  0  # atno 6909 bound_to 6896
  145.6243  139.2392  143.2121 H   0  0  0  0  0  0  0  0  0  0  0  0  # atno 7974 bound_to 7965
  155.6645  140.3497  155.4795 H   0  0  0  0  0  0  0  0  0  0  0  0  # atno 8008 bound_to 7997
  155.9741  140.1161  157.0809 H   0  0  0  0  0  0  0  0  0  0  0  0  # atno 8009 bound_to 7997
  154.4174  140.1151  156.5332 H   0  0  0  0  0  0  0  0  0  0  0  0  # atno 8010 bound_to 7997
  140.4498  143.2487  151.8506 H   0  0  0  0  0  0  0  0  0  0  0  0  # atno 10167 bound_to 10162
  156.9116  130.9912  151.3019 H   0  0  0  0  0  0  0  0  0  0  0  0  # atno 10718 bound_to 10713
  154.2008  135.6411  153.5086 H   0  0  0  0  0  0  0  0  0  0  0  0  # atno 10763 bound_to 10752
  153.0012  135.5451  154.6317 H   0  0  0  0  0  0  0  0  0  0  0  0  # atno 10764 bound_to 10752
  154.5730  135.2918  155.0782 H   0  0  0  0  0  0  0  0  0  0  0  0  # atno 10765 bound_to 10752
  140.6432  133.9471  155.8338 H   0  0  0  0  0  0  0  0  0  0  0  0  # atno 11005 bound_to 11000
  146.1407  140.7062  142.9368 LP  0  0  0  0  0  0  0  0  0  0  0  0  # atno 17320 bound_to 7965
  144.7219  140.4399  143.7002 LP  0  0  0  0  0  0  0  0  0  0  0  0  # atno 17321 bound_to 7965
  139.4795  144.5134  151.8902 LP  0  0  0  0  0  0  0  0  0  0  0  0  # atno 17342 bound_to 10162
  140.4221  144.2229  150.5887 LP  0  0  0  0  0  0  0  0  0  0  0  0  # atno 17343 bound_to 10162
  157.5964  130.8480  149.8735 LP  0  0  0  0  0  0  0  0  0  0  0  0  # atno 17370 bound_to 10713
  156.0533  130.3713  150.1150 LP  0  0  0  0  0  0  0  0  0  0  0  0  # atno 17371 bound_to 10713
  141.0592  134.0372  157.3682 LP  0  0  0  0  0  0  0  0  0  0  0  0  # atno 17394 bound_to 11000
  139.9073  135.0182  156.7539 LP  0  0  0  0  0  0  0  0  0  0  0  0  # atno 17395 bound_to 11000

$$$$
