AV-unprocessed.smi:36|AV-procd|sdf|300|dock4
  -GOLD-   2262016103D 1   1.00000     0.00000
 Structure written by MMmdl.
 63 66  0  0  0  0  0  0  0  0  2 V2000
  141.9176  134.5804  163.5441 C   0  0  0  0  0  0  0  0  0  0  0  0
  142.7935  135.0131  162.3566 C   0  0  0  0  0  0  0  0  0  0  0  0
  142.7793  136.5455  162.2263 C   0  0  0  0  0  0  0  0  0  0  0  0
  144.2363  134.5241  162.5651 C   0  0  0  0  0  0  0  0  0  0  0  0
  142.1033  134.2489  160.7479 Si  0  0  0  0  0  0  0  0  0  0  0  0
  142.3020  132.3597  160.7374 C   0  0  0  0  0  0  0  0  0  0  0  0
  140.2709  134.6998  160.5116 C   0  0  0  0  0  0  0  0  0  0  0  0
  142.9871  134.8762  159.4481 O   0  0  0  0  0  0  0  0  0  0  0  0
  144.1719  134.2819  158.9605 C   0  0  0  0  0  0  0  0  0  0  0  0
  144.2730  134.4772  157.4411 C   0  0  1  0  0  0  0  0  0  0  0  0
  144.6889  135.8259  157.2187 O   0  0  0  0  0  0  0  0  0  0  0  0
  145.8233  135.8471  156.4137 C   0  0  1  0  0  0  0  0  0  0  0  0
  146.6888  136.9845  156.8415 N   0  0  0  0  0  0  0  0  0  0  0  0
  146.7075  137.5993  158.0406 C   0  0  0  0  0  0  0  0  0  0  0  0
  147.5734  138.5974  158.2046 N   0  0  0  0  0  0  0  0  0  0  0  0
  148.1977  138.6337  156.9664 C   0  0  0  0  0  0  0  0  0  0  0  0
  149.2244  139.4616  156.4346 C   0  0  0  0  0  0  0  0  0  0  0  0
  149.8084  140.4382  157.1446 N   0  5  0  0  0  0  0  0  0  0  0  0
  150.8586  141.1204  156.6216 C   0  0  0  0  0  0  0  0  0  0  0  0
  151.4025  140.9496  155.5283 O   0  0  0  0  0  0  0  0  0  0  0  0
  151.4255  142.1514  157.5610 C   0  0  0  0  0  0  0  0  0  0  0  0
  151.5502  143.4937  157.1349 C   0  0  0  0  0  0  0  0  0  0  0  0
  152.0566  144.4780  158.0060 C   0  0  0  0  0  0  0  0  0  0  0  0
  152.4359  144.1324  159.3164 C   0  0  0  0  0  0  0  0  0  0  0  0
  152.3029  142.8024  159.7570 C   0  0  0  0  0  0  0  0  0  0  0  0
  151.7961  141.8176  158.8868 C   0  0  0  0  0  0  0  0  0  0  0  0
  149.6183  139.2124  155.1597 N   0  0  0  0  0  0  0  0  0  0  0  0
  149.0402  138.2347  154.4527 C   0  0  0  0  0  0  0  0  0  0  0  0
  148.0669  137.3960  154.8196 N   0  0  0  0  0  0  0  0  0  0  0  0
  147.6671  137.6316  156.1035 C   0  0  0  0  0  0  0  0  0  0  0  0
  146.5252  134.5084  156.6120 C   0  0  0  0  0  0  0  0  0  0  0  0
  145.3381  133.5828  156.7777 C   0  0  2  0  0  0  0  0  0  0  0  0
  144.8815  133.1300  155.5182 O   0  0  0  0  0  0  0  0  0  0  0  0
  142.2858  134.9993  164.4812 H   0  0  0  0  0  0  0  0  0  0  0  0
  141.9029  133.4956  163.6526 H   0  0  0  0  0  0  0  0  0  0  0  0
  140.8868  134.9125  163.4194 H   0  0  0  0  0  0  0  0  0  0  0  0
  141.7664  136.9244  162.0886 H   0  0  0  0  0  0  0  0  0  0  0  0
  143.3723  136.8763  161.3728 H   0  0  0  0  0  0  0  0  0  0  0  0
  143.1891  137.0231  163.1170 H   0  0  0  0  0  0  0  0  0  0  0  0
  144.6755  134.9561  163.4649 H   0  0  0  0  0  0  0  0  0  0  0  0
  144.8725  134.7989  161.7232 H   0  0  0  0  0  0  0  0  0  0  0  0
  144.2780  133.4395  162.6685 H   0  0  0  0  0  0  0  0  0  0  0  0
  141.7657  131.8956  161.5647 H   0  0  0  0  0  0  0  0  0  0  0  0
  143.3478  132.0658  160.8217 H   0  0  0  0  0  0  0  0  0  0  0  0
  141.9169  131.9239  159.8156 H   0  0  0  0  0  0  0  0  0  0  0  0
  139.6565  134.3117  161.3237 H   0  0  0  0  0  0  0  0  0  0  0  0
  139.8727  134.2921  159.5827 H   0  0  0  0  0  0  0  0  0  0  0  0
  140.1224  135.7787  160.4813 H   0  0  0  0  0  0  0  0  0  0  0  0
  145.0236  134.7465  159.4580 H   0  0  0  0  0  0  0  0  0  0  0  0
  144.1958  133.2222  159.2132 H   0  0  0  0  0  0  0  0  0  0  0  0
  143.2904  134.3223  156.9924 H   0  0  0  0  0  0  0  0  0  0  0  0
  145.5541  136.0463  155.3753 H   0  0  0  0  0  0  0  0  0  0  0  0
  146.0450  137.3000  158.8395 H   0  0  0  0  0  0  0  0  0  0  0  0
  151.2625  143.7763  156.1328 H   0  0  0  0  0  0  0  0  0  0  0  0
  152.1532  145.4990  157.6678 H   0  0  0  0  0  0  0  0  0  0  0  0
  152.8239  144.8872  159.9841 H   0  0  0  0  0  0  0  0  0  0  0  0
  152.5869  142.5364  160.7643 H   0  0  0  0  0  0  0  0  0  0  0  0
  151.6928  140.8046  159.2484 H   0  0  0  0  0  0  0  0  0  0  0  0
  149.4098  138.1066  153.4464 H   0  0  0  0  0  0  0  0  0  0  0  0
  147.1790  134.2677  155.7729 H   0  0  0  0  0  0  0  0  0  0  0  0
  147.1151  134.5255  157.5287 H   0  0  0  0  0  0  0  0  0  0  0  0
  145.5899  132.7091  157.3783 H   0  0  0  0  0  0  0  0  0  0  0  0
  144.1716  132.5222  155.6578 H   0  0  0  0  0  0  0  0  0  0  0  0
  1  2  1  0  0  0  0
  1 34  1  0  0  0  0
  1 35  1  0  0  0  0
  1 36  1  0  0  0  0
  2  3  1  0  0  0  0
  2  4  1  0  0  0  0
  2  5  1  0  0  0  0
  3 37  1  0  0  0  0
  3 38  1  0  0  0  0
  3 39  1  0  0  0  0
  4 40  1  0  0  0  0
  4 41  1  0  0  0  0
  4 42  1  0  0  0  0
  5  6  1  0  0  0  0
  5  7  1  0  0  0  0
  5  8  1  0  0  0  0
  6 43  1  0  0  0  0
  6 44  1  0  0  0  0
  6 45  1  0  0  0  0
  7 46  1  0  0  0  0
  7 47  1  0  0  0  0
  7 48  1  0  0  0  0
  8  9  1  0  0  0  0
  9 10  1  0  0  0  0
  9 49  1  0  0  0  0
  9 50  1  0  0  0  0
 10 32  1  0  0  0  0
 10 11  1  0  0  0  0
 10 51  1  0  0  0  0
 11 12  1  0  0  0  0
 12 13  1  0  0  0  0
 12 31  1  0  0  0  0
 12 52  1  0  0  0  0
 13 30  1  0  0  0  0
 13 14  1  0  0  0  0
 14 15  2  0  0  0  0
 14 53  1  0  0  0  0
 15 16  1  0  0  0  0
 16 30  2  0  0  0  0
 16 17  1  0  0  0  0
 17 18  1  0  0  0  0
 17 27  2  0  0  0  0
 18 19  1  0  0  0  0
 19 20  2  0  0  0  0
 19 21  1  0  0  0  0
 21 26  1  0  0  0  0
 21 22  2  0  0  0  0
 22 23  1  0  0  0  0
 22 54  1  0  0  0  0
 23 24  2  0  0  0  0
 23 55  1  0  0  0  0
 24 25  1  0  0  0  0
 24 56  1  0  0  0  0
 25 26  2  0  0  0  0
 25 57  1  0  0  0  0
 26 58  1  0  0  0  0
 27 28  1  0  0  0  0
 28 29  2  0  0  0  0
 28 59  1  0  0  0  0
 29 30  1  0  0  0  0
 31 32  1  0  0  0  0
 31 60  1  0  0  0  0
 31 61  1  0  0  0  0
 32 33  1  0  0  0  0
 32 62  1  0  0  0  0
 33 63  1  0  0  0  0
M  CHG  1  18  -1
M  END
> <s_m_source_file>
AV-unprocessed.smi

> <i_m_source_file_index>
36

> <i_lp_mmshare_version>
43012

> <i_f3d_flags>
0

> <s_epik_input>
W0NIM11DKFtDSDNdKShbQ0gzXSlbU2ldKFtDSDNdKShbQ0gzXSlPW0NIMl1bQ0BASF0xT1tDQEhdKFtDSDJdW0NASF0xW09IXSluKFtjSF1uMiljKGMyMyluW2NIXW5jM1tOSF1DKD1PKWM0W2NIXVtjSF1bY0hdW2NIXVtjSF00

> <s_epik_cmdline>
J2VwaWtfcHl0aG9uJywgJy1waCcsICc3LjAnLCAnLXRuJywgJzgnLCAnLW1hJywgJzIwMCcsICctbWV0YWxfYmluZGluZycsICctaW1hZScsICc8aW5maWxlLm1hZT4nLCAnLW9tYWUnLCAnPG91dGZpbGUubWFlPic=

> <r_lp_tautomer_probability>
1

> <r_epik_Ionization_Penalty>
4.75685

> <r_epik_Ionization_Penalty_Charging>
3.55822

> <r_epik_Ionization_Penalty_Neutral>
1.19863

> <r_epik_State_Penalty>
3.564

> <r_epik_Charging_Adjusted_Penalty>
7.12222

> <i_epik_Tot_Q>
-1

> <i_epik_Tot_abs_Q>
1

> <r_epik_Metal_State_Penalty>
0.523258

> <b_epik_Metal_Only>
1

> <s_epik_Chemistry_Notes>
This compound contains an acetal/aminal-like group ( X-CH(R)-Y where X, Y are N, S, or O) that may be acid/base labile, releasing an aldehyde.

> <s_lp_Force_Field>
OPLS_2005

> <r_lp_Energy>
29.6254

> <b_lp_Chiralities_Consistent>
1

> <s_lp_Variant>
AV-unprocessed.smi:36-22

> <Gold.Version>
5.8.1

> <Gold.Id.Protein>
6NUR|6NUR_protein|mol2

> <Gold.PLP.Fitness>
44.9085

> <Gold.PLP.PLP>
-41.3460

> <Gold.PLP.part.hbond>
-2.7143

> <Gold.PLP.part.metal>
0.0000

> <Gold.PLP.part.buried>
-4.2894

> <Gold.PLP.part.nonpolar>
-33.8178

> <Gold.PLP.part.repulsive>
0.2360

> <Gold.PLP.ligand.clash>
0.0000

> <Gold.PLP.ligand.torsion>
2.6289

> <Gold.PLP.Chemscore.Hbond>
1.5787

> <Gold.PLP.Chemscore.CHOScore>
1.1327

> <Gold.PLP.Chemscore.Metal>
0.0000

> <Gold.Chemscore.Hbonds>
donor molecule, donor type, donor heavy atom, donor atom, acceptor molecule, acceptor atom, score
      L1  H    33    63       P1 10957  0.86
      P1  H  7989  7998       L1    20  0.64
      L1  C    28    59       P1  7948  0.99

> <Gold.PLP.Chemscore.Internal.Correction>
0.6863

> <Gold.Rescore>
     Score         DG    S(hbond)    S(metal)    S(lipo)     H(rot)  DE(clash)    DE(int)     intcor
     11.36     -15.90       1.50        0.00     104.63       2.67       0.16       4.38       ----

> <Gold.Chemscore.Fitness>
11.3562

> <Gold.Chemscore.DG>
-15.8982

> <Gold.Chemscore.ZeroCoef>
-5.4800

> <Gold.Chemscore.Hbond>
1.5006

> <Gold.Chemscore.Metal>
0.0000

> <Gold.Chemscore.Lipo>
104.6322

> <Gold.Chemscore.Internal_Hbond>
0.0000

> <Gold.Chemscore.DEClash>
0.1617

> <Gold.Chemscore.DEInternal>
4.3802

> <Gold.Chemscore.Rot>
2.6702

> <Gold.Chemscore.Internal.Correction>
   9.000000E+99

> <Gold.Chemscore.Hbonds>
donor molecule, donor type, donor heavy atom, donor atom, acceptor molecule, acceptor atom, score
      L1  H    33    63       P1 10957  0.85
      P1  H  7989  7998       L1    20  0.60

> <Gold.Chemscore.Hbond.Weighted>
-5.0120

> <Gold.Chemscore.Metal.Weighted>
-0.0000

> <Gold.Chemscore.Lipo.Weighted>
-12.2420

> <Gold.Chemscore.Internal_Hbond.Weighted>
0.0000

> <Gold.Chemscore.DEClash.Weighted>
0.1617

> <Gold.Chemscore.DEInternal.Weighted>
4.3802

> <Gold.Chemscore.Rot.Weighted>
6.8358

> <Gold.Chemscore.Internal.Correction.Weighted>
   9.000000E+99

> <Gold.Protein.RotatedTorsions>
[ 6907 6896 6895 6894 ] final  -53.94 input  -60.11 | X-H torsion
[ 7974 7965 7964 7962 ] final -170.32 input  175.53 | X-H torsion
[ 8008 7997 7996 7995 ] final   60.40 input   59.86 | X-H torsion
[ 10167 10162 10161 10158 ] final -144.89 input  -65.29 | X-H torsion
[ 10718 10713 10712 10709 ] final   19.07 input   66.30 | X-H torsion
[ 10763 10752 10751 10750 ] final -177.40 input  -60.55 | X-H torsion
[ 11005 11000 10999 10996 ] final  -71.87 input  -57.11 | X-H torsion

> <Gold.Protein.ActiveResidues>
 VAL166  LYS551  ARG553  GLY616  TRP617  ASP618  TYR619  PRO620  LYS621  CYS622 
 ASP623  PHE694  ASN695  SER759  ASP760  ASP761  ALA762  ILE779  LEU786  VAL792 
 PHE793  MET794  SER795  GLU796  ALA797  LYS798  CYS799  TRP800  GLU811  SER814 

> <Gold.Protein.RotatedAtoms>
  150.8382  134.7664  159.6910 H   0  0  0  0  0  0  0  0  0  0  0  0  # atno 6907 bound_to 6896
  152.4475  134.5461  159.9863 H   0  0  0  0  0  0  0  0  0  0  0  0  # atno 6908 bound_to 6896
  151.5607  133.3366  159.3006 H   0  0  0  0  0  0  0  0  0  0  0  0  # atno 6909 bound_to 6896
  144.7172  140.2090  143.6329 H   0  0  0  0  0  0  0  0  0  0  0  0  # atno 7974 bound_to 7965
  155.5817  140.3491  155.4542 H   0  0  0  0  0  0  0  0  0  0  0  0  # atno 8008 bound_to 7997
  156.0368  140.1287  157.0224 H   0  0  0  0  0  0  0  0  0  0  0  0  # atno 8009 bound_to 7997
  154.4375  140.1032  156.6164 H   0  0  0  0  0  0  0  0  0  0  0  0  # atno 8010 bound_to 7997
  139.7857  143.8038  152.2644 H   0  0  0  0  0  0  0  0  0  0  0  0  # atno 10167 bound_to 10162
  157.1053  130.6485  149.5883 H   0  0  0  0  0  0  0  0  0  0  0  0  # atno 10718 bound_to 10713
  154.5605  135.2820  155.0923 H   0  0  0  0  0  0  0  0  0  0  0  0  # atno 10763 bound_to 10752
  154.2334  135.6370  153.5186 H   0  0  0  0  0  0  0  0  0  0  0  0  # atno 10764 bound_to 10752
  153.0028  135.5542  154.6198 H   0  0  0  0  0  0  0  0  0  0  0  0  # atno 10765 bound_to 10752
  141.1599  133.6830  156.6972 H   0  0  0  0  0  0  0  0  0  0  0  0  # atno 11005 bound_to 11000
  145.8609  139.2222  143.1717 LP  0  0  0  0  0  0  0  0  0  0  0  0  # atno 17320 bound_to 7965
  146.0174  140.8379  142.9940 LP  0  0  0  0  0  0  0  0  0  0  0  0  # atno 17321 bound_to 7965
  139.8114  144.7334  150.9692 LP  0  0  0  0  0  0  0  0  0  0  0  0  # atno 17342 bound_to 10162
  140.7819  143.4247  151.0786 LP  0  0  0  0  0  0  0  0  0  0  0  0  # atno 17343 bound_to 10162
  155.9863  130.4898  150.7075 LP  0  0  0  0  0  0  0  0  0  0  0  0  # atno 17370 bound_to 10713
  157.4606  131.0882  151.0750 LP  0  0  0  0  0  0  0  0  0  0  0  0  # atno 17371 bound_to 10713
  140.2986  134.8182  157.4078 LP  0  0  0  0  0  0  0  0  0  0  0  0  # atno 17394 bound_to 11000
  140.1282  134.5130  155.8127 LP  0  0  0  0  0  0  0  0  0  0  0  0  # atno 17395 bound_to 11000

$$$$
