AV-unprocessed.smi:2611|AV-procd|sdf|10210|dock10
  -GOLD-   2272014213D 1   1.00000     0.00000
 Structure written by MMmdl.
 39 40  0  0  0  0  0  0  0  0  1 V2000
  145.8595  140.9642  155.0730 C   0  0  0  0  0  0  0  0  0  0  0  0
  147.0058  141.9799  154.9576 C   0  0  0  0  0  0  0  0  0  0  0  0
  146.8053  142.9816  153.8109 C   0  0  0  0  0  0  0  0  0  0  0  0
  148.3400  141.3034  154.8765 C   0  0  0  0  0  0  0  0  0  0  0  0
  148.7121  140.6421  153.7864 N   0  0  0  0  0  0  0  0  0  0  0  0
  149.9958  140.1789  154.1088 O   0  0  0  0  0  0  0  0  0  0  0  0
  150.2361  140.6060  155.3713 C   0  0  0  0  0  0  0  0  0  0  0  0
  151.5604  140.3114  155.9917 C   0  0  0  0  0  0  0  0  0  0  0  0
  151.4377  139.9054  157.4689 C   0  0  0  0  0  0  0  0  0  0  0  0
  152.1933  140.8028  158.3349 N   0  0  0  0  0  0  0  0  0  0  0  0
  152.0236  142.1337  158.4129 C   0  0  0  0  0  0  0  0  0  0  0  0
  151.2044  142.7309  157.7130 O   0  0  0  0  0  0  0  0  0  0  0  0
  152.8378  142.7595  159.3009 N   0  0  0  0  0  0  0  0  0  0  0  0
  153.8523  142.1096  160.1468 C   0  0  0  0  0  0  0  0  0  0  0  0
  153.2424  141.8203  161.5284 C   0  0  0  0  0  0  0  0  0  0  0  0
  152.7689  143.3649  162.3671 S   0  0  0  0  0  0  0  0  0  0  0  0
  151.8174  144.1599  161.0340 C   0  0  0  0  0  0  0  0  0  0  0  0
  152.6025  144.1488  159.7113 C   0  0  0  0  0  0  0  0  0  0  0  0
  149.2468  141.3260  155.8934 N   0  0  0  0  0  0  0  0  0  0  0  0
  145.9960  140.3156  155.9387 H   0  0  0  0  0  0  0  0  0  0  0  0
  145.7996  140.3308  154.1876 H   0  0  0  0  0  0  0  0  0  0  0  0
  144.8992  141.4678  155.1859 H   0  0  0  0  0  0  0  0  0  0  0  0
  146.9932  142.5628  155.8801 H   0  0  0  0  0  0  0  0  0  0  0  0
  147.5957  143.7327  153.8040 H   0  0  0  0  0  0  0  0  0  0  0  0
  145.8539  143.5046  153.9094 H   0  0  0  0  0  0  0  0  0  0  0  0
  146.8106  142.4825  152.8412 H   0  0  0  0  0  0  0  0  0  0  0  0
  152.0419  139.5185  155.4178 H   0  0  0  0  0  0  0  0  0  0  0  0
  152.1927  141.1950  155.8953 H   0  0  0  0  0  0  0  0  0  0  0  0
  150.3927  139.9417  157.7778 H   0  0  0  0  0  0  0  0  0  0  0  0
  151.7685  138.8753  157.6124 H   0  0  0  0  0  0  0  0  0  0  0  0
  152.8935  140.3813  158.9278 H   0  0  0  0  0  0  0  0  0  0  0  0
  154.2465  141.1901  159.7138 H   0  0  0  0  0  0  0  0  0  0  0  0
  154.7203  142.7618  160.2535 H   0  0  0  0  0  0  0  0  0  0  0  0
  152.3630  141.1825  161.4309 H   0  0  0  0  0  0  0  0  0  0  0  0
  153.9563  141.2872  162.1561 H   0  0  0  0  0  0  0  0  0  0  0  0
  150.8665  143.6390  160.9164 H   0  0  0  0  0  0  0  0  0  0  0  0
  151.5860  145.1829  161.3312 H   0  0  0  0  0  0  0  0  0  0  0  0
  153.5518  144.6724  159.8321 H   0  0  0  0  0  0  0  0  0  0  0  0
  152.0585  144.7106  158.9505 H   0  0  0  0  0  0  0  0  0  0  0  0
  1  2  1  0  0  0  0
  1 20  1  0  0  0  0
  1 21  1  0  0  0  0
  1 22  1  0  0  0  0
  2  3  1  0  0  0  0
  2  4  1  0  0  0  0
  2 23  1  0  0  0  0
  3 24  1  0  0  0  0
  3 25  1  0  0  0  0
  3 26  1  0  0  0  0
  4 19  1  0  0  0  0
  4  5  2  0  0  0  0
  5  6  1  0  0  0  0
  6  7  1  0  0  0  0
  7  8  1  0  0  0  0
  7 19  2  0  0  0  0
  8  9  1  0  0  0  0
  8 27  1  0  0  0  0
  8 28  1  0  0  0  0
  9 10  1  0  0  0  0
  9 29  1  0  0  0  0
  9 30  1  0  0  0  0
 10 11  1  0  0  0  0
 10 31  1  0  0  0  0
 11 12  2  0  0  0  0
 11 13  1  0  0  0  0
 13 18  1  0  0  0  0
 13 14  1  0  0  0  0
 14 15  1  0  0  0  0
 14 32  1  0  0  0  0
 14 33  1  0  0  0  0
 15 16  1  0  0  0  0
 15 34  1  0  0  0  0
 15 35  1  0  0  0  0
 16 17  1  0  0  0  0
 17 18  1  0  0  0  0
 17 36  1  0  0  0  0
 17 37  1  0  0  0  0
 18 38  1  0  0  0  0
 18 39  1  0  0  0  0
M  END
> <s_m_source_file>
AV-unprocessed.smi

> <i_m_source_file_index>
2611

> <i_lp_mmshare_version>
43012

> <i_f3d_flags>
0

> <s_epik_input>
W0NIM11bQ0hdKFtDSDNdKWMxbm9jKG4xKVtDSDJdW0NIMl1bTkhdQyg9TylOMltDSDJdW0NIMl1TW0NIMl1bQ0gyXTI=

> <s_epik_cmdline>
J2VwaWtfcHl0aG9uJywgJy1waCcsICc3LjAnLCAnLXRuJywgJzgnLCAnLW1hJywgJzIwMCcsICctbWV0YWxfYmluZGluZycsICctaW1hZScsICc8aW5maWxlLm1hZT4nLCAnLW9tYWUnLCAnPG91dGZpbGUubWFlPic=

> <r_lp_tautomer_probability>
1

> <r_epik_Ionization_Penalty>
4.28847e-05

> <r_epik_Ionization_Penalty_Charging>
0

> <r_epik_Ionization_Penalty_Neutral>
4.28847e-05

> <r_epik_State_Penalty>
-0

> <r_epik_Charging_Adjusted_Penalty>
0

> <i_epik_Tot_Q>
0

> <i_epik_Tot_abs_Q>
0

> <r_epik_Metal_State_Penalty>
-0

> <b_epik_Metal_Only>
0

> <s_lp_Force_Field>
OPLS_2005

> <r_lp_Energy>
14.602

> <b_lp_Chiralities_Consistent>
1

> <s_lp_Variant>
AV-unprocessed.smi:2611-1

> <Gold.Version>
5.8.1

> <Gold.Id.Protein>
6NUR|6NUR_protein|mol2

> <Gold.PLP.Fitness>
41.4180

> <Gold.PLP.PLP>
-41.0197

> <Gold.PLP.part.hbond>
-1.0000

> <Gold.PLP.part.metal>
0.0000

> <Gold.PLP.part.buried>
-7.3830

> <Gold.PLP.part.nonpolar>
-35.5876

> <Gold.PLP.part.repulsive>
2.3232

> <Gold.PLP.ligand.clash>
0.0000

> <Gold.PLP.ligand.torsion>
0.7831

> <Gold.PLP.Chemscore.Hbond>
0.6160

> <Gold.PLP.Chemscore.CHOScore>
0.0000

> <Gold.PLP.Chemscore.Metal>
0.0000

> <Gold.Chemscore.Hbonds>
donor molecule, donor type, donor heavy atom, donor atom, acceptor molecule, acceptor atom, score
      P1  H  7989  7998       L1     6  0.58

> <Gold.PLP.Chemscore.Internal.Correction>
0.1166

> <Gold.Rescore>
     Score         DG    S(hbond)    S(metal)    S(lipo)     H(rot)  DE(clash)    DE(int)     intcor
     11.60     -13.08       0.82        0.00      79.26       1.72       0.03       1.45       ----

> <Gold.Chemscore.Fitness>
11.6003

> <Gold.Chemscore.DG>
-13.0834

> <Gold.Chemscore.ZeroCoef>
-5.4800

> <Gold.Chemscore.Hbond>
0.8177

> <Gold.Chemscore.Metal>
0.0000

> <Gold.Chemscore.Lipo>
79.2627

> <Gold.Chemscore.Internal_Hbond>
0.0000

> <Gold.Chemscore.DEClash>
0.0294

> <Gold.Chemscore.DEInternal>
1.4536

> <Gold.Chemscore.Rot>
1.7193

> <Gold.Chemscore.Internal.Correction>
   9.000000E+99

> <Gold.Chemscore.Hbonds>
donor molecule, donor type, donor heavy atom, donor atom, acceptor molecule, acceptor atom, score
      P1  H  7989  7998       L1     6  0.05

> <Gold.Chemscore.Hbond.Weighted>
-2.7312

> <Gold.Chemscore.Metal.Weighted>
-0.0000

> <Gold.Chemscore.Lipo.Weighted>
-9.2737

> <Gold.Chemscore.Internal_Hbond.Weighted>
0.0000

> <Gold.Chemscore.DEClash.Weighted>
0.0294

> <Gold.Chemscore.DEInternal.Weighted>
1.4536

> <Gold.Chemscore.Rot.Weighted>
4.4015

> <Gold.Chemscore.Internal.Correction.Weighted>
   9.000000E+99

> <Gold.Protein.RotatedTorsions>
[ 6907 6896 6895 6894 ] final  -41.45 input  -60.11 | X-H torsion
[ 7974 7965 7964 7962 ] final  -94.05 input  175.53 | X-H torsion
[ 8008 7997 7996 7995 ] final   24.70 input   59.86 | X-H torsion
[ 10167 10162 10161 10158 ] final  128.51 input  -65.29 | X-H torsion
[ 10718 10713 10712 10709 ] final    8.07 input   66.30 | X-H torsion
[ 10763 10752 10751 10750 ] final  -99.83 input  -60.55 | X-H torsion
[ 11005 11000 10999 10996 ] final   34.72 input  -57.11 | X-H torsion

> <Gold.Protein.ActiveResidues>
 VAL166  LYS551  ARG553  GLY616  TRP617  ASP618  TYR619  PRO620  LYS621  CYS622 
 ASP623  PHE694  ASN695  SER759  ASP760  ASP761  ALA762  ILE779  LEU786  VAL792 
 PHE793  MET794  SER795  GLU796  ALA797  LYS798  CYS799  TRP800  GLU811  SER814 

> <Gold.Protein.RotatedAtoms>
  150.9666  134.9046  159.7762 H   0  0  0  0  0  0  0  0  0  0  0  0  # atno 6907 bound_to 6896
  152.5175  134.3599  159.9291 H   0  0  0  0  0  0  0  0  0  0  0  0  # atno 6908 bound_to 6896
  151.3609  133.3849  159.2724 H   0  0  0  0  0  0  0  0  0  0  0  0  # atno 6909 bound_to 6896
  145.3784  140.9514  143.2408 H   0  0  0  0  0  0  0  0  0  0  0  0  # atno 7974 bound_to 7965
  155.0003  140.3124  155.4870 H   0  0  0  0  0  0  0  0  0  0  0  0  # atno 8008 bound_to 7997
  156.2926  140.2233  156.5054 H   0  0  0  0  0  0  0  0  0  0  0  0  # atno 8009 bound_to 7997
  154.7624  140.0458  157.0972 H   0  0  0  0  0  0  0  0  0  0  0  0  # atno 8010 bound_to 7997
  139.5523  144.6823  151.4286 H   0  0  0  0  0  0  0  0  0  0  0  0  # atno 10167 bound_to 10162
  156.9462  130.5880  149.5654 H   0  0  0  0  0  0  0  0  0  0  0  0  # atno 10718 bound_to 10713
  154.7530  135.4958  153.9323 H   0  0  0  0  0  0  0  0  0  0  0  0  # atno 10763 bound_to 10752
  153.1164  135.6721  153.9419 H   0  0  0  0  0  0  0  0  0  0  0  0  # atno 10764 bound_to 10752
  153.9163  135.3093  155.3427 H   0  0  0  0  0  0  0  0  0  0  0  0  # atno 10765 bound_to 10752
  140.2499  134.3315  155.7894 H   0  0  0  0  0  0  0  0  0  0  0  0  # atno 11005 bound_to 11000
  144.8525  139.5299  143.6849 LP  0  0  0  0  0  0  0  0  0  0  0  0  # atno 17320 bound_to 7965
  146.2853  139.6988  142.9199 LP  0  0  0  0  0  0  0  0  0  0  0  0  # atno 17321 bound_to 7965
  140.6789  143.8128  150.7094 LP  0  0  0  0  0  0  0  0  0  0  0  0  # atno 17342 bound_to 10162
  140.1575  143.4304  152.2090 LP  0  0  0  0  0  0  0  0  0  0  0  0  # atno 17343 bound_to 10162
  156.0382  130.5468  150.8707 LP  0  0  0  0  0  0  0  0  0  0  0  0  # atno 17370 bound_to 10713
  157.5752  131.0946  150.9356 LP  0  0  0  0  0  0  0  0  0  0  0  0  # atno 17371 bound_to 10713
  141.2202  133.7348  156.9021 LP  0  0  0  0  0  0  0  0  0  0  0  0  # atno 17394 bound_to 11000
  140.1568  134.9193  157.2664 LP  0  0  0  0  0  0  0  0  0  0  0  0  # atno 17395 bound_to 11000

$$$$
