AV-unprocessed.smi:2556|AV-procd|sdf|10026|dock9
  -GOLD-   2272014 73D 1   1.00000     0.00000
 Structure written by MMmdl.
 34 36  0  0  0  0  0  0  0  0  2 V2000
  152.5786  143.7621  162.0957 C   0  0  0  0  0  0  0  0  0  0  0  0
  152.6327  142.7936  160.9964 N   0  0  0  0  0  0  0  0  0  0  0  0
  153.1534  141.5309  161.1349 C   0  0  0  0  0  0  0  0  0  0  0  0
  153.5913  141.1889  162.2337 O   0  0  0  0  0  0  0  0  0  0  0  0
  153.1756  140.6757  160.0523 N   0  5  0  0  0  0  0  0  0  0  0  0
  152.7098  140.9552  158.7936 C   0  0  0  0  0  0  0  0  0  0  0  0
  152.7228  140.2107  157.8146 O   0  0  0  0  0  0  0  0  0  0  0  0
  152.1490  142.3176  158.7031 C   0  0  0  0  0  0  0  0  0  0  0  0
  152.1080  143.1978  159.7402 C   0  0  0  0  0  0  0  0  0  0  0  0
  151.5238  144.4027  159.3648 N   0  0  0  0  0  0  0  0  0  0  0  0
  151.2335  144.1798  158.0825 C   0  0  0  0  0  0  0  0  0  0  0  0
  151.5714  142.9625  157.6104 N   0  0  0  0  0  0  0  0  0  0  0  0
  151.3614  142.4741  156.2566 C   0  0  0  0  0  0  0  0  0  0  0  0
  150.0894  141.6133  156.1267 C   0  0  1  0  0  0  0  0  0  0  0  0
  149.0661  142.3569  155.4917 O   0  0  0  0  0  0  0  0  0  0  0  0
  150.3825  140.3029  155.4125 C   0  0  0  0  0  0  0  0  0  0  0  0
  149.3321  139.4597  154.9862 C   0  0  0  0  0  0  0  0  0  0  0  0
  149.6171  138.2530  154.3177 C   0  0  0  0  0  0  0  0  0  0  0  0
  150.9530  137.8841  154.0682 C   0  0  0  0  0  0  0  0  0  0  0  0
  152.0035  138.7240  154.4852 C   0  0  0  0  0  0  0  0  0  0  0  0
  151.7190  139.9304  155.1541 C   0  0  0  0  0  0  0  0  0  0  0  0
  153.0488  143.4233  163.0191 H   0  0  0  0  0  0  0  0  0  0  0  0
  151.5402  144.0021  162.3258 H   0  0  0  0  0  0  0  0  0  0  0  0
  153.0785  144.6852  161.8009 H   0  0  0  0  0  0  0  0  0  0  0  0
  150.7548  144.9261  157.4655 H   0  0  0  0  0  0  0  0  0  0  0  0
  151.3074  143.3307  155.5833 H   0  0  0  0  0  0  0  0  0  0  0  0
  152.2417  141.9063  155.9540 H   0  0  0  0  0  0  0  0  0  0  0  0
  149.7182  141.3755  157.1240 H   0  0  0  0  0  0  0  0  0  0  0  0
  149.1197  143.2516  155.7911 H   0  0  0  0  0  0  0  0  0  0  0  0
  148.3036  139.7363  155.1673 H   0  0  0  0  0  0  0  0  0  0  0  0
  148.8107  137.6116  153.9946 H   0  0  0  0  0  0  0  0  0  0  0  0
  151.1714  136.9593  153.5547 H   0  0  0  0  0  0  0  0  0  0  0  0
  153.0282  138.4442  154.2906 H   0  0  0  0  0  0  0  0  0  0  0  0
  152.5311  140.5715  155.4656 H   0  0  0  0  0  0  0  0  0  0  0  0
  1  2  1  0  0  0  0
  1 22  1  0  0  0  0
  1 23  1  0  0  0  0
  1 24  1  0  0  0  0
  2  9  1  0  0  0  0
  2  3  1  0  0  0  0
  3  4  2  0  0  0  0
  3  5  1  0  0  0  0
  5  6  1  0  0  0  0
  6  7  2  0  0  0  0
  6  8  1  0  0  0  0
  8 12  1  0  0  0  0
  8  9  2  0  0  0  0
  9 10  1  0  0  0  0
 10 11  2  0  0  0  0
 11 12  1  0  0  0  0
 11 25  1  0  0  0  0
 12 13  1  0  0  0  0
 13 14  1  0  0  0  0
 13 26  1  0  0  0  0
 13 27  1  0  0  0  0
 14 15  1  0  0  0  0
 14 16  1  0  0  0  0
 14 28  1  0  0  0  0
 15 29  1  0  0  0  0
 16 21  1  0  0  0  0
 16 17  2  0  0  0  0
 17 18  1  0  0  0  0
 17 30  1  0  0  0  0
 18 19  2  0  0  0  0
 18 31  1  0  0  0  0
 19 20  1  0  0  0  0
 19 32  1  0  0  0  0
 20 21  2  0  0  0  0
 20 33  1  0  0  0  0
 21 34  1  0  0  0  0
M  CHG  1   5  -1
M  END
> <s_m_source_file>
AV-unprocessed.smi

> <i_m_source_file_index>
2556

> <i_lp_mmshare_version>
43012

> <i_f3d_flags>
0

> <s_epik_input>
Tz1jMVtuSF1jKD1PKW4oW0NIM10pYyhjMTIpbltjSF1uMltDSDJdW0NASF0oW09IXSljM1tjSF1bY0hdW2NIXVtjSF1bY0hdMw==

> <s_epik_cmdline>
J2VwaWtfcHl0aG9uJywgJy1waCcsICc3LjAnLCAnLXRuJywgJzgnLCAnLW1hJywgJzIwMCcsICctbWV0YWxfYmluZGluZycsICctaW1hZScsICc8aW5maWxlLm1hZT4nLCAnLW9tYWUnLCAnPG91dGZpbGUubWFlPic=

> <r_lp_tautomer_probability>
1

> <r_epik_Ionization_Penalty>
4.84872

> <r_epik_Ionization_Penalty_Charging>
0.03865

> <r_epik_Ionization_Penalty_Neutral>
4.81007

> <r_epik_State_Penalty>
4.80988

> <r_epik_Charging_Adjusted_Penalty>
4.84853

> <i_epik_Tot_Q>
-1

> <i_epik_Tot_abs_Q>
1

> <r_epik_Metal_State_Penalty>
0.994041

> <b_epik_Metal_Only>
1

> <s_lp_Force_Field>
OPLS_2005

> <r_lp_Energy>
31.8708

> <b_lp_Chiralities_Consistent>
1

> <s_lp_Variant>
AV-unprocessed.smi:2556-4

> <Gold.Version>
5.8.1

> <Gold.Id.Protein>
6NUR|6NUR_protein|mol2

> <Gold.PLP.Fitness>
50.1583

> <Gold.PLP.PLP>
-43.8651

> <Gold.PLP.part.hbond>
-2.4267

> <Gold.PLP.part.metal>
0.0000

> <Gold.PLP.part.buried>
-5.3444

> <Gold.PLP.part.nonpolar>
-36.1680

> <Gold.PLP.part.repulsive>
0.0760

> <Gold.PLP.ligand.clash>
0.0000

> <Gold.PLP.ligand.torsion>
1.2411

> <Gold.PLP.Chemscore.Hbond>
1.8720

> <Gold.PLP.Chemscore.CHOScore>
1.0446

> <Gold.PLP.Chemscore.Metal>
0.0000

> <Gold.Chemscore.Hbonds>
donor molecule, donor type, donor heavy atom, donor atom, acceptor molecule, acceptor atom, score
      L1  H    15    29       P1  8028  0.91
      P1  H  7997  8010       L1     7  0.87
      L1  C    11    25       P1  8028  0.92

> <Gold.PLP.Chemscore.Internal.Correction>
0.0258

> <Gold.Rescore>
     Score         DG    S(hbond)    S(metal)    S(lipo)     H(rot)  DE(clash)    DE(int)     intcor
     12.29     -13.84       1.72        0.00      72.14       2.28       0.54       1.00       ----

> <Gold.Chemscore.Fitness>
12.2947

> <Gold.Chemscore.DG>
-13.8376

> <Gold.Chemscore.ZeroCoef>
-5.4800

> <Gold.Chemscore.Hbond>
1.7247

> <Gold.Chemscore.Metal>
0.0000

> <Gold.Chemscore.Lipo>
72.1390

> <Gold.Chemscore.Internal_Hbond>
0.0000

> <Gold.Chemscore.DEClash>
0.5425

> <Gold.Chemscore.DEInternal>
1.0004

> <Gold.Chemscore.Rot>
2.2824

> <Gold.Chemscore.Internal.Correction>
   9.000000E+99

> <Gold.Chemscore.Hbonds>
donor molecule, donor type, donor heavy atom, donor atom, acceptor molecule, acceptor atom, score
      L1  H    15    29       P1  8028  0.84
      P1  H  7997  8010       L1     7  0.63

> <Gold.Chemscore.Hbond.Weighted>
-5.7605

> <Gold.Chemscore.Metal.Weighted>
-0.0000

> <Gold.Chemscore.Lipo.Weighted>
-8.4403

> <Gold.Chemscore.Internal_Hbond.Weighted>
0.0000

> <Gold.Chemscore.DEClash.Weighted>
0.5425

> <Gold.Chemscore.DEInternal.Weighted>
1.0004

> <Gold.Chemscore.Rot.Weighted>
5.8431

> <Gold.Chemscore.Internal.Correction.Weighted>
   9.000000E+99

> <Gold.Protein.RotatedTorsions>
[ 6907 6896 6895 6894 ] final  -36.81 input  -60.11 | X-H torsion
[ 7974 7965 7964 7962 ] final  -22.45 input  175.53 | X-H torsion
[ 8008 7997 7996 7995 ] final   33.44 input   59.86 | X-H torsion
[ 10167 10162 10161 10158 ] final   92.61 input  -65.29 | X-H torsion
[ 10718 10713 10712 10709 ] final  135.89 input   66.30 | X-H torsion
[ 10763 10752 10751 10750 ] final  -20.80 input  -60.55 | X-H torsion
[ 11005 11000 10999 10996 ] final -161.18 input  -57.11 | X-H torsion

> <Gold.Protein.ActiveResidues>
 VAL166  LYS551  ARG553  GLY616  TRP617  ASP618  TYR619  PRO620  LYS621  CYS622 
 ASP623  PHE694  ASN695  SER759  ASP760  ASP761  ALA762  ILE779  LEU786  VAL792 
 PHE793  MET794  SER795  GLU796  ALA797  LYS798  CYS799  TRP800  GLU811  SER814 

> <Gold.Protein.RotatedAtoms>
  151.0225  134.9479  159.8066 H   0  0  0  0  0  0  0  0  0  0  0  0  # atno 6907 bound_to 6896
  152.5328  134.2885  159.9044 H   0  0  0  0  0  0  0  0  0  0  0  0  # atno 6908 bound_to 6896
  151.2893  133.4131  159.2666 H   0  0  0  0  0  0  0  0  0  0  0  0  # atno 6909 bound_to 6896
  146.1674  140.4481  142.8546 H   0  0  0  0  0  0  0  0  0  0  0  0  # atno 7974 bound_to 7965
  155.1386  140.3264  155.4457 H   0  0  0  0  0  0  0  0  0  0  0  0  # atno 8008 bound_to 7997
  156.2612  140.1997  156.6452 H   0  0  0  0  0  0  0  0  0  0  0  0  # atno 8009 bound_to 7997
  154.6559  140.0553  156.9994 H   0  0  0  0  0  0  0  0  0  0  0  0  # atno 8010 bound_to 7997
  139.8260  144.6709  150.9459 H   0  0  0  0  0  0  0  0  0  0  0  0  # atno 10167 bound_to 10162
  157.4523  131.1067  151.0018 H   0  0  0  0  0  0  0  0  0  0  0  0  # atno 10718 bound_to 10713
  153.6261  135.6991  153.5292 H   0  0  0  0  0  0  0  0  0  0  0  0  # atno 10763 bound_to 10752
  153.2898  135.4160  155.1155 H   0  0  0  0  0  0  0  0  0  0  0  0  # atno 10764 bound_to 10752
  154.8532  135.3622  154.5803 H   0  0  0  0  0  0  0  0  0  0  0  0  # atno 10765 bound_to 10752
  140.6233  134.4728  157.5225 H   0  0  0  0  0  0  0  0  0  0  0  0  # atno 11005 bound_to 11000
  144.8113  140.6391  143.6413 LP  0  0  0  0  0  0  0  0  0  0  0  0  # atno 17320 bound_to 7965
  145.4430  139.1533  143.3960 LP  0  0  0  0  0  0  0  0  0  0  0  0  # atno 17321 bound_to 7965
  140.7810  143.4046  151.1092 LP  0  0  0  0  0  0  0  0  0  0  0  0  # atno 17342 bound_to 10162
  139.7703  143.8503  152.3119 LP  0  0  0  0  0  0  0  0  0  0  0  0  # atno 17343 bound_to 10162
  157.0844  130.5916  149.5427 LP  0  0  0  0  0  0  0  0  0  0  0  0  # atno 17370 bound_to 10713
  155.9992  130.5068  150.7600 LP  0  0  0  0  0  0  0  0  0  0  0  0  # atno 17371 bound_to 10713
  139.9145  134.8276  156.1414 LP  0  0  0  0  0  0  0  0  0  0  0  0  # atno 17394 bound_to 11000
  141.0727  133.6789  156.2173 LP  0  0  0  0  0  0  0  0  0  0  0  0  # atno 17395 bound_to 11000

$$$$
