AV-unprocessed.smi:3154|AV-procd|sdf|12023|dock7
  -GOLD-   2272017433D 1   1.00000     0.00000
 Structure written by MMmdl.
 34 35  0  0  0  0  0  0  0  0  1 V2000
  146.6101  138.8457  151.4109 C   0  0  0  0  0  0  0  0  0  0  0  0
  146.3971  138.1148  152.7469 C   0  0  2  0  0  0  0  0  0  0  0  0
  147.4609  138.4905  153.8105 C   0  0  0  0  0  0  0  0  0  0  0  0
  147.5924  139.9209  154.0382 N   0  0  0  0  0  0  0  0  0  0  0  0
  146.8028  140.9433  153.5540 C   0  0  0  0  0  0  0  0  0  0  0  0
  147.3090  142.1144  154.0404 C   0  0  0  0  0  0  0  0  0  0  0  0
  148.4199  141.7005  154.8275 C   0  0  0  0  0  0  0  0  0  0  0  0
  148.5834  140.3877  154.8287 N   0  0  0  0  0  0  0  0  0  0  0  0
  146.3632  136.6829  152.4585 N   0  0  0  0  0  0  0  0  0  0  0  0
  145.4569  136.3340  151.3551 C   0  0  0  0  0  0  0  0  0  0  0  0
  145.0441  134.8599  151.3796 C   0  0  0  0  0  0  0  0  0  0  0  0
  144.5183  134.3683  152.3794 O   0  0  0  0  0  0  0  0  0  0  0  0
  145.2914  134.1651  150.2593 N   0  0  0  0  0  0  0  0  0  0  0  0
  144.9929  132.7844  150.0555 C   0  0  0  0  0  0  0  0  0  0  0  0
  143.9343  132.4374  149.0312 C   0  0  0  0  0  0  0  0  0  0  0  0
  143.6332  132.2876  150.4969 C   0  0  0  0  0  0  0  0  0  0  0  0
  146.6511  139.9252  151.5588 H   0  0  0  0  0  0  0  0  0  0  0  0
  145.7936  138.6422  150.7173 H   0  0  0  0  0  0  0  0  0  0  0  0
  147.5373  138.5414  150.9241 H   0  0  0  0  0  0  0  0  0  0  0  0
  145.4164  138.4107  153.1227 H   0  0  0  0  0  0  0  0  0  0  0  0
  147.1891  138.0300  154.7612 H   0  0  0  0  0  0  0  0  0  0  0  0
  148.4404  138.0812  153.5637 H   0  0  0  0  0  0  0  0  0  0  0  0
  145.9582  140.7537  152.9078 H   0  0  0  0  0  0  0  0  0  0  0  0
  146.9417  143.1140  153.8614 H   0  0  0  0  0  0  0  0  0  0  0  0
  149.1062  142.3107  155.3960 H   0  0  0  0  0  0  0  0  0  0  0  0
  147.3036  136.3734  152.2588 H   0  0  0  0  0  0  0  0  0  0  0  0
  144.5471  136.9304  151.4091 H   0  0  0  0  0  0  0  0  0  0  0  0
  145.9397  136.5553  150.4019 H   0  0  0  0  0  0  0  0  0  0  0  0
  145.7220  134.6545  149.4883 H   0  0  0  0  0  0  0  0  0  0  0  0
  145.8133  132.0751  150.1574 H   0  0  0  0  0  0  0  0  0  0  0  0
  143.4513  133.2559  148.5006 H   0  0  0  0  0  0  0  0  0  0  0  0
  144.0766  131.5274  148.4518 H   0  0  0  0  0  0  0  0  0  0  0  0
  143.5741  131.2774  150.8968 H   0  0  0  0  0  0  0  0  0  0  0  0
  142.9480  133.0055  150.9440 H   0  0  0  0  0  0  0  0  0  0  0  0
  1  2  1  0  0  0  0
  1 17  1  0  0  0  0
  1 18  1  0  0  0  0
  1 19  1  0  0  0  0
  2  3  1  0  0  0  0
  2  9  1  0  0  0  0
  2 20  1  0  0  0  0
  3  4  1  0  0  0  0
  3 21  1  0  0  0  0
  3 22  1  0  0  0  0
  4  8  1  0  0  0  0
  4  5  1  0  0  0  0
  5  6  2  0  0  0  0
  5 23  1  0  0  0  0
  6  7  1  0  0  0  0
  6 24  1  0  0  0  0
  7  8  2  0  0  0  0
  7 25  1  0  0  0  0
  9 10  1  0  0  0  0
  9 26  1  0  0  0  0
 10 11  1  0  0  0  0
 10 27  1  0  0  0  0
 10 28  1  0  0  0  0
 11 12  2  0  0  0  0
 11 13  1  0  0  0  0
 13 14  1  0  0  0  0
 13 29  1  0  0  0  0
 14 16  1  0  0  0  0
 14 15  1  0  0  0  0
 14 30  1  0  0  0  0
 15 16  1  0  0  0  0
 15 31  1  0  0  0  0
 15 32  1  0  0  0  0
 16 33  1  0  0  0  0
 16 34  1  0  0  0  0
M  END
> <s_m_source_file>
AV-unprocessed.smi

> <i_m_source_file_index>
3154

> <i_lp_mmshare_version>
43012

> <i_f3d_flags>
0

> <s_epik_input>
bjFbY0hdW2NIXVtjSF1uMVtDSDJdW0NAQEhdKFtDSDNdKVtOSF1bQ0gyXUMoPU8pW05IXVtDSF0yW0NIMl1bQ0gyXTI=

> <s_epik_cmdline>
J2VwaWtfcHl0aG9uJywgJy1waCcsICc3LjAnLCAnLXRuJywgJzgnLCAnLW1hJywgJzIwMCcsICctbWV0YWxfYmluZGluZycsICctaW1hZScsICc8aW5maWxlLm1hZT4nLCAnLW9tYWUnLCAnPG91dGZpbGUubWFlPic=

> <r_lp_tautomer_probability>
1

> <r_epik_Ionization_Penalty>
1.00229

> <r_epik_Ionization_Penalty_Charging>
0

> <r_epik_Ionization_Penalty_Neutral>
1.00229

> <r_epik_State_Penalty>
1.0509

> <r_epik_Charging_Adjusted_Penalty>
1.0509

> <i_epik_Tot_Q>
0

> <i_epik_Tot_abs_Q>
0

> <r_epik_Metal_State_Penalty>
1.05084

> <b_epik_Metal_Only>
0

> <s_lp_Force_Field>
OPLS_2005

> <r_lp_Energy>
19.1763

> <b_lp_Chiralities_Consistent>
1

> <s_lp_Variant>
AV-unprocessed.smi:3154-3

> <Gold.Version>
5.8.1

> <Gold.Id.Protein>
6NUR|6NUR_protein|mol2

> <Gold.PLP.Fitness>
43.8392

> <Gold.PLP.PLP>
-32.9878

> <Gold.PLP.part.hbond>
-2.0000

> <Gold.PLP.part.metal>
0.0000

> <Gold.PLP.part.buried>
-1.4282

> <Gold.PLP.part.nonpolar>
-31.3237

> <Gold.PLP.part.repulsive>
0.2525

> <Gold.PLP.ligand.clash>
0.0000

> <Gold.PLP.ligand.torsion>
0.3441

> <Gold.PLP.Chemscore.Hbond>
2.0000

> <Gold.PLP.Chemscore.CHOScore>
1.8221

> <Gold.PLP.Chemscore.Metal>
0.0000

> <Gold.Chemscore.Hbonds>
donor molecule, donor type, donor heavy atom, donor atom, acceptor molecule, acceptor atom, score
      L1  H     9    26       P1  7948  1.00
      L1  H    13    29       P1  7921  1.00
      L1  C     5    23       P1 10175  1.00
      L1  C     7    25       P1  8028  0.87

> <Gold.PLP.Chemscore.Internal.Correction>
0.0734

> <Gold.Rescore>
     Score         DG    S(hbond)    S(metal)    S(lipo)     H(rot)  DE(clash)    DE(int)     intcor
     14.16     -16.04       1.88        0.00      83.10       2.12       0.21       1.67       ----

> <Gold.Chemscore.Fitness>
14.1568

> <Gold.Chemscore.DG>
-16.0353

> <Gold.Chemscore.ZeroCoef>
-5.4800

> <Gold.Chemscore.Hbond>
1.8761

> <Gold.Chemscore.Metal>
0.0000

> <Gold.Chemscore.Lipo>
83.1018

> <Gold.Chemscore.Internal_Hbond>
0.0000

> <Gold.Chemscore.DEClash>
0.2125

> <Gold.Chemscore.DEInternal>
1.6661

> <Gold.Chemscore.Rot>
2.1225

> <Gold.Chemscore.Internal.Correction>
   9.000000E+99

> <Gold.Chemscore.Hbonds>
donor molecule, donor type, donor heavy atom, donor atom, acceptor molecule, acceptor atom, score
      L1  H     9    26       P1  7948  1.00
      L1  H    13    29       P1  7921  0.85

> <Gold.Chemscore.Hbond.Weighted>
-6.2661

> <Gold.Chemscore.Metal.Weighted>
-0.0000

> <Gold.Chemscore.Lipo.Weighted>
-9.7229

> <Gold.Chemscore.Internal_Hbond.Weighted>
0.0000

> <Gold.Chemscore.DEClash.Weighted>
0.2125

> <Gold.Chemscore.DEInternal.Weighted>
1.6661

> <Gold.Chemscore.Rot.Weighted>
5.4337

> <Gold.Chemscore.Internal.Correction.Weighted>
   9.000000E+99

> <Gold.Protein.RotatedTorsions>
[ 6907 6896 6895 6894 ] final  -72.81 input  -60.11 | X-H torsion
[ 7974 7965 7964 7962 ] final  150.95 input  175.53 | X-H torsion
[ 8008 7997 7996 7995 ] final  107.48 input   59.86 | X-H torsion
[ 10167 10162 10161 10158 ] final  -82.50 input  -65.29 | X-H torsion
[ 10718 10713 10712 10709 ] final -161.21 input   66.30 | X-H torsion
[ 10763 10752 10751 10750 ] final  169.21 input  -60.55 | X-H torsion
[ 11005 11000 10999 10996 ] final  -90.62 input  -57.11 | X-H torsion

> <Gold.Protein.ActiveResidues>
 VAL166  LYS551  ARG553  GLY616  TRP617  ASP618  TYR619  PRO620  LYS621  CYS622 
 ASP623  PHE694  ASN695  SER759  ASP760  ASP761  ALA762  ILE779  LEU786  VAL792 
 PHE793  MET794  SER795  GLU796  ALA797  LYS798  CYS799  TRP800  GLU811  SER814 

> <Gold.Protein.RotatedAtoms>
  150.7155  134.5108  159.5606 H   0  0  0  0  0  0  0  0  0  0  0  0  # atno 6907 bound_to 6896
  152.2685  134.7955  160.0427 H   0  0  0  0  0  0  0  0  0  0  0  0  # atno 6908 bound_to 6896
  151.8644  133.3428  159.3751 H   0  0  0  0  0  0  0  0  0  0  0  0  # atno 6909 bound_to 6896
  144.8327  139.6474  143.6051 H   0  0  0  0  0  0  0  0  0  0  0  0  # atno 7974 bound_to 7965
  156.1827  140.3094  155.9180 H   0  0  0  0  0  0  0  0  0  0  0  0  # atno 8008 bound_to 7997
  155.3348  140.0462  157.3060 H   0  0  0  0  0  0  0  0  0  0  0  0  # atno 8009 bound_to 7997
  154.5361  140.2246  155.8730 H   0  0  0  0  0  0  0  0  0  0  0  0  # atno 8010 bound_to 7997
  140.4314  143.2547  151.8754 H   0  0  0  0  0  0  0  0  0  0  0  0  # atno 10167 bound_to 10162
  156.5930  130.8778  151.2895 H   0  0  0  0  0  0  0  0  0  0  0  0  # atno 10718 bound_to 10713
  154.3798  135.2753  155.2218 H   0  0  0  0  0  0  0  0  0  0  0  0  # atno 10763 bound_to 10752
  154.4329  135.5973  153.6084 H   0  0  0  0  0  0  0  0  0  0  0  0  # atno 10764 bound_to 10752
  152.9835  135.6000  154.4040 H   0  0  0  0  0  0  0  0  0  0  0  0  # atno 10765 bound_to 10752
  141.1562  133.7704  156.9764 H   0  0  0  0  0  0  0  0  0  0  0  0  # atno 11005 bound_to 11000
  146.2629  139.6452  142.9349 LP  0  0  0  0  0  0  0  0  0  0  0  0  # atno 17320 bound_to 7965
  145.4860  141.0438  143.2619 LP  0  0  0  0  0  0  0  0  0  0  0  0  # atno 17321 bound_to 7965
  139.4785  144.5330  151.8639 LP  0  0  0  0  0  0  0  0  0  0  0  0  # atno 17342 bound_to 10162
  140.4423  144.1970  150.5892 LP  0  0  0  0  0  0  0  0  0  0  0  0  # atno 17343 bound_to 10162
  157.7299  130.9677  150.1807 LP  0  0  0  0  0  0  0  0  0  0  0  0  # atno 17370 bound_to 10713
  156.2533  130.3703  149.8208 LP  0  0  0  0  0  0  0  0  0  0  0  0  # atno 17371 bound_to 10713
  140.1095  134.9485  157.2044 LP  0  0  0  0  0  0  0  0  0  0  0  0  # atno 17394 bound_to 11000
  140.3212  134.2914  155.7246 LP  0  0  0  0  0  0  0  0  0  0  0  0  # atno 17395 bound_to 11000

$$$$
