AV-unprocessed.smi:282|AV-procd|sdf|2118|dock3
  -GOLD-   2262021413D 1   1.00000     0.00000
 Structure written by MMmdl.
 65 69  0  0  0  0  0  0  0  0  2 V2000
  151.4389  138.9173  154.7952 C   0  0  0  0  0  0  0  0  0  0  0  0
  150.2929  138.8488  155.8140 C   0  0  0  0  0  0  0  0  0  0  0  0
  150.3379  139.9585  156.8982 C   0  0  1  0  0  0  0  0  0  0  0  0
  151.7046  139.9701  157.6226 C   0  0  0  0  0  0  0  0  0  0  0  0
  151.8070  141.0655  158.6188 N   0  3  1  0  0  0  0  0  0  0  0  0
  153.1038  141.0355  159.3437 C   0  0  0  0  0  0  0  0  0  0  0  0
  153.1570  142.1092  160.4417 C   0  0  0  0  0  0  0  0  0  0  0  0
  152.8924  143.5007  159.8554 C   0  0  0  0  0  0  0  0  0  0  0  0
  151.5570  143.5018  159.1014 C   0  0  0  0  0  0  0  0  0  0  0  0
  151.5180  142.4000  158.0237 C   0  0  2  0  0  0  0  0  0  0  0  0
  150.1549  142.3850  157.3127 C   0  0  0  0  0  0  0  0  0  0  0  0
  150.0652  141.2937  156.3490 N   0  0  0  0  0  0  0  0  0  0  0  0
  148.9499  141.4211  155.5953 C   0  0  0  0  0  0  0  0  0  0  0  0
  149.0368  141.0426  154.2971 N   0  0  0  0  0  0  0  0  0  0  0  0
  147.9669  141.1386  153.5021 C   0  0  0  0  0  0  0  0  0  0  0  0
  146.7423  141.5780  153.8002 N   0  0  0  0  0  0  0  0  0  0  0  0
  146.6538  141.9633  155.1057 C   0  0  0  0  0  0  0  0  0  0  0  0
  147.7045  141.9260  156.0646 C   0  0  0  0  0  0  0  0  0  0  0  0
  147.2528  142.4146  157.2838 N   0  0  0  0  0  0  0  0  0  0  0  0
  146.0046  142.7215  157.0584 C   0  0  0  0  0  0  0  0  0  0  0  0
  145.5542  142.4633  155.7825 N   0  0  0  0  0  0  0  0  0  0  0  0
  144.2145  142.7089  155.2656 C   0  0  0  0  0  0  0  0  0  0  0  0
  143.7972  144.2127  155.1965 C   0  0  0  0  0  0  0  0  0  0  0  0
  144.5952  144.9647  154.0978 C   0  0  0  0  0  0  0  0  0  0  0  0
  144.0213  144.8064  152.8153 O   0  0  0  0  0  0  0  0  0  0  0  0
  142.2822  144.3334  154.8952 C   0  0  0  0  0  0  0  0  0  0  0  0
  141.3992  143.9217  156.0874 C   0  0  0  0  0  0  0  0  0  0  0  0
  141.7371  144.6936  157.2323 O   0  0  0  0  0  0  0  0  0  0  0  0
  143.0804  144.4946  157.6523 C   0  0  0  0  0  0  0  0  0  0  0  0
  144.0479  144.9413  156.5411 C   0  0  0  0  0  0  0  0  0  0  0  0
  151.4063  138.0580  154.1248 H   0  0  0  0  0  0  0  0  0  0  0  0
  152.4090  138.9108  155.2927 H   0  0  0  0  0  0  0  0  0  0  0  0
  151.3811  139.8109  154.1747 H   0  0  0  0  0  0  0  0  0  0  0  0
  149.3365  138.8806  155.2905 H   0  0  0  0  0  0  0  0  0  0  0  0
  150.3475  137.8633  156.2765 H   0  0  0  0  0  0  0  0  0  0  0  0
  149.5703  139.7428  157.6419 H   0  0  0  0  0  0  0  0  0  0  0  0
  151.8649  139.0239  158.1390 H   0  0  0  0  0  0  0  0  0  0  0  0
  152.5100  140.0750  156.8934 H   0  0  0  0  0  0  0  0  0  0  0  0
  153.2494  140.0519  159.7919 H   0  0  0  0  0  0  0  0  0  0  0  0
  153.9207  141.1848  158.6357 H   0  0  0  0  0  0  0  0  0  0  0  0
  152.4162  141.8864  161.2108 H   0  0  0  0  0  0  0  0  0  0  0  0
  154.1299  142.0917  160.9338 H   0  0  0  0  0  0  0  0  0  0  0  0
  152.8786  144.2484  160.6488 H   0  0  0  0  0  0  0  0  0  0  0  0
  153.7008  143.7776  159.1774 H   0  0  0  0  0  0  0  0  0  0  0  0
  150.7412  143.3552  159.8108 H   0  0  0  0  0  0  0  0  0  0  0  0
  151.3950  144.4783  158.6438 H   0  0  0  0  0  0  0  0  0  0  0  0
  152.2910  142.6109  157.2821 H   0  0  0  0  0  0  0  0  0  0  0  0
  149.3557  142.2783  158.0480 H   0  0  0  0  0  0  0  0  0  0  0  0
  149.9955  143.3394  156.8077 H   0  0  0  0  0  0  0  0  0  0  0  0
  148.1114  140.8152  152.4819 H   0  0  0  0  0  0  0  0  0  0  0  0
  145.3709  143.1433  157.8249 H   0  0  0  0  0  0  0  0  0  0  0  0
  144.1596  142.2624  154.2721 H   0  0  0  0  0  0  0  0  0  0  0  0
  143.5169  142.1341  155.8731 H   0  0  0  0  0  0  0  0  0  0  0  0
  144.6309  146.0327  154.3156 H   0  0  0  0  0  0  0  0  0  0  0  0
  145.6318  144.6296  154.0636 H   0  0  0  0  0  0  0  0  0  0  0  0
  143.8213  143.8919  152.6868 H   0  0  0  0  0  0  0  0  0  0  0  0
  142.0421  145.3662  154.6392 H   0  0  0  0  0  0  0  0  0  0  0  0
  142.0172  143.7384  154.0205 H   0  0  0  0  0  0  0  0  0  0  0  0
  140.3506  144.0987  155.8480 H   0  0  0  0  0  0  0  0  0  0  0  0
  141.4917  142.8581  156.3080 H   0  0  0  0  0  0  0  0  0  0  0  0
  143.2538  145.0849  158.5522 H   0  0  0  0  0  0  0  0  0  0  0  0
  143.2350  143.4521  157.9301 H   0  0  0  0  0  0  0  0  0  0  0  0
  145.0797  144.8175  156.8684 H   0  0  0  0  0  0  0  0  0  0  0  0
  143.9149  146.0150  156.4009 H   0  0  0  0  0  0  0  0  0  0  0  0
  151.0864  140.8964  159.3060 H   0  0  0  0  0  0  0  0  0  0  0  0
  1  2  1  0  0  0  0
  1 31  1  0  0  0  0
  1 32  1  0  0  0  0
  1 33  1  0  0  0  0
  2  3  1  0  0  0  0
  2 34  1  0  0  0  0
  2 35  1  0  0  0  0
  3 12  1  0  0  0  0
  3  4  1  0  0  0  0
  3 36  1  0  0  0  0
  4  5  1  0  0  0  0
  4 37  1  0  0  0  0
  4 38  1  0  0  0  0
  5 10  1  0  0  0  0
  5  6  1  0  0  0  0
  5 65  1  0  0  0  0
  6  7  1  0  0  0  0
  6 39  1  0  0  0  0
  6 40  1  0  0  0  0
  7  8  1  0  0  0  0
  7 41  1  0  0  0  0
  7 42  1  0  0  0  0
  8  9  1  0  0  0  0
  8 43  1  0  0  0  0
  8 44  1  0  0  0  0
  9 10  1  0  0  0  0
  9 45  1  0  0  0  0
  9 46  1  0  0  0  0
 10 11  1  0  0  0  0
 10 47  1  0  0  0  0
 11 12  1  0  0  0  0
 11 48  1  0  0  0  0
 11 49  1  0  0  0  0
 12 13  1  0  0  0  0
 13 18  1  0  0  0  0
 13 14  2  0  0  0  0
 14 15  1  0  0  0  0
 15 16  2  0  0  0  0
 15 50  1  0  0  0  0
 16 17  1  0  0  0  0
 17 21  1  0  0  0  0
 17 18  2  0  0  0  0
 18 19  1  0  0  0  0
 19 20  2  0  0  0  0
 20 21  1  0  0  0  0
 20 51  1  0  0  0  0
 21 22  1  0  0  0  0
 22 23  1  0  0  0  0
 22 52  1  0  0  0  0
 22 53  1  0  0  0  0
 23 30  1  0  0  0  0
 23 24  1  0  0  0  0
 23 26  1  0  0  0  0
 24 25  1  0  0  0  0
 24 54  1  0  0  0  0
 24 55  1  0  0  0  0
 25 56  1  0  0  0  0
 26 27  1  0  0  0  0
 26 57  1  0  0  0  0
 26 58  1  0  0  0  0
 27 28  1  0  0  0  0
 27 59  1  0  0  0  0
 27 60  1  0  0  0  0
 28 29  1  0  0  0  0
 29 30  1  0  0  0  0
 29 61  1  0  0  0  0
 29 62  1  0  0  0  0
 30 63  1  0  0  0  0
 30 64  1  0  0  0  0
M  CHG  1   5   1
M  END
> <s_m_source_file>
AV-unprocessed.smi

> <i_m_source_file_index>
282

> <i_lp_mmshare_version>
43012

> <i_f3d_flags>
0

> <s_epik_input>
W0NIMl0xW0NIMl1bQ0gyXVtDSDJdW0NAQEhdKE4xMilbQ0gyXU4oW0NAQEhdKFtDSDJdMilbQ0gyXVtDSDNdKWMobltjSF1uMyljKGMzNCluW2NIXW40W0NIMl1DNShbQ0gyXVtPSF0pW0NIMl1bQ0gyXU9bQ0gyXVtDSDJdNQ==

> <s_epik_cmdline>
J2VwaWtfcHl0aG9uJywgJy1waCcsICc3LjAnLCAnLXRuJywgJzgnLCAnLW1hJywgJzIwMCcsICctbWV0YWxfYmluZGluZycsICctaW1hZScsICc8aW5maWxlLm1hZT4nLCAnLW9tYWUnLCAnPG91dGZpbGUubWFlPic=

> <r_lp_tautomer_probability>
1

> <r_epik_Ionization_Penalty>
0.00308583

> <r_epik_Ionization_Penalty_Charging>
0.00300384

> <r_epik_Ionization_Penalty_Neutral>
8.19894e-05

> <r_epik_State_Penalty>
-0

> <r_epik_Charging_Adjusted_Penalty>
0.00300384

> <i_epik_Tot_Q>
1

> <i_epik_Tot_abs_Q>
1

> <r_epik_Metal_State_Penalty>
-0

> <b_epik_Metal_Only>
0

> <s_lp_Force_Field>
OPLS_2005

> <r_lp_Energy>
55.6254

> <b_lp_Chiralities_Consistent>
1

> <s_lp_Variant>
AV-unprocessed.smi:282-2

> <Gold.Version>
5.8.1

> <Gold.Id.Protein>
6NUR|6NUR_protein|mol2

> <Gold.PLP.Fitness>
46.5801

> <Gold.PLP.PLP>
-42.6813

> <Gold.PLP.part.hbond>
-2.0000

> <Gold.PLP.part.metal>
0.0000

> <Gold.PLP.part.buried>
-5.9581

> <Gold.PLP.part.nonpolar>
-34.9688

> <Gold.PLP.part.repulsive>
0.6764

> <Gold.PLP.ligand.clash>
0.0000

> <Gold.PLP.ligand.torsion>
1.1845

> <Gold.PLP.Chemscore.Hbond>
1.0000

> <Gold.PLP.Chemscore.CHOScore>
1.0000

> <Gold.PLP.Chemscore.Metal>
0.0000

> <Gold.Chemscore.Hbonds>
donor molecule, donor type, donor heavy atom, donor atom, acceptor molecule, acceptor atom, score
      L1  H    25    56       P1 10174  1.00
      L1  C    15    50       P1  7957  1.00

> <Gold.PLP.Chemscore.Internal.Correction>
0.2677

> <Gold.Rescore>
     Score         DG    S(hbond)    S(metal)    S(lipo)     H(rot)  DE(clash)    DE(int)     intcor
     11.46     -14.27       0.91        0.00     102.98       2.46       1.05       1.76       ----

> <Gold.Chemscore.Fitness>
11.4597

> <Gold.Chemscore.DG>
-14.2696

> <Gold.Chemscore.ZeroCoef>
-5.4800

> <Gold.Chemscore.Hbond>
0.9079

> <Gold.Chemscore.Metal>
0.0000

> <Gold.Chemscore.Lipo>
102.9802

> <Gold.Chemscore.Internal_Hbond>
0.0000

> <Gold.Chemscore.DEClash>
1.0469

> <Gold.Chemscore.DEInternal>
1.7629

> <Gold.Chemscore.Rot>
2.4576

> <Gold.Chemscore.Internal.Correction>
   9.000000E+99

> <Gold.Chemscore.Hbonds>
donor molecule, donor type, donor heavy atom, donor atom, acceptor molecule, acceptor atom, score
      L1  H    25    56       P1 10174  0.72

> <Gold.Chemscore.Hbond.Weighted>
-3.0324

> <Gold.Chemscore.Metal.Weighted>
-0.0000

> <Gold.Chemscore.Lipo.Weighted>
-12.0487

> <Gold.Chemscore.Internal_Hbond.Weighted>
0.0000

> <Gold.Chemscore.DEClash.Weighted>
1.0469

> <Gold.Chemscore.DEInternal.Weighted>
1.7629

> <Gold.Chemscore.Rot.Weighted>
6.2915

> <Gold.Chemscore.Internal.Correction.Weighted>
   9.000000E+99

> <Gold.Protein.RotatedTorsions>
[ 6907 6896 6895 6894 ] final   26.31 input  -60.11 | X-H torsion
[ 7974 7965 7964 7962 ] final  -75.21 input  175.53 | X-H torsion
[ 8008 7997 7996 7995 ] final  -89.35 input   59.86 | X-H torsion
[ 10167 10162 10161 10158 ] final  -75.75 input  -65.29 | X-H torsion
[ 10718 10713 10712 10709 ] final  170.25 input   66.30 | X-H torsion
[ 10763 10752 10751 10750 ] final  -57.62 input  -60.55 | X-H torsion
[ 11005 11000 10999 10996 ] final -103.69 input  -57.11 | X-H torsion

> <Gold.Protein.ActiveResidues>
 VAL166  LYS551  ARG553  GLY616  TRP617  ASP618  TYR619  PRO620  LYS621  CYS622 
 ASP623  PHE694  ASN695  SER759  ASP760  ASP761  ALA762  ILE779  LEU786  VAL792 
 PHE793  MET794  SER795  GLU796  ALA797  LYS798  CYS799  TRP800  GLU811  SER814 

> <Gold.Protein.RotatedAtoms>
  151.9856  135.0006  160.0559 H   0  0  0  0  0  0  0  0  0  0  0  0  # atno 6907 bound_to 6896
  152.1656  133.4605  159.4891 H   0  0  0  0  0  0  0  0  0  0  0  0  # atno 6908 bound_to 6896
  150.6894  134.1935  159.4337 H   0  0  0  0  0  0  0  0  0  0  0  0  # atno 6909 bound_to 6896
  145.6290  140.9343  143.1097 H   0  0  0  0  0  0  0  0  0  0  0  0  # atno 7974 bound_to 7965
  154.6855  140.0543  157.0310 H   0  0  0  0  0  0  0  0  0  0  0  0  # atno 8008 bound_to 7997
  155.0890  140.3217  155.4560 H   0  0  0  0  0  0  0  0  0  0  0  0  # atno 8009 bound_to 7997
  156.2710  140.2051  156.6018 H   0  0  0  0  0  0  0  0  0  0  0  0  # atno 8010 bound_to 7997
  140.4915  143.2379  151.7898 H   0  0  0  0  0  0  0  0  0  0  0  0  # atno 10167 bound_to 10162
  157.0109  131.0204  151.2803 H   0  0  0  0  0  0  0  0  0  0  0  0  # atno 10718 bound_to 10713
  154.2252  135.6370  153.5157 H   0  0  0  0  0  0  0  0  0  0  0  0  # atno 10763 bound_to 10752
  152.9960  135.5506  154.6071 H   0  0  0  0  0  0  0  0  0  0  0  0  # atno 10764 bound_to 10752
  154.5541  135.2904  155.0955 H   0  0  0  0  0  0  0  0  0  0  0  0  # atno 10765 bound_to 10752
  141.1134  133.8661  157.1517 H   0  0  0  0  0  0  0  0  0  0  0  0  # atno 11005 bound_to 11000
  144.7201  139.8060  143.7385 LP  0  0  0  0  0  0  0  0  0  0  0  0  # atno 17320 bound_to 7965
  146.1371  139.4419  143.0132 LP  0  0  0  0  0  0  0  0  0  0  0  0  # atno 17321 bound_to 7965
  139.4852  144.4642  151.9504 LP  0  0  0  0  0  0  0  0  0  0  0  0  # atno 17342 bound_to 10162
  140.3729  144.2833  150.5917 LP  0  0  0  0  0  0  0  0  0  0  0  0  # atno 17343 bound_to 10162
  157.5321  130.8065  149.7929 LP  0  0  0  0  0  0  0  0  0  0  0  0  # atno 17370 bound_to 10713
  156.0136  130.3822  150.2182 LP  0  0  0  0  0  0  0  0  0  0  0  0  # atno 17371 bound_to 10713
  140.0042  135.0015  157.0256 LP  0  0  0  0  0  0  0  0  0  0  0  0  # atno 17394 bound_to 11000
  140.4712  134.1385  155.7203 LP  0  0  0  0  0  0  0  0  0  0  0  0  # atno 17395 bound_to 11000

$$$$
