AV-unprocessed.smi:912|AV-procd|sdf|4143|dock6
  -GOLD-   22720 2 53D 1   1.00000     0.00000
 Structure written by MMmdl.
 27 27  0  0  0  0  0  0  0  0  2 V2000
  146.5348  138.5296  152.0975 C   0  0  0  0  0  0  0  0  0  0  0  0
  146.4901  137.1142  151.6612 N   0  3  0  0  0  0  0  0  0  0  0  0
  145.5486  136.1913  152.3597 C   0  0  2  0  0  0  0  0  0  0  0  0
  144.1671  136.8752  152.5343 C   0  0  0  0  0  0  0  0  0  0  0  0
  146.1769  135.8169  153.7267 C   0  0  0  0  0  0  0  0  0  0  0  0
  147.4689  135.4681  153.7472 N   0  0  0  0  0  0  0  0  0  0  0  0
  145.5121  135.8548  154.7604 O   0  0  0  0  0  0  0  0  0  0  0  0
  145.3599  134.8981  151.5381 C   0  0  0  0  0  0  0  0  0  0  0  0
  144.0983  134.4863  151.0371 C   0  0  0  0  0  0  0  0  0  0  0  0
  144.0125  133.2885  150.2990 C   0  0  0  0  0  0  0  0  0  0  0  0
  145.0732  132.4982  150.0380 N   0  0  0  0  0  0  0  0  0  0  0  0
  146.2746  132.8835  150.5130 C   0  0  0  0  0  0  0  0  0  0  0  0
  146.4686  134.0616  151.2603 C   0  0  0  0  0  0  0  0  0  0  0  0
  147.3345  139.0442  151.5650 H   0  0  0  0  0  0  0  0  0  0  0  0
  146.7349  138.6244  153.1649 H   0  0  0  0  0  0  0  0  0  0  0  0
  145.6055  139.0498  151.8663 H   0  0  0  0  0  0  0  0  0  0  0  0
  146.2499  137.1077  150.6802 H   0  0  0  0  0  0  0  0  0  0  0  0
  143.4433  136.2174  153.0164 H   0  0  0  0  0  0  0  0  0  0  0  0
  143.7479  137.1625  151.5694 H   0  0  0  0  0  0  0  0  0  0  0  0
  144.2179  137.7738  153.1497 H   0  0  0  0  0  0  0  0  0  0  0  0
  147.9249  135.2434  154.6197 H   0  0  0  0  0  0  0  0  0  0  0  0
  147.9952  135.4575  152.8847 H   0  0  0  0  0  0  0  0  0  0  0  0
  143.1955  135.0550  151.1981 H   0  0  0  0  0  0  0  0  0  0  0  0
  143.0624  132.9568  149.9070 H   0  0  0  0  0  0  0  0  0  0  0  0
  147.1086  132.2344  150.2905 H   0  0  0  0  0  0  0  0  0  0  0  0
  147.4596  134.3141  151.6081 H   0  0  0  0  0  0  0  0  0  0  0  0
  147.4181  136.7285  151.7598 H   0  0  0  0  0  0  0  0  0  0  0  0
  1  2  1  0  0  0  0
  1 14  1  0  0  0  0
  1 15  1  0  0  0  0
  1 16  1  0  0  0  0
  2  3  1  0  0  0  0
  2 17  1  0  0  0  0
  2 27  1  0  0  0  0
  3  4  1  0  0  0  0
  3  5  1  0  0  0  0
  3  8  1  0  0  0  0
  4 18  1  0  0  0  0
  4 19  1  0  0  0  0
  4 20  1  0  0  0  0
  5  6  1  0  0  0  0
  5  7  2  0  0  0  0
  6 21  1  0  0  0  0
  6 22  1  0  0  0  0
  8 13  1  0  0  0  0
  8  9  2  0  0  0  0
  9 10  1  0  0  0  0
  9 23  1  0  0  0  0
 10 11  2  0  0  0  0
 10 24  1  0  0  0  0
 11 12  1  0  0  0  0
 12 13  2  0  0  0  0
 12 25  1  0  0  0  0
 13 26  1  0  0  0  0
M  CHG  1   2   1
M  END
> <s_m_source_file>
AV-unprocessed.smi

> <i_m_source_file_index>
912

> <i_lp_mmshare_version>
43012

> <i_f3d_flags>
0

> <s_epik_input>
W0NIM11bTkhdW0NAQF0oW0NIM10pKEMoPU8pW05IMl0pYzFbY0hdW2NIXW5bY0hdW2NIXTE=

> <s_epik_cmdline>
J2VwaWtfcHl0aG9uJywgJy1waCcsICc3LjAnLCAnLXRuJywgJzgnLCAnLW1hJywgJzIwMCcsICctbWV0YWxfYmluZGluZycsICctaW1hZScsICc8aW5maWxlLm1hZT4nLCAnLW9tYWUnLCAnPG91dGZpbGUubWFlPic=

> <r_epik_Ionization_Penalty>
0.8426

> <r_epik_Ionization_Penalty_Charging>
0.842363

> <r_epik_Ionization_Penalty_Neutral>
0.000236815

> <r_epik_State_Penalty>
0.498415

> <r_epik_Charging_Adjusted_Penalty>
1.34078

> <i_epik_Tot_Q>
1

> <i_epik_Tot_abs_Q>
1

> <r_epik_Metal_State_Penalty>
0.661775

> <b_epik_Metal_Only>
0

> <s_lp_Force_Field>
OPLS_2005

> <r_lp_Energy>
11.5286

> <b_lp_Chiralities_Consistent>
1

> <s_lp_Variant>
AV-unprocessed.smi:912-4

> <Gold.Version>
5.8.1

> <Gold.Id.Protein>
6NUR|6NUR_protein|mol2

> <Gold.PLP.Fitness>
35.6513

> <Gold.PLP.PLP>
-22.1901

> <Gold.PLP.part.hbond>
-1.9455

> <Gold.PLP.part.metal>
0.0000

> <Gold.PLP.part.buried>
-3.6159

> <Gold.PLP.part.nonpolar>
-17.9590

> <Gold.PLP.part.repulsive>
0.2543

> <Gold.PLP.ligand.clash>
0.0000

> <Gold.PLP.ligand.torsion>
0.6427

> <Gold.PLP.Chemscore.Hbond>
2.9920

> <Gold.PLP.Chemscore.CHOScore>
1.9206

> <Gold.PLP.Chemscore.Metal>
0.0000

> <Gold.Chemscore.Hbonds>
donor molecule, donor type, donor heavy atom, donor atom, acceptor molecule, acceptor atom, score
      L1  H     2    27       P1  7948  2.00
      L1  H     6    22       P1  7948  0.99
      L1  C    10    24       P1 10186  0.88
      L1  C    12    25       P1 10747  1.00

> <Gold.PLP.Chemscore.Internal.Correction>
0.0087

> <Gold.Rescore>
     Score         DG    S(hbond)    S(metal)    S(lipo)     H(rot)  DE(clash)    DE(int)     intcor
     12.65     -13.54       1.99        0.00      52.06       1.83       0.05       0.84       ----

> <Gold.Chemscore.Fitness>
12.6479

> <Gold.Chemscore.DG>
-13.5436

> <Gold.Chemscore.ZeroCoef>
-5.4800

> <Gold.Chemscore.Hbond>
1.9908

> <Gold.Chemscore.Metal>
0.0000

> <Gold.Chemscore.Lipo>
52.0624

> <Gold.Chemscore.Internal_Hbond>
0.0000

> <Gold.Chemscore.DEClash>
0.0524

> <Gold.Chemscore.DEInternal>
0.8433

> <Gold.Chemscore.Rot>
1.8270

> <Gold.Chemscore.Internal.Correction>
   9.000000E+99

> <Gold.Chemscore.Hbonds>
donor molecule, donor type, donor heavy atom, donor atom, acceptor molecule, acceptor atom, score
      L1  H     2    27       P1  7948  0.98
      L1  H     6    22       P1  7948  0.92

> <Gold.Chemscore.Hbond.Weighted>
-6.6494

> <Gold.Chemscore.Metal.Weighted>
-0.0000

> <Gold.Chemscore.Lipo.Weighted>
-6.0913

> <Gold.Chemscore.Internal_Hbond.Weighted>
0.0000

> <Gold.Chemscore.DEClash.Weighted>
0.0524

> <Gold.Chemscore.DEInternal.Weighted>
0.8433

> <Gold.Chemscore.Rot.Weighted>
4.6771

> <Gold.Chemscore.Internal.Correction.Weighted>
   9.000000E+99

> <Gold.Protein.RotatedTorsions>
[ 6907 6896 6895 6894 ] final   26.47 input  -60.11 | X-H torsion
[ 7974 7965 7964 7962 ] final   36.73 input  175.53 | X-H torsion
[ 8008 7997 7996 7995 ] final -172.64 input   59.86 | X-H torsion
[ 10167 10162 10161 10158 ] final  -14.68 input  -65.29 | X-H torsion
[ 10718 10713 10712 10709 ] final -100.27 input   66.30 | X-H torsion
[ 10763 10752 10751 10750 ] final -163.97 input  -60.55 | X-H torsion
[ 11005 11000 10999 10996 ] final   22.54 input  -57.11 | X-H torsion

> <Gold.Protein.ActiveResidues>
 VAL166  LYS551  ARG553  GLY616  TRP617  ASP618  TYR619  PRO620  LYS621  CYS622 
 ASP623  PHE694  ASN695  SER759  ASP760  ASP761  ALA762  ILE779  LEU786  VAL792 
 PHE793  MET794  SER795  GLU796  ALA797  LYS798  CYS799  TRP800  GLU811  SER814 

> <Gold.Protein.RotatedAtoms>
  151.9879  134.9995  160.0560 H   0  0  0  0  0  0  0  0  0  0  0  0  # atno 6907 bound_to 6896
  152.1636  133.4593  159.4881 H   0  0  0  0  0  0  0  0  0  0  0  0  # atno 6908 bound_to 6896
  150.6891  134.1959  159.4346 H   0  0  0  0  0  0  0  0  0  0  0  0  # atno 6909 bound_to 6896
  146.1190  139.5981  142.9302 H   0  0  0  0  0  0  0  0  0  0  0  0  # atno 7974 bound_to 7965
  155.9471  140.1119  157.1007 H   0  0  0  0  0  0  0  0  0  0  0  0  # atno 8008 bound_to 7997
  154.4101  140.1207  156.5070 H   0  0  0  0  0  0  0  0  0  0  0  0  # atno 8009 bound_to 7997
  155.6889  140.3472  155.4887 H   0  0  0  0  0  0  0  0  0  0  0  0  # atno 8010 bound_to 7997
  140.7205  143.5296  150.9535 H   0  0  0  0  0  0  0  0  0  0  0  0  # atno 10167 bound_to 10162
  156.0158  130.5320  150.6793 H   0  0  0  0  0  0  0  0  0  0  0  0  # atno 10718 bound_to 10713
  154.7072  135.2999  154.9252 H   0  0  0  0  0  0  0  0  0  0  0  0  # atno 10763 bound_to 10752
  154.0165  135.6688  153.4773 H   0  0  0  0  0  0  0  0  0  0  0  0  # atno 10764 bound_to 10752
  153.0726  135.5052  154.8250 H   0  0  0  0  0  0  0  0  0  0  0  0  # atno 10765 bound_to 10752
  140.3795  134.1936  155.7664 H   0  0  0  0  0  0  0  0  0  0  0  0  # atno 11005 bound_to 11000
  145.5507  141.0413  143.2280 LP  0  0  0  0  0  0  0  0  0  0  0  0  # atno 17320 bound_to 7965
  144.7579  139.7029  143.7246 LP  0  0  0  0  0  0  0  0  0  0  0  0  # atno 17321 bound_to 7965
  139.9016  143.6829  152.3130 LP  0  0  0  0  0  0  0  0  0  0  0  0  # atno 17342 bound_to 10162
  139.7180  144.7608  151.1001 LP  0  0  0  0  0  0  0  0  0  0  0  0  # atno 17343 bound_to 10162
  157.4499  131.0871  151.0857 LP  0  0  0  0  0  0  0  0  0  0  0  0  # atno 17370 bound_to 10713
  157.1376  130.6129  149.5546 LP  0  0  0  0  0  0  0  0  0  0  0  0  # atno 17371 bound_to 10713
  141.1928  133.8165  157.0824 LP  0  0  0  0  0  0  0  0  0  0  0  0  # atno 17394 bound_to 11000
  140.0489  134.9816  157.1100 LP  0  0  0  0  0  0  0  0  0  0  0  0  # atno 17395 bound_to 11000

$$$$
