AV-unprocessed.smi:265|AV-procd|sdf|2029|dock1
  -GOLD-   2262021233D 1   1.00000     0.00000
 Structure written by MMmdl.
 52 56  0  0  0  0  0  0  0  0  1 V2000
  149.4975  138.7109  153.7664 C   0  0  0  0  0  0  0  0  0  0  0  0
  150.3994  138.5878  155.0044 C   0  0  2  0  0  0  0  0  0  0  0  0
  151.4669  139.5336  154.9651 O   0  0  0  0  0  0  0  0  0  0  0  0
  152.6961  138.9132  155.3250 C   0  0  0  0  0  0  0  0  0  0  0  0
  152.3052  137.6053  156.0057 C   0  0  0  0  0  0  0  0  0  0  0  0
  151.0431  137.2052  155.2537 C   0  0  2  0  0  0  0  0  0  0  0  0
  151.4233  136.6095  154.0243 O   0  0  0  0  0  0  0  0  0  0  0  0
  150.1454  136.1657  155.9740 C   0  0  0  0  0  0  0  0  0  0  0  0
  149.1313  135.5431  155.1373 N   0  0  0  0  0  0  0  0  0  0  0  0
  147.9584  136.1150  154.6952 C   0  0  0  0  0  0  0  0  0  0  0  0
  147.2068  135.3469  153.9541 N   0  0  0  0  0  0  0  0  0  0  0  0
  147.9066  134.1488  153.8977 C   0  0  0  0  0  0  0  0  0  0  0  0
  147.6695  132.8969  153.2740 C   0  0  0  0  0  0  0  0  0  0  0  0
  146.5668  132.6666  152.5311 N   0  0  0  0  0  0  0  0  0  0  0  0
  146.3456  131.2508  152.2333 C   0  0  0  0  0  0  0  0  0  0  0  0
  144.9762  131.0330  151.5618 C   0  0  0  0  0  0  0  0  0  0  0  0
  144.8537  131.9353  150.3261 C   0  0  1  0  0  0  0  0  0  0  0  0
  143.5673  131.8536  149.7314 O   0  0  0  0  0  0  0  0  0  0  0  0
  143.4689  132.5592  148.4889 C   0  0  0  0  0  0  0  0  0  0  0  0
  144.0721  133.9790  148.5558 C   0  0  0  0  0  0  0  0  0  0  0  0
  143.8492  134.7815  147.6521 O   0  0  0  0  0  0  0  0  0  0  0  0
  144.8678  134.2822  149.5947 N   0  0  0  0  0  0  0  0  0  0  0  0
  145.0522  133.4022  150.7408 C   0  0  2  0  0  0  0  0  0  0  0  0
  146.4312  133.5790  151.3962 C   0  0  0  0  0  0  0  0  0  0  0  0
  148.5936  131.9145  153.4398 N   0  0  0  0  0  0  0  0  0  0  0  0
  149.6858  132.1464  154.1752 C   0  0  0  0  0  0  0  0  0  0  0  0
  150.0406  133.2636  154.8146 N   0  0  0  0  0  0  0  0  0  0  0  0
  149.1132  134.2498  154.6441 C   0  0  0  0  0  0  0  0  0  0  0  0
  145.6096  131.6355  149.5968 H   0  0  0  0  0  0  0  0  0  0  0  0
  144.2853  133.6720  151.4693 H   0  0  0  0  0  0  0  0  0  0  0  0
  148.6852  137.9849  153.8011 H   0  0  0  0  0  0  0  0  0  0  0  0
  150.0553  138.5502  152.8437 H   0  0  0  0  0  0  0  0  0  0  0  0
  149.0517  139.7040  153.7109 H   0  0  0  0  0  0  0  0  0  0  0  0
  149.8160  138.8754  155.8776 H   0  0  0  0  0  0  0  0  0  0  0  0
  153.2678  138.7167  154.4173 H   0  0  0  0  0  0  0  0  0  0  0  0
  153.2950  139.5580  155.9687 H   0  0  0  0  0  0  0  0  0  0  0  0
  153.0935  136.8523  155.9727 H   0  0  0  0  0  0  0  0  0  0  0  0
  152.0880  137.8150  157.0522 H   0  0  0  0  0  0  0  0  0  0  0  0
  150.9972  137.0737  153.3203 H   0  0  0  0  0  0  0  0  0  0  0  0
  150.7642  135.3727  156.3968 H   0  0  0  0  0  0  0  0  0  0  0  0
  149.6387  136.6341  156.8190 H   0  0  0  0  0  0  0  0  0  0  0  0
  147.6791  137.1306  154.9358 H   0  0  0  0  0  0  0  0  0  0  0  0
  147.1388  130.8902  151.5765 H   0  0  0  0  0  0  0  0  0  0  0  0
  146.4031  130.6677  153.1535 H   0  0  0  0  0  0  0  0  0  0  0  0
  144.8571  129.9864  151.2806 H   0  0  0  0  0  0  0  0  0  0  0  0
  144.1783  131.2612  152.2697 H   0  0  0  0  0  0  0  0  0  0  0  0
  143.9894  131.9953  147.7139 H   0  0  0  0  0  0  0  0  0  0  0  0
  142.4205  132.6171  148.1955 H   0  0  0  0  0  0  0  0  0  0  0  0
  145.2962  135.1958  149.6289 H   0  0  0  0  0  0  0  0  0  0  0  0
  146.5539  134.6086  151.7361 H   0  0  0  0  0  0  0  0  0  0  0  0
  147.2213  133.3819  150.6699 H   0  0  0  0  0  0  0  0  0  0  0  0
  150.3747  131.3192  154.2629 H   0  0  0  0  0  0  0  0  0  0  0  0
  1  2  1  0  0  0  0
  1 31  1  0  0  0  0
  1 32  1  0  0  0  0
  1 33  1  0  0  0  0
  2  6  1  0  0  0  0
  2  3  1  0  0  0  0
  2 34  1  0  0  0  0
  3  4  1  0  0  0  0
  4  5  1  0  0  0  0
  4 35  1  0  0  0  0
  4 36  1  0  0  0  0
  5  6  1  0  0  0  0
  5 37  1  0  0  0  0
  5 38  1  0  0  0  0
  6  7  1  0  0  0  0
  6  8  1  0  0  0  0
  7 39  1  0  0  0  0
  8  9  1  0  0  0  0
  8 40  1  0  0  0  0
  8 41  1  0  0  0  0
  9 28  1  0  0  0  0
  9 10  1  0  0  0  0
 10 11  2  0  0  0  0
 10 42  1  0  0  0  0
 11 12  1  0  0  0  0
 12 28  2  0  0  0  0
 12 13  1  0  0  0  0
 13 14  1  0  0  0  0
 13 25  2  0  0  0  0
 14 24  1  0  0  0  0
 14 15  1  0  0  0  0
 15 16  1  0  0  0  0
 15 43  1  0  0  0  0
 15 44  1  0  0  0  0
 16 17  1  0  0  0  0
 16 45  1  0  0  0  0
 16 46  1  0  0  0  0
 17 29  1  0  0  0  0
 17 23  1  0  0  0  0
 17 18  1  0  0  0  0
 18 19  1  0  0  0  0
 19 20  1  0  0  0  0
 19 47  1  0  0  0  0
 19 48  1  0  0  0  0
 20 21  2  0  0  0  0
 20 22  1  0  0  0  0
 22 23  1  0  0  0  0
 22 49  1  0  0  0  0
 23 30  1  0  0  0  0
 23 24  1  0  0  0  0
 24 50  1  0  0  0  0
 24 51  1  0  0  0  0
 25 26  1  0  0  0  0
 26 27  2  0  0  0  0
 26 52  1  0  0  0  0
 27 28  1  0  0  0  0
M  END
> <s_m_source_file>
AV-unprocessed.smi

> <i_m_source_file_index>
265

> <i_lp_mmshare_version>
43012

> <i_f3d_flags>
0

> <s_epik_input>
W0NIMl0xW0NIMl1PW0NAQEhdKFtDSDNdKVtDQEBdMShbT0hdKVtDSDJdbihbY0hdbjIpYyhjMjMpbltjSF1uYzNOKFtDSDJdW0NIMl00KVtDSDJdW0NAQEhdKFtDQEhdNDUpW05IXUMoPU8pW0NIMl1PNQ==

> <s_epik_cmdline>
J2VwaWtfcHl0aG9uJywgJy1waCcsICc3LjAnLCAnLXRuJywgJzgnLCAnLW1hJywgJzIwMCcsICctbWV0YWxfYmluZGluZycsICctaW1hZScsICc8aW5maWxlLm1hZT4nLCAnLW9tYWUnLCAnPG91dGZpbGUubWFlPic=

> <r_lp_tautomer_probability>
1

> <r_epik_Ionization_Penalty>
0.00221504

> <r_epik_Ionization_Penalty_Charging>
0

> <r_epik_Ionization_Penalty_Neutral>
0.00221504

> <r_epik_State_Penalty>
-0

> <r_epik_Charging_Adjusted_Penalty>
0

> <i_epik_Tot_Q>
0

> <i_epik_Tot_abs_Q>
0

> <r_epik_Metal_State_Penalty>
-0

> <b_epik_Metal_Only>
0

> <s_lp_Force_Field>
OPLS_2005

> <r_lp_Energy>
49.142

> <b_lp_Chiralities_Consistent>
1

> <s_lp_Variant>
AV-unprocessed.smi:265-15

> <Gold.Version>
5.8.1

> <Gold.Id.Protein>
6NUR|6NUR_protein|mol2

> <Gold.PLP.Fitness>
45.6578

> <Gold.PLP.PLP>
-35.7851

> <Gold.PLP.part.hbond>
-6.0323

> <Gold.PLP.part.metal>
0.0000

> <Gold.PLP.part.buried>
0.4525

> <Gold.PLP.part.nonpolar>
-37.2267

> <Gold.PLP.part.repulsive>
7.4359

> <Gold.PLP.ligand.clash>
0.0000

> <Gold.PLP.ligand.torsion>
0.4969

> <Gold.PLP.Chemscore.Hbond>
3.5442

> <Gold.PLP.Chemscore.CHOScore>
0.0000

> <Gold.PLP.Chemscore.Metal>
0.0000

> <Gold.Chemscore.Hbonds>
donor molecule, donor type, donor heavy atom, donor atom, acceptor molecule, acceptor atom, score
      L1  H     7    39       P1  7949  0.16
      P1  H  7989  7998       L1     3  1.00
      P1  H 10192 10197       L1    21  1.00
      P1  H 10752 10765       L1     7  1.00
      P1  H 10785 10796       L1    18  0.45

> <Gold.PLP.Chemscore.Internal.Correction>
0.2340

> <Gold.Rescore>
     Score         DG    S(hbond)    S(metal)    S(lipo)     H(rot)  DE(clash)    DE(int)     intcor
     14.89     -20.30       2.96        0.00      91.16       2.25       4.81       0.60       ----

> <Gold.Chemscore.Fitness>
14.8857

> <Gold.Chemscore.DG>
-20.2970

> <Gold.Chemscore.ZeroCoef>
-5.4800

> <Gold.Chemscore.Hbond>
2.9637

> <Gold.Chemscore.Metal>
0.0000

> <Gold.Chemscore.Lipo>
91.1634

> <Gold.Chemscore.Internal_Hbond>
0.0000

> <Gold.Chemscore.DEClash>
4.8080

> <Gold.Chemscore.DEInternal>
0.6033

> <Gold.Chemscore.Rot>
2.2453

> <Gold.Chemscore.Internal.Correction>
   9.000000E+99

> <Gold.Chemscore.Hbonds>
donor molecule, donor type, donor heavy atom, donor atom, acceptor molecule, acceptor atom, score
      L1  H     7    39       P1  7949  0.05
      P1  H  7989  7998       L1     3  0.82
      P1  H 10192 10197       L1    21  0.95
      P1  H 10752 10765       L1     7  0.74
      P1  H 10785 10796       L1    18  0.01

> <Gold.Chemscore.Hbond.Weighted>
-9.8988

> <Gold.Chemscore.Metal.Weighted>
-0.0000

> <Gold.Chemscore.Lipo.Weighted>
-10.6661

> <Gold.Chemscore.Internal_Hbond.Weighted>
0.0000

> <Gold.Chemscore.DEClash.Weighted>
4.8080

> <Gold.Chemscore.DEInternal.Weighted>
0.6033

> <Gold.Chemscore.Rot.Weighted>
5.7479

> <Gold.Chemscore.Internal.Correction.Weighted>
   9.000000E+99

> <Gold.Protein.RotatedTorsions>
[ 6907 6896 6895 6894 ] final  -12.62 input  -60.11 | X-H torsion
[ 7974 7965 7964 7962 ] final   -4.75 input  175.53 | X-H torsion
[ 8008 7997 7996 7995 ] final  136.24 input   59.86 | X-H torsion
[ 10167 10162 10161 10158 ] final  148.26 input  -65.29 | X-H torsion
[ 10718 10713 10712 10709 ] final -140.20 input   66.30 | X-H torsion
[ 10763 10752 10751 10750 ] final  158.77 input  -60.55 | X-H torsion
[ 11005 11000 10999 10996 ] final  -53.93 input  -57.11 | X-H torsion

> <Gold.Protein.ActiveResidues>
 VAL166  LYS551  ARG553  GLY616  TRP617  ASP618  TYR619  PRO620  LYS621  CYS622 
 ASP623  PHE694  ASN695  SER759  ASP760  ASP761  ALA762  ILE779  LEU786  VAL792 
 PHE793  MET794  SER795  GLU796  ALA797  LYS798  CYS799  TRP800  GLU811  SER814 

> <Gold.Protein.RotatedAtoms>
  151.3676  135.0916  159.9454 H   0  0  0  0  0  0  0  0  0  0  0  0  # atno 6907 bound_to 6896
  152.5144  133.9196  159.7538 H   0  0  0  0  0  0  0  0  0  0  0  0  # atno 6908 bound_to 6896
  150.9604  133.6397  159.2784 H   0  0  0  0  0  0  0  0  0  0  0  0  # atno 6909 bound_to 6896
  146.2366  140.1918  142.8332 H   0  0  0  0  0  0  0  0  0  0  0  0  # atno 7974 bound_to 7965
  156.3004  140.2450  156.3713 H   0  0  0  0  0  0  0  0  0  0  0  0  # atno 8008 bound_to 7997
  154.8786  140.0413  157.1788 H   0  0  0  0  0  0  0  0  0  0  0  0  # atno 8009 bound_to 7997
  154.8719  140.2936  155.5480 H   0  0  0  0  0  0  0  0  0  0  0  0  # atno 8010 bound_to 7997
  139.4877  144.5693  151.7085 H   0  0  0  0  0  0  0  0  0  0  0  0  # atno 10167 bound_to 10162
  156.3195  130.7526  151.1621 H   0  0  0  0  0  0  0  0  0  0  0  0  # atno 10718 bound_to 10713
  154.2214  135.2782  155.2923 H   0  0  0  0  0  0  0  0  0  0  0  0  # atno 10763 bound_to 10752
  154.5699  135.5621  153.7088 H   0  0  0  0  0  0  0  0  0  0  0  0  # atno 10764 bound_to 10752
  153.0041  135.6318  154.2354 H   0  0  0  0  0  0  0  0  0  0  0  0  # atno 10765 bound_to 10752
  141.1001  133.6619  156.4245 H   0  0  0  0  0  0  0  0  0  0  0  0  # atno 11005 bound_to 11000
  144.9851  140.8496  143.5373 LP  0  0  0  0  0  0  0  0  0  0  0  0  # atno 17320 bound_to 7965
  145.1917  139.2298  143.5239 LP  0  0  0  0  0  0  0  0  0  0  0  0  # atno 17321 bound_to 7965
  140.5277  144.0780  150.6043 LP  0  0  0  0  0  0  0  0  0  0  0  0  # atno 17342 bound_to 10162
  140.3759  143.2829  152.0225 LP  0  0  0  0  0  0  0  0  0  0  0  0  # atno 17343 bound_to 10162
  157.7409  131.0511  150.5136 LP  0  0  0  0  0  0  0  0  0  0  0  0  # atno 17370 bound_to 10713
  156.5286  130.4179  149.6213 LP  0  0  0  0  0  0  0  0  0  0  0  0  # atno 17371 bound_to 10713
  140.5044  134.6455  157.5261 LP  0  0  0  0  0  0  0  0  0  0  0  0  # atno 17394 bound_to 11000
  139.9849  134.7077  155.9792 LP  0  0  0  0  0  0  0  0  0  0  0  0  # atno 17395 bound_to 11000

$$$$
