AV-unprocessed.smi:712|AV-procd|sdf|3468|dock5
  -GOLD-   22720 0453D 1   1.00000     0.00000
 Structure written by MMmdl.
 51 52  0  0  0  0  0  0  0  0  2 V2000
  152.4923  143.1868  161.5189 C   0  0  0  0  0  0  0  0  0  0  0  0
  152.1894  142.6700  160.1277 C   0  0  0  0  0  0  0  0  0  0  0  0
  151.2969  143.3944  159.2469 C   0  0  0  0  0  0  0  0  0  0  0  0
  151.0528  142.9086  158.0200 C   0  0  0  0  0  0  0  0  0  0  0  0
  151.6386  141.7137  157.5638 N   0  0  0  0  0  0  0  0  0  0  0  0
  151.2981  141.2717  156.2014 C   0  0  0  0  0  0  0  0  0  0  0  0
  149.7945  141.0282  156.0162 C   0  0  0  0  0  0  0  0  0  0  0  0
  149.0287  141.0828  156.9792 O   0  0  0  0  0  0  0  0  0  0  0  0
  149.3872  140.7641  154.7656 N   0  0  0  0  0  0  0  0  0  0  0  0
  148.0192  140.4357  154.3800 C   0  0  0  0  0  0  0  0  0  0  0  0
  147.8663  138.9338  154.0772 C   0  0  2  0  0  0  0  0  0  0  0  0
  146.7716  138.6653  153.0260 C   0  0  0  0  0  0  0  0  0  0  0  0
  146.6183  137.2070  152.7957 N   0  3  2  0  0  0  0  0  0  0  0  0
  145.6187  136.8661  151.7508 C   0  0  0  0  0  0  0  0  0  0  0  0
  145.1561  135.3936  151.8064 C   0  0  0  0  0  0  0  0  0  0  0  0
  146.3505  134.4464  151.6189 C   0  0  0  0  0  0  0  0  0  0  0  0
  144.0653  135.0935  150.7643 C   0  0  0  0  0  0  0  0  0  0  0  0
  146.3579  136.5068  154.0756 C   0  0  0  0  0  0  0  0  0  0  0  0
  147.4485  136.8447  155.1042 C   0  0  0  0  0  0  0  0  0  0  0  0
  147.5113  138.2534  155.2772 O   0  0  0  0  0  0  0  0  0  0  0  0
  152.4843  140.9787  158.3477 C   0  0  0  0  0  0  0  0  0  0  0  0
  152.9921  139.9266  157.9568 O   0  0  0  0  0  0  0  0  0  0  0  0
  152.7464  141.5209  159.6857 C   0  0  0  0  0  0  0  0  0  0  0  0
  152.0214  144.1548  161.6912 H   0  0  0  0  0  0  0  0  0  0  0  0
  153.5677  143.3034  161.6559 H   0  0  0  0  0  0  0  0  0  0  0  0
  152.1226  142.4890  162.2707 H   0  0  0  0  0  0  0  0  0  0  0  0
  150.8287  144.3124  159.5705 H   0  0  0  0  0  0  0  0  0  0  0  0
  150.3928  143.3969  157.3179 H   0  0  0  0  0  0  0  0  0  0  0  0
  151.6155  142.0077  155.4615 H   0  0  0  0  0  0  0  0  0  0  0  0
  151.8540  140.3633  155.9606 H   0  0  0  0  0  0  0  0  0  0  0  0
  150.0829  140.7548  154.0336 H   0  0  0  0  0  0  0  0  0  0  0  0
  147.3103  140.7523  155.1471 H   0  0  0  0  0  0  0  0  0  0  0  0
  147.7859  141.0162  153.4871 H   0  0  0  0  0  0  0  0  0  0  0  0
  148.8208  138.5501  153.7106 H   0  0  0  0  0  0  0  0  0  0  0  0
  145.8205  139.0863  153.3561 H   0  0  0  0  0  0  0  0  0  0  0  0
  147.0377  139.1685  152.0974 H   0  0  0  0  0  0  0  0  0  0  0  0
  144.7411  137.5032  151.8722 H   0  0  0  0  0  0  0  0  0  0  0  0
  146.0319  137.1029  150.7691 H   0  0  0  0  0  0  0  0  0  0  0  0
  144.7441  135.1834  152.7929 H   0  0  0  0  0  0  0  0  0  0  0  0
  146.8223  134.5904  150.6463 H   0  0  0  0  0  0  0  0  0  0  0  0
  146.0402  133.4033  151.6864 H   0  0  0  0  0  0  0  0  0  0  0  0
  147.1086  134.6121  152.3848 H   0  0  0  0  0  0  0  0  0  0  0  0
  144.4181  135.2918  149.7518 H   0  0  0  0  0  0  0  0  0  0  0  0
  143.1749  135.6997  150.9317 H   0  0  0  0  0  0  0  0  0  0  0  0
  143.7572  134.0485  150.8088 H   0  0  0  0  0  0  0  0  0  0  0  0
  145.3788  136.7982  154.4591 H   0  0  0  0  0  0  0  0  0  0  0  0
  146.3318  135.4288  153.9119 H   0  0  0  0  0  0  0  0  0  0  0  0
  147.2186  136.3811  156.0637 H   0  0  0  0  0  0  0  0  0  0  0  0
  148.4192  136.4589  154.7883 H   0  0  0  0  0  0  0  0  0  0  0  0
  153.4124  140.9754  160.3387 H   0  0  0  0  0  0  0  0  0  0  0  0
  147.5088  136.8645  152.4636 H   0  0  0  0  0  0  0  0  0  0  0  0
  1  2  1  0  0  0  0
  1 24  1  0  0  0  0
  1 25  1  0  0  0  0
  1 26  1  0  0  0  0
  2 23  2  0  0  0  0
  2  3  1  0  0  0  0
  3  4  2  0  0  0  0
  3 27  1  0  0  0  0
  4  5  1  0  0  0  0
  4 28  1  0  0  0  0
  5  6  1  0  0  0  0
  5 21  1  0  0  0  0
  6  7  1  0  0  0  0
  6 29  1  0  0  0  0
  6 30  1  0  0  0  0
  7  8  2  0  0  0  0
  7  9  1  0  0  0  0
  9 10  1  0  0  0  0
  9 31  1  0  0  0  0
 10 11  1  0  0  0  0
 10 32  1  0  0  0  0
 10 33  1  0  0  0  0
 11 20  1  0  0  0  0
 11 12  1  0  0  0  0
 11 34  1  0  0  0  0
 12 13  1  0  0  0  0
 12 35  1  0  0  0  0
 12 36  1  0  0  0  0
 13 14  1  0  0  0  0
 13 18  1  0  0  0  0
 13 51  1  0  0  0  0
 14 15  1  0  0  0  0
 14 37  1  0  0  0  0
 14 38  1  0  0  0  0
 15 16  1  0  0  0  0
 15 17  1  0  0  0  0
 15 39  1  0  0  0  0
 16 40  1  0  0  0  0
 16 41  1  0  0  0  0
 16 42  1  0  0  0  0
 17 43  1  0  0  0  0
 17 44  1  0  0  0  0
 17 45  1  0  0  0  0
 18 19  1  0  0  0  0
 18 46  1  0  0  0  0
 18 47  1  0  0  0  0
 19 20  1  0  0  0  0
 19 48  1  0  0  0  0
 19 49  1  0  0  0  0
 21 22  2  0  0  0  0
 21 23  1  0  0  0  0
 23 50  1  0  0  0  0
M  CHG  1  13   1
M  END
> <s_m_source_file>
AV-unprocessed.smi

> <i_m_source_file_index>
712

> <i_lp_mmshare_version>
43012

> <i_f3d_flags>
0

> <s_epik_input>
W0NIM11jMVtjSF1bY0hdbihjKD1PKVtjSF0xKVtDSDJdQyg9TylbTkhdW0NIMl1bQ0BASF0yW0NIMl1OKFtDSDJdW0NIMl1PMilbQ0gyXVtDSF0oW0NIM10pW0NIM10=

> <s_epik_cmdline>
J2VwaWtfcHl0aG9uJywgJy1waCcsICc3LjAnLCAnLXRuJywgJzgnLCAnLW1hJywgJzIwMCcsICctbWV0YWxfYmluZGluZycsICctaW1hZScsICc8aW5maWxlLm1hZT4nLCAnLW9tYWUnLCAnPG91dGZpbGUubWFlPic=

> <r_lp_tautomer_probability>
1

> <r_epik_Ionization_Penalty>
0.0975935

> <r_epik_Ionization_Penalty_Charging>
0.0975934

> <r_epik_Ionization_Penalty_Neutral>
6.27044e-08

> <r_epik_State_Penalty>
0.0877056

> <r_epik_Charging_Adjusted_Penalty>
0.185299

> <i_epik_Tot_Q>
1

> <i_epik_Tot_abs_Q>
1

> <r_epik_Metal_State_Penalty>
0.0877109

> <b_epik_Metal_Only>
0

> <s_lp_Force_Field>
OPLS_2005

> <r_lp_Energy>
27.343

> <b_lp_Chiralities_Consistent>
1

> <s_lp_Variant>
AV-unprocessed.smi:712-1

> <Gold.Version>
5.8.1

> <Gold.Id.Protein>
6NUR|6NUR_protein|mol2

> <Gold.PLP.Fitness>
49.8794

> <Gold.PLP.PLP>
-39.2281

> <Gold.PLP.part.hbond>
-2.0000

> <Gold.PLP.part.metal>
0.0000

> <Gold.PLP.part.buried>
-3.7548

> <Gold.PLP.part.nonpolar>
-34.5763

> <Gold.PLP.part.repulsive>
0.3616

> <Gold.PLP.ligand.clash>
0.0000

> <Gold.PLP.ligand.torsion>
0.7145

> <Gold.PLP.Chemscore.Hbond>
2.9913

> <Gold.PLP.Chemscore.CHOScore>
1.0000

> <Gold.PLP.Chemscore.Metal>
0.0000

> <Gold.Chemscore.Hbonds>
donor molecule, donor type, donor heavy atom, donor atom, acceptor molecule, acceptor atom, score
      L1  H    13    51       P1  7948  2.00
      P1  H  7997  8010       L1    22  1.00
      L1  C     4    28       P1  8028  0.85

> <Gold.PLP.Chemscore.Internal.Correction>
0.1066

> <Gold.Rescore>
     Score         DG    S(hbond)    S(metal)    S(lipo)     H(rot)  DE(clash)    DE(int)     intcor
     16.88     -19.03       1.93        0.00     101.92       1.89       0.21       1.94       ----

> <Gold.Chemscore.Fitness>
16.8827

> <Gold.Chemscore.DG>
-19.0340

> <Gold.Chemscore.ZeroCoef>
-5.4800

> <Gold.Chemscore.Hbond>
1.9342

> <Gold.Chemscore.Metal>
0.0000

> <Gold.Chemscore.Lipo>
101.9203

> <Gold.Chemscore.Internal_Hbond>
0.0000

> <Gold.Chemscore.DEClash>
0.2096

> <Gold.Chemscore.DEInternal>
1.9417

> <Gold.Chemscore.Rot>
1.8871

> <Gold.Chemscore.Internal.Correction>
   9.000000E+99

> <Gold.Chemscore.Hbonds>
donor molecule, donor type, donor heavy atom, donor atom, acceptor molecule, acceptor atom, score
      L1  H    13    51       P1  7948  1.00
      P1  H  7997  8010       L1    22  0.93

> <Gold.Chemscore.Hbond.Weighted>
-6.4603

> <Gold.Chemscore.Metal.Weighted>
-0.0000

> <Gold.Chemscore.Lipo.Weighted>
-11.9247

> <Gold.Chemscore.Internal_Hbond.Weighted>
0.0000

> <Gold.Chemscore.DEClash.Weighted>
0.2096

> <Gold.Chemscore.DEInternal.Weighted>
1.9417

> <Gold.Chemscore.Rot.Weighted>
4.8309

> <Gold.Chemscore.Internal.Correction.Weighted>
   9.000000E+99

> <Gold.Protein.RotatedTorsions>
[ 6907 6896 6895 6894 ] final  160.13 input  -60.11 | X-H torsion
[ 7974 7965 7964 7962 ] final  178.10 input  175.53 | X-H torsion
[ 8008 7997 7996 7995 ] final   44.40 input   59.86 | X-H torsion
[ 10167 10162 10161 10158 ] final   47.48 input  -65.29 | X-H torsion
[ 10718 10713 10712 10709 ] final    1.54 input   66.30 | X-H torsion
[ 10763 10752 10751 10750 ] final  101.91 input  -60.55 | X-H torsion
[ 11005 11000 10999 10996 ] final  -63.11 input  -57.11 | X-H torsion

> <Gold.Protein.ActiveResidues>
 VAL166  LYS551  ARG553  GLY616  TRP617  ASP618  TYR619  PRO620  LYS621  CYS622 
 ASP623  PHE694  ASN695  SER759  ASP760  ASP761  ALA762  ILE779  LEU786  VAL792 
 PHE793  MET794  SER795  GLU796  ALA797  LYS798  CYS799  TRP800  GLU811  SER814 

> <Gold.Protein.RotatedAtoms>
  151.9752  133.3739  159.4086 H   0  0  0  0  0  0  0  0  0  0  0  0  # atno 6907 bound_to 6896
  150.6943  134.4097  159.5165 H   0  0  0  0  0  0  0  0  0  0  0  0  # atno 6908 bound_to 6896
  152.1808  134.8756  160.0577 H   0  0  0  0  0  0  0  0  0  0  0  0  # atno 6909 bound_to 6896
  144.7160  140.0346  143.6438 H   0  0  0  0  0  0  0  0  0  0  0  0  # atno 7974 bound_to 7965
  155.3187  140.3395  155.4242 H   0  0  0  0  0  0  0  0  0  0  0  0  # atno 8008 bound_to 7997
  156.1920  140.1701  156.8111 H   0  0  0  0  0  0  0  0  0  0  0  0  # atno 8009 bound_to 7997
  154.5453  140.0716  156.8562 H   0  0  0  0  0  0  0  0  0  0  0  0  # atno 8010 bound_to 7997
  140.3031  144.2910  150.6215 H   0  0  0  0  0  0  0  0  0  0  0  0  # atno 10167 bound_to 10162
  156.8497  130.5549  149.5670 H   0  0  0  0  0  0  0  0  0  0  0  0  # atno 10718 bound_to 10713
  153.3328  135.4028  155.1509 H   0  0  0  0  0  0  0  0  0  0  0  0  # atno 10763 bound_to 10752
  154.8627  135.3614  154.5448 H   0  0  0  0  0  0  0  0  0  0  0  0  # atno 10764 bound_to 10752
  153.5888  135.7074  153.5491 H   0  0  0  0  0  0  0  0  0  0  0  0  # atno 10765 bound_to 10752
  141.1382  133.6648  156.5630 H   0  0  0  0  0  0  0  0  0  0  0  0  # atno 11005 bound_to 11000
  146.0074  139.3141  143.0891 LP  0  0  0  0  0  0  0  0  0  0  0  0  # atno 17320 bound_to 7965
  145.8722  140.9413  143.0644 LP  0  0  0  0  0  0  0  0  0  0  0  0  # atno 17321 bound_to 7965
  140.5633  143.2189  151.7727 LP  0  0  0  0  0  0  0  0  0  0  0  0  # atno 17342 bound_to 10162
  139.4910  144.4318  151.9863 LP  0  0  0  0  0  0  0  0  0  0  0  0  # atno 17343 bound_to 10162
  156.0835  130.5839  150.9606 LP  0  0  0  0  0  0  0  0  0  0  0  0  # atno 17370 bound_to 10713
  157.6310  131.0921  150.8441 LP  0  0  0  0  0  0  0  0  0  0  0  0  # atno 17371 bound_to 10713
  140.3973  134.7387  157.4758 LP  0  0  0  0  0  0  0  0  0  0  0  0  # atno 17394 bound_to 11000
  140.0522  134.6115  155.8848 LP  0  0  0  0  0  0  0  0  0  0  0  0  # atno 17395 bound_to 11000

$$$$
