AV-unprocessed.smi:1201|AV-procd|sdf|5027|dock10
  -GOLD-   22720 4 53D 1   1.00000     0.00000
 Structure written by MMmdl.
 31 32  0  0  0  0  0  0  0  0  1 V2000
  140.5165  144.9717  160.3321 C   0  0  0  0  0  0  0  0  0  0  0  0
  141.4782  144.2119  161.0559 O   0  0  0  0  0  0  0  0  0  0  0  0
  142.8108  144.3609  160.7305 C   0  0  0  0  0  0  0  0  0  0  0  0
  143.7692  143.6332  161.4633 C   0  0  0  0  0  0  0  0  0  0  0  0
  145.1314  143.7796  161.1388 C   0  0  0  0  0  0  0  0  0  0  0  0
  145.4934  144.6481  160.0810 C   0  0  0  0  0  0  0  0  0  0  0  0
  146.8289  144.8992  159.6627 N   0  0  0  0  0  0  0  0  0  0  0  0
  147.9785  144.6670  160.3195 C   0  0  0  0  0  0  0  0  0  0  0  0
  148.0743  144.1558  161.4348 O   0  0  0  0  0  0  0  0  0  0  0  0
  149.0354  145.0527  159.5913 N   0  0  0  0  0  0  0  0  0  0  0  0
  150.4249  144.9467  160.0166 C   0  0  0  0  0  0  0  0  0  0  0  0
  151.4447  145.3367  158.9640 C   0  0  0  0  0  0  0  0  0  0  0  0
  151.6201  144.4920  157.7238 C   0  0  0  0  0  0  0  0  0  0  0  0
  152.7119  144.5373  158.7649 C   0  0  0  0  0  0  0  0  0  0  0  0
  144.4580  145.3380  159.4173 C   0  0  0  0  0  0  0  0  0  0  0  0
  143.1505  145.2027  159.7232 N   0  0  0  0  0  0  0  0  0  0  0  0
  139.5186  144.7368  160.7021 H   0  0  0  0  0  0  0  0  0  0  0  0
  140.5383  144.7338  159.2677 H   0  0  0  0  0  0  0  0  0  0  0  0
  140.6744  146.0430  160.4637 H   0  0  0  0  0  0  0  0  0  0  0  0
  143.4651  142.9765  162.2649 H   0  0  0  0  0  0  0  0  0  0  0  0
  145.8617  143.2341  161.7151 H   0  0  0  0  0  0  0  0  0  0  0  0
  146.9235  145.2648  158.7265 H   0  0  0  0  0  0  0  0  0  0  0  0
  148.8670  145.4568  158.6817 H   0  0  0  0  0  0  0  0  0  0  0  0
  150.5865  145.5343  160.9222 H   0  0  0  0  0  0  0  0  0  0  0  0
  150.6047  143.9077  160.2924 H   0  0  0  0  0  0  0  0  0  0  0  0
  151.5246  146.4114  158.8102 H   0  0  0  0  0  0  0  0  0  0  0  0
  151.0402  143.5743  157.6470 H   0  0  0  0  0  0  0  0  0  0  0  0
  151.7981  145.0110  156.7842 H   0  0  0  0  0  0  0  0  0  0  0  0
  153.6182  145.0878  158.5215 H   0  0  0  0  0  0  0  0  0  0  0  0
  152.8563  143.6515  159.3804 H   0  0  0  0  0  0  0  0  0  0  0  0
  144.6838  146.0203  158.6106 H   0  0  0  0  0  0  0  0  0  0  0  0
  1  2  1  0  0  0  0
  1 17  1  0  0  0  0
  1 18  1  0  0  0  0
  1 19  1  0  0  0  0
  2  3  1  0  0  0  0
  3 16  1  0  0  0  0
  3  4  2  0  0  0  0
  4  5  1  0  0  0  0
  4 20  1  0  0  0  0
  5  6  2  0  0  0  0
  5 21  1  0  0  0  0
  6  7  1  0  0  0  0
  6 15  1  0  0  0  0
  7  8  1  0  0  0  0
  7 22  1  0  0  0  0
  8  9  2  0  0  0  0
  8 10  1  0  0  0  0
 10 11  1  0  0  0  0
 10 23  1  0  0  0  0
 11 12  1  0  0  0  0
 11 24  1  0  0  0  0
 11 25  1  0  0  0  0
 12 14  1  0  0  0  0
 12 13  1  0  0  0  0
 12 26  1  0  0  0  0
 13 14  1  0  0  0  0
 13 27  1  0  0  0  0
 13 28  1  0  0  0  0
 14 29  1  0  0  0  0
 14 30  1  0  0  0  0
 15 16  2  0  0  0  0
 15 31  1  0  0  0  0
M  END
> <s_m_source_file>
AV-unprocessed.smi

> <i_m_source_file_index>
1201

> <i_lp_mmshare_version>
43012

> <i_f3d_flags>
0

> <s_epik_input>
W0NIM11PYzFbY0hdW2NIXWMoW2NIXW4xKVtOSF1DKD1PKVtOSF1bQ0gyXVtDSF0yW0NIMl1bQ0gyXTI=

> <s_epik_cmdline>
J2VwaWtfcHl0aG9uJywgJy1waCcsICc3LjAnLCAnLXRuJywgJzgnLCAnLW1hJywgJzIwMCcsICctbWV0YWxfYmluZGluZycsICctaW1hZScsICc8aW5maWxlLm1hZT4nLCAnLW9tYWUnLCAnPG91dGZpbGUubWFlPic=

> <r_lp_tautomer_probability>
1

> <r_epik_Ionization_Penalty>
9.92182e-05

> <r_epik_Ionization_Penalty_Charging>
0

> <r_epik_Ionization_Penalty_Neutral>
9.92182e-05

> <r_epik_State_Penalty>
-0

> <r_epik_Charging_Adjusted_Penalty>
0

> <i_epik_Tot_Q>
0

> <i_epik_Tot_abs_Q>
0

> <r_epik_Metal_State_Penalty>
-0

> <b_epik_Metal_Only>
0

> <s_lp_Force_Field>
OPLS_2005

> <r_lp_Energy>
14.9196

> <b_lp_Chiralities_Consistent>
1

> <s_lp_Variant>
AV-unprocessed.smi:1201-1

> <Gold.Version>
5.8.1

> <Gold.Id.Protein>
6NUR|6NUR_protein|mol2

> <Gold.PLP.Fitness>
43.8487

> <Gold.PLP.PLP>
-35.1752

> <Gold.PLP.part.hbond>
-3.8336

> <Gold.PLP.part.metal>
0.0000

> <Gold.PLP.part.buried>
-6.5408

> <Gold.PLP.part.nonpolar>
-25.0811

> <Gold.PLP.part.repulsive>
0.6132

> <Gold.PLP.ligand.clash>
0.0000

> <Gold.PLP.ligand.torsion>
0.3966

> <Gold.PLP.Chemscore.Hbond>
2.9760

> <Gold.PLP.Chemscore.CHOScore>
0.0000

> <Gold.PLP.Chemscore.Metal>
0.0000

> <Gold.Chemscore.Hbonds>
donor molecule, donor type, donor heavy atom, donor atom, acceptor molecule, acceptor atom, score
      L1  H     7    22       P1  8029  1.00
      L1  H    10    23       P1  8029  1.00
      P1  H  6933  6944       L1     9  1.00

> <Gold.PLP.Chemscore.Internal.Correction>
0.5387

> <Gold.Rescore>
     Score         DG    S(hbond)    S(metal)    S(lipo)     H(rot)  DE(clash)    DE(int)     intcor
     19.45     -20.09       2.91        0.00      73.53       1.45       0.04       0.59       ----

> <Gold.Chemscore.Fitness>
19.4536

> <Gold.Chemscore.DG>
-20.0909

> <Gold.Chemscore.ZeroCoef>
-5.4800

> <Gold.Chemscore.Hbond>
2.9100

> <Gold.Chemscore.Metal>
0.0000

> <Gold.Chemscore.Lipo>
73.5257

> <Gold.Chemscore.Internal_Hbond>
0.0000

> <Gold.Chemscore.DEClash>
0.0434

> <Gold.Chemscore.DEInternal>
0.5939

> <Gold.Chemscore.Rot>
1.4497

> <Gold.Chemscore.Internal.Correction>
   9.000000E+99

> <Gold.Chemscore.Hbonds>
donor molecule, donor type, donor heavy atom, donor atom, acceptor molecule, acceptor atom, score
      L1  H     7    22       P1  8029  0.98
      L1  H    10    23       P1  8029  0.99
      P1  H  6933  6944       L1     9  0.89

> <Gold.Chemscore.Hbond.Weighted>
-9.7195

> <Gold.Chemscore.Metal.Weighted>
-0.0000

> <Gold.Chemscore.Lipo.Weighted>
-8.6025

> <Gold.Chemscore.Internal_Hbond.Weighted>
0.0000

> <Gold.Chemscore.DEClash.Weighted>
0.0434

> <Gold.Chemscore.DEInternal.Weighted>
0.5939

> <Gold.Chemscore.Rot.Weighted>
3.7111

> <Gold.Chemscore.Internal.Correction.Weighted>
   9.000000E+99

> <Gold.Protein.RotatedTorsions>
[ 6907 6896 6895 6894 ] final -112.54 input  -60.11 | X-H torsion
[ 7974 7965 7964 7962 ] final   44.70 input  175.53 | X-H torsion
[ 8008 7997 7996 7995 ] final -173.42 input   59.86 | X-H torsion
[ 10167 10162 10161 10158 ] final -162.77 input  -65.29 | X-H torsion
[ 10718 10713 10712 10709 ] final  153.36 input   66.30 | X-H torsion
[ 10763 10752 10751 10750 ] final  109.26 input  -60.55 | X-H torsion
[ 11005 11000 10999 10996 ] final  -79.84 input  -57.11 | X-H torsion

> <Gold.Protein.ActiveResidues>
 VAL166  LYS551  ARG553  GLY616  TRP617  ASP618  TYR619  PRO620  LYS621  CYS622 
 ASP623  PHE694  ASN695  SER759  ASP760  ASP761  ALA762  ILE779  LEU786  VAL792 
 PHE793  MET794  SER795  GLU796  ALA797  LYS798  CYS799  TRP800  GLU811  SER814 

> <Gold.Protein.RotatedAtoms>
  150.7765  133.9075  159.3359 H   0  0  0  0  0  0  0  0  0  0  0  0  # atno 6907 bound_to 6896
  151.6948  135.0938  160.0249 H   0  0  0  0  0  0  0  0  0  0  0  0  # atno 6908 bound_to 6896
  152.3803  133.6499  159.6191 H   0  0  0  0  0  0  0  0  0  0  0  0  # atno 6909 bound_to 6896
  146.0545  139.5045  142.9697 H   0  0  0  0  0  0  0  0  0  0  0  0  # atno 7974 bound_to 7965
  155.9572  140.1137  157.0927 H   0  0  0  0  0  0  0  0  0  0  0  0  # atno 8008 bound_to 7997
  154.4123  140.1189  156.5197 H   0  0  0  0  0  0  0  0  0  0  0  0  # atno 8009 bound_to 7997
  155.6767  140.3473  155.4841 H   0  0  0  0  0  0  0  0  0  0  0  0  # atno 8010 bound_to 7997
  139.6368  144.0334  152.2061 H   0  0  0  0  0  0  0  0  0  0  0  0  # atno 10167 bound_to 10162
  157.2458  131.0768  151.1763 H   0  0  0  0  0  0  0  0  0  0  0  0  # atno 10718 bound_to 10713
  153.4323  135.3785  155.2178 H   0  0  0  0  0  0  0  0  0  0  0  0  # atno 10763 bound_to 10752
  154.8750  135.3843  154.4253 H   0  0  0  0  0  0  0  0  0  0  0  0  # atno 10764 bound_to 10752
  153.4787  135.7088  153.6014 H   0  0  0  0  0  0  0  0  0  0  0  0  # atno 10765 bound_to 10752
  141.1668  133.7123  156.8183 H   0  0  0  0  0  0  0  0  0  0  0  0  # atno 11005 bound_to 11000
  145.6667  141.0227  143.1679 LP  0  0  0  0  0  0  0  0  0  0  0  0  # atno 17320 bound_to 7965
  144.7140  139.8263  143.7405 LP  0  0  0  0  0  0  0  0  0  0  0  0  # atno 17321 bound_to 7965
  140.0014  144.6291  150.7727 LP  0  0  0  0  0  0  0  0  0  0  0  0  # atno 17342 bound_to 10162
  140.7470  143.2899  151.3360 LP  0  0  0  0  0  0  0  0  0  0  0  0  # atno 17343 bound_to 10162
  157.3331  130.6995  149.6336 LP  0  0  0  0  0  0  0  0  0  0  0  0  # atno 17370 bound_to 10713
  155.9668  130.4302  150.4865 LP  0  0  0  0  0  0  0  0  0  0  0  0  # atno 17371 bound_to 10713
  140.2138  134.8808  157.3303 LP  0  0  0  0  0  0  0  0  0  0  0  0  # atno 17394 bound_to 11000
  140.2059  134.4198  155.7638 LP  0  0  0  0  0  0  0  0  0  0  0  0  # atno 17395 bound_to 11000

$$$$
