AV-unprocessed.smi:1779|AV-procd|sdf|7182|dock6
  -GOLD-   22720 8423D 1   1.00000     0.00000
 Structure written by MMmdl.
 47 48  0  0  0  0  0  0  0  0  2 V2000
  152.1910  141.0057  159.0801 C   0  0  0  0  0  0  0  0  0  0  0  0
  151.8182  140.5779  157.6913 C   0  0  0  0  0  0  0  0  0  0  0  0
  150.6674  140.9502  156.9374 C   0  0  0  0  0  0  0  0  0  0  0  0
  150.8450  140.2722  155.7623 C   0  0  0  0  0  0  0  0  0  0  0  0
  150.0495  140.2480  154.6598 N   0  0  0  0  0  0  0  0  0  0  0  0
  148.7067  140.2411  154.5928 C   0  0  0  0  0  0  0  0  0  0  0  0
  147.9424  140.2694  155.5572 O   0  0  0  0  0  0  0  0  0  0  0  0
  148.2860  140.2006  153.3211 N   0  0  0  0  0  0  0  0  0  0  0  0
  146.8864  140.1660  152.9122 C   0  0  0  0  0  0  0  0  0  0  0  0
  146.5357  138.8280  152.2380 C   0  0  1  0  0  0  0  0  0  0  0  0
  147.6297  138.4630  151.4203 O   0  0  0  0  0  0  0  0  0  0  0  0
  146.2692  137.7021  153.2617 C   0  0  0  0  0  0  0  0  0  0  0  0
  146.3744  136.3438  152.6689 N   0  3  0  0  0  0  0  0  0  0  0  0
  146.1984  135.2721  153.6840 C   0  0  0  0  0  0  0  0  0  0  0  0
  146.4534  133.8821  153.0768 C   0  0  0  0  0  0  0  0  0  0  0  0
  145.5469  133.6366  151.8639 C   0  0  0  0  0  0  0  0  0  0  0  0
  145.7182  134.7706  150.8450 C   0  0  0  0  0  0  0  0  0  0  0  0
  145.4763  136.1410  151.4998 C   0  0  0  0  0  0  0  0  0  0  0  0
  152.0187  139.5556  155.8352 N   0  0  0  0  0  0  0  0  0  0  0  0
  152.6328  138.6897  154.8474 C   0  0  0  0  0  0  0  0  0  0  0  0
  152.6183  139.7496  157.0297 N   0  0  0  0  0  0  0  0  0  0  0  0
  151.4531  141.6948  159.4918 H   0  0  0  0  0  0  0  0  0  0  0  0
  153.1574  141.5103  159.0897 H   0  0  0  0  0  0  0  0  0  0  0  0
  152.2540  140.1487  159.7510 H   0  0  0  0  0  0  0  0  0  0  0  0
  149.8605  141.6049  157.2304 H   0  0  0  0  0  0  0  0  0  0  0  0
  150.5402  140.2279  153.7782 H   0  0  0  0  0  0  0  0  0  0  0  0
  148.9802  140.1702  152.5889 H   0  0  0  0  0  0  0  0  0  0  0  0
  146.2761  140.3080  153.8056 H   0  0  0  0  0  0  0  0  0  0  0  0
  146.6575  140.9942  152.2386 H   0  0  0  0  0  0  0  0  0  0  0  0
  145.6739  138.9836  151.5897 H   0  0  0  0  0  0  0  0  0  0  0  0
  148.3727  139.0041  151.6386 H   0  0  0  0  0  0  0  0  0  0  0  0
  146.9858  137.8064  154.0783 H   0  0  0  0  0  0  0  0  0  0  0  0
  145.2826  137.8127  153.7142 H   0  0  0  0  0  0  0  0  0  0  0  0
  146.8910  135.4301  154.5118 H   0  0  0  0  0  0  0  0  0  0  0  0
  145.1904  135.3243  154.0989 H   0  0  0  0  0  0  0  0  0  0  0  0
  147.4987  133.7998  152.7757 H   0  0  0  0  0  0  0  0  0  0  0  0
  146.2868  133.1099  153.8286 H   0  0  0  0  0  0  0  0  0  0  0  0
  145.7824  132.6763  151.4041 H   0  0  0  0  0  0  0  0  0  0  0  0
  144.5059  133.5830  152.1857 H   0  0  0  0  0  0  0  0  0  0  0  0
  146.7240  134.7375  150.4241 H   0  0  0  0  0  0  0  0  0  0  0  0
  145.0294  134.6287  150.0116 H   0  0  0  0  0  0  0  0  0  0  0  0
  144.4365  136.2232  151.8202 H   0  0  0  0  0  0  0  0  0  0  0  0
  145.6368  136.9194  150.7551 H   0  0  0  0  0  0  0  0  0  0  0  0
  151.9088  137.9490  154.5067 H   0  0  0  0  0  0  0  0  0  0  0  0
  153.4932  138.1714  155.2728 H   0  0  0  0  0  0  0  0  0  0  0  0
  152.9629  139.2848  153.9956 H   0  0  0  0  0  0  0  0  0  0  0  0
  147.3226  136.2533  152.3335 H   0  0  0  0  0  0  0  0  0  0  0  0
  1  2  1  0  0  0  0
  1 22  1  0  0  0  0
  1 23  1  0  0  0  0
  1 24  1  0  0  0  0
  2 21  2  0  0  0  0
  2  3  1  0  0  0  0
  3  4  2  0  0  0  0
  3 25  1  0  0  0  0
  4  5  1  0  0  0  0
  4 19  1  0  0  0  0
  5  6  1  0  0  0  0
  5 26  1  0  0  0  0
  6  7  2  0  0  0  0
  6  8  1  0  0  0  0
  8  9  1  0  0  0  0
  8 27  1  0  0  0  0
  9 10  1  0  0  0  0
  9 28  1  0  0  0  0
  9 29  1  0  0  0  0
 10 11  1  0  0  0  0
 10 12  1  0  0  0  0
 10 30  1  0  0  0  0
 11 31  1  0  0  0  0
 12 13  1  0  0  0  0
 12 32  1  0  0  0  0
 12 33  1  0  0  0  0
 13 18  1  0  0  0  0
 13 14  1  0  0  0  0
 13 47  1  0  0  0  0
 14 15  1  0  0  0  0
 14 34  1  0  0  0  0
 14 35  1  0  0  0  0
 15 16  1  0  0  0  0
 15 36  1  0  0  0  0
 15 37  1  0  0  0  0
 16 17  1  0  0  0  0
 16 38  1  0  0  0  0
 16 39  1  0  0  0  0
 17 18  1  0  0  0  0
 17 40  1  0  0  0  0
 17 41  1  0  0  0  0
 18 42  1  0  0  0  0
 18 43  1  0  0  0  0
 19 20  1  0  0  0  0
 19 21  1  0  0  0  0
 20 44  1  0  0  0  0
 20 45  1  0  0  0  0
 20 46  1  0  0  0  0
M  CHG  1  13   1
M  END
> <s_m_source_file>
AV-unprocessed.smi

> <i_m_source_file_index>
1779

> <i_lp_mmshare_version>
43012

> <i_f3d_flags>
0

> <s_epik_input>
W0NIM11jMVtjSF1jKG4objEpW0NIM10pW05IXUMoPU8pW05IXVtDSDJdW0NASF0oW09IXSlbQ0gyXU4yW0NIMl1bQ0gyXVtDSDJdW0NIMl1bQ0gyXTI=

> <s_epik_cmdline>
J2VwaWtfcHl0aG9uJywgJy1waCcsICc3LjAnLCAnLXRuJywgJzgnLCAnLW1hJywgJzIwMCcsICctbWV0YWxfYmluZGluZycsICctaW1hZScsICc8aW5maWxlLm1hZT4nLCAnLW9tYWUnLCAnPG91dGZpbGUubWFlPic=

> <r_lp_tautomer_probability>
1

> <r_epik_Ionization_Penalty>
0.00528203

> <r_epik_Ionization_Penalty_Charging>
0.00519125

> <r_epik_Ionization_Penalty_Neutral>
9.07781e-05

> <r_epik_State_Penalty>
0.0037836

> <r_epik_Charging_Adjusted_Penalty>
0.00897485

> <i_epik_Tot_Q>
1

> <i_epik_Tot_abs_Q>
1

> <r_epik_Metal_State_Penalty>
-0

> <b_epik_Metal_Only>
0

> <s_lp_Force_Field>
OPLS_2005

> <r_lp_Energy>
21.4604

> <b_lp_Chiralities_Consistent>
1

> <s_lp_Variant>
AV-unprocessed.smi:1779-2

> <Gold.Version>
5.8.1

> <Gold.Id.Protein>
6NUR|6NUR_protein|mol2

> <Gold.PLP.Fitness>
54.5146

> <Gold.PLP.PLP>
-38.1665

> <Gold.PLP.part.hbond>
-5.7725

> <Gold.PLP.part.metal>
0.0000

> <Gold.PLP.part.buried>
-3.9997

> <Gold.PLP.part.nonpolar>
-30.5902

> <Gold.PLP.part.repulsive>
1.5543

> <Gold.PLP.ligand.clash>
0.0000

> <Gold.PLP.ligand.torsion>
0.6722

> <Gold.PLP.Chemscore.Hbond>
5.8673

> <Gold.PLP.Chemscore.CHOScore>
0.0000

> <Gold.PLP.Chemscore.Metal>
0.0000

> <Gold.Chemscore.Hbonds>
donor molecule, donor type, donor heavy atom, donor atom, acceptor molecule, acceptor atom, score
      L1  H     8    27       P1  7957  1.00
      L1  H    11    31       P1  7957  0.96
      L1  H    13    47       P1  7948  2.00
      P1  H  7954  7966       L1    11  0.90
      P1  H  7997  8009       L1    21  1.00

> <Gold.PLP.Chemscore.Internal.Correction>
0.0907

> <Gold.Rescore>
     Score         DG    S(hbond)    S(metal)    S(lipo)     H(rot)  DE(clash)    DE(int)     intcor
     19.29     -20.23       3.80        0.00      69.21       2.36       0.17       0.77       ----

> <Gold.Chemscore.Fitness>
19.2915

> <Gold.Chemscore.DG>
-20.2302

> <Gold.Chemscore.ZeroCoef>
-5.4800

> <Gold.Chemscore.Hbond>
3.7985

> <Gold.Chemscore.Metal>
0.0000

> <Gold.Chemscore.Lipo>
69.2051

> <Gold.Chemscore.Internal_Hbond>
0.0000

> <Gold.Chemscore.DEClash>
0.1686

> <Gold.Chemscore.DEInternal>
0.7701

> <Gold.Chemscore.Rot>
2.3569

> <Gold.Chemscore.Internal.Correction>
   9.000000E+99

> <Gold.Chemscore.Hbonds>
donor molecule, donor type, donor heavy atom, donor atom, acceptor molecule, acceptor atom, score
      L1  H     8    27       P1  7957  0.96
      L1  H    11    31       P1  7957  0.75
      L1  H    13    47       P1  7948  1.00
      P1  H  7954  7966       L1    11  0.17
      P1  H  7997  8009       L1    21  0.55

> <Gold.Chemscore.Hbond.Weighted>
-12.6869

> <Gold.Chemscore.Metal.Weighted>
-0.0000

> <Gold.Chemscore.Lipo.Weighted>
-8.0970

> <Gold.Chemscore.Internal_Hbond.Weighted>
0.0000

> <Gold.Chemscore.DEClash.Weighted>
0.1686

> <Gold.Chemscore.DEInternal.Weighted>
0.7701

> <Gold.Chemscore.Rot.Weighted>
6.0337

> <Gold.Chemscore.Internal.Correction.Weighted>
   9.000000E+99

> <Gold.Protein.RotatedTorsions>
[ 6907 6896 6895 6894 ] final   63.35 input  -60.11 | X-H torsion
[ 7974 7965 7964 7962 ] final -178.32 input  175.53 | X-H torsion
[ 8008 7997 7996 7995 ] final  177.82 input   59.86 | X-H torsion
[ 10167 10162 10161 10158 ] final  125.80 input  -65.29 | X-H torsion
[ 10718 10713 10712 10709 ] final -135.79 input   66.30 | X-H torsion
[ 10763 10752 10751 10750 ] final  -28.34 input  -60.55 | X-H torsion
[ 11005 11000 10999 10996 ] final -131.16 input  -57.11 | X-H torsion

> <Gold.Protein.ActiveResidues>
 VAL166  LYS551  ARG553  GLY616  TRP617  ASP618  TYR619  PRO620  LYS621  CYS622 
 ASP623  PHE694  ASN695  SER759  ASP760  ASP761  ALA762  ILE779  LEU786  VAL792 
 PHE793  MET794  SER795  GLU796  ALA797  LYS798  CYS799  TRP800  GLU811  SER814 

> <Gold.Protein.RotatedAtoms>
  152.4246  134.5892  159.9969 H   0  0  0  0  0  0  0  0  0  0  0  0  # atno 6907 bound_to 6896
  151.6032  133.3348  159.3059 H   0  0  0  0  0  0  0  0  0  0  0  0  # atno 6908 bound_to 6896
  150.8135  134.7341  159.6775 H   0  0  0  0  0  0  0  0  0  0  0  0  # atno 6909 bound_to 6896
  144.7130  140.0886  143.6422 H   0  0  0  0  0  0  0  0  0  0  0  0  # atno 7974 bound_to 7965
  156.0614  140.1349  156.9936 H   0  0  0  0  0  0  0  0  0  0  0  0  # atno 8008 bound_to 7997
  154.4484  140.0990  156.6594 H   0  0  0  0  0  0  0  0  0  0  0  0  # atno 8009 bound_to 7997
  155.5371  140.3460  155.4441 H   0  0  0  0  0  0  0  0  0  0  0  0  # atno 8010 bound_to 7997
  139.5665  144.6914  151.3895 H   0  0  0  0  0  0  0  0  0  0  0  0  # atno 10167 bound_to 10162
  156.2700  130.7260  151.1223 H   0  0  0  0  0  0  0  0  0  0  0  0  # atno 10718 bound_to 10713
  153.7468  135.6929  153.4954 H   0  0  0  0  0  0  0  0  0  0  0  0  # atno 10763 bound_to 10752
  153.2031  135.4429  155.0289 H   0  0  0  0  0  0  0  0  0  0  0  0  # atno 10764 bound_to 10752
  154.8201  135.3418  154.6991 H   0  0  0  0  0  0  0  0  0  0  0  0  # atno 10765 bound_to 10752
  140.9282  134.1354  157.4257 H   0  0  0  0  0  0  0  0  0  0  0  0  # atno 11005 bound_to 11000
  145.9640  139.2821  143.1138 LP  0  0  0  0  0  0  0  0  0  0  0  0  # atno 17320 bound_to 7965
  145.9189  140.9129  143.0415 LP  0  0  0  0  0  0  0  0  0  0  0  0  # atno 17321 bound_to 7965
  140.6949  143.7773  150.7311 LP  0  0  0  0  0  0  0  0  0  0  0  0  # atno 17342 bound_to 10162
  140.1266  143.4563  152.2280 LP  0  0  0  0  0  0  0  0  0  0  0  0  # atno 17343 bound_to 10162
  157.7280  131.0635  150.5838 LP  0  0  0  0  0  0  0  0  0  0  0  0  # atno 17370 bound_to 10713
  156.5933  130.4335  149.5927 LP  0  0  0  0  0  0  0  0  0  0  0  0  # atno 17371 bound_to 10713
  139.8790  134.9996  156.5962 LP  0  0  0  0  0  0  0  0  0  0  0  0  # atno 17394 bound_to 11000
  140.7897  133.8592  155.8636 LP  0  0  0  0  0  0  0  0  0  0  0  0  # atno 17395 bound_to 11000

$$$$
