AV-unprocessed.smi:2259|AV-procd|sdf|9130|dock7
  -GOLD-   2272012333D 1   1.00000     0.00000
 Structure written by MMmdl.
 39 40  0  0  0  0  0  0  0  0  1 V2000
  152.5903  143.1717  161.6014 C   0  0  0  0  0  0  0  0  0  0  0  0
  152.1331  142.9193  160.1757 C   0  0  0  0  0  0  0  0  0  0  0  0
  151.8387  141.5892  159.8627 N   0  0  0  0  0  0  0  0  0  0  0  0
  151.4502  141.2784  158.6696 C   0  0  0  0  0  0  0  0  0  0  0  0
  151.3141  142.2472  157.6603 N   0  0  0  0  0  0  0  0  0  0  0  0
  150.8621  141.7687  156.3407 C   0  0  0  0  0  0  0  0  0  0  0  0
  150.9741  140.2346  156.1756 C   0  0  2  0  0  0  0  0  0  0  0  0
  151.5498  139.9967  154.9072 O   0  0  0  0  0  0  0  0  0  0  0  0
  149.6219  139.5011  156.2379 C   0  0  0  0  0  0  0  0  0  0  0  0
  148.6552  140.3702  156.8128 O   0  0  0  0  0  0  0  0  0  0  0  0
  147.9393  141.1987  155.9751 C   0  0  0  0  0  0  0  0  0  0  0  0
  146.9883  142.0484  156.5765 C   0  0  0  0  0  0  0  0  0  0  0  0
  146.2103  142.9275  155.7987 C   0  0  0  0  0  0  0  0  0  0  0  0
  146.3771  142.9667  154.4003 C   0  0  0  0  0  0  0  0  0  0  0  0
  145.5748  143.8720  153.5945 C   0  0  0  0  0  0  0  0  0  0  0  0
  144.9363  144.5927  152.9529 N   0  0  0  0  0  0  0  0  0  0  0  0
  147.3255  142.1243  153.7872 C   0  0  0  0  0  0  0  0  0  0  0  0
  148.1024  141.2450  154.5671 C   0  0  0  0  0  0  0  0  0  0  0  0
  151.5604  143.5701  157.8880 C   0  0  0  0  0  0  0  0  0  0  0  0
  151.4127  144.4169  157.0047 O   0  0  0  0  0  0  0  0  0  0  0  0
  152.0111  143.9073  159.2481 C   0  0  0  0  0  0  0  0  0  0  0  0
  152.3178  145.3727  159.5315 C   0  0  0  0  0  0  0  0  0  0  0  0
  151.9172  143.8689  162.1010 H   0  0  0  0  0  0  0  0  0  0  0  0
  153.5971  143.5903  161.6109 H   0  0  0  0  0  0  0  0  0  0  0  0
  152.6065  142.2489  162.1828 H   0  0  0  0  0  0  0  0  0  0  0  0
  151.2127  140.2544  158.3762 H   0  0  0  0  0  0  0  0  0  0  0  0
  149.8384  142.0833  156.1272 H   0  0  0  0  0  0  0  0  0  0  0  0
  151.4636  142.2606  155.5735 H   0  0  0  0  0  0  0  0  0  0  0  0
  151.6462  139.8313  156.9337 H   0  0  0  0  0  0  0  0  0  0  0  0
  152.2470  139.3667  155.0053 H   0  0  0  0  0  0  0  0  0  0  0  0
  149.2876  139.2532  155.2304 H   0  0  0  0  0  0  0  0  0  0  0  0
  149.7127  138.5688  156.7985 H   0  0  0  0  0  0  0  0  0  0  0  0
  146.8526  142.0254  157.6480 H   0  0  0  0  0  0  0  0  0  0  0  0
  145.4869  143.5686  156.2820 H   0  0  0  0  0  0  0  0  0  0  0  0
  147.4631  142.1467  152.7156 H   0  0  0  0  0  0  0  0  0  0  0  0
  148.8182  140.6166  154.0598 H   0  0  0  0  0  0  0  0  0  0  0  0
  153.0955  145.7312  158.8565 H   0  0  0  0  0  0  0  0  0  0  0  0
  152.6611  145.5508  160.5492 H   0  0  0  0  0  0  0  0  0  0  0  0
  151.4262  145.9806  159.3743 H   0  0  0  0  0  0  0  0  0  0  0  0
  1  2  1  0  0  0  0
  1 23  1  0  0  0  0
  1 24  1  0  0  0  0
  1 25  1  0  0  0  0
  2 21  2  0  0  0  0
  2  3  1  0  0  0  0
  3  4  2  0  0  0  0
  4  5  1  0  0  0  0
  4 26  1  0  0  0  0
  5  6  1  0  0  0  0
  5 19  1  0  0  0  0
  6  7  1  0  0  0  0
  6 27  1  0  0  0  0
  6 28  1  0  0  0  0
  7  8  1  0  0  0  0
  7  9  1  0  0  0  0
  7 29  1  0  0  0  0
  8 30  1  0  0  0  0
  9 10  1  0  0  0  0
  9 31  1  0  0  0  0
  9 32  1  0  0  0  0
 10 11  1  0  0  0  0
 11 18  1  0  0  0  0
 11 12  2  0  0  0  0
 12 13  1  0  0  0  0
 12 33  1  0  0  0  0
 13 14  2  0  0  0  0
 13 34  1  0  0  0  0
 14 15  1  0  0  0  0
 14 17  1  0  0  0  0
 15 16  3  0  0  0  0
 17 18  2  0  0  0  0
 17 35  1  0  0  0  0
 18 36  1  0  0  0  0
 19 20  2  0  0  0  0
 19 21  1  0  0  0  0
 21 22  1  0  0  0  0
 22 37  1  0  0  0  0
 22 38  1  0  0  0  0
 22 39  1  0  0  0  0
M  END
> <s_m_source_file>
AV-unprocessed.smi

> <i_m_source_file_index>
2259

> <i_lp_mmshare_version>
43012

> <i_f3d_flags>
0

> <s_epik_input>
W0NIM11jMW5bY0hdbihjKD1PKWMxW0NIM10pW0NIMl1bQ0BIXShbT0hdKVtDSDJdT2MyW2NIXVtjSF1jKEMjTilbY0hdW2NIXTI=

> <s_epik_cmdline>
J2VwaWtfcHl0aG9uJywgJy1waCcsICc3LjAnLCAnLXRuJywgJzgnLCAnLW1hJywgJzIwMCcsICctbWV0YWxfYmluZGluZycsICctaW1hZScsICc8aW5maWxlLm1hZT4nLCAnLW9tYWUnLCAnPG91dGZpbGUubWFlPic=

> <r_lp_tautomer_probability>
1

> <r_epik_Ionization_Penalty>
3.47921e-05

> <r_epik_Ionization_Penalty_Charging>
7.82631e-08

> <r_epik_Ionization_Penalty_Neutral>
3.47138e-05

> <r_epik_State_Penalty>
-0

> <r_epik_Charging_Adjusted_Penalty>
7.82631e-08

> <i_epik_Tot_Q>
0

> <i_epik_Tot_abs_Q>
0

> <r_epik_Metal_State_Penalty>
-0

> <b_epik_Metal_Only>
0

> <s_lp_Force_Field>
OPLS_2005

> <r_lp_Energy>
23.7954

> <b_lp_Chiralities_Consistent>
1

> <s_lp_Variant>
AV-unprocessed.smi:2259-1

> <Gold.Version>
5.8.1

> <Gold.Id.Protein>
6NUR|6NUR_protein|mol2

> <Gold.PLP.Fitness>
44.2782

> <Gold.PLP.PLP>
-44.6588

> <Gold.PLP.part.hbond>
-1.2045

> <Gold.PLP.part.metal>
0.0000

> <Gold.PLP.part.buried>
-7.6476

> <Gold.PLP.part.nonpolar>
-37.4921

> <Gold.PLP.part.repulsive>
2.4800

> <Gold.PLP.ligand.clash>
0.1745

> <Gold.PLP.ligand.torsion>
1.6376

> <Gold.PLP.Chemscore.Hbond>
1.0000

> <Gold.PLP.Chemscore.CHOScore>
0.0000

> <Gold.PLP.Chemscore.Metal>
0.0000

> <Gold.Chemscore.Hbonds>
donor molecule, donor type, donor heavy atom, donor atom, acceptor molecule, acceptor atom, score
      P1  H  7989  7998       L1     8  1.00

> <Gold.PLP.Chemscore.Internal.Correction>
0.0692

> <Gold.Rescore>
     Score         DG    S(hbond)    S(metal)    S(lipo)     H(rot)  DE(clash)    DE(int)     intcor
      9.58     -12.64       0.99        0.00      91.18       2.66       0.36       2.69       ----

> <Gold.Chemscore.Fitness>
9.5848

> <Gold.Chemscore.DG>
-12.6387

> <Gold.Chemscore.ZeroCoef>
-5.4800

> <Gold.Chemscore.Hbond>
0.9854

> <Gold.Chemscore.Metal>
0.0000

> <Gold.Chemscore.Lipo>
91.1769

> <Gold.Chemscore.Internal_Hbond>
0.0000

> <Gold.Chemscore.DEClash>
0.3638

> <Gold.Chemscore.DEInternal>
2.6900

> <Gold.Chemscore.Rot>
2.6563

> <Gold.Chemscore.Internal.Correction>
   9.000000E+99

> <Gold.Chemscore.Hbonds>
donor molecule, donor type, donor heavy atom, donor atom, acceptor molecule, acceptor atom, score
      P1  H  7989  7998       L1     8  0.83

> <Gold.Chemscore.Hbond.Weighted>
-3.2912

> <Gold.Chemscore.Metal.Weighted>
-0.0000

> <Gold.Chemscore.Lipo.Weighted>
-10.6677

> <Gold.Chemscore.Internal_Hbond.Weighted>
0.0000

> <Gold.Chemscore.DEClash.Weighted>
0.3638

> <Gold.Chemscore.DEInternal.Weighted>
2.6900

> <Gold.Chemscore.Rot.Weighted>
6.8002

> <Gold.Chemscore.Internal.Correction.Weighted>
   9.000000E+99

> <Gold.Protein.RotatedTorsions>
[ 6907 6896 6895 6894 ] final  172.69 input  -60.11 | X-H torsion
[ 7974 7965 7964 7962 ] final -132.22 input  175.53 | X-H torsion
[ 8008 7997 7996 7995 ] final   54.15 input   59.86 | X-H torsion
[ 10167 10162 10161 10158 ] final -136.78 input  -65.29 | X-H torsion
[ 10718 10713 10712 10709 ] final  -81.16 input   66.30 | X-H torsion
[ 10763 10752 10751 10750 ] final  102.49 input  -60.55 | X-H torsion
[ 11005 11000 10999 10996 ] final  140.38 input  -57.11 | X-H torsion

> <Gold.Protein.ActiveResidues>
 VAL166  LYS551  ARG553  GLY616  TRP617  ASP618  TYR619  PRO620  LYS621  CYS622 
 ASP623  PHE694  ASN695  SER759  ASP760  ASP761  ALA762  ILE779  LEU786  VAL792 
 PHE793  MET794  SER795  GLU796  ALA797  LYS798  CYS799  TRP800  GLU811  SER814 

> <Gold.Protein.RotatedAtoms>
  151.7802  133.3349  159.3469 H   0  0  0  0  0  0  0  0  0  0  0  0  # atno 6907 bound_to 6896
  150.7429  134.5938  159.6010 H   0  0  0  0  0  0  0  0  0  0  0  0  # atno 6908 bound_to 6896
  152.3281  134.7296  160.0348 H   0  0  0  0  0  0  0  0  0  0  0  0  # atno 6909 bound_to 6896
  144.9306  140.7123  143.4908 H   0  0  0  0  0  0  0  0  0  0  0  0  # atno 7974 bound_to 7965
  155.4800  140.3468  155.4338 H   0  0  0  0  0  0  0  0  0  0  0  0  # atno 8008 bound_to 7997
  156.1045  140.1444  156.9451 H   0  0  0  0  0  0  0  0  0  0  0  0  # atno 8009 bound_to 7997
  154.4715  140.0899  156.7135 H   0  0  0  0  0  0  0  0  0  0  0  0  # atno 8010 bound_to 7997
  139.8644  143.7037  152.2647 H   0  0  0  0  0  0  0  0  0  0  0  0  # atno 10167 bound_to 10162
  156.0056  130.4595  150.3910 H   0  0  0  0  0  0  0  0  0  0  0  0  # atno 10718 bound_to 10713
  153.3403  135.4009  155.1566 H   0  0  0  0  0  0  0  0  0  0  0  0  # atno 10763 bound_to 10752
  154.8642  135.3632  154.5355 H   0  0  0  0  0  0  0  0  0  0  0  0  # atno 10764 bound_to 10752
  153.5799  135.7077  153.5527 H   0  0  0  0  0  0  0  0  0  0  0  0  # atno 10765 bound_to 10752
  140.0323  134.9346  157.0686 H   0  0  0  0  0  0  0  0  0  0  0  0  # atno 11005 bound_to 11000
  145.3148  139.1807  143.4619 LP  0  0  0  0  0  0  0  0  0  0  0  0  # atno 17320 bound_to 7965
  146.3245  140.3158  142.8630 LP  0  0  0  0  0  0  0  0  0  0  0  0  # atno 17321 bound_to 7965
  139.7343  144.7575  151.0752 LP  0  0  0  0  0  0  0  0  0  0  0  0  # atno 17342 bound_to 10162
  140.7770  143.5049  150.9724 LP  0  0  0  0  0  0  0  0  0  0  0  0  # atno 17343 bound_to 10162
  157.1984  131.0432  151.2663 LP  0  0  0  0  0  0  0  0  0  0  0  0  # atno 17370 bound_to 10713
  157.3998  130.7327  149.6758 LP  0  0  0  0  0  0  0  0  0  0  0  0  # atno 17371 bound_to 10713
  140.4205  134.1885  155.7164 LP  0  0  0  0  0  0  0  0  0  0  0  0  # atno 17394 bound_to 11000
  141.1838  133.8357  157.1163 LP  0  0  0  0  0  0  0  0  0  0  0  0  # atno 17395 bound_to 11000

$$$$
