AV-unprocessed.smi:2340|AV-procd|sdf|9346|dock1
  -GOLD-   2272012563D 1   1.00000     0.00000
 Structure written by MMmdl.
 40 41  0  0  0  0  0  0  0  0  1 V2000
  144.5982  132.2841  149.1570 C   0  0  0  0  0  0  0  0  0  0  0  0
  145.2047  133.0802  150.2689 C   0  0  0  0  0  0  0  0  0  0  0  0
  146.2813  132.7291  151.0446 C   0  0  0  0  0  0  0  0  0  0  0  0
  146.6581  133.9534  152.2248 S   0  0  0  0  0  0  0  0  0  0  0  0
  145.3149  134.9136  151.6132 C   0  0  0  0  0  0  0  0  0  0  0  0
  144.9632  136.2668  152.1538 C   0  0  2  0  0  0  0  0  0  0  0  0
  143.4772  136.3760  152.5235 C   0  0  0  0  0  0  0  0  0  0  0  0
  145.4477  137.4262  151.2538 C   0  0  0  0  0  0  0  0  0  0  0  0
  146.6336  138.0966  151.7798 N   0  0  0  0  0  0  0  0  0  0  0  0
  146.9102  138.2636  153.0796 C   0  0  0  0  0  0  0  0  0  0  0  0
  146.1610  137.9230  153.9953 O   0  0  0  0  0  0  0  0  0  0  0  0
  148.1144  138.8204  153.2616 N   0  0  0  0  0  0  0  0  0  0  0  0
  148.7294  139.0763  154.5626 C   0  0  1  0  0  0  0  0  0  0  0  0
  150.1085  138.4211  154.6683 C   0  0  0  0  0  0  0  0  0  0  0  0
  151.0245  139.5490  155.1329 C   0  0  0  0  0  0  0  0  0  0  0  0
  150.4123  140.7098  154.5998 O   0  0  0  0  0  0  0  0  0  0  0  0
  149.0143  140.5742  154.8076 C   0  0  1  0  0  0  0  0  0  0  0  0
  148.2458  141.5869  153.9431 C   0  0  0  0  0  0  0  0  0  0  0  0
  144.6665  134.3258  150.6030 N   0  0  0  0  0  0  0  0  0  0  0  0
  145.0923  131.3191  149.0416 H   0  0  0  0  0  0  0  0  0  0  0  0
  144.6793  132.8117  148.2065 H   0  0  0  0  0  0  0  0  0  0  0  0
  143.5408  132.0928  149.3410 H   0  0  0  0  0  0  0  0  0  0  0  0
  146.8745  131.8282  150.9929 H   0  0  0  0  0  0  0  0  0  0  0  0
  145.5072  136.3598  153.0946 H   0  0  0  0  0  0  0  0  0  0  0  0
  143.1933  135.6046  153.2398 H   0  0  0  0  0  0  0  0  0  0  0  0
  142.8412  136.2655  151.6448 H   0  0  0  0  0  0  0  0  0  0  0  0
  143.2556  137.3435  152.9745 H   0  0  0  0  0  0  0  0  0  0  0  0
  145.7122  137.0360  150.2705 H   0  0  0  0  0  0  0  0  0  0  0  0
  144.6470  138.1497  151.0928 H   0  0  0  0  0  0  0  0  0  0  0  0
  147.3153  138.4097  151.1042 H   0  0  0  0  0  0  0  0  0  0  0  0
  148.6580  139.0625  152.4461 H   0  0  0  0  0  0  0  0  0  0  0  0
  148.0675  138.7103  155.3495 H   0  0  0  0  0  0  0  0  0  0  0  0
  150.1187  137.5734  155.3540 H   0  0  0  0  0  0  0  0  0  0  0  0
  150.4469  138.0608  153.6952 H   0  0  0  0  0  0  0  0  0  0  0  0
  151.0419  139.6132  156.2219 H   0  0  0  0  0  0  0  0  0  0  0  0
  152.0489  139.4335  154.7783 H   0  0  0  0  0  0  0  0  0  0  0  0
  148.8195  140.7953  155.8586 H   0  0  0  0  0  0  0  0  0  0  0  0
  147.1688  141.4696  154.0646 H   0  0  0  0  0  0  0  0  0  0  0  0
  148.4828  141.4755  152.8847 H   0  0  0  0  0  0  0  0  0  0  0  0
  148.5014  142.6076  154.2280 H   0  0  0  0  0  0  0  0  0  0  0  0
  1  2  1  0  0  0  0
  1 20  1  0  0  0  0
  1 21  1  0  0  0  0
  1 22  1  0  0  0  0
  2 19  1  0  0  0  0
  2  3  2  0  0  0  0
  3  4  1  0  0  0  0
  3 23  1  0  0  0  0
  4  5  1  0  0  0  0
  5  6  1  0  0  0  0
  5 19  2  0  0  0  0
  6  7  1  0  0  0  0
  6  8  1  0  0  0  0
  6 24  1  0  0  0  0
  7 25  1  0  0  0  0
  7 26  1  0  0  0  0
  7 27  1  0  0  0  0
  8  9  1  0  0  0  0
  8 28  1  0  0  0  0
  8 29  1  0  0  0  0
  9 10  1  0  0  0  0
  9 30  1  0  0  0  0
 10 11  2  0  0  0  0
 10 12  1  0  0  0  0
 12 13  1  0  0  0  0
 12 31  1  0  0  0  0
 13 17  1  0  0  0  0
 13 14  1  0  0  0  0
 13 32  1  0  0  0  0
 14 15  1  0  0  0  0
 14 33  1  0  0  0  0
 14 34  1  0  0  0  0
 15 16  1  0  0  0  0
 15 35  1  0  0  0  0
 15 36  1  0  0  0  0
 16 17  1  0  0  0  0
 17 18  1  0  0  0  0
 17 37  1  0  0  0  0
 18 38  1  0  0  0  0
 18 39  1  0  0  0  0
 18 40  1  0  0  0  0
M  END
> <s_m_source_file>
AV-unprocessed.smi

> <i_m_source_file_index>
2340

> <i_lp_mmshare_version>
43012

> <i_f3d_flags>
0

> <s_epik_input>
W0NIM11jMVtjSF1zYyhuMSlbQ0BIXShbQ0gzXSlbQ0gyXVtOSF1DKD1PKVtOSF1bQ0BASF0yW0NIMl1bQ0gyXU9bQ0BIXTJbQ0gzXQ==

> <s_epik_cmdline>
J2VwaWtfcHl0aG9uJywgJy1waCcsICc3LjAnLCAnLXRuJywgJzgnLCAnLW1hJywgJzIwMCcsICctbWV0YWxfYmluZGluZycsICctaW1hZScsICc8aW5maWxlLm1hZT4nLCAnLW9tYWUnLCAnPG91dGZpbGUubWFlPic=

> <r_epik_Ionization_Penalty>
0.00156622

> <r_epik_Ionization_Penalty_Charging>
0

> <r_epik_Ionization_Penalty_Neutral>
0.00156622

> <r_epik_State_Penalty>
0.00101902

> <r_epik_Charging_Adjusted_Penalty>
0.00101902

> <i_epik_Tot_Q>
0

> <i_epik_Tot_abs_Q>
0

> <r_epik_Metal_State_Penalty>
-0

> <b_epik_Metal_Only>
0

> <s_lp_Force_Field>
OPLS_2005

> <r_lp_Energy>
5.02478

> <b_lp_Chiralities_Consistent>
1

> <s_lp_Variant>
AV-unprocessed.smi:2340-3

> <Gold.Version>
5.8.1

> <Gold.Id.Protein>
6NUR|6NUR_protein|mol2

> <Gold.PLP.Fitness>
39.6504

> <Gold.PLP.PLP>
-32.8312

> <Gold.PLP.part.hbond>
-3.7918

> <Gold.PLP.part.metal>
0.0000

> <Gold.PLP.part.buried>
1.2863

> <Gold.PLP.part.nonpolar>
-30.9924

> <Gold.PLP.part.repulsive>
0.5344

> <Gold.PLP.ligand.clash>
0.0000

> <Gold.PLP.ligand.torsion>
1.1590

> <Gold.PLP.Chemscore.Hbond>
1.9913

> <Gold.PLP.Chemscore.CHOScore>
1.0000

> <Gold.PLP.Chemscore.Metal>
0.0000

> <Gold.Chemscore.Hbonds>
donor molecule, donor type, donor heavy atom, donor atom, acceptor molecule, acceptor atom, score
      L1  H    12    31       P1  7957  1.00
      P1  H  7989  7998       L1    16  0.52
      L1  C     3    23       P1 10747  1.00

> <Gold.PLP.Chemscore.Internal.Correction>
0.1634

> <Gold.Rescore>
     Score         DG    S(hbond)    S(metal)    S(lipo)     H(rot)  DE(clash)    DE(int)     intcor
     13.80     -18.47       1.92        0.00      89.65       1.53       2.11       2.56       ----

> <Gold.Chemscore.Fitness>
13.8048

> <Gold.Chemscore.DG>
-18.4749

> <Gold.Chemscore.ZeroCoef>
-5.4800

> <Gold.Chemscore.Hbond>
1.9248

> <Gold.Chemscore.Metal>
0.0000

> <Gold.Chemscore.Lipo>
89.6530

> <Gold.Chemscore.Internal_Hbond>
0.0000

> <Gold.Chemscore.DEClash>
2.1097

> <Gold.Chemscore.DEInternal>
2.5603

> <Gold.Chemscore.Rot>
1.5325

> <Gold.Chemscore.Internal.Correction>
   9.000000E+99

> <Gold.Chemscore.Hbonds>
donor molecule, donor type, donor heavy atom, donor atom, acceptor molecule, acceptor atom, score
      L1  H    12    31       P1  7957  1.00
      P1  H  7989  7998       L1    16  0.04

> <Gold.Chemscore.Hbond.Weighted>
-6.4288

> <Gold.Chemscore.Metal.Weighted>
-0.0000

> <Gold.Chemscore.Lipo.Weighted>
-10.4894

> <Gold.Chemscore.Internal_Hbond.Weighted>
0.0000

> <Gold.Chemscore.DEClash.Weighted>
2.1097

> <Gold.Chemscore.DEInternal.Weighted>
2.5603

> <Gold.Chemscore.Rot.Weighted>
3.9233

> <Gold.Chemscore.Internal.Correction.Weighted>
   9.000000E+99

> <Gold.Protein.RotatedTorsions>
[ 6907 6896 6895 6894 ] final -136.08 input  -60.11 | X-H torsion
[ 7974 7965 7964 7962 ] final   61.81 input  175.53 | X-H torsion
[ 8008 7997 7996 7995 ] final   38.35 input   59.86 | X-H torsion
[ 10167 10162 10161 10158 ] final   -0.30 input  -65.29 | X-H torsion
[ 10718 10713 10712 10709 ] final  -35.76 input   66.30 | X-H torsion
[ 10763 10752 10751 10750 ] final  137.52 input  -60.55 | X-H torsion
[ 11005 11000 10999 10996 ] final   44.21 input  -57.11 | X-H torsion

> <Gold.Protein.ActiveResidues>
 VAL166  LYS551  ARG553  GLY616  TRP617  ASP618  TYR619  PRO620  LYS621  CYS622 
 ASP623  PHE694  ASN695  SER759  ASP760  ASP761  ALA762  ILE779  LEU786  VAL792 
 PHE793  MET794  SER795  GLU796  ALA797  LYS798  CYS799  TRP800  GLU811  SER814 

> <Gold.Protein.RotatedAtoms>
  151.0057  133.6013  159.2688 H   0  0  0  0  0  0  0  0  0  0  0  0  # atno 6907 bound_to 6896
  151.3183  135.0811  159.9306 H   0  0  0  0  0  0  0  0  0  0  0  0  # atno 6908 bound_to 6896
  152.5286  133.9709  159.7816 H   0  0  0  0  0  0  0  0  0  0  0  0  # atno 6909 bound_to 6896
  145.8805  139.3440  143.0709 H   0  0  0  0  0  0  0  0  0  0  0  0  # atno 7974 bound_to 7965
  155.2187  140.3329  155.4318 H   0  0  0  0  0  0  0  0  0  0  0  0  # atno 8008 bound_to 7997
  156.2342  140.1864  156.7212 H   0  0  0  0  0  0  0  0  0  0  0  0  # atno 8009 bound_to 7997
  154.6030  140.0620  156.9379 H   0  0  0  0  0  0  0  0  0  0  0  0  # atno 8010 bound_to 7997
  140.6761  143.6911  150.8027 H   0  0  0  0  0  0  0  0  0  0  0  0  # atno 10167 bound_to 10162
  156.3349  130.4285  149.7839 H   0  0  0  0  0  0  0  0  0  0  0  0  # atno 10718 bound_to 10713
  153.8744  135.3052  155.3443 H   0  0  0  0  0  0  0  0  0  0  0  0  # atno 10763 bound_to 10752
  154.7790  135.4845  153.9808 H   0  0  0  0  0  0  0  0  0  0  0  0  # atno 10764 bound_to 10752
  153.1387  135.6819  153.9157 H   0  0  0  0  0  0  0  0  0  0  0  0  # atno 10765 bound_to 10752
  140.1573  134.4386  155.8341 H   0  0  0  0  0  0  0  0  0  0  0  0  # atno 11005 bound_to 11000
  145.9029  140.9231  143.0493 LP  0  0  0  0  0  0  0  0  0  0  0  0  # atno 17320 bound_to 7965
  144.6727  140.1057  143.7458 LP  0  0  0  0  0  0  0  0  0  0  0  0  # atno 17321 bound_to 7965
  140.0604  143.5160  152.2630 LP  0  0  0  0  0  0  0  0  0  0  0  0  # atno 17342 bound_to 10162
  139.6055  144.7595  151.3072 LP  0  0  0  0  0  0  0  0  0  0  0  0  # atno 17343 bound_to 10162
  156.5098  130.8167  151.3164 LP  0  0  0  0  0  0  0  0  0  0  0  0  # atno 17370 bound_to 10713
  157.7437  130.9917  150.2612 LP  0  0  0  0  0  0  0  0  0  0  0  0  # atno 17371 bound_to 10713
  141.2206  133.6898  156.7530 LP  0  0  0  0  0  0  0  0  0  0  0  0  # atno 17394 bound_to 11000
  140.2532  134.8524  157.3688 LP  0  0  0  0  0  0  0  0  0  0  0  0  # atno 17395 bound_to 11000

$$$$
