AV-unprocessed.smi:2485|AV-procd|sdf|9788|dock5
  -GOLD-   2272013423D 1   1.00000     0.00000
 Structure written by MMmdl.
 39 40  0  0  0  0  0  0  0  0  1 V2000
  145.6647  132.2228  149.6224 C   0  0  0  0  0  0  0  0  0  0  0  0
  145.3950  132.6842  151.0625 C   0  0  0  0  0  0  0  0  0  0  0  0
  145.0056  131.4952  151.9575 C   0  0  0  0  0  0  0  0  0  0  0  0
  146.5669  133.4836  151.6448 C   0  0  0  0  0  0  0  0  0  0  0  0
  145.8806  134.5209  152.5108 C   0  0  1  0  0  0  0  0  0  0  0  0
  146.7264  135.6955  152.7126 N   0  0  0  0  0  0  0  0  0  0  0  0
  146.3537  136.8159  153.3465 C   0  0  0  0  0  0  0  0  0  0  0  0
  145.2460  136.9706  153.8607 O   0  0  0  0  0  0  0  0  0  0  0  0
  147.3409  137.7277  153.3375 N   0  0  0  0  0  0  0  0  0  0  0  0
  147.3252  139.0397  153.8790 C   0  0  0  0  0  0  0  0  0  0  0  0
  148.5470  139.7406  153.7976 C   0  0  0  0  0  0  0  0  0  0  0  0
  148.6020  141.0467  154.3134 C   0  0  0  0  0  0  0  0  0  0  0  0
  147.4242  141.5657  154.8775 C   0  0  0  0  0  0  0  0  0  0  0  0
  146.2750  140.8586  154.9337 N   0  0  0  0  0  0  0  0  0  0  0  0
  146.2304  139.6155  154.4416 N   0  0  0  0  0  0  0  0  0  0  0  0
  144.5855  134.8103  151.7202 C   0  0  0  0  0  0  0  0  0  0  0  0
  143.4008  135.1414  152.6416 C   0  0  0  0  0  0  0  0  0  0  0  0
  144.7376  135.8828  150.6209 C   0  0  0  0  0  0  0  0  0  0  0  0
  144.2891  133.5857  151.0502 O   0  0  0  0  0  0  0  0  0  0  0  0
  146.5156  131.5423  149.5795 H   0  0  0  0  0  0  0  0  0  0  0  0
  145.8814  133.0691  148.9697 H   0  0  0  0  0  0  0  0  0  0  0  0
  144.8007  131.7030  149.2074 H   0  0  0  0  0  0  0  0  0  0  0  0
  145.8173  130.7707  152.0270 H   0  0  0  0  0  0  0  0  0  0  0  0
  144.1321  130.9762  151.5617 H   0  0  0  0  0  0  0  0  0  0  0  0
  144.7618  131.8181  152.9698 H   0  0  0  0  0  0  0  0  0  0  0  0
  147.2738  132.8669  152.2011 H   0  0  0  0  0  0  0  0  0  0  0  0
  147.1233  133.9757  150.8453 H   0  0  0  0  0  0  0  0  0  0  0  0
  145.6411  134.0556  153.4689 H   0  0  0  0  0  0  0  0  0  0  0  0
  147.6561  135.6565  152.3214 H   0  0  0  0  0  0  0  0  0  0  0  0
  148.1996  137.4553  152.8827 H   0  0  0  0  0  0  0  0  0  0  0  0
  149.4223  139.2909  153.3522 H   0  0  0  0  0  0  0  0  0  0  0  0
  149.5117  141.6276  154.2781 H   0  0  0  0  0  0  0  0  0  0  0  0
  147.4022  142.5633  155.2903 H   0  0  0  0  0  0  0  0  0  0  0  0
  143.5676  136.0725  153.1831 H   0  0  0  0  0  0  0  0  0  0  0  0
  143.2393  134.3529  153.3772 H   0  0  0  0  0  0  0  0  0  0  0  0
  142.4779  135.2517  152.0718 H   0  0  0  0  0  0  0  0  0  0  0  0
  144.9204  136.8705  151.0450 H   0  0  0  0  0  0  0  0  0  0  0  0
  143.8317  135.9523  150.0180 H   0  0  0  0  0  0  0  0  0  0  0  0
  145.5609  135.6520  149.9448 H   0  0  0  0  0  0  0  0  0  0  0  0
  1  2  1  0  0  0  0
  1 20  1  0  0  0  0
  1 21  1  0  0  0  0
  1 22  1  0  0  0  0
  2 19  1  0  0  0  0
  2  3  1  0  0  0  0
  2  4  1  0  0  0  0
  3 23  1  0  0  0  0
  3 24  1  0  0  0  0
  3 25  1  0  0  0  0
  4  5  1  0  0  0  0
  4 26  1  0  0  0  0
  4 27  1  0  0  0  0
  5  6  1  0  0  0  0
  5 16  1  0  0  0  0
  5 28  1  0  0  0  0
  6  7  1  0  0  0  0
  6 29  1  0  0  0  0
  7  8  2  0  0  0  0
  7  9  1  0  0  0  0
  9 10  1  0  0  0  0
  9 30  1  0  0  0  0
 10 15  1  0  0  0  0
 10 11  2  0  0  0  0
 11 12  1  0  0  0  0
 11 31  1  0  0  0  0
 12 13  2  0  0  0  0
 12 32  1  0  0  0  0
 13 14  1  0  0  0  0
 13 33  1  0  0  0  0
 14 15  2  0  0  0  0
 16 17  1  0  0  0  0
 16 18  1  0  0  0  0
 16 19  1  0  0  0  0
 17 34  1  0  0  0  0
 17 35  1  0  0  0  0
 17 36  1  0  0  0  0
 18 37  1  0  0  0  0
 18 38  1  0  0  0  0
 18 39  1  0  0  0  0
M  END
> <s_m_source_file>
AV-unprocessed.smi

> <i_m_source_file_index>
2485

> <i_lp_mmshare_version>
43012

> <i_f3d_flags>
0

> <s_epik_input>
W0NIM11DMShbQ0gzXSlbQ0gyXVtDQEhdKEMoTzEpKFtDSDNdKVtDSDNdKVtOSF1DKD1PKVtOSF1jMltjSF1bY0hdW2NIXW5uMg==

> <s_epik_cmdline>
J2VwaWtfcHl0aG9uJywgJy1waCcsICc3LjAnLCAnLXRuJywgJzgnLCAnLW1hJywgJzIwMCcsICctbWV0YWxfYmluZGluZycsICctaW1hZScsICc8aW5maWxlLm1hZT4nLCAnLW9tYWUnLCAnPG91dGZpbGUubWFlPic=

> <r_lp_tautomer_probability>
1

> <r_epik_Ionization_Penalty>
0.00480341

> <r_epik_Ionization_Penalty_Charging>
0

> <r_epik_Ionization_Penalty_Neutral>
0.00480341

> <r_epik_State_Penalty>
-0

> <r_epik_Charging_Adjusted_Penalty>
0

> <i_epik_Tot_Q>
0

> <i_epik_Tot_abs_Q>
0

> <r_epik_Metal_State_Penalty>
-0

> <b_epik_Metal_Only>
0

> <s_lp_Force_Field>
OPLS_2005

> <r_lp_Energy>
24.1228

> <b_lp_Chiralities_Consistent>
1

> <s_lp_Variant>
AV-unprocessed.smi:2485-1

> <Gold.Version>
5.8.1

> <Gold.Id.Protein>
6NUR|6NUR_protein|mol2

> <Gold.PLP.Fitness>
34.5533

> <Gold.PLP.PLP>
-26.8206

> <Gold.PLP.part.hbond>
-1.6410

> <Gold.PLP.part.metal>
0.0000

> <Gold.PLP.part.buried>
0.1025

> <Gold.PLP.part.nonpolar>
-26.1417

> <Gold.PLP.part.repulsive>
0.5321

> <Gold.PLP.ligand.clash>
0.0000

> <Gold.PLP.ligand.torsion>
0.0186

> <Gold.PLP.Chemscore.Hbond>
1.7570

> <Gold.PLP.Chemscore.CHOScore>
0.8292

> <Gold.PLP.Chemscore.Metal>
0.0000

> <Gold.Chemscore.Hbonds>
donor molecule, donor type, donor heavy atom, donor atom, acceptor molecule, acceptor atom, score
      L1  H     6    29       P1  7948  0.84
      L1  H     9    30       P1  7948  0.90
      L1  C    13    33       P1  8028  0.80

> <Gold.PLP.Chemscore.Internal.Correction>
0.0111

> <Gold.Rescore>
     Score         DG    S(hbond)    S(metal)    S(lipo)     H(rot)  DE(clash)    DE(int)     intcor
     14.71     -17.29       1.93        0.00      67.58       1.00       0.49       2.09       ----

> <Gold.Chemscore.Fitness>
14.7091

> <Gold.Chemscore.DG>
-17.2873

> <Gold.Chemscore.ZeroCoef>
-5.4800

> <Gold.Chemscore.Hbond>
1.9342

> <Gold.Chemscore.Metal>
0.0000

> <Gold.Chemscore.Lipo>
67.5828

> <Gold.Chemscore.Internal_Hbond>
0.0000

> <Gold.Chemscore.DEClash>
0.4910

> <Gold.Chemscore.DEInternal>
2.0872

> <Gold.Chemscore.Rot>
1.0000

> <Gold.Chemscore.Internal.Correction>
   9.000000E+99

> <Gold.Chemscore.Hbonds>
donor molecule, donor type, donor heavy atom, donor atom, acceptor molecule, acceptor atom, score
      L1  H     6    29       P1  7948  0.83
      L1  H     9    30       P1  7948  0.88

> <Gold.Chemscore.Hbond.Weighted>
-6.4601

> <Gold.Chemscore.Metal.Weighted>
-0.0000

> <Gold.Chemscore.Lipo.Weighted>
-7.9072

> <Gold.Chemscore.Internal_Hbond.Weighted>
0.0000

> <Gold.Chemscore.DEClash.Weighted>
0.4910

> <Gold.Chemscore.DEInternal.Weighted>
2.0872

> <Gold.Chemscore.Rot.Weighted>
2.5600

> <Gold.Chemscore.Internal.Correction.Weighted>
   9.000000E+99

> <Gold.Protein.RotatedTorsions>
[ 6907 6896 6895 6894 ] final  -76.40 input  -60.11 | X-H torsion
[ 7974 7965 7964 7962 ] final  177.59 input  175.53 | X-H torsion
[ 8008 7997 7996 7995 ] final -170.70 input   59.86 | X-H torsion
[ 10167 10162 10161 10158 ] final   -2.62 input  -65.29 | X-H torsion
[ 10718 10713 10712 10709 ] final -147.07 input   66.30 | X-H torsion
[ 10763 10752 10751 10750 ] final  175.03 input  -60.55 | X-H torsion
[ 11005 11000 10999 10996 ] final  112.34 input  -57.11 | X-H torsion

> <Gold.Protein.ActiveResidues>
 VAL166  LYS551  ARG553  GLY616  TRP617  ASP618  TYR619  PRO620  LYS621  CYS622 
 ASP623  PHE694  ASN695  SER759  ASP760  ASP761  ALA762  ILE779  LEU786  VAL792 
 PHE793  MET794  SER795  GLU796  ALA797  LYS798  CYS799  TRP800  GLU811  SER814 

> <Gold.Protein.RotatedAtoms>
  150.7028  134.4577  159.5365 H   0  0  0  0  0  0  0  0  0  0  0  0  # atno 6907 bound_to 6896
  152.2258  134.8367  160.0489 H   0  0  0  0  0  0  0  0  0  0  0  0  # atno 6908 bound_to 6896
  151.9201  133.3548  159.3931 H   0  0  0  0  0  0  0  0  0  0  0  0  # atno 6909 bound_to 6896
  144.7167  140.0270  143.6439 H   0  0  0  0  0  0  0  0  0  0  0  0  # atno 7974 bound_to 7965
  155.9218  140.1075  157.1200 H   0  0  0  0  0  0  0  0  0  0  0  0  # atno 8008 bound_to 7997
  154.4055  140.1254  156.4755 H   0  0  0  0  0  0  0  0  0  0  0  0  # atno 8009 bound_to 7997
  155.7186  140.3470  155.5008 H   0  0  0  0  0  0  0  0  0  0  0  0  # atno 8010 bound_to 7997
  140.6858  143.6636  150.8246 H   0  0  0  0  0  0  0  0  0  0  0  0  # atno 10167 bound_to 10162
  156.4028  130.7942  151.2154 H   0  0  0  0  0  0  0  0  0  0  0  0  # atno 10718 bound_to 10713
  154.4621  135.2768  155.1705 H   0  0  0  0  0  0  0  0  0  0  0  0  # atno 10763 bound_to 10752
  154.3489  135.6154  153.5636 H   0  0  0  0  0  0  0  0  0  0  0  0  # atno 10764 bound_to 10752
  152.9856  135.5806  154.4985 H   0  0  0  0  0  0  0  0  0  0  0  0  # atno 10765 bound_to 10752
  139.8925  134.9528  156.6571 H   0  0  0  0  0  0  0  0  0  0  0  0  # atno 11005 bound_to 11000
  146.0134  139.3189  143.0857 LP  0  0  0  0  0  0  0  0  0  0  0  0  # atno 17320 bound_to 7965
  145.8655  140.9450  143.0678 LP  0  0  0  0  0  0  0  0  0  0  0  0  # atno 17321 bound_to 7965
  140.0342  143.5412  152.2746 LP  0  0  0  0  0  0  0  0  0  0  0  0  # atno 17342 bound_to 10162
  139.6216  144.7630  151.2729 LP  0  0  0  0  0  0  0  0  0  0  0  0  # atno 17343 bound_to 10162
  157.7504  131.0281  150.4036 LP  0  0  0  0  0  0  0  0  0  0  0  0  # atno 17370 bound_to 10713
  156.4319  130.3974  149.6755 LP  0  0  0  0  0  0  0  0  0  0  0  0  # atno 17371 bound_to 10713
  140.7476  133.8925  155.8323 LP  0  0  0  0  0  0  0  0  0  0  0  0  # atno 17394 bound_to 11000
  141.0027  134.1128  157.4301 LP  0  0  0  0  0  0  0  0  0  0  0  0  # atno 17395 bound_to 11000

$$$$
