AV-unprocessed.smi:3144|AV-procd|sdf|11978|dock4
  -GOLD-   2272017373D 1   1.00000     0.00000
 Structure written by MMmdl.
 40 41  0  0  0  0  0  0  0  0  2 V2000
  144.1603  131.6940  150.6880 C   0  0  0  0  0  0  0  0  0  0  0  0
  144.5715  133.0615  151.1526 C   0  0  0  0  0  0  0  0  0  0  0  0
  144.2883  133.6799  152.4035 C   0  0  0  0  0  0  0  0  0  0  0  0
  144.7950  134.8985  152.5010 N   0  0  0  0  0  0  0  0  0  0  0  0
  145.4173  135.1001  151.3207 N   0  0  0  0  0  0  0  0  0  0  0  0
  146.0972  136.3565  151.0736 C   0  0  0  0  0  0  0  0  0  0  0  0
  145.9831  137.3081  152.2732 C   0  0  0  0  0  0  0  0  0  0  0  0
  146.9733  138.3978  152.1804 N   0  3  0  0  0  0  0  0  0  0  0  0
  146.8360  139.4262  153.2312 C   0  0  0  0  0  0  0  0  0  0  0  0
  148.1936  140.0584  153.5893 C   0  0  0  0  0  0  0  0  0  0  0  0
  149.1745  138.9919  154.1192 C   0  0  0  0  0  0  0  0  0  0  0  0
  150.5397  139.6015  154.4775 C   0  0  0  0  0  0  0  0  0  0  0  0
  150.3892  140.7442  155.4928 C   0  0  0  0  0  0  0  0  0  0  0  0
  149.4138  141.8137  154.9791 C   0  0  0  0  0  0  0  0  0  0  0  0
  148.0506  141.1997  154.6206 C   0  0  0  0  0  0  0  0  0  0  0  0
  145.2993  134.0078  150.4878 C   0  0  0  0  0  0  0  0  0  0  0  0
  144.0802  130.9926  151.5188 H   0  0  0  0  0  0  0  0  0  0  0  0
  144.8769  131.2730  149.9823 H   0  0  0  0  0  0  0  0  0  0  0  0
  143.1907  131.7143  150.1900 H   0  0  0  0  0  0  0  0  0  0  0  0
  143.7320  133.2809  153.2390 H   0  0  0  0  0  0  0  0  0  0  0  0
  147.1440  136.1455  150.8492 H   0  0  0  0  0  0  0  0  0  0  0  0
  145.6678  136.8143  150.1814 H   0  0  0  0  0  0  0  0  0  0  0  0
  144.9799  137.7343  152.3165 H   0  0  0  0  0  0  0  0  0  0  0  0
  146.1424  136.7615  153.2037 H   0  0  0  0  0  0  0  0  0  0  0  0
  147.8982  137.9964  152.2429 H   0  0  0  0  0  0  0  0  0  0  0  0
  146.1339  140.1945  152.9041 H   0  0  0  0  0  0  0  0  0  0  0  0
  146.4039  138.9561  154.1158 H   0  0  0  0  0  0  0  0  0  0  0  0
  148.6227  140.4745  152.6759 H   0  0  0  0  0  0  0  0  0  0  0  0
  148.7520  138.5069  155.0004 H   0  0  0  0  0  0  0  0  0  0  0  0
  149.3136  138.2077  153.3740 H   0  0  0  0  0  0  0  0  0  0  0  0
  151.1968  138.8307  154.8814 H   0  0  0  0  0  0  0  0  0  0  0  0
  151.0221  139.9758  153.5734 H   0  0  0  0  0  0  0  0  0  0  0  0
  150.0283  140.3455  156.4417 H   0  0  0  0  0  0  0  0  0  0  0  0
  151.3617  141.1936  155.6959 H   0  0  0  0  0  0  0  0  0  0  0  0
  149.2852  142.5909  155.7329 H   0  0  0  0  0  0  0  0  0  0  0  0
  149.8372  142.3027  154.1007 H   0  0  0  0  0  0  0  0  0  0  0  0
  147.3976  141.9825  154.2340 H   0  0  0  0  0  0  0  0  0  0  0  0
  147.5744  140.8220  155.5263 H   0  0  0  0  0  0  0  0  0  0  0  0
  145.7373  133.9934  149.5006 H   0  0  0  0  0  0  0  0  0  0  0  0
  146.8754  138.8457  151.2806 H   0  0  0  0  0  0  0  0  0  0  0  0
  1  2  1  0  0  0  0
  1 17  1  0  0  0  0
  1 18  1  0  0  0  0
  1 19  1  0  0  0  0
  2 16  2  0  0  0  0
  2  3  1  0  0  0  0
  3  4  2  0  0  0  0
  3 20  1  0  0  0  0
  4  5  1  0  0  0  0
  5  6  1  0  0  0  0
  5 16  1  0  0  0  0
  6  7  1  0  0  0  0
  6 21  1  0  0  0  0
  6 22  1  0  0  0  0
  7  8  1  0  0  0  0
  7 23  1  0  0  0  0
  7 24  1  0  0  0  0
  8  9  1  0  0  0  0
  8 25  1  0  0  0  0
  8 40  1  0  0  0  0
  9 10  1  0  0  0  0
  9 26  1  0  0  0  0
  9 27  1  0  0  0  0
 10 15  1  0  0  0  0
 10 11  1  0  0  0  0
 10 28  1  0  0  0  0
 11 12  1  0  0  0  0
 11 29  1  0  0  0  0
 11 30  1  0  0  0  0
 12 13  1  0  0  0  0
 12 31  1  0  0  0  0
 12 32  1  0  0  0  0
 13 14  1  0  0  0  0
 13 33  1  0  0  0  0
 13 34  1  0  0  0  0
 14 15  1  0  0  0  0
 14 35  1  0  0  0  0
 14 36  1  0  0  0  0
 15 37  1  0  0  0  0
 15 38  1  0  0  0  0
 16 39  1  0  0  0  0
M  CHG  1   8   1
M  END
> <s_m_source_file>
AV-unprocessed.smi

> <i_m_source_file_index>
3144

> <i_lp_mmshare_version>
43012

> <i_f3d_flags>
0

> <s_epik_input>
W0NIM11jMVtjSF1ubihbY0hdMSlbQ0gyXVtDSDJdW05IXVtDSDJdW0NIXTJbQ0gyXVtDSDJdW0NIMl1bQ0gyXVtDSDJdMg==

> <s_epik_cmdline>
J2VwaWtfcHl0aG9uJywgJy1waCcsICc3LjAnLCAnLXRuJywgJzgnLCAnLW1hJywgJzIwMCcsICctbWV0YWxfYmluZGluZycsICctaW1hZScsICc8aW5maWxlLm1hZT4nLCAnLW9tYWUnLCAnPG91dGZpbGUubWFlPic=

> <r_lp_tautomer_probability>
1

> <r_epik_Ionization_Penalty>
0.0017464

> <r_epik_Ionization_Penalty_Charging>
0.00174052

> <r_epik_Ionization_Penalty_Neutral>
5.87243e-06

> <r_epik_State_Penalty>
-0

> <r_epik_Charging_Adjusted_Penalty>
0.00174052

> <i_epik_Tot_Q>
1

> <i_epik_Tot_abs_Q>
1

> <r_epik_Metal_State_Penalty>
-0

> <b_epik_Metal_Only>
0

> <s_lp_Force_Field>
OPLS_2005

> <r_lp_Energy>
13.1437

> <b_lp_Chiralities_Consistent>
1

> <s_lp_Variant>
AV-unprocessed.smi:3144-1

> <Gold.Version>
5.8.1

> <Gold.Id.Protein>
6NUR|6NUR_protein|mol2

> <Gold.PLP.Fitness>
44.1793

> <Gold.PLP.PLP>
-32.7067

> <Gold.PLP.part.hbond>
-1.3224

> <Gold.PLP.part.metal>
0.0000

> <Gold.PLP.part.buried>
1.8388

> <Gold.PLP.part.nonpolar>
-33.9657

> <Gold.PLP.part.repulsive>
0.1640

> <Gold.PLP.ligand.clash>
0.0000

> <Gold.PLP.ligand.torsion>
0.2698

> <Gold.PLP.Chemscore.Hbond>
1.9840

> <Gold.PLP.Chemscore.CHOScore>
2.0000

> <Gold.PLP.Chemscore.Metal>
0.0000

> <Gold.Chemscore.Hbonds>
donor molecule, donor type, donor heavy atom, donor atom, acceptor molecule, acceptor atom, score
      L1  H     8    25       P1  7948  1.54
      L1  C     3    20       P1 10957  1.00
      L1  C    16    39       P1  7921  1.00

> <Gold.PLP.Chemscore.Internal.Correction>
0.0602

> <Gold.Rescore>
     Score         DG    S(hbond)    S(metal)    S(lipo)     H(rot)  DE(clash)    DE(int)     intcor
     13.54     -15.61       0.96        0.00      92.15       1.50       1.64       0.43       ----

> <Gold.Chemscore.Fitness>
13.5432

> <Gold.Chemscore.DG>
-15.6056

> <Gold.Chemscore.ZeroCoef>
-5.4800

> <Gold.Chemscore.Hbond>
0.9560

> <Gold.Chemscore.Metal>
0.0000

> <Gold.Chemscore.Lipo>
92.1501

> <Gold.Chemscore.Internal_Hbond>
0.0000

> <Gold.Chemscore.DEClash>
1.6367

> <Gold.Chemscore.DEInternal>
0.4257

> <Gold.Chemscore.Rot>
1.5036

> <Gold.Chemscore.Internal.Correction>
   9.000000E+99

> <Gold.Chemscore.Hbonds>
donor molecule, donor type, donor heavy atom, donor atom, acceptor molecule, acceptor atom, score
      L1  H     8    25       P1  7948  0.72

> <Gold.Chemscore.Hbond.Weighted>
-3.1932

> <Gold.Chemscore.Metal.Weighted>
-0.0000

> <Gold.Chemscore.Lipo.Weighted>
-10.7816

> <Gold.Chemscore.Internal_Hbond.Weighted>
0.0000

> <Gold.Chemscore.DEClash.Weighted>
1.6367

> <Gold.Chemscore.DEInternal.Weighted>
0.4257

> <Gold.Chemscore.Rot.Weighted>
3.8492

> <Gold.Chemscore.Internal.Correction.Weighted>
   9.000000E+99

> <Gold.Protein.RotatedTorsions>
[ 6907 6896 6895 6894 ] final   95.42 input  -60.11 | X-H torsion
[ 7974 7965 7964 7962 ] final  159.92 input  175.53 | X-H torsion
[ 8008 7997 7996 7995 ] final  163.83 input   59.86 | X-H torsion
[ 10167 10162 10161 10158 ] final   45.57 input  -65.29 | X-H torsion
[ 10718 10713 10712 10709 ] final  102.84 input   66.30 | X-H torsion
[ 10763 10752 10751 10750 ] final    0.81 input  -60.55 | X-H torsion
[ 11005 11000 10999 10996 ] final  -72.70 input  -57.11 | X-H torsion

> <Gold.Protein.ActiveResidues>
 VAL166  LYS551  ARG553  GLY616  TRP617  ASP618  TYR619  PRO620  LYS621  CYS622 
 ASP623  PHE694  ASN695  SER759  ASP760  ASP761  ALA762  ILE779  LEU786  VAL792 
 PHE793  MET794  SER795  GLU796  ALA797  LYS798  CYS799  TRP800  GLU811  SER814 

> <Gold.Protein.RotatedAtoms>
  152.5443  134.1042  159.8330 H   0  0  0  0  0  0  0  0  0  0  0  0  # atno 6907 bound_to 6896
  151.1116  133.5161  159.2613 H   0  0  0  0  0  0  0  0  0  0  0  0  # atno 6908 bound_to 6896
  151.1877  135.0398  159.8874 H   0  0  0  0  0  0  0  0  0  0  0  0  # atno 6909 bound_to 6896
  144.7764  139.7685  143.6277 H   0  0  0  0  0  0  0  0  0  0  0  0  # atno 7974 bound_to 7965
  156.1926  140.1713  156.8061 H   0  0  0  0  0  0  0  0  0  0  0  0  # atno 8008 bound_to 7997
  154.5490  140.0721  156.8669 H   0  0  0  0  0  0  0  0  0  0  0  0  # atno 8009 bound_to 7997
  155.3065  140.3365  155.4248 H   0  0  0  0  0  0  0  0  0  0  0  0  # atno 8010 bound_to 7997
  140.3227  144.2685  150.6180 H   0  0  0  0  0  0  0  0  0  0  0  0  # atno 10167 bound_to 10162
  157.6790  131.0763  150.5465 H   0  0  0  0  0  0  0  0  0  0  0  0  # atno 10718 bound_to 10713
  153.3160  135.6966  153.7073 H   0  0  0  0  0  0  0  0  0  0  0  0  # atno 10763 bound_to 10752
  153.5931  135.3476  155.2919 H   0  0  0  0  0  0  0  0  0  0  0  0  # atno 10764 bound_to 10752
  154.8586  135.4323  154.2311 H   0  0  0  0  0  0  0  0  0  0  0  0  # atno 10765 bound_to 10752
  141.1612  133.6855  156.7099 H   0  0  0  0  0  0  0  0  0  0  0  0  # atno 11005 bound_to 11000
  146.1946  139.5205  142.9783 LP  0  0  0  0  0  0  0  0  0  0  0  0  # atno 17320 bound_to 7965
  145.6174  141.0329  143.1933 LP  0  0  0  0  0  0  0  0  0  0  0  0  # atno 17321 bound_to 7965
  140.5468  143.2213  151.7993 LP  0  0  0  0  0  0  0  0  0  0  0  0  # atno 17342 bound_to 10162
  139.4871  144.4528  151.9633 LP  0  0  0  0  0  0  0  0  0  0  0  0  # atno 17343 bound_to 10162
  156.5771  130.4295  149.5993 LP  0  0  0  0  0  0  0  0  0  0  0  0  # atno 17370 bound_to 10713
  156.2692  130.7007  151.1799 LP  0  0  0  0  0  0  0  0  0  0  0  0  # atno 17371 bound_to 10713
  140.2895  134.8252  157.4004 LP  0  0  0  0  0  0  0  0  0  0  0  0  # atno 17394 bound_to 11000
  140.1360  134.5034  155.8068 LP  0  0  0  0  0  0  0  0  0  0  0  0  # atno 17395 bound_to 11000

$$$$
