AV-unprocessed.smi:3204|AV-procd|sdf|12252|dock8
  -GOLD-   2272018 83D 1   1.00000     0.00000
 Structure written by MMmdl.
 30 31  0  0  0  0  0  0  0  0  1 V2000
  153.2010  142.7958  162.0539 C   0  0  0  0  0  0  0  0  0  0  0  0
  152.3752  142.9906  160.7773 C   0  0  0  0  0  0  0  0  0  0  0  0
  152.6249  141.8938  159.7589 C   0  0  0  0  0  0  0  0  0  0  0  0
  153.7198  141.1242  159.9507 N   0  0  0  0  0  0  0  0  0  0  0  0
  153.9496  140.1691  159.0465 C   0  0  0  0  0  0  0  0  0  0  0  0
  153.2106  139.8955  157.9681 N   0  0  0  0  0  0  0  0  0  0  0  0
  152.1117  140.6595  157.7600 C   0  0  0  0  0  0  0  0  0  0  0  0
  151.3047  140.4209  156.6383 N   0  0  0  0  0  0  0  0  0  0  0  0
  151.2263  139.1006  156.0205 C   0  0  2  0  0  0  0  0  0  0  0  0
  152.4691  138.7207  155.2263 C   0  0  0  0  0  0  0  0  0  0  0  0
  152.0292  137.6126  154.4533 O   0  0  0  0  0  0  0  0  0  0  0  0
  150.6483  137.7723  154.1278 C   0  0  0  0  0  0  0  0  0  0  0  0
  150.1271  138.9415  154.9754 C   0  0  2  0  0  0  0  0  0  0  0  0
  150.0023  140.0859  154.1492 O   0  0  0  0  0  0  0  0  0  0  0  0
  151.7692  141.6979  158.6526 C   0  0  0  0  0  0  0  0  0  0  0  0
  150.6751  142.4728  158.4523 F   0  0  0  0  0  0  0  0  0  0  0  0
  153.0037  143.5937  162.7699 H   0  0  0  0  0  0  0  0  0  0  0  0
  154.2691  142.8019  161.8343 H   0  0  0  0  0  0  0  0  0  0  0  0
  152.9632  141.8477  162.5368 H   0  0  0  0  0  0  0  0  0  0  0  0
  151.3133  143.0112  161.0257 H   0  0  0  0  0  0  0  0  0  0  0  0
  152.6024  143.9604  160.3339 H   0  0  0  0  0  0  0  0  0  0  0  0
  154.8236  139.5546  159.2031 H   0  0  0  0  0  0  0  0  0  0  0  0
  150.7032  141.1555  156.2940 H   0  0  0  0  0  0  0  0  0  0  0  0
  151.0879  138.3489  156.7992 H   0  0  0  0  0  0  0  0  0  0  0  0
  152.7768  139.5271  154.5586 H   0  0  0  0  0  0  0  0  0  0  0  0
  153.3149  138.4572  155.8618 H   0  0  0  0  0  0  0  0  0  0  0  0
  150.5182  137.9372  153.0572 H   0  0  0  0  0  0  0  0  0  0  0  0
  150.1292  136.8480  154.3832 H   0  0  0  0  0  0  0  0  0  0  0  0
  149.1578  138.7234  155.4247 H   0  0  0  0  0  0  0  0  0  0  0  0
  149.5010  139.8470  153.3848 H   0  0  0  0  0  0  0  0  0  0  0  0
  1  2  1  0  0  0  0
  1 17  1  0  0  0  0
  1 18  1  0  0  0  0
  1 19  1  0  0  0  0
  2  3  1  0  0  0  0
  2 20  1  0  0  0  0
  2 21  1  0  0  0  0
  3 15  1  0  0  0  0
  3  4  2  0  0  0  0
  4  5  1  0  0  0  0
  5  6  2  0  0  0  0
  5 22  1  0  0  0  0
  6  7  1  0  0  0  0
  7  8  1  0  0  0  0
  7 15  2  0  0  0  0
  8  9  1  0  0  0  0
  8 23  1  0  0  0  0
  9 13  1  0  0  0  0
  9 10  1  0  0  0  0
  9 24  1  0  0  0  0
 10 11  1  0  0  0  0
 10 25  1  0  0  0  0
 10 26  1  0  0  0  0
 11 12  1  0  0  0  0
 12 13  1  0  0  0  0
 12 27  1  0  0  0  0
 12 28  1  0  0  0  0
 13 14  1  0  0  0  0
 13 29  1  0  0  0  0
 14 30  1  0  0  0  0
 15 16  1  0  0  0  0
M  END
> <s_m_source_file>
AV-unprocessed.smi

> <i_m_source_file_index>
3204

> <i_lp_mmshare_version>
43012

> <i_f3d_flags>
0

> <s_epik_input>
W0NIM11bQ0gyXWMxbltjSF1uYyhjMUYpW05IXVtDQEBIXTJbQ0gyXU9bQ0gyXVtDQEhdMltPSF0=

> <s_epik_cmdline>
J2VwaWtfcHl0aG9uJywgJy1waCcsICc3LjAnLCAnLXRuJywgJzgnLCAnLW1hJywgJzIwMCcsICctbWV0YWxfYmluZGluZycsICctaW1hZScsICc8aW5maWxlLm1hZT4nLCAnLW9tYWUnLCAnPG91dGZpbGUubWFlPic=

> <r_lp_tautomer_probability>
1

> <r_epik_Ionization_Penalty>
0.000484964

> <r_epik_Ionization_Penalty_Charging>
0

> <r_epik_Ionization_Penalty_Neutral>
0.000484964

> <r_epik_State_Penalty>
-0

> <r_epik_Charging_Adjusted_Penalty>
0

> <i_epik_Tot_Q>
0

> <i_epik_Tot_abs_Q>
0

> <r_epik_Metal_State_Penalty>
-0

> <b_epik_Metal_Only>
0

> <s_lp_Force_Field>
OPLS_2005

> <r_lp_Energy>
19.3266

> <b_lp_Chiralities_Consistent>
1

> <s_lp_Variant>
AV-unprocessed.smi:3204-3

> <Gold.Version>
5.8.1

> <Gold.Id.Protein>
6NUR|6NUR_protein|mol2

> <Gold.PLP.Fitness>
43.2052

> <Gold.PLP.PLP>
-32.6949

> <Gold.PLP.part.hbond>
-3.7637

> <Gold.PLP.part.metal>
0.0000

> <Gold.PLP.part.buried>
-3.8413

> <Gold.PLP.part.nonpolar>
-26.0505

> <Gold.PLP.part.repulsive>
0.2342

> <Gold.PLP.ligand.clash>
0.0000

> <Gold.PLP.ligand.torsion>
0.4710

> <Gold.PLP.Chemscore.Hbond>
3.8145

> <Gold.PLP.Chemscore.CHOScore>
0.0000

> <Gold.PLP.Chemscore.Metal>
0.0000

> <Gold.Chemscore.Hbonds>
donor molecule, donor type, donor heavy atom, donor atom, acceptor molecule, acceptor atom, score
      L1  H    14    30       P1  7957  0.38
      P1  H  7989  7998       L1    14  0.94
      P1  H  7997  8008       L1     6  0.91
      P1  H 10752 10765       L1    11  0.59

> <Gold.PLP.Chemscore.Internal.Correction>
0.0087

> <Gold.Rescore>
     Score         DG    S(hbond)    S(metal)    S(lipo)     H(rot)  DE(clash)    DE(int)     intcor
     16.79     -17.38       2.61        0.00      67.34       1.83       0.07       0.51       ----

> <Gold.Chemscore.Fitness>
16.7948

> <Gold.Chemscore.DG>
-17.3790

> <Gold.Chemscore.ZeroCoef>
-5.4800

> <Gold.Chemscore.Hbond>
2.6092

> <Gold.Chemscore.Metal>
0.0000

> <Gold.Chemscore.Lipo>
67.3363

> <Gold.Chemscore.Internal_Hbond>
0.0000

> <Gold.Chemscore.DEClash>
0.0703

> <Gold.Chemscore.DEInternal>
0.5139

> <Gold.Chemscore.Rot>
1.8337

> <Gold.Chemscore.Internal.Correction>
   9.000000E+99

> <Gold.Chemscore.Hbonds>
donor molecule, donor type, donor heavy atom, donor atom, acceptor molecule, acceptor atom, score
      L1  H    14    30       P1  7957  0.39
      P1  H  7989  7998       L1    14  0.43
      P1  H  7997  8008       L1     6  0.18
      P1  H 10752 10765       L1    11  0.57

> <Gold.Chemscore.Hbond.Weighted>
-8.7149

> <Gold.Chemscore.Metal.Weighted>
-0.0000

> <Gold.Chemscore.Lipo.Weighted>
-7.8783

> <Gold.Chemscore.Internal_Hbond.Weighted>
0.0000

> <Gold.Chemscore.DEClash.Weighted>
0.0703

> <Gold.Chemscore.DEInternal.Weighted>
0.5139

> <Gold.Chemscore.Rot.Weighted>
4.6942

> <Gold.Chemscore.Internal.Correction.Weighted>
   9.000000E+99

> <Gold.Protein.RotatedTorsions>
[ 6907 6896 6895 6894 ] final  -93.04 input  -60.11 | X-H torsion
[ 7974 7965 7964 7962 ] final -101.54 input  175.53 | X-H torsion
[ 8008 7997 7996 7995 ] final  -65.58 input   59.86 | X-H torsion
[ 10167 10162 10161 10158 ] final   66.12 input  -65.29 | X-H torsion
[ 10718 10713 10712 10709 ] final  -14.48 input   66.30 | X-H torsion
[ 10763 10752 10751 10750 ] final  163.91 input  -60.55 | X-H torsion
[ 11005 11000 10999 10996 ] final   20.25 input  -57.11 | X-H torsion

> <Gold.Protein.ActiveResidues>
 VAL166  LYS551  ARG553  GLY616  TRP617  ASP618  TYR619  PRO620  LYS621  CYS622 
 ASP623  PHE694  ASN695  SER759  ASP760  ASP761  ALA762  ILE779  LEU786  VAL792 
 PHE793  MET794  SER795  GLU796  ALA797  LYS798  CYS799  TRP800  GLU811  SER814 

> <Gold.Protein.RotatedAtoms>
  150.6916  134.2028  159.4328 H   0  0  0  0  0  0  0  0  0  0  0  0  # atno 6907 bound_to 6896
  151.9994  134.9934  160.0574 H   0  0  0  0  0  0  0  0  0  0  0  0  # atno 6908 bound_to 6896
  152.1593  133.4536  159.4889 H   0  0  0  0  0  0  0  0  0  0  0  0  # atno 6909 bound_to 6896
  145.2803  140.9324  143.2935 H   0  0  0  0  0  0  0  0  0  0  0  0  # atno 7974 bound_to 7965
  154.4680  140.0930  156.7072 H   0  0  0  0  0  0  0  0  0  0  0  0  # atno 8008 bound_to 7997
  155.4802  140.3467  155.4320 H   0  0  0  0  0  0  0  0  0  0  0  0  # atno 8009 bound_to 7997
  156.0991  140.1417  156.9480 H   0  0  0  0  0  0  0  0  0  0  0  0  # atno 8010 bound_to 7997
  140.1038  144.4880  150.7020 H   0  0  0  0  0  0  0  0  0  0  0  0  # atno 10167 bound_to 10162
  156.6154  130.4861  149.6185 H   0  0  0  0  0  0  0  0  0  0  0  0  # atno 10718 bound_to 10713
  154.3009  135.2759  155.2611 H   0  0  0  0  0  0  0  0  0  0  0  0  # atno 10763 bound_to 10752
  154.5049  135.5798  153.6563 H   0  0  0  0  0  0  0  0  0  0  0  0  # atno 10764 bound_to 10752
  152.9901  135.6167  154.3179 H   0  0  0  0  0  0  0  0  0  0  0  0  # atno 10765 bound_to 10752
  140.4047  134.1681  155.7665 H   0  0  0  0  0  0  0  0  0  0  0  0  # atno 11005 bound_to 11000
  144.9259  139.4356  143.6519 LP  0  0  0  0  0  0  0  0  0  0  0  0  # atno 17320 bound_to 7965
  146.3218  139.8144  142.8939 LP  0  0  0  0  0  0  0  0  0  0  0  0  # atno 17321 bound_to 7965
  140.6963  143.2406  151.4991 LP  0  0  0  0  0  0  0  0  0  0  0  0  # atno 17342 bound_to 10162
  139.5656  144.2050  152.1760 LP  0  0  0  0  0  0  0  0  0  0  0  0  # atno 17343 bound_to 10162
  156.2355  130.6820  151.1505 LP  0  0  0  0  0  0  0  0  0  0  0  0  # atno 17370 bound_to 10713
  157.7242  131.0661  150.6003 LP  0  0  0  0  0  0  0  0  0  0  0  0  # atno 17371 bound_to 10713
  141.1843  133.8346  157.1143 LP  0  0  0  0  0  0  0  0  0  0  0  0  # atno 17394 bound_to 11000
  140.0310  134.9901  157.0781 LP  0  0  0  0  0  0  0  0  0  0  0  0  # atno 17395 bound_to 11000

$$$$
