AV-unprocessed.smi:1540|AV-procd|sdf|6199|dock5
  -GOLD-   22720 6363D 1   1.00000     0.00000
 Structure written by MMmdl.
 33 33  0  0  0  0  0  0  0  0  1 V2000
  151.9711  144.9457  161.7236 C   0  0  0  0  0  0  0  0  0  0  0  0
  152.6382  144.0674  162.4871 C   0  0  0  0  0  0  0  0  0  0  0  0
  152.7604  142.5898  162.1871 C   0  0  0  0  0  0  0  0  0  0  0  0
  151.8520  142.2202  161.1567 O   0  0  0  0  0  0  0  0  0  0  0  0
  152.3244  142.4056  159.8244 C   0  0  1  0  0  0  0  0  0  0  0  0
  153.5928  141.5549  159.6595 C   0  0  0  0  0  0  0  0  0  0  0  0
  151.2416  142.0048  158.8086 C   0  0  0  0  0  0  0  0  0  0  0  0
  150.0586  142.2315  159.0620 O   0  0  0  0  0  0  0  0  0  0  0  0
  151.6980  141.4491  157.6687 N   0  0  0  0  0  0  0  0  0  0  0  0
  150.9816  140.9780  156.5560 C   0  0  0  0  0  0  0  0  0  0  0  0
  149.6802  141.2645  156.2909 C   0  0  0  0  0  0  0  0  0  0  0  0
  148.9944  140.7300  155.1260 C   0  0  0  0  0  0  0  0  0  0  0  0
  147.5625  141.1223  154.7963 C   0  0  0  0  0  0  0  0  0  0  0  0
  147.5037  141.8474  153.6784 F   0  0  0  0  0  0  0  0  0  0  0  0
  146.8228  140.0283  154.6209 F   0  0  0  0  0  0  0  0  0  0  0  0
  147.0220  141.8337  155.7856 F   0  0  0  0  0  0  0  0  0  0  0  0
  149.7189  139.9381  154.3141 C   0  0  0  0  0  0  0  0  0  0  0  0
  151.0506  139.6208  154.5915 N   0  0  0  0  0  0  0  0  0  0  0  0
  151.7357  140.0857  155.6602 C   0  0  0  0  0  0  0  0  0  0  0  0
  152.9096  139.7604  155.8350 O   0  0  0  0  0  0  0  0  0  0  0  0
  151.5207  139.0059  153.9429 H   0  0  0  0  0  0  0  0  0  0  0  0
  151.4660  144.6353  160.8206 H   0  0  0  0  0  0  0  0  0  0  0  0
  151.9213  145.9902  161.9942 H   0  0  0  0  0  0  0  0  0  0  0  0
  153.1307  144.4141  163.3838 H   0  0  0  0  0  0  0  0  0  0  0  0
  153.7892  142.3612  161.9052 H   0  0  0  0  0  0  0  0  0  0  0  0
  152.5381  142.0359  163.1001 H   0  0  0  0  0  0  0  0  0  0  0  0
  152.5976  143.4529  159.6807 H   0  0  0  0  0  0  0  0  0  0  0  0
  153.9925  141.6301  158.6475 H   0  0  0  0  0  0  0  0  0  0  0  0
  153.4001  140.5017  159.8676 H   0  0  0  0  0  0  0  0  0  0  0  0
  154.3718  141.8873  160.3459 H   0  0  0  0  0  0  0  0  0  0  0  0
  152.7019  141.3968  157.5722 H   0  0  0  0  0  0  0  0  0  0  0  0
  149.1017  141.8853  156.9551 H   0  0  0  0  0  0  0  0  0  0  0  0
  149.3450  139.4969  153.4018 H   0  0  0  0  0  0  0  0  0  0  0  0
  1  2  2  0  0  0  0
  1 22  1  0  0  0  0
  1 23  1  0  0  0  0
  2  3  1  0  0  0  0
  2 24  1  0  0  0  0
  3  4  1  0  0  0  0
  3 25  1  0  0  0  0
  3 26  1  0  0  0  0
  4  5  1  0  0  0  0
  5  6  1  0  0  0  0
  5  7  1  0  0  0  0
  5 27  1  0  0  0  0
  6 28  1  0  0  0  0
  6 29  1  0  0  0  0
  6 30  1  0  0  0  0
  7  8  2  0  0  0  0
  7  9  1  0  0  0  0
  9 10  1  0  0  0  0
  9 31  1  0  0  0  0
 10 19  1  0  0  0  0
 10 11  2  0  0  0  0
 11 12  1  0  0  0  0
 11 32  1  0  0  0  0
 12 13  1  0  0  0  0
 12 17  2  0  0  0  0
 13 14  1  0  0  0  0
 13 15  1  0  0  0  0
 13 16  1  0  0  0  0
 17 18  1  0  0  0  0
 17 33  1  0  0  0  0
 18 21  1  0  0  0  0
 18 19  1  0  0  0  0
 19 20  2  0  0  0  0
M  END
> <s_m_source_file>
AV-unprocessed.smi

> <i_m_source_file_index>
1540

> <i_lp_mmshare_version>
43012

> <i_f3d_flags>
0

> <s_epik_input>
W0NIMl09W0NIXVtDSDJdT1tDQEhdKFtDSDNdKUMoPU8pW05IXWMxW2NIXWMoQyhGKShGKUYpW2NIXVtuSF1jMT1P

> <s_epik_cmdline>
J2VwaWtfcHl0aG9uJywgJy1waCcsICc3LjAnLCAnLXRuJywgJzgnLCAnLW1hJywgJzIwMCcsICctbWV0YWxfYmluZGluZycsICctaW1hZScsICc8aW5maWxlLm1hZT4nLCAnLW9tYWUnLCAnPG91dGZpbGUubWFlPic=

> <r_lp_tautomer_probability>
0.999

> <r_epik_Ionization_Penalty>
0.0086731

> <r_epik_Ionization_Penalty_Charging>
0.00867296

> <r_epik_Ionization_Penalty_Neutral>
1.3954e-07

> <r_epik_State_Penalty>
0.00654787

> <r_epik_Charging_Adjusted_Penalty>
0.0152208

> <i_epik_Tot_Q>
0

> <i_epik_Tot_abs_Q>
0

> <r_epik_Metal_State_Penalty>
0.320056

> <b_epik_Metal_Only>
0

> <s_lp_Force_Field>
OPLS_2005

> <r_lp_Energy>
18.3286

> <b_lp_Chiralities_Consistent>
1

> <s_lp_Variant>
AV-unprocessed.smi:1540-2

> <Gold.Version>
5.8.1

> <Gold.Id.Protein>
6NUR|6NUR_protein|mol2

> <Gold.PLP.Fitness>
41.4916

> <Gold.PLP.PLP>
-36.5463

> <Gold.PLP.part.hbond>
-3.0000

> <Gold.PLP.part.metal>
0.0000

> <Gold.PLP.part.buried>
-3.2768

> <Gold.PLP.part.nonpolar>
-30.2716

> <Gold.PLP.part.repulsive>
1.4756

> <Gold.PLP.ligand.clash>
0.0000

> <Gold.PLP.ligand.torsion>
1.0823

> <Gold.PLP.Chemscore.Hbond>
1.3063

> <Gold.PLP.Chemscore.CHOScore>
1.0000

> <Gold.PLP.Chemscore.Metal>
0.0000

> <Gold.Chemscore.Hbonds>
donor molecule, donor type, donor heavy atom, donor atom, acceptor molecule, acceptor atom, score
      P1  H  6933  6945       L1     4  0.32
      P1  H  7997  8008       L1    20  1.00
      L1  C    17    33       P1  7957  1.00

> <Gold.PLP.Chemscore.Internal.Correction>
0.1911

> <Gold.Rescore>
     Score         DG    S(hbond)    S(metal)    S(lipo)     H(rot)  DE(clash)    DE(int)     intcor
     11.71     -15.64       1.50        0.00      83.48       1.81       1.82       2.11       ----

> <Gold.Chemscore.Fitness>
11.7052

> <Gold.Chemscore.DG>
-15.6388

> <Gold.Chemscore.ZeroCoef>
-5.4800

> <Gold.Chemscore.Hbond>
1.5035

> <Gold.Chemscore.Metal>
0.0000

> <Gold.Chemscore.Lipo>
83.4752

> <Gold.Chemscore.Internal_Hbond>
0.0000

> <Gold.Chemscore.DEClash>
1.8238

> <Gold.Chemscore.DEInternal>
2.1098

> <Gold.Chemscore.Rot>
1.8084

> <Gold.Chemscore.Internal.Correction>
   9.000000E+99

> <Gold.Chemscore.Hbonds>
donor molecule, donor type, donor heavy atom, donor atom, acceptor molecule, acceptor atom, score
      P1  H  6933  6945       L1     4  0.15
      P1  H  7997  8008       L1    20  0.93

> <Gold.Chemscore.Hbond.Weighted>
-5.0218

> <Gold.Chemscore.Metal.Weighted>
-0.0000

> <Gold.Chemscore.Lipo.Weighted>
-9.7666

> <Gold.Chemscore.Internal_Hbond.Weighted>
0.0000

> <Gold.Chemscore.DEClash.Weighted>
1.8238

> <Gold.Chemscore.DEInternal.Weighted>
2.1098

> <Gold.Chemscore.Rot.Weighted>
4.6296

> <Gold.Chemscore.Internal.Correction.Weighted>
   9.000000E+99

> <Gold.Protein.RotatedTorsions>
[ 6907 6896 6895 6894 ] final  116.01 input  -60.11 | X-H torsion
[ 7974 7965 7964 7962 ] final -123.63 input  175.53 | X-H torsion
[ 8008 7997 7996 7995 ] final  -38.81 input   59.86 | X-H torsion
[ 10167 10162 10161 10158 ] final  -91.60 input  -65.29 | X-H torsion
[ 10718 10713 10712 10709 ] final  -40.80 input   66.30 | X-H torsion
[ 10763 10752 10751 10750 ] final   22.13 input  -60.55 | X-H torsion
[ 11005 11000 10999 10996 ] final -149.81 input  -57.11 | X-H torsion

> <Gold.Protein.ActiveResidues>
 VAL166  LYS551  ARG553  GLY616  TRP617  ASP618  TYR619  PRO620  LYS621  CYS622 
 ASP623  PHE694  ASN695  SER759  ASP760  ASP761  ALA762  ILE779  LEU786  VAL792 
 PHE793  MET794  SER795  GLU796  ALA797  LYS798  CYS799  TRP800  GLU811  SER814 

> <Gold.Protein.RotatedAtoms>
  152.4705  133.8019  159.6957 H   0  0  0  0  0  0  0  0  0  0  0  0  # atno 6907 bound_to 6896
  150.8692  133.7521  159.2973 H   0  0  0  0  0  0  0  0  0  0  0  0  # atno 6908 bound_to 6896
  151.5061  135.1067  159.9894 H   0  0  0  0  0  0  0  0  0  0  0  0  # atno 6909 bound_to 6896
  145.0166  140.7952  143.4406 H   0  0  0  0  0  0  0  0  0  0  0  0  # atno 7974 bound_to 7965
  154.4031  140.1568  156.2760 H   0  0  0  0  0  0  0  0  0  0  0  0  # atno 8008 bound_to 7997
  155.8911  140.3438  155.5935 H   0  0  0  0  0  0  0  0  0  0  0  0  # atno 8009 bound_to 7997
  155.7557  140.0811  157.2170 H   0  0  0  0  0  0  0  0  0  0  0  0  # atno 8010 bound_to 7997
  140.3433  143.2930  151.9811 H   0  0  0  0  0  0  0  0  0  0  0  0  # atno 10167 bound_to 10162
  156.2774  130.4213  149.8373 H   0  0  0  0  0  0  0  0  0  0  0  0  # atno 10718 bound_to 10713
  153.0940  135.6654  153.9799 H   0  0  0  0  0  0  0  0  0  0  0  0  # atno 10763 bound_to 10752
  153.9388  135.2996  155.3445 H   0  0  0  0  0  0  0  0  0  0  0  0  # atno 10764 bound_to 10752
  154.7357  135.5102  153.9111 H   0  0  0  0  0  0  0  0  0  0  0  0  # atno 10765 bound_to 10752
  140.7468  134.3451  157.5135 H   0  0  0  0  0  0  0  0  0  0  0  0  # atno 11005 bound_to 11000
  145.1951  139.2280  143.5222 LP  0  0  0  0  0  0  0  0  0  0  0  0  # atno 17320 bound_to 7965
  146.3479  140.1756  142.8589 LP  0  0  0  0  0  0  0  0  0  0  0  0  # atno 17321 bound_to 7965
  139.4837  144.6139  151.7383 LP  0  0  0  0  0  0  0  0  0  0  0  0  # atno 17342 bound_to 10162
  140.5289  144.0762  150.6047 LP  0  0  0  0  0  0  0  0  0  0  0  0  # atno 17343 bound_to 10162
  156.5833  130.8475  151.3389 LP  0  0  0  0  0  0  0  0  0  0  0  0  # atno 17370 bound_to 10713
  157.7303  130.9684  150.1829 LP  0  0  0  0  0  0  0  0  0  0  0  0  # atno 17371 bound_to 10713
  139.8795  134.9116  156.3042 LP  0  0  0  0  0  0  0  0  0  0  0  0  # atno 17394 bound_to 11000
  140.9787  133.7281  156.0640 LP  0  0  0  0  0  0  0  0  0  0  0  0  # atno 17395 bound_to 11000

$$$$
