AV-unprocessed.smi:2061|AV-procd|sdf|8374|dock7
  -GOLD-   2272011 53D 1   1.00000     0.00000
 Structure written by MMmdl.
 44 45  0  0  0  0  0  0  0  0  2 V2000
  146.7747  134.0545  162.4054 C   0  0  0  0  0  0  0  0  0  0  0  0
  147.3875  135.0258  161.4551 C   0  0  0  0  0  0  0  0  0  0  0  0
  147.7955  134.9204  160.1557 C   0  0  0  0  0  0  0  0  0  0  0  0
  148.2899  136.2212  159.8639 C   0  0  0  0  0  0  0  0  0  0  0  0
  148.7960  136.6275  158.6895 N   0  5  0  0  0  0  0  0  0  0  0  0
  149.9820  137.2775  158.6469 C   0  0  0  0  0  0  0  0  0  0  0  0
  150.9861  137.0082  159.3098 O   0  0  0  0  0  0  0  0  0  0  0  0
  150.0039  138.2961  157.7745 N   0  0  0  0  0  0  0  0  0  0  0  0
  151.1318  139.1848  157.4987 C   0  0  0  0  0  0  0  0  0  0  0  0
  150.7473  140.6909  157.5544 C   0  0  2  0  0  0  0  0  0  0  0  0
  150.2995  141.1526  156.1439 C   0  0  0  0  0  0  0  0  0  0  0  0
  151.8160  141.5469  158.1240 N   0  0  0  0  0  0  0  0  0  0  0  0
  151.4074  142.9506  158.2457 C   0  0  0  0  0  0  0  0  0  0  0  0
  152.5033  143.8458  158.8548 C   0  0  1  0  0  0  0  0  0  0  0  0
  152.0310  145.2911  159.0447 C   0  0  0  0  0  0  0  0  0  0  0  0
  152.8753  143.3286  160.1259 O   0  0  0  0  0  0  0  0  0  0  0  0
  153.3567  141.9926  160.0530 C   0  0  1  0  0  0  0  0  0  0  0  0
  153.7526  141.5473  161.4648 C   0  0  0  0  0  0  0  0  0  0  0  0
  152.2645  141.0922  159.4446 C   0  0  0  0  0  0  0  0  0  0  0  0
  148.1758  137.0475  160.8902 N   0  0  0  0  0  0  0  0  0  0  0  0
  147.6031  136.2871  161.9166 O   0  0  0  0  0  0  0  0  0  0  0  0
  145.7532  133.8181  162.1081 H   0  0  0  0  0  0  0  0  0  0  0  0
  146.7479  134.4581  163.4177 H   0  0  0  0  0  0  0  0  0  0  0  0
  147.3450  133.1257  162.4280 H   0  0  0  0  0  0  0  0  0  0  0  0
  147.7518  134.0517  159.5161 H   0  0  0  0  0  0  0  0  0  0  0  0
  149.1557  138.4707  157.2560 H   0  0  0  0  0  0  0  0  0  0  0  0
  151.8601  138.9356  158.2678 H   0  0  0  0  0  0  0  0  0  0  0  0
  151.6060  138.9537  156.5435 H   0  0  0  0  0  0  0  0  0  0  0  0
  149.8741  140.7696  158.2039 H   0  0  0  0  0  0  0  0  0  0  0  0
  149.5303  140.5080  155.7215 H   0  0  0  0  0  0  0  0  0  0  0  0
  151.1382  141.1610  155.4472 H   0  0  0  0  0  0  0  0  0  0  0  0
  149.8546  142.1462  156.1514 H   0  0  0  0  0  0  0  0  0  0  0  0
  151.1676  143.3650  157.2682 H   0  0  0  0  0  0  0  0  0  0  0  0
  150.5017  143.0188  158.8504 H   0  0  0  0  0  0  0  0  0  0  0  0
  153.3778  143.8476  158.2016 H   0  0  0  0  0  0  0  0  0  0  0  0
  151.7428  145.7381  158.0930 H   0  0  0  0  0  0  0  0  0  0  0  0
  152.8222  145.9061  159.4742 H   0  0  0  0  0  0  0  0  0  0  0  0
  151.1704  145.3406  159.7127 H   0  0  0  0  0  0  0  0  0  0  0  0
  154.2443  141.9694  159.4180 H   0  0  0  0  0  0  0  0  0  0  0  0
  154.1437  140.5296  161.4597 H   0  0  0  0  0  0  0  0  0  0  0  0
  152.8975  141.5739  162.1409 H   0  0  0  0  0  0  0  0  0  0  0  0
  154.5240  142.1979  161.8774 H   0  0  0  0  0  0  0  0  0  0  0  0
  151.4125  141.0390  160.1243 H   0  0  0  0  0  0  0  0  0  0  0  0
  152.6839  140.0902  159.3820 H   0  0  0  0  0  0  0  0  0  0  0  0
  1  2  1  0  0  0  0
  1 22  1  0  0  0  0
  1 23  1  0  0  0  0
  1 24  1  0  0  0  0
  2 21  1  0  0  0  0
  2  3  2  0  0  0  0
  3  4  1  0  0  0  0
  3 25  1  0  0  0  0
  4  5  1  0  0  0  0
  4 20  2  0  0  0  0
  5  6  1  0  0  0  0
  6  7  2  0  0  0  0
  6  8  1  0  0  0  0
  8  9  1  0  0  0  0
  8 26  1  0  0  0  0
  9 10  1  0  0  0  0
  9 27  1  0  0  0  0
  9 28  1  0  0  0  0
 10 11  1  0  0  0  0
 10 12  1  0  0  0  0
 10 29  1  0  0  0  0
 11 30  1  0  0  0  0
 11 31  1  0  0  0  0
 11 32  1  0  0  0  0
 12 19  1  0  0  0  0
 12 13  1  0  0  0  0
 13 14  1  0  0  0  0
 13 33  1  0  0  0  0
 13 34  1  0  0  0  0
 14 15  1  0  0  0  0
 14 16  1  0  0  0  0
 14 35  1  0  0  0  0
 15 36  1  0  0  0  0
 15 37  1  0  0  0  0
 15 38  1  0  0  0  0
 16 17  1  0  0  0  0
 17 18  1  0  0  0  0
 17 19  1  0  0  0  0
 17 39  1  0  0  0  0
 18 40  1  0  0  0  0
 18 41  1  0  0  0  0
 18 42  1  0  0  0  0
 19 43  1  0  0  0  0
 19 44  1  0  0  0  0
 20 21  1  0  0  0  0
M  CHG  1   5  -1
M  END
> <s_m_source_file>
AV-unprocessed.smi

> <i_m_source_file_index>
2061

> <i_lp_mmshare_version>
43012

> <i_f3d_flags>
0

> <s_epik_input>
W0NIM11jMVtjSF1jKG5vMSlbTkhdQyg9TylbTkhdW0NIMl1bQ0BIXShbQ0gzXSlOMltDSDJdW0NAQEhdKFtDSDNdKU9bQ0BASF0oW0NIM10pW0NIMl0y

> <s_epik_cmdline>
J2VwaWtfcHl0aG9uJywgJy1waCcsICc3LjAnLCAnLXRuJywgJzgnLCAnLW1hJywgJzIwMCcsICctbWV0YWxfYmluZGluZycsICctaW1hZScsICc8aW5maWxlLm1hZT4nLCAnLW9tYWUnLCAnPG91dGZpbGUubWFlPic=

> <r_epik_Ionization_Penalty>
6.88367

> <r_epik_Ionization_Penalty_Charging>
6.57198

> <r_epik_Ionization_Penalty_Neutral>
0.311681

> <r_epik_State_Penalty>
6.77619

> <r_epik_Charging_Adjusted_Penalty>
13.3482

> <i_epik_Tot_Q>
-1

> <i_epik_Tot_abs_Q>
1

> <r_epik_Metal_State_Penalty>
2.70524

> <b_epik_Metal_Only>
1

> <s_lp_Force_Field>
OPLS_2005

> <r_lp_Energy>
21.032

> <b_lp_Chiralities_Consistent>
1

> <s_lp_Variant>
AV-unprocessed.smi:2061-15

> <Gold.Version>
5.8.1

> <Gold.Id.Protein>
6NUR|6NUR_protein|mol2

> <Gold.PLP.Fitness>
49.1388

> <Gold.PLP.PLP>
-43.6585

> <Gold.PLP.part.hbond>
-3.0000

> <Gold.PLP.part.metal>
0.0000

> <Gold.PLP.part.buried>
-6.9298

> <Gold.PLP.part.nonpolar>
-34.0905

> <Gold.PLP.part.repulsive>
0.0715

> <Gold.PLP.ligand.clash>
0.0000

> <Gold.PLP.ligand.torsion>
1.2572

> <Gold.PLP.Chemscore.Hbond>
2.6460

> <Gold.PLP.Chemscore.CHOScore>
0.0000

> <Gold.PLP.Chemscore.Metal>
0.0000

> <Gold.Chemscore.Hbonds>
donor molecule, donor type, donor heavy atom, donor atom, acceptor molecule, acceptor atom, score
      P1  H  6896  6907       L1     7  1.00
      P1  H  6931  6943       L1    20  0.93
      P1  H  6934  6947       L1    20  0.39

> <Gold.PLP.Chemscore.Internal.Correction>
0.0566

> <Gold.Rescore>
     Score         DG    S(hbond)    S(metal)    S(lipo)     H(rot)  DE(clash)    DE(int)     intcor
     20.55     -21.85       2.53        0.00     100.93       1.52       0.03       1.27       ----

> <Gold.Chemscore.Fitness>
20.5512

> <Gold.Chemscore.DG>
-21.8454

> <Gold.Chemscore.ZeroCoef>
-5.4800

> <Gold.Chemscore.Hbond>
2.5286

> <Gold.Chemscore.Metal>
0.0000

> <Gold.Chemscore.Lipo>
100.9291

> <Gold.Chemscore.Internal_Hbond>
0.0000

> <Gold.Chemscore.DEClash>
0.0270

> <Gold.Chemscore.DEInternal>
1.2672

> <Gold.Chemscore.Rot>
1.5190

> <Gold.Chemscore.Internal.Correction>
   9.000000E+99

> <Gold.Chemscore.Hbonds>
donor molecule, donor type, donor heavy atom, donor atom, acceptor molecule, acceptor atom, score
      P1  H  6896  6907       L1     7  0.84
      P1  H  6931  6943       L1    20  0.20
      P1  H  6934  6947       L1    20  0.24

> <Gold.Chemscore.Hbond.Weighted>
-8.4454

> <Gold.Chemscore.Metal.Weighted>
-0.0000

> <Gold.Chemscore.Lipo.Weighted>
-11.8087

> <Gold.Chemscore.Internal_Hbond.Weighted>
0.0000

> <Gold.Chemscore.DEClash.Weighted>
0.0270

> <Gold.Chemscore.DEInternal.Weighted>
1.2672

> <Gold.Chemscore.Rot.Weighted>
3.8886

> <Gold.Chemscore.Internal.Correction.Weighted>
   9.000000E+99

> <Gold.Protein.RotatedTorsions>
[ 6907 6896 6895 6894 ] final  -28.07 input  -60.11 | X-H torsion
[ 7974 7965 7964 7962 ] final -170.01 input  175.53 | X-H torsion
[ 8008 7997 7996 7995 ] final -106.15 input   59.86 | X-H torsion
[ 10167 10162 10161 10158 ] final  -11.06 input  -65.29 | X-H torsion
[ 10718 10713 10712 10709 ] final -112.06 input   66.30 | X-H torsion
[ 10763 10752 10751 10750 ] final  114.77 input  -60.55 | X-H torsion
[ 11005 11000 10999 10996 ] final -122.42 input  -57.11 | X-H torsion

> <Gold.Protein.ActiveResidues>
 VAL166  LYS551  ARG553  GLY616  TRP617  ASP618  TYR619  PRO620  LYS621  CYS622 
 ASP623  PHE694  ASN695  SER759  ASP760  ASP761  ALA762  ILE779  LEU786  VAL792 
 PHE793  MET794  SER795  GLU796  ALA797  LYS798  CYS799  TRP800  GLU811  SER814 

> <Gold.Protein.RotatedAtoms>
  151.1381  135.0165  159.8612 H   0  0  0  0  0  0  0  0  0  0  0  0  # atno 6907 bound_to 6896
  152.5452  134.1531  159.8537 H   0  0  0  0  0  0  0  0  0  0  0  0  # atno 6908 bound_to 6896
  151.1604  133.4803  159.2627 H   0  0  0  0  0  0  0  0  0  0  0  0  # atno 6909 bound_to 6896
  144.7176  140.2135  143.6324 H   0  0  0  0  0  0  0  0  0  0  0  0  # atno 7974 bound_to 7965
  154.9103  140.0410  157.1942 H   0  0  0  0  0  0  0  0  0  0  0  0  # atno 8008 bound_to 7997
  154.8355  140.2906  155.5673 H   0  0  0  0  0  0  0  0  0  0  0  0  # atno 8009 bound_to 7997
  156.2989  140.2493  156.3287 H   0  0  0  0  0  0  0  0  0  0  0  0  # atno 8010 bound_to 7997
  140.7129  143.5680  150.9123 H   0  0  0  0  0  0  0  0  0  0  0  0  # atno 10167 bound_to 10162
  156.0683  130.5900  150.8458 H   0  0  0  0  0  0  0  0  0  0  0  0  # atno 10718 bound_to 10713
  153.5122  135.3615  155.2592 H   0  0  0  0  0  0  0  0  0  0  0  0  # atno 10763 bound_to 10752
  154.8741  135.4025  154.3356 H   0  0  0  0  0  0  0  0  0  0  0  0  # atno 10764 bound_to 10752
  153.4011  135.7075  153.6492 H   0  0  0  0  0  0  0  0  0  0  0  0  # atno 10765 bound_to 10752
  140.9997  134.0421  157.3553 H   0  0  0  0  0  0  0  0  0  0  0  0  # atno 11005 bound_to 11000
  145.8568  139.2203  143.1740 LP  0  0  0  0  0  0  0  0  0  0  0  0  # atno 17320 bound_to 7965
  146.0210  140.8348  142.9923 LP  0  0  0  0  0  0  0  0  0  0  0  0  # atno 17321 bound_to 7965
  139.9406  143.6386  152.3054 LP  0  0  0  0  0  0  0  0  0  0  0  0  # atno 17342 bound_to 10162
  139.6869  144.7650  151.1507 LP  0  0  0  0  0  0  0  0  0  0  0  0  # atno 17343 bound_to 10162
  157.5739  131.0946  150.9376 LP  0  0  0  0  0  0  0  0  0  0  0  0  # atno 17370 bound_to 10713
  156.9586  130.5446  149.5285 LP  0  0  0  0  0  0  0  0  0  0  0  0  # atno 17371 bound_to 10713
  139.9032  135.0171  156.7367 LP  0  0  0  0  0  0  0  0  0  0  0  0  # atno 17394 bound_to 11000
  140.6910  133.9390  155.7966 LP  0  0  0  0  0  0  0  0  0  0  0  0  # atno 17395 bound_to 11000

$$$$
