AV-unprocessed.smi:3159|AV-procd|sdf|12050|dock2
  -GOLD-   2272017473D 1   1.00000     0.00000
 Structure written by MMmdl.
 35 36  0  0  0  0  0  0  0  0  1 V2000
  154.1542  141.5641  160.2744 C   0  0  0  0  0  0  0  0  0  0  0  0
  153.0760  142.2223  159.4652 C   0  0  0  0  0  0  0  0  0  0  0  0
  152.2900  141.6522  158.4223 C   0  0  0  0  0  0  0  0  0  0  0  0
  151.4818  142.6917  158.0501 C   0  0  0  0  0  0  0  0  0  0  0  0
  150.5212  142.7218  157.0879 N   0  0  0  0  0  0  0  0  0  0  0  0
  150.1194  141.7349  156.2677 C   0  0  0  0  0  0  0  0  0  0  0  0
  150.5706  140.5896  156.2541 O   0  0  0  0  0  0  0  0  0  0  0  0
  149.1490  142.1573  155.4441 N   0  0  0  0  0  0  0  0  0  0  0  0
  148.4912  141.3465  154.4236 C   0  0  0  0  0  0  0  0  0  0  0  0
  146.9565  141.4107  154.5400 C   0  0  1  0  0  0  0  0  0  0  0  0
  146.4152  141.4384  155.9566 C   0  0  0  0  0  0  0  0  0  0  0  0
  145.0057  141.9850  155.7494 C   0  0  0  0  0  0  0  0  0  0  0  0
  145.0749  142.8238  154.5994 O   0  0  0  0  0  0  0  0  0  0  0  0
  146.3490  142.6945  153.9765 C   0  0  0  0  0  0  0  0  0  0  0  0
  151.7836  143.7895  158.8281 N   0  0  0  0  0  0  0  0  0  0  0  0
  151.2158  145.1242  158.8267 C   0  0  0  0  0  0  0  0  0  0  0  0
  152.7704  143.4930  159.7005 N   0  0  0  0  0  0  0  0  0  0  0  0
  154.1913  140.4915  160.0827 H   0  0  0  0  0  0  0  0  0  0  0  0
  153.9866  141.7036  161.3426 H   0  0  0  0  0  0  0  0  0  0  0  0
  155.1332  141.9784  160.0324 H   0  0  0  0  0  0  0  0  0  0  0  0
  152.3299  140.6472  158.0300 H   0  0  0  0  0  0  0  0  0  0  0  0
  150.0524  143.6088  156.9777 H   0  0  0  0  0  0  0  0  0  0  0  0
  148.8408  143.1150  155.5269 H   0  0  0  0  0  0  0  0  0  0  0  0
  148.8152  141.6405  153.4236 H   0  0  0  0  0  0  0  0  0  0  0  0
  148.8214  140.3162  154.5578 H   0  0  0  0  0  0  0  0  0  0  0  0
  146.5166  140.5611  154.0146 H   0  0  0  0  0  0  0  0  0  0  0  0
  146.4221  140.4612  156.4404 H   0  0  0  0  0  0  0  0  0  0  0  0
  146.9960  142.1275  156.5715 H   0  0  0  0  0  0  0  0  0  0  0  0
  144.3088  141.1722  155.5420 H   0  0  0  0  0  0  0  0  0  0  0  0
  144.6402  142.5309  156.6194 H   0  0  0  0  0  0  0  0  0  0  0  0
  146.9538  143.5607  154.2488 H   0  0  0  0  0  0  0  0  0  0  0  0
  146.2600  142.6736  152.8901 H   0  0  0  0  0  0  0  0  0  0  0  0
  150.4114  145.2018  158.0955 H   0  0  0  0  0  0  0  0  0  0  0  0
  151.9892  145.8515  158.5780 H   0  0  0  0  0  0  0  0  0  0  0  0
  150.8154  145.3537  159.8147 H   0  0  0  0  0  0  0  0  0  0  0  0
  1  2  1  0  0  0  0
  1 18  1  0  0  0  0
  1 19  1  0  0  0  0
  1 20  1  0  0  0  0
  2 17  2  0  0  0  0
  2  3  1  0  0  0  0
  3  4  2  0  0  0  0
  3 21  1  0  0  0  0
  4  5  1  0  0  0  0
  4 15  1  0  0  0  0
  5  6  1  0  0  0  0
  5 22  1  0  0  0  0
  6  7  2  0  0  0  0
  6  8  1  0  0  0  0
  8  9  1  0  0  0  0
  8 23  1  0  0  0  0
  9 10  1  0  0  0  0
  9 24  1  0  0  0  0
  9 25  1  0  0  0  0
 10 14  1  0  0  0  0
 10 11  1  0  0  0  0
 10 26  1  0  0  0  0
 11 12  1  0  0  0  0
 11 27  1  0  0  0  0
 11 28  1  0  0  0  0
 12 13  1  0  0  0  0
 12 29  1  0  0  0  0
 12 30  1  0  0  0  0
 13 14  1  0  0  0  0
 14 31  1  0  0  0  0
 14 32  1  0  0  0  0
 15 16  1  0  0  0  0
 15 17  1  0  0  0  0
 16 33  1  0  0  0  0
 16 34  1  0  0  0  0
 16 35  1  0  0  0  0
M  END
> <s_m_source_file>
AV-unprocessed.smi

> <i_m_source_file_index>
3159

> <i_lp_mmshare_version>
43012

> <i_f3d_flags>
0

> <s_epik_input>
W0NIM11jMVtjSF1jKG4objEpW0NIM10pW05IXUMoPU8pW05IXVtDSDJdW0NAQEhdMltDSDJdW0NIMl1PW0NIMl0y

> <s_epik_cmdline>
J2VwaWtfcHl0aG9uJywgJy1waCcsICc3LjAnLCAnLXRuJywgJzgnLCAnLW1hJywgJzIwMCcsICctbWV0YWxfYmluZGluZycsICctaW1hZScsICc8aW5maWxlLm1hZT4nLCAnLW9tYWUnLCAnPG91dGZpbGUubWFlPic=

> <r_lp_tautomer_probability>
1

> <r_epik_Ionization_Penalty>
9.40319e-05

> <r_epik_Ionization_Penalty_Charging>
0

> <r_epik_Ionization_Penalty_Neutral>
9.40319e-05

> <r_epik_State_Penalty>
-0

> <r_epik_Charging_Adjusted_Penalty>
0

> <i_epik_Tot_Q>
0

> <i_epik_Tot_abs_Q>
0

> <r_epik_Metal_State_Penalty>
-0

> <b_epik_Metal_Only>
0

> <s_lp_Force_Field>
OPLS_2005

> <r_lp_Energy>
19.8906

> <b_lp_Chiralities_Consistent>
1

> <s_lp_Variant>
AV-unprocessed.smi:3159-2

> <Gold.Version>
5.8.1

> <Gold.Id.Protein>
6NUR|6NUR_protein|mol2

> <Gold.PLP.Fitness>
42.4958

> <Gold.PLP.PLP>
-37.2683

> <Gold.PLP.part.hbond>
-2.0000

> <Gold.PLP.part.metal>
0.0000

> <Gold.PLP.part.buried>
-7.5646

> <Gold.PLP.part.nonpolar>
-28.3453

> <Gold.PLP.part.repulsive>
0.4393

> <Gold.PLP.ligand.clash>
0.0000

> <Gold.PLP.ligand.torsion>
0.2214

> <Gold.PLP.Chemscore.Hbond>
1.8882

> <Gold.PLP.Chemscore.CHOScore>
0.0000

> <Gold.PLP.Chemscore.Metal>
0.0000

> <Gold.Chemscore.Hbonds>
donor molecule, donor type, donor heavy atom, donor atom, acceptor molecule, acceptor atom, score
      L1  H     5    22       P1  8028  0.79
      L1  H     8    23       P1  8028  1.00

> <Gold.PLP.Chemscore.Internal.Correction>
0.0057

> <Gold.Rescore>
     Score         DG    S(hbond)    S(metal)    S(lipo)     H(rot)  DE(clash)    DE(int)     intcor
     14.92     -16.61       1.89        0.00      68.43       1.25       0.10       1.59       ----

> <Gold.Chemscore.Fitness>
14.9186

> <Gold.Chemscore.DG>
-16.6100

> <Gold.Chemscore.ZeroCoef>
-5.4800

> <Gold.Chemscore.Hbond>
1.8916

> <Gold.Chemscore.Metal>
0.0000

> <Gold.Chemscore.Lipo>
68.4302

> <Gold.Chemscore.Internal_Hbond>
0.0000

> <Gold.Chemscore.DEClash>
0.0975

> <Gold.Chemscore.DEInternal>
1.5939

> <Gold.Chemscore.Rot>
1.2478

> <Gold.Chemscore.Internal.Correction>
   9.000000E+99

> <Gold.Chemscore.Hbonds>
donor molecule, donor type, donor heavy atom, donor atom, acceptor molecule, acceptor atom, score
      L1  H     5    22       P1  8028  0.75
      L1  H     8    23       P1  8028  0.98

> <Gold.Chemscore.Hbond.Weighted>
-6.3181

> <Gold.Chemscore.Metal.Weighted>
-0.0000

> <Gold.Chemscore.Lipo.Weighted>
-8.0063

> <Gold.Chemscore.Internal_Hbond.Weighted>
0.0000

> <Gold.Chemscore.DEClash.Weighted>
0.0975

> <Gold.Chemscore.DEInternal.Weighted>
1.5939

> <Gold.Chemscore.Rot.Weighted>
3.1944

> <Gold.Chemscore.Internal.Correction.Weighted>
   9.000000E+99

> <Gold.Protein.RotatedTorsions>
[ 6907 6896 6895 6894 ] final  -18.57 input  -60.11 | X-H torsion
[ 7974 7965 7964 7962 ] final   56.47 input  175.53 | X-H torsion
[ 8008 7997 7996 7995 ] final  176.99 input   59.86 | X-H torsion
[ 10167 10162 10161 10158 ] final  177.44 input  -65.29 | X-H torsion
[ 10718 10713 10712 10709 ] final -160.17 input   66.30 | X-H torsion
[ 10763 10752 10751 10750 ] final  -43.62 input  -60.55 | X-H torsion
[ 11005 11000 10999 10996 ] final    5.48 input  -57.11 | X-H torsion

> <Gold.Protein.ActiveResidues>
 VAL166  LYS551  ARG553  GLY616  TRP617  ASP618  TYR619  PRO620  LYS621  CYS622 
 ASP623  PHE694  ASN695  SER759  ASP760  ASP761  ALA762  ILE779  LEU786  VAL792 
 PHE793  MET794  SER795  GLU796  ALA797  LYS798  CYS799  TRP800  GLU811  SER814 

> <Gold.Protein.RotatedAtoms>
  151.2761  135.0699  159.9151 H   0  0  0  0  0  0  0  0  0  0  0  0  # atno 6907 bound_to 6896
  152.5342  134.0079  159.7935 H   0  0  0  0  0  0  0  0  0  0  0  0  # atno 6908 bound_to 6896
  151.0326  133.5727  159.2690 H   0  0  0  0  0  0  0  0  0  0  0  0  # atno 6909 bound_to 6896
  145.9395  139.3876  143.0372 H   0  0  0  0  0  0  0  0  0  0  0  0  # atno 7974 bound_to 7965
  156.0705  140.1369  156.9834 H   0  0  0  0  0  0  0  0  0  0  0  0  # atno 8008 bound_to 7997
  154.4529  140.0973  156.6723 H   0  0  0  0  0  0  0  0  0  0  0  0  # atno 8009 bound_to 7997
  155.5235  140.3457  155.4414 H   0  0  0  0  0  0  0  0  0  0  0  0  # atno 8010 bound_to 7997
  139.5253  144.2797  152.0557 H   0  0  0  0  0  0  0  0  0  0  0  0  # atno 10167 bound_to 10162
  156.5784  130.8719  151.2857 H   0  0  0  0  0  0  0  0  0  0  0  0  # atno 10718 bound_to 10713
  153.9986  135.6696  153.4758 H   0  0  0  0  0  0  0  0  0  0  0  0  # atno 10763 bound_to 10752
  153.0672  135.4994  154.8223 H   0  0  0  0  0  0  0  0  0  0  0  0  # atno 10764 bound_to 10752
  154.7066  135.3089  154.9223 H   0  0  0  0  0  0  0  0  0  0  0  0  # atno 10765 bound_to 10752
  140.5702  134.0110  155.8005 H   0  0  0  0  0  0  0  0  0  0  0  0  # atno 11005 bound_to 11000
  145.8319  140.9626  143.0844 LP  0  0  0  0  0  0  0  0  0  0  0  0  # atno 17320 bound_to 7965
  144.6777  140.0174  143.7484 LP  0  0  0  0  0  0  0  0  0  0  0  0  # atno 17321 bound_to 7965
  140.2253  144.4424  150.6324 LP  0  0  0  0  0  0  0  0  0  0  0  0  # atno 17342 bound_to 10162
  140.6391  143.2200  151.6329 LP  0  0  0  0  0  0  0  0  0  0  0  0  # atno 17343 bound_to 10162
  157.7332  130.9727  150.1967 LP  0  0  0  0  0  0  0  0  0  0  0  0  # atno 17370 bound_to 10713
  156.2653  130.3715  149.8088 LP  0  0  0  0  0  0  0  0  0  0  0  0  # atno 17371 bound_to 10713
  141.1061  133.9692  157.2994 LP  0  0  0  0  0  0  0  0  0  0  0  0  # atno 17394 bound_to 11000
  139.9365  135.0196  156.8573 LP  0  0  0  0  0  0  0  0  0  0  0  0  # atno 17395 bound_to 11000

$$$$
