AV-unprocessed.smi:1582|AV-procd|sdf|6362|dock1
  -GOLD-   22720 6583D 1   1.00000     0.00000
 Structure written by MMmdl.
 41 42  0  0  0  0  0  0  0  0  2 V2000
  148.8009  139.2424  154.3949 O   0  0  0  0  0  0  0  0  0  0  0  0
  148.9868  139.0066  153.2015 C   0  0  0  0  0  0  0  0  0  0  0  0
  147.9941  138.8673  152.3115 N   0  0  0  0  0  0  0  0  0  0  0  0
  146.5721  139.0167  152.6063 C   0  0  0  0  0  0  0  0  0  0  0  0
  145.7405  137.7717  152.2318 C   0  0  1  0  0  0  0  0  0  0  0  0
  145.9958  137.4802  150.8724 O   0  0  0  0  0  0  0  0  0  0  0  0
  146.0868  136.5269  153.0775 C   0  0  0  0  0  0  0  0  0  0  0  0
  145.9815  135.2643  152.3014 N   0  3  0  0  0  0  0  0  0  0  0  0
  146.5406  134.1021  153.0402 C   0  0  0  0  0  0  0  0  0  0  0  0
  146.5537  132.8381  152.1641 C   0  0  0  0  0  0  0  0  0  0  0  0
  145.1500  132.5217  151.6323 C   0  0  0  0  0  0  0  0  0  0  0  0
  144.5795  133.7446  150.9027 C   0  0  0  0  0  0  0  0  0  0  0  0
  144.6048  134.9881  151.8077 C   0  0  0  0  0  0  0  0  0  0  0  0
  150.1876  138.8540  152.6205 N   0  0  0  0  0  0  0  0  0  0  0  0
  151.4588  138.9539  153.2394 C   0  0  0  0  0  0  0  0  0  0  0  0
  152.6977  138.3592  152.8585 C   0  0  0  0  0  0  0  0  0  0  0  0
  153.6678  138.6928  153.6981 N   0  0  0  0  0  0  0  0  0  0  0  0
  153.0634  139.4907  154.6070 N   0  0  0  0  0  0  0  0  0  0  0  0
  151.7200  139.6763  154.3652 C   0  0  0  0  0  0  0  0  0  0  0  0
  153.5759  139.8960  155.3776 H   0  0  0  0  0  0  0  0  0  0  0  0
  148.2419  138.6778  151.3512 H   0  0  0  0  0  0  0  0  0  0  0  0
  146.4490  139.2498  153.6655 H   0  0  0  0  0  0  0  0  0  0  0  0
  146.2099  139.8864  152.0567 H   0  0  0  0  0  0  0  0  0  0  0  0
  144.6828  138.0148  152.3231 H   0  0  0  0  0  0  0  0  0  0  0  0
  145.2056  137.6291  150.3755 H   0  0  0  0  0  0  0  0  0  0  0  0
  147.1015  136.6441  153.4612 H   0  0  0  0  0  0  0  0  0  0  0  0
  145.4404  136.4545  153.9532 H   0  0  0  0  0  0  0  0  0  0  0  0
  147.5601  134.3234  153.3585 H   0  0  0  0  0  0  0  0  0  0  0  0
  145.9555  133.9292  153.9451 H   0  0  0  0  0  0  0  0  0  0  0  0
  147.2393  132.9797  151.3276 H   0  0  0  0  0  0  0  0  0  0  0  0
  146.9345  131.9916  152.7363 H   0  0  0  0  0  0  0  0  0  0  0  0
  145.1850  131.6634  150.9607 H   0  0  0  0  0  0  0  0  0  0  0  0
  144.4946  132.2456  152.4595 H   0  0  0  0  0  0  0  0  0  0  0  0
  145.1601  133.9371  149.9994 H   0  0  0  0  0  0  0  0  0  0  0  0
  143.5590  133.5411  150.5766 H   0  0  0  0  0  0  0  0  0  0  0  0
  143.9337  134.8461  152.6563 H   0  0  0  0  0  0  0  0  0  0  0  0
  144.2223  135.8390  151.2454 H   0  0  0  0  0  0  0  0  0  0  0  0
  150.1949  138.6654  151.6288 H   0  0  0  0  0  0  0  0  0  0  0  0
  152.9300  137.7130  152.0252 H   0  0  0  0  0  0  0  0  0  0  0  0
  151.0904  140.2855  154.9968 H   0  0  0  0  0  0  0  0  0  0  0  0
  146.5672  135.3867  151.4871 H   0  0  0  0  0  0  0  0  0  0  0  0
  1  2  2  0  0  0  0
  2  3  1  0  0  0  0
  2 14  1  0  0  0  0
  3  4  1  0  0  0  0
  3 21  1  0  0  0  0
  4  5  1  0  0  0  0
  4 22  1  0  0  0  0
  4 23  1  0  0  0  0
  5  6  1  0  0  0  0
  5  7  1  0  0  0  0
  5 24  1  0  0  0  0
  6 25  1  0  0  0  0
  7  8  1  0  0  0  0
  7 26  1  0  0  0  0
  7 27  1  0  0  0  0
  8 13  1  0  0  0  0
  8  9  1  0  0  0  0
  8 41  1  0  0  0  0
  9 10  1  0  0  0  0
  9 28  1  0  0  0  0
  9 29  1  0  0  0  0
 10 11  1  0  0  0  0
 10 30  1  0  0  0  0
 10 31  1  0  0  0  0
 11 12  1  0  0  0  0
 11 32  1  0  0  0  0
 11 33  1  0  0  0  0
 12 13  1  0  0  0  0
 12 34  1  0  0  0  0
 12 35  1  0  0  0  0
 13 36  1  0  0  0  0
 13 37  1  0  0  0  0
 14 15  1  0  0  0  0
 14 38  1  0  0  0  0
 15 19  2  0  0  0  0
 15 16  1  0  0  0  0
 16 17  2  0  0  0  0
 16 39  1  0  0  0  0
 17 18  1  0  0  0  0
 18 20  1  0  0  0  0
 18 19  1  0  0  0  0
 19 40  1  0  0  0  0
M  CHG  1   8   1
M  END
> <s_m_source_file>
AV-unprocessed.smi

> <i_m_source_file_index>
1582

> <i_lp_mmshare_version>
43012

> <i_f3d_flags>
0

> <s_epik_input>
W2NIXTFbbkhdbltjSF1jMVtOSF1DKD1PKVtOSF1bQ0gyXVtDQEhdKFtPSF0pW0NIMl1OMltDSDJdW0NIMl1bQ0gyXVtDSDJdW0NIMl0y

> <s_epik_cmdline>
J2VwaWtfcHl0aG9uJywgJy1waCcsICc3LjAnLCAnLXRuJywgJzgnLCAnLW1hJywgJzIwMCcsICctbWV0YWxfYmluZGluZycsICctaW1hZScsICc8aW5maWxlLm1hZT4nLCAnLW9tYWUnLCAnPG91dGZpbGUubWFlPic=

> <r_lp_tautomer_probability>
0.5

> <r_epik_Ionization_Penalty>
0.00519658

> <r_epik_Ionization_Penalty_Charging>
0.00515354

> <r_epik_Ionization_Penalty_Neutral>
4.30332e-05

> <r_epik_State_Penalty>
0.00375424

> <r_epik_Charging_Adjusted_Penalty>
0.00890779

> <i_epik_Tot_Q>
1

> <i_epik_Tot_abs_Q>
1

> <r_epik_Metal_State_Penalty>
-0

> <b_epik_Metal_Only>
0

> <s_lp_Force_Field>
OPLS_2005

> <r_lp_Energy>
21.3928

> <b_lp_Chiralities_Consistent>
1

> <s_lp_Variant>
AV-unprocessed.smi:1582-2

> <Gold.Version>
5.8.1

> <Gold.Id.Protein>
6NUR|6NUR_protein|mol2

> <Gold.PLP.Fitness>
48.3245

> <Gold.PLP.PLP>
-34.4991

> <Gold.PLP.part.hbond>
-7.6910

> <Gold.PLP.part.metal>
0.0000

> <Gold.PLP.part.buried>
-0.9694

> <Gold.PLP.part.nonpolar>
-25.7616

> <Gold.PLP.part.repulsive>
0.3875

> <Gold.PLP.ligand.clash>
0.0000

> <Gold.PLP.ligand.torsion>
0.6471

> <Gold.PLP.Chemscore.Hbond>
4.9884

> <Gold.PLP.Chemscore.CHOScore>
0.0000

> <Gold.PLP.Chemscore.Metal>
0.0000

> <Gold.Chemscore.Hbonds>
donor molecule, donor type, donor heavy atom, donor atom, acceptor molecule, acceptor atom, score
      L1  H     6    25       P1 10171  1.00
      P1  H  7954  7966       L1     6  0.06
      L1  C    16    39       P1  7949  0.73

> <Gold.PLP.Chemscore.Internal.Correction>
0.1545

> <Gold.Rescore>
     Score         DG    S(hbond)    S(metal)    S(lipo)     H(rot)  DE(clash)    DE(int)     intcor
     14.42     -18.68       3.46        0.00      70.49       2.59       2.61       1.64       ----

> <Gold.Chemscore.Fitness>
14.4204

> <Gold.Chemscore.DG>
-18.6761

> <Gold.Chemscore.ZeroCoef>
-5.4800

> <Gold.Chemscore.Hbond>
3.4649

> <Gold.Chemscore.Metal>
0.0000

> <Gold.Chemscore.Lipo>
70.4926

> <Gold.Chemscore.Internal_Hbond>
0.0000

> <Gold.Chemscore.DEClash>
2.6137

> <Gold.Chemscore.DEInternal>
1.6420

> <Gold.Chemscore.Rot>
2.5876

> <Gold.Chemscore.Internal.Correction>
   9.000000E+99

> <Gold.Chemscore.Hbonds>
donor molecule, donor type, donor heavy atom, donor atom, acceptor molecule, acceptor atom, score
      L1  H     3    21       P1  7957  0.01
      L1  H     6    25       P1 10171  0.98
      P1  H  7954  7966       L1     6  0.10

> <Gold.Chemscore.Hbond.Weighted>
-11.5726

> <Gold.Chemscore.Metal.Weighted>
-0.0000

> <Gold.Chemscore.Lipo.Weighted>
-8.2476

> <Gold.Chemscore.Internal_Hbond.Weighted>
0.0000

> <Gold.Chemscore.DEClash.Weighted>
2.6137

> <Gold.Chemscore.DEInternal.Weighted>
1.6420

> <Gold.Chemscore.Rot.Weighted>
6.6242

> <Gold.Chemscore.Internal.Correction.Weighted>
   9.000000E+99

> <Gold.Protein.RotatedTorsions>
[ 6907 6896 6895 6894 ] final  143.79 input  -60.11 | X-H torsion
[ 7974 7965 7964 7962 ] final  -95.71 input  175.53 | X-H torsion
[ 8008 7997 7996 7995 ] final  102.44 input   59.86 | X-H torsion
[ 10167 10162 10161 10158 ] final  105.49 input  -65.29 | X-H torsion
[ 10718 10713 10712 10709 ] final   52.64 input   66.30 | X-H torsion
[ 10763 10752 10751 10750 ] final -178.53 input  -60.55 | X-H torsion
[ 11005 11000 10999 10996 ] final  131.40 input  -57.11 | X-H torsion

> <Gold.Protein.ActiveResidues>
 VAL166  LYS551  ARG553  GLY616  TRP617  ASP618  TYR619  PRO620  LYS621  CYS622 
 ASP623  PHE694  ASN695  SER759  ASP760  ASP761  ALA762  ILE779  LEU786  VAL792 
 PHE793  MET794  SER795  GLU796  ALA797  LYS798  CYS799  TRP800  GLU811  SER814 

> <Gold.Protein.RotatedAtoms>
  152.2019  133.4847  159.5062 H   0  0  0  0  0  0  0  0  0  0  0  0  # atno 6907 bound_to 6896
  150.6971  134.1580  159.4174 H   0  0  0  0  0  0  0  0  0  0  0  0  # atno 6908 bound_to 6896
  151.9497  135.0174  160.0592 H   0  0  0  0  0  0  0  0  0  0  0  0  # atno 6909 bound_to 6896
  145.3564  140.9485  143.2525 H   0  0  0  0  0  0  0  0  0  0  0  0  # atno 7974 bound_to 7965
  156.1393  140.3181  155.8471 H   0  0  0  0  0  0  0  0  0  0  0  0  # atno 8008 bound_to 7997
  155.4184  140.0510  157.3044 H   0  0  0  0  0  0  0  0  0  0  0  0  # atno 8009 bound_to 7997
  154.4963  140.2112  155.9452 H   0  0  0  0  0  0  0  0  0  0  0  0  # atno 8010 bound_to 7997
  139.7088  144.7081  151.1061 H   0  0  0  0  0  0  0  0  0  0  0  0  # atno 10167 bound_to 10162
  157.5093  130.8490  149.8415 H   0  0  0  0  0  0  0  0  0  0  0  0  # atno 10718 bound_to 10713
  154.5465  135.2810  155.1047 H   0  0  0  0  0  0  0  0  0  0  0  0  # atno 10763 bound_to 10752
  154.2510  135.6339  153.5244 H   0  0  0  0  0  0  0  0  0  0  0  0  # atno 10764 bound_to 10752
  152.9992  135.5582  154.6020 H   0  0  0  0  0  0  0  0  0  0  0  0  # atno 10765 bound_to 10752
  139.9728  134.9572  156.9433 H   0  0  0  0  0  0  0  0  0  0  0  0  # atno 11005 bound_to 11000
  144.8679  139.5081  143.6782 LP  0  0  0  0  0  0  0  0  0  0  0  0  # atno 17320 bound_to 7965
  146.2946  139.7239  142.9136 LP  0  0  0  0  0  0  0  0  0  0  0  0  # atno 17321 bound_to 7965
  140.7728  143.5321  150.9411 LP  0  0  0  0  0  0  0  0  0  0  0  0  # atno 17342 bound_to 10162
  139.9005  143.6841  152.3132 LP  0  0  0  0  0  0  0  0  0  0  0  0  # atno 17343 bound_to 10162
  156.0279  130.3774  150.1771 LP  0  0  0  0  0  0  0  0  0  0  0  0  # atno 17370 bound_to 10713
  156.9961  130.9908  151.3403 LP  0  0  0  0  0  0  0  0  0  0  0  0  # atno 17371 bound_to 10713
  140.5257  134.0863  155.7303 LP  0  0  0  0  0  0  0  0  0  0  0  0  # atno 17394 bound_to 11000
  141.1407  133.9143  157.2332 LP  0  0  0  0  0  0  0  0  0  0  0  0  # atno 17395 bound_to 11000

$$$$
