AV-unprocessed.smi:3083|AV-procd|sdf|11746|dock9
  -GOLD-   2272017143D 1   1.00000     0.00000
 Structure written by MMmdl.
 28 29  0  0  0  0  0  0  0  0  2 V2000
  149.0164  138.7530  153.2551 N   0  3  0  0  0  0  0  0  0  0  0  0
  149.8414  139.1616  154.4074 C   0  0  2  0  0  0  0  0  0  0  0  0
  149.4741  138.3512  155.6703 C   0  0  0  0  0  0  0  0  0  0  0  0
  150.3011  138.7937  156.8880 C   0  0  0  0  0  0  0  0  0  0  0  0
  150.1923  140.3075  157.1257 C   0  0  0  0  0  0  0  0  0  0  0  0
  150.6244  141.0925  155.8760 C   0  0  0  0  0  0  0  0  0  0  0  0
  149.8153  140.7029  154.6201 C   0  0  2  0  0  0  0  0  0  0  0  0
  148.4846  141.3155  154.6318 N   0  0  0  0  0  0  0  0  0  0  0  0
  147.6406  141.4884  153.5526 C   0  0  0  0  0  0  0  0  0  0  0  0
  146.5239  142.1360  153.9965 C   0  0  0  0  0  0  0  0  0  0  0  0
  146.7824  142.3413  155.3791 C   0  0  0  0  0  0  0  0  0  0  0  0
  147.9549  141.8569  155.7525 N   0  0  0  0  0  0  0  0  0  0  0  0
  148.0442  138.7428  153.5305 H   0  0  0  0  0  0  0  0  0  0  0  0
  149.2905  137.8293  152.9528 H   0  0  0  0  0  0  0  0  0  0  0  0
  150.8665  138.8931  154.1480 H   0  0  0  0  0  0  0  0  0  0  0  0
  148.4136  138.4414  155.9012 H   0  0  0  0  0  0  0  0  0  0  0  0
  149.6449  137.2896  155.4880 H   0  0  0  0  0  0  0  0  0  0  0  0
  149.9719  138.2532  157.7760 H   0  0  0  0  0  0  0  0  0  0  0  0
  151.3473  138.5252  156.7350 H   0  0  0  0  0  0  0  0  0  0  0  0
  149.1699  140.5687  157.4001 H   0  0  0  0  0  0  0  0  0  0  0  0
  150.8167  140.5926  157.9730 H   0  0  0  0  0  0  0  0  0  0  0  0
  150.5421  142.1642  156.0616 H   0  0  0  0  0  0  0  0  0  0  0  0
  151.6822  140.9011  155.6911 H   0  0  0  0  0  0  0  0  0  0  0  0
  150.3288  141.1452  153.7647 H   0  0  0  0  0  0  0  0  0  0  0  0
  147.9024  141.1392  152.5645 H   0  0  0  0  0  0  0  0  0  0  0  0
  145.6586  142.4269  153.4192 H   0  0  0  0  0  0  0  0  0  0  0  0
  146.1599  142.8272  156.1159 H   0  0  0  0  0  0  0  0  0  0  0  0
  149.1440  139.4083  152.4973 H   0  0  0  0  0  0  0  0  0  0  0  0
  1  2  1  0  0  0  0
  1 13  1  0  0  0  0
  1 14  1  0  0  0  0
  1 28  1  0  0  0  0
  2  7  1  0  0  0  0
  2  3  1  0  0  0  0
  2 15  1  0  0  0  0
  3  4  1  0  0  0  0
  3 16  1  0  0  0  0
  3 17  1  0  0  0  0
  4  5  1  0  0  0  0
  4 18  1  0  0  0  0
  4 19  1  0  0  0  0
  5  6  1  0  0  0  0
  5 20  1  0  0  0  0
  5 21  1  0  0  0  0
  6  7  1  0  0  0  0
  6 22  1  0  0  0  0
  6 23  1  0  0  0  0
  7  8  1  0  0  0  0
  7 24  1  0  0  0  0
  8 12  1  0  0  0  0
  8  9  1  0  0  0  0
  9 10  2  0  0  0  0
  9 25  1  0  0  0  0
 10 11  1  0  0  0  0
 10 26  1  0  0  0  0
 11 12  2  0  0  0  0
 11 27  1  0  0  0  0
M  CHG  1   1   1
M  END
> <s_m_source_file>
AV-unprocessed.smi

> <i_m_source_file_index>
3083

> <i_lp_mmshare_version>
43012

> <i_f3d_flags>
0

> <s_epik_input>
W05IMl1bQ0BASF0xW0NIMl1bQ0gyXVtDSDJdW0NIMl1bQ0BIXTFuMltjSF1bY0hdW2NIXW4y

> <s_epik_cmdline>
J2VwaWtfcHl0aG9uJywgJy1waCcsICc3LjAnLCAnLXRuJywgJzgnLCAnLW1hJywgJzIwMCcsICctbWV0YWxfYmluZGluZycsICctaW1hZScsICc8aW5maWxlLm1hZT4nLCAnLW9tYWUnLCAnPG91dGZpbGUubWFlPic=

> <r_lp_tautomer_probability>
1

> <r_epik_Ionization_Penalty>
0.00385053

> <r_epik_Ionization_Penalty_Charging>
0.0038389

> <r_epik_Ionization_Penalty_Neutral>
1.16305e-05

> <r_epik_State_Penalty>
-0

> <r_epik_Charging_Adjusted_Penalty>
0.0038389

> <i_epik_Tot_Q>
1

> <i_epik_Tot_abs_Q>
1

> <r_epik_Metal_State_Penalty>
-0

> <b_epik_Metal_Only>
0

> <s_lp_Force_Field>
OPLS_2005

> <r_lp_Energy>
16.3847

> <b_lp_Chiralities_Consistent>
1

> <s_lp_Variant>
AV-unprocessed.smi:3083-3

> <Gold.Version>
5.8.1

> <Gold.Id.Protein>
6NUR|6NUR_protein|mol2

> <Gold.PLP.Fitness>
33.9516

> <Gold.PLP.PLP>
-22.5143

> <Gold.PLP.part.hbond>
-1.9227

> <Gold.PLP.part.metal>
0.0000

> <Gold.PLP.part.buried>
-2.0101

> <Gold.PLP.part.nonpolar>
-18.9460

> <Gold.PLP.part.repulsive>
0.8241

> <Gold.PLP.ligand.clash>
0.0000

> <Gold.PLP.ligand.torsion>
0.3136

> <Gold.PLP.Chemscore.Hbond>
3.0000

> <Gold.PLP.Chemscore.CHOScore>
1.0000

> <Gold.PLP.Chemscore.Metal>
0.0000

> <Gold.Chemscore.Hbonds>
donor molecule, donor type, donor heavy atom, donor atom, acceptor molecule, acceptor atom, score
      L1  H     1    14       P1  7948  2.00
      L1  H     1    28       P1  7957  1.00
      L1  C     9    25       P1  7957  1.00

> <Gold.PLP.Chemscore.Internal.Correction>
0.0646

> <Gold.Rescore>
     Score         DG    S(hbond)    S(metal)    S(lipo)     H(rot)  DE(clash)    DE(int)     intcor
     13.80     -15.20       1.95        0.00      49.41       1.00       0.21       1.19       ----

> <Gold.Chemscore.Fitness>
13.8048

> <Gold.Chemscore.DG>
-15.2001

> <Gold.Chemscore.ZeroCoef>
-5.4800

> <Gold.Chemscore.Hbond>
1.9458

> <Gold.Chemscore.Metal>
0.0000

> <Gold.Chemscore.Lipo>
49.4119

> <Gold.Chemscore.Internal_Hbond>
0.0000

> <Gold.Chemscore.DEClash>
0.2062

> <Gold.Chemscore.DEInternal>
1.1890

> <Gold.Chemscore.Rot>
1.0000

> <Gold.Chemscore.Internal.Correction>
   9.000000E+99

> <Gold.Chemscore.Hbonds>
donor molecule, donor type, donor heavy atom, donor atom, acceptor molecule, acceptor atom, score
      L1  H     1    14       P1  7948  0.90
      L1  H     1    28       P1  7957  0.94

> <Gold.Chemscore.Hbond.Weighted>
-6.4989

> <Gold.Chemscore.Metal.Weighted>
-0.0000

> <Gold.Chemscore.Lipo.Weighted>
-5.7812

> <Gold.Chemscore.Internal_Hbond.Weighted>
0.0000

> <Gold.Chemscore.DEClash.Weighted>
0.2062

> <Gold.Chemscore.DEInternal.Weighted>
1.1890

> <Gold.Chemscore.Rot.Weighted>
2.5600

> <Gold.Chemscore.Internal.Correction.Weighted>
   9.000000E+99

> <Gold.Protein.RotatedTorsions>
[ 6907 6896 6895 6894 ] final   99.05 input  -60.11 | X-H torsion
[ 7974 7965 7964 7962 ] final   68.59 input  175.53 | X-H torsion
[ 8008 7997 7996 7995 ] final  -15.63 input   59.86 | X-H torsion
[ 10167 10162 10161 10158 ] final -125.34 input  -65.29 | X-H torsion
[ 10718 10713 10712 10709 ] final    3.14 input   66.30 | X-H torsion
[ 10763 10752 10751 10750 ] final   76.15 input  -60.55 | X-H torsion
[ 11005 11000 10999 10996 ] final   -5.60 input  -57.11 | X-H torsion

> <Gold.Protein.ActiveResidues>
 VAL166  LYS551  ARG553  GLY616  TRP617  ASP618  TYR619  PRO620  LYS621  CYS622 
 ASP623  PHE694  ASN695  SER759  ASP760  ASP761  ALA762  ILE779  LEU786  VAL792 
 PHE793  MET794  SER795  GLU796  ALA797  LYS798  CYS799  TRP800  GLU811  SER814 

> <Gold.Protein.RotatedAtoms>
  152.5399  134.0487  159.8100 H   0  0  0  0  0  0  0  0  0  0  0  0  # atno 6907 bound_to 6896
  151.0632  133.5519  159.2640 H   0  0  0  0  0  0  0  0  0  0  0  0  # atno 6908 bound_to 6896
  151.2410  135.0597  159.9079 H   0  0  0  0  0  0  0  0  0  0  0  0  # atno 6909 bound_to 6896
  145.8007  139.2981  143.1156 H   0  0  0  0  0  0  0  0  0  0  0  0  # atno 7974 bound_to 7965
  154.5115  140.2191  155.9146 H   0  0  0  0  0  0  0  0  0  0  0  0  # atno 8008 bound_to 7997
  156.1558  140.3152  155.8690 H   0  0  0  0  0  0  0  0  0  0  0  0  # atno 8009 bound_to 7997
  155.3849  140.0474  157.3033 H   0  0  0  0  0  0  0  0  0  0  0  0  # atno 8010 bound_to 7997
  139.9832  143.5720  152.2370 H   0  0  0  0  0  0  0  0  0  0  0  0  # atno 10167 bound_to 10162
  156.8734  130.5628  149.5656 H   0  0  0  0  0  0  0  0  0  0  0  0  # atno 10718 bound_to 10713
  153.0705  135.4962  154.8294 H   0  0  0  0  0  0  0  0  0  0  0  0  # atno 10763 bound_to 10752
  154.7015  135.3002  154.9335 H   0  0  0  0  0  0  0  0  0  0  0  0  # atno 10764 bound_to 10752
  154.0058  135.6760  153.4815 H   0  0  0  0  0  0  0  0  0  0  0  0  # atno 10765 bound_to 10752
  140.6929  133.9056  155.8630 H   0  0  0  0  0  0  0  0  0  0  0  0  # atno 11005 bound_to 11000
  145.9880  140.8626  143.0080 LP  0  0  0  0  0  0  0  0  0  0  0  0  # atno 17320 bound_to 7965
  144.6769  140.2175  143.7370 LP  0  0  0  0  0  0  0  0  0  0  0  0  # atno 17321 bound_to 7965
  139.6394  144.7653  151.2369 LP  0  0  0  0  0  0  0  0  0  0  0  0  # atno 17342 bound_to 10162
  140.7482  143.6342  150.8394 LP  0  0  0  0  0  0  0  0  0  0  0  0  # atno 17343 bound_to 10162
  156.0714  130.5746  150.9391 LP  0  0  0  0  0  0  0  0  0  0  0  0  # atno 17370 bound_to 10713
  157.6182  131.0931  150.8671 LP  0  0  0  0  0  0  0  0  0  0  0  0  # atno 17371 bound_to 10713
  141.0227  134.0867  157.4103 LP  0  0  0  0  0  0  0  0  0  0  0  0  # atno 17394 bound_to 11000
  139.8918  135.0121  156.6813 LP  0  0  0  0  0  0  0  0  0  0  0  0  # atno 17395 bound_to 11000

$$$$
