AV-unprocessed.smi:155|AV-procd|sdf|1272|dock3
  -GOLD-   2262018533D 1   1.00000     0.00000
 Structure written by MMmdl.
 63 66  0  0  0  0  0  0  0  0  2 V2000
  145.8916  132.1207  149.5650 C   0  0  0  0  0  0  0  0  0  0  0  0
  145.1251  131.9431  150.7913 N   0  0  0  0  0  0  0  0  0  0  0  0
  145.7836  130.9202  151.5970 C   0  0  0  0  0  0  0  0  0  0  0  0
  145.0503  133.2224  151.4976 C   0  0  0  0  0  0  0  0  0  0  0  0
  146.4465  133.8027  151.8051 C   0  0  0  0  0  0  0  0  0  0  0  0
  146.3562  135.1003  152.5206 N   0  3  1  0  0  0  0  0  0  0  0  0
  145.4186  136.0437  151.8584 C   0  0  0  0  0  0  0  0  0  0  0  0
  145.1559  137.3480  152.6374 C   0  0  0  0  0  0  0  0  0  0  0  0
  146.3907  137.9462  153.3289 C   0  0  0  0  0  0  0  0  0  0  0  0
  146.6116  137.3474  154.6440 N   0  0  0  0  0  0  0  0  0  0  0  0
  147.2775  138.1520  155.4986 C   0  0  0  0  0  0  0  0  0  0  0  0
  146.9877  138.0387  156.8176 N   0  0  0  0  0  0  0  0  0  0  0  0
  147.6207  138.8108  157.7069 C   0  0  0  0  0  0  0  0  0  0  0  0
  148.5601  139.7355  157.4920 N   0  0  0  0  0  0  0  0  0  0  0  0
  148.8578  139.8417  156.1651 C   0  0  0  0  0  0  0  0  0  0  0  0
  148.2694  139.0940  155.1076 C   0  0  0  0  0  0  0  0  0  0  0  0
  148.8276  139.4686  153.8911 N   0  0  0  0  0  0  0  0  0  0  0  0
  149.6954  140.3900  154.2115 C   0  0  0  0  0  0  0  0  0  0  0  0
  149.7750  140.6780  155.5554 N   0  0  0  0  0  0  0  0  0  0  0  0
  150.6456  141.6523  156.1893 C   0  0  0  0  0  0  0  0  0  0  0  0
  150.2666  141.9112  157.6605 C   0  0  2  0  0  0  0  0  0  0  0  0
  149.0520  142.6358  157.7061 O   0  0  0  0  0  0  0  0  0  0  0  0
  151.3513  142.7072  158.4091 C   0  0  1  0  0  0  0  0  0  0  0  0
  151.6437  144.0898  157.8234 C   0  0  0  0  0  0  0  0  0  0  0  0
  152.1953  144.8705  159.0061 C   0  0  0  0  0  0  0  0  0  0  0  0
  151.7905  144.0364  160.2246 C   0  0  0  0  0  0  0  0  0  0  0  0
  150.9156  143.0377  159.7187 O   0  0  0  0  0  0  0  0  0  0  0  0
  147.0671  135.9628  154.7349 C   0  0  0  0  0  0  0  0  0  0  0  0
  146.1639  134.9688  153.9872 C   0  0  0  0  0  0  0  0  0  0  0  0
  145.4112  132.8519  148.9136 H   0  0  0  0  0  0  0  0  0  0  0  0
  145.9568  131.1829  149.0121 H   0  0  0  0  0  0  0  0  0  0  0  0
  146.9055  132.4647  149.7750 H   0  0  0  0  0  0  0  0  0  0  0  0
  145.2194  130.6953  152.5011 H   0  0  0  0  0  0  0  0  0  0  0  0
  146.7886  131.2287  151.8888 H   0  0  0  0  0  0  0  0  0  0  0  0
  145.8667  129.9896  151.0344 H   0  0  0  0  0  0  0  0  0  0  0  0
  144.4701  133.9328  150.9067 H   0  0  0  0  0  0  0  0  0  0  0  0
  144.5027  133.0889  152.4308 H   0  0  0  0  0  0  0  0  0  0  0  0
  147.0287  133.0882  152.3866 H   0  0  0  0  0  0  0  0  0  0  0  0
  147.0050  133.9454  150.8788 H   0  0  0  0  0  0  0  0  0  0  0  0
  145.8362  136.2919  150.8817 H   0  0  0  0  0  0  0  0  0  0  0  0
  144.4668  135.5442  151.6710 H   0  0  0  0  0  0  0  0  0  0  0  0
  144.7579  138.0802  151.9340 H   0  0  0  0  0  0  0  0  0  0  0  0
  144.3629  137.1981  153.3717 H   0  0  0  0  0  0  0  0  0  0  0  0
  147.2757  137.8343  152.7011 H   0  0  0  0  0  0  0  0  0  0  0  0
  146.2316  139.0186  153.4549 H   0  0  0  0  0  0  0  0  0  0  0  0
  147.3340  138.6675  158.7385 H   0  0  0  0  0  0  0  0  0  0  0  0
  150.3032  140.8910  153.4717 H   0  0  0  0  0  0  0  0  0  0  0  0
  151.6702  141.2852  156.1202 H   0  0  0  0  0  0  0  0  0  0  0  0
  150.6078  142.5797  155.6160 H   0  0  0  0  0  0  0  0  0  0  0  0
  150.1077  140.9577  158.1660 H   0  0  0  0  0  0  0  0  0  0  0  0
  148.9607  143.1158  156.8973 H   0  0  0  0  0  0  0  0  0  0  0  0
  152.2742  142.1277  158.4788 H   0  0  0  0  0  0  0  0  0  0  0  0
  152.3349  144.0526  156.9809 H   0  0  0  0  0  0  0  0  0  0  0  0
  150.7196  144.5559  157.4791 H   0  0  0  0  0  0  0  0  0  0  0  0
  153.2802  144.9641  158.9499 H   0  0  0  0  0  0  0  0  0  0  0  0
  151.7734  145.8752  159.0430 H   0  0  0  0  0  0  0  0  0  0  0  0
  152.6639  143.5566  160.6687 H   0  0  0  0  0  0  0  0  0  0  0  0
  151.3003  144.6312  160.9956 H   0  0  0  0  0  0  0  0  0  0  0  0
  148.0919  135.8857  154.3681 H   0  0  0  0  0  0  0  0  0  0  0  0
  147.0949  135.6787  155.7885 H   0  0  0  0  0  0  0  0  0  0  0  0
  145.1149  135.0787  154.2663 H   0  0  0  0  0  0  0  0  0  0  0  0
  146.4460  133.9668  154.3102 H   0  0  0  0  0  0  0  0  0  0  0  0
  147.2705  135.5163  152.4104 H   0  0  0  0  0  0  0  0  0  0  0  0
  1  2  1  0  0  0  0
  1 30  1  0  0  0  0
  1 31  1  0  0  0  0
  1 32  1  0  0  0  0
  2  3  1  0  0  0  0
  2  4  1  0  0  0  0
  3 33  1  0  0  0  0
  3 34  1  0  0  0  0
  3 35  1  0  0  0  0
  4  5  1  0  0  0  0
  4 36  1  0  0  0  0
  4 37  1  0  0  0  0
  5  6  1  0  0  0  0
  5 38  1  0  0  0  0
  5 39  1  0  0  0  0
  6 29  1  0  0  0  0
  6  7  1  0  0  0  0
  6 63  1  0  0  0  0
  7  8  1  0  0  0  0
  7 40  1  0  0  0  0
  7 41  1  0  0  0  0
  8  9  1  0  0  0  0
  8 42  1  0  0  0  0
  8 43  1  0  0  0  0
  9 10  1  0  0  0  0
  9 44  1  0  0  0  0
  9 45  1  0  0  0  0
 10 11  1  0  0  0  0
 10 28  1  0  0  0  0
 11 16  1  0  0  0  0
 11 12  2  0  0  0  0
 12 13  1  0  0  0  0
 13 14  2  0  0  0  0
 13 46  1  0  0  0  0
 14 15  1  0  0  0  0
 15 19  1  0  0  0  0
 15 16  2  0  0  0  0
 16 17  1  0  0  0  0
 17 18  2  0  0  0  0
 18 19  1  0  0  0  0
 18 47  1  0  0  0  0
 19 20  1  0  0  0  0
 20 21  1  0  0  0  0
 20 48  1  0  0  0  0
 20 49  1  0  0  0  0
 21 22  1  0  0  0  0
 21 23  1  0  0  0  0
 21 50  1  0  0  0  0
 22 51  1  0  0  0  0
 23 27  1  0  0  0  0
 23 24  1  0  0  0  0
 23 52  1  0  0  0  0
 24 25  1  0  0  0  0
 24 53  1  0  0  0  0
 24 54  1  0  0  0  0
 25 26  1  0  0  0  0
 25 55  1  0  0  0  0
 25 56  1  0  0  0  0
 26 27  1  0  0  0  0
 26 57  1  0  0  0  0
 26 58  1  0  0  0  0
 28 29  1  0  0  0  0
 28 59  1  0  0  0  0
 28 60  1  0  0  0  0
 29 61  1  0  0  0  0
 29 62  1  0  0  0  0
M  CHG  1   6   1
M  END
> <s_m_source_file>
AV-unprocessed.smi

> <i_m_source_file_index>
155

> <i_lp_mmshare_version>
43012

> <i_f3d_flags>
0

> <s_epik_input>
W0NIM11OKFtDSDNdKVtDSDJdW0NIMl1OMVtDSDJdW0NIMl1bQ0gyXU4oW0NIMl1bQ0gyXTEpYyhuW2NIXW4yKWMoYzIzKW5bY0hdbjNbQ0gyXVtDQEhdKFtPSF0pW0NAQEhdNFtDSDJdW0NIMl1bQ0gyXU80

> <s_epik_cmdline>
J2VwaWtfcHl0aG9uJywgJy1waCcsICc3LjAnLCAnLXRuJywgJzgnLCAnLW1hJywgJzIwMCcsICctbWV0YWxfYmluZGluZycsICctaW1hZScsICc8aW5maWxlLm1hZT4nLCAnLW9tYWUnLCAnPG91dGZpbGUubWFlPic=

> <r_epik_Ionization_Penalty>
0.0619615

> <r_epik_Ionization_Penalty_Charging>
0.0161638

> <r_epik_Ionization_Penalty_Neutral>
0.0457976

> <r_epik_State_Penalty>
0.403408

> <r_epik_Charging_Adjusted_Penalty>
0.419572

> <i_epik_Tot_Q>
1

> <i_epik_Tot_abs_Q>
1

> <r_epik_Metal_State_Penalty>
0.404222

> <b_epik_Metal_Only>
0

> <s_lp_Force_Field>
OPLS_2005

> <r_lp_Energy>
54.952

> <b_lp_Chiralities_Consistent>
1

> <s_lp_Variant>
AV-unprocessed.smi:155-6

> <Gold.Version>
5.8.1

> <Gold.Id.Protein>
6NUR|6NUR_protein|mol2

> <Gold.PLP.Fitness>
51.9072

> <Gold.PLP.PLP>
-42.4482

> <Gold.PLP.part.hbond>
-2.7011

> <Gold.PLP.part.metal>
0.0000

> <Gold.PLP.part.buried>
-4.8458

> <Gold.PLP.part.nonpolar>
-37.4065

> <Gold.PLP.part.repulsive>
2.0767

> <Gold.PLP.ligand.clash>
0.0000

> <Gold.PLP.ligand.torsion>
0.8894

> <Gold.PLP.Chemscore.Hbond>
3.0000

> <Gold.PLP.Chemscore.CHOScore>
0.5807

> <Gold.PLP.Chemscore.Metal>
0.0000

> <Gold.Chemscore.Hbonds>
donor molecule, donor type, donor heavy atom, donor atom, acceptor molecule, acceptor atom, score
      L1  H     6    63       P1  7948  2.00
      L1  H    22    51       P1  8028  1.00
      L1  C    18    47       P1  7957  0.56

> <Gold.PLP.Chemscore.Internal.Correction>
0.4956

> <Gold.Rescore>
     Score         DG    S(hbond)    S(metal)    S(lipo)     H(rot)  DE(clash)    DE(int)     intcor
     11.89     -17.64       1.93        0.00     112.41       2.91       2.29       3.46       ----

> <Gold.Chemscore.Fitness>
11.8939

> <Gold.Chemscore.DG>
-17.6365

> <Gold.Chemscore.ZeroCoef>
-5.4800

> <Gold.Chemscore.Hbond>
1.9318

> <Gold.Chemscore.Metal>
0.0000

> <Gold.Chemscore.Lipo>
112.4050

> <Gold.Chemscore.Internal_Hbond>
0.0000

> <Gold.Chemscore.DEClash>
2.2856

> <Gold.Chemscore.DEInternal>
3.4570

> <Gold.Chemscore.Rot>
2.9090

> <Gold.Chemscore.Internal.Correction>
   9.000000E+99

> <Gold.Chemscore.Hbonds>
donor molecule, donor type, donor heavy atom, donor atom, acceptor molecule, acceptor atom, score
      L1  H     6    63       P1  7948  1.00
      L1  H    22    51       P1  8028  0.83

> <Gold.Chemscore.Hbond.Weighted>
-6.4522

> <Gold.Chemscore.Metal.Weighted>
-0.0000

> <Gold.Chemscore.Lipo.Weighted>
-13.1514

> <Gold.Chemscore.Internal_Hbond.Weighted>
0.0000

> <Gold.Chemscore.DEClash.Weighted>
2.2856

> <Gold.Chemscore.DEInternal.Weighted>
3.4570

> <Gold.Chemscore.Rot.Weighted>
7.4470

> <Gold.Chemscore.Internal.Correction.Weighted>
   9.000000E+99

> <Gold.Protein.RotatedTorsions>
[ 6907 6896 6895 6894 ] final -111.05 input  -60.11 | X-H torsion
[ 7974 7965 7964 7962 ] final -107.30 input  175.53 | X-H torsion
[ 8008 7997 7996 7995 ] final -104.96 input   59.86 | X-H torsion
[ 10167 10162 10161 10158 ] final  120.80 input  -65.29 | X-H torsion
[ 10718 10713 10712 10709 ] final -158.94 input   66.30 | X-H torsion
[ 10763 10752 10751 10750 ] final  111.46 input  -60.55 | X-H torsion
[ 11005 11000 10999 10996 ] final -103.88 input  -57.11 | X-H torsion

> <Gold.Protein.ActiveResidues>
 VAL166  LYS551  ARG553  GLY616  TRP617  ASP618  TYR619  PRO620  LYS621  CYS622 
 ASP623  PHE694  ASN695  SER759  ASP760  ASP761  ALA762  ILE779  LEU786  VAL792 
 PHE793  MET794  SER795  GLU796  ALA797  LYS798  CYS799  TRP800  GLU811  SER814 

> <Gold.Protein.RotatedAtoms>
  150.7664  133.9293  159.3421 H   0  0  0  0  0  0  0  0  0  0  0  0  # atno 6907 bound_to 6896
  151.7189  135.0896  160.0290 H   0  0  0  0  0  0  0  0  0  0  0  0  # atno 6908 bound_to 6896
  152.3662  133.6322  159.6088 H   0  0  0  0  0  0  0  0  0  0  0  0  # atno 6909 bound_to 6896
  145.2071  140.9081  143.3336 H   0  0  0  0  0  0  0  0  0  0  0  0  # atno 7974 bound_to 7965
  154.8929  140.0415  157.1849 H   0  0  0  0  0  0  0  0  0  0  0  0  # atno 8008 bound_to 7997
  154.8522  140.2931  155.5570 H   0  0  0  0  0  0  0  0  0  0  0  0  # atno 8009 bound_to 7997
  156.2996  140.2462  156.3483 H   0  0  0  0  0  0  0  0  0  0  0  0  # atno 8010 bound_to 7997
  139.5959  144.7041  151.3177 H   0  0  0  0  0  0  0  0  0  0  0  0  # atno 10167 bound_to 10162
  156.5611  130.8647  151.2810 H   0  0  0  0  0  0  0  0  0  0  0  0  # atno 10718 bound_to 10713
  153.4636  135.3716  155.2352 H   0  0  0  0  0  0  0  0  0  0  0  0  # atno 10763 bound_to 10752
  154.8757  135.3914  154.3895 H   0  0  0  0  0  0  0  0  0  0  0  0  # atno 10764 bound_to 10752
  153.4473  135.7085  153.6195 H   0  0  0  0  0  0  0  0  0  0  0  0  # atno 10765 bound_to 10752
  141.1126  133.8677  157.1542 H   0  0  0  0  0  0  0  0  0  0  0  0  # atno 11005 bound_to 11000
  144.9892  139.3706  143.6223 LP  0  0  0  0  0  0  0  0  0  0  0  0  # atno 17320 bound_to 7965
  146.3405  139.9066  142.8786 LP  0  0  0  0  0  0  0  0  0  0  0  0  # atno 17321 bound_to 7965
  140.7211  143.7132  150.7753 LP  0  0  0  0  0  0  0  0  0  0  0  0  # atno 17342 bound_to 10162
  140.0698  143.5072  152.2586 LP  0  0  0  0  0  0  0  0  0  0  0  0  # atno 17343 bound_to 10162
  157.7368  130.9785  150.2157 LP  0  0  0  0  0  0  0  0  0  0  0  0  # atno 17370 bound_to 10713
  156.2798  130.3732  149.7947 LP  0  0  0  0  0  0  0  0  0  0  0  0  # atno 17371 bound_to 10713
  140.0028  135.0021  157.0227 LP  0  0  0  0  0  0  0  0  0  0  0  0  # atno 17394 bound_to 11000
  140.4735  134.1362  155.7206 LP  0  0  0  0  0  0  0  0  0  0  0  0  # atno 17395 bound_to 11000

$$$$
