AV-unprocessed.smi:2310|AV-procd|sdf|9255|dock5
  -GOLD-   2272012473D 1   1.00000     0.00000
 Structure written by MMmdl.
 45 46  0  0  0  0  0  0  0  0  1 V2000
  148.9499  132.0637  153.4606 C   0  0  0  0  0  0  0  0  0  0  0  0
  149.3826  133.5369  153.4303 C   0  0  0  0  0  0  0  0  0  0  0  0
  149.6166  134.1415  154.8270 C   0  0  2  0  0  0  0  0  0  0  0  0
  148.4338  133.8556  155.7656 C   0  0  0  0  0  0  0  0  0  0  0  0
  148.7882  133.9322  157.1922 C   0  0  0  0  0  0  0  0  0  0  0  0
  149.0671  133.9919  158.3132 N   0  0  0  0  0  0  0  0  0  0  0  0
  149.8250  135.5854  154.7175 N   0  0  0  0  0  0  0  0  0  0  0  0
  150.2780  136.3902  155.6897 C   0  0  0  0  0  0  0  0  0  0  0  0
  150.5677  135.9996  156.8201 O   0  0  0  0  0  0  0  0  0  0  0  0
  150.3888  137.6561  155.2530 N   0  0  0  0  0  0  0  0  0  0  0  0
  150.8662  138.7964  155.9576 C   0  0  0  0  0  0  0  0  0  0  0  0
  151.7537  138.7163  157.0564 C   0  0  0  0  0  0  0  0  0  0  0  0
  152.1551  139.9004  157.7029 C   0  0  0  0  0  0  0  0  0  0  0  0
  151.6497  141.1399  157.2465 C   0  0  0  0  0  0  0  0  0  0  0  0
  152.0279  142.3507  157.8604 N   0  0  0  0  0  0  0  0  0  0  0  0
  152.6871  142.3815  159.1588 C   0  0  0  0  0  0  0  0  0  0  0  0
  152.3348  143.7431  159.7698 C   0  0  0  0  0  0  0  0  0  0  0  0
  151.9384  144.6019  158.5689 C   0  0  0  0  0  0  0  0  0  0  0  0
  151.3084  143.5907  157.6128 C   0  0  0  0  0  0  0  0  0  0  0  0
  150.7939  141.2155  156.2006 N   0  0  0  0  0  0  0  0  0  0  0  0
  150.4087  140.0802  155.5789 C   0  0  0  0  0  0  0  0  0  0  0  0
  149.4447  140.2689  154.4211 C   0  0  0  0  0  0  0  0  0  0  0  0
  148.7421  131.7009  152.4540 H   0  0  0  0  0  0  0  0  0  0  0  0
  148.0446  131.9331  154.0541 H   0  0  0  0  0  0  0  0  0  0  0  0
  149.7250  131.4260  153.8863 H   0  0  0  0  0  0  0  0  0  0  0  0
  150.2870  133.6357  152.8285 H   0  0  0  0  0  0  0  0  0  0  0  0
  148.6134  134.1146  152.9167 H   0  0  0  0  0  0  0  0  0  0  0  0
  150.4999  133.6597  155.2502 H   0  0  0  0  0  0  0  0  0  0  0  0
  147.6170  134.5538  155.5813 H   0  0  0  0  0  0  0  0  0  0  0  0
  148.0443  132.8532  155.5862 H   0  0  0  0  0  0  0  0  0  0  0  0
  149.6183  136.0025  153.8218 H   0  0  0  0  0  0  0  0  0  0  0  0
  150.1889  137.8061  154.2752 H   0  0  0  0  0  0  0  0  0  0  0  0
  152.1246  137.7719  157.4236 H   0  0  0  0  0  0  0  0  0  0  0  0
  152.8423  139.8401  158.5334 H   0  0  0  0  0  0  0  0  0  0  0  0
  152.3609  141.5685  159.8083 H   0  0  0  0  0  0  0  0  0  0  0  0
  153.7633  142.2910  159.0085 H   0  0  0  0  0  0  0  0  0  0  0  0
  151.4776  143.6335  160.4354 H   0  0  0  0  0  0  0  0  0  0  0  0
  153.1537  144.1722  160.3476 H   0  0  0  0  0  0  0  0  0  0  0  0
  151.2626  145.4171  158.8294 H   0  0  0  0  0  0  0  0  0  0  0  0
  152.8308  145.0347  158.1150 H   0  0  0  0  0  0  0  0  0  0  0  0
  151.3979  143.9092  156.5735 H   0  0  0  0  0  0  0  0  0  0  0  0
  150.2512  143.4503  157.8426 H   0  0  0  0  0  0  0  0  0  0  0  0
  149.8780  139.8778  153.5001 H   0  0  0  0  0  0  0  0  0  0  0  0
  149.2102  141.3223  154.2624 H   0  0  0  0  0  0  0  0  0  0  0  0
  148.5101  139.7419  154.6149 H   0  0  0  0  0  0  0  0  0  0  0  0
  1  2  1  0  0  0  0
  1 23  1  0  0  0  0
  1 24  1  0  0  0  0
  1 25  1  0  0  0  0
  2  3  1  0  0  0  0
  2 26  1  0  0  0  0
  2 27  1  0  0  0  0
  3  4  1  0  0  0  0
  3  7  1  0  0  0  0
  3 28  1  0  0  0  0
  4  5  1  0  0  0  0
  4 29  1  0  0  0  0
  4 30  1  0  0  0  0
  5  6  3  0  0  0  0
  7  8  1  0  0  0  0
  7 31  1  0  0  0  0
  8  9  2  0  0  0  0
  8 10  1  0  0  0  0
 10 11  1  0  0  0  0
 10 32  1  0  0  0  0
 11 21  1  0  0  0  0
 11 12  2  0  0  0  0
 12 13  1  0  0  0  0
 12 33  1  0  0  0  0
 13 14  2  0  0  0  0
 13 34  1  0  0  0  0
 14 15  1  0  0  0  0
 14 20  1  0  0  0  0
 15 19  1  0  0  0  0
 15 16  1  0  0  0  0
 16 17  1  0  0  0  0
 16 35  1  0  0  0  0
 16 36  1  0  0  0  0
 17 18  1  0  0  0  0
 17 37  1  0  0  0  0
 17 38  1  0  0  0  0
 18 19  1  0  0  0  0
 18 39  1  0  0  0  0
 18 40  1  0  0  0  0
 19 41  1  0  0  0  0
 19 42  1  0  0  0  0
 20 21  2  0  0  0  0
 21 22  1  0  0  0  0
 22 43  1  0  0  0  0
 22 44  1  0  0  0  0
 22 45  1  0  0  0  0
M  END
> <s_m_source_file>
AV-unprocessed.smi

> <i_m_source_file_index>
2310

> <i_lp_mmshare_version>
43012

> <i_f3d_flags>
0

> <s_epik_input>
TiNDW0NIMl1bQ0BASF0oW0NIMl1bQ0gzXSlbTkhdQyg9TylbTkhdYzFbY0hdW2NIXWMobmMxW0NIM10pTjJbQ0gyXVtDSDJdW0NIMl1bQ0gyXTI=

> <s_epik_cmdline>
J2VwaWtfcHl0aG9uJywgJy1waCcsICc3LjAnLCAnLXRuJywgJzgnLCAnLW1hJywgJzIwMCcsICctbWV0YWxfYmluZGluZycsICctaW1hZScsICc8aW5maWxlLm1hZT4nLCAnLW9tYWUnLCAnPG91dGZpbGUubWFlPic=

> <r_lp_tautomer_probability>
1

> <r_epik_Ionization_Penalty>
0.281354

> <r_epik_Ionization_Penalty_Charging>
0

> <r_epik_Ionization_Penalty_Neutral>
0.281354

> <r_epik_State_Penalty>
0.273364

> <r_epik_Charging_Adjusted_Penalty>
0.273364

> <i_epik_Tot_Q>
0

> <i_epik_Tot_abs_Q>
0

> <r_epik_Metal_State_Penalty>
0.18752

> <b_epik_Metal_Only>
0

> <s_lp_Force_Field>
OPLS_2005

> <r_lp_Energy>
30.6963

> <b_lp_Chiralities_Consistent>
1

> <s_lp_Variant>
AV-unprocessed.smi:2310-1

> <Gold.Version>
5.8.1

> <Gold.Id.Protein>
6NUR|6NUR_protein|mol2

> <Gold.PLP.Fitness>
41.5482

> <Gold.PLP.PLP>
-36.8396

> <Gold.PLP.part.hbond>
-1.9527

> <Gold.PLP.part.metal>
0.0000

> <Gold.PLP.part.buried>
-4.0403

> <Gold.PLP.part.nonpolar>
-30.5137

> <Gold.PLP.part.repulsive>
0.1346

> <Gold.PLP.ligand.clash>
0.0000

> <Gold.PLP.ligand.torsion>
0.5924

> <Gold.PLP.Chemscore.Hbond>
1.8938

> <Gold.PLP.Chemscore.CHOScore>
0.0000

> <Gold.PLP.Chemscore.Metal>
0.0000

> <Gold.Chemscore.Hbonds>
donor molecule, donor type, donor heavy atom, donor atom, acceptor molecule, acceptor atom, score
      L1  H     7    31       P1  7948  0.96
      P1  H  6896  6909       L1     6  1.00

> <Gold.PLP.Chemscore.Internal.Correction>
0.2123

> <Gold.Rescore>
     Score         DG    S(hbond)    S(metal)    S(lipo)     H(rot)  DE(clash)    DE(int)     intcor
     13.51     -18.23       1.50        0.00      97.77       1.45       0.35       4.37       ----

> <Gold.Chemscore.Fitness>
13.5098

> <Gold.Chemscore.DG>
-18.2316

> <Gold.Chemscore.ZeroCoef>
-5.4800

> <Gold.Chemscore.Hbond>
1.5036

> <Gold.Chemscore.Metal>
0.0000

> <Gold.Chemscore.Lipo>
97.7732

> <Gold.Chemscore.Internal_Hbond>
0.0000

> <Gold.Chemscore.DEClash>
0.3547

> <Gold.Chemscore.DEInternal>
4.3671

> <Gold.Chemscore.Rot>
1.4492

> <Gold.Chemscore.Internal.Correction>
   9.000000E+99

> <Gold.Chemscore.Hbonds>
donor molecule, donor type, donor heavy atom, donor atom, acceptor molecule, acceptor atom, score
      L1  H     7    31       P1  7948  0.36
      P1  H  6896  6909       L1     6  1.00

> <Gold.Chemscore.Hbond.Weighted>
-5.0221

> <Gold.Chemscore.Metal.Weighted>
-0.0000

> <Gold.Chemscore.Lipo.Weighted>
-11.4395

> <Gold.Chemscore.Internal_Hbond.Weighted>
0.0000

> <Gold.Chemscore.DEClash.Weighted>
0.3547

> <Gold.Chemscore.DEInternal.Weighted>
4.3671

> <Gold.Chemscore.Rot.Weighted>
3.7100

> <Gold.Chemscore.Internal.Correction.Weighted>
   9.000000E+99

> <Gold.Protein.RotatedTorsions>
[ 6907 6896 6895 6894 ] final   19.55 input  -60.11 | X-H torsion
[ 7974 7965 7964 7962 ] final  169.35 input  175.53 | X-H torsion
[ 8008 7997 7996 7995 ] final -110.36 input   59.86 | X-H torsion
[ 10167 10162 10161 10158 ] final  124.53 input  -65.29 | X-H torsion
[ 10718 10713 10712 10709 ] final   65.75 input   66.30 | X-H torsion
[ 10763 10752 10751 10750 ] final  160.39 input  -60.55 | X-H torsion
[ 11005 11000 10999 10996 ] final -151.15 input  -57.11 | X-H torsion

> <Gold.Protein.ActiveResidues>
 VAL166  LYS551  ARG553  GLY616  TRP617  ASP618  TYR619  PRO620  LYS621  CYS622 
 ASP623  PHE694  ASN695  SER759  ASP760  ASP761  ALA762  ILE779  LEU786  VAL792 
 PHE793  MET794  SER795  GLU796  ALA797  LYS798  CYS799  TRP800  GLU811  SER814 

> <Gold.Protein.RotatedAtoms>
  151.8825  135.0448  160.0489 H   0  0  0  0  0  0  0  0  0  0  0  0  # atno 6907 bound_to 6896
  152.2501  133.5203  159.5328 H   0  0  0  0  0  0  0  0  0  0  0  0  # atno 6908 bound_to 6896
  150.7081  134.0888  159.3967 H   0  0  0  0  0  0  0  0  0  0  0  0  # atno 6909 bound_to 6896
  144.7358  139.9041  143.6411 H   0  0  0  0  0  0  0  0  0  0  0  0  # atno 7974 bound_to 7965
  154.9734  140.0397  157.2245 H   0  0  0  0  0  0  0  0  0  0  0  0  # atno 8008 bound_to 7997
  154.7780  140.2813  155.6063 H   0  0  0  0  0  0  0  0  0  0  0  0  # atno 8009 bound_to 7997
  156.2932  140.2597  156.2599 H   0  0  0  0  0  0  0  0  0  0  0  0  # atno 8010 bound_to 7997
  139.5736  144.6952  151.3712 H   0  0  0  0  0  0  0  0  0  0  0  0  # atno 10167 bound_to 10162
  157.6125  130.9231  150.0018 H   0  0  0  0  0  0  0  0  0  0  0  0  # atno 10718 bound_to 10713
  154.2466  135.2773  155.2833 H   0  0  0  0  0  0  0  0  0  0  0  0  # atno 10763 bound_to 10752
  154.5500  135.5678  153.6917 H   0  0  0  0  0  0  0  0  0  0  0  0  # atno 10764 bound_to 10752
  152.9989  135.6272  154.2612 H   0  0  0  0  0  0  0  0  0  0  0  0  # atno 10765 bound_to 10752
  140.7326  134.3603  157.5163 H   0  0  0  0  0  0  0  0  0  0  0  0  # atno 11005 bound_to 11000
  146.1050  139.4048  143.0323 LP  0  0  0  0  0  0  0  0  0  0  0  0  # atno 17320 bound_to 7965
  145.7525  140.9967  143.1243 LP  0  0  0  0  0  0  0  0  0  0  0  0  # atno 17321 bound_to 7965
  140.7020  143.7608  150.7419 LP  0  0  0  0  0  0  0  0  0  0  0  0  # atno 17342 bound_to 10162
  140.1121  143.4689  152.2363 LP  0  0  0  0  0  0  0  0  0  0  0  0  # atno 17343 bound_to 10162
  156.1234  130.3645  149.9849 LP  0  0  0  0  0  0  0  0  0  0  0  0  # atno 17370 bound_to 10713
  156.7925  130.9261  151.3646 LP  0  0  0  0  0  0  0  0  0  0  0  0  # atno 17371 bound_to 10713
  139.8823  134.9028  156.2842 LP  0  0  0  0  0  0  0  0  0  0  0  0  # atno 17394 bound_to 11000
  140.9907  133.7210  156.0810 LP  0  0  0  0  0  0  0  0  0  0  0  0  # atno 17395 bound_to 11000

$$$$
