AV-unprocessed.smi:3097|AV-procd|sdf|11798|dock1
  -GOLD-   2272017173D 1   1.00000     0.00000
 Structure written by MMmdl.
 35 35  0  0  0  0  0  0  0  0  2 V2000
  147.9143  140.7599  153.6088 C   0  0  0  0  0  0  0  0  0  0  0  0
  147.6692  139.2543  153.4463 C   0  0  0  0  0  0  0  0  0  0  0  0
  146.7920  138.9119  152.2329 C   0  0  0  0  0  0  0  0  0  0  0  0
  146.5330  137.4675  152.1365 N   0  0  0  0  0  0  0  0  0  0  0  0
  145.3346  136.8629  152.2585 C   0  0  0  0  0  0  0  0  0  0  0  0
  145.2487  135.5208  152.1755 N   0  3  0  0  0  0  0  0  0  0  0  0
  146.3739  134.6042  151.9548 C   0  0  0  0  0  0  0  0  0  0  0  0
  144.2234  137.5963  152.4652 N   0  0  0  0  0  0  0  0  0  0  0  0
  142.8633  137.0658  152.6246 C   0  0  0  0  0  0  0  0  0  0  0  0
  142.3091  137.3714  154.0222 C   0  0  0  0  0  0  0  0  0  0  0  0
  140.8594  137.3712  154.0333 N   0  0  0  0  0  0  0  0  0  0  0  0
  139.9941  138.1484  153.2920 C   0  0  0  0  0  0  0  0  0  0  0  0
  138.7243  137.7917  153.6455 C   0  0  0  0  0  0  0  0  0  0  0  0
  138.9179  136.7769  154.6242 C   0  0  0  0  0  0  0  0  0  0  0  0
  140.1972  136.5266  154.8533 N   0  0  0  0  0  0  0  0  0  0  0  0
  148.5224  140.9598  154.4913 H   0  0  0  0  0  0  0  0  0  0  0  0
  146.9749  141.3018  153.7231 H   0  0  0  0  0  0  0  0  0  0  0  0
  148.4378  141.1731  152.7464 H   0  0  0  0  0  0  0  0  0  0  0  0
  148.6265  138.7376  153.3700 H   0  0  0  0  0  0  0  0  0  0  0  0
  147.1915  138.8714  154.3487 H   0  0  0  0  0  0  0  0  0  0  0  0
  145.8402  139.4402  152.2941 H   0  0  0  0  0  0  0  0  0  0  0  0
  147.2745  139.2472  151.3144 H   0  0  0  0  0  0  0  0  0  0  0  0
  147.3455  136.8803  152.0125 H   0  0  0  0  0  0  0  0  0  0  0  0
  146.0224  133.5727  151.9452 H   0  0  0  0  0  0  0  0  0  0  0  0
  147.1132  134.7099  152.7488 H   0  0  0  0  0  0  0  0  0  0  0  0
  146.8543  134.8141  150.9991 H   0  0  0  0  0  0  0  0  0  0  0  0
  144.3235  138.5990  152.5340 H   0  0  0  0  0  0  0  0  0  0  0  0
  142.2190  137.5053  151.8623 H   0  0  0  0  0  0  0  0  0  0  0  0
  142.8837  135.9893  152.4508 H   0  0  0  0  0  0  0  0  0  0  0  0
  142.6627  136.6345  154.7452 H   0  0  0  0  0  0  0  0  0  0  0  0
  142.6590  138.3461  154.3651 H   0  0  0  0  0  0  0  0  0  0  0  0
  140.3487  138.8816  152.5824 H   0  0  0  0  0  0  0  0  0  0  0  0
  137.7978  138.1950  153.2640 H   0  0  0  0  0  0  0  0  0  0  0  0
  138.1722  136.2177  155.1701 H   0  0  0  0  0  0  0  0  0  0  0  0
  144.3378  135.0954  152.2739 H   0  0  0  0  0  0  0  0  0  0  0  0
  1  2  1  0  0  0  0
  1 16  1  0  0  0  0
  1 17  1  0  0  0  0
  1 18  1  0  0  0  0
  2  3  1  0  0  0  0
  2 19  1  0  0  0  0
  2 20  1  0  0  0  0
  3  4  1  0  0  0  0
  3 21  1  0  0  0  0
  3 22  1  0  0  0  0
  4  5  1  0  0  0  0
  4 23  1  0  0  0  0
  5  6  2  0  0  0  0
  5  8  1  0  0  0  0
  6  7  1  0  0  0  0
  6 35  1  0  0  0  0
  7 24  1  0  0  0  0
  7 25  1  0  0  0  0
  7 26  1  0  0  0  0
  8  9  1  0  0  0  0
  8 27  1  0  0  0  0
  9 10  1  0  0  0  0
  9 28  1  0  0  0  0
  9 29  1  0  0  0  0
 10 11  1  0  0  0  0
 10 30  1  0  0  0  0
 10 31  1  0  0  0  0
 11 15  1  0  0  0  0
 11 12  1  0  0  0  0
 12 13  2  0  0  0  0
 12 32  1  0  0  0  0
 13 14  1  0  0  0  0
 13 33  1  0  0  0  0
 14 15  2  0  0  0  0
 14 34  1  0  0  0  0
M  CHG  1   6   1
M  END
> <s_m_source_file>
AV-unprocessed.smi

> <i_m_source_file_index>
3097

> <i_lp_mmshare_version>
43012

> <i_f3d_flags>
0

> <s_epik_input>
W0NIM11bQ0gyXVtDSDJdW05IXS9DKD1OXFtDSDNdKVtOSF1bQ0gyXVtDSDJdbjFbY0hdW2NIXVtjSF1uMQ==

> <s_epik_cmdline>
J2VwaWtfcHl0aG9uJywgJy1waCcsICc3LjAnLCAnLXRuJywgJzgnLCAnLW1hJywgJzIwMCcsICctbWV0YWxfYmluZGluZycsICctaW1hZScsICc8aW5maWxlLm1hZT4nLCAnLW9tYWUnLCAnPG91dGZpbGUubWFlPic=

> <r_lp_tautomer_probability>
1

> <r_epik_Ionization_Penalty>
4.40305e-05

> <r_epik_Ionization_Penalty_Charging>
1.64417e-07

> <r_epik_Ionization_Penalty_Neutral>
4.38661e-05

> <r_epik_State_Penalty>
-0

> <r_epik_Charging_Adjusted_Penalty>
1.64417e-07

> <i_epik_Tot_Q>
1

> <i_epik_Tot_abs_Q>
1

> <r_epik_Metal_State_Penalty>
-0

> <b_epik_Metal_Only>
0

> <s_epik_Chemistry_Notes>
This compound has an imine and may undergo hydrolysis.

> <s_lp_Force_Field>
OPLS_2005

> <r_lp_Energy>
7.72145

> <b_lp_Chiralities_Consistent>
1

> <s_lp_Variant>
AV-unprocessed.smi:3097-1

> <Gold.Version>
5.8.1

> <Gold.Id.Protein>
6NUR|6NUR_protein|mol2

> <Gold.PLP.Fitness>
45.9052

> <Gold.PLP.PLP>
-28.2075

> <Gold.PLP.part.hbond>
-4.0000

> <Gold.PLP.part.metal>
0.0000

> <Gold.PLP.part.buried>
-2.7144

> <Gold.PLP.part.nonpolar>
-22.4883

> <Gold.PLP.part.repulsive>
0.1409

> <Gold.PLP.ligand.clash>
0.0000

> <Gold.PLP.ligand.torsion>
0.1502

> <Gold.PLP.Chemscore.Hbond>
4.9913

> <Gold.PLP.Chemscore.CHOScore>
1.0000

> <Gold.PLP.Chemscore.Metal>
0.0000

> <Gold.Chemscore.Hbonds>
donor molecule, donor type, donor heavy atom, donor atom, acceptor molecule, acceptor atom, score
      L1  H     4    23       P1  7948  2.00
      L1  H     8    27       P1 10175  2.00
      P1  H 11000 11005       L1    15  0.69
      L1  C    12    32       P1 10160  1.00

> <Gold.PLP.Chemscore.Internal.Correction>
0.0244

> <Gold.Rescore>
     Score         DG    S(hbond)    S(metal)    S(lipo)     H(rot)  DE(clash)    DE(int)     intcor
     15.54     -16.33       2.55        0.00      60.69       1.86       0.63       0.16       ----

> <Gold.Chemscore.Fitness>
15.5424

> <Gold.Chemscore.DG>
-16.3306

> <Gold.Chemscore.ZeroCoef>
-5.4800

> <Gold.Chemscore.Hbond>
2.5453

> <Gold.Chemscore.Metal>
0.0000

> <Gold.Chemscore.Lipo>
60.6928

> <Gold.Chemscore.Internal_Hbond>
0.0000

> <Gold.Chemscore.DEClash>
0.6281

> <Gold.Chemscore.DEInternal>
0.1601

> <Gold.Chemscore.Rot>
1.8561

> <Gold.Chemscore.Internal.Correction>
   9.000000E+99

> <Gold.Chemscore.Hbonds>
donor molecule, donor type, donor heavy atom, donor atom, acceptor molecule, acceptor atom, score
      L1  H     4    23       P1  7948  1.00
      L1  H     8    27       P1 10175  0.96
      P1  H 11000 11005       L1    15  0.15

> <Gold.Chemscore.Hbond.Weighted>
-8.5012

> <Gold.Chemscore.Metal.Weighted>
-0.0000

> <Gold.Chemscore.Lipo.Weighted>
-7.1011

> <Gold.Chemscore.Internal_Hbond.Weighted>
0.0000

> <Gold.Chemscore.DEClash.Weighted>
0.6281

> <Gold.Chemscore.DEInternal.Weighted>
0.1601

> <Gold.Chemscore.Rot.Weighted>
4.7517

> <Gold.Chemscore.Internal.Correction.Weighted>
   9.000000E+99

> <Gold.Protein.RotatedTorsions>
[ 6907 6896 6895 6894 ] final  111.11 input  -60.11 | X-H torsion
[ 7974 7965 7964 7962 ] final -146.17 input  175.53 | X-H torsion
[ 8008 7997 7996 7995 ] final  -76.32 input   59.86 | X-H torsion
[ 10167 10162 10161 10158 ] final   28.19 input  -65.29 | X-H torsion
[ 10718 10713 10712 10709 ] final  -96.22 input   66.30 | X-H torsion
[ 10763 10752 10751 10750 ] final -172.12 input  -60.55 | X-H torsion
[ 11005 11000 10999 10996 ] final   67.26 input  -57.11 | X-H torsion

> <Gold.Protein.ActiveResidues>
 VAL166  LYS551  ARG553  GLY616  TRP617  ASP618  TYR619  PRO620  LYS621  CYS622 
 ASP623  PHE694  ASN695  SER759  ASP760  ASP761  ALA762  ILE779  LEU786  VAL792 
 PHE793  MET794  SER795  GLU796  ALA797  LYS798  CYS799  TRP800  GLU811  SER814 

> <Gold.Protein.RotatedAtoms>
  152.4986  133.8704  159.7295 H   0  0  0  0  0  0  0  0  0  0  0  0  # atno 6907 bound_to 6896
  150.9192  133.6892  159.2843 H   0  0  0  0  0  0  0  0  0  0  0  0  # atno 6908 bound_to 6896
  151.4275  135.1010  159.9685 H   0  0  0  0  0  0  0  0  0  0  0  0  # atno 6909 bound_to 6896
  144.8178  140.5491  143.5599 H   0  0  0  0  0  0  0  0  0  0  0  0  # atno 7974 bound_to 7965
  154.5495  140.0729  156.8644 H   0  0  0  0  0  0  0  0  0  0  0  0  # atno 8008 bound_to 7997
  155.3021  140.3385  155.4229 H   0  0  0  0  0  0  0  0  0  0  0  0  # atno 8009 bound_to 7997
  156.1948  140.1699  156.8005 H   0  0  0  0  0  0  0  0  0  0  0  0  # atno 8010 bound_to 7997
  140.4874  144.0521  150.6285 H   0  0  0  0  0  0  0  0  0  0  0  0  # atno 10167 bound_to 10162
  156.0058  130.5142  150.6193 H   0  0  0  0  0  0  0  0  0  0  0  0  # atno 10718 bound_to 10713
  154.6228  135.2877  155.0306 H   0  0  0  0  0  0  0  0  0  0  0  0  # atno 10763 bound_to 10752
  154.1495  135.6506  153.4964 H   0  0  0  0  0  0  0  0  0  0  0  0  # atno 10764 bound_to 10752
  153.0244  135.5352  154.7025 H   0  0  0  0  0  0  0  0  0  0  0  0  # atno 10765 bound_to 10752
  139.9781  134.6788  156.0314 H   0  0  0  0  0  0  0  0  0  0  0  0  # atno 11005 bound_to 11000
  145.5175  139.1477  143.3570 LP  0  0  0  0  0  0  0  0  0  0  0  0  # atno 17320 bound_to 7965
  146.2482  140.5316  142.8905 LP  0  0  0  0  0  0  0  0  0  0  0  0  # atno 17321 bound_to 7965
  140.3781  143.2818  152.0202 LP  0  0  0  0  0  0  0  0  0  0  0  0  # atno 17342 bound_to 10162
  139.4844  144.6177  151.7315 LP  0  0  0  0  0  0  0  0  0  0  0  0  # atno 17343 bound_to 10162
  157.4011  131.0810  151.1307 LP  0  0  0  0  0  0  0  0  0  0  0  0  # atno 17370 bound_to 10713
  157.1969  130.6377  149.5724 LP  0  0  0  0  0  0  0  0  0  0  0  0  # atno 17371 bound_to 10713
  141.1456  133.6556  156.3859 LP  0  0  0  0  0  0  0  0  0  0  0  0  # atno 17394 bound_to 11000
  140.5152  134.6357  157.5298 LP  0  0  0  0  0  0  0  0  0  0  0  0  # atno 17395 bound_to 11000

$$$$
