AV-unprocessed.smi:2373|AV-procd|sdf|9440|dock7
  -GOLD-   2272013 73D 1   1.00000     0.00000
 Structure written by MMmdl.
 46 47  0  0  0  0  0  0  0  0  1 V2000
  150.8086  145.3024  159.6271 C   0  0  0  0  0  0  0  0  0  0  0  0
  151.8482  144.3987  159.1443 N   0  0  0  0  0  0  0  0  0  0  0  0
  152.1830  144.3682  157.7260 C   0  0  0  0  0  0  0  0  0  0  0  0
  152.4993  143.5285  160.0484 C   0  0  0  0  0  0  0  0  0  0  0  0
  152.3500  143.6708  161.4503 C   0  0  0  0  0  0  0  0  0  0  0  0
  153.0234  142.7797  162.3074 C   0  0  0  0  0  0  0  0  0  0  0  0
  153.8374  141.7724  161.7554 C   0  0  0  0  0  0  0  0  0  0  0  0
  154.4914  140.8769  162.6441 N   0  0  0  0  0  0  0  0  0  0  0  0
  154.9957  139.6589  162.3822 C   0  0  0  0  0  0  0  0  0  0  0  0
  155.0062  139.1199  161.2765 O   0  0  0  0  0  0  0  0  0  0  0  0
  155.5150  139.1060  163.4915 N   0  0  0  0  0  0  0  0  0  0  0  0
  156.1624  137.7933  163.6385 C   0  0  0  0  0  0  0  0  0  0  0  0
  155.1638  136.6397  163.3177 C   0  0  0  0  0  0  0  0  0  0  0  0
  153.7304  136.8203  163.8548 C   0  0  0  0  0  0  0  0  0  0  0  0
  153.7575  136.8746  165.2648 O   0  0  0  0  0  0  0  0  0  0  0  0
  157.3735  137.7958  162.6720 C   0  0  0  0  0  0  0  0  0  0  0  0
  158.3560  136.6405  162.9315 C   0  0  0  0  0  0  0  0  0  0  0  0
  158.8050  136.6815  164.2789 O   0  0  0  0  0  0  0  0  0  0  0  0
  157.7473  136.5075  165.2112 C   0  0  0  0  0  0  0  0  0  0  0  0
  156.7273  137.6524  165.0775 C   0  0  0  0  0  0  0  0  0  0  0  0
  153.9159  141.6958  160.3452 C   0  0  0  0  0  0  0  0  0  0  0  0
  153.2706  142.5469  159.5205 N   0  0  0  0  0  0  0  0  0  0  0  0
  151.1992  145.9528  160.4103 H   0  0  0  0  0  0  0  0  0  0  0  0
  149.9686  144.7376  160.0329 H   0  0  0  0  0  0  0  0  0  0  0  0
  150.4298  145.9381  158.8266 H   0  0  0  0  0  0  0  0  0  0  0  0
  152.0258  143.3700  157.3158 H   0  0  0  0  0  0  0  0  0  0  0  0
  153.2250  144.6500  157.5728 H   0  0  0  0  0  0  0  0  0  0  0  0
  151.5635  145.0611  157.1562 H   0  0  0  0  0  0  0  0  0  0  0  0
  151.7326  144.4421  161.8849 H   0  0  0  0  0  0  0  0  0  0  0  0
  152.9163  142.8754  163.3782 H   0  0  0  0  0  0  0  0  0  0  0  0
  154.6331  141.2246  163.5811 H   0  0  0  0  0  0  0  0  0  0  0  0
  155.4515  139.6518  164.3382 H   0  0  0  0  0  0  0  0  0  0  0  0
  155.1111  136.4847  162.2406 H   0  0  0  0  0  0  0  0  0  0  0  0
  155.5588  135.7040  163.7145 H   0  0  0  0  0  0  0  0  0  0  0  0
  153.2802  137.7407  163.4838 H   0  0  0  0  0  0  0  0  0  0  0  0
  153.0857  135.9947  163.5560 H   0  0  0  0  0  0  0  0  0  0  0  0
  154.5542  137.3054  165.5343 H   0  0  0  0  0  0  0  0  0  0  0  0
  157.0509  137.7834  161.6315 H   0  0  0  0  0  0  0  0  0  0  0  0
  157.9270  138.7285  162.7935 H   0  0  0  0  0  0  0  0  0  0  0  0
  157.9048  135.6728  162.7106 H   0  0  0  0  0  0  0  0  0  0  0  0
  159.2212  136.7373  162.2755 H   0  0  0  0  0  0  0  0  0  0  0  0
  157.2743  135.5354  165.0678 H   0  0  0  0  0  0  0  0  0  0  0  0
  158.1681  136.5030  166.2168 H   0  0  0  0  0  0  0  0  0  0  0  0
  157.2233  138.5804  165.3661 H   0  0  0  0  0  0  0  0  0  0  0  0
  155.9245  137.5029  165.7998 H   0  0  0  0  0  0  0  0  0  0  0  0
  154.4860  140.9301  159.8432 H   0  0  0  0  0  0  0  0  0  0  0  0
  1  2  1  0  0  0  0
  1 23  1  0  0  0  0
  1 24  1  0  0  0  0
  1 25  1  0  0  0  0
  2  3  1  0  0  0  0
  2  4  1  0  0  0  0
  3 26  1  0  0  0  0
  3 27  1  0  0  0  0
  3 28  1  0  0  0  0
  4 22  1  0  0  0  0
  4  5  2  0  0  0  0
  5  6  1  0  0  0  0
  5 29  1  0  0  0  0
  6  7  2  0  0  0  0
  6 30  1  0  0  0  0
  7  8  1  0  0  0  0
  7 21  1  0  0  0  0
  8  9  1  0  0  0  0
  8 31  1  0  0  0  0
  9 10  2  0  0  0  0
  9 11  1  0  0  0  0
 11 12  1  0  0  0  0
 11 32  1  0  0  0  0
 12 20  1  0  0  0  0
 12 13  1  0  0  0  0
 12 16  1  0  0  0  0
 13 14  1  0  0  0  0
 13 33  1  0  0  0  0
 13 34  1  0  0  0  0
 14 15  1  0  0  0  0
 14 35  1  0  0  0  0
 14 36  1  0  0  0  0
 15 37  1  0  0  0  0
 16 17  1  0  0  0  0
 16 38  1  0  0  0  0
 16 39  1  0  0  0  0
 17 18  1  0  0  0  0
 17 40  1  0  0  0  0
 17 41  1  0  0  0  0
 18 19  1  0  0  0  0
 19 20  1  0  0  0  0
 19 42  1  0  0  0  0
 19 43  1  0  0  0  0
 20 44  1  0  0  0  0
 20 45  1  0  0  0  0
 21 22  2  0  0  0  0
 21 46  1  0  0  0  0
M  END
> <s_m_source_file>
AV-unprocessed.smi

> <i_m_source_file_index>
2373

> <i_lp_mmshare_version>
43012

> <i_f3d_flags>
0

> <s_epik_input>
W0NIM11OKFtDSDNdKWMxW2NIXVtjSF1jKFtjSF1uMSlbTkhdQyg9TylbTkhdQzIoW0NIMl1bQ0gyXVtPSF0pW0NIMl1bQ0gyXU9bQ0gyXVtDSDJdMg==

> <s_epik_cmdline>
J2VwaWtfcHl0aG9uJywgJy1waCcsICc3LjAnLCAnLXRuJywgJzgnLCAnLW1hJywgJzIwMCcsICctbWV0YWxfYmluZGluZycsICctaW1hZScsICc8aW5maWxlLm1hZT4nLCAnLW9tYWUnLCAnPG91dGZpbGUubWFlPic=

> <r_lp_tautomer_probability>
1

> <r_epik_Ionization_Penalty>
0.631973

> <r_epik_Ionization_Penalty_Charging>
0

> <r_epik_Ionization_Penalty_Neutral>
0.631973

> <r_epik_State_Penalty>
0.647706

> <r_epik_Charging_Adjusted_Penalty>
0.647706

> <i_epik_Tot_Q>
0

> <i_epik_Tot_abs_Q>
0

> <r_epik_Metal_State_Penalty>
0.309159

> <b_epik_Metal_Only>
0

> <s_lp_Force_Field>
OPLS_2005

> <r_lp_Energy>
18.939

> <b_lp_Chiralities_Consistent>
1

> <s_lp_Variant>
AV-unprocessed.smi:2373-2

> <Gold.Version>
5.8.1

> <Gold.Id.Protein>
6NUR|6NUR_protein|mol2

> <Gold.PLP.Fitness>
45.6835

> <Gold.PLP.PLP>
-46.5432

> <Gold.PLP.part.hbond>
-2.1930

> <Gold.PLP.part.metal>
0.0000

> <Gold.PLP.part.buried>
-6.5107

> <Gold.PLP.part.nonpolar>
-37.8492

> <Gold.PLP.part.repulsive>
0.0021

> <Gold.PLP.ligand.clash>
0.0000

> <Gold.PLP.ligand.torsion>
0.4433

> <Gold.PLP.Chemscore.Hbond>
0.0000

> <Gold.PLP.Chemscore.CHOScore>
0.0000

> <Gold.PLP.Chemscore.Metal>
0.0000

> <Gold.PLP.Chemscore.Internal.Correction>
0.0269

> <Gold.Rescore>
     Score         DG    S(hbond)    S(metal)    S(lipo)     H(rot)  DE(clash)    DE(int)     intcor
      8.62     -11.33       0.00        0.00      95.64       2.09       0.10       2.61       ----

> <Gold.Chemscore.Fitness>
8.6205

> <Gold.Chemscore.DG>
-11.3323

> <Gold.Chemscore.ZeroCoef>
-5.4800

> <Gold.Chemscore.Hbond>
0.0009

> <Gold.Chemscore.Metal>
0.0000

> <Gold.Chemscore.Lipo>
95.6351

> <Gold.Chemscore.Internal_Hbond>
0.0000

> <Gold.Chemscore.DEClash>
0.1029

> <Gold.Chemscore.DEInternal>
2.6088

> <Gold.Chemscore.Rot>
2.0859

> <Gold.Chemscore.Internal.Correction>
   9.000000E+99

> <Gold.Chemscore.Hbond.Weighted>
-0.0029

> <Gold.Chemscore.Metal.Weighted>
-0.0000

> <Gold.Chemscore.Lipo.Weighted>
-11.1893

> <Gold.Chemscore.Internal_Hbond.Weighted>
0.0000

> <Gold.Chemscore.DEClash.Weighted>
0.1029

> <Gold.Chemscore.DEInternal.Weighted>
2.6088

> <Gold.Chemscore.Rot.Weighted>
5.3399

> <Gold.Chemscore.Internal.Correction.Weighted>
   9.000000E+99

> <Gold.Protein.RotatedTorsions>
[ 6907 6896 6895 6894 ] final  -77.17 input  -60.11 | X-H torsion
[ 7974 7965 7964 7962 ] final  -42.19 input  175.53 | X-H torsion
[ 8008 7997 7996 7995 ] final  -37.82 input   59.86 | X-H torsion
[ 10167 10162 10161 10158 ] final -100.09 input  -65.29 | X-H torsion
[ 10718 10713 10712 10709 ] final -154.70 input   66.30 | X-H torsion
[ 10763 10752 10751 10750 ] final   10.33 input  -60.55 | X-H torsion
[ 11005 11000 10999 10996 ] final  -19.63 input  -57.11 | X-H torsion

> <Gold.Protein.ActiveResidues>
 VAL166  LYS551  ARG553  GLY616  TRP617  ASP618  TYR619  PRO620  LYS621  CYS622 
 ASP623  PHE694  ASN695  SER759  ASP760  ASP761  ALA762  ILE779  LEU786  VAL792 
 PHE793  MET794  SER795  GLU796  ALA797  LYS798  CYS799  TRP800  GLU811  SER814 

> <Gold.Protein.RotatedAtoms>
  150.7006  134.4463  159.5315 H   0  0  0  0  0  0  0  0  0  0  0  0  # atno 6907 bound_to 6896
  152.2164  134.8451  160.0500 H   0  0  0  0  0  0  0  0  0  0  0  0  # atno 6908 bound_to 6896
  151.9318  133.3578  159.3970 H   0  0  0  0  0  0  0  0  0  0  0  0  # atno 6909 bound_to 6896
  146.0139  140.6931  142.9211 H   0  0  0  0  0  0  0  0  0  0  0  0  # atno 7974 bound_to 7965
  154.4047  140.1594  156.2600 H   0  0  0  0  0  0  0  0  0  0  0  0  # atno 8008 bound_to 7997
  155.9045  140.3431  155.6029 H   0  0  0  0  0  0  0  0  0  0  0  0  # atno 8009 bound_to 7997
  155.7409  140.0792  157.2237 H   0  0  0  0  0  0  0  0  0  0  0  0  # atno 8010 bound_to 7997
  140.2556  143.3443  152.0674 H   0  0  0  0  0  0  0  0  0  0  0  0  # atno 10167 bound_to 10162
  156.5029  130.8399  151.2616 H   0  0  0  0  0  0  0  0  0  0  0  0  # atno 10718 bound_to 10713
  153.2043  135.6860  153.8192 H   0  0  0  0  0  0  0  0  0  0  0  0  # atno 10763 bound_to 10752
  153.7447  135.3233  155.3311 H   0  0  0  0  0  0  0  0  0  0  0  0  # atno 10764 bound_to 10752
  154.8188  135.4666  154.0823 H   0  0  0  0  0  0  0  0  0  0  0  0  # atno 10765 bound_to 10752
  140.8386  133.7943  155.9836 H   0  0  0  0  0  0  0  0  0  0  0  0  # atno 11005 bound_to 11000
  144.6963  140.3447  143.7193 LP  0  0  0  0  0  0  0  0  0  0  0  0  # atno 17320 bound_to 7965
  145.7299  139.1733  143.2436 LP  0  0  0  0  0  0  0  0  0  0  0  0  # atno 17321 bound_to 7965
  139.5033  144.6752  151.6146 LP  0  0  0  0  0  0  0  0  0  0  0  0  # atno 17342 bound_to 10162
  140.6007  143.9616  150.6384 LP  0  0  0  0  0  0  0  0  0  0  0  0  # atno 17343 bound_to 10162
  157.7460  130.9975  150.2820 LP  0  0  0  0  0  0  0  0  0  0  0  0  # atno 17370 bound_to 10713
  156.3315  130.3801  149.7487 LP  0  0  0  0  0  0  0  0  0  0  0  0  # atno 17371 bound_to 10713
  140.8920  134.2483  157.5089 LP  0  0  0  0  0  0  0  0  0  0  0  0  # atno 17394 bound_to 11000
  139.8703  134.9666  156.4568 LP  0  0  0  0  0  0  0  0  0  0  0  0  # atno 17395 bound_to 11000

$$$$
