AV-unprocessed.smi:2264|AV-procd|sdf|9142|dock8
  -GOLD-   2272012343D 1   1.00000     0.00000
 Structure written by MMmdl.
 44 45  0  0  0  0  0  0  0  0  1 V2000
  151.0325  145.0700  159.8338 C   0  0  0  0  0  0  0  0  0  0  0  0
  151.4394  143.7202  159.2796 C   0  0  0  0  0  0  0  0  0  0  0  0
  150.8040  143.1949  158.1378 C   0  0  0  0  0  0  0  0  0  0  0  0
  151.1871  141.9398  157.6280 C   0  0  0  0  0  0  0  0  0  0  0  0
  152.2143  141.1907  158.2551 C   0  0  0  0  0  0  0  0  0  0  0  0
  152.6407  139.9563  157.8132 O   0  0  0  0  0  0  0  0  0  0  0  0
  151.7878  139.2055  156.9597 C   0  0  0  0  0  0  0  0  0  0  0  0
  152.0779  139.6211  155.5097 C   0  0  1  0  0  0  0  0  0  0  0  0
  153.4415  139.3487  155.2586 O   0  0  0  0  0  0  0  0  0  0  0  0
  151.2110  138.8412  154.4934 C   0  0  0  0  0  0  0  0  0  0  0  0
  149.7729  139.0193  154.7490 N   0  0  0  0  0  0  0  0  0  0  0  0
  149.1107  137.9408  155.3599 C   0  0  0  0  0  0  0  0  0  0  0  0
  147.8483  137.9869  155.6346 N   0  0  0  0  0  0  0  0  0  0  0  0
  147.1092  139.1321  155.3243 C   0  0  0  0  0  0  0  0  0  0  0  0
  145.6344  139.0776  155.6820 C   0  0  0  0  0  0  0  0  0  0  0  0
  147.6932  140.2140  154.7401 C   0  0  0  0  0  0  0  0  0  0  0  0
  146.9380  141.4866  154.3777 C   0  0  0  0  0  0  0  0  0  0  0  0
  149.1316  140.1795  154.4290 C   0  0  0  0  0  0  0  0  0  0  0  0
  149.7263  141.1273  153.9121 O   0  0  0  0  0  0  0  0  0  0  0  0
  152.8459  141.7230  159.4026 C   0  0  0  0  0  0  0  0  0  0  0  0
  153.9495  140.9425  160.0923 C   0  0  0  0  0  0  0  0  0  0  0  0
  152.4589  142.9811  159.9096 C   0  0  0  0  0  0  0  0  0  0  0  0
  150.3165  145.5695  159.1805 H   0  0  0  0  0  0  0  0  0  0  0  0
  151.9049  145.7156  159.9379 H   0  0  0  0  0  0  0  0  0  0  0  0
  150.5735  144.9519  160.8157 H   0  0  0  0  0  0  0  0  0  0  0  0
  150.0188  143.7517  157.6474 H   0  0  0  0  0  0  0  0  0  0  0  0
  150.6735  141.5713  156.7532 H   0  0  0  0  0  0  0  0  0  0  0  0
  151.9912  138.1411  157.0893 H   0  0  0  0  0  0  0  0  0  0  0  0
  150.7384  139.3853  157.2004 H   0  0  0  0  0  0  0  0  0  0  0  0
  151.9200  140.6966  155.4168 H   0  0  0  0  0  0  0  0  0  0  0  0
  153.9011  139.3251  156.0839 H   0  0  0  0  0  0  0  0  0  0  0  0
  151.4784  139.1060  153.4685 H   0  0  0  0  0  0  0  0  0  0  0  0
  151.4430  137.7757  154.5503 H   0  0  0  0  0  0  0  0  0  0  0  0
  149.7352  137.0748  155.5873 H   0  0  0  0  0  0  0  0  0  0  0  0
  145.0207  139.1725  154.7859 H   0  0  0  0  0  0  0  0  0  0  0  0
  145.3766  139.8839  156.3691 H   0  0  0  0  0  0  0  0  0  0  0  0
  145.3778  138.1337  156.1647 H   0  0  0  0  0  0  0  0  0  0  0  0
  147.3543  142.3374  154.9179 H   0  0  0  0  0  0  0  0  0  0  0  0
  145.8757  141.4372  154.6113 H   0  0  0  0  0  0  0  0  0  0  0  0
  147.0288  141.6861  153.3095 H   0  0  0  0  0  0  0  0  0  0  0  0
  154.3629  141.4951  160.9364 H   0  0  0  0  0  0  0  0  0  0  0  0
  154.7609  140.7355  159.3940 H   0  0  0  0  0  0  0  0  0  0  0  0
  153.5653  139.9922  160.4637 H   0  0  0  0  0  0  0  0  0  0  0  0
  152.9456  143.3840  160.7861 H   0  0  0  0  0  0  0  0  0  0  0  0
  1  2  1  0  0  0  0
  1 23  1  0  0  0  0
  1 24  1  0  0  0  0
  1 25  1  0  0  0  0
  2 22  1  0  0  0  0
  2  3  2  0  0  0  0
  3  4  1  0  0  0  0
  3 26  1  0  0  0  0
  4  5  2  0  0  0  0
  4 27  1  0  0  0  0
  5  6  1  0  0  0  0
  5 20  1  0  0  0  0
  6  7  1  0  0  0  0
  7  8  1  0  0  0  0
  7 28  1  0  0  0  0
  7 29  1  0  0  0  0
  8  9  1  0  0  0  0
  8 10  1  0  0  0  0
  8 30  1  0  0  0  0
  9 31  1  0  0  0  0
 10 11  1  0  0  0  0
 10 32  1  0  0  0  0
 10 33  1  0  0  0  0
 11 18  1  0  0  0  0
 11 12  1  0  0  0  0
 12 13  2  0  0  0  0
 12 34  1  0  0  0  0
 13 14  1  0  0  0  0
 14 15  1  0  0  0  0
 14 16  2  0  0  0  0
 15 35  1  0  0  0  0
 15 36  1  0  0  0  0
 15 37  1  0  0  0  0
 16 17  1  0  0  0  0
 16 18  1  0  0  0  0
 17 38  1  0  0  0  0
 17 39  1  0  0  0  0
 17 40  1  0  0  0  0
 18 19  2  0  0  0  0
 20 21  1  0  0  0  0
 20 22  2  0  0  0  0
 21 41  1  0  0  0  0
 21 42  1  0  0  0  0
 21 43  1  0  0  0  0
 22 44  1  0  0  0  0
M  END
> <s_m_source_file>
AV-unprocessed.smi

> <i_m_source_file_index>
2264

> <i_lp_mmshare_version>
43012

> <i_f3d_flags>
0

> <s_epik_input>
W0NIM11jMVtjSF1bY0hdYyhjKFtDSDNdKVtjSF0xKU9bQ0gyXVtDQEhdKFtPSF0pW0NIMl1uMltjSF1uYyhbQ0gzXSljKFtDSDNdKWMyPU8=

> <s_epik_cmdline>
J2VwaWtfcHl0aG9uJywgJy1waCcsICc3LjAnLCAnLXRuJywgJzgnLCAnLW1hJywgJzIwMCcsICctbWV0YWxfYmluZGluZycsICctaW1hZScsICc8aW5maWxlLm1hZT4nLCAnLW9tYWUnLCAnPG91dGZpbGUubWFlPic=

> <r_lp_tautomer_probability>
1

> <r_epik_Ionization_Penalty>
3.7476e-05

> <r_epik_Ionization_Penalty_Charging>
8.44705e-08

> <r_epik_Ionization_Penalty_Neutral>
3.73915e-05

> <r_epik_State_Penalty>
-0

> <r_epik_Charging_Adjusted_Penalty>
8.44705e-08

> <i_epik_Tot_Q>
0

> <i_epik_Tot_abs_Q>
0

> <r_epik_Metal_State_Penalty>
-0

> <b_epik_Metal_Only>
0

> <s_lp_Force_Field>
OPLS_2005

> <r_lp_Energy>
22.0846

> <b_lp_Chiralities_Consistent>
1

> <s_lp_Variant>
AV-unprocessed.smi:2264-2

> <Gold.Version>
5.8.1

> <Gold.Id.Protein>
6NUR|6NUR_protein|mol2

> <Gold.PLP.Fitness>
47.9737

> <Gold.PLP.PLP>
-42.6223

> <Gold.PLP.part.hbond>
-3.7350

> <Gold.PLP.part.metal>
0.0000

> <Gold.PLP.part.buried>
-5.3700

> <Gold.PLP.part.nonpolar>
-35.3687

> <Gold.PLP.part.repulsive>
1.5775

> <Gold.PLP.ligand.clash>
0.0000

> <Gold.PLP.ligand.torsion>
0.6408

> <Gold.PLP.Chemscore.Hbond>
2.2000

> <Gold.PLP.Chemscore.CHOScore>
0.0000

> <Gold.PLP.Chemscore.Metal>
0.0000

> <Gold.Chemscore.Hbonds>
donor molecule, donor type, donor heavy atom, donor atom, acceptor molecule, acceptor atom, score
      P1  H  7989  7998       L1    19  0.35
      P1  H  7997  8008       L1     6  0.91
      P1  H  8011  8017       L1    19  0.82

> <Gold.PLP.Chemscore.Internal.Correction>
0.0330

> <Gold.Rescore>
     Score         DG    S(hbond)    S(metal)    S(lipo)     H(rot)  DE(clash)    DE(int)     intcor
     17.40     -18.89       1.82        0.00     113.37       2.32       0.80       0.69       ----

> <Gold.Chemscore.Fitness>
17.3993

> <Gold.Chemscore.DG>
-18.8882

> <Gold.Chemscore.ZeroCoef>
-5.4800

> <Gold.Chemscore.Hbond>
1.8240

> <Gold.Chemscore.Metal>
0.0000

> <Gold.Chemscore.Lipo>
113.3719

> <Gold.Chemscore.Internal_Hbond>
0.0000

> <Gold.Chemscore.DEClash>
0.7997

> <Gold.Chemscore.DEInternal>
0.6892

> <Gold.Chemscore.Rot>
2.3236

> <Gold.Chemscore.Internal.Correction>
   9.000000E+99

> <Gold.Chemscore.Hbonds>
donor molecule, donor type, donor heavy atom, donor atom, acceptor molecule, acceptor atom, score
      P1  H  7989  7998       L1    19  0.35
      P1  H  7997  8008       L1     6  0.46
      P1  H  8011  8017       L1    19  0.77

> <Gold.Chemscore.Hbond.Weighted>
-6.0921

> <Gold.Chemscore.Metal.Weighted>
-0.0000

> <Gold.Chemscore.Lipo.Weighted>
-13.2645

> <Gold.Chemscore.Internal_Hbond.Weighted>
0.0000

> <Gold.Chemscore.DEClash.Weighted>
0.7997

> <Gold.Chemscore.DEInternal.Weighted>
0.6892

> <Gold.Chemscore.Rot.Weighted>
5.9484

> <Gold.Chemscore.Internal.Correction.Weighted>
   9.000000E+99

> <Gold.Protein.RotatedTorsions>
[ 6907 6896 6895 6894 ] final  -79.47 input  -60.11 | X-H torsion
[ 7974 7965 7964 7962 ] final  162.46 input  175.53 | X-H torsion
[ 8008 7997 7996 7995 ] final  -78.36 input   59.86 | X-H torsion
[ 10167 10162 10161 10158 ] final -149.22 input  -65.29 | X-H torsion
[ 10718 10713 10712 10709 ] final  -40.56 input   66.30 | X-H torsion
[ 10763 10752 10751 10750 ] final   43.26 input  -60.55 | X-H torsion
[ 11005 11000 10999 10996 ] final   29.57 input  -57.11 | X-H torsion

> <Gold.Protein.ActiveResidues>
 VAL166  LYS551  ARG553  GLY616  TRP617  ASP618  TYR619  PRO620  LYS621  CYS622 
 ASP623  PHE694  ASN695  SER759  ASP760  ASP761  ALA762  ILE779  LEU786  VAL792 
 PHE793  MET794  SER795  GLU796  ALA797  LYS798  CYS799  TRP800  GLU811  SER814 

> <Gold.Protein.RotatedAtoms>
  150.6949  134.4116  159.5164 H   0  0  0  0  0  0  0  0  0  0  0  0  # atno 6907 bound_to 6896
  152.1874  134.8699  160.0530 H   0  0  0  0  0  0  0  0  0  0  0  0  # atno 6908 bound_to 6896
  151.9667  133.3678  159.4092 H   0  0  0  0  0  0  0  0  0  0  0  0  # atno 6909 bound_to 6896
  144.7636  139.8043  143.6323 H   0  0  0  0  0  0  0  0  0  0  0  0  # atno 7974 bound_to 7965
  154.5682  140.0695  156.8923 H   0  0  0  0  0  0  0  0  0  0  0  0  # atno 8008 bound_to 7997
  155.2684  140.3363  155.4249 H   0  0  0  0  0  0  0  0  0  0  0  0  # atno 8009 bound_to 7997
  156.2097  140.1754  156.7708 H   0  0  0  0  0  0  0  0  0  0  0  0  # atno 8010 bound_to 7997
  139.7462  143.8588  152.2575 H   0  0  0  0  0  0  0  0  0  0  0  0  # atno 10167 bound_to 10162
  156.2800  130.4216  149.8347 H   0  0  0  0  0  0  0  0  0  0  0  0  # atno 10718 bound_to 10713
  152.9864  135.6107  154.3082 H   0  0  0  0  0  0  0  0  0  0  0  0  # atno 10763 bound_to 10752
  154.2799  135.2777  155.2703 H   0  0  0  0  0  0  0  0  0  0  0  0  # atno 10764 bound_to 10752
  154.5047  135.5857  153.6615 H   0  0  0  0  0  0  0  0  0  0  0  0  # atno 10765 bound_to 10752
  140.3035  134.2730  155.7749 H   0  0  0  0  0  0  0  0  0  0  0  0  # atno 11005 bound_to 11000
  146.1722  139.4877  142.9920 LP  0  0  0  0  0  0  0  0  0  0  0  0  # atno 17320 bound_to 7965
  145.6542  141.0256  143.1744 LP  0  0  0  0  0  0  0  0  0  0  0  0  # atno 17321 bound_to 7965
  139.8552  144.7144  150.9165 LP  0  0  0  0  0  0  0  0  0  0  0  0  # atno 17342 bound_to 10162
  140.7792  143.3864  151.1386 LP  0  0  0  0  0  0  0  0  0  0  0  0  # atno 17343 bound_to 10162
  156.5798  130.8461  151.3380 LP  0  0  0  0  0  0  0  0  0  0  0  0  # atno 17370 bound_to 10713
  157.7311  130.9695  150.1865 LP  0  0  0  0  0  0  0  0  0  0  0  0  # atno 17371 bound_to 10713
  141.2123  133.7661  156.9802 LP  0  0  0  0  0  0  0  0  0  0  0  0  # atno 17394 bound_to 11000
  140.1088  134.9490  157.2034 LP  0  0  0  0  0  0  0  0  0  0  0  0  # atno 17395 bound_to 11000

$$$$
