AV-unprocessed.smi:255|AV-procd|sdf|1955|dock8
  -GOLD-   2262021 93D 1   1.00000     0.00000
 Structure written by MMmdl.
 44 47  0  0  0  0  0  0  0  0  1 V2000
  153.6444  137.1490  157.7387 O   0  0  0  0  0  0  0  0  0  0  0  0
  153.4773  137.5668  159.0772 C   0  0  0  0  0  0  0  0  0  0  0  0
  153.6171  139.0969  159.1880 C   0  0  2  0  0  0  0  0  0  0  0  0
  153.8811  139.5736  160.6161 C   0  0  0  0  0  0  0  0  0  0  0  0
  153.4955  141.0496  160.5478 C   0  0  1  0  0  0  0  0  0  0  0  0
  154.5373  141.7629  160.1183 F   0  0  0  0  0  0  0  0  0  0  0  0
  152.3831  141.0975  159.4914 C   0  0  0  0  0  0  0  0  0  0  0  0
  152.3944  139.8029  158.8170 N   0  0  0  0  0  0  0  0  0  0  0  0
  152.1090  139.8564  157.4976 C   0  0  0  0  0  0  0  0  0  0  0  0
  152.9399  139.2742  156.5931 N   0  0  0  0  0  0  0  0  0  0  0  0
  152.6464  139.3256  155.2902 C   0  0  0  0  0  0  0  0  0  0  0  0
  151.5998  139.8994  154.6916 N   0  0  0  0  0  0  0  0  0  0  0  0
  150.7700  140.4893  155.6000 C   0  0  0  0  0  0  0  0  0  0  0  0
  150.9497  140.5129  157.0109 C   0  0  0  0  0  0  0  0  0  0  0  0
  149.9032  141.1963  157.6158 N   0  0  0  0  0  0  0  0  0  0  0  0
  149.1449  141.5576  156.6164 C   0  0  0  0  0  0  0  0  0  0  0  0
  149.5942  141.1821  155.3693 N   0  0  0  0  0  0  0  0  0  0  0  0
  148.9477  141.4482  154.0930 C   0  0  0  0  0  0  0  0  0  0  0  0
  147.7768  140.4874  153.7775 C   0  0  2  0  0  0  0  0  0  0  0  0
  146.7937  140.6127  154.7911 O   0  0  0  0  0  0  0  0  0  0  0  0
  148.2100  139.0287  153.7094 C   0  0  0  0  0  0  0  0  0  0  0  0
  147.2016  138.4235  152.7423 C   0  0  0  0  0  0  0  0  0  0  0  0
  147.0481  139.4401  151.7668 O   0  0  0  0  0  0  0  0  0  0  0  0
  147.1017  140.7115  152.4080 C   0  0  0  0  0  0  0  0  0  0  0  0
  154.4495  139.4354  158.5681 H   0  0  0  0  0  0  0  0  0  0  0  0
  153.1923  141.4599  161.5115 H   0  0  0  0  0  0  0  0  0  0  0  0
  154.5482  137.2773  157.4941 H   0  0  0  0  0  0  0  0  0  0  0  0
  152.5202  137.2204  159.4693 H   0  0  0  0  0  0  0  0  0  0  0  0
  154.2576  137.0788  159.6618 H   0  0  0  0  0  0  0  0  0  0  0  0
  153.2240  139.0534  161.3147 H   0  0  0  0  0  0  0  0  0  0  0  0
  154.9109  139.4136  160.9374 H   0  0  0  0  0  0  0  0  0  0  0  0
  151.4123  141.2185  159.9725 H   0  0  0  0  0  0  0  0  0  0  0  0
  152.5164  141.9368  158.8067 H   0  0  0  0  0  0  0  0  0  0  0  0
  153.3507  138.8366  154.6335 H   0  0  0  0  0  0  0  0  0  0  0  0
  148.2313  142.1154  156.7619 H   0  0  0  0  0  0  0  0  0  0  0  0
  148.5930  142.4794  154.0998 H   0  0  0  0  0  0  0  0  0  0  0  0
  149.7042  141.3922  153.3092 H   0  0  0  0  0  0  0  0  0  0  0  0
  145.9408  140.5312  154.3923 H   0  0  0  0  0  0  0  0  0  0  0  0
  149.2073  138.9496  153.2749 H   0  0  0  0  0  0  0  0  0  0  0  0
  148.2299  138.5293  154.6788 H   0  0  0  0  0  0  0  0  0  0  0  0
  147.5472  137.4894  152.2993 H   0  0  0  0  0  0  0  0  0  0  0  0
  146.2459  138.2400  153.2354 H   0  0  0  0  0  0  0  0  0  0  0  0
  146.0978  141.1284  152.5038 H   0  0  0  0  0  0  0  0  0  0  0  0
  147.6736  141.3831  151.7689 H   0  0  0  0  0  0  0  0  0  0  0  0
  1  2  1  0  0  0  0
  1 27  1  0  0  0  0
  2  3  1  0  0  0  0
  2 28  1  0  0  0  0
  2 29  1  0  0  0  0
  3 25  1  0  0  0  0
  3  8  1  0  0  0  0
  3  4  1  0  0  0  0
  4  5  1  0  0  0  0
  4 30  1  0  0  0  0
  4 31  1  0  0  0  0
  5 26  1  0  0  0  0
  5  6  1  0  0  0  0
  5  7  1  0  0  0  0
  7  8  1  0  0  0  0
  7 32  1  0  0  0  0
  7 33  1  0  0  0  0
  8  9  1  0  0  0  0
  9 14  1  0  0  0  0
  9 10  2  0  0  0  0
 10 11  1  0  0  0  0
 11 12  2  0  0  0  0
 11 34  1  0  0  0  0
 12 13  1  0  0  0  0
 13 17  1  0  0  0  0
 13 14  2  0  0  0  0
 14 15  1  0  0  0  0
 15 16  2  0  0  0  0
 16 17  1  0  0  0  0
 16 35  1  0  0  0  0
 17 18  1  0  0  0  0
 18 19  1  0  0  0  0
 18 36  1  0  0  0  0
 18 37  1  0  0  0  0
 19 24  1  0  0  0  0
 19 20  1  0  0  0  0
 19 21  1  0  0  0  0
 20 38  1  0  0  0  0
 21 22  1  0  0  0  0
 21 39  1  0  0  0  0
 21 40  1  0  0  0  0
 22 23  1  0  0  0  0
 22 41  1  0  0  0  0
 22 42  1  0  0  0  0
 23 24  1  0  0  0  0
 24 43  1  0  0  0  0
 24 44  1  0  0  0  0
M  END
> <s_m_source_file>
AV-unprocessed.smi

> <i_m_source_file_index>
255

> <i_lp_mmshare_version>
43012

> <i_f3d_flags>
0

> <s_epik_input>
W09IXVtDSDJdW0NAQEhdMVtDSDJdW0NASF0oRilbQ0gyXU4xYyhuW2NIXW4yKWMoYzIzKW5bY0hdbjNbQ0gyXVtDQEBdNChbT0hdKVtDSDJdW0NIMl1PW0NIMl00

> <s_epik_cmdline>
J2VwaWtfcHl0aG9uJywgJy1waCcsICc3LjAnLCAnLXRuJywgJzgnLCAnLW1hJywgJzIwMCcsICctbWV0YWxfYmluZGluZycsICctaW1hZScsICc8aW5maWxlLm1hZT4nLCAnLW9tYWUnLCAnPG91dGZpbGUubWFlPic=

> <r_lp_tautomer_probability>
1

> <r_epik_Ionization_Penalty>
0.0058098

> <r_epik_Ionization_Penalty_Charging>
0

> <r_epik_Ionization_Penalty_Neutral>
0.0058098

> <r_epik_State_Penalty>
0.00411166

> <r_epik_Charging_Adjusted_Penalty>
0.00411166

> <i_epik_Tot_Q>
0

> <i_epik_Tot_abs_Q>
0

> <r_epik_Metal_State_Penalty>
-0

> <b_epik_Metal_Only>
0

> <s_lp_Force_Field>
OPLS_2005

> <r_lp_Energy>
53.8685

> <b_lp_Chiralities_Consistent>
1

> <s_lp_Variant>
AV-unprocessed.smi:255-7

> <Gold.Version>
5.8.1

> <Gold.Id.Protein>
6NUR|6NUR_protein|mol2

> <Gold.PLP.Fitness>
42.2612

> <Gold.PLP.PLP>
-36.0624

> <Gold.PLP.part.hbond>
-2.0000

> <Gold.PLP.part.metal>
0.0000

> <Gold.PLP.part.buried>
-1.7914

> <Gold.PLP.part.nonpolar>
-32.1321

> <Gold.PLP.part.repulsive>
1.9922

> <Gold.PLP.ligand.clash>
0.0000

> <Gold.PLP.ligand.torsion>
0.5263

> <Gold.PLP.Chemscore.Hbond>
2.0000

> <Gold.PLP.Chemscore.CHOScore>
0.3882

> <Gold.PLP.Chemscore.Metal>
0.0000

> <Gold.Chemscore.Hbonds>
donor molecule, donor type, donor heavy atom, donor atom, acceptor molecule, acceptor atom, score
      P1  H  7989  7998       L1    12  1.00
      P1  H  7997  8008       L1    10  1.00
      L1  C    16    35       P1  8028  0.04

> <Gold.PLP.Chemscore.Internal.Correction>
0.0867

> <Gold.Rescore>
     Score         DG    S(hbond)    S(metal)    S(lipo)     H(rot)  DE(clash)    DE(int)     intcor
      7.13      -9.52       1.24        0.00      72.08       3.33       0.22       2.18       ----

> <Gold.Chemscore.Fitness>
7.1310

> <Gold.Chemscore.DG>
-9.5250

> <Gold.Chemscore.ZeroCoef>
-5.4800

> <Gold.Chemscore.Hbond>
1.2362

> <Gold.Chemscore.Metal>
0.0000

> <Gold.Chemscore.Lipo>
72.0845

> <Gold.Chemscore.Internal_Hbond>
0.0000

> <Gold.Chemscore.DEClash>
0.2158

> <Gold.Chemscore.DEInternal>
2.1781

> <Gold.Chemscore.Rot>
3.3273

> <Gold.Chemscore.Internal.Correction>
   9.000000E+99

> <Gold.Chemscore.Hbonds>
donor molecule, donor type, donor heavy atom, donor atom, acceptor molecule, acceptor atom, score
      P1  H  7989  7998       L1    12  0.51
      P1  H  7997  8008       L1    10  0.23

> <Gold.Chemscore.Hbond.Weighted>
-4.1290

> <Gold.Chemscore.Metal.Weighted>
-0.0000

> <Gold.Chemscore.Lipo.Weighted>
-8.4339

> <Gold.Chemscore.Internal_Hbond.Weighted>
0.0000

> <Gold.Chemscore.DEClash.Weighted>
0.2158

> <Gold.Chemscore.DEInternal.Weighted>
2.1781

> <Gold.Chemscore.Rot.Weighted>
8.5179

> <Gold.Chemscore.Internal.Correction.Weighted>
   9.000000E+99

> <Gold.Protein.RotatedTorsions>
[ 6907 6896 6895 6894 ] final   57.16 input  -60.11 | X-H torsion
[ 7974 7965 7964 7962 ] final  -11.19 input  175.53 | X-H torsion
[ 8008 7997 7996 7995 ] final  -62.34 input   59.86 | X-H torsion
[ 10167 10162 10161 10158 ] final  -25.10 input  -65.29 | X-H torsion
[ 10718 10713 10712 10709 ] final  -69.98 input   66.30 | X-H torsion
[ 10763 10752 10751 10750 ] final  147.07 input  -60.55 | X-H torsion
[ 11005 11000 10999 10996 ] final  -16.90 input  -57.11 | X-H torsion

> <Gold.Protein.ActiveResidues>
 VAL166  LYS551  ARG553  GLY616  TRP617  ASP618  TYR619  PRO620  LYS621  CYS622 
 ASP623  PHE694  ASN695  SER759  ASP760  ASP761  ALA762  ILE779  LEU786  VAL792 
 PHE793  MET794  SER795  GLU796  ALA797  LYS798  CYS799  TRP800  GLU811  SER814 

> <Gold.Protein.RotatedAtoms>
  152.3705  134.6741  160.0177 H   0  0  0  0  0  0  0  0  0  0  0  0  # atno 6907 bound_to 6896
  151.7035  133.3306  159.3280 H   0  0  0  0  0  0  0  0  0  0  0  0  # atno 6908 bound_to 6896
  150.7670  134.6529  159.6343 H   0  0  0  0  0  0  0  0  0  0  0  0  # atno 6909 bound_to 6896
  146.2196  140.2874  142.8366 H   0  0  0  0  0  0  0  0  0  0  0  0  # atno 7974 bound_to 7965
  154.4495  140.0998  156.6572 H   0  0  0  0  0  0  0  0  0  0  0  0  # atno 8008 bound_to 7997
  155.5333  140.3482  155.4412 H   0  0  0  0  0  0  0  0  0  0  0  0  # atno 8009 bound_to 7997
  156.0649  140.1335  156.9887 H   0  0  0  0  0  0  0  0  0  0  0  0  # atno 8010 bound_to 7997
  140.7287  143.4294  151.0825 H   0  0  0  0  0  0  0  0  0  0  0  0  # atno 10167 bound_to 10162
  156.0429  130.4323  150.2228 H   0  0  0  0  0  0  0  0  0  0  0  0  # atno 10718 bound_to 10713
  154.0323  135.2896  155.3367 H   0  0  0  0  0  0  0  0  0  0  0  0  # atno 10763 bound_to 10752
  154.6980  135.5200  153.8489 H   0  0  0  0  0  0  0  0  0  0  0  0  # atno 10764 bound_to 10752
  153.0635  135.6622  154.0535 H   0  0  0  0  0  0  0  0  0  0  0  0  # atno 10765 bound_to 10752
  140.8115  133.8137  155.9567 H   0  0  0  0  0  0  0  0  0  0  0  0  # atno 11005 bound_to 11000
  144.9152  140.7804  143.5783 LP  0  0  0  0  0  0  0  0  0  0  0  0  # atno 17320 bound_to 7965
  145.2807  139.1919  143.4792 LP  0  0  0  0  0  0  0  0  0  0  0  0  # atno 17321 bound_to 7965
  139.7949  143.8165  152.3156 LP  0  0  0  0  0  0  0  0  0  0  0  0  # atno 17342 bound_to 10162
  139.8162  144.7315  150.9632 LP  0  0  0  0  0  0  0  0  0  0  0  0  # atno 17343 bound_to 10162
  157.0321  131.0010  151.3309 LP  0  0  0  0  0  0  0  0  0  0  0  0  # atno 17370 bound_to 10713
  157.5270  130.8034  149.7873 LP  0  0  0  0  0  0  0  0  0  0  0  0  # atno 17371 bound_to 10713
  140.9193  134.2162  157.4936 LP  0  0  0  0  0  0  0  0  0  0  0  0  # atno 17394 bound_to 11000
  139.8714  134.9785  156.5000 LP  0  0  0  0  0  0  0  0  0  0  0  0  # atno 17395 bound_to 11000

$$$$
