AV-unprocessed.smi:2001|AV-procd|sdf|8110|dock7
  -GOLD-   2272010343D 1   1.00000     0.00000
 Structure written by MMmdl.
 50 51  0  0  0  0  0  0  0  0  3 V2000
  152.1081  142.0630  159.9367 C   0  0  0  0  0  0  0  0  0  0  0  0
  151.9330  142.2865  158.5493 O   0  0  0  0  0  0  0  0  0  0  0  0
  151.0490  141.3515  157.9531 C   0  0  0  0  0  0  0  0  0  0  0  0
  150.8727  141.6759  156.4608 C   0  0  0  0  0  0  0  0  0  0  0  0
  150.6833  140.4633  155.6562 N   0  0  0  0  0  0  0  0  0  0  0  0
  149.4808  140.4285  154.9698 N   0  0  0  0  0  0  0  0  0  0  0  0
  149.1823  139.4174  154.2193 C   0  0  0  0  0  0  0  0  0  0  0  0
  147.8739  139.3709  153.4904 C   0  0  0  0  0  0  0  0  0  0  0  0
  147.0273  140.1902  153.8734 O   0  0  0  0  0  0  0  0  0  0  0  0
  147.7040  138.4564  152.4883 N   0  5  0  0  0  0  0  0  0  0  0  0
  146.4763  138.2622  151.7198 C   0  0  0  0  0  0  0  0  0  0  0  0
  145.6125  137.1815  152.3980 C   0  0  0  0  0  0  0  0  0  0  0  0
  146.2469  135.8374  152.3424 N   0  3  1  0  0  0  0  0  0  0  0  0
  146.0272  135.0470  153.5778 C   0  0  0  0  0  0  0  0  0  0  0  0
  146.7617  133.6933  153.5135 C   0  0  2  0  0  0  0  0  0  0  0  0
  148.2859  133.8118  153.6896 C   0  0  0  0  0  0  0  0  0  0  0  0
  146.4093  132.9938  152.3202 O   0  0  0  0  0  0  0  0  0  0  0  0
  146.6421  133.7149  151.1130 C   0  0  1  0  0  0  0  0  0  0  0  0
  146.2095  132.8245  149.9429 C   0  0  0  0  0  0  0  0  0  0  0  0
  145.8597  135.0392  151.1505 C   0  0  0  0  0  0  0  0  0  0  0  0
  150.1129  138.3038  154.0786 C   0  0  0  0  0  0  0  0  0  0  0  0
  151.2818  138.3525  154.7537 C   0  0  0  0  0  0  0  0  0  0  0  0
  151.6344  139.4826  155.6131 C   0  0  0  0  0  0  0  0  0  0  0  0
  152.6918  139.5444  156.2401 O   0  0  0  0  0  0  0  0  0  0  0  0
  152.7848  142.8134  160.3449 H   0  0  0  0  0  0  0  0  0  0  0  0
  152.5407  141.0800  160.1261 H   0  0  0  0  0  0  0  0  0  0  0  0
  151.1605  142.1384  160.4709 H   0  0  0  0  0  0  0  0  0  0  0  0
  151.4637  140.3479  158.0577 H   0  0  0  0  0  0  0  0  0  0  0  0
  150.0835  141.3574  158.4617 H   0  0  0  0  0  0  0  0  0  0  0  0
  150.0527  142.3825  156.3217 H   0  0  0  0  0  0  0  0  0  0  0  0
  151.7621  142.1993  156.1061 H   0  0  0  0  0  0  0  0  0  0  0  0
  145.8915  139.1796  151.6413 H   0  0  0  0  0  0  0  0  0  0  0  0
  146.6885  137.9562  150.6948 H   0  0  0  0  0  0  0  0  0  0  0  0
  145.4662  137.4746  153.4391 H   0  0  0  0  0  0  0  0  0  0  0  0
  144.6158  137.1419  151.9546 H   0  0  0  0  0  0  0  0  0  0  0  0
  146.3646  135.6093  154.4497 H   0  0  0  0  0  0  0  0  0  0  0  0
  144.9562  134.8797  153.7040 H   0  0  0  0  0  0  0  0  0  0  0  0
  146.3976  133.0804  154.3386 H   0  0  0  0  0  0  0  0  0  0  0  0
  148.5302  134.2239  154.6689 H   0  0  0  0  0  0  0  0  0  0  0  0
  148.7402  134.4627  152.9431 H   0  0  0  0  0  0  0  0  0  0  0  0
  148.7623  132.8337  153.6163 H   0  0  0  0  0  0  0  0  0  0  0  0
  147.7071  133.9207  151.0042 H   0  0  0  0  0  0  0  0  0  0  0  0
  146.3741  133.3234  148.9875 H   0  0  0  0  0  0  0  0  0  0  0  0
  145.1513  132.5700  150.0098 H   0  0  0  0  0  0  0  0  0  0  0  0
  146.7757  131.8928  149.9326 H   0  0  0  0  0  0  0  0  0  0  0  0
  144.7865  134.8435  151.1766 H   0  0  0  0  0  0  0  0  0  0  0  0
  146.0565  135.6034  150.2383 H   0  0  0  0  0  0  0  0  0  0  0  0
  149.8918  137.4524  153.4523 H   0  0  0  0  0  0  0  0  0  0  0  0
  151.9789  137.5335  154.6560 H   0  0  0  0  0  0  0  0  0  0  0  0
  147.2420  136.0015  152.2839 H   0  0  0  0  0  0  0  0  0  0  0  0
  1  2  1  0  0  0  0
  1 25  1  0  0  0  0
  1 26  1  0  0  0  0
  1 27  1  0  0  0  0
  2  3  1  0  0  0  0
  3  4  1  0  0  0  0
  3 28  1  0  0  0  0
  3 29  1  0  0  0  0
  4  5  1  0  0  0  0
  4 30  1  0  0  0  0
  4 31  1  0  0  0  0
  5 23  1  0  0  0  0
  5  6  1  0  0  0  0
  6  7  2  0  0  0  0
  7  8  1  0  0  0  0
  7 21  1  0  0  0  0
  8  9  2  0  0  0  0
  8 10  1  0  0  0  0
 10 11  1  0  0  0  0
 11 12  1  0  0  0  0
 11 32  1  0  0  0  0
 11 33  1  0  0  0  0
 12 13  1  0  0  0  0
 12 34  1  0  0  0  0
 12 35  1  0  0  0  0
 13 20  1  0  0  0  0
 13 14  1  0  0  0  0
 13 50  1  0  0  0  0
 14 15  1  0  0  0  0
 14 36  1  0  0  0  0
 14 37  1  0  0  0  0
 15 16  1  0  0  0  0
 15 17  1  0  0  0  0
 15 38  1  0  0  0  0
 16 39  1  0  0  0  0
 16 40  1  0  0  0  0
 16 41  1  0  0  0  0
 17 18  1  0  0  0  0
 18 19  1  0  0  0  0
 18 20  1  0  0  0  0
 18 42  1  0  0  0  0
 19 43  1  0  0  0  0
 19 44  1  0  0  0  0
 19 45  1  0  0  0  0
 20 46  1  0  0  0  0
 20 47  1  0  0  0  0
 21 22  2  0  0  0  0
 21 48  1  0  0  0  0
 22 23  1  0  0  0  0
 22 49  1  0  0  0  0
 23 24  2  0  0  0  0
M  CHG  1  10  -1
M  CHG  1  13   1
M  END
> <s_m_source_file>
AV-unprocessed.smi

> <i_m_source_file_index>
2001

> <i_lp_mmshare_version>
43012

> <i_f3d_flags>
0

> <s_epik_input>
W0NIM11PW0NIMl1bQ0gyXW4xbmMoW2NIXVtjSF1jMT1PKUMoPU8pW05IXVtDSDJdW0NIMl1OMltDSDJdW0NAQEhdKFtDSDNdKU9bQ0BASF0oW0NIM10pW0NIMl0y

> <s_epik_cmdline>
J2VwaWtfcHl0aG9uJywgJy1waCcsICc3LjAnLCAnLXRuJywgJzgnLCAnLW1hJywgJzIwMCcsICctbWV0YWxfYmluZGluZycsICctaW1hZScsICc8aW5maWxlLm1hZT4nLCAnLW9tYWUnLCAnPG91dGZpbGUubWFlPic=

> <r_lp_tautomer_probability>
1

> <r_epik_Ionization_Penalty>
6.90846

> <r_epik_Ionization_Penalty_Charging>
6.90846

> <r_epik_Ionization_Penalty_Neutral>
1.08445e-11

> <r_epik_State_Penalty>
7.54671

> <r_epik_Charging_Adjusted_Penalty>
14.4552

> <i_epik_Tot_Q>
0

> <i_epik_Tot_abs_Q>
2

> <r_epik_Metal_State_Penalty>
3.46181

> <b_epik_Metal_Only>
1

> <s_lp_Force_Field>
OPLS_2005

> <r_lp_Energy>
44.3308

> <b_lp_Chiralities_Consistent>
1

> <s_lp_Variant>
AV-unprocessed.smi:2001-9

> <Gold.Version>
5.8.1

> <Gold.Id.Protein>
6NUR|6NUR_protein|mol2

> <Gold.PLP.Fitness>
45.7762

> <Gold.PLP.PLP>
-38.5554

> <Gold.PLP.part.hbond>
-2.0000

> <Gold.PLP.part.metal>
0.0000

> <Gold.PLP.part.buried>
-4.5893

> <Gold.PLP.part.nonpolar>
-36.7460

> <Gold.PLP.part.repulsive>
4.0910

> <Gold.PLP.ligand.clash>
0.0000

> <Gold.PLP.ligand.torsion>
0.9732

> <Gold.PLP.Chemscore.Hbond>
3.0000

> <Gold.PLP.Chemscore.CHOScore>
0.0000

> <Gold.PLP.Chemscore.Metal>
0.0000

> <Gold.Chemscore.Hbonds>
donor molecule, donor type, donor heavy atom, donor atom, acceptor molecule, acceptor atom, score
      L1  H    13    50       P1  7948  2.00
      P1  H  7997  8010       L1    24  0.94

> <Gold.PLP.Chemscore.Internal.Correction>
0.1672

> <Gold.Rescore>
     Score         DG    S(hbond)    S(metal)    S(lipo)     H(rot)  DE(clash)    DE(int)     intcor
     14.31     -16.91       1.93        0.00      86.84       2.02       1.39       1.21       ----

> <Gold.Chemscore.Fitness>
14.3110

> <Gold.Chemscore.DG>
-16.9073

> <Gold.Chemscore.ZeroCoef>
-5.4800

> <Gold.Chemscore.Hbond>
1.9261

> <Gold.Chemscore.Metal>
0.0000

> <Gold.Chemscore.Lipo>
86.8367

> <Gold.Chemscore.Internal_Hbond>
0.0000

> <Gold.Chemscore.DEClash>
1.3865

> <Gold.Chemscore.DEInternal>
1.2098

> <Gold.Chemscore.Rot>
2.0179

> <Gold.Chemscore.Internal.Correction>
   9.000000E+99

> <Gold.Chemscore.Hbonds>
donor molecule, donor type, donor heavy atom, donor atom, acceptor molecule, acceptor atom, score
      L1  H    13    50       P1  7948  1.00
      P1  H  7997  8010       L1    24  0.91

> <Gold.Chemscore.Hbond.Weighted>
-6.4333

> <Gold.Chemscore.Metal.Weighted>
-0.0000

> <Gold.Chemscore.Lipo.Weighted>
-10.1599

> <Gold.Chemscore.Internal_Hbond.Weighted>
0.0000

> <Gold.Chemscore.DEClash.Weighted>
1.3865

> <Gold.Chemscore.DEInternal.Weighted>
1.2098

> <Gold.Chemscore.Rot.Weighted>
5.1659

> <Gold.Chemscore.Internal.Correction.Weighted>
   9.000000E+99

> <Gold.Protein.RotatedTorsions>
[ 6907 6896 6895 6894 ] final   28.18 input  -60.11 | X-H torsion
[ 7974 7965 7964 7962 ] final  130.70 input  175.53 | X-H torsion
[ 8008 7997 7996 7995 ] final   99.60 input   59.86 | X-H torsion
[ 10167 10162 10161 10158 ] final    2.18 input  -65.29 | X-H torsion
[ 10718 10713 10712 10709 ] final  -57.11 input   66.30 | X-H torsion
[ 10763 10752 10751 10750 ] final  -47.55 input  -60.55 | X-H torsion
[ 11005 11000 10999 10996 ] final   80.67 input  -57.11 | X-H torsion

> <Gold.Protein.ActiveResidues>
 VAL166  LYS551  ARG553  GLY616  TRP617  ASP618  TYR619  PRO620  LYS621  CYS622 
 ASP623  PHE694  ASN695  SER759  ASP760  ASP761  ALA762  ILE779  LEU786  VAL792 
 PHE793  MET794  SER795  GLU796  ALA797  LYS798  CYS799  TRP800  GLU811  SER814 

> <Gold.Protein.RotatedAtoms>
  152.0132  134.9864  160.0568 H   0  0  0  0  0  0  0  0  0  0  0  0  # atno 6907 bound_to 6896
  152.1409  133.4458  159.4774 H   0  0  0  0  0  0  0  0  0  0  0  0  # atno 6908 bound_to 6896
  150.6865  134.2225  159.4445 H   0  0  0  0  0  0  0  0  0  0  0  0  # atno 6909 bound_to 6896
  145.0151  139.4184  143.5225 H   0  0  0  0  0  0  0  0  0  0  0  0  # atno 7974 bound_to 7965
  156.1121  140.3226  155.8088 H   0  0  0  0  0  0  0  0  0  0  0  0  # atno 8008 bound_to 7997
  155.4654  140.0542  157.3003 H   0  0  0  0  0  0  0  0  0  0  0  0  # atno 8009 bound_to 7997
  154.4767  140.2035  155.9874 H   0  0  0  0  0  0  0  0  0  0  0  0  # atno 8010 bound_to 7997
  140.6648  143.7210  150.7805 H   0  0  0  0  0  0  0  0  0  0  0  0  # atno 10167 bound_to 10162
  156.1236  130.4164  150.0397 H   0  0  0  0  0  0  0  0  0  0  0  0  # atno 10718 bound_to 10713
  154.0633  135.6615  153.4814 H   0  0  0  0  0  0  0  0  0  0  0  0  # atno 10763 bound_to 10752
  153.0418  135.5140  154.7638 H   0  0  0  0  0  0  0  0  0  0  0  0  # atno 10764 bound_to 10752
  154.6681  135.3025  154.9746 H   0  0  0  0  0  0  0  0  0  0  0  0  # atno 10765 bound_to 10752
  139.9126  134.7938  156.1940 H   0  0  0  0  0  0  0  0  0  0  0  0  # atno 11005 bound_to 11000
  146.3476  139.9617  142.8716 LP  0  0  0  0  0  0  0  0  0  0  0  0  # atno 17320 bound_to 7965
  145.1971  140.9838  143.4177 LP  0  0  0  0  0  0  0  0  0  0  0  0  # atno 17321 bound_to 7965
  140.0885  143.4900  152.2492 LP  0  0  0  0  0  0  0  0  0  0  0  0  # atno 17342 bound_to 10162
  139.5892  144.7543  151.3442 LP  0  0  0  0  0  0  0  0  0  0  0  0  # atno 17343 bound_to 10162
  156.8328  130.9398  151.3636 LP  0  0  0  0  0  0  0  0  0  0  0  0  # atno 17370 bound_to 10713
  157.6418  130.8812  149.9463 LP  0  0  0  0  0  0  0  0  0  0  0  0  # atno 17371 bound_to 10713
  141.0566  133.6862  156.1872 LP  0  0  0  0  0  0  0  0  0  0  0  0  # atno 17394 bound_to 11000
  140.6727  134.4850  157.5587 LP  0  0  0  0  0  0  0  0  0  0  0  0  # atno 17395 bound_to 11000

$$$$
