AV-unprocessed.smi:1703|AV-procd|sdf|6856|dock4
  -GOLD-   22720 8 43D 1   1.00000     0.00000
 Structure written by MMmdl.
 48 50  0  0  0  0  0  0  0  0  1 V2000
  146.9083  134.9092  162.4889 C   0  0  0  0  0  0  0  0  0  0  0  0
  147.7638  134.6892  161.2371 C   0  0  2  0  0  0  0  0  0  0  0  0
  148.3382  136.0075  160.6833 C   0  0  0  0  0  0  0  0  0  0  0  0
  149.0887  135.7985  159.4467 N   0  0  0  0  0  0  0  0  0  0  0  0
  149.6318  137.0404  158.8928 C   0  0  0  0  0  0  0  0  0  0  0  0
  150.4476  136.8874  157.5935 C   0  0  1  0  0  0  0  0  0  0  0  0
  151.0664  135.6160  157.6007 O   0  0  0  0  0  0  0  0  0  0  0  0
  149.5511  137.0083  156.3460 C   0  0  0  0  0  0  0  0  0  0  0  0
  149.7358  138.2690  155.6380 N   0  0  0  0  0  0  0  0  0  0  0  0
  150.8334  138.7001  154.9659 C   0  0  0  0  0  0  0  0  0  0  0  0
  152.0758  137.8607  154.8656 C   0  0  0  0  0  0  0  0  0  0  0  0
  152.2332  137.2234  153.6142 O   0  0  0  0  0  0  0  0  0  0  0  0
  150.7254  139.9032  154.3968 N   0  0  0  0  0  0  0  0  0  0  0  0
  149.4441  140.2897  154.7369 C   0  0  0  0  0  0  0  0  0  0  0  0
  148.7311  141.4720  154.4347 C   0  0  0  0  0  0  0  0  0  0  0  0
  147.4097  141.6459  154.8954 C   0  0  0  0  0  0  0  0  0  0  0  0
  146.7833  140.6420  155.6620 C   0  0  0  0  0  0  0  0  0  0  0  0
  147.4764  139.4566  155.9744 C   0  0  0  0  0  0  0  0  0  0  0  0
  148.7962  139.2885  155.5137 C   0  0  0  0  0  0  0  0  0  0  0  0
  148.2236  135.1322  158.4795 C   0  0  0  0  0  0  0  0  0  0  0  0
  147.6524  133.8110  159.0287 C   0  0  2  0  0  0  0  0  0  0  0  0
  146.6821  133.1441  158.0481 C   0  0  0  0  0  0  0  0  0  0  0  0
  146.9508  134.0780  160.2396 O   0  0  0  0  0  0  0  0  0  0  0  0
  147.4953  135.3565  163.2913 H   0  0  0  0  0  0  0  0  0  0  0  0
  146.5071  133.9647  162.8575 H   0  0  0  0  0  0  0  0  0  0  0  0
  146.0663  135.5702  162.2808 H   0  0  0  0  0  0  0  0  0  0  0  0
  148.5824  134.0123  161.4881 H   0  0  0  0  0  0  0  0  0  0  0  0
  147.5251  136.7137  160.5063 H   0  0  0  0  0  0  0  0  0  0  0  0
  148.9763  136.4511  161.4461 H   0  0  0  0  0  0  0  0  0  0  0  0
  148.8128  137.7337  158.6942 H   0  0  0  0  0  0  0  0  0  0  0  0
  150.2503  137.5259  159.6494 H   0  0  0  0  0  0  0  0  0  0  0  0
  151.2252  137.6469  157.5358 H   0  0  0  0  0  0  0  0  0  0  0  0
  151.8231  135.6574  158.1657 H   0  0  0  0  0  0  0  0  0  0  0  0
  149.7554  136.1892  155.6553 H   0  0  0  0  0  0  0  0  0  0  0  0
  148.5019  136.9072  156.6221 H   0  0  0  0  0  0  0  0  0  0  0  0
  152.9533  138.4842  155.0344 H   0  0  0  0  0  0  0  0  0  0  0  0
  152.0567  137.0998  155.6457 H   0  0  0  0  0  0  0  0  0  0  0  0
  151.3882  136.9056  153.3347 H   0  0  0  0  0  0  0  0  0  0  0  0
  149.2018  142.2461  153.8467 H   0  0  0  0  0  0  0  0  0  0  0  0
  146.8736  142.5531  154.6582 H   0  0  0  0  0  0  0  0  0  0  0  0
  145.7702  140.7816  156.0093 H   0  0  0  0  0  0  0  0  0  0  0  0
  146.9975  138.6839  156.5573 H   0  0  0  0  0  0  0  0  0  0  0  0
  147.4030  135.7956  158.2006 H   0  0  0  0  0  0  0  0  0  0  0  0
  148.7828  134.9287  157.5655 H   0  0  0  0  0  0  0  0  0  0  0  0
  148.4697  133.1188  159.2382 H   0  0  0  0  0  0  0  0  0  0  0  0
  147.1749  132.9133  157.1036 H   0  0  0  0  0  0  0  0  0  0  0  0
  145.8311  133.7910  157.8334 H   0  0  0  0  0  0  0  0  0  0  0  0
  146.2960  132.2106  158.4581 H   0  0  0  0  0  0  0  0  0  0  0  0
  1  2  1  0  0  0  0
  1 24  1  0  0  0  0
  1 25  1  0  0  0  0
  1 26  1  0  0  0  0
  2 23  1  0  0  0  0
  2  3  1  0  0  0  0
  2 27  1  0  0  0  0
  3  4  1  0  0  0  0
  3 28  1  0  0  0  0
  3 29  1  0  0  0  0
  4  5  1  0  0  0  0
  4 20  1  0  0  0  0
  5  6  1  0  0  0  0
  5 30  1  0  0  0  0
  5 31  1  0  0  0  0
  6  7  1  0  0  0  0
  6  8  1  0  0  0  0
  6 32  1  0  0  0  0
  7 33  1  0  0  0  0
  8  9  1  0  0  0  0
  8 34  1  0  0  0  0
  8 35  1  0  0  0  0
  9 19  1  0  0  0  0
  9 10  1  0  0  0  0
 10 11  1  0  0  0  0
 10 13  2  0  0  0  0
 11 12  1  0  0  0  0
 11 36  1  0  0  0  0
 11 37  1  0  0  0  0
 12 38  1  0  0  0  0
 13 14  1  0  0  0  0
 14 19  2  0  0  0  0
 14 15  1  0  0  0  0
 15 16  2  0  0  0  0
 15 39  1  0  0  0  0
 16 17  1  0  0  0  0
 16 40  1  0  0  0  0
 17 18  2  0  0  0  0
 17 41  1  0  0  0  0
 18 19  1  0  0  0  0
 18 42  1  0  0  0  0
 20 21  1  0  0  0  0
 20 43  1  0  0  0  0
 20 44  1  0  0  0  0
 21 22  1  0  0  0  0
 21 23  1  0  0  0  0
 21 45  1  0  0  0  0
 22 46  1  0  0  0  0
 22 47  1  0  0  0  0
 22 48  1  0  0  0  0
M  END
> <s_m_source_file>
AV-unprocessed.smi

> <i_m_source_file_index>
1703

> <i_lp_mmshare_version>
43012

> <i_f3d_flags>
0

> <s_epik_input>
W0NIM11bQ0BASF0xW0NIMl1OKFtDSDJdW0NASF0oTzEpW0NIM10pW0NIMl1bQ0BIXShbT0hdKVtDSDJdbihjKG4yKVtDSDJdW09IXSljKGMyMylbY0hdW2NIXVtjSF1bY0hdMw==

> <s_epik_cmdline>
J2VwaWtfcHl0aG9uJywgJy1waCcsICc3LjAnLCAnLXRuJywgJzgnLCAnLW1hJywgJzIwMCcsICctbWV0YWxfYmluZGluZycsICctaW1hZScsICc8aW5maWxlLm1hZT4nLCAnLW9tYWUnLCAnPG91dGZpbGUubWFlPic=

> <r_epik_Ionization_Penalty>
0.307685

> <r_epik_Ionization_Penalty_Charging>
0

> <r_epik_Ionization_Penalty_Neutral>
0.307685

> <r_epik_State_Penalty>
0.277856

> <r_epik_Charging_Adjusted_Penalty>
0.277856

> <i_epik_Tot_Q>
0

> <i_epik_Tot_abs_Q>
0

> <r_epik_Metal_State_Penalty>
0.238959

> <b_epik_Metal_Only>
0

> <s_lp_Force_Field>
OPLS_2005

> <r_lp_Energy>
30.3815

> <b_lp_Chiralities_Consistent>
1

> <s_lp_Variant>
AV-unprocessed.smi:1703-4

> <Gold.Version>
5.8.1

> <Gold.Id.Protein>
6NUR|6NUR_protein|mol2

> <Gold.PLP.Fitness>
40.3567

> <Gold.PLP.PLP>
-32.7438

> <Gold.PLP.part.hbond>
-5.0000

> <Gold.PLP.part.metal>
0.0000

> <Gold.PLP.part.buried>
-4.5319

> <Gold.PLP.part.nonpolar>
-23.7768

> <Gold.PLP.part.repulsive>
0.1162

> <Gold.PLP.ligand.clash>
0.0000

> <Gold.PLP.ligand.torsion>
1.3024

> <Gold.PLP.Chemscore.Hbond>
3.3833

> <Gold.PLP.Chemscore.CHOScore>
0.0000

> <Gold.PLP.Chemscore.Metal>
0.0000

> <Gold.Chemscore.Hbonds>
donor molecule, donor type, donor heavy atom, donor atom, acceptor molecule, acceptor atom, score
      L1  H    12    38       P1  7949  0.36
      P1  H  6896  6909       L1     4  0.98
      P1  H  7989  7998       L1    13  1.00
      P1  H 10752 10765       L1    12  1.00

> <Gold.PLP.Chemscore.Internal.Correction>
0.0677

> <Gold.Rescore>
     Score         DG    S(hbond)    S(metal)    S(lipo)     H(rot)  DE(clash)    DE(int)     intcor
     12.72     -13.95       2.18        0.00      73.16       2.88       0.09       1.14       ----

> <Gold.Chemscore.Fitness>
12.7241

> <Gold.Chemscore.DG>
-13.9509

> <Gold.Chemscore.ZeroCoef>
-5.4800

> <Gold.Chemscore.Hbond>
2.1790

> <Gold.Chemscore.Metal>
0.0000

> <Gold.Chemscore.Lipo>
73.1636

> <Gold.Chemscore.Internal_Hbond>
0.0000

> <Gold.Chemscore.DEClash>
0.0851

> <Gold.Chemscore.DEInternal>
1.1416

> <Gold.Chemscore.Rot>
2.8778

> <Gold.Chemscore.Internal.Correction>
   9.000000E+99

> <Gold.Chemscore.Hbonds>
donor molecule, donor type, donor heavy atom, donor atom, acceptor molecule, acceptor atom, score
      L1  H    12    38       P1  7949  0.27
      P1  H  6896  6909       L1     4  0.11
      P1  H  7989  7998       L1    13  0.96
      P1  H 10752 10765       L1    12  0.25

> <Gold.Chemscore.Hbond.Weighted>
-7.2779

> <Gold.Chemscore.Metal.Weighted>
-0.0000

> <Gold.Chemscore.Lipo.Weighted>
-8.5601

> <Gold.Chemscore.Internal_Hbond.Weighted>
0.0000

> <Gold.Chemscore.DEClash.Weighted>
0.0851

> <Gold.Chemscore.DEInternal.Weighted>
1.1416

> <Gold.Chemscore.Rot.Weighted>
7.3671

> <Gold.Chemscore.Internal.Correction.Weighted>
   9.000000E+99

> <Gold.Protein.RotatedTorsions>
[ 6907 6896 6895 6894 ] final   41.57 input  -60.11 | X-H torsion
[ 7974 7965 7964 7962 ] final   57.31 input  175.53 | X-H torsion
[ 8008 7997 7996 7995 ] final -170.44 input   59.86 | X-H torsion
[ 10167 10162 10161 10158 ] final  -28.21 input  -65.29 | X-H torsion
[ 10718 10713 10712 10709 ] final   94.89 input   66.30 | X-H torsion
[ 10763 10752 10751 10750 ] final  134.25 input  -60.55 | X-H torsion
[ 11005 11000 10999 10996 ] final  126.44 input  -57.11 | X-H torsion

> <Gold.Protein.ActiveResidues>
 VAL166  LYS551  ARG553  GLY616  TRP617  ASP618  TYR619  PRO620  LYS621  CYS622 
 ASP623  PHE694  ASN695  SER759  ASP760  ASP761  ALA762  ILE779  LEU786  VAL792 
 PHE793  MET794  SER795  GLU796  ALA797  LYS798  CYS799  TRP800  GLU811  SER814 

> <Gold.Protein.RotatedAtoms>
  152.1969  134.8623  160.0511 H   0  0  0  0  0  0  0  0  0  0  0  0  # atno 6907 bound_to 6896
  151.9491  133.3655  159.4001 H   0  0  0  0  0  0  0  0  0  0  0  0  # atno 6908 bound_to 6896
  150.6946  134.4283  159.5281 H   0  0  0  0  0  0  0  0  0  0  0  0  # atno 6909 bound_to 6896
  145.9305  139.3803  143.0424 H   0  0  0  0  0  0  0  0  0  0  0  0  # atno 7974 bound_to 7965
  155.9184  140.1070  157.1226 H   0  0  0  0  0  0  0  0  0  0  0  0  # atno 8008 bound_to 7997
  154.4050  140.1260  156.4713 H   0  0  0  0  0  0  0  0  0  0  0  0  # atno 8009 bound_to 7997
  155.7226  140.3469  155.5025 H   0  0  0  0  0  0  0  0  0  0  0  0  # atno 8010 bound_to 7997
  140.7271  143.4029  151.1235 H   0  0  0  0  0  0  0  0  0  0  0  0  # atno 10167 bound_to 10162
  157.6944  131.0527  150.4255 H   0  0  0  0  0  0  0  0  0  0  0  0  # atno 10718 bound_to 10713
  153.8204  135.3117  155.3409 H   0  0  0  0  0  0  0  0  0  0  0  0  # atno 10763 bound_to 10752
  154.8015  135.4724  154.0290 H   0  0  0  0  0  0  0  0  0  0  0  0  # atno 10764 bound_to 10752
  153.1697  135.6875  153.8715 H   0  0  0  0  0  0  0  0  0  0  0  0  # atno 10765 bound_to 10752
  139.9456  134.9630  156.8707 H   0  0  0  0  0  0  0  0  0  0  0  0  # atno 11005 bound_to 11000
  145.8433  140.9569  143.0788 LP  0  0  0  0  0  0  0  0  0  0  0  0  # atno 17320 bound_to 7965
  144.6764  140.0312  143.7482 LP  0  0  0  0  0  0  0  0  0  0  0  0  # atno 17321 bound_to 7965
  139.7651  143.8577  152.3109 LP  0  0  0  0  0  0  0  0  0  0  0  0  # atno 17342 bound_to 10162
  139.8477  144.7180  150.9253 LP  0  0  0  0  0  0  0  0  0  0  0  0  # atno 17343 bound_to 10162
  156.4626  130.4035  149.6567 LP  0  0  0  0  0  0  0  0  0  0  0  0  # atno 17370 bound_to 10713
  156.3676  130.7514  151.2493 LP  0  0  0  0  0  0  0  0  0  0  0  0  # atno 17371 bound_to 10713
  140.5842  134.0323  155.7475 LP  0  0  0  0  0  0  0  0  0  0  0  0  # atno 17394 bound_to 11000
  141.1105  133.9623  157.2918 LP  0  0  0  0  0  0  0  0  0  0  0  0  # atno 17395 bound_to 11000

$$$$
