AV-unprocessed.smi:3165|AV-procd|sdf|12088|dock10
  -GOLD-   2272017523D 1   1.00000     0.00000
 Structure written by MMmdl.
 38 39  0  0  0  0  0  0  0  0  2 V2000
  149.4384  141.0623  157.9819 C   0  0  0  0  0  0  0  0  0  0  0  0
  150.5503  141.8823  157.3142 C   0  0  1  0  0  0  0  0  0  0  0  0
  150.4839  141.7466  155.7783 C   0  0  0  0  0  0  0  0  0  0  0  0
  150.6942  140.3841  155.3235 N   0  0  0  0  0  0  0  0  0  0  0  0
  151.1207  139.2928  156.0506 C   0  0  0  0  0  0  0  0  0  0  0  0
  151.1860  138.2336  155.1913 C   0  0  0  0  0  0  0  0  0  0  0  0
  150.7710  138.7818  153.9455 C   0  0  0  0  0  0  0  0  0  0  0  0
  150.4760  140.0691  154.0282 N   0  0  0  0  0  0  0  0  0  0  0  0
  150.4355  143.2993  157.7280 N   0  3  0  0  0  0  0  0  0  0  0  0
  151.7236  143.9973  157.9234 C   0  0  0  0  0  0  0  0  0  0  0  0
  152.2391  143.8110  159.3567 C   0  0  1  0  0  0  0  0  0  0  0  0
  151.2054  144.2755  160.4009 C   0  0  0  0  0  0  0  0  0  0  0  0
  151.6998  143.9771  161.8209 C   0  0  0  0  0  0  0  0  0  0  0  0
  152.0818  142.4976  161.9333 C   0  0  0  0  0  0  0  0  0  0  0  0
  153.0651  142.1149  160.8164 C   0  0  0  0  0  0  0  0  0  0  0  0
  152.4977  142.4211  159.5464 O   0  0  0  0  0  0  0  0  0  0  0  0
  149.5139  140.0076  157.7156 H   0  0  0  0  0  0  0  0  0  0  0  0
  148.4500  141.4113  157.6804 H   0  0  0  0  0  0  0  0  0  0  0  0
  149.4988  141.1302  159.0687 H   0  0  0  0  0  0  0  0  0  0  0  0
  151.5032  141.4812  157.6641 H   0  0  0  0  0  0  0  0  0  0  0  0
  149.5073  142.0710  155.4166 H   0  0  0  0  0  0  0  0  0  0  0  0
  151.2203  142.3976  155.3035 H   0  0  0  0  0  0  0  0  0  0  0  0
  151.3439  139.3608  157.1054 H   0  0  0  0  0  0  0  0  0  0  0  0
  151.4842  137.2207  155.4181 H   0  0  0  0  0  0  0  0  0  0  0  0
  150.6767  138.2869  152.9902 H   0  0  0  0  0  0  0  0  0  0  0  0
  149.9062  143.7907  157.0211 H   0  0  0  0  0  0  0  0  0  0  0  0
  152.4431  143.5967  157.2083 H   0  0  0  0  0  0  0  0  0  0  0  0
  151.6173  145.0606  157.7068 H   0  0  0  0  0  0  0  0  0  0  0  0
  153.1645  144.3762  159.4836 H   0  0  0  0  0  0  0  0  0  0  0  0
  151.0093  145.3426  160.2922 H   0  0  0  0  0  0  0  0  0  0  0  0
  150.2565  143.7645  160.2325 H   0  0  0  0  0  0  0  0  0  0  0  0
  152.5665  144.5991  162.0482 H   0  0  0  0  0  0  0  0  0  0  0  0
  150.9316  144.2284  162.5526 H   0  0  0  0  0  0  0  0  0  0  0  0
  152.5205  142.2939  162.9103 H   0  0  0  0  0  0  0  0  0  0  0  0
  151.1858  141.8802  161.8568 H   0  0  0  0  0  0  0  0  0  0  0  0
  154.0152  142.6374  160.9378 H   0  0  0  0  0  0  0  0  0  0  0  0
  153.2816  141.0473  160.8571 H   0  0  0  0  0  0  0  0  0  0  0  0
  149.9240  143.3410  158.5979 H   0  0  0  0  0  0  0  0  0  0  0  0
  1  2  1  0  0  0  0
  1 17  1  0  0  0  0
  1 18  1  0  0  0  0
  1 19  1  0  0  0  0
  2  3  1  0  0  0  0
  2  9  1  0  0  0  0
  2 20  1  0  0  0  0
  3  4  1  0  0  0  0
  3 21  1  0  0  0  0
  3 22  1  0  0  0  0
  4  8  1  0  0  0  0
  4  5  1  0  0  0  0
  5  6  2  0  0  0  0
  5 23  1  0  0  0  0
  6  7  1  0  0  0  0
  6 24  1  0  0  0  0
  7  8  2  0  0  0  0
  7 25  1  0  0  0  0
  9 10  1  0  0  0  0
  9 26  1  0  0  0  0
  9 38  1  0  0  0  0
 10 11  1  0  0  0  0
 10 27  1  0  0  0  0
 10 28  1  0  0  0  0
 11 16  1  0  0  0  0
 11 12  1  0  0  0  0
 11 29  1  0  0  0  0
 12 13  1  0  0  0  0
 12 30  1  0  0  0  0
 12 31  1  0  0  0  0
 13 14  1  0  0  0  0
 13 32  1  0  0  0  0
 13 33  1  0  0  0  0
 14 15  1  0  0  0  0
 14 34  1  0  0  0  0
 14 35  1  0  0  0  0
 15 16  1  0  0  0  0
 15 36  1  0  0  0  0
 15 37  1  0  0  0  0
M  CHG  1   9   1
M  END
> <s_m_source_file>
AV-unprocessed.smi

> <i_m_source_file_index>
3165

> <i_lp_mmshare_version>
43012

> <i_f3d_flags>
0

> <s_epik_input>
bjFbY0hdW2NIXVtjSF1uMVtDSDJdW0NAQEhdKFtDSDNdKVtOSF1bQ0gyXVtDQEBIXTJbQ0gyXVtDSDJdW0NIMl1bQ0gyXU8y

> <s_epik_cmdline>
J2VwaWtfcHl0aG9uJywgJy1waCcsICc3LjAnLCAnLXRuJywgJzgnLCAnLW1hJywgJzIwMCcsICctbWV0YWxfYmluZGluZycsICctaW1hZScsICc8aW5maWxlLm1hZT4nLCAnLW9tYWUnLCAnPG91dGZpbGUubWFlPic=

> <r_lp_tautomer_probability>
1

> <r_epik_Ionization_Penalty>
0.00849196

> <r_epik_Ionization_Penalty_Charging>
0.00848754

> <r_epik_Ionization_Penalty_Neutral>
4.42049e-06

> <r_epik_State_Penalty>
0.00639836

> <r_epik_Charging_Adjusted_Penalty>
0.0148859

> <i_epik_Tot_Q>
1

> <i_epik_Tot_abs_Q>
1

> <r_epik_Metal_State_Penalty>
0.00639878

> <b_epik_Metal_Only>
0

> <s_lp_Force_Field>
OPLS_2005

> <r_lp_Energy>
13.0452

> <b_lp_Chiralities_Consistent>
1

> <s_lp_Variant>
AV-unprocessed.smi:3165-4

> <Gold.Version>
5.8.1

> <Gold.Id.Protein>
6NUR|6NUR_protein|mol2

> <Gold.PLP.Fitness>
51.5696

> <Gold.PLP.PLP>
-41.8338

> <Gold.PLP.part.hbond>
-2.0000

> <Gold.PLP.part.metal>
0.0000

> <Gold.PLP.part.buried>
-6.1384

> <Gold.PLP.part.nonpolar>
-34.7887

> <Gold.PLP.part.repulsive>
1.0560

> <Gold.PLP.ligand.clash>
0.0000

> <Gold.PLP.ligand.torsion>
0.7508

> <Gold.PLP.Chemscore.Hbond>
2.5000

> <Gold.PLP.Chemscore.CHOScore>
1.2297

> <Gold.PLP.Chemscore.Metal>
0.0000

> <Gold.Chemscore.Hbonds>
donor molecule, donor type, donor heavy atom, donor atom, acceptor molecule, acceptor atom, score
      L1  H     9    26       P1  8028  2.00
      P1  H  7989  7998       L1     8  0.73
      L1  C     7    25       P1  7948  0.12
      L1  C     7    25       P1  7949  0.27
      L1  C     7    25       P1  7957  0.24

> <Gold.PLP.Chemscore.Internal.Correction>
0.0484

> <Gold.Rescore>
     Score         DG    S(hbond)    S(metal)    S(lipo)     H(rot)  DE(clash)    DE(int)     intcor
     18.56     -19.50       1.67        0.00     108.10       1.64       0.41       0.52       ----

> <Gold.Chemscore.Fitness>
18.5613

> <Gold.Chemscore.DG>
-19.4981

> <Gold.Chemscore.ZeroCoef>
-5.4800

> <Gold.Chemscore.Hbond>
1.6705

> <Gold.Chemscore.Metal>
0.0000

> <Gold.Chemscore.Lipo>
108.1040

> <Gold.Chemscore.Internal_Hbond>
0.0000

> <Gold.Chemscore.DEClash>
0.4130

> <Gold.Chemscore.DEInternal>
0.5237

> <Gold.Chemscore.Rot>
1.6444

> <Gold.Chemscore.Internal.Correction>
   9.000000E+99

> <Gold.Chemscore.Hbonds>
donor molecule, donor type, donor heavy atom, donor atom, acceptor molecule, acceptor atom, score
      L1  H     9    26       P1  8028  0.95
      P1  H  7989  7998       L1     8  0.07

> <Gold.Chemscore.Hbond.Weighted>
-5.5796

> <Gold.Chemscore.Metal.Weighted>
-0.0000

> <Gold.Chemscore.Lipo.Weighted>
-12.6482

> <Gold.Chemscore.Internal_Hbond.Weighted>
0.0000

> <Gold.Chemscore.DEClash.Weighted>
0.4130

> <Gold.Chemscore.DEInternal.Weighted>
0.5237

> <Gold.Chemscore.Rot.Weighted>
4.2097

> <Gold.Chemscore.Internal.Correction.Weighted>
   9.000000E+99

> <Gold.Protein.RotatedTorsions>
[ 6907 6896 6895 6894 ] final   21.40 input  -60.11 | X-H torsion
[ 7974 7965 7964 7962 ] final   24.43 input  175.53 | X-H torsion
[ 8008 7997 7996 7995 ] final  147.06 input   59.86 | X-H torsion
[ 10167 10162 10161 10158 ] final  111.96 input  -65.29 | X-H torsion
[ 10718 10713 10712 10709 ] final -121.08 input   66.30 | X-H torsion
[ 10763 10752 10751 10750 ] final  171.18 input  -60.55 | X-H torsion
[ 11005 11000 10999 10996 ] final   19.03 input  -57.11 | X-H torsion

> <Gold.Protein.ActiveResidues>
 VAL166  LYS551  ARG553  GLY616  TRP617  ASP618  TYR619  PRO620  LYS621  CYS622 
 ASP623  PHE694  ASN695  SER759  ASP760  ASP761  ALA762  ILE779  LEU786  VAL792 
 PHE793  MET794  SER795  GLU796  ALA797  LYS798  CYS799  TRP800  GLU811  SER814 

> <Gold.Protein.RotatedAtoms>
  151.9112  135.0338  160.0514 H   0  0  0  0  0  0  0  0  0  0  0  0  # atno 6907 bound_to 6896
  152.2277  133.5029  159.5206 H   0  0  0  0  0  0  0  0  0  0  0  0  # atno 6908 bound_to 6896
  150.7017  134.1174  159.4065 H   0  0  0  0  0  0  0  0  0  0  0  0  # atno 6909 bound_to 6896
  146.1938  139.7606  142.8812 H   0  0  0  0  0  0  0  0  0  0  0  0  # atno 7974 bound_to 7965
  156.2836  140.2165  156.5477 H   0  0  0  0  0  0  0  0  0  0  0  0  # atno 8008 bound_to 7997
  154.7317  140.0495  157.0755 H   0  0  0  0  0  0  0  0  0  0  0  0  # atno 8009 bound_to 7997
  155.0345  140.3138  155.4749 H   0  0  0  0  0  0  0  0  0  0  0  0  # atno 8010 bound_to 7997
  139.6572  144.7129  151.1935 H   0  0  0  0  0  0  0  0  0  0  0  0  # atno 10167 bound_to 10162
  156.1309  130.6394  150.9619 H   0  0  0  0  0  0  0  0  0  0  0  0  # atno 10718 bound_to 10713
  154.4083  135.2756  155.2053 H   0  0  0  0  0  0  0  0  0  0  0  0  # atno 10763 bound_to 10752
  154.4050  135.6036  153.5922 H   0  0  0  0  0  0  0  0  0  0  0  0  # atno 10764 bound_to 10752
  152.9831  135.5935  154.4361 H   0  0  0  0  0  0  0  0  0  0  0  0  # atno 10765 bound_to 10752
  140.4182  134.1546  155.7671 H   0  0  0  0  0  0  0  0  0  0  0  0  # atno 11005 bound_to 11000
  145.3709  141.0342  143.3232 LP  0  0  0  0  0  0  0  0  0  0  0  0  # atno 17320 bound_to 7965
  144.8539  139.5280  143.6843 LP  0  0  0  0  0  0  0  0  0  0  0  0  # atno 17321 bound_to 7965
  140.7564  143.6053  150.8659 LP  0  0  0  0  0  0  0  0  0  0  0  0  # atno 17342 bound_to 10162
  139.9707  143.6060  152.2974 LP  0  0  0  0  0  0  0  0  0  0  0  0  # atno 17343 bound_to 10162
  157.6486  131.0900  150.8099 LP  0  0  0  0  0  0  0  0  0  0  0  0  # atno 17370 bound_to 10713
  156.8184  130.4975  149.5346 LP  0  0  0  0  0  0  0  0  0  0  0  0  # atno 17371 bound_to 10713
  141.1794  133.8445  157.1309 LP  0  0  0  0  0  0  0  0  0  0  0  0  # atno 17394 bound_to 11000
  140.0219  134.9942  157.0608 LP  0  0  0  0  0  0  0  0  0  0  0  0  # atno 17395 bound_to 11000

$$$$
