AV-unprocessed.smi:1492|AV-procd|sdf|6040|dock7
  -GOLD-   22720 6153D 1   1.00000     0.00000
 Structure written by MMmdl.
 52 53  0  0  0  0  0  0  0  0  1 V2000
  143.6395  134.0450  151.9667 C   0  0  0  0  0  0  0  0  0  0  0  0
  144.1052  135.1690  152.9105 C   0  0  0  0  0  0  0  0  0  0  0  0
  145.4971  135.8084  152.6056 C   0  0  1  0  0  0  0  0  0  0  0  0
  145.5660  136.1574  151.0942 C   0  0  0  0  0  0  0  0  0  0  0  0
  145.6119  137.1632  153.3711 C   0  0  0  0  0  0  0  0  0  0  0  0
  146.9355  137.7585  153.2073 N   0  0  0  0  0  0  0  0  0  0  0  0
  147.4827  138.6980  153.9914 C   0  0  0  0  0  0  0  0  0  0  0  0
  146.8682  139.3069  154.8666 O   0  0  0  0  0  0  0  0  0  0  0  0
  148.9741  138.9499  153.7777 C   0  0  0  0  0  0  0  0  0  0  0  0
  149.5798  139.9747  154.7355 C   0  0  0  0  0  0  0  0  0  0  0  0
  149.0774  141.2258  154.8917 C   0  0  0  0  0  0  0  0  0  0  0  0
  147.8746  141.7669  154.1394 C   0  0  0  0  0  0  0  0  0  0  0  0
  149.6377  142.1154  155.7912 N   0  0  0  0  0  0  0  0  0  0  0  0
  150.7170  141.6833  156.5434 C   0  0  0  0  0  0  0  0  0  0  0  0
  151.2324  142.7197  157.5176 C   0  0  0  0  0  0  0  0  0  0  0  0
  151.2674  140.5101  156.4674 N   0  0  0  0  0  0  0  0  0  0  0  0
  150.7450  139.5746  155.5604 C   0  0  0  0  0  0  0  0  0  0  0  0
  151.2421  138.4527  155.4704 O   0  0  0  0  0  0  0  0  0  0  0  0
  146.6255  134.9013  152.9714 N   0  0  0  0  0  0  0  0  0  0  0  0
  146.7953  134.6623  154.4097 C   0  0  0  0  0  0  0  0  0  0  0  0
  148.0730  133.8624  154.7115 C   0  0  0  0  0  0  0  0  0  0  0  0
  148.0451  132.6295  154.0027 O   0  0  0  0  0  0  0  0  0  0  0  0
  147.9277  132.8115  152.5968 C   0  0  0  0  0  0  0  0  0  0  0  0
  146.6507  133.6083  152.2780 C   0  0  0  0  0  0  0  0  0  0  0  0
  149.2278  143.0340  155.8812 H   0  0  0  0  0  0  0  0  0  0  0  0
  142.6662  133.6685  152.2820 H   0  0  0  0  0  0  0  0  0  0  0  0
  144.3244  133.1977  151.9693 H   0  0  0  0  0  0  0  0  0  0  0  0
  143.5280  134.3916  150.9400 H   0  0  0  0  0  0  0  0  0  0  0  0
  143.3337  135.9384  152.8975 H   0  0  0  0  0  0  0  0  0  0  0  0
  144.0987  134.7618  153.9211 H   0  0  0  0  0  0  0  0  0  0  0  0
  144.9268  137.0027  150.8389 H   0  0  0  0  0  0  0  0  0  0  0  0
  145.2437  135.3260  150.4669 H   0  0  0  0  0  0  0  0  0  0  0  0
  146.5787  136.4253  150.7898 H   0  0  0  0  0  0  0  0  0  0  0  0
  144.8952  137.8892  152.9878 H   0  0  0  0  0  0  0  0  0  0  0  0
  145.3554  137.0400  154.4241 H   0  0  0  0  0  0  0  0  0  0  0  0
  147.5313  137.3308  152.5132 H   0  0  0  0  0  0  0  0  0  0  0  0
  149.5107  138.0023  153.8419 H   0  0  0  0  0  0  0  0  0  0  0  0
  149.1236  139.2831  152.7506 H   0  0  0  0  0  0  0  0  0  0  0  0
  146.9969  141.1500  154.3327 H   0  0  0  0  0  0  0  0  0  0  0  0
  148.0655  141.7726  153.0662 H   0  0  0  0  0  0  0  0  0  0  0  0
  147.6374  142.7876  154.4417 H   0  0  0  0  0  0  0  0  0  0  0  0
  152.1057  142.3487  158.0555 H   0  0  0  0  0  0  0  0  0  0  0  0
  150.4621  142.9680  158.2484 H   0  0  0  0  0  0  0  0  0  0  0  0
  151.5183  143.6301  156.9899 H   0  0  0  0  0  0  0  0  0  0  0  0
  146.8484  135.5986  154.9610 H   0  0  0  0  0  0  0  0  0  0  0  0
  145.9407  134.1127  154.8046 H   0  0  0  0  0  0  0  0  0  0  0  0
  148.9587  134.4317  154.4308 H   0  0  0  0  0  0  0  0  0  0  0  0
  148.1497  133.6582  155.7794 H   0  0  0  0  0  0  0  0  0  0  0  0
  148.8085  133.3286  152.2151 H   0  0  0  0  0  0  0  0  0  0  0  0
  147.8963  131.8354  152.1131 H   0  0  0  0  0  0  0  0  0  0  0  0
  145.7841  133.0103  152.5588 H   0  0  0  0  0  0  0  0  0  0  0  0
  146.6074  133.7424  151.1986 H   0  0  0  0  0  0  0  0  0  0  0  0
  1  2  1  0  0  0  0
  1 26  1  0  0  0  0
  1 27  1  0  0  0  0
  1 28  1  0  0  0  0
  2  3  1  0  0  0  0
  2 29  1  0  0  0  0
  2 30  1  0  0  0  0
  3  4  1  0  0  0  0
  3  5  1  0  0  0  0
  3 19  1  0  0  0  0
  4 31  1  0  0  0  0
  4 32  1  0  0  0  0
  4 33  1  0  0  0  0
  5  6  1  0  0  0  0
  5 34  1  0  0  0  0
  5 35  1  0  0  0  0
  6  7  1  0  0  0  0
  6 36  1  0  0  0  0
  7  8  2  0  0  0  0
  7  9  1  0  0  0  0
  9 37  1  0  0  0  0
  9 38  1  0  0  0  0
  9 10  1  0  0  0  0
 10 17  1  0  0  0  0
 10 11  2  0  0  0  0
 11 12  1  0  0  0  0
 11 13  1  0  0  0  0
 12 39  1  0  0  0  0
 12 40  1  0  0  0  0
 12 41  1  0  0  0  0
 13 25  1  0  0  0  0
 13 14  1  0  0  0  0
 14 15  1  0  0  0  0
 14 16  2  0  0  0  0
 15 42  1  0  0  0  0
 15 43  1  0  0  0  0
 15 44  1  0  0  0  0
 16 17  1  0  0  0  0
 17 18  2  0  0  0  0
 19 24  1  0  0  0  0
 19 20  1  0  0  0  0
 20 21  1  0  0  0  0
 20 45  1  0  0  0  0
 20 46  1  0  0  0  0
 21 22  1  0  0  0  0
 21 47  1  0  0  0  0
 21 48  1  0  0  0  0
 22 23  1  0  0  0  0
 23 24  1  0  0  0  0
 23 49  1  0  0  0  0
 23 50  1  0  0  0  0
 24 51  1  0  0  0  0
 24 52  1  0  0  0  0
M  END
> <s_m_source_file>
AV-unprocessed.smi

> <i_m_source_file_index>
1492

> <i_lp_mmshare_version>
43012

> <i_f3d_flags>
0

> <s_epik_input>
W0NIMl0xW0NIMl1PW0NIMl1bQ0gyXU4xW0NAQF0oW0NIM10pKFtDSDJdW0NIM10pW0NIMl1bTkhdQyg9TylbQ0gyXWMyYyhbQ0gzXSluYyhbQ0gzXSlbbkhdYzI9Tw==

> <s_epik_cmdline>
J2VwaWtfcHl0aG9uJywgJy1waCcsICc3LjAnLCAnLXRuJywgJzgnLCAnLW1hJywgJzIwMCcsICctbWV0YWxfYmluZGluZycsICctaW1hZScsICc8aW5maWxlLm1hZT4nLCAnLW9tYWUnLCAnPG91dGZpbGUubWFlPic=

> <r_lp_tautomer_probability>
0.156392

> <r_epik_Ionization_Penalty>
0.342516

> <r_epik_Ionization_Penalty_Charging>
0.0141408

> <r_epik_Ionization_Penalty_Neutral>
0.328375

> <r_epik_State_Penalty>
1.47662

> <r_epik_Charging_Adjusted_Penalty>
1.49076

> <i_epik_Tot_Q>
0

> <i_epik_Tot_abs_Q>
0

> <r_epik_Metal_State_Penalty>
1.65506

> <b_epik_Metal_Only>
0

> <s_lp_Force_Field>
OPLS_2005

> <r_lp_Energy>
46.8903

> <b_lp_Chiralities_Consistent>
1

> <s_lp_Variant>
AV-unprocessed.smi:1492-5

> <Gold.Version>
5.8.1

> <Gold.Id.Protein>
6NUR|6NUR_protein|mol2

> <Gold.PLP.Fitness>
40.0050

> <Gold.PLP.PLP>
-34.6428

> <Gold.PLP.part.hbond>
-2.0000

> <Gold.PLP.part.metal>
0.0000

> <Gold.PLP.part.buried>
-3.6028

> <Gold.PLP.part.nonpolar>
-32.0095

> <Gold.PLP.part.repulsive>
2.2297

> <Gold.PLP.ligand.clash>
0.0000

> <Gold.PLP.ligand.torsion>
0.3877

> <Gold.PLP.Chemscore.Hbond>
2.0000

> <Gold.PLP.Chemscore.CHOScore>
0.0000

> <Gold.PLP.Chemscore.Metal>
0.0000

> <Gold.Chemscore.Hbonds>
donor molecule, donor type, donor heavy atom, donor atom, acceptor molecule, acceptor atom, score
      L1  H     6    36       P1  7948  1.00
      L1  H    13    25       P1  8028  1.00

> <Gold.PLP.Chemscore.Internal.Correction>
0.1376

> <Gold.Rescore>
     Score         DG    S(hbond)    S(metal)    S(lipo)     H(rot)  DE(clash)    DE(int)     intcor
     12.13     -15.19       2.00        0.00      72.28       2.12       0.13       2.93       ----

> <Gold.Chemscore.Fitness>
12.1312

> <Gold.Chemscore.DG>
-15.1911

> <Gold.Chemscore.ZeroCoef>
-5.4800

> <Gold.Chemscore.Hbond>
1.9969

> <Gold.Chemscore.Metal>
0.0000

> <Gold.Chemscore.Lipo>
72.2832

> <Gold.Chemscore.Internal_Hbond>
0.0000

> <Gold.Chemscore.DEClash>
0.1262

> <Gold.Chemscore.DEInternal>
2.9336

> <Gold.Chemscore.Rot>
2.1155

> <Gold.Chemscore.Internal.Correction>
   9.000000E+99

> <Gold.Chemscore.Hbonds>
donor molecule, donor type, donor heavy atom, donor atom, acceptor molecule, acceptor atom, score
      L1  H     6    36       P1  7948  0.99
      L1  H    13    25       P1  8028  1.00

> <Gold.Chemscore.Hbond.Weighted>
-6.6697

> <Gold.Chemscore.Metal.Weighted>
-0.0000

> <Gold.Chemscore.Lipo.Weighted>
-8.4571

> <Gold.Chemscore.Internal_Hbond.Weighted>
0.0000

> <Gold.Chemscore.DEClash.Weighted>
0.1262

> <Gold.Chemscore.DEInternal.Weighted>
2.9336

> <Gold.Chemscore.Rot.Weighted>
5.4157

> <Gold.Chemscore.Internal.Correction.Weighted>
   9.000000E+99

> <Gold.Protein.RotatedTorsions>
[ 6907 6896 6895 6894 ] final -110.75 input  -60.11 | X-H torsion
[ 7974 7965 7964 7962 ] final  179.32 input  175.53 | X-H torsion
[ 8008 7997 7996 7995 ] final  168.67 input   59.86 | X-H torsion
[ 10167 10162 10161 10158 ] final   48.31 input  -65.29 | X-H torsion
[ 10718 10713 10712 10709 ] final  120.19 input   66.30 | X-H torsion
[ 10763 10752 10751 10750 ] final  -71.16 input  -60.55 | X-H torsion
[ 11005 11000 10999 10996 ] final  115.05 input  -57.11 | X-H torsion

> <Gold.Protein.ActiveResidues>
 VAL166  LYS551  ARG553  GLY616  TRP617  ASP618  TYR619  PRO620  LYS621  CYS622 
 ASP623  PHE694  ASN695  SER759  ASP760  ASP761  ALA762  ILE779  LEU786  VAL792 
 PHE793  MET794  SER795  GLU796  ALA797  LYS798  CYS799  TRP800  GLU811  SER814 

> <Gold.Protein.RotatedAtoms>
  150.7645  133.9335  159.3434 H   0  0  0  0  0  0  0  0  0  0  0  0  # atno 6907 bound_to 6896
  151.7236  135.0887  160.0298 H   0  0  0  0  0  0  0  0  0  0  0  0  # atno 6908 bound_to 6896
  152.3634  133.6288  159.6068 H   0  0  0  0  0  0  0  0  0  0  0  0  # atno 6909 bound_to 6896
  144.7147  140.0531  143.6434 H   0  0  0  0  0  0  0  0  0  0  0  0  # atno 7974 bound_to 7965
  156.1526  140.1584  156.8744 H   0  0  0  0  0  0  0  0  0  0  0  0  # atno 8008 bound_to 7997
  154.5085  140.0807  156.7980 H   0  0  0  0  0  0  0  0  0  0  0  0  # atno 8009 bound_to 7997
  155.3865  140.3408  155.4251 H   0  0  0  0  0  0  0  0  0  0  0  0  # atno 8010 bound_to 7997
  140.2946  144.3006  150.6232 H   0  0  0  0  0  0  0  0  0  0  0  0  # atno 10167 bound_to 10162
  157.5909  131.1064  150.8000 H   0  0  0  0  0  0  0  0  0  0  0  0  # atno 10718 bound_to 10713
  154.4279  135.5971  153.6050 H   0  0  0  0  0  0  0  0  0  0  0  0  # atno 10763 bound_to 10752
  152.9797  135.5968  154.3875 H   0  0  0  0  0  0  0  0  0  0  0  0  # atno 10764 bound_to 10752
  154.3709  135.2841  155.2245 H   0  0  0  0  0  0  0  0  0  0  0  0  # atno 10765 bound_to 10752
  139.8998  134.9578  156.6986 H   0  0  0  0  0  0  0  0  0  0  0  0  # atno 11005 bound_to 11000
  145.9927  139.3028  143.0975 LP  0  0  0  0  0  0  0  0  0  0  0  0  # atno 17320 bound_to 7965
  145.8884  140.9319  143.0565 LP  0  0  0  0  0  0  0  0  0  0  0  0  # atno 17321 bound_to 7965
  140.5703  143.2181  151.7610 LP  0  0  0  0  0  0  0  0  0  0  0  0  # atno 17342 bound_to 10162
  139.4929  144.4225  151.9961 LP  0  0  0  0  0  0  0  0  0  0  0  0  # atno 17343 bound_to 10162
  156.8423  130.5052  149.5320 LP  0  0  0  0  0  0  0  0  0  0  0  0  # atno 17370 bound_to 10713
  156.0963  130.5935  150.9819 LP  0  0  0  0  0  0  0  0  0  0  0  0  # atno 17371 bound_to 10713
  140.7169  133.9175  155.8121 LP  0  0  0  0  0  0  0  0  0  0  0  0  # atno 17394 bound_to 11000
  141.0258  134.0826  157.4070 LP  0  0  0  0  0  0  0  0  0  0  0  0  # atno 17395 bound_to 11000

$$$$
