AV-unprocessed.smi:236|AV-procd|sdf|1814|dock5
  -GOLD-   2262020403D 1   1.00000     0.00000
 Structure written by MMmdl.
 58 62  0  0  0  0  0  0  0  0  1 V2000
  151.0423  142.1913  157.9096 C   0  0  0  0  0  0  0  0  0  0  0  0
  151.8384  143.3689  158.4949 C   0  0  1  0  0  0  0  0  0  0  0  0
  151.1244  144.5861  158.3331 O   0  0  0  0  0  0  0  0  0  0  0  0
  151.7068  145.5273  159.2161 C   0  0  0  0  0  0  0  0  0  0  0  0
  151.8799  144.7217  160.4978 C   0  0  0  0  0  0  0  0  0  0  0  0
  152.1904  143.3046  160.0055 C   0  0  1  0  0  0  0  0  0  0  0  0
  151.3493  142.4013  160.7041 O   0  0  0  0  0  0  0  0  0  0  0  0
  153.6622  142.9037  160.2742 C   0  0  0  0  0  0  0  0  0  0  0  0
  153.9072  141.4739  160.1539 N   0  0  0  0  0  0  0  0  0  0  0  0
  153.4233  140.6330  159.1766 C   0  0  0  0  0  0  0  0  0  0  0  0
  153.7919  139.3855  159.2813 N   0  0  0  0  0  0  0  0  0  0  0  0
  154.5840  139.3615  160.4226 C   0  0  0  0  0  0  0  0  0  0  0  0
  155.3037  138.3466  161.1143 C   0  0  0  0  0  0  0  0  0  0  0  0
  155.3595  137.0506  160.7437 N   0  0  0  0  0  0  0  0  0  0  0  0
  154.6365  136.7523  159.5147 C   0  0  0  0  0  0  0  0  0  0  0  0
  154.8865  135.2916  159.1061 C   0  0  0  0  0  0  0  0  0  0  0  0
  154.5311  134.4303  160.1840 O   0  0  0  0  0  0  0  0  0  0  0  0
  155.3109  134.6713  161.3542 C   0  0  2  0  0  0  0  0  0  0  0  0
  154.9073  133.6482  162.4235 C   0  0  0  0  0  0  0  0  0  0  0  0
  155.7615  133.7941  163.5455 O   0  0  0  0  0  0  0  0  0  0  0  0
  155.5882  132.7653  164.5075 C   0  0  0  0  0  0  0  0  0  0  0  0
  156.3265  133.0812  165.7959 C   0  0  0  0  0  0  0  0  0  0  0  0
  157.7992  133.4367  165.7867 C   0  0  0  0  0  0  0  0  0  0  0  0
  157.3521  132.1202  166.3622 C   0  0  0  0  0  0  0  0  0  0  0  0
  155.0538  136.1175  161.8202 C   0  0  0  0  0  0  0  0  0  0  0  0
  155.9832  138.6971  162.2332 N   0  0  0  0  0  0  0  0  0  0  0  0
  155.9637  139.9649  162.6560 C   0  0  0  0  0  0  0  0  0  0  0  0
  155.3409  141.0156  162.1174 N   0  0  0  0  0  0  0  0  0  0  0  0
  154.6588  140.6650  160.9890 C   0  0  0  0  0  0  0  0  0  0  0  0
  151.5762  141.2502  158.0428 H   0  0  0  0  0  0  0  0  0  0  0  0
  150.8802  142.3303  156.8408 H   0  0  0  0  0  0  0  0  0  0  0  0
  150.0634  142.0952  158.3800 H   0  0  0  0  0  0  0  0  0  0  0  0
  152.7549  143.4855  157.9161 H   0  0  0  0  0  0  0  0  0  0  0  0
  152.6715  145.8544  158.8245 H   0  0  0  0  0  0  0  0  0  0  0  0
  151.0720  146.4033  159.3502 H   0  0  0  0  0  0  0  0  0  0  0  0
  152.6525  145.1379  161.1452 H   0  0  0  0  0  0  0  0  0  0  0  0
  150.9415  144.7469  161.0549 H   0  0  0  0  0  0  0  0  0  0  0  0
  151.1843  141.6544  160.1493 H   0  0  0  0  0  0  0  0  0  0  0  0
  154.3227  143.4231  159.5785 H   0  0  0  0  0  0  0  0  0  0  0  0
  153.9672  143.2193  161.2731 H   0  0  0  0  0  0  0  0  0  0  0  0
  152.7889  140.9779  158.3731 H   0  0  0  0  0  0  0  0  0  0  0  0
  153.5682  136.9146  159.6614 H   0  0  0  0  0  0  0  0  0  0  0  0
  154.9599  137.4256  158.7196 H   0  0  0  0  0  0  0  0  0  0  0  0
  154.2854  135.0366  158.2333 H   0  0  0  0  0  0  0  0  0  0  0  0
  155.9310  135.1365  158.8313 H   0  0  0  0  0  0  0  0  0  0  0  0
  156.3709  134.5476  161.1243 H   0  0  0  0  0  0  0  0  0  0  0  0
  153.8776  133.8277  162.7366 H   0  0  0  0  0  0  0  0  0  0  0  0
  154.9568  132.6347  162.0220 H   0  0  0  0  0  0  0  0  0  0  0  0
  154.5289  132.6360  164.7339 H   0  0  0  0  0  0  0  0  0  0  0  0
  155.9619  131.8185  164.1151 H   0  0  0  0  0  0  0  0  0  0  0  0
  155.7174  133.6101  166.5266 H   0  0  0  0  0  0  0  0  0  0  0  0
  158.3270  133.4147  164.8353 H   0  0  0  0  0  0  0  0  0  0  0  0
  158.1342  134.2007  166.4853 H   0  0  0  0  0  0  0  0  0  0  0  0
  157.3872  132.0065  167.4435 H   0  0  0  0  0  0  0  0  0  0  0  0
  157.5824  131.2212  165.7937 H   0  0  0  0  0  0  0  0  0  0  0  0
  155.6706  136.3459  162.6905 H   0  0  0  0  0  0  0  0  0  0  0  0
  154.0119  136.2304  162.1235 H   0  0  0  0  0  0  0  0  0  0  0  0
  156.5284  140.1665  163.5541 H   0  0  0  0  0  0  0  0  0  0  0  0
  1  2  1  0  0  0  0
  1 30  1  0  0  0  0
  1 31  1  0  0  0  0
  1 32  1  0  0  0  0
  2  6  1  0  0  0  0
  2  3  1  0  0  0  0
  2 33  1  0  0  0  0
  3  4  1  0  0  0  0
  4  5  1  0  0  0  0
  4 34  1  0  0  0  0
  4 35  1  0  0  0  0
  5  6  1  0  0  0  0
  5 36  1  0  0  0  0
  5 37  1  0  0  0  0
  6  7  1  0  0  0  0
  6  8  1  0  0  0  0
  7 38  1  0  0  0  0
  8  9  1  0  0  0  0
  8 39  1  0  0  0  0
  8 40  1  0  0  0  0
  9 29  1  0  0  0  0
  9 10  1  0  0  0  0
 10 11  2  0  0  0  0
 10 41  1  0  0  0  0
 11 12  1  0  0  0  0
 12 29  2  0  0  0  0
 12 13  1  0  0  0  0
 13 14  1  0  0  0  0
 13 26  2  0  0  0  0
 14 25  1  0  0  0  0
 14 15  1  0  0  0  0
 15 16  1  0  0  0  0
 15 42  1  0  0  0  0
 15 43  1  0  0  0  0
 16 17  1  0  0  0  0
 16 44  1  0  0  0  0
 16 45  1  0  0  0  0
 17 18  1  0  0  0  0
 18 19  1  0  0  0  0
 18 25  1  0  0  0  0
 18 46  1  0  0  0  0
 19 20  1  0  0  0  0
 19 47  1  0  0  0  0
 19 48  1  0  0  0  0
 20 21  1  0  0  0  0
 21 22  1  0  0  0  0
 21 49  1  0  0  0  0
 21 50  1  0  0  0  0
 22 24  1  0  0  0  0
 22 23  1  0  0  0  0
 22 51  1  0  0  0  0
 23 24  1  0  0  0  0
 23 52  1  0  0  0  0
 23 53  1  0  0  0  0
 24 54  1  0  0  0  0
 24 55  1  0  0  0  0
 25 56  1  0  0  0  0
 25 57  1  0  0  0  0
 26 27  1  0  0  0  0
 27 28  2  0  0  0  0
 27 58  1  0  0  0  0
 28 29  1  0  0  0  0
M  END
> <s_m_source_file>
AV-unprocessed.smi

> <i_m_source_file_index>
236

> <i_lp_mmshare_version>
43012

> <i_f3d_flags>
0

> <s_epik_input>
W0NIMl0xW0NIMl1PW0NAQEhdKFtDSDNdKVtDQEBdMShbT0hdKVtDSDJdbihbY0hdbjIpYyhjMjMpbltjSF1uYzNONFtDSDJdW0NIMl1PW0NASF0oW0NIMl00KVtDSDJdT1tDSDJdW0NIXTVbQ0gyXVtDSDJdNQ==

> <s_epik_cmdline>
J2VwaWtfcHl0aG9uJywgJy1waCcsICc3LjAnLCAnLXRuJywgJzgnLCAnLW1hJywgJzIwMCcsICctbWV0YWxfYmluZGluZycsICctaW1hZScsICc8aW5maWxlLm1hZT4nLCAnLW9tYWUnLCAnPG91dGZpbGUubWFlPic=

> <r_lp_tautomer_probability>
1

> <r_epik_Ionization_Penalty>
7.21838e-05

> <r_epik_Ionization_Penalty_Charging>
0

> <r_epik_Ionization_Penalty_Neutral>
7.21838e-05

> <r_epik_State_Penalty>
-0

> <r_epik_Charging_Adjusted_Penalty>
0

> <i_epik_Tot_Q>
0

> <i_epik_Tot_abs_Q>
0

> <r_epik_Metal_State_Penalty>
-0

> <b_epik_Metal_Only>
0

> <s_lp_Force_Field>
OPLS_2005

> <r_lp_Energy>
47.3448

> <b_lp_Chiralities_Consistent>
1

> <s_lp_Variant>
AV-unprocessed.smi:236-6

> <Gold.Version>
5.8.1

> <Gold.Id.Protein>
6NUR|6NUR_protein|mol2

> <Gold.PLP.Fitness>
49.3221

> <Gold.PLP.PLP>
-47.3277

> <Gold.PLP.part.hbond>
-3.0000

> <Gold.PLP.part.metal>
0.0000

> <Gold.PLP.part.buried>
-5.9093

> <Gold.PLP.part.nonpolar>
-36.9100

> <Gold.PLP.part.repulsive>
0.1543

> <Gold.PLP.ligand.clash>
0.0000

> <Gold.PLP.ligand.torsion>
0.9554

> <Gold.PLP.Chemscore.Hbond>
1.0265

> <Gold.PLP.Chemscore.CHOScore>
0.0000

> <Gold.PLP.Chemscore.Metal>
0.0000

> <Gold.Chemscore.Hbonds>
donor molecule, donor type, donor heavy atom, donor atom, acceptor molecule, acceptor atom, score
      P1  H  6896  6909       L1    17  0.95
      P1  H  6933  6945       L1     7  0.07

> <Gold.PLP.Chemscore.Internal.Correction>
0.8255

> <Gold.Rescore>
     Score         DG    S(hbond)    S(metal)    S(lipo)     H(rot)  DE(clash)    DE(int)     intcor
     11.44     -14.30       0.70        0.00     118.05       2.87       0.72       2.15       ----

> <Gold.Chemscore.Fitness>
11.4380

> <Gold.Chemscore.DG>
-14.3040

> <Gold.Chemscore.ZeroCoef>
-5.4800

> <Gold.Chemscore.Hbond>
0.7029

> <Gold.Chemscore.Metal>
0.0000

> <Gold.Chemscore.Lipo>
118.0517

> <Gold.Chemscore.Internal_Hbond>
0.0000

> <Gold.Chemscore.DEClash>
0.7206

> <Gold.Chemscore.DEInternal>
2.1454

> <Gold.Chemscore.Rot>
2.8655

> <Gold.Chemscore.Internal.Correction>
   9.000000E+99

> <Gold.Chemscore.Hbonds>
donor molecule, donor type, donor heavy atom, donor atom, acceptor molecule, acceptor atom, score
      P1  H  6896  6909       L1    17  0.20
      P1  H  6933  6945       L1     7  0.01

> <Gold.Chemscore.Hbond.Weighted>
-2.3477

> <Gold.Chemscore.Metal.Weighted>
-0.0000

> <Gold.Chemscore.Lipo.Weighted>
-13.8120

> <Gold.Chemscore.Internal_Hbond.Weighted>
0.0000

> <Gold.Chemscore.DEClash.Weighted>
0.7206

> <Gold.Chemscore.DEInternal.Weighted>
2.1454

> <Gold.Chemscore.Rot.Weighted>
7.3358

> <Gold.Chemscore.Internal.Correction.Weighted>
   9.000000E+99

> <Gold.Protein.RotatedTorsions>
[ 6907 6896 6895 6894 ] final -171.92 input  -60.11 | X-H torsion
[ 7974 7965 7964 7962 ] final -177.50 input  175.53 | X-H torsion
[ 8008 7997 7996 7995 ] final -134.66 input   59.86 | X-H torsion
[ 10167 10162 10161 10158 ] final  -19.86 input  -65.29 | X-H torsion
[ 10718 10713 10712 10709 ] final  122.37 input   66.30 | X-H torsion
[ 10763 10752 10751 10750 ] final  175.68 input  -60.55 | X-H torsion
[ 11005 11000 10999 10996 ] final   59.52 input  -57.11 | X-H torsion

> <Gold.Protein.ActiveResidues>
 VAL166  LYS551  ARG553  GLY616  TRP617  ASP618  TYR619  PRO620  LYS621  CYS622 
 ASP623  PHE694  ASN695  SER759  ASP760  ASP761  ALA762  ILE779  LEU786  VAL792 
 PHE793  MET794  SER795  GLU796  ALA797  LYS798  CYS799  TRP800  GLU811  SER814 

> <Gold.Protein.RotatedAtoms>
  151.5317  133.3448  159.2919 H   0  0  0  0  0  0  0  0  0  0  0  0  # atno 6907 bound_to 6896
  150.8589  134.7939  159.7079 H   0  0  0  0  0  0  0  0  0  0  0  0  # atno 6908 bound_to 6896
  152.4615  134.5182  159.9826 H   0  0  0  0  0  0  0  0  0  0  0  0  # atno 6909 bound_to 6896
  144.7128  140.1009  143.6416 H   0  0  0  0  0  0  0  0  0  0  0  0  # atno 7974 bound_to 7965
  155.3657  140.0485  157.3046 H   0  0  0  0  0  0  0  0  0  0  0  0  # atno 8008 bound_to 7997
  154.5155  140.2207  155.9037 H   0  0  0  0  0  0  0  0  0  0  0  0  # atno 8009 bound_to 7997
  156.1632  140.3112  155.8848 H   0  0  0  0  0  0  0  0  0  0  0  0  # atno 8010 bound_to 7997
  140.7272  143.4777  151.0159 H   0  0  0  0  0  0  0  0  0  0  0  0  # atno 10167 bound_to 10162
  157.5747  131.1080  150.8301 H   0  0  0  0  0  0  0  0  0  0  0  0  # atno 10718 bound_to 10713
  154.4708  135.2771  155.1644 H   0  0  0  0  0  0  0  0  0  0  0  0  # atno 10763 bound_to 10752
  154.3393  135.6173  153.5592 H   0  0  0  0  0  0  0  0  0  0  0  0  # atno 10764 bound_to 10752
  152.9864  135.5784  154.5089 H   0  0  0  0  0  0  0  0  0  0  0  0  # atno 10765 bound_to 10752
  140.0298  134.6029  155.9523 H   0  0  0  0  0  0  0  0  0  0  0  0  # atno 11005 bound_to 11000
  145.9538  139.2752  143.1196 LP  0  0  0  0  0  0  0  0  0  0  0  0  # atno 17320 bound_to 7965
  145.9294  140.9059  143.0364 LP  0  0  0  0  0  0  0  0  0  0  0  0  # atno 17321 bound_to 7965
  139.8474  143.7483  152.3179 LP  0  0  0  0  0  0  0  0  0  0  0  0  # atno 17342 bound_to 10162
  139.7653  144.7494  151.0303 LP  0  0  0  0  0  0  0  0  0  0  0  0  # atno 17343 bound_to 10162
  156.8763  130.5163  149.5293 LP  0  0  0  0  0  0  0  0  0  0  0  0  # atno 17370 bound_to 10713
  156.0792  130.5807  150.9531 LP  0  0  0  0  0  0  0  0  0  0  0  0  # atno 17371 bound_to 10713
  141.1824  133.6549  156.5075 LP  0  0  0  0  0  0  0  0  0  0  0  0  # atno 17394 bound_to 11000
  140.4245  134.7157  157.4908 LP  0  0  0  0  0  0  0  0  0  0  0  0  # atno 17395 bound_to 11000

$$$$
