AV-unprocessed.smi:3331|AV-procd|sdf|12825|dock9
  -GOLD-   2272019203D 1   1.00000     0.00000
 Structure written by MMmdl.
 46 47  0  0  0  0  0  0  0  0  1 V2000
  149.7156  144.7306  160.3617 C   0  0  0  0  0  0  0  0  0  0  0  0
  151.1524  144.7912  159.8140 C   0  0  1  0  0  0  0  0  0  0  0  0
  152.1956  144.3332  160.8575 C   0  0  0  0  0  0  0  0  0  0  0  0
  152.2461  142.7976  161.0227 C   0  0  2  0  0  0  0  0  0  0  0  0
  153.3815  142.3725  161.9641 C   0  0  0  0  0  0  0  0  0  0  0  0
  152.3667  142.1161  159.6438 C   0  0  0  0  0  0  0  0  0  0  0  0
  151.2504  142.5467  158.7903 N   0  0  0  0  0  0  0  0  0  0  0  0
  150.2622  141.7004  158.3995 C   0  0  0  0  0  0  0  0  0  0  0  0
  150.2732  140.5063  158.7049 O   0  0  0  0  0  0  0  0  0  0  0  0
  149.0935  142.2285  157.5400 C   0  0  2  0  0  0  0  0  0  0  0  0
  148.0117  142.9160  158.4018 C   0  0  0  0  0  0  0  0  0  0  0  0
  148.5190  141.1286  156.7480 N   0  0  0  0  0  0  0  0  0  0  0  0
  148.8769  141.1955  155.3382 C   0  0  0  0  0  0  0  0  0  0  0  0
  148.7008  139.8082  154.7041 C   0  0  0  0  0  0  0  0  0  0  0  0
  149.9397  139.0548  154.7157 N   0  0  0  0  0  0  0  0  0  0  0  0
  150.1336  137.7196  154.4307 C   0  0  0  0  0  0  0  0  0  0  0  0
  151.4682  137.4648  154.5682 C   0  0  0  0  0  0  0  0  0  0  0  0
  152.0156  138.7233  154.9453 C   0  0  0  0  0  0  0  0  0  0  0  0
  151.0980  139.6727  155.0341 N   0  0  0  0  0  0  0  0  0  0  0  0
  151.3252  143.9883  158.5063 C   0  0  0  0  0  0  0  0  0  0  0  0
  149.4225  143.7154  160.6297 H   0  0  0  0  0  0  0  0  0  0  0  0
  149.0016  145.0970  159.6238 H   0  0  0  0  0  0  0  0  0  0  0  0
  149.6106  145.3501  161.2526 H   0  0  0  0  0  0  0  0  0  0  0  0
  151.3540  145.8386  159.5866 H   0  0  0  0  0  0  0  0  0  0  0  0
  153.1784  144.6822  160.5376 H   0  0  0  0  0  0  0  0  0  0  0  0
  152.0057  144.8128  161.8186 H   0  0  0  0  0  0  0  0  0  0  0  0
  151.3093  142.4719  161.4770 H   0  0  0  0  0  0  0  0  0  0  0  0
  154.3553  142.6614  161.5673 H   0  0  0  0  0  0  0  0  0  0  0  0
  153.3879  141.2918  162.1085 H   0  0  0  0  0  0  0  0  0  0  0  0
  153.2706  142.8350  162.9452 H   0  0  0  0  0  0  0  0  0  0  0  0
  153.3093  142.3902  159.1676 H   0  0  0  0  0  0  0  0  0  0  0  0
  152.4085  141.0335  159.7698 H   0  0  0  0  0  0  0  0  0  0  0  0
  149.4980  142.9915  156.8748 H   0  0  0  0  0  0  0  0  0  0  0  0
  148.4487  143.6714  159.0564 H   0  0  0  0  0  0  0  0  0  0  0  0
  147.4804  142.1992  159.0295 H   0  0  0  0  0  0  0  0  0  0  0  0
  147.2718  143.4279  157.7870 H   0  0  0  0  0  0  0  0  0  0  0  0
  147.5152  141.0804  156.8493 H   0  0  0  0  0  0  0  0  0  0  0  0
  148.2474  141.9189  154.8200 H   0  0  0  0  0  0  0  0  0  0  0  0
  149.9123  141.5239  155.2335 H   0  0  0  0  0  0  0  0  0  0  0  0
  147.9398  139.2354  155.2369 H   0  0  0  0  0  0  0  0  0  0  0  0
  148.3624  139.9004  153.6710 H   0  0  0  0  0  0  0  0  0  0  0  0
  149.3156  137.0701  154.1553 H   0  0  0  0  0  0  0  0  0  0  0  0
  151.9767  136.5235  154.4210 H   0  0  0  0  0  0  0  0  0  0  0  0
  153.0451  138.9733  155.1554 H   0  0  0  0  0  0  0  0  0  0  0  0
  150.6120  144.3339  157.7609 H   0  0  0  0  0  0  0  0  0  0  0  0
  152.3030  144.2046  158.0734 H   0  0  0  0  0  0  0  0  0  0  0  0
  1  2  1  0  0  0  0
  1 21  1  0  0  0  0
  1 22  1  0  0  0  0
  1 23  1  0  0  0  0
  2 20  1  0  0  0  0
  2  3  1  0  0  0  0
  2 24  1  0  0  0  0
  3  4  1  0  0  0  0
  3 25  1  0  0  0  0
  3 26  1  0  0  0  0
  4  5  1  0  0  0  0
  4  6  1  0  0  0  0
  4 27  1  0  0  0  0
  5 28  1  0  0  0  0
  5 29  1  0  0  0  0
  5 30  1  0  0  0  0
  6  7  1  0  0  0  0
  6 31  1  0  0  0  0
  6 32  1  0  0  0  0
  7  8  1  0  0  0  0
  7 20  1  0  0  0  0
  8  9  2  0  0  0  0
  8 10  1  0  0  0  0
 10 11  1  0  0  0  0
 10 12  1  0  0  0  0
 10 33  1  0  0  0  0
 11 34  1  0  0  0  0
 11 35  1  0  0  0  0
 11 36  1  0  0  0  0
 12 13  1  0  0  0  0
 12 37  1  0  0  0  0
 13 14  1  0  0  0  0
 13 38  1  0  0  0  0
 13 39  1  0  0  0  0
 14 15  1  0  0  0  0
 14 40  1  0  0  0  0
 14 41  1  0  0  0  0
 15 19  1  0  0  0  0
 15 16  1  0  0  0  0
 16 17  2  0  0  0  0
 16 42  1  0  0  0  0
 17 18  1  0  0  0  0
 17 43  1  0  0  0  0
 18 19  2  0  0  0  0
 18 44  1  0  0  0  0
 20 45  1  0  0  0  0
 20 46  1  0  0  0  0
M  END
> <s_m_source_file>
AV-unprocessed.smi

> <i_m_source_file_index>
3331

> <i_lp_mmshare_version>
43012

> <i_f3d_flags>
0

> <s_epik_input>
W0NIM11bQ0BASF0xW0NIMl1bQ0BASF0oW0NIM10pW0NIMl1OKFtDSDJdMSlDKD1PKVtDQEhdKFtDSDNdKVtOSF1bQ0gyXVtDSDJdbjJbY0hdW2NIXVtjSF1uMg==

> <s_epik_cmdline>
J2VwaWtfcHl0aG9uJywgJy1waCcsICc3LjAnLCAnLXRuJywgJzgnLCAnLW1hJywgJzIwMCcsICctbWV0YWxfYmluZGluZycsICctaW1hZScsICc8aW5maWxlLm1hZT4nLCAnLW9tYWUnLCAnPG91dGZpbGUubWFlPic=

> <r_lp_tautomer_probability>
1

> <r_epik_Ionization_Penalty>
0.767994

> <r_epik_Ionization_Penalty_Charging>
0

> <r_epik_Ionization_Penalty_Neutral>
0.767994

> <r_epik_State_Penalty>
0.795453

> <r_epik_Charging_Adjusted_Penalty>
0.795453

> <i_epik_Tot_Q>
0

> <i_epik_Tot_abs_Q>
0

> <r_epik_Metal_State_Penalty>
0.794784

> <b_epik_Metal_Only>
0

> <s_lp_Force_Field>
OPLS_2005

> <r_lp_Energy>
29.2756

> <b_lp_Chiralities_Consistent>
1

> <s_lp_Variant>
AV-unprocessed.smi:3331-9

> <Gold.Version>
5.8.1

> <Gold.Id.Protein>
6NUR|6NUR_protein|mol2

> <Gold.PLP.Fitness>
48.6552

> <Gold.PLP.PLP>
-46.3124

> <Gold.PLP.part.hbond>
-1.0000

> <Gold.PLP.part.metal>
0.0000

> <Gold.PLP.part.buried>
-3.6470

> <Gold.PLP.part.nonpolar>
-41.6249

> <Gold.PLP.part.repulsive>
0.0554

> <Gold.PLP.ligand.clash>
0.0000

> <Gold.PLP.ligand.torsion>
1.7779

> <Gold.PLP.Chemscore.Hbond>
0.9500

> <Gold.PLP.Chemscore.CHOScore>
1.0000

> <Gold.PLP.Chemscore.Metal>
0.0000

> <Gold.Chemscore.Hbonds>
donor molecule, donor type, donor heavy atom, donor atom, acceptor molecule, acceptor atom, score
      P1  H  7989  7998       L1    19  1.00
      L1  C    16    42       P1  7948  0.85

> <Gold.PLP.Chemscore.Internal.Correction>
0.0487

> <Gold.Rescore>
     Score         DG    S(hbond)    S(metal)    S(lipo)     H(rot)  DE(clash)    DE(int)     intcor
     15.37     -17.58       0.84        0.00     115.90       1.66       0.37       1.85       ----

> <Gold.Chemscore.Fitness>
15.3694

> <Gold.Chemscore.DG>
-17.5821

> <Gold.Chemscore.ZeroCoef>
-5.4800

> <Gold.Chemscore.Hbond>
0.8395

> <Gold.Chemscore.Metal>
0.0000

> <Gold.Chemscore.Lipo>
115.8982

> <Gold.Chemscore.Internal_Hbond>
0.0000

> <Gold.Chemscore.DEClash>
0.3676

> <Gold.Chemscore.DEInternal>
1.8450

> <Gold.Chemscore.Rot>
1.6649

> <Gold.Chemscore.Internal.Correction>
   9.000000E+99

> <Gold.Chemscore.Hbonds>
donor molecule, donor type, donor heavy atom, donor atom, acceptor molecule, acceptor atom, score
      P1  H  7989  7998       L1    19  0.20

> <Gold.Chemscore.Hbond.Weighted>
-2.8041

> <Gold.Chemscore.Metal.Weighted>
-0.0000

> <Gold.Chemscore.Lipo.Weighted>
-13.5601

> <Gold.Chemscore.Internal_Hbond.Weighted>
0.0000

> <Gold.Chemscore.DEClash.Weighted>
0.3676

> <Gold.Chemscore.DEInternal.Weighted>
1.8450

> <Gold.Chemscore.Rot.Weighted>
4.2621

> <Gold.Chemscore.Internal.Correction.Weighted>
   9.000000E+99

> <Gold.Protein.RotatedTorsions>
[ 6907 6896 6895 6894 ] final   65.66 input  -60.11 | X-H torsion
[ 7974 7965 7964 7962 ] final  132.21 input  175.53 | X-H torsion
[ 8008 7997 7996 7995 ] final -100.15 input   59.86 | X-H torsion
[ 10167 10162 10161 10158 ] final -170.22 input  -65.29 | X-H torsion
[ 10718 10713 10712 10709 ] final  111.97 input   66.30 | X-H torsion
[ 10763 10752 10751 10750 ] final   11.41 input  -60.55 | X-H torsion
[ 11005 11000 10999 10996 ] final  142.73 input  -57.11 | X-H torsion

> <Gold.Protein.ActiveResidues>
 VAL166  LYS551  ARG553  GLY616  TRP617  ASP618  TYR619  PRO620  LYS621  CYS622 
 ASP623  PHE694  ASN695  SER759  ASP760  ASP761  ALA762  ILE779  LEU786  VAL792 
 PHE793  MET794  SER795  GLU796  ALA797  LYS798  CYS799  TRP800  GLU811  SER814 

> <Gold.Protein.RotatedAtoms>
  152.4424  134.5565  159.9881 H   0  0  0  0  0  0  0  0  0  0  0  0  # atno 6907 bound_to 6896
  151.5659  133.3391  159.2988 H   0  0  0  0  0  0  0  0  0  0  0  0  # atno 6908 bound_to 6896
  150.8332  134.7628  159.6935 H   0  0  0  0  0  0  0  0  0  0  0  0  # atno 6909 bound_to 6896
  144.9992  139.4328  143.5300 H   0  0  0  0  0  0  0  0  0  0  0  0  # atno 7974 bound_to 7965
  154.8247  140.0443  157.1435 H   0  0  0  0  0  0  0  0  0  0  0  0  # atno 8008 bound_to 7997
  154.9220  140.3028  155.5191 H   0  0  0  0  0  0  0  0  0  0  0  0  # atno 8009 bound_to 7997
  156.2983  140.2339  156.4271 H   0  0  0  0  0  0  0  0  0  0  0  0  # atno 8010 bound_to 7997
  139.5875  144.1286  152.1593 H   0  0  0  0  0  0  0  0  0  0  0  0  # atno 10167 bound_to 10162
  157.6417  131.0960  150.6826 H   0  0  0  0  0  0  0  0  0  0  0  0  # atno 10718 bound_to 10713
  153.1929  135.6845  153.8329 H   0  0  0  0  0  0  0  0  0  0  0  0  # atno 10763 bound_to 10752
  153.7622  135.3208  155.3340 H   0  0  0  0  0  0  0  0  0  0  0  0  # atno 10764 bound_to 10752
  154.8128  135.4706  154.0660 H   0  0  0  0  0  0  0  0  0  0  0  0  # atno 10765 bound_to 10752
  140.0499  134.9261  157.0998 H   0  0  0  0  0  0  0  0  0  0  0  0  # atno 11005 bound_to 11000
  146.3448  139.9371  142.8746 LP  0  0  0  0  0  0  0  0  0  0  0  0  # atno 17320 bound_to 7965
  145.2176  140.9922  143.4064 LP  0  0  0  0  0  0  0  0  0  0  0  0  # atno 17321 bound_to 7965
  140.0853  144.5666  150.7093 LP  0  0  0  0  0  0  0  0  0  0  0  0  # atno 17342 bound_to 10162
  140.7144  143.2532  151.4481 LP  0  0  0  0  0  0  0  0  0  0  0  0  # atno 17343 bound_to 10162
  156.7149  130.4663  149.5537 LP  0  0  0  0  0  0  0  0  0  0  0  0  # atno 17370 bound_to 10713
  156.1705  130.6433  151.0831 LP  0  0  0  0  0  0  0  0  0  0  0  0  # atno 17371 bound_to 10713
  140.3934  134.2160  155.7165 LP  0  0  0  0  0  0  0  0  0  0  0  0  # atno 17394 bound_to 11000
  141.1925  133.8171  157.0836 LP  0  0  0  0  0  0  0  0  0  0  0  0  # atno 17395 bound_to 11000

$$$$
