AV-unprocessed.smi:2785|AV-procd|sdf|10746|dock4
  -GOLD-   2272015183D 1   1.00000     0.00000
 Structure written by MMmdl.
 37 38  0  0  0  0  0  0  0  0  1 V2000
  145.6711  138.0483  154.1188 C   0  0  0  0  0  0  0  0  0  0  0  0
  146.2845  138.7527  155.3391 C   0  0  0  0  0  0  0  0  0  0  0  0
  145.2038  139.2372  156.3225 C   0  0  0  0  0  0  0  0  0  0  0  0
  147.1827  139.8318  154.9048 N   0  0  0  0  0  0  0  0  0  0  0  0
  146.7149  140.9764  154.1398 C   0  0  0  0  0  0  0  0  0  0  0  0
  147.9886  141.7010  153.6933 C   0  0  0  0  0  0  0  0  0  0  0  0
  149.1395  141.1413  154.5455 C   0  0  1  0  0  0  0  0  0  0  0  0
  149.4990  142.0996  155.5885 N   0  0  0  0  0  0  0  0  0  0  0  0
  150.2387  141.8214  156.6723 C   0  0  0  0  0  0  0  0  0  0  0  0
  150.7229  140.7119  156.8972 O   0  0  0  0  0  0  0  0  0  0  0  0
  150.3715  142.9029  157.4602 N   0  0  0  0  0  0  0  0  0  0  0  0
  151.0603  143.0081  158.6980 C   0  0  0  0  0  0  0  0  0  0  0  0
  150.8570  144.2210  159.3948 C   0  0  0  0  0  0  0  0  0  0  0  0
  151.4946  144.4240  160.6342 C   0  0  0  0  0  0  0  0  0  0  0  0
  152.3199  143.4061  161.1442 C   0  0  0  0  0  0  0  0  0  0  0  0
  152.9535  143.5554  162.3315 F   0  0  0  0  0  0  0  0  0  0  0  0
  152.4701  142.2287  160.3884 C   0  0  0  0  0  0  0  0  0  0  0  0
  151.8596  142.0333  159.2002 N   0  0  0  0  0  0  0  0  0  0  0  0
  148.4944  139.9051  155.1698 C   0  0  0  0  0  0  0  0  0  0  0  0
  149.1411  139.0817  155.8169 O   0  0  0  0  0  0  0  0  0  0  0  0
  145.0394  137.2143  154.4250 H   0  0  0  0  0  0  0  0  0  0  0  0
  146.4440  137.6492  153.4610 H   0  0  0  0  0  0  0  0  0  0  0  0
  145.0569  138.7335  153.5333 H   0  0  0  0  0  0  0  0  0  0  0  0
  146.8836  138.0163  155.8777 H   0  0  0  0  0  0  0  0  0  0  0  0
  144.6150  138.3978  156.6932 H   0  0  0  0  0  0  0  0  0  0  0  0
  144.5114  139.9372  155.8541 H   0  0  0  0  0  0  0  0  0  0  0  0
  145.6489  139.7289  157.1878 H   0  0  0  0  0  0  0  0  0  0  0  0
  146.1077  140.6699  153.2870 H   0  0  0  0  0  0  0  0  0  0  0  0
  146.1122  141.6227  154.7793 H   0  0  0  0  0  0  0  0  0  0  0  0
  148.1802  141.4731  152.6438 H   0  0  0  0  0  0  0  0  0  0  0  0
  147.8870  142.7849  153.7655 H   0  0  0  0  0  0  0  0  0  0  0  0
  149.9973  140.8715  153.9269 H   0  0  0  0  0  0  0  0  0  0  0  0
  149.1407  143.0373  155.4847 H   0  0  0  0  0  0  0  0  0  0  0  0
  149.9206  143.7477  157.1419 H   0  0  0  0  0  0  0  0  0  0  0  0
  150.2185  144.9918  158.9876 H   0  0  0  0  0  0  0  0  0  0  0  0
  151.3524  145.3436  161.1825 H   0  0  0  0  0  0  0  0  0  0  0  0
  153.0951  141.4236  160.7453 H   0  0  0  0  0  0  0  0  0  0  0  0
  1  2  1  0  0  0  0
  1 21  1  0  0  0  0
  1 22  1  0  0  0  0
  1 23  1  0  0  0  0
  2  3  1  0  0  0  0
  2  4  1  0  0  0  0
  2 24  1  0  0  0  0
  3 25  1  0  0  0  0
  3 26  1  0  0  0  0
  3 27  1  0  0  0  0
  4 19  1  0  0  0  0
  4  5  1  0  0  0  0
  5  6  1  0  0  0  0
  5 28  1  0  0  0  0
  5 29  1  0  0  0  0
  6  7  1  0  0  0  0
  6 30  1  0  0  0  0
  6 31  1  0  0  0  0
  7  8  1  0  0  0  0
  7 19  1  0  0  0  0
  7 32  1  0  0  0  0
  8  9  1  0  0  0  0
  8 33  1  0  0  0  0
  9 10  2  0  0  0  0
  9 11  1  0  0  0  0
 11 12  1  0  0  0  0
 11 34  1  0  0  0  0
 12 18  1  0  0  0  0
 12 13  2  0  0  0  0
 13 14  1  0  0  0  0
 13 35  1  0  0  0  0
 14 15  2  0  0  0  0
 14 36  1  0  0  0  0
 15 16  1  0  0  0  0
 15 17  1  0  0  0  0
 17 18  2  0  0  0  0
 17 37  1  0  0  0  0
 19 20  2  0  0  0  0
M  END
> <s_m_source_file>
AV-unprocessed.smi

> <i_m_source_file_index>
2785

> <i_lp_mmshare_version>
43012

> <i_f3d_flags>
0

> <s_epik_input>
W0NIM11bQ0hdKFtDSDNdKU4xW0NIMl1bQ0gyXVtDQEhdKEMxPU8pW05IXUMoPU8pW05IXWMyW2NIXVtjSF1jKEYpW2NIXW4y

> <s_epik_cmdline>
J2VwaWtfcHl0aG9uJywgJy1waCcsICc3LjAnLCAnLXRuJywgJzgnLCAnLW1hJywgJzIwMCcsICctbWV0YWxfYmluZGluZycsICctaW1hZScsICc8aW5maWxlLm1hZT4nLCAnLW9tYWUnLCAnPG91dGZpbGUubWFlPic=

> <r_lp_tautomer_probability>
1

> <r_epik_Ionization_Penalty>
3.20266e-05

> <r_epik_Ionization_Penalty_Charging>
0

> <r_epik_Ionization_Penalty_Neutral>
3.20266e-05

> <r_epik_State_Penalty>
-0

> <r_epik_Charging_Adjusted_Penalty>
0

> <i_epik_Tot_Q>
0

> <i_epik_Tot_abs_Q>
0

> <r_epik_Metal_State_Penalty>
-0

> <b_epik_Metal_Only>
0

> <s_lp_Force_Field>
OPLS_2005

> <r_lp_Energy>
23.6271

> <b_lp_Chiralities_Consistent>
1

> <s_lp_Variant>
AV-unprocessed.smi:2785-1

> <Gold.Version>
5.8.1

> <Gold.Id.Protein>
6NUR|6NUR_protein|mol2

> <Gold.PLP.Fitness>
38.7299

> <Gold.PLP.PLP>
-33.0340

> <Gold.PLP.part.hbond>
-2.0000

> <Gold.PLP.part.metal>
0.0000

> <Gold.PLP.part.buried>
-6.1559

> <Gold.PLP.part.nonpolar>
-25.3032

> <Gold.PLP.part.repulsive>
0.2068

> <Gold.PLP.ligand.clash>
0.0000

> <Gold.PLP.ligand.torsion>
0.1653

> <Gold.PLP.Chemscore.Hbond>
1.9833

> <Gold.PLP.Chemscore.CHOScore>
0.0000

> <Gold.PLP.Chemscore.Metal>
0.0000

> <Gold.Chemscore.Hbonds>
donor molecule, donor type, donor heavy atom, donor atom, acceptor molecule, acceptor atom, score
      L1  H     8    33       P1  8028  1.00
      L1  H    11    34       P1  8028  0.97

> <Gold.PLP.Chemscore.Internal.Correction>
0.0765

> <Gold.Rescore>
     Score         DG    S(hbond)    S(metal)    S(lipo)     H(rot)  DE(clash)    DE(int)     intcor
     11.48     -16.33       1.85        0.00      68.23       1.29       0.77       4.08       ----

> <Gold.Chemscore.Fitness>
11.4819

> <Gold.Chemscore.DG>
-16.3341

> <Gold.Chemscore.ZeroCoef>
-5.4800

> <Gold.Chemscore.Hbond>
1.8463

> <Gold.Chemscore.Metal>
0.0000

> <Gold.Chemscore.Lipo>
68.2348

> <Gold.Chemscore.Internal_Hbond>
0.0000

> <Gold.Chemscore.DEClash>
0.7731

> <Gold.Chemscore.DEInternal>
4.0790

> <Gold.Chemscore.Rot>
1.2875

> <Gold.Chemscore.Internal.Correction>
   9.000000E+99

> <Gold.Chemscore.Hbonds>
donor molecule, donor type, donor heavy atom, donor atom, acceptor molecule, acceptor atom, score
      L1  H     8    33       P1  8028  1.00
      L1  H    11    34       P1  8028  0.81

> <Gold.Chemscore.Hbond.Weighted>
-6.1665

> <Gold.Chemscore.Metal.Weighted>
-0.0000

> <Gold.Chemscore.Lipo.Weighted>
-7.9835

> <Gold.Chemscore.Internal_Hbond.Weighted>
0.0000

> <Gold.Chemscore.DEClash.Weighted>
0.7731

> <Gold.Chemscore.DEInternal.Weighted>
4.0790

> <Gold.Chemscore.Rot.Weighted>
3.2959

> <Gold.Chemscore.Internal.Correction.Weighted>
   9.000000E+99

> <Gold.Protein.RotatedTorsions>
[ 6907 6896 6895 6894 ] final  -22.66 input  -60.11 | X-H torsion
[ 7974 7965 7964 7962 ] final  -76.06 input  175.53 | X-H torsion
[ 8008 7997 7996 7995 ] final   71.83 input   59.86 | X-H torsion
[ 10167 10162 10161 10158 ] final -142.31 input  -65.29 | X-H torsion
[ 10718 10713 10712 10709 ] final -144.71 input   66.30 | X-H torsion
[ 10763 10752 10751 10750 ] final -131.91 input  -60.55 | X-H torsion
[ 11005 11000 10999 10996 ] final  -51.72 input  -57.11 | X-H torsion

> <Gold.Protein.ActiveResidues>
 VAL166  LYS551  ARG553  GLY616  TRP617  ASP618  TYR619  PRO620  LYS621  CYS622 
 ASP623  PHE694  ASN695  SER759  ASP760  ASP761  ALA762  ILE779  LEU786  VAL792 
 PHE793  MET794  SER795  GLU796  ALA797  LYS798  CYS799  TRP800  GLU811  SER814 

> <Gold.Protein.RotatedAtoms>
  151.2153  135.0497  159.8927 H   0  0  0  0  0  0  0  0  0  0  0  0  # atno 6907 bound_to 6896
  152.5421  134.0700  159.8200 H   0  0  0  0  0  0  0  0  0  0  0  0  # atno 6908 bound_to 6896
  151.0858  133.5306  159.2649 H   0  0  0  0  0  0  0  0  0  0  0  0  # atno 6909 bound_to 6896
  145.6178  140.9370  143.1154 H   0  0  0  0  0  0  0  0  0  0  0  0  # atno 7974 bound_to 7965
  155.7597  140.3487  155.5192 H   0  0  0  0  0  0  0  0  0  0  0  0  # atno 8008 bound_to 7997
  155.8925  140.1020  157.1429 H   0  0  0  0  0  0  0  0  0  0  0  0  # atno 8009 bound_to 7997
  154.4035  140.1301  156.4321 H   0  0  0  0  0  0  0  0  0  0  0  0  # atno 8010 bound_to 7997
  139.8101  143.7714  152.2663 H   0  0  0  0  0  0  0  0  0  0  0  0  # atno 10167 bound_to 10162
  156.3735  130.7800  151.1983 H   0  0  0  0  0  0  0  0  0  0  0  0  # atno 10718 bound_to 10713
  154.8747  135.3814  154.4324 H   0  0  0  0  0  0  0  0  0  0  0  0  # atno 10763 bound_to 10752
  153.5017  135.7030  153.5833 H   0  0  0  0  0  0  0  0  0  0  0  0  # atno 10764 bound_to 10752
  153.4162  135.3912  155.2049 H   0  0  0  0  0  0  0  0  0  0  0  0  # atno 10765 bound_to 10752
  141.0886  133.6637  156.3918 H   0  0  0  0  0  0  0  0  0  0  0  0  # atno 11005 bound_to 11000
  144.7243  139.7926  143.7370 LP  0  0  0  0  0  0  0  0  0  0  0  0  # atno 17320 bound_to 7965
  146.1454  139.4522  143.0082 LP  0  0  0  0  0  0  0  0  0  0  0  0  # atno 17321 bound_to 7965
  139.7861  144.7427  151.0020 LP  0  0  0  0  0  0  0  0  0  0  0  0  # atno 17342 bound_to 10162
  140.7818  143.4491  151.0439 LP  0  0  0  0  0  0  0  0  0  0  0  0  # atno 17343 bound_to 10162
  157.7486  131.0365  150.4413 LP  0  0  0  0  0  0  0  0  0  0  0  0  # atno 17370 bound_to 10713
  156.4644  130.4039  149.6556 LP  0  0  0  0  0  0  0  0  0  0  0  0  # atno 17371 bound_to 10713
  140.5305  134.6217  157.5348 LP  0  0  0  0  0  0  0  0  0  0  0  0  # atno 17394 bound_to 11000
  139.9708  134.7296  156.0046 LP  0  0  0  0  0  0  0  0  0  0  0  0  # atno 17395 bound_to 11000

$$$$
