AV-unprocessed.smi:2278|AV-procd|sdf|9180|dock3
  -GOLD-   2272012393D 1   1.00000     0.00000
 Structure written by MMmdl.
 46 47  0  0  0  0  0  0  0  0  2 V2000
  152.6139  137.9627  156.4522 C   0  0  0  0  0  0  0  0  0  0  0  0
  151.5363  138.8597  155.8694 C   0  0  0  0  0  0  0  0  0  0  0  0
  150.8032  138.3141  154.8115 N   0  0  0  0  0  0  0  0  0  0  0  0
  149.8665  139.0064  154.2509 C   0  0  0  0  0  0  0  0  0  0  0  0
  149.5570  140.3084  154.6764 N   0  0  0  0  0  0  0  0  0  0  0  0
  148.4743  140.9940  153.9508 C   0  0  0  0  0  0  0  0  0  0  0  0
  147.1190  140.2659  154.1002 C   0  0  1  0  0  0  0  0  0  0  0  0
  146.0823  141.2059  153.8947 O   0  0  0  0  0  0  0  0  0  0  0  0
  146.9518  139.1591  153.0388 C   0  0  0  0  0  0  0  0  0  0  0  0
  145.7087  138.3688  153.2311 N   0  3  2  0  0  0  0  0  0  0  0  0
  145.4083  138.0864  154.6602 C   0  0  0  0  0  0  0  0  0  0  0  0
  144.0493  137.3834  154.8129 C   0  0  0  0  0  0  0  0  0  0  0  0
  143.9972  136.0850  153.9908 C   0  0  1  0  0  0  0  0  0  0  0  0
  142.6348  135.3883  154.1140 C   0  0  0  0  0  0  0  0  0  0  0  0
  144.3475  136.3993  152.5267 C   0  0  0  0  0  0  0  0  0  0  0  0
  145.6991  137.1256  152.4181 C   0  0  0  0  0  0  0  0  0  0  0  0
  150.2245  140.9172  155.6993 C   0  0  0  0  0  0  0  0  0  0  0  0
  149.9500  142.0652  156.0553 O   0  0  0  0  0  0  0  0  0  0  0  0
  151.2867  140.1165  156.3285 C   0  0  0  0  0  0  0  0  0  0  0  0
  152.0544  140.7644  157.4742 C   0  0  0  0  0  0  0  0  0  0  0  0
  152.4356  137.7891  157.5139 H   0  0  0  0  0  0  0  0  0  0  0  0
  153.5961  138.4212  156.3338 H   0  0  0  0  0  0  0  0  0  0  0  0
  152.6352  136.9921  155.9547 H   0  0  0  0  0  0  0  0  0  0  0  0
  149.2686  138.6276  153.4201 H   0  0  0  0  0  0  0  0  0  0  0  0
  148.3810  142.0444  154.2357 H   0  0  0  0  0  0  0  0  0  0  0  0
  148.7531  141.0309  152.8961 H   0  0  0  0  0  0  0  0  0  0  0  0
  147.0249  139.8466  155.1011 H   0  0  0  0  0  0  0  0  0  0  0  0
  145.5075  140.8801  153.2183 H   0  0  0  0  0  0  0  0  0  0  0  0
  146.9522  139.6230  152.0507 H   0  0  0  0  0  0  0  0  0  0  0  0
  147.8061  138.4802  153.0526 H   0  0  0  0  0  0  0  0  0  0  0  0
  146.1992  137.4649  155.0831 H   0  0  0  0  0  0  0  0  0  0  0  0
  145.3936  139.0096  155.2383 H   0  0  0  0  0  0  0  0  0  0  0  0
  143.8664  137.1663  155.8660 H   0  0  0  0  0  0  0  0  0  0  0  0
  143.2529  138.0576  154.4939 H   0  0  0  0  0  0  0  0  0  0  0  0
  144.7541  135.4038  154.3831 H   0  0  0  0  0  0  0  0  0  0  0  0
  141.8299  136.0192  153.7353 H   0  0  0  0  0  0  0  0  0  0  0  0
  142.4094  135.1494  155.1538 H   0  0  0  0  0  0  0  0  0  0  0  0
  142.6189  134.4545  153.5515 H   0  0  0  0  0  0  0  0  0  0  0  0
  144.3795  135.4780  151.9440 H   0  0  0  0  0  0  0  0  0  0  0  0
  143.5659  137.0178  152.0832 H   0  0  0  0  0  0  0  0  0  0  0  0
  145.8887  137.3681  151.3716 H   0  0  0  0  0  0  0  0  0  0  0  0
  146.5082  136.4697  152.7440 H   0  0  0  0  0  0  0  0  0  0  0  0
  152.5368  141.6808  157.1330 H   0  0  0  0  0  0  0  0  0  0  0  0
  152.8298  140.1224  157.8895 H   0  0  0  0  0  0  0  0  0  0  0  0
  151.3723  141.0217  158.2852 H   0  0  0  0  0  0  0  0  0  0  0  0
  144.9559  138.9411  152.8756 H   0  0  0  0  0  0  0  0  0  0  0  0
  1  2  1  0  0  0  0
  1 21  1  0  0  0  0
  1 22  1  0  0  0  0
  1 23  1  0  0  0  0
  2 19  2  0  0  0  0
  2  3  1  0  0  0  0
  3  4  2  0  0  0  0
  4  5  1  0  0  0  0
  4 24  1  0  0  0  0
  5  6  1  0  0  0  0
  5 17  1  0  0  0  0
  6  7  1  0  0  0  0
  6 25  1  0  0  0  0
  6 26  1  0  0  0  0
  7  8  1  0  0  0  0
  7  9  1  0  0  0  0
  7 27  1  0  0  0  0
  8 28  1  0  0  0  0
  9 10  1  0  0  0  0
  9 29  1  0  0  0  0
  9 30  1  0  0  0  0
 10 16  1  0  0  0  0
 10 11  1  0  0  0  0
 10 46  1  0  0  0  0
 11 12  1  0  0  0  0
 11 31  1  0  0  0  0
 11 32  1  0  0  0  0
 12 13  1  0  0  0  0
 12 33  1  0  0  0  0
 12 34  1  0  0  0  0
 13 14  1  0  0  0  0
 13 15  1  0  0  0  0
 13 35  1  0  0  0  0
 14 36  1  0  0  0  0
 14 37  1  0  0  0  0
 14 38  1  0  0  0  0
 15 16  1  0  0  0  0
 15 39  1  0  0  0  0
 15 40  1  0  0  0  0
 16 41  1  0  0  0  0
 16 42  1  0  0  0  0
 17 18  2  0  0  0  0
 17 19  1  0  0  0  0
 19 20  1  0  0  0  0
 20 43  1  0  0  0  0
 20 44  1  0  0  0  0
 20 45  1  0  0  0  0
M  CHG  1  10   1
M  END
> <s_m_source_file>
AV-unprocessed.smi

> <i_m_source_file_index>
2278

> <i_lp_mmshare_version>
43012

> <i_f3d_flags>
0

> <s_epik_input>
W0NIM11jMW5bY0hdbihjKD1PKWMxW0NIM10pW0NIMl1bQ0BIXShbT0hdKVtDSDJdTjJbQ0gyXVtDSDJdW0NIXShbQ0gzXSlbQ0gyXVtDSDJdMg==

> <s_epik_cmdline>
J2VwaWtfcHl0aG9uJywgJy1waCcsICc3LjAnLCAnLXRuJywgJzgnLCAnLW1hJywgJzIwMCcsICctbWV0YWxfYmluZGluZycsICctaW1hZScsICc8aW5maWxlLm1hZT4nLCAnLW9tYWUnLCAnPG91dGZpbGUubWFlPic=

> <r_lp_tautomer_probability>
1

> <r_epik_Ionization_Penalty>
0.00139489

> <r_epik_Ionization_Penalty_Charging>
0.00136819

> <r_epik_Ionization_Penalty_Neutral>
2.66975e-05

> <r_epik_State_Penalty>
0.000910892

> <r_epik_Charging_Adjusted_Penalty>
0.00227908

> <i_epik_Tot_Q>
1

> <i_epik_Tot_abs_Q>
1

> <r_epik_Metal_State_Penalty>
-0

> <b_epik_Metal_Only>
0

> <s_lp_Force_Field>
OPLS_2005

> <r_lp_Energy>
29.3235

> <b_lp_Chiralities_Consistent>
1

> <s_lp_Variant>
AV-unprocessed.smi:2278-2

> <Gold.Version>
5.8.1

> <Gold.Id.Protein>
6NUR|6NUR_protein|mol2

> <Gold.PLP.Fitness>
41.5774

> <Gold.PLP.PLP>
-29.8992

> <Gold.PLP.part.hbond>
-2.0000

> <Gold.PLP.part.metal>
0.0000

> <Gold.PLP.part.buried>
-2.3558

> <Gold.PLP.part.nonpolar>
-26.5557

> <Gold.PLP.part.repulsive>
0.6061

> <Gold.PLP.ligand.clash>
0.0000

> <Gold.PLP.ligand.torsion>
0.4461

> <Gold.PLP.Chemscore.Hbond>
3.0000

> <Gold.PLP.Chemscore.CHOScore>
1.1649

> <Gold.PLP.Chemscore.Metal>
0.0000

> <Gold.Chemscore.Hbonds>
donor molecule, donor type, donor heavy atom, donor atom, acceptor molecule, acceptor atom, score
      L1  H     8    28       P1 10175  1.00
      L1  H    10    46       P1 10175  2.00
      L1  C     4    24       P1  7948  0.22
      L1  C     4    24       P1  7957  0.42

> <Gold.PLP.Chemscore.Internal.Correction>
0.0755

> <Gold.Rescore>
     Score         DG    S(hbond)    S(metal)    S(lipo)     H(rot)  DE(clash)    DE(int)     intcor
     12.68     -13.35       1.81        0.00      63.55       2.20       0.15       0.52       ----

> <Gold.Chemscore.Fitness>
12.6803

> <Gold.Chemscore.DG>
-13.3482

> <Gold.Chemscore.ZeroCoef>
-5.4800

> <Gold.Chemscore.Hbond>
1.8148

> <Gold.Chemscore.Metal>
0.0000

> <Gold.Chemscore.Lipo>
63.5490

> <Gold.Chemscore.Internal_Hbond>
0.0000

> <Gold.Chemscore.DEClash>
0.1508

> <Gold.Chemscore.DEInternal>
0.5171

> <Gold.Chemscore.Rot>
2.1986

> <Gold.Chemscore.Internal.Correction>
   9.000000E+99

> <Gold.Chemscore.Hbonds>
donor molecule, donor type, donor heavy atom, donor atom, acceptor molecule, acceptor atom, score
      L1  H     8    28       P1 10175  0.56
      L1  H    10    46       P1 10175  0.93

> <Gold.Chemscore.Hbond.Weighted>
-6.0614

> <Gold.Chemscore.Metal.Weighted>
-0.0000

> <Gold.Chemscore.Lipo.Weighted>
-7.4352

> <Gold.Chemscore.Internal_Hbond.Weighted>
0.0000

> <Gold.Chemscore.DEClash.Weighted>
0.1508

> <Gold.Chemscore.DEInternal.Weighted>
0.5171

> <Gold.Chemscore.Rot.Weighted>
5.6285

> <Gold.Chemscore.Internal.Correction.Weighted>
   9.000000E+99

> <Gold.Protein.RotatedTorsions>
[ 6907 6896 6895 6894 ] final -131.49 input  -60.11 | X-H torsion
[ 7974 7965 7964 7962 ] final   14.97 input  175.53 | X-H torsion
[ 8008 7997 7996 7995 ] final -156.91 input   59.86 | X-H torsion
[ 10167 10162 10161 10158 ] final -121.13 input  -65.29 | X-H torsion
[ 10718 10713 10712 10709 ] final  131.99 input   66.30 | X-H torsion
[ 10763 10752 10751 10750 ] final  112.27 input  -60.55 | X-H torsion
[ 11005 11000 10999 10996 ] final -158.90 input  -57.11 | X-H torsion

> <Gold.Protein.ActiveResidues>
 VAL166  LYS551  ARG553  GLY616  TRP617  ASP618  TYR619  PRO620  LYS621  CYS622 
 ASP623  PHE694  ASN695  SER759  ASP760  ASP761  ALA762  ILE779  LEU786  VAL792 
 PHE793  MET794  SER795  GLU796  ALA797  LYS798  CYS799  TRP800  GLU811  SER814 

> <Gold.Protein.RotatedAtoms>
  150.9516  133.6543  159.2770 H   0  0  0  0  0  0  0  0  0  0  0  0  # atno 6907 bound_to 6896
  151.3897  135.0953  159.9532 H   0  0  0  0  0  0  0  0  0  0  0  0  # atno 6908 bound_to 6896
  152.5112  133.9033  159.7506 H   0  0  0  0  0  0  0  0  0  0  0  0  # atno 6909 bound_to 6896
  146.2291  139.8962  142.8546 H   0  0  0  0  0  0  0  0  0  0  0  0  # atno 7974 bound_to 7965
  155.7243  140.0794  157.2317 H   0  0  0  0  0  0  0  0  0  0  0  0  # atno 8008 bound_to 7997
  154.4041  140.1607  156.2492 H   0  0  0  0  0  0  0  0  0  0  0  0  # atno 8009 bound_to 7997
  155.9167  140.3400  155.6144 H   0  0  0  0  0  0  0  0  0  0  0  0  # atno 8010 bound_to 7997
  140.0284  143.5273  152.2188 H   0  0  0  0  0  0  0  0  0  0  0  0  # atno 10167 bound_to 10162
  157.4914  131.1090  150.9551 H   0  0  0  0  0  0  0  0  0  0  0  0  # atno 10718 bound_to 10713
  153.4754  135.3691  155.2413 H   0  0  0  0  0  0  0  0  0  0  0  0  # atno 10763 bound_to 10752
  154.8756  135.3941  154.3763 H   0  0  0  0  0  0  0  0  0  0  0  0  # atno 10764 bound_to 10752
  153.4358  135.7083  153.6266 H   0  0  0  0  0  0  0  0  0  0  0  0  # atno 10765 bound_to 10752
  140.6485  134.4476  157.5234 H   0  0  0  0  0  0  0  0  0  0  0  0  # atno 11005 bound_to 11000
  145.2368  140.9994  143.3959 LP  0  0  0  0  0  0  0  0  0  0  0  0  # atno 17320 bound_to 7965
  144.9484  139.4110  143.6414 LP  0  0  0  0  0  0  0  0  0  0  0  0  # atno 17321 bound_to 7965
  139.6093  144.7604  151.2990 LP  0  0  0  0  0  0  0  0  0  0  0  0  # atno 17342 bound_to 10162
  140.7313  143.6856  150.7964 LP  0  0  0  0  0  0  0  0  0  0  0  0  # atno 17343 bound_to 10162
  157.0251  130.5689  149.5336 LP  0  0  0  0  0  0  0  0  0  0  0  0  # atno 17370 bound_to 10713
  156.0176  130.5270  150.8180 LP  0  0  0  0  0  0  0  0  0  0  0  0  # atno 17371 bound_to 10713
  139.9054  134.8460  156.1726 LP  0  0  0  0  0  0  0  0  0  0  0  0  # atno 17394 bound_to 11000
  141.0554  133.6867  156.1851 LP  0  0  0  0  0  0  0  0  0  0  0  0  # atno 17395 bound_to 11000

$$$$
