AV-unprocessed.smi:658|AV-procd|sdf|3231|dock2
  -GOLD-   22720 0173D 1   1.00000     0.00000
 Structure written by MMmdl.
 38 38  0  0  0  0  0  0  0  0  2 V2000
  145.0016  134.1241  153.9777 C   0  0  0  0  0  0  0  0  0  0  0  0
  145.8922  134.9081  152.9966 C   0  0  1  0  0  0  0  0  0  0  0  0
  147.1686  134.1769  152.8270 N   0  3  0  0  0  0  0  0  0  0  0  0
  147.7173  133.5864  154.0652 C   0  0  0  0  0  0  0  0  0  0  0  0
  149.2491  133.5404  154.0200 C   0  0  0  0  0  0  0  0  0  0  0  0
  149.8813  133.6475  155.4136 C   0  0  0  0  0  0  0  0  0  0  0  0
  150.0239  135.4092  155.9292 S   0  0  0  0  0  0  0  0  0  0  0  0
  149.0528  136.2238  154.7670 N   0  0  0  0  0  0  0  0  0  0  0  0
  149.3785  135.5647  157.2415 O   0  0  0  0  0  0  0  0  0  0  0  0
  151.4158  135.8405  155.7319 O   0  0  0  0  0  0  0  0  0  0  0  0
  145.2148  135.1503  151.6211 C   0  0  2  0  0  0  0  0  0  0  0  0
  143.8786  135.9084  151.7274 C   0  0  0  0  0  0  0  0  0  0  0  0
  145.0165  133.9042  150.8909 N   0  0  0  0  0  0  0  0  0  0  0  0
  143.8546  133.4010  150.3397 C   0  0  0  0  0  0  0  0  0  0  0  0
  144.1603  132.1993  149.7685 C   0  0  0  0  0  0  0  0  0  0  0  0
  145.5506  132.0460  150.0279 C   0  0  0  0  0  0  0  0  0  0  0  0
  146.0586  133.0656  150.7013 N   0  0  0  0  0  0  0  0  0  0  0  0
  144.0913  134.6703  154.2266 H   0  0  0  0  0  0  0  0  0  0  0  0
  145.5248  133.9355  154.9158 H   0  0  0  0  0  0  0  0  0  0  0  0
  144.7075  133.1598  153.5620 H   0  0  0  0  0  0  0  0  0  0  0  0
  146.0948  135.8761  153.4584 H   0  0  0  0  0  0  0  0  0  0  0  0
  147.0141  133.4258  152.1697 H   0  0  0  0  0  0  0  0  0  0  0  0
  147.3896  134.1690  154.9267 H   0  0  0  0  0  0  0  0  0  0  0  0
  147.3172  132.5790  154.1869 H   0  0  0  0  0  0  0  0  0  0  0  0
  149.5729  132.6124  153.5468 H   0  0  0  0  0  0  0  0  0  0  0  0
  149.6192  134.3527  153.3932 H   0  0  0  0  0  0  0  0  0  0  0  0
  149.2785  133.1245  156.1563 H   0  0  0  0  0  0  0  0  0  0  0  0
  150.8794  133.2086  155.4226 H   0  0  0  0  0  0  0  0  0  0  0  0
  148.0731  136.2933  155.0414 H   0  0  0  0  0  0  0  0  0  0  0  0
  149.2042  135.8921  153.8148 H   0  0  0  0  0  0  0  0  0  0  0  0
  145.8879  135.7695  151.0245 H   0  0  0  0  0  0  0  0  0  0  0  0
  144.0186  136.9118  152.1292 H   0  0  0  0  0  0  0  0  0  0  0  0
  143.1714  135.3866  152.3728 H   0  0  0  0  0  0  0  0  0  0  0  0
  143.4134  136.0195  150.7472 H   0  0  0  0  0  0  0  0  0  0  0  0
  142.9168  133.9336  150.3981 H   0  0  0  0  0  0  0  0  0  0  0  0
  143.4924  131.5308  149.2457 H   0  0  0  0  0  0  0  0  0  0  0  0
  146.2006  131.2296  149.7499 H   0  0  0  0  0  0  0  0  0  0  0  0
  147.8502  134.8095  152.4327 H   0  0  0  0  0  0  0  0  0  0  0  0
  1  2  1  0  0  0  0
  1 18  1  0  0  0  0
  1 19  1  0  0  0  0
  1 20  1  0  0  0  0
  2  3  1  0  0  0  0
  2 11  1  0  0  0  0
  2 21  1  0  0  0  0
  3  4  1  0  0  0  0
  3 22  1  0  0  0  0
  3 38  1  0  0  0  0
  4  5  1  0  0  0  0
  4 23  1  0  0  0  0
  4 24  1  0  0  0  0
  5  6  1  0  0  0  0
  5 25  1  0  0  0  0
  5 26  1  0  0  0  0
  6  7  1  0  0  0  0
  6 27  1  0  0  0  0
  6 28  1  0  0  0  0
  7  8  1  0  0  0  0
  7  9  2  0  0  0  0
  7 10  2  0  0  0  0
  8 29  1  0  0  0  0
  8 30  1  0  0  0  0
 11 12  1  0  0  0  0
 11 13  1  0  0  0  0
 11 31  1  0  0  0  0
 12 32  1  0  0  0  0
 12 33  1  0  0  0  0
 12 34  1  0  0  0  0
 13 17  1  0  0  0  0
 13 14  1  0  0  0  0
 14 15  2  0  0  0  0
 14 35  1  0  0  0  0
 15 16  1  0  0  0  0
 15 36  1  0  0  0  0
 16 17  2  0  0  0  0
 16 37  1  0  0  0  0
M  CHG  1   3   1
M  END
> <s_m_source_file>
AV-unprocessed.smi

> <i_m_source_file_index>
658

> <i_lp_mmshare_version>
43012

> <i_f3d_flags>
0

> <s_epik_input>
bjFbY0hdW2NIXVtjSF1uMVtDQEBIXShbQ0gzXSlbQ0BIXShbQ0gzXSlbTkhdW0NIMl1bQ0gyXVtDSDJdUyg9TykoPU8pW05IMl0=

> <s_epik_cmdline>
J2VwaWtfcHl0aG9uJywgJy1waCcsICc3LjAnLCAnLXRuJywgJzgnLCAnLW1hJywgJzIwMCcsICctbWV0YWxfYmluZGluZycsICctaW1hZScsICc8aW5maWxlLm1hZT4nLCAnLW9tYWUnLCAnPG91dGZpbGUubWFlPic=

> <r_lp_tautomer_probability>
1

> <r_epik_Ionization_Penalty>
0.00535781

> <r_epik_Ionization_Penalty_Charging>
0.00511015

> <r_epik_Ionization_Penalty_Neutral>
0.000247661

> <r_epik_State_Penalty>
-0

> <r_epik_Charging_Adjusted_Penalty>
0.00511015

> <i_epik_Tot_Q>
1

> <i_epik_Tot_abs_Q>
1

> <r_epik_Metal_State_Penalty>
0.149106

> <b_epik_Metal_Only>
0

> <s_lp_Force_Field>
OPLS_2005

> <r_lp_Energy>
8.89673

> <b_lp_Chiralities_Consistent>
1

> <s_lp_Variant>
AV-unprocessed.smi:658-2

> <Gold.Version>
5.8.1

> <Gold.Id.Protein>
6NUR|6NUR_protein|mol2

> <Gold.PLP.Fitness>
46.6135

> <Gold.PLP.PLP>
-30.2247

> <Gold.PLP.part.hbond>
-3.0000

> <Gold.PLP.part.metal>
0.0000

> <Gold.PLP.part.buried>
-4.9873

> <Gold.PLP.part.nonpolar>
-23.2540

> <Gold.PLP.part.repulsive>
0.2834

> <Gold.PLP.ligand.clash>
0.0000

> <Gold.PLP.ligand.torsion>
0.9387

> <Gold.PLP.Chemscore.Hbond>
3.9920

> <Gold.PLP.Chemscore.CHOScore>
1.9836

> <Gold.PLP.Chemscore.Metal>
0.0000

> <Gold.Chemscore.Hbonds>
donor molecule, donor type, donor heavy atom, donor atom, acceptor molecule, acceptor atom, score
      L1  H     3    38       P1  7948  2.00
      L1  H     8    30       P1  7948  0.96
      P1  H 10752 10764       L1    10  1.00
      L1  C    14    35       P1 10186  1.00
      L1  C    16    37       P1 10747  0.25

> <Gold.PLP.Chemscore.Internal.Correction>
0.3393

> <Gold.Rescore>
     Score         DG    S(hbond)    S(metal)    S(lipo)     H(rot)  DE(clash)    DE(int)     intcor
     10.78     -13.56       2.66        0.00      61.51       3.13       0.40       2.38       ----

> <Gold.Chemscore.Fitness>
10.7793

> <Gold.Chemscore.DG>
-13.5600

> <Gold.Chemscore.ZeroCoef>
-5.4800

> <Gold.Chemscore.Hbond>
2.6645

> <Gold.Chemscore.Metal>
0.0000

> <Gold.Chemscore.Lipo>
61.5077

> <Gold.Chemscore.Internal_Hbond>
0.0000

> <Gold.Chemscore.DEClash>
0.4031

> <Gold.Chemscore.DEInternal>
2.3775

> <Gold.Chemscore.Rot>
3.1312

> <Gold.Chemscore.Internal.Correction>
   9.000000E+99

> <Gold.Chemscore.Hbonds>
donor molecule, donor type, donor heavy atom, donor atom, acceptor molecule, acceptor atom, score
      L1  H     3    38       P1  7948  0.78
      L1  H     8    30       P1  7948  0.74
      P1  H 10752 10764       L1    10  1.00

> <Gold.Chemscore.Hbond.Weighted>
-8.8995

> <Gold.Chemscore.Metal.Weighted>
-0.0000

> <Gold.Chemscore.Lipo.Weighted>
-7.1964

> <Gold.Chemscore.Internal_Hbond.Weighted>
0.0000

> <Gold.Chemscore.DEClash.Weighted>
0.4031

> <Gold.Chemscore.DEInternal.Weighted>
2.3775

> <Gold.Chemscore.Rot.Weighted>
8.0160

> <Gold.Chemscore.Internal.Correction.Weighted>
   9.000000E+99

> <Gold.Protein.RotatedTorsions>
[ 6907 6896 6895 6894 ] final -152.49 input  -60.11 | X-H torsion
[ 7974 7965 7964 7962 ] final -111.81 input  175.53 | X-H torsion
[ 8008 7997 7996 7995 ] final  -37.14 input   59.86 | X-H torsion
[ 10167 10162 10161 10158 ] final   39.73 input  -65.29 | X-H torsion
[ 10718 10713 10712 10709 ] final -132.71 input   66.30 | X-H torsion
[ 10763 10752 10751 10750 ] final  -45.44 input  -60.55 | X-H torsion
[ 11005 11000 10999 10996 ] final  104.35 input  -57.11 | X-H torsion

> <Gold.Protein.ActiveResidues>
 VAL166  LYS551  ARG553  GLY616  TRP617  ASP618  TYR619  PRO620  LYS621  CYS622 
 ASP623  PHE694  ASN695  SER759  ASP760  ASP761  ALA762  ILE779  LEU786  VAL792 
 PHE793  MET794  SER795  GLU796  ALA797  LYS798  CYS799  TRP800  GLU811  SER814 

> <Gold.Protein.RotatedAtoms>
  151.2286  133.4462  159.2602 H   0  0  0  0  0  0  0  0  0  0  0  0  # atno 6907 bound_to 6896
  151.0816  134.9862  159.8369 H   0  0  0  0  0  0  0  0  0  0  0  0  # atno 6908 bound_to 6896
  152.5425  134.2225  159.8846 H   0  0  0  0  0  0  0  0  0  0  0  0  # atno 6909 bound_to 6896
  145.1515  140.8832  143.3643 H   0  0  0  0  0  0  0  0  0  0  0  0  # atno 7974 bound_to 7965
  154.4059  140.1612  156.2489 H   0  0  0  0  0  0  0  0  0  0  0  0  # atno 8008 bound_to 7997
  155.9136  140.3426  155.6095 H   0  0  0  0  0  0  0  0  0  0  0  0  # atno 8009 bound_to 7997
  155.7306  140.0780  157.2281 H   0  0  0  0  0  0  0  0  0  0  0  0  # atno 8010 bound_to 7997
  140.3811  144.1979  150.6131 H   0  0  0  0  0  0  0  0  0  0  0  0  # atno 10167 bound_to 10162
  156.2374  130.7075  151.0922 H   0  0  0  0  0  0  0  0  0  0  0  0  # atno 10718 bound_to 10713
  154.0285  135.6660  153.4778 H   0  0  0  0  0  0  0  0  0  0  0  0  # atno 10763 bound_to 10752
  153.0550  135.5061  154.7955 H   0  0  0  0  0  0  0  0  0  0  0  0  # atno 10764 bound_to 10752
  154.6893  135.3058  154.9468 H   0  0  0  0  0  0  0  0  0  0  0  0  # atno 10765 bound_to 10752
  139.8791  134.9297  156.5348 H   0  0  0  0  0  0  0  0  0  0  0  0  # atno 11005 bound_to 11000
  145.0425  139.3248  143.5969 LP  0  0  0  0  0  0  0  0  0  0  0  0  # atno 17320 bound_to 7965
  146.3494  139.9804  142.8696 LP  0  0  0  0  0  0  0  0  0  0  0  0  # atno 17321 bound_to 7965
  140.4937  143.2339  151.8781 LP  0  0  0  0  0  0  0  0  0  0  0  0  # atno 17342 bound_to 10162
  139.4795  144.5138  151.8897 LP  0  0  0  0  0  0  0  0  0  0  0  0  # atno 17343 bound_to 10162
  157.7160  131.0709  150.6323 LP  0  0  0  0  0  0  0  0  0  0  0  0  # atno 17370 bound_to 10713
  156.6394  130.4454  149.5757 LP  0  0  0  0  0  0  0  0  0  0  0  0  # atno 17371 bound_to 10713
  140.8354  133.8246  155.9023 LP  0  0  0  0  0  0  0  0  0  0  0  0  # atno 17394 bound_to 11000
  140.9289  134.2047  157.4877 LP  0  0  0  0  0  0  0  0  0  0  0  0  # atno 17395 bound_to 11000

$$$$
