AV-unprocessed.smi:897|AV-procd|sdf|4081|dock3
  -GOLD-   22720 1573D 1   1.00000     0.00000
 Structure written by MMmdl.
 35 37  0  0  0  0  0  0  0  0  1 V2000
  152.6167  144.1625  159.2313 C   0  0  0  0  0  0  0  0  0  0  0  0
  152.5708  142.6536  159.3505 C   0  0  0  0  0  0  0  0  0  0  0  0
  153.5327  141.9568  160.1050 C   0  0  0  0  0  0  0  0  0  0  0  0
  153.4440  140.5523  160.1825 C   0  0  0  0  0  0  0  0  0  0  0  0
  154.4770  139.7890  160.9980 C   0  0  0  0  0  0  0  0  0  0  0  0
  152.3897  139.8968  159.4940 C   0  0  0  0  0  0  0  0  0  0  0  0
  152.2645  138.4412  159.5427 C   0  0  0  0  0  0  0  0  0  0  0  0
  152.1652  137.2891  159.5819 N   0  0  0  0  0  0  0  0  0  0  0  0
  151.4684  140.6905  158.7561 C   0  0  0  0  0  0  0  0  0  0  0  0
  150.4039  140.0877  158.0603 N   0  0  0  0  0  0  0  0  0  0  0  0
  149.9807  140.5754  156.7508 C   0  0  2  0  0  0  0  0  0  0  0  0
  148.9634  139.6556  156.0715 C   0  0  0  0  0  0  0  0  0  0  0  0
  149.6263  139.4016  154.7100 C   0  0  2  0  0  0  0  0  0  0  0  0
  150.8060  138.4284  154.8304 C   0  0  0  0  0  0  0  0  0  0  0  0
  151.8555  139.2974  155.5207 C   0  0  0  0  0  0  0  0  0  0  0  0
  151.1032  140.6280  155.6943 C   0  0  1  0  0  0  0  0  0  0  0  0
  150.3188  140.6232  154.5134 O   0  0  0  0  0  0  0  0  0  0  0  0
  151.5658  142.0398  158.6947 N   0  0  0  0  0  0  0  0  0  0  0  0
  153.3675  144.5885  159.8973 H   0  0  0  0  0  0  0  0  0  0  0  0
  151.6497  144.5948  159.4900 H   0  0  0  0  0  0  0  0  0  0  0  0
  152.8616  144.4530  158.2096 H   0  0  0  0  0  0  0  0  0  0  0  0
  154.3221  142.4901  160.6147 H   0  0  0  0  0  0  0  0  0  0  0  0
  155.0184  139.0833  160.3673 H   0  0  0  0  0  0  0  0  0  0  0  0
  153.9947  139.2349  161.8040 H   0  0  0  0  0  0  0  0  0  0  0  0
  155.2072  140.4637  161.4462 H   0  0  0  0  0  0  0  0  0  0  0  0
  150.1268  139.1530  158.3242 H   0  0  0  0  0  0  0  0  0  0  0  0
  149.5330  141.5645  156.8594 H   0  0  0  0  0  0  0  0  0  0  0  0
  148.7776  138.7270  156.6133 H   0  0  0  0  0  0  0  0  0  0  0  0
  148.0106  140.1720  155.9508 H   0  0  0  0  0  0  0  0  0  0  0  0
  148.9236  139.1482  153.9158 H   0  0  0  0  0  0  0  0  0  0  0  0
  150.5520  137.5352  155.4020 H   0  0  0  0  0  0  0  0  0  0  0  0
  151.1555  138.1171  153.8454 H   0  0  0  0  0  0  0  0  0  0  0  0
  152.2057  138.8757  156.4632 H   0  0  0  0  0  0  0  0  0  0  0  0
  152.7220  139.4308  154.8723 H   0  0  0  0  0  0  0  0  0  0  0  0
  151.7583  141.4946  155.7866 H   0  0  0  0  0  0  0  0  0  0  0  0
  1  2  1  0  0  0  0
  1 19  1  0  0  0  0
  1 20  1  0  0  0  0
  1 21  1  0  0  0  0
  2 18  1  0  0  0  0
  2  3  2  0  0  0  0
  3  4  1  0  0  0  0
  3 22  1  0  0  0  0
  4  5  1  0  0  0  0
  4  6  2  0  0  0  0
  5 23  1  0  0  0  0
  5 24  1  0  0  0  0
  5 25  1  0  0  0  0
  6  7  1  0  0  0  0
  6  9  1  0  0  0  0
  7  8  3  0  0  0  0
  9 10  1  0  0  0  0
  9 18  2  0  0  0  0
 10 11  1  0  0  0  0
 10 26  1  0  0  0  0
 11 16  1  0  0  0  0
 11 12  1  0  0  0  0
 11 27  1  0  0  0  0
 12 13  1  0  0  0  0
 12 28  1  0  0  0  0
 12 29  1  0  0  0  0
 13 17  1  0  0  0  0
 13 14  1  0  0  0  0
 13 30  1  0  0  0  0
 14 15  1  0  0  0  0
 14 31  1  0  0  0  0
 14 32  1  0  0  0  0
 15 16  1  0  0  0  0
 15 33  1  0  0  0  0
 15 34  1  0  0  0  0
 16 17  1  0  0  0  0
 16 35  1  0  0  0  0
M  END
> <s_m_source_file>
AV-unprocessed.smi

> <i_m_source_file_index>
897

> <i_lp_mmshare_version>
43012

> <i_f3d_flags>
0

> <s_epik_input>
W0NIM11jMVtjSF1jKFtDSDNdKWMoQyNOKWMobjEpW05IXVtDQEhdKFtDSDJdW0NAQEhdMjMpW0NAQEhdKE8zKVtDSDJdW0NIMl0y

> <s_epik_cmdline>
J2VwaWtfcHl0aG9uJywgJy1waCcsICc3LjAnLCAnLXRuJywgJzgnLCAnLW1hJywgJzIwMCcsICctbWV0YWxfYmluZGluZycsICctaW1hZScsICc8aW5maWxlLm1hZT4nLCAnLW9tYWUnLCAnPG91dGZpbGUubWFlPic=

> <r_lp_tautomer_probability>
1

> <r_epik_Ionization_Penalty>
0.000502654

> <r_epik_Ionization_Penalty_Charging>
0

> <r_epik_Ionization_Penalty_Neutral>
0.000502654

> <r_epik_State_Penalty>
-0

> <r_epik_Charging_Adjusted_Penalty>
0

> <i_epik_Tot_Q>
0

> <i_epik_Tot_abs_Q>
0

> <r_epik_Metal_State_Penalty>
-0

> <b_epik_Metal_Only>
0

> <s_lp_Force_Field>
OPLS_2005

> <r_lp_Energy>
43.9229

> <b_lp_Chiralities_Consistent>
1

> <s_lp_Variant>
AV-unprocessed.smi:897-3

> <Gold.Version>
5.8.1

> <Gold.Id.Protein>
6NUR|6NUR_protein|mol2

> <Gold.PLP.Fitness>
40.4397

> <Gold.PLP.PLP>
-36.7071

> <Gold.PLP.part.hbond>
-1.3827

> <Gold.PLP.part.metal>
0.0000

> <Gold.PLP.part.buried>
-4.0998

> <Gold.PLP.part.nonpolar>
-31.8607

> <Gold.PLP.part.repulsive>
0.2305

> <Gold.PLP.ligand.clash>
0.0000

> <Gold.PLP.ligand.torsion>
0.3438

> <Gold.PLP.Chemscore.Hbond>
1.4700

> <Gold.PLP.Chemscore.CHOScore>
0.0000

> <Gold.PLP.Chemscore.Metal>
0.0000

> <Gold.Chemscore.Hbonds>
donor molecule, donor type, donor heavy atom, donor atom, acceptor molecule, acceptor atom, score
      P1  H  6896  6909       L1     8  0.46
      P1  H  7989  7998       L1    17  0.66

> <Gold.PLP.Chemscore.Internal.Correction>
0.0101

> <Gold.Rescore>
     Score         DG    S(hbond)    S(metal)    S(lipo)     H(rot)  DE(clash)    DE(int)     intcor
     19.79     -20.12       1.97        0.00      90.79       1.00       0.01       0.32       ----

> <Gold.Chemscore.Fitness>
19.7874

> <Gold.Chemscore.DG>
-20.1164

> <Gold.Chemscore.ZeroCoef>
-5.4800

> <Gold.Chemscore.Hbond>
1.9681

> <Gold.Chemscore.Metal>
0.0000

> <Gold.Chemscore.Lipo>
90.7939

> <Gold.Chemscore.Internal_Hbond>
0.0000

> <Gold.Chemscore.DEClash>
0.0075

> <Gold.Chemscore.DEInternal>
0.3216

> <Gold.Chemscore.Rot>
1.0000

> <Gold.Chemscore.Internal.Correction>
   9.000000E+99

> <Gold.Chemscore.Hbonds>
donor molecule, donor type, donor heavy atom, donor atom, acceptor molecule, acceptor atom, score
      P1  H  6896  6909       L1     8  0.45
      P1  H  7989  7998       L1    17  0.08

> <Gold.Chemscore.Hbond.Weighted>
-6.5736

> <Gold.Chemscore.Metal.Weighted>
-0.0000

> <Gold.Chemscore.Lipo.Weighted>
-10.6229

> <Gold.Chemscore.Internal_Hbond.Weighted>
0.0000

> <Gold.Chemscore.DEClash.Weighted>
0.0075

> <Gold.Chemscore.DEInternal.Weighted>
0.3216

> <Gold.Chemscore.Rot.Weighted>
2.5600

> <Gold.Chemscore.Internal.Correction.Weighted>
   9.000000E+99

> <Gold.Protein.RotatedTorsions>
[ 6907 6896 6895 6894 ] final  140.71 input  -60.11 | X-H torsion
[ 7974 7965 7964 7962 ] final  143.28 input  175.53 | X-H torsion
[ 8008 7997 7996 7995 ] final   22.51 input   59.86 | X-H torsion
[ 10167 10162 10161 10158 ] final -173.43 input  -65.29 | X-H torsion
[ 10718 10713 10712 10709 ] final  -98.66 input   66.30 | X-H torsion
[ 10763 10752 10751 10750 ] final  -72.21 input  -60.55 | X-H torsion
[ 11005 11000 10999 10996 ] final   70.53 input  -57.11 | X-H torsion

> <Gold.Protein.ActiveResidues>
 VAL166  LYS551  ARG553  GLY616  TRP617  ASP618  TYR619  PRO620  LYS621  CYS622 
 ASP623  PHE694  ASN695  SER759  ASP760  ASP761  ALA762  ILE779  LEU786  VAL792 
 PHE793  MET794  SER795  GLU796  ALA797  LYS798  CYS799  TRP800  GLU811  SER814 

> <Gold.Protein.RotatedAtoms>
  152.2397  133.5125  159.5262 H   0  0  0  0  0  0  0  0  0  0  0  0  # atno 6907 bound_to 6896
  150.7061  134.1105  159.4007 H   0  0  0  0  0  0  0  0  0  0  0  0  # atno 6908 bound_to 6896
  151.9026  135.0372  160.0558 H   0  0  0  0  0  0  0  0  0  0  0  0  # atno 6909 bound_to 6896
  144.8934  139.5525  143.5787 H   0  0  0  0  0  0  0  0  0  0  0  0  # atno 7974 bound_to 7965
  154.9668  140.3085  155.5006 H   0  0  0  0  0  0  0  0  0  0  0  0  # atno 8008 bound_to 7997
  156.2970  140.2291  156.4696 H   0  0  0  0  0  0  0  0  0  0  0  0  # atno 8009 bound_to 7997
  154.7914  140.0439  157.1192 H   0  0  0  0  0  0  0  0  0  0  0  0  # atno 8010 bound_to 7997
  139.5689  144.1689  152.1354 H   0  0  0  0  0  0  0  0  0  0  0  0  # atno 10167 bound_to 10162
  156.0113  130.5248  150.6555 H   0  0  0  0  0  0  0  0  0  0  0  0  # atno 10718 bound_to 10713
  154.4426  135.5937  153.6139 H   0  0  0  0  0  0  0  0  0  0  0  0  # atno 10763 bound_to 10752
  152.9806  135.6001  154.3704 H   0  0  0  0  0  0  0  0  0  0  0  0  # atno 10764 bound_to 10752
  154.3555  135.2841  155.2327 H   0  0  0  0  0  0  0  0  0  0  0  0  # atno 10765 bound_to 10752
  139.9592  134.7090  156.0683 H   0  0  0  0  0  0  0  0  0  0  0  0  # atno 11005 bound_to 11000
  146.3067  139.7605  142.9050 LP  0  0  0  0  0  0  0  0  0  0  0  0  # atno 17320 bound_to 7965
  145.3742  141.0348  143.3214 LP  0  0  0  0  0  0  0  0  0  0  0  0  # atno 17321 bound_to 7965
  140.1218  144.5366  150.6858 LP  0  0  0  0  0  0  0  0  0  0  0  0  # atno 17342 bound_to 10162
  140.6973  143.2412  151.4965 LP  0  0  0  0  0  0  0  0  0  0  0  0  # atno 17343 bound_to 10162
  157.4308  131.0849  151.1040 LP  0  0  0  0  0  0  0  0  0  0  0  0  # atno 17370 bound_to 10713
  157.1614  130.6227  149.5612 LP  0  0  0  0  0  0  0  0  0  0  0  0  # atno 17371 bound_to 10713
  141.1268  133.6597  156.3357 LP  0  0  0  0  0  0  0  0  0  0  0  0  # atno 17394 bound_to 11000
  140.5538  134.6002  157.5415 LP  0  0  0  0  0  0  0  0  0  0  0  0  # atno 17395 bound_to 11000

$$$$
