AV-unprocessed.smi:2210|AV-procd|sdf|8949|dock9
  -GOLD-   2272012163D 1   1.00000     0.00000
 Structure written by MMmdl.
 37 38  0  0  0  0  0  0  0  0  1 V2000
  149.7941  135.0688  156.1095 O   0  0  0  0  0  0  0  0  0  0  0  0
  149.5216  135.3526  154.9432 C   0  0  0  0  0  0  0  0  0  0  0  0
  148.8337  134.5414  154.1270 N   0  0  0  0  0  0  0  0  0  0  0  0
  148.3131  133.2293  154.4937 C   0  0  0  0  0  0  0  0  0  0  0  0
  148.3082  132.2666  153.2932 C   0  0  0  0  0  0  0  0  0  0  0  0
  147.1210  132.4837  152.3697 C   0  0  0  0  0  0  0  0  0  0  0  0
  146.9289  133.6469  151.7174 C   0  0  0  0  0  0  0  0  0  0  0  0
  145.7551  133.9242  150.7947 C   0  0  0  0  0  0  0  0  0  0  0  0
  144.6324  132.8842  150.9461 C   0  0  0  0  0  0  0  0  0  0  0  0
  145.2025  131.4629  151.0272 C   0  0  0  0  0  0  0  0  0  0  0  0
  146.1587  131.3100  152.2236 C   0  0  0  0  0  0  0  0  0  0  0  0
  149.8784  136.4856  154.3143 N   0  0  0  0  0  0  0  0  0  0  0  0
  150.6077  137.5913  154.8296 C   0  0  0  0  0  0  0  0  0  0  0  0
  151.5251  137.5095  155.9054 C   0  0  0  0  0  0  0  0  0  0  0  0
  152.1749  138.6828  156.3348 C   0  0  0  0  0  0  0  0  0  0  0  0
  151.8782  139.8942  155.6805 C   0  0  0  0  0  0  0  0  0  0  0  0
  150.9951  139.9895  154.6645 N   0  0  0  0  0  0  0  0  0  0  0  0
  150.3762  138.8606  154.2580 C   0  0  0  0  0  0  0  0  0  0  0  0
  148.6608  134.8514  153.1819 H   0  0  0  0  0  0  0  0  0  0  0  0
  148.9426  132.8364  155.2920 H   0  0  0  0  0  0  0  0  0  0  0  0
  147.3088  133.3278  154.9093 H   0  0  0  0  0  0  0  0  0  0  0  0
  149.2302  132.3874  152.7226 H   0  0  0  0  0  0  0  0  0  0  0  0
  148.2964  131.2326  153.6394 H   0  0  0  0  0  0  0  0  0  0  0  0
  147.6416  134.4510  151.8305 H   0  0  0  0  0  0  0  0  0  0  0  0
  145.3659  134.9223  150.9977 H   0  0  0  0  0  0  0  0  0  0  0  0
  146.1274  133.9308  149.7699 H   0  0  0  0  0  0  0  0  0  0  0  0
  144.0626  133.0925  151.8527 H   0  0  0  0  0  0  0  0  0  0  0  0
  143.9317  132.9671  150.1148 H   0  0  0  0  0  0  0  0  0  0  0  0
  144.3953  130.7335  151.1011 H   0  0  0  0  0  0  0  0  0  0  0  0
  145.7369  131.2385  150.1031 H   0  0  0  0  0  0  0  0  0  0  0  0
  146.7249  130.3840  152.1192 H   0  0  0  0  0  0  0  0  0  0  0  0
  145.5813  131.2257  153.1447 H   0  0  0  0  0  0  0  0  0  0  0  0
  149.6513  136.5382  153.3320 H   0  0  0  0  0  0  0  0  0  0  0  0
  151.7322  136.5819  156.4154 H   0  0  0  0  0  0  0  0  0  0  0  0
  152.8815  138.6550  157.1511 H   0  0  0  0  0  0  0  0  0  0  0  0
  152.3582  140.8123  155.9861 H   0  0  0  0  0  0  0  0  0  0  0  0
  149.6752  138.9754  153.4440 H   0  0  0  0  0  0  0  0  0  0  0  0
  1  2  2  0  0  0  0
  2  3  1  0  0  0  0
  2 12  1  0  0  0  0
  3  4  1  0  0  0  0
  3 19  1  0  0  0  0
  4  5  1  0  0  0  0
  4 20  1  0  0  0  0
  4 21  1  0  0  0  0
  5  6  1  0  0  0  0
  5 22  1  0  0  0  0
  5 23  1  0  0  0  0
  6 11  1  0  0  0  0
  6  7  2  0  0  0  0
  7  8  1  0  0  0  0
  7 24  1  0  0  0  0
  8  9  1  0  0  0  0
  8 25  1  0  0  0  0
  8 26  1  0  0  0  0
  9 10  1  0  0  0  0
  9 27  1  0  0  0  0
  9 28  1  0  0  0  0
 10 11  1  0  0  0  0
 10 29  1  0  0  0  0
 10 30  1  0  0  0  0
 11 31  1  0  0  0  0
 11 32  1  0  0  0  0
 12 13  1  0  0  0  0
 12 33  1  0  0  0  0
 13 18  1  0  0  0  0
 13 14  2  0  0  0  0
 14 15  1  0  0  0  0
 14 34  1  0  0  0  0
 15 16  2  0  0  0  0
 15 35  1  0  0  0  0
 16 17  1  0  0  0  0
 16 36  1  0  0  0  0
 17 18  2  0  0  0  0
 18 37  1  0  0  0  0
M  END
> <s_m_source_file>
AV-unprocessed.smi

> <i_m_source_file_index>
2210

> <i_lp_mmshare_version>
43012

> <i_f3d_flags>
0

> <s_epik_input>
W2NIXTFuW2NIXVtjSF1bY0hdYzFbTkhdQyg9TylbTkhdW0NIMl1bQ0gyXUMyPVtDSF1bQ0gyXVtDSDJdW0NIMl1bQ0gyXTI=

> <s_epik_cmdline>
J2VwaWtfcHl0aG9uJywgJy1waCcsICc3LjAnLCAnLXRuJywgJzgnLCAnLW1hJywgJzIwMCcsICctbWV0YWxfYmluZGluZycsICctaW1hZScsICc8aW5maWxlLm1hZT4nLCAnLW9tYWUnLCAnPG91dGZpbGUubWFlPic=

> <r_epik_Ionization_Penalty>
0.00482236

> <r_epik_Ionization_Penalty_Charging>
0

> <r_epik_Ionization_Penalty_Neutral>
0.00482236

> <r_epik_State_Penalty>
0.0034674

> <r_epik_Charging_Adjusted_Penalty>
0.0034674

> <i_epik_Tot_Q>
0

> <i_epik_Tot_abs_Q>
0

> <r_epik_Metal_State_Penalty>
-0

> <b_epik_Metal_Only>
0

> <s_lp_Force_Field>
OPLS_2005

> <r_lp_Energy>
10.3884

> <b_lp_Chiralities_Consistent>
1

> <s_lp_Variant>
AV-unprocessed.smi:2210-1

> <Gold.Version>
5.8.1

> <Gold.Id.Protein>
6NUR|6NUR_protein|mol2

> <Gold.PLP.Fitness>
45.3819

> <Gold.PLP.PLP>
-34.5160

> <Gold.PLP.part.hbond>
-3.8982

> <Gold.PLP.part.metal>
0.0000

> <Gold.PLP.part.buried>
-2.7915

> <Gold.PLP.part.nonpolar>
-28.6098

> <Gold.PLP.part.repulsive>
0.1628

> <Gold.PLP.ligand.clash>
0.0000

> <Gold.PLP.ligand.torsion>
0.4370

> <Gold.PLP.Chemscore.Hbond>
2.9120

> <Gold.PLP.Chemscore.CHOScore>
1.0000

> <Gold.PLP.Chemscore.Metal>
0.0000

> <Gold.Chemscore.Hbonds>
donor molecule, donor type, donor heavy atom, donor atom, acceptor molecule, acceptor atom, score
      L1  H     3    19       P1  7948  0.94
      L1  H    12    33       P1  7948  1.00
      P1  H  7989  7998       L1    17  1.00
      L1  C    18    37       P1  7957  1.00

> <Gold.PLP.Chemscore.Internal.Correction>
0.0038

> <Gold.Rescore>
     Score         DG    S(hbond)    S(metal)    S(lipo)     H(rot)  DE(clash)    DE(int)     intcor
     18.68     -20.17       2.34        0.00      88.75       1.37       0.05       1.44       ----

> <Gold.Chemscore.Fitness>
18.6835

> <Gold.Chemscore.DG>
-20.1726

> <Gold.Chemscore.ZeroCoef>
-5.4800

> <Gold.Chemscore.Hbond>
2.3438

> <Gold.Chemscore.Metal>
0.0000

> <Gold.Chemscore.Lipo>
88.7478

> <Gold.Chemscore.Internal_Hbond>
0.0000

> <Gold.Chemscore.DEClash>
0.0503

> <Gold.Chemscore.DEInternal>
1.4388

> <Gold.Chemscore.Rot>
1.3747

> <Gold.Chemscore.Internal.Correction>
   9.000000E+99

> <Gold.Chemscore.Hbonds>
donor molecule, donor type, donor heavy atom, donor atom, acceptor molecule, acceptor atom, score
      L1  H     3    19       P1  7948  0.41
      L1  H    12    33       P1  7948  0.44
      P1  H  7989  7998       L1    17  0.62

> <Gold.Chemscore.Hbond.Weighted>
-7.8284

> <Gold.Chemscore.Metal.Weighted>
-0.0000

> <Gold.Chemscore.Lipo.Weighted>
-10.3835

> <Gold.Chemscore.Internal_Hbond.Weighted>
0.0000

> <Gold.Chemscore.DEClash.Weighted>
0.0503

> <Gold.Chemscore.DEInternal.Weighted>
1.4388

> <Gold.Chemscore.Rot.Weighted>
3.5192

> <Gold.Chemscore.Internal.Correction.Weighted>
   9.000000E+99

> <Gold.Protein.RotatedTorsions>
[ 6907 6896 6895 6894 ] final -124.02 input  -60.11 | X-H torsion
[ 7974 7965 7964 7962 ] final  106.14 input  175.53 | X-H torsion
[ 8008 7997 7996 7995 ] final -141.73 input   59.86 | X-H torsion
[ 10167 10162 10161 10158 ] final   88.44 input  -65.29 | X-H torsion
[ 10718 10713 10712 10709 ] final   55.20 input   66.30 | X-H torsion
[ 10763 10752 10751 10750 ] final   26.52 input  -60.55 | X-H torsion
[ 11005 11000 10999 10996 ] final   79.07 input  -57.11 | X-H torsion

> <Gold.Protein.ActiveResidues>
 VAL166  LYS551  ARG553  GLY616  TRP617  ASP618  TYR619  PRO620  LYS621  CYS622 
 ASP623  PHE694  ASN695  SER759  ASP760  ASP761  ALA762  ILE779  LEU786  VAL792 
 PHE793  MET794  SER795  GLU796  ALA797  LYS798  CYS799  TRP800  GLU811  SER814 

> <Gold.Protein.RotatedAtoms>
  150.8728  133.7482  159.2955 H   0  0  0  0  0  0  0  0  0  0  0  0  # atno 6907 bound_to 6896
  151.5088  135.1063  159.9858 H   0  0  0  0  0  0  0  0  0  0  0  0  # atno 6908 bound_to 6896
  152.4707  133.7977  159.6992 H   0  0  0  0  0  0  0  0  0  0  0  0  # atno 6909 bound_to 6896
  145.3105  139.2542  143.3765 H   0  0  0  0  0  0  0  0  0  0  0  0  # atno 7974 bound_to 7965
  155.4826  140.0561  157.2965 H   0  0  0  0  0  0  0  0  0  0  0  0  # atno 8008 bound_to 7997
  154.4654  140.2016  156.0084 H   0  0  0  0  0  0  0  0  0  0  0  0  # atno 8009 bound_to 7997
  156.0965  140.3225  155.7889 H   0  0  0  0  0  0  0  0  0  0  0  0  # atno 8010 bound_to 7997
  139.8673  144.6512  150.8990 H   0  0  0  0  0  0  0  0  0  0  0  0  # atno 10167 bound_to 10162
  157.5324  130.8640  149.8706 H   0  0  0  0  0  0  0  0  0  0  0  0  # atno 10718 bound_to 10713
  153.0617  135.6558  154.0448 H   0  0  0  0  0  0  0  0  0  0  0  0  # atno 10763 bound_to 10752
  154.0114  135.2928  155.3393 H   0  0  0  0  0  0  0  0  0  0  0  0  # atno 10764 bound_to 10752
  154.6958  135.5264  153.8524 H   0  0  0  0  0  0  0  0  0  0  0  0  # atno 10765 bound_to 10752
  139.9187  134.7814  156.1732 H   0  0  0  0  0  0  0  0  0  0  0  0  # atno 11005 bound_to 11000
  146.3119  140.3640  142.8667 LP  0  0  0  0  0  0  0  0  0  0  0  0  # atno 17320 bound_to 7965
  144.9019  140.7653  143.5861 LP  0  0  0  0  0  0  0  0  0  0  0  0  # atno 17321 bound_to 7965
  140.7766  143.3693  151.1679 LP  0  0  0  0  0  0  0  0  0  0  0  0  # atno 17342 bound_to 10162
  139.7317  143.9062  152.3021 LP  0  0  0  0  0  0  0  0  0  0  0  0  # atno 17343 bound_to 10162
  156.0433  130.3734  150.1381 LP  0  0  0  0  0  0  0  0  0  0  0  0  # atno 17370 bound_to 10713
  156.9565  130.9791  151.3488 LP  0  0  0  0  0  0  0  0  0  0  0  0  # atno 17371 bound_to 10713
  141.0688  133.6807  156.2098 LP  0  0  0  0  0  0  0  0  0  0  0  0  # atno 17394 bound_to 11000
  140.6541  134.5036  157.5579 LP  0  0  0  0  0  0  0  0  0  0  0  0  # atno 17395 bound_to 11000

$$$$
