AV-unprocessed.smi:3125|AV-procd|sdf|11906|dock1
  -GOLD-   2272017293D 1   1.00000     0.00000
 Structure written by MMmdl.
 29 30  0  0  0  0  0  0  0  0  3 V2000
  151.9359  139.4749  155.5484 C   0  0  0  0  0  0  0  0  0  0  0  0
  151.2328  140.6210  156.1280 N   0  0  0  0  0  0  0  0  0  0  0  0
  151.6026  141.3109  157.2543 C   0  0  0  0  0  0  0  0  0  0  0  0
  150.6731  142.3011  157.4322 C   0  0  0  0  0  0  0  0  0  0  0  0
  149.7739  142.1742  156.4092 N   0  3  0  0  0  0  0  0  0  0  0  0
  150.1093  141.1511  155.6119 C   0  0  0  0  0  0  0  0  0  0  0  0
  149.3482  140.7155  154.3895 C   0  0  2  0  0  0  0  0  0  0  0  0
  147.9576  141.3743  154.3163 C   0  0  0  0  0  0  0  0  0  0  0  0
  147.2038  140.8988  153.0645 C   0  0  0  0  0  0  0  0  0  0  0  0
  147.1277  139.3637  153.0172 C   0  0  0  0  0  0  0  0  0  0  0  0
  148.4807  138.7708  153.0931 N   0  3  0  0  0  0  0  0  0  0  0  0
  149.2250  139.1793  154.3056 C   0  0  0  0  0  0  0  0  0  0  0  0
  152.8170  139.2449  156.1488 H   0  0  0  0  0  0  0  0  0  0  0  0
  152.2478  139.7183  154.5322 H   0  0  0  0  0  0  0  0  0  0  0  0
  151.2717  138.6102  155.5383 H   0  0  0  0  0  0  0  0  0  0  0  0
  152.4793  141.0540  157.8319 H   0  0  0  0  0  0  0  0  0  0  0  0
  150.5871  143.0665  158.1899 H   0  0  0  0  0  0  0  0  0  0  0  0
  149.9222  141.0520  153.5264 H   0  0  0  0  0  0  0  0  0  0  0  0
  147.3761  141.1265  155.2053 H   0  0  0  0  0  0  0  0  0  0  0  0
  148.0548  142.4607  154.2999 H   0  0  0  0  0  0  0  0  0  0  0  0
  146.1993  141.3233  153.0500 H   0  0  0  0  0  0  0  0  0  0  0  0
  147.7082  141.2682  152.1705 H   0  0  0  0  0  0  0  0  0  0  0  0
  146.5230  138.9873  153.8435 H   0  0  0  0  0  0  0  0  0  0  0  0
  146.6465  139.0364  152.0953 H   0  0  0  0  0  0  0  0  0  0  0  0
  148.3974  137.7638  153.0817 H   0  0  0  0  0  0  0  0  0  0  0  0
  150.2139  138.7201  154.2806 H   0  0  0  0  0  0  0  0  0  0  0  0
  148.7125  138.7848  155.1843 H   0  0  0  0  0  0  0  0  0  0  0  0
  149.0033  139.0620  152.2791 H   0  0  0  0  0  0  0  0  0  0  0  0
  148.9691  142.7727  156.2719 H   0  0  0  0  0  0  0  0  0  0  0  0
  1  2  1  0  0  0  0
  1 13  1  0  0  0  0
  1 14  1  0  0  0  0
  1 15  1  0  0  0  0
  2  6  1  0  0  0  0
  2  3  1  0  0  0  0
  3  4  2  0  0  0  0
  3 16  1  0  0  0  0
  4  5  1  0  0  0  0
  4 17  1  0  0  0  0
  5  6  2  0  0  0  0
  5 29  1  0  0  0  0
  6  7  1  0  0  0  0
  7 12  1  0  0  0  0
  7  8  1  0  0  0  0
  7 18  1  0  0  0  0
  8  9  1  0  0  0  0
  8 19  1  0  0  0  0
  8 20  1  0  0  0  0
  9 10  1  0  0  0  0
  9 21  1  0  0  0  0
  9 22  1  0  0  0  0
 10 11  1  0  0  0  0
 10 23  1  0  0  0  0
 10 24  1  0  0  0  0
 11 12  1  0  0  0  0
 11 25  1  0  0  0  0
 11 28  1  0  0  0  0
 12 26  1  0  0  0  0
 12 27  1  0  0  0  0
M  CHG  1   5   1
M  CHG  1  11   1
M  END
> <s_m_source_file>
AV-unprocessed.smi

> <i_m_source_file_index>
3125

> <i_lp_mmshare_version>
43012

> <i_f3d_flags>
0

> <s_epik_input>
W0NIM11uMVtjSF1bY0hdbmMxW0NAQEhdMltDSDJdW0NIMl1bQ0gyXVtOSF1bQ0gyXTI=

> <s_epik_cmdline>
J2VwaWtfcHl0aG9uJywgJy1waCcsICc3LjAnLCAnLXRuJywgJzgnLCAnLW1hJywgJzIwMCcsICctbWV0YWxfYmluZGluZycsICctaW1hZScsICc8aW5maWxlLm1hZT4nLCAnLW9tYWUnLCAnPG91dGZpbGUubWFlPic=

> <r_lp_tautomer_probability>
1

> <r_epik_Ionization_Penalty>
0.803551

> <r_epik_Ionization_Penalty_Charging>
0.000747377

> <r_epik_Ionization_Penalty_Neutral>
0.802804

> <r_epik_State_Penalty>
0.360941

> <r_epik_Charging_Adjusted_Penalty>
0.361688

> <i_epik_Tot_Q>
2

> <i_epik_Tot_abs_Q>
2

> <r_epik_Metal_State_Penalty>
3.98724

> <b_epik_Metal_Only>
0

> <s_lp_Force_Field>
OPLS_2005

> <r_lp_Energy>
24.5109

> <b_lp_Chiralities_Consistent>
1

> <s_lp_Variant>
AV-unprocessed.smi:3125-1

> <Gold.Version>
5.8.1

> <Gold.Id.Protein>
6NUR|6NUR_protein|mol2

> <Gold.PLP.Fitness>
38.9546

> <Gold.PLP.PLP>
-28.7270

> <Gold.PLP.part.hbond>
-3.0000

> <Gold.PLP.part.metal>
0.0000

> <Gold.PLP.part.buried>
-1.6327

> <Gold.PLP.part.nonpolar>
-23.4141

> <Gold.PLP.part.repulsive>
0.1360

> <Gold.PLP.ligand.clash>
0.1068

> <Gold.PLP.ligand.torsion>
0.3758

> <Gold.PLP.Chemscore.Hbond>
3.6880

> <Gold.PLP.Chemscore.CHOScore>
0.0000

> <Gold.PLP.Chemscore.Metal>
0.0000

> <Gold.Chemscore.Hbonds>
donor molecule, donor type, donor heavy atom, donor atom, acceptor molecule, acceptor atom, score
      L1  H     5    29       P1  8028  1.19
      L1  H    11    25       P1  7948  1.44
      L1  H    11    28       P1  7957  1.00

> <Gold.PLP.Chemscore.Internal.Correction>
0.0220

> <Gold.Rescore>
     Score         DG    S(hbond)    S(metal)    S(lipo)     H(rot)  DE(clash)    DE(int)     intcor
     16.03     -17.95       2.51        0.00      56.90       1.00       0.01       1.91       ----

> <Gold.Chemscore.Fitness>
16.0272

> <Gold.Chemscore.DG>
-17.9498

> <Gold.Chemscore.ZeroCoef>
-5.4800

> <Gold.Chemscore.Hbond>
2.5068

> <Gold.Chemscore.Metal>
0.0000

> <Gold.Chemscore.Lipo>
56.8972

> <Gold.Chemscore.Internal_Hbond>
0.0000

> <Gold.Chemscore.DEClash>
0.0127

> <Gold.Chemscore.DEInternal>
1.9100

> <Gold.Chemscore.Rot>
1.0000

> <Gold.Chemscore.Internal.Correction>
   9.000000E+99

> <Gold.Chemscore.Hbonds>
donor molecule, donor type, donor heavy atom, donor atom, acceptor molecule, acceptor atom, score
      L1  H     5    29       P1  8028  0.55
      L1  H    11    25       P1  7948  0.68
      L1  H    11    28       P1  7957  0.96

> <Gold.Chemscore.Hbond.Weighted>
-8.3729

> <Gold.Chemscore.Metal.Weighted>
-0.0000

> <Gold.Chemscore.Lipo.Weighted>
-6.6570

> <Gold.Chemscore.Internal_Hbond.Weighted>
0.0000

> <Gold.Chemscore.DEClash.Weighted>
0.0127

> <Gold.Chemscore.DEInternal.Weighted>
1.9100

> <Gold.Chemscore.Rot.Weighted>
2.5600

> <Gold.Chemscore.Internal.Correction.Weighted>
   9.000000E+99

> <Gold.Protein.RotatedTorsions>
[ 6907 6896 6895 6894 ] final  -52.90 input  -60.11 | X-H torsion
[ 7974 7965 7964 7962 ] final  -60.28 input  175.53 | X-H torsion
[ 8008 7997 7996 7995 ] final -121.99 input   59.86 | X-H torsion
[ 10167 10162 10161 10158 ] final    4.68 input  -65.29 | X-H torsion
[ 10718 10713 10712 10709 ] final  159.28 input   66.30 | X-H torsion
[ 10763 10752 10751 10750 ] final   65.00 input  -60.55 | X-H torsion
[ 11005 11000 10999 10996 ] final -159.23 input  -57.11 | X-H torsion

> <Gold.Protein.ActiveResidues>
 VAL166  LYS551  ARG553  GLY616  TRP617  ASP618  TYR619  PRO620  LYS621  CYS622 
 ASP623  PHE694  ASN695  SER759  ASP760  ASP761  ALA762  ILE779  LEU786  VAL792 
 PHE793  MET794  SER795  GLU796  ALA797  LYS798  CYS799  TRP800  GLU811  SER814 

> <Gold.Protein.RotatedAtoms>
  150.8475  134.7789  159.6982 H   0  0  0  0  0  0  0  0  0  0  0  0  # atno 6907 bound_to 6896
  152.4548  134.5311  159.9821 H   0  0  0  0  0  0  0  0  0  0  0  0  # atno 6908 bound_to 6896
  151.5439  133.3390  159.2976 H   0  0  0  0  0  0  0  0  0  0  0  0  # atno 6909 bound_to 6896
  145.8174  140.8561  143.0150 H   0  0  0  0  0  0  0  0  0  0  0  0  # atno 7974 bound_to 7965
  155.1570  140.0405  157.2834 H   0  0  0  0  0  0  0  0  0  0  0  0  # atno 8008 bound_to 7997
  154.6364  140.2536  155.7347 H   0  0  0  0  0  0  0  0  0  0  0  0  # atno 8009 bound_to 7997
  156.2510  140.2865  156.0738 H   0  0  0  0  0  0  0  0  0  0  0  0  # atno 8010 bound_to 7997
  140.6522  143.7517  150.7593 H   0  0  0  0  0  0  0  0  0  0  0  0  # atno 10167 bound_to 10162
  157.1664  131.0599  151.2206 H   0  0  0  0  0  0  0  0  0  0  0  0  # atno 10718 bound_to 10713
  153.0078  135.5373  154.6598 H   0  0  0  0  0  0  0  0  0  0  0  0  # atno 10763 bound_to 10752
  154.5809  135.2850  155.0735 H   0  0  0  0  0  0  0  0  0  0  0  0  # atno 10764 bound_to 10752
  154.1865  135.6507  153.5101 H   0  0  0  0  0  0  0  0  0  0  0  0  # atno 10765 bound_to 10752
  140.6448  134.4512  157.5234 H   0  0  0  0  0  0  0  0  0  0  0  0  # atno 11005 bound_to 11000
  144.6751  140.0484  143.7479 LP  0  0  0  0  0  0  0  0  0  0  0  0  # atno 17320 bound_to 7965
  145.9712  139.2871  143.1098 LP  0  0  0  0  0  0  0  0  0  0  0  0  # atno 17321 bound_to 7965
  140.1170  143.4647  152.2336 LP  0  0  0  0  0  0  0  0  0  0  0  0  # atno 17342 bound_to 10162
  139.5739  144.7477  151.3818 LP  0  0  0  0  0  0  0  0  0  0  0  0  # atno 17343 bound_to 10162
  157.4085  130.7372  149.6820 LP  0  0  0  0  0  0  0  0  0  0  0  0  # atno 17370 bound_to 10713
  155.9745  130.4102  150.3916 LP  0  0  0  0  0  0  0  0  0  0  0  0  # atno 17371 bound_to 10713
  139.9067  134.8434  156.1681 LP  0  0  0  0  0  0  0  0  0  0  0  0  # atno 17394 bound_to 11000
  141.0580  133.6856  156.1897 LP  0  0  0  0  0  0  0  0  0  0  0  0  # atno 17395 bound_to 11000

$$$$
