AV-unprocessed.smi:290|AV-procd|sdf|2224|dock1
  -GOLD-   2262022 73D 1   1.00000     0.00000
 Structure written by MMmdl.
 59 62  0  0  0  0  0  0  0  0  2 V2000
  151.7898  144.9507  159.6375 C   0  0  0  0  0  0  0  0  0  0  0  0
  152.5618  143.6731  159.2734 C   0  0  1  0  0  0  0  0  0  0  0  0
  153.1771  143.0948  160.4234 O   0  0  0  0  0  0  0  0  0  0  0  0
  152.9578  141.6893  160.4515 C   0  0  0  0  0  0  0  0  0  0  0  0
  152.5341  141.3188  159.0342 C   0  0  0  0  0  0  0  0  0  0  0  0
  151.7507  142.5469  158.5919 C   0  0  1  0  0  0  0  0  0  0  0  0
  150.4479  142.4713  159.1470 O   0  0  0  0  0  0  0  0  0  0  0  0
  151.5572  142.6858  157.0592 C   0  0  0  0  0  0  0  0  0  0  0  0
  150.7245  141.6611  156.4481 N   0  0  0  0  0  0  0  0  0  0  0  0
  149.3478  141.6299  156.4028 C   0  0  0  0  0  0  0  0  0  0  0  0
  148.8321  140.5996  155.7885 N   0  0  0  0  0  0  0  0  0  0  0  0
  149.9384  139.8758  155.3644 C   0  0  0  0  0  0  0  0  0  0  0  0
  150.1061  138.6672  154.6410 C   0  0  0  0  0  0  0  0  0  0  0  0
  149.0458  137.9476  154.2115 N   0  0  0  0  0  0  0  0  0  0  0  0
  147.8248  138.7216  154.0493 C   0  0  0  0  0  0  0  0  0  0  0  0
  146.6893  137.6972  153.9306 C   0  0  0  0  0  0  0  0  0  0  0  0
  147.2770  136.3806  154.4835 C   0  0  1  0  0  0  0  0  0  0  0  0
  147.2767  135.2356  153.5196 N   0  3  2  0  0  0  0  0  0  0  0  0
  146.1588  135.2180  152.5410 C   0  0  0  0  0  0  0  0  0  0  0  0
  147.4714  133.9135  154.1676 C   0  0  0  0  0  0  0  0  0  0  0  0
  147.4027  132.7564  153.1568 C   0  0  0  0  0  0  0  0  0  0  0  0
  148.4748  132.8514  152.2431 O   0  0  0  0  0  0  0  0  0  0  0  0
  148.6769  136.7760  154.9945 C   0  0  1  0  0  0  0  0  0  0  0  0
  149.7491  135.6681  155.0242 C   0  0  0  0  0  0  0  0  0  0  0  0
  151.3733  138.2454  154.3888 N   0  0  0  0  0  0  0  0  0  0  0  0
  152.4133  138.9662  154.8201 C   0  0  0  0  0  0  0  0  0  0  0  0
  152.4081  140.1118  155.5056 N   0  0  0  0  0  0  0  0  0  0  0  0
  151.1359  140.5326  155.7603 C   0  0  0  0  0  0  0  0  0  0  0  0
  146.7008  136.0787  155.3580 H   0  0  0  0  0  0  0  0  0  0  0  0
  148.5418  137.1099  156.0251 H   0  0  0  0  0  0  0  0  0  0  0  0
  151.3171  145.3862  158.7570 H   0  0  0  0  0  0  0  0  0  0  0  0
  152.4613  145.6996  160.0571 H   0  0  0  0  0  0  0  0  0  0  0  0
  151.0132  144.7565  160.3775 H   0  0  0  0  0  0  0  0  0  0  0  0
  153.3974  143.9541  158.6341 H   0  0  0  0  0  0  0  0  0  0  0  0
  153.8490  141.1524  160.7770 H   0  0  0  0  0  0  0  0  0  0  0  0
  152.1558  141.4742  161.1587 H   0  0  0  0  0  0  0  0  0  0  0  0
  153.4303  141.1885  158.4289 H   0  0  0  0  0  0  0  0  0  0  0  0
  151.9618  140.3917  158.9870 H   0  0  0  0  0  0  0  0  0  0  0  0
  150.5240  142.3034  160.0737 H   0  0  0  0  0  0  0  0  0  0  0  0
  151.1182  143.6568  156.8260 H   0  0  0  0  0  0  0  0  0  0  0  0
  152.5280  142.6679  156.5613 H   0  0  0  0  0  0  0  0  0  0  0  0
  148.7333  142.3993  156.8476 H   0  0  0  0  0  0  0  0  0  0  0  0
  147.6611  139.3647  154.9157 H   0  0  0  0  0  0  0  0  0  0  0  0
  147.8823  139.3579  153.1654 H   0  0  0  0  0  0  0  0  0  0  0  0
  145.8269  138.0192  154.5149 H   0  0  0  0  0  0  0  0  0  0  0  0
  146.3483  137.6168  152.9002 H   0  0  0  0  0  0  0  0  0  0  0  0
  145.2294  134.8665  152.9885 H   0  0  0  0  0  0  0  0  0  0  0  0
  146.4000  134.5414  151.7209 H   0  0  0  0  0  0  0  0  0  0  0  0
  145.9766  136.1990  152.1046 H   0  0  0  0  0  0  0  0  0  0  0  0
  148.4255  133.9025  154.6963 H   0  0  0  0  0  0  0  0  0  0  0  0
  146.7045  133.7504  154.9270 H   0  0  0  0  0  0  0  0  0  0  0  0
  147.4225  131.7816  153.6431 H   0  0  0  0  0  0  0  0  0  0  0  0
  146.4698  132.8110  152.5953 H   0  0  0  0  0  0  0  0  0  0  0  0
  148.5023  132.0601  151.7261 H   0  0  0  0  0  0  0  0  0  0  0  0
  149.3957  134.8008  155.5823 H   0  0  0  0  0  0  0  0  0  0  0  0
  150.6592  136.0185  155.5119 H   0  0  0  0  0  0  0  0  0  0  0  0
  150.0274  135.3332  154.0256 H   0  0  0  0  0  0  0  0  0  0  0  0
  153.3892  138.5677  154.5849 H   0  0  0  0  0  0  0  0  0  0  0  0
  148.1066  135.3663  152.9581 H   0  0  0  0  0  0  0  0  0  0  0  0
  1  2  1  0  0  0  0
  1 31  1  0  0  0  0
  1 32  1  0  0  0  0
  1 33  1  0  0  0  0
  2  6  1  0  0  0  0
  2  3  1  0  0  0  0
  2 34  1  0  0  0  0
  3  4  1  0  0  0  0
  4  5  1  0  0  0  0
  4 35  1  0  0  0  0
  4 36  1  0  0  0  0
  5  6  1  0  0  0  0
  5 37  1  0  0  0  0
  5 38  1  0  0  0  0
  6  7  1  0  0  0  0
  6  8  1  0  0  0  0
  7 39  1  0  0  0  0
  8  9  1  0  0  0  0
  8 40  1  0  0  0  0
  8 41  1  0  0  0  0
  9 28  1  0  0  0  0
  9 10  1  0  0  0  0
 10 11  2  0  0  0  0
 10 42  1  0  0  0  0
 11 12  1  0  0  0  0
 12 28  2  0  0  0  0
 12 13  1  0  0  0  0
 13 14  1  0  0  0  0
 13 25  2  0  0  0  0
 14 23  1  0  0  0  0
 14 15  1  0  0  0  0
 15 16  1  0  0  0  0
 15 43  1  0  0  0  0
 15 44  1  0  0  0  0
 16 17  1  0  0  0  0
 16 45  1  0  0  0  0
 16 46  1  0  0  0  0
 17 29  1  0  0  0  0
 17 18  1  0  0  0  0
 17 23  1  0  0  0  0
 18 19  1  0  0  0  0
 18 20  1  0  0  0  0
 18 59  1  0  0  0  0
 19 47  1  0  0  0  0
 19 48  1  0  0  0  0
 19 49  1  0  0  0  0
 20 21  1  0  0  0  0
 20 50  1  0  0  0  0
 20 51  1  0  0  0  0
 21 22  1  0  0  0  0
 21 52  1  0  0  0  0
 21 53  1  0  0  0  0
 22 54  1  0  0  0  0
 23 30  1  0  0  0  0
 23 24  1  0  0  0  0
 24 55  1  0  0  0  0
 24 56  1  0  0  0  0
 24 57  1  0  0  0  0
 25 26  1  0  0  0  0
 26 27  2  0  0  0  0
 26 58  1  0  0  0  0
 27 28  1  0  0  0  0
M  CHG  1  18   1
M  END
> <s_m_source_file>
AV-unprocessed.smi

> <i_m_source_file_index>
290

> <i_lp_mmshare_version>
43012

> <i_f3d_flags>
0

> <s_epik_input>
W0NIMl0xW0NIMl1PW0NAQEhdKFtDSDNdKVtDQEBdMShbT0hdKVtDSDJdbihbY0hdbjIpYyhjMjMpbltjSF1uYzNONFtDSDJdW0NIMl1bQ0BIXShbQ0BIXTRbQ0gzXSlOKFtDSDNdKVtDSDJdW0NIMl1bT0hd

> <s_epik_cmdline>
J2VwaWtfcHl0aG9uJywgJy1waCcsICc3LjAnLCAnLXRuJywgJzgnLCAnLW1hJywgJzIwMCcsICctbWV0YWxfYmluZGluZycsICctaW1hZScsICc8aW5maWxlLm1hZT4nLCAnLW9tYWUnLCAnPG91dGZpbGUubWFlPic=

> <r_lp_tautomer_probability>
1

> <r_epik_Ionization_Penalty>
0.0036983

> <r_epik_Ionization_Penalty_Charging>
0.0032725

> <r_epik_Ionization_Penalty_Neutral>
0.000425798

> <r_epik_State_Penalty>
-0

> <r_epik_Charging_Adjusted_Penalty>
0.0032725

> <i_epik_Tot_Q>
1

> <i_epik_Tot_abs_Q>
1

> <r_epik_Metal_State_Penalty>
-0

> <b_epik_Metal_Only>
0

> <s_lp_Force_Field>
OPLS_2005

> <r_lp_Energy>
72.0744

> <b_lp_Chiralities_Consistent>
1

> <s_lp_Variant>
AV-unprocessed.smi:290-10

> <Gold.Version>
5.8.1

> <Gold.Id.Protein>
6NUR|6NUR_protein|mol2

> <Gold.PLP.Fitness>
53.7376

> <Gold.PLP.PLP>
-42.3227

> <Gold.PLP.part.hbond>
-4.7011

> <Gold.PLP.part.metal>
0.0000

> <Gold.PLP.part.buried>
-2.4001

> <Gold.PLP.part.nonpolar>
-36.0252

> <Gold.PLP.part.repulsive>
1.8023

> <Gold.PLP.ligand.clash>
0.2235

> <Gold.PLP.ligand.torsion>
1.4597

> <Gold.PLP.Chemscore.Hbond>
3.9913

> <Gold.PLP.Chemscore.CHOScore>
0.7524

> <Gold.PLP.Chemscore.Metal>
0.0000

> <Gold.Chemscore.Hbonds>
donor molecule, donor type, donor heavy atom, donor atom, acceptor molecule, acceptor atom, score
      L1  H    18    59       P1  7948  2.00
      L1  H    22    54       P1 10747  1.00
      P1  H  7997  8008       L1    27  0.96
      L1  C    10    42       P1  8028  0.57

> <Gold.PLP.Chemscore.Internal.Correction>
0.3271

> <Gold.Rescore>
     Score         DG    S(hbond)    S(metal)    S(lipo)     H(rot)  DE(clash)    DE(int)     intcor
     10.29     -14.96       2.44        0.00      91.62       3.67       0.93       3.74       ----

> <Gold.Chemscore.Fitness>
10.2891

> <Gold.Chemscore.DG>
-14.9588

> <Gold.Chemscore.ZeroCoef>
-5.4800

> <Gold.Chemscore.Hbond>
2.4382

> <Gold.Chemscore.Metal>
0.0000

> <Gold.Chemscore.Lipo>
91.6215

> <Gold.Chemscore.Internal_Hbond>
0.0000

> <Gold.Chemscore.DEClash>
0.9286

> <Gold.Chemscore.DEInternal>
3.7411

> <Gold.Chemscore.Rot>
3.6658

> <Gold.Chemscore.Internal.Correction>
   9.000000E+99

> <Gold.Chemscore.Hbonds>
donor molecule, donor type, donor heavy atom, donor atom, acceptor molecule, acceptor atom, score
      L1  H    18    59       P1  7948  0.94
      L1  H    22    54       P1 10747  0.98
      P1  H  7997  8008       L1    27  0.23

> <Gold.Chemscore.Hbond.Weighted>
-8.1435

> <Gold.Chemscore.Metal.Weighted>
-0.0000

> <Gold.Chemscore.Lipo.Weighted>
-10.7197

> <Gold.Chemscore.Internal_Hbond.Weighted>
0.0000

> <Gold.Chemscore.DEClash.Weighted>
0.9286

> <Gold.Chemscore.DEInternal.Weighted>
3.7411

> <Gold.Chemscore.Rot.Weighted>
9.3844

> <Gold.Chemscore.Internal.Correction.Weighted>
   9.000000E+99

> <Gold.Protein.RotatedTorsions>
[ 6907 6896 6895 6894 ] final -118.54 input  -60.11 | X-H torsion
[ 7974 7965 7964 7962 ] final -122.13 input  175.53 | X-H torsion
[ 8008 7997 7996 7995 ] final  -27.76 input   59.86 | X-H torsion
[ 10167 10162 10161 10158 ] final   52.11 input  -65.29 | X-H torsion
[ 10718 10713 10712 10709 ] final -154.82 input   66.30 | X-H torsion
[ 10763 10752 10751 10750 ] final   75.76 input  -60.55 | X-H torsion
[ 11005 11000 10999 10996 ] final  -13.45 input  -57.11 | X-H torsion

> <Gold.Protein.ActiveResidues>
 VAL166  LYS551  ARG553  GLY616  TRP617  ASP618  TYR619  PRO620  LYS621  CYS622 
 ASP623  PHE694  ASN695  SER759  ASP760  ASP761  ALA762  ILE779  LEU786  VAL792 
 PHE793  MET794  SER795  GLU796  ALA797  LYS798  CYS799  TRP800  GLU811  SER814 

> <Gold.Protein.RotatedAtoms>
  150.8229  133.8222  159.3131 H   0  0  0  0  0  0  0  0  0  0  0  0  # atno 6907 bound_to 6896
  151.5975  135.1048  160.0062 H   0  0  0  0  0  0  0  0  0  0  0  0  # atno 6908 bound_to 6896
  152.4316  133.7247  159.6610 H   0  0  0  0  0  0  0  0  0  0  0  0  # atno 6909 bound_to 6896
  145.0328  140.8082  143.4313 H   0  0  0  0  0  0  0  0  0  0  0  0  # atno 7974 bound_to 7965
  154.4363  140.1863  156.0982 H   0  0  0  0  0  0  0  0  0  0  0  0  # atno 8008 bound_to 7997
  156.0312  140.3330  155.7116 H   0  0  0  0  0  0  0  0  0  0  0  0  # atno 8009 bound_to 7997
  155.5836  140.0624  157.2767 H   0  0  0  0  0  0  0  0  0  0  0  0  # atno 8010 bound_to 7997
  140.2548  144.3439  150.6336 H   0  0  0  0  0  0  0  0  0  0  0  0  # atno 10167 bound_to 10162
  156.5044  130.8406  151.2622 H   0  0  0  0  0  0  0  0  0  0  0  0  # atno 10718 bound_to 10713
  153.0677  135.4976  154.8237 H   0  0  0  0  0  0  0  0  0  0  0  0  # atno 10763 bound_to 10752
  154.6978  135.2996  154.9388 H   0  0  0  0  0  0  0  0  0  0  0  0  # atno 10764 bound_to 10752
  154.0122  135.6753  153.4819 H   0  0  0  0  0  0  0  0  0  0  0  0  # atno 10765 bound_to 10752
  140.7762  133.8399  155.9251 H   0  0  0  0  0  0  0  0  0  0  0  0  # atno 11005 bound_to 11000
  145.1748  139.2384  143.5323 LP  0  0  0  0  0  0  0  0  0  0  0  0  # atno 17320 bound_to 7965
  146.3500  140.1508  142.8592 LP  0  0  0  0  0  0  0  0  0  0  0  0  # atno 17321 bound_to 7965
  140.6012  143.2167  151.7068 LP  0  0  0  0  0  0  0  0  0  0  0  0  # atno 17342 bound_to 10162
  139.5035  144.3789  152.0396 LP  0  0  0  0  0  0  0  0  0  0  0  0  # atno 17343 bound_to 10162
  157.7459  130.9970  150.2802 LP  0  0  0  0  0  0  0  0  0  0  0  0  # atno 17370 bound_to 10713
  156.3301  130.3799  149.7499 LP  0  0  0  0  0  0  0  0  0  0  0  0  # atno 17371 bound_to 10713
  140.9527  134.1758  157.4716 LP  0  0  0  0  0  0  0  0  0  0  0  0  # atno 17394 bound_to 11000
  139.8749  134.9915  156.5552 LP  0  0  0  0  0  0  0  0  0  0  0  0  # atno 17395 bound_to 11000

$$$$
