AV-unprocessed.smi:1405|AV-procd|sdf|5707|dock7
  -GOLD-   22720 5343D 1   1.00000     0.00000
 Structure written by MMmdl.
 49 52  0  0  0  0  0  0  0  0  1 V2000
  155.1770  138.4456  158.3973 O   0  0  0  0  0  0  0  0  0  0  0  0
  154.9957  138.5015  159.6131 C   0  0  0  0  0  0  0  0  0  0  0  0
  155.2692  137.2512  160.4675 C   0  0  0  0  0  0  0  0  0  0  0  0
  155.2143  137.4711  161.9225 N   0  0  0  0  0  0  0  0  0  0  0  0
  154.3300  136.7431  162.7063 C   0  0  0  0  0  0  0  0  0  0  0  0
  154.2295  136.8890  164.0488 C   0  0  0  0  0  0  0  0  0  0  0  0
  155.0733  137.8486  164.7529 C   0  0  0  0  0  0  0  0  0  0  0  0
  155.0564  138.0528  165.9646 O   0  0  0  0  0  0  0  0  0  0  0  0
  155.9502  138.5607  163.9305 N   0  0  0  0  0  0  0  0  0  0  0  0
  156.0598  138.4148  162.5467 C   0  0  0  0  0  0  0  0  0  0  0  0
  156.8737  139.0886  161.9165 O   0  0  0  0  0  0  0  0  0  0  0  0
  154.5625  139.6131  160.2321 N   0  0  0  0  0  0  0  0  0  0  0  0
  154.2299  140.8698  159.5737 C   0  0  0  0  0  0  0  0  0  0  0  0
  153.5179  141.8337  160.5456 C   0  0  0  0  0  0  0  0  0  0  0  0
  152.6236  142.9235  159.9009 C   0  0  0  0  0  0  0  0  0  0  0  0
  153.4588  143.9289  159.0621 C   0  0  0  0  0  0  0  0  0  0  0  0
  152.5349  144.9676  158.3894 C   0  0  2  0  0  0  0  0  0  0  0  0
  151.7552  145.7430  159.4724 C   0  0  0  0  0  0  0  0  0  0  0  0
  150.8996  144.7528  160.2910 C   0  0  1  0  0  0  0  0  0  0  0  0
  149.9037  144.0348  159.3576 C   0  0  0  0  0  0  0  0  0  0  0  0
  150.6895  143.2650  158.2765 C   0  0  1  0  0  0  0  0  0  0  0  0
  151.5428  144.2500  157.4515 C   0  0  0  0  0  0  0  0  0  0  0  0
  151.6107  142.2274  158.9515 C   0  0  0  0  0  0  0  0  0  0  0  0
  151.8190  143.7134  160.9688 C   0  0  0  0  0  0  0  0  0  0  0  0
  156.5556  139.2362  164.3741 H   0  0  0  0  0  0  0  0  0  0  0  0
  154.5647  136.4696  160.1768 H   0  0  0  0  0  0  0  0  0  0  0  0
  156.2498  136.8631  160.1881 H   0  0  0  0  0  0  0  0  0  0  0  0
  153.6873  136.0178  162.2274 H   0  0  0  0  0  0  0  0  0  0  0  0
  153.5214  136.2918  164.6050 H   0  0  0  0  0  0  0  0  0  0  0  0
  154.4387  139.5766  161.2335 H   0  0  0  0  0  0  0  0  0  0  0  0
  155.1634  141.3038  159.2175 H   0  0  0  0  0  0  0  0  0  0  0  0
  153.6207  140.6691  158.6923 H   0  0  0  0  0  0  0  0  0  0  0  0
  152.9088  141.2475  161.2354 H   0  0  0  0  0  0  0  0  0  0  0  0
  154.2748  142.3189  161.1641 H   0  0  0  0  0  0  0  0  0  0  0  0
  154.1794  144.4525  159.6900 H   0  0  0  0  0  0  0  0  0  0  0  0
  154.0396  143.4004  158.3047 H   0  0  0  0  0  0  0  0  0  0  0  0
  153.1390  145.6662  157.8098 H   0  0  0  0  0  0  0  0  0  0  0  0
  152.4456  146.2770  160.1264 H   0  0  0  0  0  0  0  0  0  0  0  0
  151.1198  146.5004  159.0114 H   0  0  0  0  0  0  0  0  0  0  0  0
  150.3471  145.2990  161.0562 H   0  0  0  0  0  0  0  0  0  0  0  0
  149.2758  143.3502  159.9294 H   0  0  0  0  0  0  0  0  0  0  0  0
  149.2305  144.7570  158.8940 H   0  0  0  0  0  0  0  0  0  0  0  0
  149.9890  142.7523  157.6165 H   0  0  0  0  0  0  0  0  0  0  0  0
  150.9029  144.9767  156.9492 H   0  0  0  0  0  0  0  0  0  0  0  0
  152.0817  143.7183  156.6663 H   0  0  0  0  0  0  0  0  0  0  0  0
  152.1391  141.6549  158.1878 H   0  0  0  0  0  0  0  0  0  0  0  0
  151.0069  141.5071  159.5056 H   0  0  0  0  0  0  0  0  0  0  0  0
  151.2246  143.0304  161.5771 H   0  0  0  0  0  0  0  0  0  0  0  0
  152.4901  144.2305  161.6547 H   0  0  0  0  0  0  0  0  0  0  0  0
  1  2  2  0  0  0  0
  2  3  1  0  0  0  0
  2 12  1  0  0  0  0
  3  4  1  0  0  0  0
  3 26  1  0  0  0  0
  3 27  1  0  0  0  0
  4 10  1  0  0  0  0
  4  5  1  0  0  0  0
  5  6  2  0  0  0  0
  5 28  1  0  0  0  0
  6  7  1  0  0  0  0
  6 29  1  0  0  0  0
  7  8  2  0  0  0  0
  7  9  1  0  0  0  0
  9 25  1  0  0  0  0
  9 10  1  0  0  0  0
 10 11  2  0  0  0  0
 12 13  1  0  0  0  0
 12 30  1  0  0  0  0
 13 14  1  0  0  0  0
 13 31  1  0  0  0  0
 13 32  1  0  0  0  0
 14 15  1  0  0  0  0
 14 33  1  0  0  0  0
 14 34  1  0  0  0  0
 15 23  1  0  0  0  0
 15 24  1  0  0  0  0
 15 16  1  0  0  0  0
 16 17  1  0  0  0  0
 16 35  1  0  0  0  0
 16 36  1  0  0  0  0
 17 22  1  0  0  0  0
 17 18  1  0  0  0  0
 17 37  1  0  0  0  0
 18 19  1  0  0  0  0
 18 38  1  0  0  0  0
 18 39  1  0  0  0  0
 19 20  1  0  0  0  0
 19 24  1  0  0  0  0
 19 40  1  0  0  0  0
 20 21  1  0  0  0  0
 20 41  1  0  0  0  0
 20 42  1  0  0  0  0
 21 22  1  0  0  0  0
 21 23  1  0  0  0  0
 21 43  1  0  0  0  0
 22 44  1  0  0  0  0
 22 45  1  0  0  0  0
 23 46  1  0  0  0  0
 23 47  1  0  0  0  0
 24 48  1  0  0  0  0
 24 49  1  0  0  0  0
M  END
> <s_m_source_file>
AV-unprocessed.smi

> <i_m_source_file_index>
1405

> <i_lp_mmshare_version>
43012

> <i_f3d_flags>
0

> <s_epik_input>
Tz1jMVtuSF1jKD1PKVtjSF1bY0hdbjFbQ0gyXUMoPU8pW05IXVtDSDJdW0NIMl1DMjNbQ0gyXVtDQEBIXTRbQ0gyXVtDQEhdKFtDSDJdMylbQ0gyXVtDQEBIXShbQ0gyXTQpW0NIMl0y

> <s_epik_cmdline>
J2VwaWtfcHl0aG9uJywgJy1waCcsICc3LjAnLCAnLXRuJywgJzgnLCAnLW1hJywgJzIwMCcsICctbWV0YWxfYmluZGluZycsICctaW1hZScsICc8aW5maWxlLm1hZT4nLCAnLW9tYWUnLCAnPG91dGZpbGUubWFlPic=

> <r_lp_tautomer_probability>
0.999537

> <r_epik_Ionization_Penalty>
0.00301971

> <r_epik_Ionization_Penalty_Charging>
0.00301969

> <r_epik_Ionization_Penalty_Neutral>
2.18059e-08

> <r_epik_State_Penalty>
0.00212114

> <r_epik_Charging_Adjusted_Penalty>
0.00514083

> <i_epik_Tot_Q>
0

> <i_epik_Tot_abs_Q>
0

> <r_epik_Metal_State_Penalty>
0.361473

> <b_epik_Metal_Only>
0

> <s_lp_Force_Field>
OPLS_2005

> <r_lp_Energy>
33.2851

> <b_lp_Chiralities_Consistent>
1

> <s_lp_Variant>
AV-unprocessed.smi:1405-1

> <Gold.Version>
5.8.1

> <Gold.Id.Protein>
6NUR|6NUR_protein|mol2

> <Gold.PLP.Fitness>
51.0556

> <Gold.PLP.PLP>
-50.0513

> <Gold.PLP.part.hbond>
-1.0626

> <Gold.PLP.part.metal>
0.0000

> <Gold.PLP.part.buried>
-3.8921

> <Gold.PLP.part.nonpolar>
-44.1835

> <Gold.PLP.part.repulsive>
0.1810

> <Gold.PLP.ligand.clash>
0.0000

> <Gold.PLP.ligand.torsion>
0.2866

> <Gold.PLP.Chemscore.Hbond>
0.5200

> <Gold.PLP.Chemscore.CHOScore>
0.0000

> <Gold.PLP.Chemscore.Metal>
0.0000

> <Gold.Chemscore.Hbonds>
donor molecule, donor type, donor heavy atom, donor atom, acceptor molecule, acceptor atom, score
      P1  H  7997  8008       L1     1  1.00

> <Gold.PLP.Chemscore.Internal.Correction>
0.0174

> <Gold.Rescore>
     Score         DG    S(hbond)    S(metal)    S(lipo)     H(rot)  DE(clash)    DE(int)     intcor
     19.86     -20.30       0.92        0.00     148.02       2.18       0.11       0.32       ----

> <Gold.Chemscore.Fitness>
19.8634

> <Gold.Chemscore.DG>
-20.2989

> <Gold.Chemscore.ZeroCoef>
-5.4800

> <Gold.Chemscore.Hbond>
0.9223

> <Gold.Chemscore.Metal>
0.0000

> <Gold.Chemscore.Lipo>
148.0209

> <Gold.Chemscore.Internal_Hbond>
0.0000

> <Gold.Chemscore.DEClash>
0.1116

> <Gold.Chemscore.DEInternal>
0.3239

> <Gold.Chemscore.Rot>
2.1797

> <Gold.Chemscore.Internal.Correction>
   9.000000E+99

> <Gold.Chemscore.Hbonds>
donor molecule, donor type, donor heavy atom, donor atom, acceptor molecule, acceptor atom, score
      P1  H  7997  8008       L1     1  0.96

> <Gold.Chemscore.Hbond.Weighted>
-3.0804

> <Gold.Chemscore.Metal.Weighted>
-0.0000

> <Gold.Chemscore.Lipo.Weighted>
-17.3184

> <Gold.Chemscore.Internal_Hbond.Weighted>
0.0000

> <Gold.Chemscore.DEClash.Weighted>
0.1116

> <Gold.Chemscore.DEInternal.Weighted>
0.3239

> <Gold.Chemscore.Rot.Weighted>
5.5799

> <Gold.Chemscore.Internal.Correction.Weighted>
   9.000000E+99

> <Gold.Protein.RotatedTorsions>
[ 6907 6896 6895 6894 ] final  -40.75 input  -60.11 | X-H torsion
[ 7974 7965 7964 7962 ] final  144.72 input  175.53 | X-H torsion
[ 8008 7997 7996 7995 ] final -127.04 input   59.86 | X-H torsion
[ 10167 10162 10161 10158 ] final  -42.29 input  -65.29 | X-H torsion
[ 10718 10713 10712 10709 ] final   -7.12 input   66.30 | X-H torsion
[ 10763 10752 10751 10750 ] final  -75.64 input  -60.55 | X-H torsion
[ 11005 11000 10999 10996 ] final -143.83 input  -57.11 | X-H torsion

> <Gold.Protein.ActiveResidues>
 VAL166  LYS551  ARG553  GLY616  TRP617  ASP618  TYR619  PRO620  LYS621  CYS622 
 ASP623  PHE694  ASN695  SER759  ASP760  ASP761  ALA762  ILE779  LEU786  VAL792 
 PHE793  MET794  SER795  GLU796  ALA797  LYS798  CYS799  TRP800  GLU811  SER814 

> <Gold.Protein.RotatedAtoms>
  150.9748  134.9114  159.7808 H   0  0  0  0  0  0  0  0  0  0  0  0  # atno 6907 bound_to 6896
  152.5202  134.3492  159.9255 H   0  0  0  0  0  0  0  0  0  0  0  0  # atno 6908 bound_to 6896
  151.3500  133.3888  159.2714 H   0  0  0  0  0  0  0  0  0  0  0  0  # atno 6909 bound_to 6896
  144.8812  139.5696  143.5842 H   0  0  0  0  0  0  0  0  0  0  0  0  # atno 7974 bound_to 7965
  155.2396  140.0428  157.2973 H   0  0  0  0  0  0  0  0  0  0  0  0  # atno 8008 bound_to 7997
  154.5836  140.2407  155.7988 H   0  0  0  0  0  0  0  0  0  0  0  0  # atno 8009 bound_to 7997
  156.2211  140.2969  155.9962 H   0  0  0  0  0  0  0  0  0  0  0  0  # atno 8010 bound_to 7997
  140.6974  143.3046  151.3188 H   0  0  0  0  0  0  0  0  0  0  0  0  # atno 10167 bound_to 10162
  156.7219  130.5153  149.5866 H   0  0  0  0  0  0  0  0  0  0  0  0  # atno 10718 bound_to 10713
  154.4893  135.5824  153.6447 H   0  0  0  0  0  0  0  0  0  0  0  0  # atno 10763 bound_to 10752
  152.9859  135.6109  154.3146 H   0  0  0  0  0  0  0  0  0  0  0  0  # atno 10764 bound_to 10752
  154.3044  135.2846  155.2575 H   0  0  0  0  0  0  0  0  0  0  0  0  # atno 10765 bound_to 10752
  140.8086  134.2772  157.4950 H   0  0  0  0  0  0  0  0  0  0  0  0  # atno 11005 bound_to 11000
  146.2996  139.7383  142.9101 LP  0  0  0  0  0  0  0  0  0  0  0  0  # atno 17320 bound_to 7965
  145.3951  141.0377  143.3102 LP  0  0  0  0  0  0  0  0  0  0  0  0  # atno 17321 bound_to 7965
  139.6447  144.0474  152.2581 LP  0  0  0  0  0  0  0  0  0  0  0  0  # atno 17342 bound_to 10162
  139.9991  144.6306  150.7746 LP  0  0  0  0  0  0  0  0  0  0  0  0  # atno 17343 bound_to 10162
  156.1589  130.6360  151.0693 LP  0  0  0  0  0  0  0  0  0  0  0  0  # atno 17370 bound_to 10713
  157.6894  131.0814  150.7149 LP  0  0  0  0  0  0  0  0  0  0  0  0  # atno 17371 bound_to 10713
  139.8716  134.9470  156.3955 LP  0  0  0  0  0  0  0  0  0  0  0  0  # atno 17394 bound_to 11000
  140.9221  133.7637  155.9920 LP  0  0  0  0  0  0  0  0  0  0  0  0  # atno 17395 bound_to 11000

$$$$
