AV-unprocessed.smi:3173|AV-procd|sdf|12119|dock4
  -GOLD-   2272017553D 1   1.00000     0.00000
 Structure written by MMmdl.
 36 37  0  0  0  0  0  0  0  0  2 V2000
  152.8491  140.0004  157.7026 O   0  0  0  0  0  0  0  0  0  0  0  0
  151.7378  140.4294  158.0139 C   0  0  0  0  0  0  0  0  0  0  0  0
  151.5762  141.3644  159.2173 C   0  0  0  0  0  0  0  0  0  0  0  0
  152.4717  142.6184  159.1382 C   0  0  2  0  0  0  0  0  0  0  0  0
  152.4763  143.4009  160.4260 C   0  0  0  0  0  0  0  0  0  0  0  0
  152.2207  144.6947  160.2434 C   0  0  0  0  0  0  0  0  0  0  0  0
  151.9923  145.0375  158.7976 C   0  0  0  0  0  0  0  0  0  0  0  0
  152.0191  143.6669  158.0861 C   0  0  0  0  0  0  0  0  0  0  0  0
  150.6180  140.1242  157.3404 N   0  0  0  0  0  0  0  0  0  0  0  0
  150.5626  139.2786  156.1537 C   0  0  0  0  0  0  0  0  0  0  0  0
  150.4536  140.1173  154.8691 C   0  0  0  0  0  0  0  0  0  0  0  0
  149.0639  140.6907  154.6724 C   0  0  0  0  0  0  0  0  0  0  0  0
  148.4086  141.4282  155.6824 C   0  0  0  0  0  0  0  0  0  0  0  0
  147.1176  141.9394  155.4350 C   0  0  0  0  0  0  0  0  0  0  0  0
  146.5099  141.7034  154.1843 C   0  0  0  0  0  0  0  0  0  0  0  0
  147.2104  140.9622  153.2108 C   0  0  0  0  0  0  0  0  0  0  0  0
  148.4463  140.4898  153.4855 N   0  3  0  0  0  0  0  0  0  0  0  0
  150.5311  141.6644  159.3116 H   0  0  0  0  0  0  0  0  0  0  0  0
  151.8161  140.7969  160.1171 H   0  0  0  0  0  0  0  0  0  0  0  0
  153.5049  142.3250  158.9458 H   0  0  0  0  0  0  0  0  0  0  0  0
  152.6855  142.9382  161.3792 H   0  0  0  0  0  0  0  0  0  0  0  0
  152.1902  145.4403  161.0242 H   0  0  0  0  0  0  0  0  0  0  0  0
  151.0369  145.5463  158.6650 H   0  0  0  0  0  0  0  0  0  0  0  0
  152.7896  145.6917  158.4435 H   0  0  0  0  0  0  0  0  0  0  0  0
  152.6828  143.6760  157.2207 H   0  0  0  0  0  0  0  0  0  0  0  0
  151.0183  143.4367  157.7178 H   0  0  0  0  0  0  0  0  0  0  0  0
  149.7458  140.5141  157.6681 H   0  0  0  0  0  0  0  0  0  0  0  0
  151.4420  138.6332  156.1156 H   0  0  0  0  0  0  0  0  0  0  0  0
  149.6983  138.6204  156.2456 H   0  0  0  0  0  0  0  0  0  0  0  0
  151.1753  140.9349  154.8934 H   0  0  0  0  0  0  0  0  0  0  0  0
  150.7081  139.5107  153.9989 H   0  0  0  0  0  0  0  0  0  0  0  0
  148.8889  141.6019  156.6347 H   0  0  0  0  0  0  0  0  0  0  0  0
  146.6002  142.5061  156.1954 H   0  0  0  0  0  0  0  0  0  0  0  0
  145.5213  142.0857  153.9753 H   0  0  0  0  0  0  0  0  0  0  0  0
  146.8230  140.7350  152.2283 H   0  0  0  0  0  0  0  0  0  0  0  0
  148.9344  139.9563  152.7657 H   0  0  0  0  0  0  0  0  0  0  0  0
  1  2  2  0  0  0  0
  2  3  1  0  0  0  0
  2  9  1  0  0  0  0
  3  4  1  0  0  0  0
  3 18  1  0  0  0  0
  3 19  1  0  0  0  0
  4  8  1  0  0  0  0
  4  5  1  0  0  0  0
  4 20  1  0  0  0  0
  5  6  2  0  0  0  0
  5 21  1  0  0  0  0
  6  7  1  0  0  0  0
  6 22  1  0  0  0  0
  7  8  1  0  0  0  0
  7 23  1  0  0  0  0
  7 24  1  0  0  0  0
  8 25  1  0  0  0  0
  8 26  1  0  0  0  0
  9 10  1  0  0  0  0
  9 27  1  0  0  0  0
 10 11  1  0  0  0  0
 10 28  1  0  0  0  0
 10 29  1  0  0  0  0
 11 12  1  0  0  0  0
 11 30  1  0  0  0  0
 11 31  1  0  0  0  0
 12 17  1  0  0  0  0
 12 13  2  0  0  0  0
 13 14  1  0  0  0  0
 13 32  1  0  0  0  0
 14 15  2  0  0  0  0
 14 33  1  0  0  0  0
 15 16  1  0  0  0  0
 15 34  1  0  0  0  0
 16 17  2  0  0  0  0
 16 35  1  0  0  0  0
 17 36  1  0  0  0  0
M  CHG  1  17   1
M  END
> <s_m_source_file>
AV-unprocessed.smi

> <i_m_source_file_index>
3173

> <i_lp_mmshare_version>
43012

> <i_f3d_flags>
0

> <s_epik_input>
W0NIMl0xW0NIMl1bQ0hdPVtDSF1bQ0BIXTFbQ0gyXUMoPU8pW05IXVtDSDJdW0NIMl1jMltjSF1bY0hdW2NIXVtjSF1uMg==

> <s_epik_cmdline>
J2VwaWtfcHl0aG9uJywgJy1waCcsICc3LjAnLCAnLXRuJywgJzgnLCAnLW1hJywgJzIwMCcsICctbWV0YWxfYmluZGluZycsICctaW1hZScsICc8aW5maWxlLm1hZT4nLCAnLW9tYWUnLCAnPG91dGZpbGUubWFlPic=

> <r_epik_Ionization_Penalty>
1.86798

> <r_epik_Ionization_Penalty_Charging>
1.86798

> <r_epik_Ionization_Penalty_Neutral>
1.53848e-08

> <r_epik_State_Penalty>
1.98677

> <r_epik_Charging_Adjusted_Penalty>
3.85475

> <i_epik_Tot_Q>
1

> <i_epik_Tot_abs_Q>
1

> <r_epik_Metal_State_Penalty>
2.01174

> <b_epik_Metal_Only>
0

> <s_lp_Force_Field>
OPLS_2005

> <r_lp_Energy>
19.7802

> <b_lp_Chiralities_Consistent>
1

> <s_lp_Variant>
AV-unprocessed.smi:3173-3

> <Gold.Version>
5.8.1

> <Gold.Id.Protein>
6NUR|6NUR_protein|mol2

> <Gold.PLP.Fitness>
44.2227

> <Gold.PLP.PLP>
-38.9906

> <Gold.PLP.part.hbond>
-2.0000

> <Gold.PLP.part.metal>
0.0000

> <Gold.PLP.part.buried>
-2.1319

> <Gold.PLP.part.nonpolar>
-34.5744

> <Gold.PLP.part.repulsive>
0.1732

> <Gold.PLP.ligand.clash>
0.0000

> <Gold.PLP.ligand.torsion>
0.3381

> <Gold.PLP.Chemscore.Hbond>
1.9600

> <Gold.PLP.Chemscore.CHOScore>
0.0000

> <Gold.PLP.Chemscore.Metal>
0.0000

> <Gold.Chemscore.Hbonds>
donor molecule, donor type, donor heavy atom, donor atom, acceptor molecule, acceptor atom, score
      L1  H    17    36       P1  7957  0.88
      P1  H  7997  8008       L1     1  1.00

> <Gold.PLP.Chemscore.Internal.Correction>
0.0282

> <Gold.Rescore>
     Score         DG    S(hbond)    S(metal)    S(lipo)     H(rot)  DE(clash)    DE(int)     intcor
     20.06     -20.57       1.96        0.00     108.22       1.61       0.13       0.38       ----

> <Gold.Chemscore.Fitness>
20.0638

> <Gold.Chemscore.DG>
-20.5738

> <Gold.Chemscore.ZeroCoef>
-5.4800

> <Gold.Chemscore.Hbond>
1.9639

> <Gold.Chemscore.Metal>
0.0000

> <Gold.Chemscore.Lipo>
108.2188

> <Gold.Chemscore.Internal_Hbond>
0.0000

> <Gold.Chemscore.DEClash>
0.1308

> <Gold.Chemscore.DEInternal>
0.3792

> <Gold.Chemscore.Rot>
1.6122

> <Gold.Chemscore.Internal.Correction>
   9.000000E+99

> <Gold.Chemscore.Hbonds>
donor molecule, donor type, donor heavy atom, donor atom, acceptor molecule, acceptor atom, score
      L1  H    17    36       P1  7957  0.87
      P1  H  7997  8008       L1     1  0.97

> <Gold.Chemscore.Hbond.Weighted>
-6.5594

> <Gold.Chemscore.Metal.Weighted>
-0.0000

> <Gold.Chemscore.Lipo.Weighted>
-12.6616

> <Gold.Chemscore.Internal_Hbond.Weighted>
0.0000

> <Gold.Chemscore.DEClash.Weighted>
0.1308

> <Gold.Chemscore.DEInternal.Weighted>
0.3792

> <Gold.Chemscore.Rot.Weighted>
4.1271

> <Gold.Chemscore.Internal.Correction.Weighted>
   9.000000E+99

> <Gold.Protein.RotatedTorsions>
[ 6907 6896 6895 6894 ] final  102.13 input  -60.11 | X-H torsion
[ 7974 7965 7964 7962 ] final -132.75 input  175.53 | X-H torsion
[ 8008 7997 7996 7995 ] final  -63.36 input   59.86 | X-H torsion
[ 10167 10162 10161 10158 ] final  122.67 input  -65.29 | X-H torsion
[ 10718 10713 10712 10709 ] final  -44.07 input   66.30 | X-H torsion
[ 10763 10752 10751 10750 ] final -114.52 input  -60.55 | X-H torsion
[ 11005 11000 10999 10996 ] final -146.00 input  -57.11 | X-H torsion

> <Gold.Protein.ActiveResidues>
 VAL166  LYS551  ARG553  GLY616  TRP617  ASP618  TYR619  PRO620  LYS621  CYS622 
 ASP623  PHE694  ASN695  SER759  ASP760  ASP761  ALA762  ILE779  LEU786  VAL792 
 PHE793  MET794  SER795  GLU796  ALA797  LYS798  CYS799  TRP800  GLU811  SER814 

> <Gold.Protein.RotatedAtoms>
  152.5332  134.0021  159.7899 H   0  0  0  0  0  0  0  0  0  0  0  0  # atno 6907 bound_to 6896
  151.0238  133.5844  159.2675 H   0  0  0  0  0  0  0  0  0  0  0  0  # atno 6908 bound_to 6896
  151.2874  135.0739  159.9245 H   0  0  0  0  0  0  0  0  0  0  0  0  # atno 6909 bound_to 6896
  144.9256  140.7067  143.4938 H   0  0  0  0  0  0  0  0  0  0  0  0  # atno 7974 bound_to 7965
  154.4550  140.0976  156.6730 H   0  0  0  0  0  0  0  0  0  0  0  0  # atno 8008 bound_to 7997
  155.5167  140.3478  155.4380 H   0  0  0  0  0  0  0  0  0  0  0  0  # atno 8009 bound_to 7997
  156.0759  140.1361  156.9761 H   0  0  0  0  0  0  0  0  0  0  0  0  # atno 8010 bound_to 7997
  139.5845  144.7000  151.3444 H   0  0  0  0  0  0  0  0  0  0  0  0  # atno 10167 bound_to 10162
  156.2424  130.4181  149.8745 H   0  0  0  0  0  0  0  0  0  0  0  0  # atno 10718 bound_to 10713
  154.8443  135.4415  154.1518 H   0  0  0  0  0  0  0  0  0  0  0  0  # atno 10763 bound_to 10752
  153.2677  135.6942  153.7519 H   0  0  0  0  0  0  0  0  0  0  0  0  # atno 10764 bound_to 10752
  153.6771  135.3409  155.3144 H   0  0  0  0  0  0  0  0  0  0  0  0  # atno 10765 bound_to 10752
  140.7865  134.3018  157.5028 H   0  0  0  0  0  0  0  0  0  0  0  0  # atno 11005 bound_to 11000
  145.3224  139.1784  143.4580 LP  0  0  0  0  0  0  0  0  0  0  0  0  # atno 17320 bound_to 7965
  146.3224  140.3243  142.8635 LP  0  0  0  0  0  0  0  0  0  0  0  0  # atno 17321 bound_to 7965
  140.7119  143.7369  150.7582 LP  0  0  0  0  0  0  0  0  0  0  0  0  # atno 17342 bound_to 10162
  140.0910  143.4878  152.2479 LP  0  0  0  0  0  0  0  0  0  0  0  0  # atno 17343 bound_to 10162
  156.6322  130.8670  151.3497 LP  0  0  0  0  0  0  0  0  0  0  0  0  # atno 17370 bound_to 10713
  157.7181  130.9522  150.1331 LP  0  0  0  0  0  0  0  0  0  0  0  0  # atno 17371 bound_to 10713
  139.8736  134.9349  156.3620 LP  0  0  0  0  0  0  0  0  0  0  0  0  # atno 17394 bound_to 11000
  140.9431  133.7501  156.0173 LP  0  0  0  0  0  0  0  0  0  0  0  0  # atno 17395 bound_to 11000

$$$$
