AV-unprocessed.smi:1762|AV-procd|sdf|7103|dock2
  -GOLD-   22720 8323D 1   1.00000     0.00000
 Structure written by MMmdl.
 52 53  0  0  0  0  0  0  0  0  1 V2000
  146.9736  134.7073  162.6935 C   0  0  0  0  0  0  0  0  0  0  0  0
  147.2181  136.1775  162.3098 C   0  0  1  0  0  0  0  0  0  0  0  0
  148.3378  136.3596  161.2657 C   0  0  0  0  0  0  0  0  0  0  0  0
  147.9473  135.9472  159.9117 N   0  0  0  0  0  0  0  0  0  0  0  0
  149.0457  136.1002  158.9161 C   0  0  2  0  0  0  0  0  0  0  0  0
  149.1796  137.5427  158.3711 C   0  0  0  0  0  0  0  0  0  0  0  0
  148.2730  138.0440  157.7050 O   0  0  0  0  0  0  0  0  0  0  0  0
  150.3060  138.2031  158.6832 N   0  0  0  0  0  0  0  0  0  0  0  0
  150.6066  139.5770  158.2934 C   0  0  0  0  0  0  0  0  0  0  0  0
  151.7421  140.2026  159.1275 C   0  0  0  0  0  0  0  0  0  0  0  0
  152.0258  141.6546  158.7787 C   0  0  0  0  0  0  0  0  0  0  0  0
  152.9009  142.4240  159.5748 C   0  0  0  0  0  0  0  0  0  0  0  0
  153.1194  143.7704  159.2240 C   0  0  0  0  0  0  0  0  0  0  0  0
  152.4573  144.2942  158.0968 C   0  0  0  0  0  0  0  0  0  0  0  0
  151.6024  143.4443  157.3679 C   0  0  0  0  0  0  0  0  0  0  0  0
  151.3863  142.1527  157.6963 N   0  0  0  0  0  0  0  0  0  0  0  0
  149.0189  135.0664  157.7401 C   0  0  0  0  0  0  0  0  0  0  0  0
  148.8050  133.6107  158.2023 C   0  0  0  0  0  0  0  0  0  0  0  0
  150.2391  135.1581  156.8024 C   0  0  0  0  0  0  0  0  0  0  0  0
  146.7041  136.6489  159.5534 C   0  0  0  0  0  0  0  0  0  0  0  0
  145.5761  136.4316  160.5778 C   0  0  2  0  0  0  0  0  0  0  0  0
  144.3272  137.2553  160.2440 C   0  0  0  0  0  0  0  0  0  0  0  0
  146.0222  136.8188  161.8731 O   0  0  0  0  0  0  0  0  0  0  0  0
  147.8663  134.2691  163.1403 H   0  0  0  0  0  0  0  0  0  0  0  0
  146.7108  134.0953  161.8308 H   0  0  0  0  0  0  0  0  0  0  0  0
  146.1666  134.6245  163.4215 H   0  0  0  0  0  0  0  0  0  0  0  0
  147.5233  136.6943  163.2201 H   0  0  0  0  0  0  0  0  0  0  0  0
  148.6430  137.4072  161.2529 H   0  0  0  0  0  0  0  0  0  0  0  0
  149.1970  135.7929  161.6184 H   0  0  0  0  0  0  0  0  0  0  0  0
  149.9769  135.9068  159.4532 H   0  0  0  0  0  0  0  0  0  0  0  0
  150.9969  137.7243  159.2427 H   0  0  0  0  0  0  0  0  0  0  0  0
  150.8902  139.5700  157.2407 H   0  0  0  0  0  0  0  0  0  0  0  0
  149.7074  140.1912  158.3626 H   0  0  0  0  0  0  0  0  0  0  0  0
  151.4924  140.1388  160.1871 H   0  0  0  0  0  0  0  0  0  0  0  0
  152.6566  139.6210  159.0011 H   0  0  0  0  0  0  0  0  0  0  0  0
  153.3906  141.9949  160.4365 H   0  0  0  0  0  0  0  0  0  0  0  0
  153.7813  144.3907  159.8101 H   0  0  0  0  0  0  0  0  0  0  0  0
  152.6008  145.3222  157.7984 H   0  0  0  0  0  0  0  0  0  0  0  0
  151.0763  143.8114  156.4992 H   0  0  0  0  0  0  0  0  0  0  0  0
  148.1387  135.2763  157.1350 H   0  0  0  0  0  0  0  0  0  0  0  0
  149.6687  133.2179  158.7394 H   0  0  0  0  0  0  0  0  0  0  0  0
  148.6312  132.9545  157.3491 H   0  0  0  0  0  0  0  0  0  0  0  0
  147.9369  133.5293  158.8568 H   0  0  0  0  0  0  0  0  0  0  0  0
  151.1605  134.8615  157.3028 H   0  0  0  0  0  0  0  0  0  0  0  0
  150.3773  136.1702  156.4216 H   0  0  0  0  0  0  0  0  0  0  0  0
  150.1142  134.5040  155.9391 H   0  0  0  0  0  0  0  0  0  0  0  0
  146.9040  137.7168  159.4496 H   0  0  0  0  0  0  0  0  0  0  0  0
  146.3168  136.3076  158.5944 H   0  0  0  0  0  0  0  0  0  0  0  0
  145.2953  135.3783  160.5888 H   0  0  0  0  0  0  0  0  0  0  0  0
  143.9439  137.0040  159.2547 H   0  0  0  0  0  0  0  0  0  0  0  0
  144.5438  138.3236  160.2580 H   0  0  0  0  0  0  0  0  0  0  0  0
  143.5324  137.0680  160.9664 H   0  0  0  0  0  0  0  0  0  0  0  0
  1  2  1  0  0  0  0
  1 24  1  0  0  0  0
  1 25  1  0  0  0  0
  1 26  1  0  0  0  0
  2 23  1  0  0  0  0
  2  3  1  0  0  0  0
  2 27  1  0  0  0  0
  3  4  1  0  0  0  0
  3 28  1  0  0  0  0
  3 29  1  0  0  0  0
  4  5  1  0  0  0  0
  4 20  1  0  0  0  0
  5  6  1  0  0  0  0
  5 17  1  0  0  0  0
  5 30  1  0  0  0  0
  6  7  2  0  0  0  0
  6  8  1  0  0  0  0
  8  9  1  0  0  0  0
  8 31  1  0  0  0  0
  9 10  1  0  0  0  0
  9 32  1  0  0  0  0
  9 33  1  0  0  0  0
 10 11  1  0  0  0  0
 10 34  1  0  0  0  0
 10 35  1  0  0  0  0
 11 16  1  0  0  0  0
 11 12  2  0  0  0  0
 12 13  1  0  0  0  0
 12 36  1  0  0  0  0
 13 14  2  0  0  0  0
 13 37  1  0  0  0  0
 14 15  1  0  0  0  0
 14 38  1  0  0  0  0
 15 16  2  0  0  0  0
 15 39  1  0  0  0  0
 17 18  1  0  0  0  0
 17 19  1  0  0  0  0
 17 40  1  0  0  0  0
 18 41  1  0  0  0  0
 18 42  1  0  0  0  0
 18 43  1  0  0  0  0
 19 44  1  0  0  0  0
 19 45  1  0  0  0  0
 19 46  1  0  0  0  0
 20 21  1  0  0  0  0
 20 47  1  0  0  0  0
 20 48  1  0  0  0  0
 21 22  1  0  0  0  0
 21 23  1  0  0  0  0
 21 49  1  0  0  0  0
 22 50  1  0  0  0  0
 22 51  1  0  0  0  0
 22 52  1  0  0  0  0
M  END
> <s_m_source_file>
AV-unprocessed.smi

> <i_m_source_file_index>
1762

> <i_lp_mmshare_version>
43012

> <i_f3d_flags>
0

> <s_epik_input>
W0NIM11bQ0BASF0xW0NIMl1OKFtDSDJdW0NASF0oTzEpW0NIM10pW0NAQEhdKFtDSF0oW0NIM10pW0NIM10pQyg9TylbTkhdW0NIMl1bQ0gyXWMyW2NIXVtjSF1bY0hdW2NIXW4y

> <s_epik_cmdline>
J2VwaWtfcHl0aG9uJywgJy1waCcsICc3LjAnLCAnLXRuJywgJzgnLCAnLW1hJywgJzIwMCcsICctbWV0YWxfYmluZGluZycsICctaW1hZScsICc8aW5maWxlLm1hZT4nLCAnLW9tYWUnLCAnPG91dGZpbGUubWFlPic=

> <r_epik_Ionization_Penalty>
0.0399736

> <r_epik_Ionization_Penalty_Charging>
0

> <r_epik_Ionization_Penalty_Neutral>
0.0399736

> <r_epik_State_Penalty>
0.0317634

> <r_epik_Charging_Adjusted_Penalty>
0.0317634

> <i_epik_Tot_Q>
0

> <i_epik_Tot_abs_Q>
0

> <r_epik_Metal_State_Penalty>
0.0307795

> <b_epik_Metal_Only>
0

> <s_lp_Force_Field>
OPLS_2005

> <r_lp_Energy>
29.7417

> <b_lp_Chiralities_Consistent>
1

> <s_lp_Variant>
AV-unprocessed.smi:1762-5

> <Gold.Version>
5.8.1

> <Gold.Id.Protein>
6NUR|6NUR_protein|mol2

> <Gold.PLP.Fitness>
39.2472

> <Gold.PLP.PLP>
-37.5642

> <Gold.PLP.part.hbond>
0.0000

> <Gold.PLP.part.metal>
0.0000

> <Gold.PLP.part.buried>
-5.2514

> <Gold.PLP.part.nonpolar>
-32.4632

> <Gold.PLP.part.repulsive>
0.2260

> <Gold.PLP.ligand.clash>
0.0000

> <Gold.PLP.ligand.torsion>
0.8328

> <Gold.PLP.Chemscore.Hbond>
0.0000

> <Gold.PLP.Chemscore.CHOScore>
1.0000

> <Gold.PLP.Chemscore.Metal>
0.0000

> <Gold.Chemscore.Hbonds>
donor molecule, donor type, donor heavy atom, donor atom, acceptor molecule, acceptor atom, score
      L1  C    15    39       P1  8028  1.00

> <Gold.PLP.Chemscore.Internal.Correction>
0.3485

> <Gold.Rescore>
     Score         DG    S(hbond)    S(metal)    S(lipo)     H(rot)  DE(clash)    DE(int)     intcor
     12.72     -14.58       0.00        0.00     112.81       1.60       0.01       1.85       ----

> <Gold.Chemscore.Fitness>
12.7165

> <Gold.Chemscore.DG>
-14.5844

> <Gold.Chemscore.ZeroCoef>
-5.4800

> <Gold.Chemscore.Hbond>
0.0000

> <Gold.Chemscore.Metal>
0.0000

> <Gold.Chemscore.Lipo>
112.8073

> <Gold.Chemscore.Internal_Hbond>
0.0000

> <Gold.Chemscore.DEClash>
0.0137

> <Gold.Chemscore.DEInternal>
1.8542

> <Gold.Chemscore.Rot>
1.5993

> <Gold.Chemscore.Internal.Correction>
   9.000000E+99

> <Gold.Chemscore.Hbond.Weighted>
-0.0000

> <Gold.Chemscore.Metal.Weighted>
-0.0000

> <Gold.Chemscore.Lipo.Weighted>
-13.1985

> <Gold.Chemscore.Internal_Hbond.Weighted>
0.0000

> <Gold.Chemscore.DEClash.Weighted>
0.0137

> <Gold.Chemscore.DEInternal.Weighted>
1.8542

> <Gold.Chemscore.Rot.Weighted>
4.0941

> <Gold.Chemscore.Internal.Correction.Weighted>
   9.000000E+99

> <Gold.Protein.RotatedTorsions>
[ 6907 6896 6895 6894 ] final   64.81 input  -60.11 | X-H torsion
[ 7974 7965 7964 7962 ] final  -43.70 input  175.53 | X-H torsion
[ 8008 7997 7996 7995 ] final  162.77 input   59.86 | X-H torsion
[ 10167 10162 10161 10158 ] final   53.89 input  -65.29 | X-H torsion
[ 10718 10713 10712 10709 ] final  121.79 input   66.30 | X-H torsion
[ 10763 10752 10751 10750 ] final  -55.41 input  -60.55 | X-H torsion
[ 11005 11000 10999 10996 ] final -123.08 input  -57.11 | X-H torsion

> <Gold.Protein.ActiveResidues>
 VAL166  LYS551  ARG553  GLY616  TRP617  ASP618  TYR619  PRO620  LYS621  CYS622 
 ASP623  PHE694  ASN695  SER759  ASP760  ASP761  ALA762  ILE779  LEU786  VAL792 
 PHE793  MET794  SER795  GLU796  ALA797  LYS798  CYS799  TRP800  GLU811  SER814 

> <Gold.Protein.RotatedAtoms>
  152.4360  134.5685  159.9914 H   0  0  0  0  0  0  0  0  0  0  0  0  # atno 6907 bound_to 6896
  151.5795  133.3374  159.3013 H   0  0  0  0  0  0  0  0  0  0  0  0  # atno 6908 bound_to 6896
  150.8259  134.7524  159.6876 H   0  0  0  0  0  0  0  0  0  0  0  0  # atno 6909 bound_to 6896
  145.9993  140.7092  142.9278 H   0  0  0  0  0  0  0  0  0  0  0  0  # atno 7974 bound_to 7965
  156.2006  140.1741  156.7906 H   0  0  0  0  0  0  0  0  0  0  0  0  # atno 8008 bound_to 7997
  154.5587  140.0703  156.8815 H   0  0  0  0  0  0  0  0  0  0  0  0  # atno 8009 bound_to 7997
  155.2889  140.3354  155.4256 H   0  0  0  0  0  0  0  0  0  0  0  0  # atno 8010 bound_to 7997
  140.2359  144.3636  150.6397 H   0  0  0  0  0  0  0  0  0  0  0  0  # atno 10167 bound_to 10162
  157.5791  131.1076  150.8221 H   0  0  0  0  0  0  0  0  0  0  0  0  # atno 10718 bound_to 10713
  154.1904  135.6428  153.5058 H   0  0  0  0  0  0  0  0  0  0  0  0  # atno 10763 bound_to 10752
  153.0036  135.5427  154.6421 H   0  0  0  0  0  0  0  0  0  0  0  0  # atno 10764 bound_to 10752
  154.5808  135.2925  155.0707 H   0  0  0  0  0  0  0  0  0  0  0  0  # atno 10765 bound_to 10752
  140.9946  134.0490  157.3613 H   0  0  0  0  0  0  0  0  0  0  0  0  # atno 11005 bound_to 11000
  144.6914  140.3205  143.7233 LP  0  0  0  0  0  0  0  0  0  0  0  0  # atno 17320 bound_to 7965
  145.7512  139.1794  143.2320 LP  0  0  0  0  0  0  0  0  0  0  0  0  # atno 17321 bound_to 7965
  140.6150  143.2172  151.6810 LP  0  0  0  0  0  0  0  0  0  0  0  0  # atno 17342 bound_to 10162
  139.5094  144.3579  152.0590 LP  0  0  0  0  0  0  0  0  0  0  0  0  # atno 17343 bound_to 10162
  156.8672  130.5133  149.5299 LP  0  0  0  0  0  0  0  0  0  0  0  0  # atno 17370 bound_to 10713
  156.0837  130.5841  150.9609 LP  0  0  0  0  0  0  0  0  0  0  0  0  # atno 17371 bound_to 10713
  139.9008  135.0164  156.7261 LP  0  0  0  0  0  0  0  0  0  0  0  0  # atno 17394 bound_to 11000
  140.6986  133.9326  155.8010 LP  0  0  0  0  0  0  0  0  0  0  0  0  # atno 17395 bound_to 11000

$$$$
