AV-unprocessed.smi:693|AV-procd|sdf|3374|dock6
  -GOLD-   22720 0353D 1   1.00000     0.00000
 Structure written by MMmdl.
 47 48  0  0  0  0  0  0  0  0  2 V2000
  151.5264  145.0267  158.2435 C   0  0  0  0  0  0  0  0  0  0  0  0
  152.1381  144.1504  159.3158 C   0  0  0  0  0  0  0  0  0  0  0  0
  151.9697  144.4152  160.6918 C   0  0  0  0  0  0  0  0  0  0  0  0
  152.5709  143.5579  161.6367 C   0  0  0  0  0  0  0  0  0  0  0  0
  153.3291  142.4546  161.1871 C   0  0  0  0  0  0  0  0  0  0  0  0
  153.9877  141.5131  162.1761 C   0  0  0  0  0  0  0  0  0  0  0  0
  154.7055  140.3469  161.4766 C   0  0  0  0  0  0  0  0  0  0  0  0
  154.5775  139.1075  162.2335 N   0  0  0  0  0  0  0  0  0  0  0  0
  154.2279  137.9153  161.7207 C   0  0  0  0  0  0  0  0  0  0  0  0
  153.9613  137.7722  160.5263 O   0  0  0  0  0  0  0  0  0  0  0  0
  154.1729  136.9025  162.6229 N   0  0  0  0  0  0  0  0  0  0  0  0
  154.2945  137.0329  164.0839 C   0  0  0  0  0  0  0  0  0  0  0  0
  155.6967  136.5574  164.4965 C   0  0  0  0  0  0  0  0  0  0  0  0
  155.9492  135.1123  164.0258 C   0  0  0  0  0  0  0  0  0  0  0  0
  155.6185  134.9117  162.5242 C   0  0  1  0  0  0  0  0  0  0  0  0
  155.7052  133.4363  162.0696 C   0  0  0  0  0  0  0  0  0  0  0  0
  155.5428  133.2398  160.5584 C   0  0  0  0  0  0  0  0  0  0  0  0
  156.5674  132.6871  159.9046 N   0  0  0  0  0  0  0  0  0  0  0  0
  154.5187  133.6013  159.9829 O   0  0  0  0  0  0  0  0  0  0  0  0
  154.2198  135.4929  162.2141 C   0  0  0  0  0  0  0  0  0  0  0  0
  153.4627  142.2391  159.7988 C   0  0  0  0  0  0  0  0  0  0  0  0
  152.8708  143.0832  158.9255 N   0  3  0  0  0  0  0  0  0  0  0  0
  150.7989  145.7175  158.6709 H   0  0  0  0  0  0  0  0  0  0  0  0
  151.0173  144.4191  157.4947 H   0  0  0  0  0  0  0  0  0  0  0  0
  152.3009  145.6108  157.7461 H   0  0  0  0  0  0  0  0  0  0  0  0
  151.3884  145.2640  161.0220 H   0  0  0  0  0  0  0  0  0  0  0  0
  152.4498  143.7472  162.6934 H   0  0  0  0  0  0  0  0  0  0  0  0
  154.6928  142.0840  162.7816 H   0  0  0  0  0  0  0  0  0  0  0  0
  153.2331  141.1296  162.8645 H   0  0  0  0  0  0  0  0  0  0  0  0
  154.2744  140.1835  160.4887 H   0  0  0  0  0  0  0  0  0  0  0  0
  155.7601  140.5807  161.3214 H   0  0  0  0  0  0  0  0  0  0  0  0
  154.7712  139.1545  163.2233 H   0  0  0  0  0  0  0  0  0  0  0  0
  154.1192  138.0417  164.4573 H   0  0  0  0  0  0  0  0  0  0  0  0
  153.5357  136.4136  164.5648 H   0  0  0  0  0  0  0  0  0  0  0  0
  156.4480  137.2199  164.0645 H   0  0  0  0  0  0  0  0  0  0  0  0
  155.8124  136.6216  165.5786 H   0  0  0  0  0  0  0  0  0  0  0  0
  156.9861  134.8500  164.2339 H   0  0  0  0  0  0  0  0  0  0  0  0
  155.3354  134.4354  164.6216 H   0  0  0  0  0  0  0  0  0  0  0  0
  156.3436  135.4843  161.9427 H   0  0  0  0  0  0  0  0  0  0  0  0
  156.6613  133.0090  162.3743 H   0  0  0  0  0  0  0  0  0  0  0  0
  154.9399  132.8501  162.5804 H   0  0  0  0  0  0  0  0  0  0  0  0
  156.5083  132.5379  158.9078 H   0  0  0  0  0  0  0  0  0  0  0  0
  157.3995  132.4208  160.4107 H   0  0  0  0  0  0  0  0  0  0  0  0
  153.4523  134.9349  162.7526 H   0  0  0  0  0  0  0  0  0  0  0  0
  153.9832  135.3644  161.1567 H   0  0  0  0  0  0  0  0  0  0  0  0
  154.0201  141.4222  159.3635 H   0  0  0  0  0  0  0  0  0  0  0  0
  152.9822  142.9073  157.9265 H   0  0  0  0  0  0  0  0  0  0  0  0
  1  2  1  0  0  0  0
  1 23  1  0  0  0  0
  1 24  1  0  0  0  0
  1 25  1  0  0  0  0
  2 22  1  0  0  0  0
  2  3  2  0  0  0  0
  3  4  1  0  0  0  0
  3 26  1  0  0  0  0
  4  5  2  0  0  0  0
  4 27  1  0  0  0  0
  5  6  1  0  0  0  0
  5 21  1  0  0  0  0
  6  7  1  0  0  0  0
  6 28  1  0  0  0  0
  6 29  1  0  0  0  0
  7  8  1  0  0  0  0
  7 30  1  0  0  0  0
  7 31  1  0  0  0  0
  8  9  1  0  0  0  0
  8 32  1  0  0  0  0
  9 10  2  0  0  0  0
  9 11  1  0  0  0  0
 11 20  1  0  0  0  0
 11 12  1  0  0  0  0
 12 13  1  0  0  0  0
 12 33  1  0  0  0  0
 12 34  1  0  0  0  0
 13 14  1  0  0  0  0
 13 35  1  0  0  0  0
 13 36  1  0  0  0  0
 14 15  1  0  0  0  0
 14 37  1  0  0  0  0
 14 38  1  0  0  0  0
 15 16  1  0  0  0  0
 15 20  1  0  0  0  0
 15 39  1  0  0  0  0
 16 17  1  0  0  0  0
 16 40  1  0  0  0  0
 16 41  1  0  0  0  0
 17 18  1  0  0  0  0
 17 19  2  0  0  0  0
 18 42  1  0  0  0  0
 18 43  1  0  0  0  0
 20 44  1  0  0  0  0
 20 45  1  0  0  0  0
 21 22  2  0  0  0  0
 21 46  1  0  0  0  0
 22 47  1  0  0  0  0
M  CHG  1  22   1
M  END
> <s_m_source_file>
AV-unprocessed.smi

> <i_m_source_file_index>
693

> <i_lp_mmshare_version>
43012

> <i_f3d_flags>
0

> <s_epik_input>
W0NIM11jMVtjSF1bY0hdYyhbY0hdbjEpW0NIMl1bQ0gyXVtOSF1DKD1PKU4yW0NIMl1bQ0gyXVtDSDJdW0NASF0oW0NIMl0yKVtDSDJdQyg9TylbTkgyXQ==

> <s_epik_cmdline>
J2VwaWtfcHl0aG9uJywgJy1waCcsICc3LjAnLCAnLXRuJywgJzgnLCAnLW1hJywgJzIwMCcsICctbWV0YWxfYmluZGluZycsICctaW1hZScsICc8aW5maWxlLm1hZT4nLCAnLW9tYWUnLCAnPG91dGZpbGUubWFlPic=

> <r_epik_Ionization_Penalty>
1.41666

> <r_epik_Ionization_Penalty_Charging>
1.4166

> <r_epik_Ionization_Penalty_Neutral>
5.77403e-05

> <r_epik_State_Penalty>
1.50002

> <r_epik_Charging_Adjusted_Penalty>
2.91662

> <i_epik_Tot_Q>
1

> <i_epik_Tot_abs_Q>
1

> <r_epik_Metal_State_Penalty>
1.55252

> <b_epik_Metal_Only>
0

> <s_lp_Force_Field>
OPLS_2005

> <r_lp_Energy>
32.8943

> <b_lp_Chiralities_Consistent>
1

> <s_lp_Variant>
AV-unprocessed.smi:693-3

> <Gold.Version>
5.8.1

> <Gold.Id.Protein>
6NUR|6NUR_protein|mol2

> <Gold.PLP.Fitness>
46.9310

> <Gold.PLP.PLP>
-44.7786

> <Gold.PLP.part.hbond>
-1.0000

> <Gold.PLP.part.metal>
0.0000

> <Gold.PLP.part.buried>
-5.3820

> <Gold.PLP.part.nonpolar>
-37.5680

> <Gold.PLP.part.repulsive>
0.0390

> <Gold.PLP.ligand.clash>
0.0000

> <Gold.PLP.ligand.torsion>
0.4436

> <Gold.PLP.Chemscore.Hbond>
0.9913

> <Gold.PLP.Chemscore.CHOScore>
0.0000

> <Gold.PLP.Chemscore.Metal>
0.0000

> <Gold.Chemscore.Hbonds>
donor molecule, donor type, donor heavy atom, donor atom, acceptor molecule, acceptor atom, score
      P1  H  6896  6909       L1    19  1.00

> <Gold.PLP.Chemscore.Internal.Correction>
0.0659

> <Gold.Rescore>
     Score         DG    S(hbond)    S(metal)    S(lipo)     H(rot)  DE(clash)    DE(int)     intcor
     16.33     -16.85       0.97        0.00     120.50       2.34       0.01       0.51       ----

> <Gold.Chemscore.Fitness>
16.3263

> <Gold.Chemscore.DG>
-16.8489

> <Gold.Chemscore.ZeroCoef>
-5.4800

> <Gold.Chemscore.Hbond>
0.9728

> <Gold.Chemscore.Metal>
0.0000

> <Gold.Chemscore.Lipo>
120.4970

> <Gold.Chemscore.Internal_Hbond>
0.0000

> <Gold.Chemscore.DEClash>
0.0103

> <Gold.Chemscore.DEInternal>
0.5123

> <Gold.Chemscore.Rot>
2.3354

> <Gold.Chemscore.Internal.Correction>
   9.000000E+99

> <Gold.Chemscore.Hbonds>
donor molecule, donor type, donor heavy atom, donor atom, acceptor molecule, acceptor atom, score
      P1  H  6896  6909       L1    19  0.97

> <Gold.Chemscore.Hbond.Weighted>
-3.2493

> <Gold.Chemscore.Metal.Weighted>
-0.0000

> <Gold.Chemscore.Lipo.Weighted>
-14.0982

> <Gold.Chemscore.Internal_Hbond.Weighted>
0.0000

> <Gold.Chemscore.DEClash.Weighted>
0.0103

> <Gold.Chemscore.DEInternal.Weighted>
0.5123

> <Gold.Chemscore.Rot.Weighted>
5.9785

> <Gold.Chemscore.Internal.Correction.Weighted>
   9.000000E+99

> <Gold.Protein.RotatedTorsions>
[ 6907 6896 6895 6894 ] final -147.85 input  -60.11 | X-H torsion
[ 7974 7965 7964 7962 ] final   48.25 input  175.53 | X-H torsion
[ 8008 7997 7996 7995 ] final -178.67 input   59.86 | X-H torsion
[ 10167 10162 10161 10158 ] final  -14.41 input  -65.29 | X-H torsion
[ 10718 10713 10712 10709 ] final   23.30 input   66.30 | X-H torsion
[ 10763 10752 10751 10750 ] final -153.79 input  -60.55 | X-H torsion
[ 11005 11000 10999 10996 ] final  148.67 input  -57.11 | X-H torsion

> <Gold.Protein.ActiveResidues>
 VAL166  LYS551  ARG553  GLY616  TRP617  ASP618  TYR619  PRO620  LYS621  CYS622 
 ASP623  PHE694  ASN695  SER759  ASP760  ASP761  ALA762  ILE779  LEU786  VAL792 
 PHE793  MET794  SER795  GLU796  ALA797  LYS798  CYS799  TRP800  GLU811  SER814 

> <Gold.Protein.RotatedAtoms>
  151.1615  133.4842  159.2594 H   0  0  0  0  0  0  0  0  0  0  0  0  # atno 6907 bound_to 6896
  151.1449  135.0198  159.8652 H   0  0  0  0  0  0  0  0  0  0  0  0  # atno 6908 bound_to 6896
  152.5463  134.1505  159.8569 H   0  0  0  0  0  0  0  0  0  0  0  0  # atno 6909 bound_to 6896
  146.0222  139.4665  142.9890 H   0  0  0  0  0  0  0  0  0  0  0  0  # atno 7974 bound_to 7965
  156.0216  140.1262  157.0352 H   0  0  0  0  0  0  0  0  0  0  0  0  # atno 8008 bound_to 7997
  154.4314  140.1067  156.6041 H   0  0  0  0  0  0  0  0  0  0  0  0  # atno 8009 bound_to 7997
  155.5937  140.3469  155.4576 H   0  0  0  0  0  0  0  0  0  0  0  0  # atno 8010 bound_to 7997
  140.7201  143.5324  150.9504 H   0  0  0  0  0  0  0  0  0  0  0  0  # atno 10167 bound_to 10162
  157.1643  130.6731  149.6055 H   0  0  0  0  0  0  0  0  0  0  0  0  # atno 10718 bound_to 10713
  154.7903  135.3205  154.7791 H   0  0  0  0  0  0  0  0  0  0  0  0  # atno 10763 bound_to 10752
  153.8482  135.6864  153.4799 H   0  0  0  0  0  0  0  0  0  0  0  0  # atno 10764 bound_to 10752
  153.1571  135.4676  154.9660 H   0  0  0  0  0  0  0  0  0  0  0  0  # atno 10765 bound_to 10752
  140.0979  134.9001  157.1751 H   0  0  0  0  0  0  0  0  0  0  0  0  # atno 11005 bound_to 11000
  145.7175  141.0086  143.1420 LP  0  0  0  0  0  0  0  0  0  0  0  0  # atno 17320 bound_to 7965
  144.6995  139.8830  143.7448 LP  0  0  0  0  0  0  0  0  0  0  0  0  # atno 17321 bound_to 7965
  139.9045  143.6796  152.3126 LP  0  0  0  0  0  0  0  0  0  0  0  0  # atno 17342 bound_to 10162
  139.7157  144.7612  151.1038 LP  0  0  0  0  0  0  0  0  0  0  0  0  # atno 17343 bound_to 10162
  155.9748  130.4701  150.6418 LP  0  0  0  0  0  0  0  0  0  0  0  0  # atno 17370 bound_to 10713
  157.4103  131.0822  151.1227 LP  0  0  0  0  0  0  0  0  0  0  0  0  # atno 17371 bound_to 10713
  140.3260  134.2863  155.7237 LP  0  0  0  0  0  0  0  0  0  0  0  0  # atno 17394 bound_to 11000
  141.2097  133.7740  156.9978 LP  0  0  0  0  0  0  0  0  0  0  0  0  # atno 17395 bound_to 11000

$$$$
