AV-unprocessed.smi:3113|AV-procd|sdf|11852|dock9
  -GOLD-   2272017233D 1   1.00000     0.00000
 Structure written by MMmdl.
 35 36  0  0  0  0  0  0  0  0  2 V2000
  150.7231  137.6433  154.7332 C   0  0  0  0  0  0  0  0  0  0  0  0
  151.7641  138.6104  154.8130 C   0  0  0  0  0  0  0  0  0  0  0  0
  151.3142  139.8521  154.7286 N   0  0  0  0  0  0  0  0  0  0  0  0
  149.9765  139.7195  154.5975 N   0  0  0  0  0  0  0  0  0  0  0  0
  149.1457  140.9016  154.4716 C   0  0  0  0  0  0  0  0  0  0  0  0
  148.3731  141.1976  155.7655 C   0  0  0  0  0  0  0  0  0  0  0  0
  149.0899  142.1831  156.5972 N   0  3  0  0  0  0  0  0  0  0  0  0
  150.4015  141.7148  157.0870 C   0  0  0  0  0  0  0  0  0  0  0  0
  151.2539  142.8878  157.5923 C   0  0  2  0  0  0  0  0  0  0  0  0
  152.3283  142.4264  158.5964 C   0  0  0  0  0  0  0  0  0  0  0  0
  153.0941  143.6290  159.1600 C   0  0  0  0  0  0  0  0  0  0  0  0
  152.1041  144.6513  159.7274 C   0  0  0  0  0  0  0  0  0  0  0  0
  151.0393  145.0014  158.6762 C   0  0  0  0  0  0  0  0  0  0  0  0
  150.3829  143.8158  158.2368 O   0  0  0  0  0  0  0  0  0  0  0  0
  149.5918  138.3949  154.5924 C   0  0  0  0  0  0  0  0  0  0  0  0
  150.7966  136.5665  154.7716 H   0  0  0  0  0  0  0  0  0  0  0  0
  152.8257  138.4477  154.9278 H   0  0  0  0  0  0  0  0  0  0  0  0
  149.7836  141.7453  154.2045 H   0  0  0  0  0  0  0  0  0  0  0  0
  148.4536  140.7515  153.6418 H   0  0  0  0  0  0  0  0  0  0  0  0
  147.3812  141.5845  155.5271 H   0  0  0  0  0  0  0  0  0  0  0  0
  148.2332  140.2806  156.3394 H   0  0  0  0  0  0  0  0  0  0  0  0
  149.2305  143.0234  156.0547 H   0  0  0  0  0  0  0  0  0  0  0  0
  150.2596  140.9819  157.8826 H   0  0  0  0  0  0  0  0  0  0  0  0
  150.9149  141.2071  156.2692 H   0  0  0  0  0  0  0  0  0  0  0  0
  151.7378  143.3720  156.7416 H   0  0  0  0  0  0  0  0  0  0  0  0
  151.8577  141.8790  159.4145 H   0  0  0  0  0  0  0  0  0  0  0  0
  153.0232  141.7358  158.1172 H   0  0  0  0  0  0  0  0  0  0  0  0
  153.7942  143.3079  159.9319 H   0  0  0  0  0  0  0  0  0  0  0  0
  153.6872  144.0911  158.3699 H   0  0  0  0  0  0  0  0  0  0  0  0
  151.6195  144.2404  160.6139 H   0  0  0  0  0  0  0  0  0  0  0  0
  152.6307  145.5511  160.0467 H   0  0  0  0  0  0  0  0  0  0  0  0
  150.2978  145.6759  159.1050 H   0  0  0  0  0  0  0  0  0  0  0  0
  151.4863  145.5194  157.8262 H   0  0  0  0  0  0  0  0  0  0  0  0
  148.5577  138.0993  154.4912 H   0  0  0  0  0  0  0  0  0  0  0  0
  148.5142  142.4069  157.3967 H   0  0  0  0  0  0  0  0  0  0  0  0
  1 15  2  0  0  0  0
  1  2  1  0  0  0  0
  1 16  1  0  0  0  0
  2  3  2  0  0  0  0
  2 17  1  0  0  0  0
  3  4  1  0  0  0  0
  4  5  1  0  0  0  0
  4 15  1  0  0  0  0
  5  6  1  0  0  0  0
  5 18  1  0  0  0  0
  5 19  1  0  0  0  0
  6  7  1  0  0  0  0
  6 20  1  0  0  0  0
  6 21  1  0  0  0  0
  7  8  1  0  0  0  0
  7 22  1  0  0  0  0
  7 35  1  0  0  0  0
  8  9  1  0  0  0  0
  8 23  1  0  0  0  0
  8 24  1  0  0  0  0
  9 14  1  0  0  0  0
  9 10  1  0  0  0  0
  9 25  1  0  0  0  0
 10 11  1  0  0  0  0
 10 26  1  0  0  0  0
 10 27  1  0  0  0  0
 11 12  1  0  0  0  0
 11 28  1  0  0  0  0
 11 29  1  0  0  0  0
 12 13  1  0  0  0  0
 12 30  1  0  0  0  0
 12 31  1  0  0  0  0
 13 14  1  0  0  0  0
 13 32  1  0  0  0  0
 13 33  1  0  0  0  0
 15 34  1  0  0  0  0
M  CHG  1   7   1
M  END
> <s_m_source_file>
AV-unprocessed.smi

> <i_m_source_file_index>
3113

> <i_lp_mmshare_version>
43012

> <i_f3d_flags>
0

> <s_epik_input>
W2NIXTFbY0hdW2NIXW5uMVtDSDJdW0NIMl1bTkhdW0NIMl1bQ0BASF0yW0NIMl1bQ0gyXVtDSDJdW0NIMl1PMg==

> <s_epik_cmdline>
J2VwaWtfcHl0aG9uJywgJy1waCcsICc3LjAnLCAnLXRuJywgJzgnLCAnLW1hJywgJzIwMCcsICctbWV0YWxfYmluZGluZycsICctaW1hZScsICc8aW5maWxlLm1hZT4nLCAnLW9tYWUnLCAnPG91dGZpbGUubWFlPic=

> <r_lp_tautomer_probability>
1

> <r_epik_Ionization_Penalty>
0.00849054

> <r_epik_Ionization_Penalty_Charging>
0.00848754

> <r_epik_Ionization_Penalty_Neutral>
3.00382e-06

> <r_epik_State_Penalty>
0.00639836

> <r_epik_Charging_Adjusted_Penalty>
0.0148859

> <i_epik_Tot_Q>
1

> <i_epik_Tot_abs_Q>
1

> <r_epik_Metal_State_Penalty>
0.00641155

> <b_epik_Metal_Only>
0

> <s_lp_Force_Field>
OPLS_2005

> <r_lp_Energy>
10.9258

> <b_lp_Chiralities_Consistent>
1

> <s_lp_Variant>
AV-unprocessed.smi:3113-1

> <Gold.Version>
5.8.1

> <Gold.Id.Protein>
6NUR|6NUR_protein|mol2

> <Gold.PLP.Fitness>
44.5251

> <Gold.PLP.PLP>
-36.9914

> <Gold.PLP.part.hbond>
-1.9707

> <Gold.PLP.part.metal>
0.0000

> <Gold.PLP.part.buried>
-5.3153

> <Gold.PLP.part.nonpolar>
-31.0385

> <Gold.PLP.part.repulsive>
0.3017

> <Gold.PLP.ligand.clash>
0.0000

> <Gold.PLP.ligand.torsion>
0.7381

> <Gold.PLP.Chemscore.Hbond>
3.0000

> <Gold.PLP.Chemscore.CHOScore>
0.0000

> <Gold.PLP.Chemscore.Metal>
0.0000

> <Gold.Chemscore.Hbonds>
donor molecule, donor type, donor heavy atom, donor atom, acceptor molecule, acceptor atom, score
      L1  H     7    22       P1  8028  2.00
      P1  H  7989  7998       L1     3  1.00

> <Gold.PLP.Chemscore.Internal.Correction>
0.0099

> <Gold.Rescore>
     Score         DG    S(hbond)    S(metal)    S(lipo)     H(rot)  DE(clash)    DE(int)     intcor
     18.13     -18.80       1.92        0.00      96.13       1.70       0.10       0.57       ----

> <Gold.Chemscore.Fitness>
18.1274

> <Gold.Chemscore.DG>
-18.7979

> <Gold.Chemscore.ZeroCoef>
-5.4800

> <Gold.Chemscore.Hbond>
1.9218

> <Gold.Chemscore.Metal>
0.0000

> <Gold.Chemscore.Lipo>
96.1301

> <Gold.Chemscore.Internal_Hbond>
0.0000

> <Gold.Chemscore.DEClash>
0.0989

> <Gold.Chemscore.DEInternal>
0.5715

> <Gold.Chemscore.Rot>
1.6985

> <Gold.Chemscore.Internal.Correction>
   9.000000E+99

> <Gold.Chemscore.Hbonds>
donor molecule, donor type, donor heavy atom, donor atom, acceptor molecule, acceptor atom, score
      L1  H     7    22       P1  8028  0.96
      P1  H  7989  7998       L1     3  0.30

> <Gold.Chemscore.Hbond.Weighted>
-6.4189

> <Gold.Chemscore.Metal.Weighted>
-0.0000

> <Gold.Chemscore.Lipo.Weighted>
-11.2472

> <Gold.Chemscore.Internal_Hbond.Weighted>
0.0000

> <Gold.Chemscore.DEClash.Weighted>
0.0989

> <Gold.Chemscore.DEInternal.Weighted>
0.5715

> <Gold.Chemscore.Rot.Weighted>
4.3482

> <Gold.Chemscore.Internal.Correction.Weighted>
   9.000000E+99

> <Gold.Protein.RotatedTorsions>
[ 6907 6896 6895 6894 ] final  -18.39 input  -60.11 | X-H torsion
[ 7974 7965 7964 7962 ] final -132.04 input  175.53 | X-H torsion
[ 8008 7997 7996 7995 ] final  -24.03 input   59.86 | X-H torsion
[ 10167 10162 10161 10158 ] final   73.81 input  -65.29 | X-H torsion
[ 10718 10713 10712 10709 ] final  162.15 input   66.30 | X-H torsion
[ 10763 10752 10751 10750 ] final   90.01 input  -60.55 | X-H torsion
[ 11005 11000 10999 10996 ] final -141.33 input  -57.11 | X-H torsion

> <Gold.Protein.ActiveResidues>
 VAL166  LYS551  ARG553  GLY616  TRP617  ASP618  TYR619  PRO620  LYS621  CYS622 
 ASP623  PHE694  ASN695  SER759  ASP760  ASP761  ALA762  ILE779  LEU786  VAL792 
 PHE793  MET794  SER795  GLU796  ALA797  LYS798  CYS799  TRP800  GLU811  SER814 

> <Gold.Protein.RotatedAtoms>
  151.2789  135.0707  159.9161 H   0  0  0  0  0  0  0  0  0  0  0  0  # atno 6907 bound_to 6896
  152.5337  134.0052  159.7923 H   0  0  0  0  0  0  0  0  0  0  0  0  # atno 6908 bound_to 6896
  151.0303  133.5746  159.2692 H   0  0  0  0  0  0  0  0  0  0  0  0  # atno 6909 bound_to 6896
  144.9322  140.7142  143.4898 H   0  0  0  0  0  0  0  0  0  0  0  0  # atno 7974 bound_to 7965
  154.4552  140.1964  156.0401 H   0  0  0  0  0  0  0  0  0  0  0  0  # atno 8008 bound_to 7997
  156.0731  140.3282  155.7572 H   0  0  0  0  0  0  0  0  0  0  0  0  # atno 8009 bound_to 7997
  155.5232  140.0571  157.2893 H   0  0  0  0  0  0  0  0  0  0  0  0  # atno 8010 bound_to 7997
  140.0205  144.5544  150.7586 H   0  0  0  0  0  0  0  0  0  0  0  0  # atno 10167 bound_to 10162
  157.1265  131.0506  151.2391 H   0  0  0  0  0  0  0  0  0  0  0  0  # atno 10718 bound_to 10713
  153.1930  135.4449  155.0173 H   0  0  0  0  0  0  0  0  0  0  0  0  # atno 10763 bound_to 10752
  154.8102  135.3291  154.7328 H   0  0  0  0  0  0  0  0  0  0  0  0  # atno 10764 bound_to 10752
  153.7780  135.6979  153.4949 H   0  0  0  0  0  0  0  0  0  0  0  0  # atno 10765 bound_to 10752
  140.8335  134.2489  157.4845 H   0  0  0  0  0  0  0  0  0  0  0  0  # atno 11005 bound_to 11000
  145.3123  139.1815  143.4632 LP  0  0  0  0  0  0  0  0  0  0  0  0  # atno 17320 bound_to 7965
  146.3252  140.3129  142.8628 LP  0  0  0  0  0  0  0  0  0  0  0  0  # atno 17321 bound_to 7965
  140.7344  143.2729  151.3833 LP  0  0  0  0  0  0  0  0  0  0  0  0  # atno 17342 bound_to 10162
  139.6143  144.1035  152.2330 LP  0  0  0  0  0  0  0  0  0  0  0  0  # atno 17343 bound_to 10162
  157.4430  130.7555  149.7085 LP  0  0  0  0  0  0  0  0  0  0  0  0  # atno 17370 bound_to 10713
  155.9817  130.4017  150.3457 LP  0  0  0  0  0  0  0  0  0  0  0  0  # atno 17371 bound_to 10713
  139.8704  134.9598  156.4344 LP  0  0  0  0  0  0  0  0  0  0  0  0  # atno 17394 bound_to 11000
  140.8973  133.7805  155.9639 LP  0  0  0  0  0  0  0  0  0  0  0  0  # atno 17395 bound_to 11000

$$$$
