AV-unprocessed.smi:2630|AV-procd|sdf|10246|dock9
  -GOLD-   2272014253D 1   1.00000     0.00000
 Structure written by MMmdl.
 35 36  0  0  0  0  0  0  0  0  1 V2000
  151.4192  138.4296  154.7481 C   0  0  0  0  0  0  0  0  0  0  0  0
  150.4997  139.4555  154.4194 O   0  0  0  0  0  0  0  0  0  0  0  0
  149.2261  139.2549  155.0107 C   0  0  0  0  0  0  0  0  0  0  0  0
  149.1866  139.9326  156.3906 C   0  0  0  0  0  0  0  0  0  0  0  0
  150.0183  139.2665  157.3733 N   0  0  0  0  0  0  0  0  0  0  0  0
  151.3032  139.6921  157.7208 C   0  0  0  0  0  0  0  0  0  0  0  0
  151.8278  140.8198  157.1123 N   0  0  0  0  0  0  0  0  0  0  0  0
  152.0452  139.0060  158.6284 C   0  0  0  0  0  0  0  0  0  0  0  0
  153.6966  139.4252  159.1339 S   0  0  0  0  0  0  0  0  0  0  0  0
  153.3820  140.7588  160.2439 C   0  0  0  0  0  0  0  0  0  0  0  0
  154.0185  140.7932  161.5009 C   0  0  0  0  0  0  0  0  0  0  0  0
  153.7592  141.8543  162.3900 C   0  0  0  0  0  0  0  0  0  0  0  0
  152.8671  142.8804  162.0215 C   0  0  0  0  0  0  0  0  0  0  0  0
  152.2328  142.8458  160.7637 C   0  0  0  0  0  0  0  0  0  0  0  0
  152.4901  141.7849  159.8736 C   0  0  0  0  0  0  0  0  0  0  0  0
  151.5500  137.7988  159.2935 C   0  0  0  0  0  0  0  0  0  0  0  0
  152.1448  137.1256  160.1349 O   0  0  0  0  0  0  0  0  0  0  0  0
  150.2695  137.4213  158.8899 N   0  0  0  0  0  0  0  0  0  0  0  0
  149.4812  138.0900  157.9547 C   0  0  0  0  0  0  0  0  0  0  0  0
  148.3703  137.6405  157.6711 O   0  0  0  0  0  0  0  0  0  0  0  0
  149.8814  136.5884  159.3081 H   0  0  0  0  0  0  0  0  0  0  0  0
  152.3785  138.6306  154.2713 H   0  0  0  0  0  0  0  0  0  0  0  0
  151.0672  137.4574  154.4005 H   0  0  0  0  0  0  0  0  0  0  0  0
  151.5832  138.3790  155.8254 H   0  0  0  0  0  0  0  0  0  0  0  0
  148.4567  139.6886  154.3708 H   0  0  0  0  0  0  0  0  0  0  0  0
  149.0099  138.1891  155.0986 H   0  0  0  0  0  0  0  0  0  0  0  0
  149.5100  140.9713  156.3358 H   0  0  0  0  0  0  0  0  0  0  0  0
  148.1725  139.9714  156.7917 H   0  0  0  0  0  0  0  0  0  0  0  0
  151.3054  141.3424  156.4239 H   0  0  0  0  0  0  0  0  0  0  0  0
  152.7070  141.2206  157.4061 H   0  0  0  0  0  0  0  0  0  0  0  0
  154.7017  140.0073  161.7877 H   0  0  0  0  0  0  0  0  0  0  0  0
  154.2442  141.8808  163.3547 H   0  0  0  0  0  0  0  0  0  0  0  0
  152.6692  143.6939  162.7039 H   0  0  0  0  0  0  0  0  0  0  0  0
  151.5483  143.6323  160.4821 H   0  0  0  0  0  0  0  0  0  0  0  0
  152.0000  141.7581  158.9112 H   0  0  0  0  0  0  0  0  0  0  0  0
  1  2  1  0  0  0  0
  1 22  1  0  0  0  0
  1 23  1  0  0  0  0
  1 24  1  0  0  0  0
  2  3  1  0  0  0  0
  3  4  1  0  0  0  0
  3 25  1  0  0  0  0
  3 26  1  0  0  0  0
  4  5  1  0  0  0  0
  4 27  1  0  0  0  0
  4 28  1  0  0  0  0
  5 19  1  0  0  0  0
  5  6  1  0  0  0  0
  6  7  1  0  0  0  0
  6  8  2  0  0  0  0
  7 29  1  0  0  0  0
  7 30  1  0  0  0  0
  8  9  1  0  0  0  0
  8 16  1  0  0  0  0
  9 10  1  0  0  0  0
 10 15  1  0  0  0  0
 10 11  2  0  0  0  0
 11 12  1  0  0  0  0
 11 31  1  0  0  0  0
 12 13  2  0  0  0  0
 12 32  1  0  0  0  0
 13 14  1  0  0  0  0
 13 33  1  0  0  0  0
 14 15  2  0  0  0  0
 14 34  1  0  0  0  0
 15 35  1  0  0  0  0
 16 17  2  0  0  0  0
 16 18  1  0  0  0  0
 18 21  1  0  0  0  0
 18 19  1  0  0  0  0
 19 20  2  0  0  0  0
M  END
> <s_m_source_file>
AV-unprocessed.smi

> <i_m_source_file_index>
2630

> <i_lp_mmshare_version>
43012

> <i_f3d_flags>
0

> <s_epik_input>
W0NIM11PW0NIMl1bQ0gyXW4xYyhbTkgyXSljKGMoPU8pW25IXWMxPU8pU2MyW2NIXVtjSF1bY0hdW2NIXVtjSF0y

> <s_epik_cmdline>
J2VwaWtfcHl0aG9uJywgJy1waCcsICc3LjAnLCAnLXRuJywgJzgnLCAnLW1hJywgJzIwMCcsICctbWV0YWxfYmluZGluZycsICctaW1hZScsICc8aW5maWxlLm1hZT4nLCAnLW9tYWUnLCAnPG91dGZpbGUubWFlPic=

> <r_lp_tautomer_probability>
1

> <r_epik_Ionization_Penalty>
1.3786e-05

> <r_epik_Ionization_Penalty_Charging>
1.17844e-05

> <r_epik_Ionization_Penalty_Neutral>
2.00164e-06

> <r_epik_State_Penalty>
-0

> <r_epik_Charging_Adjusted_Penalty>
1.17844e-05

> <i_epik_Tot_Q>
0

> <i_epik_Tot_abs_Q>
0

> <r_epik_Metal_State_Penalty>
0.0115847

> <b_epik_Metal_Only>
0

> <s_epik_Chemistry_Notes>
This compound has an imine and may undergo hydrolysis.

> <s_lp_Force_Field>
OPLS_2005

> <r_lp_Energy>
18.8348

> <b_lp_Chiralities_Consistent>
1

> <s_lp_Variant>
AV-unprocessed.smi:2630-1

> <Gold.Version>
5.8.1

> <Gold.Id.Protein>
6NUR|6NUR_protein|mol2

> <Gold.PLP.Fitness>
39.8068

> <Gold.PLP.PLP>
-36.1186

> <Gold.PLP.part.hbond>
-1.7197

> <Gold.PLP.part.metal>
0.0000

> <Gold.PLP.part.buried>
-4.5551

> <Gold.PLP.part.nonpolar>
-30.6544

> <Gold.PLP.part.repulsive>
0.4135

> <Gold.PLP.ligand.clash>
0.0296

> <Gold.PLP.ligand.torsion>
0.8794

> <Gold.PLP.Chemscore.Hbond>
1.8125

> <Gold.PLP.Chemscore.CHOScore>
0.0000

> <Gold.PLP.Chemscore.Metal>
0.0000

> <Gold.Chemscore.Hbonds>
donor molecule, donor type, donor heavy atom, donor atom, acceptor molecule, acceptor atom, score
      P1  H  6896  6908       L1    17  1.00
      P1  H  7989  7998       L1     2  1.00

> <Gold.PLP.Chemscore.Internal.Correction>
0.0391

> <Gold.Rescore>
     Score         DG    S(hbond)    S(metal)    S(lipo)     H(rot)  DE(clash)    DE(int)     intcor
     15.30     -16.86       1.91        0.00      87.99       2.07       0.75       0.81       ----

> <Gold.Chemscore.Fitness>
15.3012

> <Gold.Chemscore.DG>
-16.8550

> <Gold.Chemscore.ZeroCoef>
-5.4800

> <Gold.Chemscore.Hbond>
1.9085

> <Gold.Chemscore.Metal>
0.0000

> <Gold.Chemscore.Lipo>
87.9899

> <Gold.Chemscore.Internal_Hbond>
0.0000

> <Gold.Chemscore.DEClash>
0.7453

> <Gold.Chemscore.DEInternal>
0.8086

> <Gold.Chemscore.Rot>
2.0680

> <Gold.Chemscore.Internal.Correction>
   9.000000E+99

> <Gold.Chemscore.Hbonds>
donor molecule, donor type, donor heavy atom, donor atom, acceptor molecule, acceptor atom, score
      P1  H  6896  6908       L1    17  0.81
      P1  H  7989  7998       L1     2  0.42

> <Gold.Chemscore.Hbond.Weighted>
-6.3744

> <Gold.Chemscore.Metal.Weighted>
-0.0000

> <Gold.Chemscore.Lipo.Weighted>
-10.2948

> <Gold.Chemscore.Internal_Hbond.Weighted>
0.0000

> <Gold.Chemscore.DEClash.Weighted>
0.7453

> <Gold.Chemscore.DEInternal.Weighted>
0.8086

> <Gold.Chemscore.Rot.Weighted>
5.2941

> <Gold.Chemscore.Internal.Correction.Weighted>
   9.000000E+99

> <Gold.Protein.RotatedTorsions>
[ 6907 6896 6895 6894 ] final -112.20 input  -60.11 | X-H torsion
[ 7974 7965 7964 7962 ] final  -49.76 input  175.53 | X-H torsion
[ 8008 7997 7996 7995 ] final   65.25 input   59.86 | X-H torsion
[ 10167 10162 10161 10158 ] final -138.66 input  -65.29 | X-H torsion
[ 10718 10713 10712 10709 ] final  138.84 input   66.30 | X-H torsion
[ 10763 10752 10751 10750 ] final  -10.79 input  -60.55 | X-H torsion
[ 11005 11000 10999 10996 ] final  -29.89 input  -57.11 | X-H torsion

> <Gold.Protein.ActiveResidues>
 VAL166  LYS551  ARG553  GLY616  TRP617  ASP618  TYR619  PRO620  LYS621  CYS622 
 ASP623  PHE694  ASN695  SER759  ASP760  ASP761  ALA762  ILE779  LEU786  VAL792 
 PHE793  MET794  SER795  GLU796  ALA797  LYS798  CYS799  TRP800  GLU811  SER814 

> <Gold.Protein.RotatedAtoms>
  150.7742  133.9124  159.3373 H   0  0  0  0  0  0  0  0  0  0  0  0  # atno 6907 bound_to 6896
  151.7003  135.0929  160.0259 H   0  0  0  0  0  0  0  0  0  0  0  0  # atno 6908 bound_to 6896
  152.3772  133.6459  159.6168 H   0  0  0  0  0  0  0  0  0  0  0  0  # atno 6909 bound_to 6896
  145.9371  140.7697  142.9571 H   0  0  0  0  0  0  0  0  0  0  0  0  # atno 7974 bound_to 7965
  155.6588  140.3497  155.4775 H   0  0  0  0  0  0  0  0  0  0  0  0  # atno 8008 bound_to 7997
  155.9786  140.1170  157.0770 H   0  0  0  0  0  0  0  0  0  0  0  0  # atno 8009 bound_to 7997
  154.4185  140.1143  156.5391 H   0  0  0  0  0  0  0  0  0  0  0  0  # atno 8010 bound_to 7997
  139.8456  143.7265  152.2661 H   0  0  0  0  0  0  0  0  0  0  0  0  # atno 10167 bound_to 10162
  157.4209  131.1038  151.0354 H   0  0  0  0  0  0  0  0  0  0  0  0  # atno 10718 bound_to 10713
  153.4743  135.7017  153.5975 H   0  0  0  0  0  0  0  0  0  0  0  0  # atno 10763 bound_to 10752
  153.4215  135.3824  155.2114 H   0  0  0  0  0  0  0  0  0  0  0  0  # atno 10764 bound_to 10752
  154.8724  135.3929  154.4185 H   0  0  0  0  0  0  0  0  0  0  0  0  # atno 10765 bound_to 10752
  140.9336  133.7323  156.0972 H   0  0  0  0  0  0  0  0  0  0  0  0  # atno 11005 bound_to 11000
  144.6773  140.2220  143.7365 LP  0  0  0  0  0  0  0  0  0  0  0  0  # atno 17320 bound_to 7965
  145.8349  139.2103  143.1861 LP  0  0  0  0  0  0  0  0  0  0  0  0  # atno 17321 bound_to 7965
  139.7516  144.7532  151.0498 LP  0  0  0  0  0  0  0  0  0  0  0  0  # atno 17342 bound_to 10162
  140.7793  143.4854  150.9963 LP  0  0  0  0  0  0  0  0  0  0  0  0  # atno 17343 bound_to 10162
  157.1285  130.6092  149.5523 LP  0  0  0  0  0  0  0  0  0  0  0  0  # atno 17370 bound_to 10713
  155.9880  130.4922  150.7152 LP  0  0  0  0  0  0  0  0  0  0  0  0  # atno 17371 bound_to 10713
  140.7830  134.3704  157.5483 LP  0  0  0  0  0  0  0  0  0  0  0  0  # atno 17394 bound_to 11000
  139.8802  134.9093  156.2988 LP  0  0  0  0  0  0  0  0  0  0  0  0  # atno 17395 bound_to 11000

$$$$
