AV-unprocessed.smi:19|AV-procd|sdf|111|dock2
  -GOLD-   2262015273D 1   1.00000     0.00000
 Structure written by MMmdl.
 57 60  0  0  0  0  0  0  0  0  1 V2000
  151.8043  145.0276  159.1573 C   0  0  0  0  0  0  0  0  0  0  0  0
  152.0391  144.9402  160.5518 O   0  0  0  0  0  0  0  0  0  0  0  0
  151.8305  143.6319  161.0573 C   0  0  0  0  0  0  0  0  0  0  0  0
  152.6603  142.6367  160.2359 C   0  0  2  0  0  0  0  0  0  0  0  0
  151.8375  142.0116  159.0934 C   0  0  0  0  0  0  0  0  0  0  0  0
  152.6255  140.9946  158.4016 N   0  0  0  0  0  0  0  0  0  0  0  0
  152.1579  140.5171  157.2200 C   0  0  0  0  0  0  0  0  0  0  0  0
  152.8941  139.6210  156.5089 N   0  0  0  0  0  0  0  0  0  0  0  0
  152.4447  139.1524  155.3411 C   0  0  0  0  0  0  0  0  0  0  0  0
  151.3047  139.4397  154.7103 N   0  0  0  0  0  0  0  0  0  0  0  0
  150.5584  140.3340  155.4189 C   0  0  0  0  0  0  0  0  0  0  0  0
  150.9047  140.9134  156.6725 C   0  0  0  0  0  0  0  0  0  0  0  0
  149.8866  141.7582  157.0982 N   0  0  0  0  0  0  0  0  0  0  0  0
  148.9957  141.6890  156.1479 C   0  0  0  0  0  0  0  0  0  0  0  0
  149.3247  140.8707  155.0905 N   0  0  0  0  0  0  0  0  0  0  0  0
  148.5183  140.6092  153.9062 C   0  0  0  0  0  0  0  0  0  0  0  0
  147.3517  139.5983  154.1162 C   0  0  0  0  0  0  0  0  0  0  0  0
  146.1926  140.2516  154.9227 C   0  0  0  0  0  0  0  0  0  0  0  0
  145.7012  141.4234  154.3042 O   0  0  0  0  0  0  0  0  0  0  0  0
  146.8701  139.1162  152.7244 C   0  0  0  0  0  0  0  0  0  0  0  0
  145.9217  137.9069  152.8021 C   0  0  0  0  0  0  0  0  0  0  0  0
  146.5599  136.8391  153.4899 O   0  0  0  0  0  0  0  0  0  0  0  0
  146.8799  137.1659  154.8353 C   0  0  0  0  0  0  0  0  0  0  0  0
  147.8667  138.3481  154.8749 C   0  0  0  0  0  0  0  0  0  0  0  0
  153.1666  139.9823  159.3021 C   0  0  0  0  0  0  0  0  0  0  0  0
  153.9446  140.6531  160.4486 C   0  0  2  0  0  0  0  0  0  0  0  0
  154.4303  139.6362  161.4868 C   0  0  0  0  0  0  0  0  0  0  0  0
  153.0931  141.5904  161.1026 O   0  0  0  0  0  0  0  0  0  0  0  0
  151.9697  146.0509  158.8209 H   0  0  0  0  0  0  0  0  0  0  0  0
  150.7773  144.7544  158.9120 H   0  0  0  0  0  0  0  0  0  0  0  0
  152.4817  144.3775  158.6023 H   0  0  0  0  0  0  0  0  0  0  0  0
  152.0979  143.5745  162.1138 H   0  0  0  0  0  0  0  0  0  0  0  0
  150.7710  143.3845  160.9732 H   0  0  0  0  0  0  0  0  0  0  0  0
  153.5257  143.1548  159.8180 H   0  0  0  0  0  0  0  0  0  0  0  0
  150.9289  141.5577  159.4921 H   0  0  0  0  0  0  0  0  0  0  0  0
  151.5336  142.7894  158.3913 H   0  0  0  0  0  0  0  0  0  0  0  0
  153.0919  138.4479  154.8397 H   0  0  0  0  0  0  0  0  0  0  0  0
  148.0685  142.2417  156.1910 H   0  0  0  0  0  0  0  0  0  0  0  0
  148.1335  141.5618  153.5398 H   0  0  0  0  0  0  0  0  0  0  0  0
  149.1902  140.2483  153.1262 H   0  0  0  0  0  0  0  0  0  0  0  0
  145.3518  139.5702  155.0404 H   0  0  0  0  0  0  0  0  0  0  0  0
  146.5144  140.5052  155.9328 H   0  0  0  0  0  0  0  0  0  0  0  0
  145.0086  141.1796  153.7083 H   0  0  0  0  0  0  0  0  0  0  0  0
  146.3902  139.9279  152.1768 H   0  0  0  0  0  0  0  0  0  0  0  0
  147.7328  138.8250  152.1235 H   0  0  0  0  0  0  0  0  0  0  0  0
  144.9796  138.1636  153.2874 H   0  0  0  0  0  0  0  0  0  0  0  0
  145.6714  137.5694  151.7964 H   0  0  0  0  0  0  0  0  0  0  0  0
  145.9706  137.3809  155.3972 H   0  0  0  0  0  0  0  0  0  0  0  0
  147.3324  136.2924  155.3048 H   0  0  0  0  0  0  0  0  0  0  0  0
  148.8072  138.0173  154.4321 H   0  0  0  0  0  0  0  0  0  0  0  0
  148.0890  138.5927  155.9140 H   0  0  0  0  0  0  0  0  0  0  0  0
  152.3410  139.3922  159.7027 H   0  0  0  0  0  0  0  0  0  0  0  0
  153.8226  139.2896  158.7764 H   0  0  0  0  0  0  0  0  0  0  0  0
  154.8122  141.1782  160.0449 H   0  0  0  0  0  0  0  0  0  0  0  0
  155.0882  138.8950  161.0324 H   0  0  0  0  0  0  0  0  0  0  0  0
  153.5931  139.1068  161.9425 H   0  0  0  0  0  0  0  0  0  0  0  0
  154.9866  140.1293  162.2844 H   0  0  0  0  0  0  0  0  0  0  0  0
  1  2  1  0  0  0  0
  1 29  1  0  0  0  0
  1 30  1  0  0  0  0
  1 31  1  0  0  0  0
  2  3  1  0  0  0  0
  3  4  1  0  0  0  0
  3 32  1  0  0  0  0
  3 33  1  0  0  0  0
  4 28  1  0  0  0  0
  4  5  1  0  0  0  0
  4 34  1  0  0  0  0
  5  6  1  0  0  0  0
  5 35  1  0  0  0  0
  5 36  1  0  0  0  0
  6  7  1  0  0  0  0
  6 25  1  0  0  0  0
  7 12  1  0  0  0  0
  7  8  2  0  0  0  0
  8  9  1  0  0  0  0
  9 10  2  0  0  0  0
  9 37  1  0  0  0  0
 10 11  1  0  0  0  0
 11 15  1  0  0  0  0
 11 12  2  0  0  0  0
 12 13  1  0  0  0  0
 13 14  2  0  0  0  0
 14 15  1  0  0  0  0
 14 38  1  0  0  0  0
 15 16  1  0  0  0  0
 16 17  1  0  0  0  0
 16 39  1  0  0  0  0
 16 40  1  0  0  0  0
 17 24  1  0  0  0  0
 17 18  1  0  0  0  0
 17 20  1  0  0  0  0
 18 19  1  0  0  0  0
 18 41  1  0  0  0  0
 18 42  1  0  0  0  0
 19 43  1  0  0  0  0
 20 21  1  0  0  0  0
 20 44  1  0  0  0  0
 20 45  1  0  0  0  0
 21 22  1  0  0  0  0
 21 46  1  0  0  0  0
 21 47  1  0  0  0  0
 22 23  1  0  0  0  0
 23 24  1  0  0  0  0
 23 48  1  0  0  0  0
 23 49  1  0  0  0  0
 24 50  1  0  0  0  0
 24 51  1  0  0  0  0
 25 26  1  0  0  0  0
 25 52  1  0  0  0  0
 25 53  1  0  0  0  0
 26 27  1  0  0  0  0
 26 28  1  0  0  0  0
 26 54  1  0  0  0  0
 27 55  1  0  0  0  0
 27 56  1  0  0  0  0
 27 57  1  0  0  0  0
M  END
> <s_m_source_file>
AV-unprocessed.smi

> <i_m_source_file_index>
19

> <i_lp_mmshare_version>
43012

> <i_f3d_flags>
0

> <s_epik_input>
W0NIM11PW0NIMl1bQ0BASF0xW0NIMl1OKFtDSDJdW0NASF0oTzEpW0NIM10pYyhuW2NIXW4yKWMoYzIzKW5bY0hdbjNbQ0gyXUM0KFtDSDJdW09IXSlbQ0gyXVtDSDJdT1tDSDJdW0NIMl00

> <s_epik_cmdline>
J2VwaWtfcHl0aG9uJywgJy1waCcsICc3LjAnLCAnLXRuJywgJzgnLCAnLW1hJywgJzIwMCcsICctbWV0YWxfYmluZGluZycsICctaW1hZScsICc8aW5maWxlLm1hZT4nLCAnLW9tYWUnLCAnPG91dGZpbGUubWFlPic=

> <r_lp_tautomer_probability>
1

> <r_epik_Ionization_Penalty>
6.20357e-05

> <r_epik_Ionization_Penalty_Charging>
0

> <r_epik_Ionization_Penalty_Neutral>
6.20357e-05

> <r_epik_State_Penalty>
-0

> <r_epik_Charging_Adjusted_Penalty>
0

> <i_epik_Tot_Q>
0

> <i_epik_Tot_abs_Q>
0

> <r_epik_Metal_State_Penalty>
-0

> <b_epik_Metal_Only>
0

> <s_lp_Force_Field>
OPLS_2005

> <r_lp_Energy>
33.9592

> <b_lp_Chiralities_Consistent>
1

> <s_lp_Variant>
AV-unprocessed.smi:19-3

> <Gold.Version>
5.8.1

> <Gold.Id.Protein>
6NUR|6NUR_protein|mol2

> <Gold.PLP.Fitness>
51.4531

> <Gold.PLP.PLP>
-44.8722

> <Gold.PLP.part.hbond>
-3.0917

> <Gold.PLP.part.metal>
0.0000

> <Gold.PLP.part.buried>
-2.4310

> <Gold.PLP.part.nonpolar>
-39.3460

> <Gold.PLP.part.repulsive>
1.0445

> <Gold.PLP.ligand.clash>
0.0000

> <Gold.PLP.ligand.torsion>
1.0703

> <Gold.PLP.Chemscore.Hbond>
2.4000

> <Gold.PLP.Chemscore.CHOScore>
0.3825

> <Gold.PLP.Chemscore.Metal>
0.0000

> <Gold.Chemscore.Hbonds>
donor molecule, donor type, donor heavy atom, donor atom, acceptor molecule, acceptor atom, score
      L1  H    19    43       P1 10175  1.00
      P1  H  7989  7998       L1    10  0.35
      P1  H  7997  8008       L1     8  1.00
      L1  C    14    38       P1  8028  0.32

> <Gold.PLP.Chemscore.Internal.Correction>
0.3739

> <Gold.Rescore>
     Score         DG    S(hbond)    S(metal)    S(lipo)     H(rot)  DE(clash)    DE(int)     intcor
     12.69     -15.53       1.64        0.00     102.06       2.87       0.29       2.56       ----

> <Gold.Chemscore.Fitness>
12.6869

> <Gold.Chemscore.DG>
-15.5349

> <Gold.Chemscore.ZeroCoef>
-5.4800

> <Gold.Chemscore.Hbond>
1.6373

> <Gold.Chemscore.Metal>
0.0000

> <Gold.Chemscore.Lipo>
102.0602

> <Gold.Chemscore.Internal_Hbond>
0.0000

> <Gold.Chemscore.DEClash>
0.2912

> <Gold.Chemscore.DEInternal>
2.5568

> <Gold.Chemscore.Rot>
2.8729

> <Gold.Chemscore.Internal.Correction>
   9.000000E+99

> <Gold.Chemscore.Hbonds>
donor molecule, donor type, donor heavy atom, donor atom, acceptor molecule, acceptor atom, score
      L1  H    19    43       P1 10175  0.55
      P1  H  7997  8008       L1     8  0.52

> <Gold.Chemscore.Hbond.Weighted>
-5.4684

> <Gold.Chemscore.Metal.Weighted>
-0.0000

> <Gold.Chemscore.Lipo.Weighted>
-11.9410

> <Gold.Chemscore.Internal_Hbond.Weighted>
0.0000

> <Gold.Chemscore.DEClash.Weighted>
0.2912

> <Gold.Chemscore.DEInternal.Weighted>
2.5568

> <Gold.Chemscore.Rot.Weighted>
7.3546

> <Gold.Chemscore.Internal.Correction.Weighted>
   9.000000E+99

> <Gold.Protein.RotatedTorsions>
[ 6907 6896 6895 6894 ] final -160.37 input  -60.11 | X-H torsion
[ 7974 7965 7964 7962 ] final  -60.28 input  175.53 | X-H torsion
[ 8008 7997 7996 7995 ] final  -43.09 input   59.86 | X-H torsion
[ 10167 10162 10161 10158 ] final  142.57 input  -65.29 | X-H torsion
[ 10718 10713 10712 10709 ] final -119.69 input   66.30 | X-H torsion
[ 10763 10752 10751 10750 ] final   50.61 input  -60.55 | X-H torsion
[ 11005 11000 10999 10996 ] final  101.70 input  -57.11 | X-H torsion

> <Gold.Protein.ActiveResidues>
 VAL166  LYS551  ARG553  GLY616  TRP617  ASP618  TYR619  PRO620  LYS621  CYS622 
 ASP623  PHE694  ASN695  SER759  ASP760  ASP761  ALA762  ILE779  LEU786  VAL792 
 PHE793  MET794  SER795  GLU796  ALA797  LYS798  CYS799  TRP800  GLU811  SER814 

> <Gold.Protein.RotatedAtoms>
  151.3480  133.3936  159.2677 H   0  0  0  0  0  0  0  0  0  0  0  0  # atno 6907 bound_to 6896
  150.9824  134.9177  159.7862 H   0  0  0  0  0  0  0  0  0  0  0  0  # atno 6908 bound_to 6896
  152.5221  134.3444  159.9281 H   0  0  0  0  0  0  0  0  0  0  0  0  # atno 6909 bound_to 6896
  145.8174  140.8561  143.0150 H   0  0  0  0  0  0  0  0  0  0  0  0  # atno 7974 bound_to 7965
  154.3997  140.1457  156.3462 H   0  0  0  0  0  0  0  0  0  0  0  0  # atno 8008 bound_to 7997
  155.8311  140.3466  155.5552 H   0  0  0  0  0  0  0  0  0  0  0  0  # atno 8009 bound_to 7997
  155.8187  140.0894  157.1852 H   0  0  0  0  0  0  0  0  0  0  0  0  # atno 8010 bound_to 7997
  139.4991  144.6098  151.6297 H   0  0  0  0  0  0  0  0  0  0  0  0  # atno 10167 bound_to 10162
  156.1200  130.6316  150.9448 H   0  0  0  0  0  0  0  0  0  0  0  0  # atno 10718 bound_to 10713
  152.9784  135.5873  154.4280 H   0  0  0  0  0  0  0  0  0  0  0  0  # atno 10763 bound_to 10752
  154.3896  135.2767  155.2164 H   0  0  0  0  0  0  0  0  0  0  0  0  # atno 10764 bound_to 10752
  154.4042  135.6096  153.5969 H   0  0  0  0  0  0  0  0  0  0  0  0  # atno 10765 bound_to 10752
  139.8774  134.9194  156.4946 H   0  0  0  0  0  0  0  0  0  0  0  0  # atno 11005 bound_to 11000
  144.6751  140.0483  143.7479 LP  0  0  0  0  0  0  0  0  0  0  0  0  # atno 17320 bound_to 7965
  145.9712  139.2871  143.1098 LP  0  0  0  0  0  0  0  0  0  0  0  0  # atno 17321 bound_to 7965
  140.5770  144.0012  150.6247 LP  0  0  0  0  0  0  0  0  0  0  0  0  # atno 17342 bound_to 10162
  140.3148  143.3175  152.0843 LP  0  0  0  0  0  0  0  0  0  0  0  0  # atno 17343 bound_to 10162
  157.6384  131.0913  150.8302 LP  0  0  0  0  0  0  0  0  0  0  0  0  # atno 17370 bound_to 10713
  156.8400  130.5044  149.5322 LP  0  0  0  0  0  0  0  0  0  0  0  0  # atno 17371 bound_to 10713
  140.8633  133.8043  155.9288 LP  0  0  0  0  0  0  0  0  0  0  0  0  # atno 17394 bound_to 11000
  140.9027  134.2359  157.5032 LP  0  0  0  0  0  0  0  0  0  0  0  0  # atno 17395 bound_to 11000

$$$$
