AV-unprocessed.smi:2263|AV-procd|sdf|9140|dock9
  -GOLD-   2272012343D 1   1.00000     0.00000
 Structure written by MMmdl.
 40 41  0  0  0  0  0  0  0  0  1 V2000
  149.9520  133.1123  153.6458 C   0  0  0  0  0  0  0  0  0  0  0  0
  150.2720  134.2735  154.5811 C   0  0  0  0  0  0  0  0  0  0  0  0
  150.8062  134.0606  155.6691 O   0  0  0  0  0  0  0  0  0  0  0  0
  149.9375  135.4974  154.1459 N   0  0  0  0  0  0  0  0  0  0  0  0
  150.1459  136.7349  154.8890 C   0  0  0  0  0  0  0  0  0  0  0  0
  150.6169  137.8726  153.9691 C   0  0  0  0  0  0  0  0  0  0  0  0
  150.4735  139.2147  154.6039 C   0  0  0  0  0  0  0  0  0  0  0  0
  151.3956  139.7541  155.4055 N   0  0  0  0  0  0  0  0  0  0  0  0
  151.0131  141.0044  155.9014 C   0  0  0  0  0  0  0  0  0  0  0  0
  151.9329  141.7635  156.8092 C   0  0  0  0  0  0  0  0  0  0  0  0
  151.3069  142.0225  158.1890 C   0  0  0  0  0  0  0  0  0  0  0  0
  151.9864  143.1683  158.9601 C   0  0  0  0  0  0  0  0  0  0  0  0
  152.0045  142.9564  160.4771 C   0  0  0  0  0  0  0  0  0  0  0  0
  152.1756  144.3530  161.0894 C   0  0  0  0  0  0  0  0  0  0  0  0
  151.8293  145.3587  159.9815 C   0  0  0  0  0  0  0  0  0  0  0  0
  151.3020  144.5295  158.8080 C   0  0  0  0  0  0  0  0  0  0  0  0
  149.7732  141.4023  155.4670 C   0  0  0  0  0  0  0  0  0  0  0  0
  149.0384  140.2165  154.4239 S   0  0  0  0  0  0  0  0  0  0  0  0
  148.8915  133.1075  153.3921 H   0  0  0  0  0  0  0  0  0  0  0  0
  150.1940  132.1582  154.1154 H   0  0  0  0  0  0  0  0  0  0  0  0
  150.5287  133.1953  152.7242 H   0  0  0  0  0  0  0  0  0  0  0  0
  149.5033  135.5773  153.2377 H   0  0  0  0  0  0  0  0  0  0  0  0
  149.2296  137.0178  155.4100 H   0  0  0  0  0  0  0  0  0  0  0  0
  150.8946  136.5458  155.6590 H   0  0  0  0  0  0  0  0  0  0  0  0
  151.6617  137.7252  153.6921 H   0  0  0  0  0  0  0  0  0  0  0  0
  150.0454  137.8706  153.0403 H   0  0  0  0  0  0  0  0  0  0  0  0
  152.8661  141.2130  156.9336 H   0  0  0  0  0  0  0  0  0  0  0  0
  152.2061  142.7116  156.3452 H   0  0  0  0  0  0  0  0  0  0  0  0
  150.2419  142.2320  158.0780 H   0  0  0  0  0  0  0  0  0  0  0  0
  151.3770  141.1100  158.7825 H   0  0  0  0  0  0  0  0  0  0  0  0
  153.0199  143.2627  158.6220 H   0  0  0  0  0  0  0  0  0  0  0  0
  151.0527  142.5354  160.8044 H   0  0  0  0  0  0  0  0  0  0  0  0
  152.7905  142.2681  160.7893 H   0  0  0  0  0  0  0  0  0  0  0  0
  151.5272  144.4758  161.9579 H   0  0  0  0  0  0  0  0  0  0  0  0
  153.2020  144.5050  161.4258 H   0  0  0  0  0  0  0  0  0  0  0  0
  151.1047  146.1041  160.3103 H   0  0  0  0  0  0  0  0  0  0  0  0
  152.7313  145.8919  159.6785 H   0  0  0  0  0  0  0  0  0  0  0  0
  151.5066  144.9997  157.8458 H   0  0  0  0  0  0  0  0  0  0  0  0
  150.2208  144.4158  158.8984 H   0  0  0  0  0  0  0  0  0  0  0  0
  149.2483  142.3170  155.6990 H   0  0  0  0  0  0  0  0  0  0  0  0
  1  2  1  0  0  0  0
  1 19  1  0  0  0  0
  1 20  1  0  0  0  0
  1 21  1  0  0  0  0
  2  3  2  0  0  0  0
  2  4  1  0  0  0  0
  4  5  1  0  0  0  0
  4 22  1  0  0  0  0
  5  6  1  0  0  0  0
  5 23  1  0  0  0  0
  5 24  1  0  0  0  0
  6  7  1  0  0  0  0
  6 25  1  0  0  0  0
  6 26  1  0  0  0  0
  7 18  1  0  0  0  0
  7  8  2  0  0  0  0
  8  9  1  0  0  0  0
  9 10  1  0  0  0  0
  9 17  2  0  0  0  0
 10 11  1  0  0  0  0
 10 27  1  0  0  0  0
 10 28  1  0  0  0  0
 11 12  1  0  0  0  0
 11 29  1  0  0  0  0
 11 30  1  0  0  0  0
 12 16  1  0  0  0  0
 12 13  1  0  0  0  0
 12 31  1  0  0  0  0
 13 14  1  0  0  0  0
 13 32  1  0  0  0  0
 13 33  1  0  0  0  0
 14 15  1  0  0  0  0
 14 34  1  0  0  0  0
 14 35  1  0  0  0  0
 15 16  1  0  0  0  0
 15 36  1  0  0  0  0
 15 37  1  0  0  0  0
 16 38  1  0  0  0  0
 16 39  1  0  0  0  0
 17 18  1  0  0  0  0
 17 40  1  0  0  0  0
M  END
> <s_m_source_file>
AV-unprocessed.smi

> <i_m_source_file_index>
2263

> <i_lp_mmshare_version>
43012

> <i_f3d_flags>
0

> <s_epik_input>
W0NIM11DKD1PKVtOSF1bQ0gyXVtDSDJdYzFuYyhbY0hdczEpW0NIMl1bQ0gyXVtDSF0yW0NIMl1bQ0gyXVtDSDJdW0NIMl0y

> <s_epik_cmdline>
J2VwaWtfcHl0aG9uJywgJy1waCcsICc3LjAnLCAnLXRuJywgJzgnLCAnLW1hJywgJzIwMCcsICctbWV0YWxfYmluZGluZycsICctaW1hZScsICc8aW5maWxlLm1hZT4nLCAnLW9tYWUnLCAnPG91dGZpbGUubWFlPic=

> <r_epik_Ionization_Penalty>
0.00116713

> <r_epik_Ionization_Penalty_Charging>
0

> <r_epik_Ionization_Penalty_Neutral>
0.00116713

> <r_epik_State_Penalty>
0.000768465

> <r_epik_Charging_Adjusted_Penalty>
0.000768465

> <i_epik_Tot_Q>
0

> <i_epik_Tot_abs_Q>
0

> <r_epik_Metal_State_Penalty>
-0

> <b_epik_Metal_Only>
0

> <s_lp_Force_Field>
OPLS_2005

> <r_lp_Energy>
10.4461

> <b_lp_Chiralities_Consistent>
1

> <s_lp_Variant>
AV-unprocessed.smi:2263-1

> <Gold.Version>
5.8.1

> <Gold.Id.Protein>
6NUR|6NUR_protein|mol2

> <Gold.PLP.Fitness>
44.1428

> <Gold.PLP.PLP>
-40.3047

> <Gold.PLP.part.hbond>
-1.1488

> <Gold.PLP.part.metal>
0.0000

> <Gold.PLP.part.buried>
-4.6455

> <Gold.PLP.part.nonpolar>
-34.4932

> <Gold.PLP.part.repulsive>
0.0576

> <Gold.PLP.ligand.clash>
0.0000

> <Gold.PLP.ligand.torsion>
1.1135

> <Gold.PLP.Chemscore.Hbond>
1.0000

> <Gold.PLP.Chemscore.CHOScore>
1.0000

> <Gold.PLP.Chemscore.Metal>
0.0000

> <Gold.Chemscore.Hbonds>
donor molecule, donor type, donor heavy atom, donor atom, acceptor molecule, acceptor atom, score
      L1  H     4    22       P1  7948  0.70
      L1  C    17    40       P1  8028  1.00

> <Gold.PLP.Chemscore.Internal.Correction>
0.0652

> <Gold.Rescore>
     Score         DG    S(hbond)    S(metal)    S(lipo)     H(rot)  DE(clash)    DE(int)     intcor
     15.42     -18.17       0.94        0.00     121.07       1.80       1.57       1.19       ----

> <Gold.Chemscore.Fitness>
15.4154

> <Gold.Chemscore.DG>
-18.1744

> <Gold.Chemscore.ZeroCoef>
-5.4800

> <Gold.Chemscore.Hbond>
0.9370

> <Gold.Chemscore.Metal>
0.0000

> <Gold.Chemscore.Lipo>
121.0741

> <Gold.Chemscore.Internal_Hbond>
0.0000

> <Gold.Chemscore.DEClash>
1.5722

> <Gold.Chemscore.DEInternal>
1.1868

> <Gold.Chemscore.Rot>
1.7972

> <Gold.Chemscore.Internal.Correction>
   9.000000E+99

> <Gold.Chemscore.Hbonds>
donor molecule, donor type, donor heavy atom, donor atom, acceptor molecule, acceptor atom, score
      L1  H     4    22       P1  7948  0.07

> <Gold.Chemscore.Hbond.Weighted>
-3.1296

> <Gold.Chemscore.Metal.Weighted>
-0.0000

> <Gold.Chemscore.Lipo.Weighted>
-14.1657

> <Gold.Chemscore.Internal_Hbond.Weighted>
0.0000

> <Gold.Chemscore.DEClash.Weighted>
1.5722

> <Gold.Chemscore.DEInternal.Weighted>
1.1868

> <Gold.Chemscore.Rot.Weighted>
4.6008

> <Gold.Chemscore.Internal.Correction.Weighted>
   9.000000E+99

> <Gold.Protein.RotatedTorsions>
[ 6907 6896 6895 6894 ] final -116.37 input  -60.11 | X-H torsion
[ 7974 7965 7964 7962 ] final  -64.10 input  175.53 | X-H torsion
[ 8008 7997 7996 7995 ] final   79.81 input   59.86 | X-H torsion
[ 10167 10162 10161 10158 ] final  105.92 input  -65.29 | X-H torsion
[ 10718 10713 10712 10709 ] final -114.46 input   66.30 | X-H torsion
[ 10763 10752 10751 10750 ] final -141.14 input  -60.55 | X-H torsion
[ 11005 11000 10999 10996 ] final   73.69 input  -57.11 | X-H torsion

> <Gold.Protein.ActiveResidues>
 VAL166  LYS551  ARG553  GLY616  TRP617  ASP618  TYR619  PRO620  LYS621  CYS622 
 ASP623  PHE694  ASN695  SER759  ASP760  ASP761  ALA762  ILE779  LEU786  VAL792 
 PHE793  MET794  SER795  GLU796  ALA797  LYS798  CYS799  TRP800  GLU811  SER814 

> <Gold.Protein.RotatedAtoms>
  150.8051  133.8526  159.3209 H   0  0  0  0  0  0  0  0  0  0  0  0  # atno 6907 bound_to 6896
  151.6327  135.1019  160.0134 H   0  0  0  0  0  0  0  0  0  0  0  0  # atno 6908 bound_to 6896
  152.4141  133.6970  159.6458 H   0  0  0  0  0  0  0  0  0  0  0  0  # atno 6909 bound_to 6896
  145.7709  140.8813  143.0381 H   0  0  0  0  0  0  0  0  0  0  0  0  # atno 7974 bound_to 7965
  155.8748  140.3447  155.5846 H   0  0  0  0  0  0  0  0  0  0  0  0  # atno 8008 bound_to 7997
  155.7787  140.0855  157.2090 H   0  0  0  0  0  0  0  0  0  0  0  0  # atno 8009 bound_to 7997
  154.4020  140.1505  156.3014 H   0  0  0  0  0  0  0  0  0  0  0  0  # atno 8010 bound_to 7997
  139.7052  144.7087  151.1119 H   0  0  0  0  0  0  0  0  0  0  0  0  # atno 10167 bound_to 10162
  156.0831  130.6028  150.8777 H   0  0  0  0  0  0  0  0  0  0  0  0  # atno 10718 bound_to 10713
  154.8555  135.3533  154.5821 H   0  0  0  0  0  0  0  0  0  0  0  0  # atno 10763 bound_to 10752
  153.6432  135.6997  153.5239 H   0  0  0  0  0  0  0  0  0  0  0  0  # atno 10764 bound_to 10752
  153.2954  135.4222  155.1164 H   0  0  0  0  0  0  0  0  0  0  0  0  # atno 10765 bound_to 10752
  139.9427  134.7369  156.1057 H   0  0  0  0  0  0  0  0  0  0  0  0  # atno 11005 bound_to 11000
  144.6813  139.9853  143.7484 LP  0  0  0  0  0  0  0  0  0  0  0  0  # atno 17320 bound_to 7965
  146.0171  139.3219  143.0835 LP  0  0  0  0  0  0  0  0  0  0  0  0  # atno 17321 bound_to 7965
  140.7720  143.5369  150.9358 LP  0  0  0  0  0  0  0  0  0  0  0  0  # atno 17342 bound_to 10162
  139.9052  143.6788  152.3125 LP  0  0  0  0  0  0  0  0  0  0  0  0  # atno 17343 bound_to 10162
  157.5956  131.0943  150.9047 LP  0  0  0  0  0  0  0  0  0  0  0  0  # atno 17370 bound_to 10713
  156.9214  130.5316  149.5279 LP  0  0  0  0  0  0  0  0  0  0  0  0  # atno 17371 bound_to 10713
  141.1068  133.6657  156.2882 LP  0  0  0  0  0  0  0  0  0  0  0  0  # atno 17394 bound_to 11000
  140.5910  134.5650  157.5499 LP  0  0  0  0  0  0  0  0  0  0  0  0  # atno 17395 bound_to 11000

$$$$
