AV-unprocessed.smi:1023|AV-procd|sdf|4462|dock7
  -GOLD-   22720 2433D 1   1.00000     0.00000
 Structure written by MMmdl.
 32 33  0  0  0  0  0  0  0  0  1 V2000
  146.1998  142.7090  153.9297 C   0  0  0  0  0  0  0  0  0  0  0  0
  146.9599  141.3895  153.7075 C   0  0  0  0  0  0  0  0  0  0  0  0
  146.6135  140.3771  154.8093 C   0  0  0  0  0  0  0  0  0  0  0  0
  148.4869  141.5883  153.6131 C   0  0  0  0  0  0  0  0  0  0  0  0
  149.0438  142.1652  154.8333 N   0  0  0  0  0  0  0  0  0  0  0  0
  150.0217  141.6299  155.5835 C   0  0  0  0  0  0  0  0  0  0  0  0
  150.5772  140.5708  155.2971 O   0  0  0  0  0  0  0  0  0  0  0  0
  150.3778  142.3215  156.6874 N   0  0  0  0  0  0  0  0  0  0  0  0
  151.3530  142.0642  157.6946 C   0  0  0  0  0  0  0  0  0  0  0  0
  152.0906  140.9472  157.7751 N   0  0  0  0  0  0  0  0  0  0  0  0
  152.9672  140.9770  158.8496 N   0  0  0  0  0  0  0  0  0  0  0  0
  152.8758  142.1147  159.5479 C   0  0  0  0  0  0  0  0  0  0  0  0
  153.7197  142.3818  160.7496 C   0  0  0  0  0  0  0  0  0  0  0  0
  153.8703  141.3407  161.8349 C   0  0  0  0  0  0  0  0  0  0  0  0
  153.1058  142.6091  162.1141 C   0  0  0  0  0  0  0  0  0  0  0  0
  151.6908  143.2620  158.9332 S   0  0  0  0  0  0  0  0  0  0  0  0
  146.5338  143.2087  154.8395 H   0  0  0  0  0  0  0  0  0  0  0  0
  145.1278  142.5332  154.0209 H   0  0  0  0  0  0  0  0  0  0  0  0
  146.3416  143.3997  153.0984 H   0  0  0  0  0  0  0  0  0  0  0  0
  146.6178  140.9681  152.7611 H   0  0  0  0  0  0  0  0  0  0  0  0
  146.9263  140.7363  155.7904 H   0  0  0  0  0  0  0  0  0  0  0  0
  147.1051  139.4201  154.6329 H   0  0  0  0  0  0  0  0  0  0  0  0
  145.5398  140.1911  154.8496 H   0  0  0  0  0  0  0  0  0  0  0  0
  148.9771  140.6467  153.3601 H   0  0  0  0  0  0  0  0  0  0  0  0
  148.7162  142.2754  152.7981 H   0  0  0  0  0  0  0  0  0  0  0  0
  148.6431  143.0396  155.1425 H   0  0  0  0  0  0  0  0  0  0  0  0
  149.8871  143.1962  156.8027 H   0  0  0  0  0  0  0  0  0  0  0  0
  154.5957  142.9692  160.4813 H   0  0  0  0  0  0  0  0  0  0  0  0
  153.2969  140.4209  161.7368 H   0  0  0  0  0  0  0  0  0  0  0  0
  154.8517  141.2322  162.2919 H   0  0  0  0  0  0  0  0  0  0  0  0
  153.5771  143.3477  162.7591 H   0  0  0  0  0  0  0  0  0  0  0  0
  152.0255  142.5256  162.2141 H   0  0  0  0  0  0  0  0  0  0  0  0
  1  2  1  0  0  0  0
  1 17  1  0  0  0  0
  1 18  1  0  0  0  0
  1 19  1  0  0  0  0
  2  3  1  0  0  0  0
  2  4  1  0  0  0  0
  2 20  1  0  0  0  0
  3 21  1  0  0  0  0
  3 22  1  0  0  0  0
  3 23  1  0  0  0  0
  4  5  1  0  0  0  0
  4 24  1  0  0  0  0
  4 25  1  0  0  0  0
  5  6  1  0  0  0  0
  5 26  1  0  0  0  0
  6  7  2  0  0  0  0
  6  8  1  0  0  0  0
  8  9  1  0  0  0  0
  8 27  1  0  0  0  0
  9 16  1  0  0  0  0
  9 10  2  0  0  0  0
 10 11  1  0  0  0  0
 11 12  2  0  0  0  0
 12 13  1  0  0  0  0
 12 16  1  0  0  0  0
 13 15  1  0  0  0  0
 13 14  1  0  0  0  0
 13 28  1  0  0  0  0
 14 15  1  0  0  0  0
 14 29  1  0  0  0  0
 14 30  1  0  0  0  0
 15 31  1  0  0  0  0
 15 32  1  0  0  0  0
M  END
> <s_m_source_file>
AV-unprocessed.smi

> <i_m_source_file_index>
1023

> <i_lp_mmshare_version>
43012

> <i_f3d_flags>
0

> <s_epik_input>
W0NIM11bQ0hdKFtDSDNdKVtDSDJdW05IXUMoPU8pW05IXWMxbm5jKHMxKVtDSF0yW0NIMl1bQ0gyXTI=

> <s_epik_cmdline>
J2VwaWtfcHl0aG9uJywgJy1waCcsICc3LjAnLCAnLXRuJywgJzgnLCAnLW1hJywgJzIwMCcsICctbWV0YWxfYmluZGluZycsICctaW1hZScsICc8aW5maWxlLm1hZT4nLCAnLW9tYWUnLCAnPG91dGZpbGUubWFlPic=

> <r_lp_tautomer_probability>
1

> <r_epik_Ionization_Penalty>
0.000943136

> <r_epik_Ionization_Penalty_Charging>
0

> <r_epik_Ionization_Penalty_Neutral>
0.000943136

> <r_epik_State_Penalty>
-0

> <r_epik_Charging_Adjusted_Penalty>
0

> <i_epik_Tot_Q>
0

> <i_epik_Tot_abs_Q>
0

> <r_epik_Metal_State_Penalty>
0.281646

> <b_epik_Metal_Only>
0

> <s_lp_Force_Field>
OPLS_2005

> <r_lp_Energy>
5.4251

> <b_lp_Chiralities_Consistent>
1

> <s_lp_Variant>
AV-unprocessed.smi:1023-1

> <Gold.Version>
5.8.1

> <Gold.Id.Protein>
6NUR|6NUR_protein|mol2

> <Gold.PLP.Fitness>
40.8987

> <Gold.PLP.PLP>
-33.8086

> <Gold.PLP.part.hbond>
-3.0000

> <Gold.PLP.part.metal>
0.0000

> <Gold.PLP.part.buried>
-1.5339

> <Gold.PLP.part.nonpolar>
-27.6932

> <Gold.PLP.part.repulsive>
0.4072

> <Gold.PLP.ligand.clash>
0.0000

> <Gold.PLP.ligand.torsion>
0.1587

> <Gold.PLP.Chemscore.Hbond>
2.4251

> <Gold.PLP.Chemscore.CHOScore>
0.0000

> <Gold.PLP.Chemscore.Metal>
0.0000

> <Gold.Chemscore.Hbonds>
donor molecule, donor type, donor heavy atom, donor atom, acceptor molecule, acceptor atom, score
      L1  H     5    26       P1  8028  0.99
      L1  H     8    27       P1  8028  0.59
      P1  H  7989  7998       L1     7  0.78

> <Gold.PLP.Chemscore.Internal.Correction>
0.1320

> <Gold.Rescore>
     Score         DG    S(hbond)    S(metal)    S(lipo)     H(rot)  DE(clash)    DE(int)     intcor
     14.89     -18.07       2.07        0.00      79.54       1.42       1.75       1.43       ----

> <Gold.Chemscore.Fitness>
14.8936

> <Gold.Chemscore.DG>
-18.0721

> <Gold.Chemscore.ZeroCoef>
-5.4800

> <Gold.Chemscore.Hbond>
2.0716

> <Gold.Chemscore.Metal>
0.0000

> <Gold.Chemscore.Lipo>
79.5392

> <Gold.Chemscore.Internal_Hbond>
0.0000

> <Gold.Chemscore.DEClash>
1.7497

> <Gold.Chemscore.DEInternal>
1.4287

> <Gold.Chemscore.Rot>
1.4193

> <Gold.Chemscore.Internal.Correction>
   9.000000E+99

> <Gold.Chemscore.Hbonds>
donor molecule, donor type, donor heavy atom, donor atom, acceptor molecule, acceptor atom, score
      L1  H     5    26       P1  8028  0.94
      L1  H     8    27       P1  8028  0.59
      P1  H  7989  7998       L1     7  0.45

> <Gold.Chemscore.Hbond.Weighted>
-6.9193

> <Gold.Chemscore.Metal.Weighted>
-0.0000

> <Gold.Chemscore.Lipo.Weighted>
-9.3061

> <Gold.Chemscore.Internal_Hbond.Weighted>
0.0000

> <Gold.Chemscore.DEClash.Weighted>
1.7497

> <Gold.Chemscore.DEInternal.Weighted>
1.4287

> <Gold.Chemscore.Rot.Weighted>
3.6333

> <Gold.Chemscore.Internal.Correction.Weighted>
   9.000000E+99

> <Gold.Protein.RotatedTorsions>
[ 6907 6896 6895 6894 ] final -140.42 input  -60.11 | X-H torsion
[ 7974 7965 7964 7962 ] final  165.00 input  175.53 | X-H torsion
[ 8008 7997 7996 7995 ] final  -99.15 input   59.86 | X-H torsion
[ 10167 10162 10161 10158 ] final  159.37 input  -65.29 | X-H torsion
[ 10718 10713 10712 10709 ] final  111.00 input   66.30 | X-H torsion
[ 10763 10752 10751 10750 ] final  144.39 input  -60.55 | X-H torsion
[ 11005 11000 10999 10996 ] final -138.40 input  -57.11 | X-H torsion

> <Gold.Protein.ActiveResidues>
 VAL166  LYS551  ARG553  GLY616  TRP617  ASP618  TYR619  PRO620  LYS621  CYS622 
 ASP623  PHE694  ASN695  SER759  ASP760  ASP761  ALA762  ILE779  LEU786  VAL792 
 PHE793  MET794  SER795  GLU796  ALA797  LYS798  CYS799  TRP800  GLU811  SER814 

> <Gold.Protein.RotatedAtoms>
  151.0604  133.5548  159.2634 H   0  0  0  0  0  0  0  0  0  0  0  0  # atno 6907 bound_to 6896
  151.2526  135.0626  159.9077 H   0  0  0  0  0  0  0  0  0  0  0  0  # atno 6908 bound_to 6896
  152.5396  134.0363  159.8101 H   0  0  0  0  0  0  0  0  0  0  0  0  # atno 6909 bound_to 6896
  144.7521  139.8407  143.6362 H   0  0  0  0  0  0  0  0  0  0  0  0  # atno 7974 bound_to 7965
  154.8108  140.0450  157.1341 H   0  0  0  0  0  0  0  0  0  0  0  0  # atno 8008 bound_to 7997
  154.9370  140.3047  155.5119 H   0  0  0  0  0  0  0  0  0  0  0  0  # atno 8009 bound_to 7997
  156.2971  140.2312  156.4436 H   0  0  0  0  0  0  0  0  0  0  0  0  # atno 8010 bound_to 7997
  139.4832  144.4737  151.8541 H   0  0  0  0  0  0  0  0  0  0  0  0  # atno 10167 bound_to 10162
  157.6467  131.0943  150.6684 H   0  0  0  0  0  0  0  0  0  0  0  0  # atno 10718 bound_to 10713
  153.9880  135.2935  155.3414 H   0  0  0  0  0  0  0  0  0  0  0  0  # atno 10763 bound_to 10752
  154.7231  135.5100  153.8846 H   0  0  0  0  0  0  0  0  0  0  0  0  # atno 10764 bound_to 10752
  153.0823  135.6682  154.0136 H   0  0  0  0  0  0  0  0  0  0  0  0  # atno 10765 bound_to 10752
  140.8620  134.2157  157.4702 H   0  0  0  0  0  0  0  0  0  0  0  0  # atno 11005 bound_to 11000
  146.1484  139.4561  143.0064 LP  0  0  0  0  0  0  0  0  0  0  0  0  # atno 17320 bound_to 7965
  145.6908  141.0165  143.1556 LP  0  0  0  0  0  0  0  0  0  0  0  0  # atno 17321 bound_to 7965
  140.4207  144.2247  150.5887 LP  0  0  0  0  0  0  0  0  0  0  0  0  # atno 17342 bound_to 10162
  140.4876  143.2358  151.8865 LP  0  0  0  0  0  0  0  0  0  0  0  0  # atno 17343 bound_to 10162
  156.7000  130.4620  149.5575 LP  0  0  0  0  0  0  0  0  0  0  0  0  # atno 17370 bound_to 10713
  156.1802  130.6494  151.0942 LP  0  0  0  0  0  0  0  0  0  0  0  0  # atno 17371 bound_to 10713
  139.8707  134.9734  156.4807 LP  0  0  0  0  0  0  0  0  0  0  0  0  # atno 17394 bound_to 11000
  140.8672  133.8015  155.9326 LP  0  0  0  0  0  0  0  0  0  0  0  0  # atno 17395 bound_to 11000

$$$$
