AV-unprocessed.smi:1263|AV-procd|sdf|5310|dock4
  -GOLD-   22720 4433D 1   1.00000     0.00000
 Structure written by MMmdl.
 44 46  0  0  0  0  0  0  0  0  2 V2000
  146.2964  132.8825  151.6225 C   0  0  0  0  0  0  0  0  0  0  0  0
  147.3354  133.3289  152.4869 O   0  0  0  0  0  0  0  0  0  0  0  0
  148.0158  132.3910  153.2401 C   0  0  0  0  0  0  0  0  0  0  0  0
  147.6100  131.0976  153.1801 N   0  0  0  0  0  0  0  0  0  0  0  0
  148.2694  130.1822  153.9193 C   0  0  0  0  0  0  0  0  0  0  0  0
  149.3538  130.5038  154.7559 C   0  0  0  0  0  0  0  0  0  0  0  0
  149.7770  131.8442  154.8194 C   0  0  0  0  0  0  0  0  0  0  0  0
  149.1051  132.8148  154.0372 C   0  0  0  0  0  0  0  0  0  0  0  0
  149.4383  134.1975  154.0418 N   0  0  0  0  0  0  0  0  0  0  0  0
  150.2285  134.8650  154.8994 C   0  0  0  0  0  0  0  0  0  0  0  0
  150.8288  134.3671  155.8516 O   0  0  0  0  0  0  0  0  0  0  0  0
  150.3039  136.1648  154.5783 N   0  0  0  0  0  0  0  0  0  0  0  0
  151.1014  137.1602  155.2889 C   0  0  2  0  0  0  0  0  0  0  0  0
  150.6543  137.2835  156.7582 C   0  0  0  0  0  0  0  0  0  0  0  0
  151.4275  138.4000  157.4797 C   0  0  0  0  0  0  0  0  0  0  0  0
  151.2742  139.6970  156.7749 N   0  3  1  0  0  0  0  0  0  0  0  0
  151.9174  140.8089  157.5084 C   0  0  0  0  0  0  0  0  0  0  0  0
  151.2888  141.0934  158.8528 C   0  0  0  0  0  0  0  0  0  0  0  0
  151.0272  142.0171  157.6840 C   0  0  0  0  0  0  0  0  0  0  0  0
  151.7349  139.6160  155.3665 C   0  0  0  0  0  0  0  0  0  0  0  0
  150.9701  138.5265  154.5958 C   0  0  0  0  0  0  0  0  0  0  0  0
  145.8629  133.7394  151.1070 H   0  0  0  0  0  0  0  0  0  0  0  0
  145.4963  132.3931  152.1798 H   0  0  0  0  0  0  0  0  0  0  0  0
  146.6755  132.1971  150.8631 H   0  0  0  0  0  0  0  0  0  0  0  0
  147.9174  129.1638  153.8473 H   0  0  0  0  0  0  0  0  0  0  0  0
  149.8465  129.7410  155.3400 H   0  0  0  0  0  0  0  0  0  0  0  0
  150.5942  132.1013  155.4749 H   0  0  0  0  0  0  0  0  0  0  0  0
  149.0863  134.7259  153.2568 H   0  0  0  0  0  0  0  0  0  0  0  0
  149.7818  136.4853  153.7757 H   0  0  0  0  0  0  0  0  0  0  0  0
  152.1508  136.8600  155.2591 H   0  0  0  0  0  0  0  0  0  0  0  0
  149.5847  137.4938  156.8052 H   0  0  0  0  0  0  0  0  0  0  0  0
  150.8062  136.3389  157.2818 H   0  0  0  0  0  0  0  0  0  0  0  0
  151.0607  138.4937  158.5024 H   0  0  0  0  0  0  0  0  0  0  0  0
  152.4859  138.1426  157.5454 H   0  0  0  0  0  0  0  0  0  0  0  0
  152.9896  140.9290  157.3623 H   0  0  0  0  0  0  0  0  0  0  0  0
  150.4682  140.4595  159.1841 H   0  0  0  0  0  0  0  0  0  0  0  0
  151.9391  141.4619  159.6435 H   0  0  0  0  0  0  0  0  0  0  0  0
  151.5051  142.9946  157.7052 H   0  0  0  0  0  0  0  0  0  0  0  0
  150.0337  141.9954  157.2397 H   0  0  0  0  0  0  0  0  0  0  0  0
  151.5864  140.5792  154.8771 H   0  0  0  0  0  0  0  0  0  0  0  0
  152.8066  139.4115  155.3432 H   0  0  0  0  0  0  0  0  0  0  0  0
  151.3465  138.4662  153.5738 H   0  0  0  0  0  0  0  0  0  0  0  0
  149.9182  138.8070  154.5221 H   0  0  0  0  0  0  0  0  0  0  0  0
  150.2854  139.9006  156.7486 H   0  0  0  0  0  0  0  0  0  0  0  0
  1  2  1  0  0  0  0
  1 22  1  0  0  0  0
  1 23  1  0  0  0  0
  1 24  1  0  0  0  0
  2  3  1  0  0  0  0
  3  8  1  0  0  0  0
  3  4  2  0  0  0  0
  4  5  1  0  0  0  0
  5  6  2  0  0  0  0
  5 25  1  0  0  0  0
  6  7  1  0  0  0  0
  6 26  1  0  0  0  0
  7  8  2  0  0  0  0
  7 27  1  0  0  0  0
  8  9  1  0  0  0  0
  9 10  1  0  0  0  0
  9 28  1  0  0  0  0
 10 11  2  0  0  0  0
 10 12  1  0  0  0  0
 12 13  1  0  0  0  0
 12 29  1  0  0  0  0
 13 21  1  0  0  0  0
 13 14  1  0  0  0  0
 13 30  1  0  0  0  0
 14 15  1  0  0  0  0
 14 31  1  0  0  0  0
 14 32  1  0  0  0  0
 15 16  1  0  0  0  0
 15 33  1  0  0  0  0
 15 34  1  0  0  0  0
 16 17  1  0  0  0  0
 16 20  1  0  0  0  0
 16 44  1  0  0  0  0
 17 19  1  0  0  0  0
 17 18  1  0  0  0  0
 17 35  1  0  0  0  0
 18 19  1  0  0  0  0
 18 36  1  0  0  0  0
 18 37  1  0  0  0  0
 19 38  1  0  0  0  0
 19 39  1  0  0  0  0
 20 21  1  0  0  0  0
 20 40  1  0  0  0  0
 20 41  1  0  0  0  0
 21 42  1  0  0  0  0
 21 43  1  0  0  0  0
M  CHG  1  16   1
M  END
> <s_m_source_file>
AV-unprocessed.smi

> <i_m_source_file_index>
1263

> <i_lp_mmshare_version>
43012

> <i_f3d_flags>
0

> <s_epik_input>
W0NIM11PYzFuW2NIXVtjSF1bY0hdYzFbTkhdQyg9TylbTkhdW0NIXTJbQ0gyXVtDSDJdTihbQ0gyXVtDSDJdMilbQ0hdM1tDSDJdW0NIMl0z

> <s_epik_cmdline>
J2VwaWtfcHl0aG9uJywgJy1waCcsICc3LjAnLCAnLXRuJywgJzgnLCAnLW1hJywgJzIwMCcsICctbWV0YWxfYmluZGluZycsICctaW1hZScsICc8aW5maWxlLm1hZT4nLCAnLW9tYWUnLCAnPG91dGZpbGUubWFlPic=

> <r_lp_tautomer_probability>
1

> <r_epik_Ionization_Penalty>
0.115628

> <r_epik_Ionization_Penalty_Charging>
0.115549

> <r_epik_Ionization_Penalty_Neutral>
7.89431e-05

> <r_epik_State_Penalty>
0.105184

> <r_epik_Charging_Adjusted_Penalty>
0.220733

> <i_epik_Tot_Q>
1

> <i_epik_Tot_abs_Q>
1

> <r_epik_Metal_State_Penalty>
0.105186

> <b_epik_Metal_Only>
0

> <s_lp_Force_Field>
OPLS_2005

> <r_lp_Energy>
28.8205

> <b_lp_Chiralities_Consistent>
1

> <s_lp_Variant>
AV-unprocessed.smi:1263-1

> <Gold.Version>
5.8.1

> <Gold.Id.Protein>
6NUR|6NUR_protein|mol2

> <Gold.PLP.Fitness>
38.1198

> <Gold.PLP.PLP>
-33.5421

> <Gold.PLP.part.hbond>
-2.6380

> <Gold.PLP.part.metal>
0.0000

> <Gold.PLP.part.buried>
-4.5737

> <Gold.PLP.part.nonpolar>
-27.8122

> <Gold.PLP.part.repulsive>
0.4956

> <Gold.PLP.ligand.clash>
0.0000

> <Gold.PLP.ligand.torsion>
0.7437

> <Gold.PLP.Chemscore.Hbond>
1.6000

> <Gold.PLP.Chemscore.CHOScore>
0.0000

> <Gold.PLP.Chemscore.Metal>
0.0000

> <Gold.Chemscore.Hbonds>
donor molecule, donor type, donor heavy atom, donor atom, acceptor molecule, acceptor atom, score
      L1  H     9    28       P1  7948  0.70
      L1  H    12    29       P1  7948  0.91

> <Gold.PLP.Chemscore.Internal.Correction>
1.2653

> <Gold.Rescore>
     Score         DG    S(hbond)    S(metal)    S(lipo)     H(rot)  DE(clash)    DE(int)     intcor
     11.26     -13.33       0.80        0.00      75.70       1.43       0.06       2.02       ----

> <Gold.Chemscore.Fitness>
11.2630

> <Gold.Chemscore.DG>
-13.3338

> <Gold.Chemscore.ZeroCoef>
-5.4800

> <Gold.Chemscore.Hbond>
0.7972

> <Gold.Chemscore.Metal>
0.0000

> <Gold.Chemscore.Lipo>
75.6971

> <Gold.Chemscore.Internal_Hbond>
0.0000

> <Gold.Chemscore.DEClash>
0.0556

> <Gold.Chemscore.DEInternal>
2.0153

> <Gold.Chemscore.Rot>
1.4318

> <Gold.Chemscore.Internal.Correction>
   9.000000E+99

> <Gold.Chemscore.Hbonds>
donor molecule, donor type, donor heavy atom, donor atom, acceptor molecule, acceptor atom, score
      L1  H     9    28       P1  7948  0.07
      L1  H    12    29       P1  7948  0.38

> <Gold.Chemscore.Hbond.Weighted>
-2.6626

> <Gold.Chemscore.Metal.Weighted>
-0.0000

> <Gold.Chemscore.Lipo.Weighted>
-8.8566

> <Gold.Chemscore.Internal_Hbond.Weighted>
0.0000

> <Gold.Chemscore.DEClash.Weighted>
0.0556

> <Gold.Chemscore.DEInternal.Weighted>
2.0153

> <Gold.Chemscore.Rot.Weighted>
3.6653

> <Gold.Chemscore.Internal.Correction.Weighted>
   9.000000E+99

> <Gold.Protein.RotatedTorsions>
[ 6907 6896 6895 6894 ] final   -1.07 input  -60.11 | X-H torsion
[ 7974 7965 7964 7962 ] final  -22.97 input  175.53 | X-H torsion
[ 8008 7997 7996 7995 ] final -150.95 input   59.86 | X-H torsion
[ 10167 10162 10161 10158 ] final   54.58 input  -65.29 | X-H torsion
[ 10718 10713 10712 10709 ] final  162.80 input   66.30 | X-H torsion
[ 10763 10752 10751 10750 ] final  106.62 input  -60.55 | X-H torsion
[ 11005 11000 10999 10996 ] final -167.61 input  -57.11 | X-H torsion

> <Gold.Protein.ActiveResidues>
 VAL166  LYS551  ARG553  GLY616  TRP617  ASP618  TYR619  PRO620  LYS621  CYS622 
 ASP623  PHE694  ASN695  SER759  ASP760  ASP761  ALA762  ILE779  LEU786  VAL792 
 PHE793  MET794  SER795  GLU796  ALA797  LYS798  CYS799  TRP800  GLU811  SER814 

> <Gold.Protein.RotatedAtoms>
  151.5521  135.1067  159.9951 H   0  0  0  0  0  0  0  0  0  0  0  0  # atno 6907 bound_to 6896
  152.4487  133.7582  159.6742 H   0  0  0  0  0  0  0  0  0  0  0  0  # atno 6908 bound_to 6896
  150.8409  133.7871  159.3085 H   0  0  0  0  0  0  0  0  0  0  0  0  # atno 6909 bound_to 6896
  146.1644  140.4552  142.8558 H   0  0  0  0  0  0  0  0  0  0  0  0  # atno 7974 bound_to 7965
  155.6317  140.0692  157.2647 H   0  0  0  0  0  0  0  0  0  0  0  0  # atno 8008 bound_to 7997
  154.4204  140.1766  156.1528 H   0  0  0  0  0  0  0  0  0  0  0  0  # atno 8009 bound_to 7997
  155.9927  140.3343  155.6772 H   0  0  0  0  0  0  0  0  0  0  0  0  # atno 8010 bound_to 7997
  140.2286  144.3711  150.6423 H   0  0  0  0  0  0  0  0  0  0  0  0  # atno 10167 bound_to 10162
  157.1174  131.0483  151.2430 H   0  0  0  0  0  0  0  0  0  0  0  0  # atno 10718 bound_to 10713
  153.3955  135.3871  155.1952 H   0  0  0  0  0  0  0  0  0  0  0  0  # atno 10763 bound_to 10752
  154.8724  135.3758  154.4684 H   0  0  0  0  0  0  0  0  0  0  0  0  # atno 10764 bound_to 10752
  153.5175  135.7087  153.5810 H   0  0  0  0  0  0  0  0  0  0  0  0  # atno 10765 bound_to 10752
  140.5513  134.5425  157.5123 H   0  0  0  0  0  0  0  0  0  0  0  0  # atno 11005 bound_to 11000
  144.8072  140.6320  143.6439 LP  0  0  0  0  0  0  0  0  0  0  0  0  # atno 17320 bound_to 7965
  145.4505  139.1524  143.3921 LP  0  0  0  0  0  0  0  0  0  0  0  0  # atno 17321 bound_to 7965
  140.6202  143.2175  151.6710 LP  0  0  0  0  0  0  0  0  0  0  0  0  # atno 17342 bound_to 10162
  139.5118  144.3497  152.0664 LP  0  0  0  0  0  0  0  0  0  0  0  0  # atno 17343 bound_to 10162
  157.4506  130.7596  149.7148 LP  0  0  0  0  0  0  0  0  0  0  0  0  # atno 17370 bound_to 10713
  155.9836  130.3999  150.3354 LP  0  0  0  0  0  0  0  0  0  0  0  0  # atno 17371 bound_to 10713
  139.9454  134.7712  156.0576 LP  0  0  0  0  0  0  0  0  0  0  0  0  # atno 17394 bound_to 11000
  141.1170  133.6625  156.3118 LP  0  0  0  0  0  0  0  0  0  0  0  0  # atno 17395 bound_to 11000

$$$$
