AV-unprocessed.smi:2114|AV-procd|sdf|8619|dock5
  -GOLD-   2272011363D 1   1.00000     0.00000
 Structure written by MMmdl.
 47 48  0  0  0  0  0  0  0  0  1 V2000
  148.6660  132.9824  153.0997 C   0  0  0  0  0  0  0  0  0  0  0  0
  149.4161  133.0633  154.2985 O   0  0  0  0  0  0  0  0  0  0  0  0
  149.6740  134.4016  154.6920 C   0  0  0  0  0  0  0  0  0  0  0  0
  150.6010  134.4138  155.9199 C   0  0  2  0  0  0  0  0  0  0  0  0
  150.0076  133.6033  157.0804 C   0  0  0  0  0  0  0  0  0  0  0  0
  150.8318  135.7848  156.3687 N   0  0  0  0  0  0  0  0  0  0  0  0
  151.2839  136.7944  155.6062 C   0  0  0  0  0  0  0  0  0  0  0  0
  151.5933  136.6704  154.4213 O   0  0  0  0  0  0  0  0  0  0  0  0
  151.4571  138.1083  156.3116 C   0  0  0  0  0  0  0  0  0  0  0  0
  151.6115  139.3184  155.6011 C   0  0  0  0  0  0  0  0  0  0  0  0
  151.7927  140.5163  156.3184 C   0  0  0  0  0  0  0  0  0  0  0  0
  151.8229  140.4771  157.7321 C   0  0  0  0  0  0  0  0  0  0  0  0
  152.0000  141.6675  158.4688 N   0  0  0  0  0  0  0  0  0  0  0  0
  151.0815  142.7536  158.1393 C   0  0  0  0  0  0  0  0  0  0  0  0
  151.5629  144.0872  158.7436 C   0  0  2  0  0  0  0  0  0  0  0  0
  152.7511  144.7078  157.9871 C   0  0  0  0  0  0  0  0  0  0  0  0
  151.8327  143.9295  160.1387 O   0  0  0  0  0  0  0  0  0  0  0  0
  152.7723  142.9026  160.4539 C   0  0  1  0  0  0  0  0  0  0  0  0
  152.9419  142.8653  161.9763 C   0  0  0  0  0  0  0  0  0  0  0  0
  152.2713  141.5574  159.8993 C   0  0  0  0  0  0  0  0  0  0  0  0
  151.6927  139.3119  158.4121 N   0  0  0  0  0  0  0  0  0  0  0  0
  151.5191  138.1657  157.7202 C   0  0  0  0  0  0  0  0  0  0  0  0
  148.4976  131.9365  152.8438 H   0  0  0  0  0  0  0  0  0  0  0  0
  149.1973  133.4506  152.2700 H   0  0  0  0  0  0  0  0  0  0  0  0
  147.6934  133.4636  153.2097 H   0  0  0  0  0  0  0  0  0  0  0  0
  150.1240  134.9608  153.8698 H   0  0  0  0  0  0  0  0  0  0  0  0
  148.7290  134.8891  154.9374 H   0  0  0  0  0  0  0  0  0  0  0  0
  151.5492  133.9468  155.6471 H   0  0  0  0  0  0  0  0  0  0  0  0
  149.8453  132.5647  156.7907 H   0  0  0  0  0  0  0  0  0  0  0  0
  149.0492  134.0120  157.4027 H   0  0  0  0  0  0  0  0  0  0  0  0
  150.6768  133.6025  157.9414 H   0  0  0  0  0  0  0  0  0  0  0  0
  150.6279  135.9831  157.3372 H   0  0  0  0  0  0  0  0  0  0  0  0
  151.5995  139.3402  154.5211 H   0  0  0  0  0  0  0  0  0  0  0  0
  151.9228  141.4433  155.7803 H   0  0  0  0  0  0  0  0  0  0  0  0
  150.9520  142.8692  157.0640 H   0  0  0  0  0  0  0  0  0  0  0  0
  150.1005  142.5025  158.5449 H   0  0  0  0  0  0  0  0  0  0  0  0
  150.7395  144.7984  158.6731 H   0  0  0  0  0  0  0  0  0  0  0  0
  152.4737  144.9404  156.9589 H   0  0  0  0  0  0  0  0  0  0  0  0
  153.6105  144.0389  157.9452 H   0  0  0  0  0  0  0  0  0  0  0  0
  153.0713  145.6363  158.4601 H   0  0  0  0  0  0  0  0  0  0  0  0
  153.7403  143.1422  160.0132 H   0  0  0  0  0  0  0  0  0  0  0  0
  153.6615  142.1020  162.2730 H   0  0  0  0  0  0  0  0  0  0  0  0
  151.9964  142.6456  162.4731 H   0  0  0  0  0  0  0  0  0  0  0  0
  153.3007  143.8240  162.3519 H   0  0  0  0  0  0  0  0  0  0  0  0
  151.3596  141.2517  160.4146 H   0  0  0  0  0  0  0  0  0  0  0  0
  153.0237  140.7892  160.0829 H   0  0  0  0  0  0  0  0  0  0  0  0
  151.4219  137.2706  158.3171 H   0  0  0  0  0  0  0  0  0  0  0  0
  1  2  1  0  0  0  0
  1 23  1  0  0  0  0
  1 24  1  0  0  0  0
  1 25  1  0  0  0  0
  2  3  1  0  0  0  0
  3  4  1  0  0  0  0
  3 26  1  0  0  0  0
  3 27  1  0  0  0  0
  4  5  1  0  0  0  0
  4  6  1  0  0  0  0
  4 28  1  0  0  0  0
  5 29  1  0  0  0  0
  5 30  1  0  0  0  0
  5 31  1  0  0  0  0
  6  7  1  0  0  0  0
  6 32  1  0  0  0  0
  7  8  2  0  0  0  0
  7  9  1  0  0  0  0
  9 22  1  0  0  0  0
  9 10  2  0  0  0  0
 10 11  1  0  0  0  0
 10 33  1  0  0  0  0
 11 12  2  0  0  0  0
 11 34  1  0  0  0  0
 12 13  1  0  0  0  0
 12 21  1  0  0  0  0
 13 20  1  0  0  0  0
 13 14  1  0  0  0  0
 14 15  1  0  0  0  0
 14 35  1  0  0  0  0
 14 36  1  0  0  0  0
 15 16  1  0  0  0  0
 15 17  1  0  0  0  0
 15 37  1  0  0  0  0
 16 38  1  0  0  0  0
 16 39  1  0  0  0  0
 16 40  1  0  0  0  0
 17 18  1  0  0  0  0
 18 19  1  0  0  0  0
 18 20  1  0  0  0  0
 18 41  1  0  0  0  0
 19 42  1  0  0  0  0
 19 43  1  0  0  0  0
 19 44  1  0  0  0  0
 20 45  1  0  0  0  0
 20 46  1  0  0  0  0
 21 22  2  0  0  0  0
 22 47  1  0  0  0  0
M  END
> <s_m_source_file>
AV-unprocessed.smi

> <i_m_source_file_index>
2114

> <i_lp_mmshare_version>
43012

> <i_f3d_flags>
0

> <s_epik_input>
W0NIM11PW0NIMl1bQ0BIXShbQ0gzXSlbTkhdQyg9TyljMVtjSF1bY0hdYyhuW2NIXTEpTjJbQ0gyXVtDQEBIXShbQ0gzXSlPW0NAQEhdKFtDSDNdKVtDSDJdMg==

> <s_epik_cmdline>
J2VwaWtfcHl0aG9uJywgJy1waCcsICc3LjAnLCAnLXRuJywgJzgnLCAnLW1hJywgJzIwMCcsICctbWV0YWxfYmluZGluZycsICctaW1hZScsICc8aW5maWxlLm1hZT4nLCAnLW9tYWUnLCAnPG91dGZpbGUubWFlPic=

> <r_lp_tautomer_probability>
1

> <r_epik_Ionization_Penalty>
1.92915e-05

> <r_epik_Ionization_Penalty_Charging>
0

> <r_epik_Ionization_Penalty_Neutral>
1.92915e-05

> <r_epik_State_Penalty>
-0

> <r_epik_Charging_Adjusted_Penalty>
0

> <i_epik_Tot_Q>
0

> <i_epik_Tot_abs_Q>
0

> <r_epik_Metal_State_Penalty>
-0

> <b_epik_Metal_Only>
0

> <s_lp_Force_Field>
OPLS_2005

> <r_lp_Energy>
21.9464

> <b_lp_Chiralities_Consistent>
1

> <s_lp_Variant>
AV-unprocessed.smi:2114-3

> <Gold.Version>
5.8.1

> <Gold.Id.Protein>
6NUR|6NUR_protein|mol2

> <Gold.PLP.Fitness>
44.5679

> <Gold.PLP.PLP>
-41.9062

> <Gold.PLP.part.hbond>
-1.0000

> <Gold.PLP.part.metal>
0.0000

> <Gold.PLP.part.buried>
-7.6630

> <Gold.PLP.part.nonpolar>
-34.6040

> <Gold.PLP.part.repulsive>
1.1386

> <Gold.PLP.ligand.clash>
0.0000

> <Gold.PLP.ligand.torsion>
0.3446

> <Gold.PLP.Chemscore.Hbond>
1.0000

> <Gold.PLP.Chemscore.CHOScore>
0.0000

> <Gold.PLP.Chemscore.Metal>
0.0000

> <Gold.Chemscore.Hbonds>
donor molecule, donor type, donor heavy atom, donor atom, acceptor molecule, acceptor atom, score
      P1  H 10752 10764       L1     8  1.00

> <Gold.PLP.Chemscore.Internal.Correction>
0.3508

> <Gold.Rescore>
     Score         DG    S(hbond)    S(metal)    S(lipo)     H(rot)  DE(clash)    DE(int)     intcor
     17.52     -18.07       1.00        0.00     112.47       1.52       0.07       0.48       ----

> <Gold.Chemscore.Fitness>
17.5164

> <Gold.Chemscore.DG>
-18.0699

> <Gold.Chemscore.ZeroCoef>
-5.4800

> <Gold.Chemscore.Hbond>
0.9968

> <Gold.Chemscore.Metal>
0.0000

> <Gold.Chemscore.Lipo>
112.4668

> <Gold.Chemscore.Internal_Hbond>
0.0000

> <Gold.Chemscore.DEClash>
0.0692

> <Gold.Chemscore.DEInternal>
0.4843

> <Gold.Chemscore.Rot>
1.5226

> <Gold.Chemscore.Internal.Correction>
   9.000000E+99

> <Gold.Chemscore.Hbonds>
donor molecule, donor type, donor heavy atom, donor atom, acceptor molecule, acceptor atom, score
      P1  H 10752 10764       L1     8  0.60

> <Gold.Chemscore.Hbond.Weighted>
-3.3292

> <Gold.Chemscore.Metal.Weighted>
-0.0000

> <Gold.Chemscore.Lipo.Weighted>
-13.1586

> <Gold.Chemscore.Internal_Hbond.Weighted>
0.0000

> <Gold.Chemscore.DEClash.Weighted>
0.0692

> <Gold.Chemscore.DEInternal.Weighted>
0.4843

> <Gold.Chemscore.Rot.Weighted>
3.8980

> <Gold.Chemscore.Internal.Correction.Weighted>
   9.000000E+99

> <Gold.Protein.RotatedTorsions>
[ 6907 6896 6895 6894 ] final   26.83 input  -60.11 | X-H torsion
[ 7974 7965 7964 7962 ] final   44.87 input  175.53 | X-H torsion
[ 8008 7997 7996 7995 ] final   52.08 input   59.86 | X-H torsion
[ 10167 10162 10161 10158 ] final   21.54 input  -65.29 | X-H torsion
[ 10718 10713 10712 10709 ] final   51.05 input   66.30 | X-H torsion
[ 10763 10752 10751 10750 ] final  -72.10 input  -60.55 | X-H torsion
[ 11005 11000 10999 10996 ] final -152.82 input  -57.11 | X-H torsion

> <Gold.Protein.ActiveResidues>
 VAL166  LYS551  ARG553  GLY616  TRP617  ASP618  TYR619  PRO620  LYS621  CYS622 
 ASP623  PHE694  ASN695  SER759  ASP760  ASP761  ALA762  ILE779  LEU786  VAL792 
 PHE793  MET794  SER795  GLU796  ALA797  LYS798  CYS799  TRP800  GLU811  SER814 

> <Gold.Protein.RotatedAtoms>
  151.9933  134.9967  160.0562 H   0  0  0  0  0  0  0  0  0  0  0  0  # atno 6907 bound_to 6896
  152.1588  133.4563  159.4858 H   0  0  0  0  0  0  0  0  0  0  0  0  # atno 6908 bound_to 6896
  150.6885  134.2016  159.4367 H   0  0  0  0  0  0  0  0  0  0  0  0  # atno 6909 bound_to 6896
  146.0531  139.5027  142.9706 H   0  0  0  0  0  0  0  0  0  0  0  0  # atno 7974 bound_to 7965
  155.4459  140.3456  155.4295 H   0  0  0  0  0  0  0  0  0  0  0  0  # atno 8008 bound_to 7997
  156.1250  140.1498  156.9180 H   0  0  0  0  0  0  0  0  0  0  0  0  # atno 8009 bound_to 7997
  154.4851  140.0858  156.7448 H   0  0  0  0  0  0  0  0  0  0  0  0  # atno 8010 bound_to 7997
  140.5418  143.9663  150.6524 H   0  0  0  0  0  0  0  0  0  0  0  0  # atno 10167 bound_to 10162
  157.4944  130.8396  149.8240 H   0  0  0  0  0  0  0  0  0  0  0  0  # atno 10718 bound_to 10713
  154.4410  135.5941  153.6129 H   0  0  0  0  0  0  0  0  0  0  0  0  # atno 10763 bound_to 10752
  152.9805  135.5998  154.3722 H   0  0  0  0  0  0  0  0  0  0  0  0  # atno 10764 bound_to 10752
  154.3572  135.2841  155.2318 H   0  0  0  0  0  0  0  0  0  0  0  0  # atno 10765 bound_to 10752
  140.7148  134.3792  157.5192 H   0  0  0  0  0  0  0  0  0  0  0  0  # atno 11005 bound_to 11000
  145.6691  141.0221  143.1667 LP  0  0  0  0  0  0  0  0  0  0  0  0  # atno 17320 bound_to 7965
  144.7133  139.8289  143.7407 LP  0  0  0  0  0  0  0  0  0  0  0  0  # atno 17321 bound_to 7965
  140.3066  143.3225  152.0920 LP  0  0  0  0  0  0  0  0  0  0  0  0  # atno 17342 bound_to 10162
  139.4992  144.6663  151.6348 LP  0  0  0  0  0  0  0  0  0  0  0  0  # atno 17343 bound_to 10162
  156.0192  130.3802  150.2016 LP  0  0  0  0  0  0  0  0  0  0  0  0  # atno 17370 bound_to 10713
  157.0205  130.9978  151.3341 LP  0  0  0  0  0  0  0  0  0  0  0  0  # atno 17371 bound_to 10713
  139.8862  134.8915  156.2596 LP  0  0  0  0  0  0  0  0  0  0  0  0  # atno 17394 bound_to 11000
  141.0053  133.7127  156.1025 LP  0  0  0  0  0  0  0  0  0  0  0  0  # atno 17395 bound_to 11000

$$$$
