AV-unprocessed.smi:818|AV-procd|sdf|3833|dock5
  -GOLD-   22720 1273D 1   1.00000     0.00000
 Structure written by MMmdl.
 44 45  0  0  0  0  0  0  0  0  1 V2000
  152.3555  140.5270  158.5708 C   0  0  0  0  0  0  0  0  0  0  0  0
  151.8922  141.2749  157.3149 C   0  0  0  0  0  0  0  0  0  0  0  0
  151.6092  140.3637  156.2235 N   0  0  0  0  0  0  0  0  0  0  0  0
  150.4002  140.1285  155.5998 C   0  0  0  0  0  0  0  0  0  0  0  0
  150.6506  139.1866  154.6477 C   0  0  0  0  0  0  0  0  0  0  0  0
  149.6782  138.6430  153.7721 N   0  0  0  0  0  0  0  0  0  0  0  0
  148.3994  139.0291  153.6374 C   0  0  0  0  0  0  0  0  0  0  0  0
  147.8501  139.9080  154.3018 O   0  0  0  0  0  0  0  0  0  0  0  0
  147.7791  138.3274  152.6775 N   0  0  0  0  0  0  0  0  0  0  0  0
  146.3781  138.4824  152.2884 C   0  0  1  0  0  0  0  0  0  0  0  0
  146.3384  138.7890  150.7819 C   0  0  0  0  0  0  0  0  0  0  0  0
  145.5950  137.1805  152.5253 C   0  0  0  0  0  0  0  0  0  0  0  0
  144.5100  137.1936  153.1094 O   0  0  0  0  0  0  0  0  0  0  0  0
  146.1751  136.0562  152.0784 N   0  0  0  0  0  0  0  0  0  0  0  0
  145.6241  134.7107  152.2149 C   0  0  0  0  0  0  0  0  0  0  0  0
  146.4929  133.6850  151.4616 C   0  0  0  0  0  0  0  0  0  0  0  0
  145.5275  132.8445  150.6238 C   0  0  0  0  0  0  0  0  0  0  0  0
  144.3691  133.7894  150.3204 C   0  0  0  0  0  0  0  0  0  0  0  0
  144.2143  134.6145  151.5987 C   0  0  0  0  0  0  0  0  0  0  0  0
  152.0396  138.8908  154.7492 C   0  0  0  0  0  0  0  0  0  0  0  0
  152.6090  139.6080  155.7063 N   0  0  0  0  0  0  0  0  0  0  0  0
  152.5618  141.2245  159.3828 H   0  0  0  0  0  0  0  0  0  0  0  0
  153.2676  139.9608  158.3796 H   0  0  0  0  0  0  0  0  0  0  0  0
  151.5933  139.8284  158.9170 H   0  0  0  0  0  0  0  0  0  0  0  0
  150.9919  141.8513  157.5300 H   0  0  0  0  0  0  0  0  0  0  0  0
  152.6542  141.9862  156.9929 H   0  0  0  0  0  0  0  0  0  0  0  0
  149.4910  140.6383  155.8834 H   0  0  0  0  0  0  0  0  0  0  0  0
  149.9921  137.8900  153.1776 H   0  0  0  0  0  0  0  0  0  0  0  0
  148.3077  137.6188  152.1903 H   0  0  0  0  0  0  0  0  0  0  0  0
  145.9212  139.3038  152.8441 H   0  0  0  0  0  0  0  0  0  0  0  0
  145.3146  138.9278  150.4320 H   0  0  0  0  0  0  0  0  0  0  0  0
  146.7864  137.9880  150.1919 H   0  0  0  0  0  0  0  0  0  0  0  0
  146.8827  139.7069  150.5576 H   0  0  0  0  0  0  0  0  0  0  0  0
  147.0662  136.1375  151.6104 H   0  0  0  0  0  0  0  0  0  0  0  0
  145.5782  134.4368  153.2708 H   0  0  0  0  0  0  0  0  0  0  0  0
  147.1940  134.1896  150.7944 H   0  0  0  0  0  0  0  0  0  0  0  0
  147.0844  133.0697  152.1405 H   0  0  0  0  0  0  0  0  0  0  0  0
  145.9923  132.4450  149.7221 H   0  0  0  0  0  0  0  0  0  0  0  0
  145.1668  132.0011  151.2138 H   0  0  0  0  0  0  0  0  0  0  0  0
  144.6361  134.4440  149.4895 H   0  0  0  0  0  0  0  0  0  0  0  0
  143.4552  133.2604  150.0487 H   0  0  0  0  0  0  0  0  0  0  0  0
  143.5577  134.0846  152.2902 H   0  0  0  0  0  0  0  0  0  0  0  0
  143.7561  135.5855  151.4050 H   0  0  0  0  0  0  0  0  0  0  0  0
  152.6456  138.1983  154.1846 H   0  0  0  0  0  0  0  0  0  0  0  0
  1  2  1  0  0  0  0
  1 22  1  0  0  0  0
  1 23  1  0  0  0  0
  1 24  1  0  0  0  0
  2  3  1  0  0  0  0
  2 25  1  0  0  0  0
  2 26  1  0  0  0  0
  3 21  1  0  0  0  0
  3  4  1  0  0  0  0
  4  5  2  0  0  0  0
  4 27  1  0  0  0  0
  5  6  1  0  0  0  0
  5 20  1  0  0  0  0
  6  7  1  0  0  0  0
  6 28  1  0  0  0  0
  7  8  2  0  0  0  0
  7  9  1  0  0  0  0
  9 10  1  0  0  0  0
  9 29  1  0  0  0  0
 10 11  1  0  0  0  0
 10 12  1  0  0  0  0
 10 30  1  0  0  0  0
 11 31  1  0  0  0  0
 11 32  1  0  0  0  0
 11 33  1  0  0  0  0
 12 13  2  0  0  0  0
 12 14  1  0  0  0  0
 14 15  1  0  0  0  0
 14 34  1  0  0  0  0
 15 19  1  0  0  0  0
 15 16  1  0  0  0  0
 15 35  1  0  0  0  0
 16 17  1  0  0  0  0
 16 36  1  0  0  0  0
 16 37  1  0  0  0  0
 17 18  1  0  0  0  0
 17 38  1  0  0  0  0
 17 39  1  0  0  0  0
 18 19  1  0  0  0  0
 18 40  1  0  0  0  0
 18 41  1  0  0  0  0
 19 42  1  0  0  0  0
 19 43  1  0  0  0  0
 20 21  2  0  0  0  0
 20 44  1  0  0  0  0
M  END
> <s_m_source_file>
AV-unprocessed.smi

> <i_m_source_file_index>
818

> <i_lp_mmshare_version>
43012

> <i_f3d_flags>
0

> <s_epik_input>
W0NIM11bQ0gyXW4xW2NIXWMoW2NIXW4xKVtOSF1DKD1PKVtOSF1bQ0BIXShbQ0gzXSlDKD1PKVtOSF1bQ0hdMltDSDJdW0NIMl1bQ0gyXVtDSDJdMg==

> <s_epik_cmdline>
J2VwaWtfcHl0aG9uJywgJy1waCcsICc3LjAnLCAnLXRuJywgJzgnLCAnLW1hJywgJzIwMCcsICctbWV0YWxfYmluZGluZycsICctaW1hZScsICc8aW5maWxlLm1hZT4nLCAnLW9tYWUnLCAnPG91dGZpbGUubWFlPic=

> <r_lp_tautomer_probability>
1

> <r_epik_Ionization_Penalty>
0.00015627

> <r_epik_Ionization_Penalty_Charging>
0

> <r_epik_Ionization_Penalty_Neutral>
0.00015627

> <r_epik_State_Penalty>
-0

> <r_epik_Charging_Adjusted_Penalty>
0

> <i_epik_Tot_Q>
0

> <i_epik_Tot_abs_Q>
0

> <r_epik_Metal_State_Penalty>
-0

> <b_epik_Metal_Only>
0

> <s_lp_Force_Field>
OPLS_2005

> <r_lp_Energy>
21.9602

> <b_lp_Chiralities_Consistent>
1

> <s_lp_Variant>
AV-unprocessed.smi:818-2

> <Gold.Version>
5.8.1

> <Gold.Id.Protein>
6NUR|6NUR_protein|mol2

> <Gold.PLP.Fitness>
46.3134

> <Gold.PLP.PLP>
-37.4883

> <Gold.PLP.part.hbond>
-5.6530

> <Gold.PLP.part.metal>
0.0000

> <Gold.PLP.part.buried>
-0.3116

> <Gold.PLP.part.nonpolar>
-33.2482

> <Gold.PLP.part.repulsive>
0.4511

> <Gold.PLP.ligand.clash>
0.0000

> <Gold.PLP.ligand.torsion>
0.2844

> <Gold.PLP.Chemscore.Hbond>
3.1232

> <Gold.PLP.Chemscore.CHOScore>
0.0000

> <Gold.PLP.Chemscore.Metal>
0.0000

> <Gold.Chemscore.Hbonds>
donor molecule, donor type, donor heavy atom, donor atom, acceptor molecule, acceptor atom, score
      L1  H     6    28       P1  7948  0.22
      L1  H     9    29       P1  7948  1.00
      L1  H    14    34       P1  7948  0.93
      P1  H  7997  8009       L1    21  1.00

> <Gold.PLP.Chemscore.Internal.Correction>
0.0242

> <Gold.Rescore>
     Score         DG    S(hbond)    S(metal)    S(lipo)     H(rot)  DE(clash)    DE(int)     intcor
     18.08     -20.91       2.99        0.00      83.49       1.68       1.19       1.64       ----

> <Gold.Chemscore.Fitness>
18.0831

> <Gold.Chemscore.DG>
-20.9147

> <Gold.Chemscore.ZeroCoef>
-5.4800

> <Gold.Chemscore.Hbond>
2.9863

> <Gold.Chemscore.Metal>
0.0000

> <Gold.Chemscore.Lipo>
83.4914

> <Gold.Chemscore.Internal_Hbond>
0.0000

> <Gold.Chemscore.DEClash>
1.1928

> <Gold.Chemscore.DEInternal>
1.6388

> <Gold.Chemscore.Rot>
1.6828

> <Gold.Chemscore.Internal.Correction>
   9.000000E+99

> <Gold.Chemscore.Hbonds>
donor molecule, donor type, donor heavy atom, donor atom, acceptor molecule, acceptor atom, score
      L1  H     6    28       P1  7948  0.09
      L1  H     9    29       P1  7948  0.94
      L1  H    14    34       P1  7948  0.90
      P1  H  7997  8009       L1    21  0.88

> <Gold.Chemscore.Hbond.Weighted>
-9.9742

> <Gold.Chemscore.Metal.Weighted>
-0.0000

> <Gold.Chemscore.Lipo.Weighted>
-9.7685

> <Gold.Chemscore.Internal_Hbond.Weighted>
0.0000

> <Gold.Chemscore.DEClash.Weighted>
1.1928

> <Gold.Chemscore.DEInternal.Weighted>
1.6388

> <Gold.Chemscore.Rot.Weighted>
4.3081

> <Gold.Chemscore.Internal.Correction.Weighted>
   9.000000E+99

> <Gold.Protein.RotatedTorsions>
[ 6907 6896 6895 6894 ] final  179.70 input  -60.11 | X-H torsion
[ 7974 7965 7964 7962 ] final   33.74 input  175.53 | X-H torsion
[ 8008 7997 7996 7995 ] final -157.56 input   59.86 | X-H torsion
[ 10167 10162 10161 10158 ] final -139.72 input  -65.29 | X-H torsion
[ 10718 10713 10712 10709 ] final -157.13 input   66.30 | X-H torsion
[ 10763 10752 10751 10750 ] final  -61.52 input  -60.55 | X-H torsion
[ 11005 11000 10999 10996 ] final  -85.09 input  -57.11 | X-H torsion

> <Gold.Protein.ActiveResidues>
 VAL166  LYS551  ARG553  GLY616  TRP617  ASP618  TYR619  PRO620  LYS621  CYS622 
 ASP623  PHE694  ASN695  SER759  ASP760  ASP761  ALA762  ILE779  LEU786  VAL792 
 PHE793  MET794  SER795  GLU796  ALA797  LYS798  CYS799  TRP800  GLU811  SER814 

> <Gold.Protein.RotatedAtoms>
  151.6674  133.3315  159.3188 H   0  0  0  0  0  0  0  0  0  0  0  0  # atno 6907 bound_to 6896
  150.7884  134.6891  159.6496 H   0  0  0  0  0  0  0  0  0  0  0  0  # atno 6908 bound_to 6896
  152.3958  134.6370  160.0141 H   0  0  0  0  0  0  0  0  0  0  0  0  # atno 6909 bound_to 6896
  146.1400  139.6358  142.9169 H   0  0  0  0  0  0  0  0  0  0  0  0  # atno 7974 bound_to 7965
  155.7343  140.0806  157.2274 H   0  0  0  0  0  0  0  0  0  0  0  0  # atno 8008 bound_to 7997
  154.4029  140.1589  156.2599 H   0  0  0  0  0  0  0  0  0  0  0  0  # atno 8009 bound_to 7997
  155.9079  140.3405  155.6079 H   0  0  0  0  0  0  0  0  0  0  0  0  # atno 8010 bound_to 7997
  139.8352  143.7395  152.2665 H   0  0  0  0  0  0  0  0  0  0  0  0  # atno 10167 bound_to 10162
  156.5361  130.8542  151.2733 H   0  0  0  0  0  0  0  0  0  0  0  0  # atno 10718 bound_to 10713
  154.2858  135.6263  153.5365 H   0  0  0  0  0  0  0  0  0  0  0  0  # atno 10763 bound_to 10752
  152.9859  135.5644  154.5445 H   0  0  0  0  0  0  0  0  0  0  0  0  # atno 10764 bound_to 10752
  154.5045  135.2873  155.1369 H   0  0  0  0  0  0  0  0  0  0  0  0  # atno 10765 bound_to 10752
  141.1644  133.7381  156.8965 H   0  0  0  0  0  0  0  0  0  0  0  0  # atno 11005 bound_to 11000
  145.5068  141.0436  143.2510 LP  0  0  0  0  0  0  0  0  0  0  0  0  # atno 17320 bound_to 7965
  144.7782  139.6583  143.7166 LP  0  0  0  0  0  0  0  0  0  0  0  0  # atno 17321 bound_to 7965
  139.7615  144.7505  151.0357 LP  0  0  0  0  0  0  0  0  0  0  0  0  # atno 17342 bound_to 10162
  140.7803  143.4746  151.0100 LP  0  0  0  0  0  0  0  0  0  0  0  0  # atno 17343 bound_to 10162
  157.7413  130.9868  150.2439 LP  0  0  0  0  0  0  0  0  0  0  0  0  # atno 17370 bound_to 10713
  156.3015  130.3759  149.7746 LP  0  0  0  0  0  0  0  0  0  0  0  0  # atno 17371 bound_to 10713
  140.1612  134.9164  157.2717 LP  0  0  0  0  0  0  0  0  0  0  0  0  # atno 17394 bound_to 11000
  140.2609  134.3573  155.7407 LP  0  0  0  0  0  0  0  0  0  0  0  0  # atno 17395 bound_to 11000

$$$$
