AV-unprocessed.smi:528|AV-procd|sdf|2835|dock1
  -GOLD-   2262023323D 1   1.00000     0.00000
 Structure written by MMmdl.
 45 47  0  0  0  0  0  0  0  0  1 V2000
  146.5006  129.4540  161.1857 C   0  0  0  0  0  0  0  0  0  0  0  0
  145.7895  130.7438  160.7416 C   0  0  2  0  0  0  0  0  0  0  0  0
  146.2246  131.8365  161.6103 N   0  0  0  0  0  0  0  0  0  0  0  0
  146.9518  132.9001  161.2352 C   0  0  0  0  0  0  0  0  0  0  0  0
  147.3274  133.0912  160.0777 O   0  0  0  0  0  0  0  0  0  0  0  0
  147.2886  133.9022  162.3492 C   0  0  0  0  0  0  0  0  0  0  0  0
  146.3381  135.0235  162.4392 N   0  0  0  0  0  0  0  0  0  0  0  0
  144.9715  134.6989  162.5487 C   0  0  0  0  0  0  0  0  0  0  0  0
  144.0029  135.6292  162.6510 C   0  0  0  0  0  0  0  0  0  0  0  0
  142.5314  135.2493  162.7076 C   0  0  0  0  0  0  0  0  0  0  0  0
  142.2760  134.4757  163.7630 F   0  0  0  0  0  0  0  0  0  0  0  0
  141.7563  136.3317  162.7845 F   0  0  0  0  0  0  0  0  0  0  0  0
  142.1952  134.5757  161.6084 F   0  0  0  0  0  0  0  0  0  0  0  0
  144.4313  137.0136  162.6097 C   0  0  0  0  0  0  0  0  0  0  0  0
  145.7329  137.3415  162.4924 C   0  0  0  0  0  0  0  0  0  0  0  0
  146.7765  136.3176  162.4027 C   0  0  0  0  0  0  0  0  0  0  0  0
  147.9694  136.6049  162.3002 O   0  0  0  0  0  0  0  0  0  0  0  0
  144.2471  130.6143  160.7875 C   0  0  2  0  0  0  0  0  0  0  0  0
  143.7098  129.3370  160.0959 C   0  0  0  0  0  0  0  0  0  0  0  0
  142.6783  129.8824  159.0928 C   0  0  1  0  0  0  0  0  0  0  0  0
  141.4593  130.4335  159.8542 C   0  0  0  0  0  0  0  0  0  0  0  0
  142.0103  131.7288  160.4786 C   0  0  0  0  0  0  0  0  0  0  0  0
  143.4825  131.7270  160.0237 C   0  0  2  0  0  0  0  0  0  0  0  0
  143.3612  131.1564  158.6147 C   0  0  0  0  0  0  0  0  0  0  0  0
  146.2572  128.6144  160.5352 H   0  0  0  0  0  0  0  0  0  0  0  0
  146.2213  129.1769  162.2029 H   0  0  0  0  0  0  0  0  0  0  0  0
  147.5840  129.5756  161.1609 H   0  0  0  0  0  0  0  0  0  0  0  0
  146.0848  130.9528  159.7123 H   0  0  0  0  0  0  0  0  0  0  0  0
  145.9585  131.7712  162.5823 H   0  0  0  0  0  0  0  0  0  0  0  0
  147.3305  133.3585  163.2938 H   0  0  0  0  0  0  0  0  0  0  0  0
  148.3000  134.2835  162.1956 H   0  0  0  0  0  0  0  0  0  0  0  0
  144.7589  133.6397  162.5351 H   0  0  0  0  0  0  0  0  0  0  0  0
  143.6965  137.8023  162.6771 H   0  0  0  0  0  0  0  0  0  0  0  0
  146.0158  138.3837  162.4654 H   0  0  0  0  0  0  0  0  0  0  0  0
  143.9403  130.6211  161.8349 H   0  0  0  0  0  0  0  0  0  0  0  0
  144.4985  128.8090  159.5584 H   0  0  0  0  0  0  0  0  0  0  0  0
  143.2686  128.6362  160.8054 H   0  0  0  0  0  0  0  0  0  0  0  0
  142.4190  129.1747  158.3049 H   0  0  0  0  0  0  0  0  0  0  0  0
  140.6389  130.6556  159.1703 H   0  0  0  0  0  0  0  0  0  0  0  0
  141.0910  129.7326  160.6041 H   0  0  0  0  0  0  0  0  0  0  0  0
  141.4845  132.5975  160.0802 H   0  0  0  0  0  0  0  0  0  0  0  0
  141.9069  131.7474  161.5641 H   0  0  0  0  0  0  0  0  0  0  0  0
  143.9409  132.7144  160.0763 H   0  0  0  0  0  0  0  0  0  0  0  0
  144.3224  130.9786  158.1297 H   0  0  0  0  0  0  0  0  0  0  0  0
  142.7358  131.7609  157.9554 H   0  0  0  0  0  0  0  0  0  0  0  0
  1  2  1  0  0  0  0
  1 25  1  0  0  0  0
  1 26  1  0  0  0  0
  1 27  1  0  0  0  0
  2  3  1  0  0  0  0
  2 18  1  0  0  0  0
  2 28  1  0  0  0  0
  3  4  1  0  0  0  0
  3 29  1  0  0  0  0
  4  5  2  0  0  0  0
  4  6  1  0  0  0  0
  6  7  1  0  0  0  0
  6 30  1  0  0  0  0
  6 31  1  0  0  0  0
  7 16  1  0  0  0  0
  7  8  1  0  0  0  0
  8  9  2  0  0  0  0
  8 32  1  0  0  0  0
  9 10  1  0  0  0  0
  9 14  1  0  0  0  0
 10 11  1  0  0  0  0
 10 12  1  0  0  0  0
 10 13  1  0  0  0  0
 14 15  2  0  0  0  0
 14 33  1  0  0  0  0
 15 16  1  0  0  0  0
 15 34  1  0  0  0  0
 16 17  2  0  0  0  0
 18 23  1  0  0  0  0
 18 19  1  0  0  0  0
 18 35  1  0  0  0  0
 19 20  1  0  0  0  0
 19 36  1  0  0  0  0
 19 37  1  0  0  0  0
 20 24  1  0  0  0  0
 20 21  1  0  0  0  0
 20 38  1  0  0  0  0
 21 22  1  0  0  0  0
 21 39  1  0  0  0  0
 21 40  1  0  0  0  0
 22 23  1  0  0  0  0
 22 41  1  0  0  0  0
 22 42  1  0  0  0  0
 23 24  1  0  0  0  0
 23 43  1  0  0  0  0
 24 44  1  0  0  0  0
 24 45  1  0  0  0  0
M  END
> <s_m_source_file>
AV-unprocessed.smi

> <i_m_source_file_index>
528

> <i_lp_mmshare_version>
43012

> <i_f3d_flags>
0

> <s_epik_input>
W0NIMl0xW0NIMl1bQ0BASF0oW0NIMl0yKVtDQEBIXShbQ0gyXVtDQEhdMTIpW0NASF0oW0NIM10pW05IXUMoPU8pW0NIMl1uM1tjSF1jKEMoRikoRilGKVtjSF1bY0hdYzM9Tw==

> <s_epik_cmdline>
J2VwaWtfcHl0aG9uJywgJy1waCcsICc3LjAnLCAnLXRuJywgJzgnLCAnLW1hJywgJzIwMCcsICctbWV0YWxfYmluZGluZycsICctaW1hZScsICc8aW5maWxlLm1hZT4nLCAnLW9tYWUnLCAnPG91dGZpbGUubWFlPic=

> <r_lp_tautomer_probability>
1

> <r_epik_Ionization_Penalty>
4.09479e-08

> <r_epik_Ionization_Penalty_Charging>
1.9321e-08

> <r_epik_Ionization_Penalty_Neutral>
2.16269e-08

> <r_epik_State_Penalty>
-0

> <r_epik_Charging_Adjusted_Penalty>
1.9321e-08

> <i_epik_Tot_Q>
0

> <i_epik_Tot_abs_Q>
0

> <r_epik_Metal_State_Penalty>
-0

> <b_epik_Metal_Only>
0

> <s_lp_Force_Field>
OPLS_2005

> <r_lp_Energy>
63.0094

> <b_lp_Chiralities_Consistent>
1

> <s_lp_Variant>
AV-unprocessed.smi:528-5

> <Gold.Version>
5.8.1

> <Gold.Id.Protein>
6NUR|6NUR_protein|mol2

> <Gold.PLP.Fitness>
46.3647

> <Gold.PLP.PLP>
-44.4484

> <Gold.PLP.part.hbond>
-1.0000

> <Gold.PLP.part.metal>
0.0000

> <Gold.PLP.part.buried>
-7.5566

> <Gold.PLP.part.nonpolar>
-35.9737

> <Gold.PLP.part.repulsive>
0.0205

> <Gold.PLP.ligand.clash>
0.0000

> <Gold.PLP.ligand.torsion>
0.5938

> <Gold.PLP.Chemscore.Hbond>
1.0000

> <Gold.PLP.Chemscore.CHOScore>
0.0000

> <Gold.PLP.Chemscore.Metal>
0.0000

> <Gold.Chemscore.Hbonds>
donor molecule, donor type, donor heavy atom, donor atom, acceptor molecule, acceptor atom, score
      P1  H  6931  6943       L1    17  1.00

> <Gold.PLP.Chemscore.Internal.Correction>
0.1040

> <Gold.Rescore>
     Score         DG    S(hbond)    S(metal)    S(lipo)     H(rot)  DE(clash)    DE(int)     intcor
     13.03     -13.76       1.00        0.00      79.79       1.71       0.15       0.58       ----

> <Gold.Chemscore.Fitness>
13.0312

> <Gold.Chemscore.DG>
-13.7597

> <Gold.Chemscore.ZeroCoef>
-5.4800

> <Gold.Chemscore.Hbond>
0.9966

> <Gold.Chemscore.Metal>
0.0000

> <Gold.Chemscore.Lipo>
79.7860

> <Gold.Chemscore.Internal_Hbond>
0.0000

> <Gold.Chemscore.DEClash>
0.1499

> <Gold.Chemscore.DEInternal>
0.5786

> <Gold.Chemscore.Rot>
1.7125

> <Gold.Chemscore.Internal.Correction>
   9.000000E+99

> <Gold.Chemscore.Hbonds>
donor molecule, donor type, donor heavy atom, donor atom, acceptor molecule, acceptor atom, score
      P1  H  6931  6943       L1    17  0.97

> <Gold.Chemscore.Hbond.Weighted>
-3.3287

> <Gold.Chemscore.Metal.Weighted>
-0.0000

> <Gold.Chemscore.Lipo.Weighted>
-9.3350

> <Gold.Chemscore.Internal_Hbond.Weighted>
0.0000

> <Gold.Chemscore.DEClash.Weighted>
0.1499

> <Gold.Chemscore.DEInternal.Weighted>
0.5786

> <Gold.Chemscore.Rot.Weighted>
4.3840

> <Gold.Chemscore.Internal.Correction.Weighted>
   9.000000E+99

> <Gold.Protein.RotatedTorsions>
[ 6907 6896 6895 6894 ] final -136.21 input  -60.11 | X-H torsion
[ 7974 7965 7964 7962 ] final   14.84 input  175.53 | X-H torsion
[ 8008 7997 7996 7995 ] final  -21.90 input   59.86 | X-H torsion
[ 10167 10162 10161 10158 ] final   45.62 input  -65.29 | X-H torsion
[ 10718 10713 10712 10709 ] final  134.10 input   66.30 | X-H torsion
[ 10763 10752 10751 10750 ] final   30.71 input  -60.55 | X-H torsion
[ 11005 11000 10999 10996 ] final  -13.90 input  -57.11 | X-H torsion

> <Gold.Protein.ActiveResidues>
 VAL166  LYS551  ARG553  GLY616  TRP617  ASP618  TYR619  PRO620  LYS621  CYS622 
 ASP623  PHE694  ASN695  SER759  ASP760  ASP761  ALA762  ILE779  LEU786  VAL792 
 PHE793  MET794  SER795  GLU796  ALA797  LYS798  CYS799  TRP800  GLU811  SER814 

> <Gold.Protein.RotatedAtoms>
  151.0073  133.5999  159.2687 H   0  0  0  0  0  0  0  0  0  0  0  0  # atno 6907 bound_to 6896
  151.3164  135.0806  159.9300 H   0  0  0  0  0  0  0  0  0  0  0  0  # atno 6908 bound_to 6896
  152.5290  133.9728  159.7824 H   0  0  0  0  0  0  0  0  0  0  0  0  # atno 6909 bound_to 6896
  146.2294  139.8981  142.8543 H   0  0  0  0  0  0  0  0  0  0  0  0  # atno 7974 bound_to 7965
  154.4677  140.2022  156.0076 H   0  0  0  0  0  0  0  0  0  0  0  0  # atno 8008 bound_to 7997
  156.0956  140.3251  155.7844 H   0  0  0  0  0  0  0  0  0  0  0  0  # atno 8009 bound_to 7997
  155.4884  140.0544  157.2948 H   0  0  0  0  0  0  0  0  0  0  0  0  # atno 8010 bound_to 7997
  140.3222  144.2691  150.6181 H   0  0  0  0  0  0  0  0  0  0  0  0  # atno 10167 bound_to 10162
  157.4706  131.1080  150.9807 H   0  0  0  0  0  0  0  0  0  0  0  0  # atno 10718 bound_to 10713
  153.0356  135.6457  154.1087 H   0  0  0  0  0  0  0  0  0  0  0  0  # atno 10763 bound_to 10752
  154.0803  135.2874  155.3293 H   0  0  0  0  0  0  0  0  0  0  0  0  # atno 10764 bound_to 10752
  154.6535  135.5417  153.7994 H   0  0  0  0  0  0  0  0  0  0  0  0  # atno 10765 bound_to 10752
  140.7809  133.8363  155.9291 H   0  0  0  0  0  0  0  0  0  0  0  0  # atno 11005 bound_to 11000
  145.2350  140.9987  143.3968 LP  0  0  0  0  0  0  0  0  0  0  0  0  # atno 17320 bound_to 7965
  144.9499  139.4095  143.6408 LP  0  0  0  0  0  0  0  0  0  0  0  0  # atno 17321 bound_to 7965
  140.5473  143.2212  151.7986 LP  0  0  0  0  0  0  0  0  0  0  0  0  # atno 17342 bound_to 10162
  139.4872  144.4523  151.9640 LP  0  0  0  0  0  0  0  0  0  0  0  0  # atno 17343 bound_to 10162
  157.0573  130.5811  149.5380 LP  0  0  0  0  0  0  0  0  0  0  0  0  # atno 17370 bound_to 10713
  156.0072  130.5159  150.7868 LP  0  0  0  0  0  0  0  0  0  0  0  0  # atno 17371 bound_to 10713
  140.9483  134.1811  157.4747 LP  0  0  0  0  0  0  0  0  0  0  0  0  # atno 17394 bound_to 11000
  139.8743  134.9899  156.5479 LP  0  0  0  0  0  0  0  0  0  0  0  0  # atno 17395 bound_to 11000

$$$$
