AV-unprocessed.smi:2497|AV-procd|sdf|9829|dock1
  -GOLD-   2272013463D 1   1.00000     0.00000
 Structure written by MMmdl.
 47 48  0  0  0  0  0  0  0  0  1 V2000
  156.6585  139.8355  160.5023 C   0  0  0  0  0  0  0  0  0  0  0  0
  155.2887  140.3380  160.9896 C   0  0  0  0  0  0  0  0  0  0  0  0
  154.3264  139.1568  161.1874 C   0  0  0  0  0  0  0  0  0  0  0  0
  154.6761  141.3855  160.0387 C   0  0  0  0  0  0  0  0  0  0  0  0
  153.2801  141.8757  160.4604 C   0  0  0  0  0  0  0  0  0  0  0  0
  152.6642  142.6735  159.4187 N   0  0  0  0  0  0  0  0  0  0  0  0
  152.9316  143.9811  159.0670 C   0  0  0  0  0  0  0  0  0  0  0  0
  152.0914  144.3099  158.0416 C   0  0  0  0  0  0  0  0  0  0  0  0
  151.3347  143.1159  157.8451 C   0  0  0  0  0  0  0  0  0  0  0  0
  150.3197  142.9230  156.8739 N   0  0  0  0  0  0  0  0  0  0  0  0
  149.7200  141.7757  156.5154 C   0  0  0  0  0  0  0  0  0  0  0  0
  149.9859  140.6654  156.9746 O   0  0  0  0  0  0  0  0  0  0  0  0
  148.7901  141.9976  155.5710 N   0  0  0  0  0  0  0  0  0  0  0  0
  147.9142  141.0249  154.9004 C   0  0  0  0  0  0  0  0  0  0  0  0
  148.7540  139.8368  154.3844 C   0  0  0  0  0  0  0  0  0  0  0  0
  146.7782  140.5321  155.8304 C   0  0  0  0  0  0  0  0  0  0  0  0
  145.7954  141.6613  156.1871 C   0  0  0  0  0  0  0  0  0  0  0  0
  145.2464  142.2153  154.9973 O   0  0  0  0  0  0  0  0  0  0  0  0
  146.2307  142.8027  154.1547 C   0  0  0  0  0  0  0  0  0  0  0  0
  147.2475  141.7367  153.7031 C   0  0  0  0  0  0  0  0  0  0  0  0
  151.6854  142.1361  158.6595 N   0  0  0  0  0  0  0  0  0  0  0  0
  156.5857  139.3848  159.5120 H   0  0  0  0  0  0  0  0  0  0  0  0
  157.0619  139.0820  161.1794 H   0  0  0  0  0  0  0  0  0  0  0  0
  157.3896  140.6416  160.4492 H   0  0  0  0  0  0  0  0  0  0  0  0
  155.4294  140.8066  161.9644 H   0  0  0  0  0  0  0  0  0  0  0  0
  154.1318  138.6425  160.2457 H   0  0  0  0  0  0  0  0  0  0  0  0
  153.3692  139.4909  161.5885 H   0  0  0  0  0  0  0  0  0  0  0  0
  154.7369  138.4272  161.8861 H   0  0  0  0  0  0  0  0  0  0  0  0
  155.3550  142.2346  159.9448 H   0  0  0  0  0  0  0  0  0  0  0  0
  154.5963  140.9532  159.0401 H   0  0  0  0  0  0  0  0  0  0  0  0
  152.6289  141.0284  160.6782 H   0  0  0  0  0  0  0  0  0  0  0  0
  153.3318  142.4778  161.3677 H   0  0  0  0  0  0  0  0  0  0  0  0
  153.6891  144.5628  159.5714 H   0  0  0  0  0  0  0  0  0  0  0  0
  152.0395  145.2563  157.5244 H   0  0  0  0  0  0  0  0  0  0  0  0
  150.0402  143.7526  156.3716 H   0  0  0  0  0  0  0  0  0  0  0  0
  148.6706  142.9560  155.2769 H   0  0  0  0  0  0  0  0  0  0  0  0
  148.1452  139.1481  153.7976 H   0  0  0  0  0  0  0  0  0  0  0  0
  149.1905  139.2599  155.1998 H   0  0  0  0  0  0  0  0  0  0  0  0
  149.5701  140.1761  153.7454 H   0  0  0  0  0  0  0  0  0  0  0  0
  146.2218  139.7397  155.3280 H   0  0  0  0  0  0  0  0  0  0  0  0
  147.1724  140.0796  156.7399 H   0  0  0  0  0  0  0  0  0  0  0  0
  144.9821  141.2682  156.7970 H   0  0  0  0  0  0  0  0  0  0  0  0
  146.2832  142.4395  156.7758 H   0  0  0  0  0  0  0  0  0  0  0  0
  145.7326  143.2338  153.2861 H   0  0  0  0  0  0  0  0  0  0  0  0
  146.7243  143.6255  154.6741 H   0  0  0  0  0  0  0  0  0  0  0  0
  148.0017  142.1915  153.0594 H   0  0  0  0  0  0  0  0  0  0  0  0
  146.7257  141.0037  153.0859 H   0  0  0  0  0  0  0  0  0  0  0  0
  1  2  1  0  0  0  0
  1 22  1  0  0  0  0
  1 23  1  0  0  0  0
  1 24  1  0  0  0  0
  2  3  1  0  0  0  0
  2  4  1  0  0  0  0
  2 25  1  0  0  0  0
  3 26  1  0  0  0  0
  3 27  1  0  0  0  0
  3 28  1  0  0  0  0
  4  5  1  0  0  0  0
  4 29  1  0  0  0  0
  4 30  1  0  0  0  0
  5  6  1  0  0  0  0
  5 31  1  0  0  0  0
  5 32  1  0  0  0  0
  6 21  1  0  0  0  0
  6  7  1  0  0  0  0
  7  8  2  0  0  0  0
  7 33  1  0  0  0  0
  8  9  1  0  0  0  0
  8 34  1  0  0  0  0
  9 10  1  0  0  0  0
  9 21  2  0  0  0  0
 10 11  1  0  0  0  0
 10 35  1  0  0  0  0
 11 12  2  0  0  0  0
 11 13  1  0  0  0  0
 13 14  1  0  0  0  0
 13 36  1  0  0  0  0
 14 20  1  0  0  0  0
 14 15  1  0  0  0  0
 14 16  1  0  0  0  0
 15 37  1  0  0  0  0
 15 38  1  0  0  0  0
 15 39  1  0  0  0  0
 16 17  1  0  0  0  0
 16 40  1  0  0  0  0
 16 41  1  0  0  0  0
 17 18  1  0  0  0  0
 17 42  1  0  0  0  0
 17 43  1  0  0  0  0
 18 19  1  0  0  0  0
 19 20  1  0  0  0  0
 19 44  1  0  0  0  0
 19 45  1  0  0  0  0
 20 46  1  0  0  0  0
 20 47  1  0  0  0  0
M  END
> <s_m_source_file>
AV-unprocessed.smi

> <i_m_source_file_index>
2497

> <i_lp_mmshare_version>
43012

> <i_f3d_flags>
0

> <s_epik_input>
W0NIM11bQ0hdKFtDSDNdKVtDSDJdW0NIMl1uMVtjSF1bY0hdYyhuMSlbTkhdQyg9TylbTkhdQzIoW0NIM10pW0NIMl1bQ0gyXU9bQ0gyXVtDSDJdMg==

> <s_epik_cmdline>
J2VwaWtfcHl0aG9uJywgJy1waCcsICc3LjAnLCAnLXRuJywgJzgnLCAnLW1hJywgJzIwMCcsICctbWV0YWxfYmluZGluZycsICctaW1hZScsICc8aW5maWxlLm1hZT4nLCAnLW9tYWUnLCAnPG91dGZpbGUubWFlPic=

> <r_lp_tautomer_probability>
1

> <r_epik_Ionization_Penalty>
3.57775e-05

> <r_epik_Ionization_Penalty_Charging>
0

> <r_epik_Ionization_Penalty_Neutral>
3.57775e-05

> <r_epik_State_Penalty>
-0

> <r_epik_Charging_Adjusted_Penalty>
0

> <i_epik_Tot_Q>
0

> <i_epik_Tot_abs_Q>
0

> <r_epik_Metal_State_Penalty>
-0

> <b_epik_Metal_Only>
0

> <s_lp_Force_Field>
OPLS_2005

> <r_lp_Energy>
13.1227

> <b_lp_Chiralities_Consistent>
1

> <s_lp_Variant>
AV-unprocessed.smi:2497-1

> <Gold.Version>
5.8.1

> <Gold.Id.Protein>
6NUR|6NUR_protein|mol2

> <Gold.PLP.Fitness>
48.4358

> <Gold.PLP.PLP>
-43.3514

> <Gold.PLP.part.hbond>
-2.0000

> <Gold.PLP.part.metal>
0.0000

> <Gold.PLP.part.buried>
-5.9279

> <Gold.PLP.part.nonpolar>
-36.7922

> <Gold.PLP.part.repulsive>
0.3653

> <Gold.PLP.ligand.clash>
0.0000

> <Gold.PLP.ligand.torsion>
0.4645

> <Gold.PLP.Chemscore.Hbond>
1.9760

> <Gold.PLP.Chemscore.CHOScore>
0.0000

> <Gold.PLP.Chemscore.Metal>
0.0000

> <Gold.Chemscore.Hbonds>
donor molecule, donor type, donor heavy atom, donor atom, acceptor molecule, acceptor atom, score
      L1  H    10    35       P1  8028  1.00
      L1  H    13    36       P1  8028  0.98

> <Gold.PLP.Chemscore.Internal.Correction>
0.0855

> <Gold.Rescore>
     Score         DG    S(hbond)    S(metal)    S(lipo)     H(rot)  DE(clash)    DE(int)     intcor
     17.61     -19.42       1.92        0.00      96.39       1.47       0.08       1.73       ----

> <Gold.Chemscore.Fitness>
17.6060

> <Gold.Chemscore.DG>
-19.4161

> <Gold.Chemscore.ZeroCoef>
-5.4800

> <Gold.Chemscore.Hbond>
1.9225

> <Gold.Chemscore.Metal>
0.0000

> <Gold.Chemscore.Lipo>
96.3916

> <Gold.Chemscore.Internal_Hbond>
0.0000

> <Gold.Chemscore.DEClash>
0.0805

> <Gold.Chemscore.DEInternal>
1.7297

> <Gold.Chemscore.Rot>
1.4698

> <Gold.Chemscore.Internal.Correction>
   9.000000E+99

> <Gold.Chemscore.Hbonds>
donor molecule, donor type, donor heavy atom, donor atom, acceptor molecule, acceptor atom, score
      L1  H    10    35       P1  8028  0.97
      L1  H    13    36       P1  8028  0.93

> <Gold.Chemscore.Hbond.Weighted>
-6.4211

> <Gold.Chemscore.Metal.Weighted>
-0.0000

> <Gold.Chemscore.Lipo.Weighted>
-11.2778

> <Gold.Chemscore.Internal_Hbond.Weighted>
0.0000

> <Gold.Chemscore.DEClash.Weighted>
0.0805

> <Gold.Chemscore.DEInternal.Weighted>
1.7297

> <Gold.Chemscore.Rot.Weighted>
3.7628

> <Gold.Chemscore.Internal.Correction.Weighted>
   9.000000E+99

> <Gold.Protein.RotatedTorsions>
[ 6907 6896 6895 6894 ] final   76.97 input  -60.11 | X-H torsion
[ 7974 7965 7964 7962 ] final -162.77 input  175.53 | X-H torsion
[ 8008 7997 7996 7995 ] final  173.45 input   59.86 | X-H torsion
[ 10167 10162 10161 10158 ] final   27.67 input  -65.29 | X-H torsion
[ 10718 10713 10712 10709 ] final   73.01 input   66.30 | X-H torsion
[ 10763 10752 10751 10750 ] final  104.10 input  -60.55 | X-H torsion
[ 11005 11000 10999 10996 ] final  -35.07 input  -57.11 | X-H torsion

> <Gold.Protein.ActiveResidues>
 VAL166  LYS551  ARG553  GLY616  TRP617  ASP618  TYR619  PRO620  LYS621  CYS622 
 ASP623  PHE694  ASN695  SER759  ASP760  ASP761  ALA762  ILE779  LEU786  VAL792 
 PHE793  MET794  SER795  GLU796  ALA797  LYS798  CYS799  TRP800  GLU811  SER814 

> <Gold.Protein.RotatedAtoms>
  152.5097  134.3887  159.9376 H   0  0  0  0  0  0  0  0  0  0  0  0  # atno 6907 bound_to 6896
  151.3847  133.3803  159.2722 H   0  0  0  0  0  0  0  0  0  0  0  0  # atno 6908 bound_to 6896
  150.9478  134.8901  159.7712 H   0  0  0  0  0  0  0  0  0  0  0  0  # atno 6909 bound_to 6896
  144.7347  140.3204  143.6172 H   0  0  0  0  0  0  0  0  0  0  0  0  # atno 7974 bound_to 7965
  156.1074  140.1460  156.9385 H   0  0  0  0  0  0  0  0  0  0  0  0  # atno 8008 bound_to 7997
  154.4743  140.0899  156.7268 H   0  0  0  0  0  0  0  0  0  0  0  0  # atno 8009 bound_to 7997
  155.4655  140.3440  155.4320 H   0  0  0  0  0  0  0  0  0  0  0  0  # atno 8010 bound_to 7997
  140.4918  144.0454  150.6300 H   0  0  0  0  0  0  0  0  0  0  0  0  # atno 10167 bound_to 10162
  157.6528  130.9607  150.1009 H   0  0  0  0  0  0  0  0  0  0  0  0  # atno 10718 bound_to 10713
  153.3614  135.3954  155.1721 H   0  0  0  0  0  0  0  0  0  0  0  0  # atno 10763 bound_to 10752
  154.8680  135.3680  154.5095 H   0  0  0  0  0  0  0  0  0  0  0  0  # atno 10764 bound_to 10752
  153.5554  135.7082  153.5632 H   0  0  0  0  0  0  0  0  0  0  0  0  # atno 10765 bound_to 10752
  140.9766  133.7079  156.1613 H   0  0  0  0  0  0  0  0  0  0  0  0  # atno 11005 bound_to 11000
  145.7575  139.1813  143.2286 LP  0  0  0  0  0  0  0  0  0  0  0  0  # atno 17320 bound_to 7965
  146.1013  140.7540  142.9548 LP  0  0  0  0  0  0  0  0  0  0  0  0  # atno 17321 bound_to 7965
  140.3726  143.2846  152.0261 LP  0  0  0  0  0  0  0  0  0  0  0  0  # atno 17342 bound_to 10162
  139.4853  144.6218  151.7240 LP  0  0  0  0  0  0  0  0  0  0  0  0  # atno 17343 bound_to 10162
  156.1932  130.3656  149.8883 LP  0  0  0  0  0  0  0  0  0  0  0  0  # atno 17370 bound_to 10713
  156.6805  130.8856  151.3575 LP  0  0  0  0  0  0  0  0  0  0  0  0  # atno 17371 bound_to 10713
  140.7249  134.4318  157.5571 LP  0  0  0  0  0  0  0  0  0  0  0  0  # atno 17394 bound_to 11000
  139.8933  134.8733  156.2229 LP  0  0  0  0  0  0  0  0  0  0  0  0  # atno 17395 bound_to 11000

$$$$
