AV-unprocessed.smi:1985|AV-procd|sdf|8045|dock5
  -GOLD-   2272010243D 1   1.00000     0.00000
 Structure written by MMmdl.
 51 52  0  0  0  0  0  0  0  0  2 V2000
  146.1387  138.5032  153.0778 C   0  0  0  0  0  0  0  0  0  0  0  0
  147.5987  138.9515  153.2680 C   0  0  0  0  0  0  0  0  0  0  0  0
  148.3148  138.3927  154.5356 C   0  0  2  0  0  0  0  0  0  0  0  0
  147.4802  138.8254  155.7705 C   0  0  0  0  0  0  0  0  0  0  0  0
  149.7356  139.0232  154.6346 C   0  0  0  0  0  0  0  0  0  0  0  0
  150.2023  139.1640  156.0109 N   0  0  0  0  0  0  0  0  0  0  0  0
  151.4297  139.5756  156.3574 C   0  0  0  0  0  0  0  0  0  0  0  0
  152.2801  139.9180  155.5348 O   0  0  0  0  0  0  0  0  0  0  0  0
  151.7260  139.6118  157.8634 C   0  0  0  0  0  0  0  0  0  0  0  0
  151.6814  140.9644  158.4350 N   0  0  0  0  0  0  0  0  0  0  0  0
  151.2203  142.0169  157.6656 C   0  0  0  0  0  0  0  0  0  0  0  0
  151.1574  143.2917  158.1080 C   0  0  0  0  0  0  0  0  0  0  0  0
  151.5819  143.6359  159.4592 C   0  0  0  0  0  0  0  0  0  0  0  0
  151.5632  144.7860  159.8999 O   0  0  0  0  0  0  0  0  0  0  0  0
  152.0348  142.5402  160.2305 N   0  0  0  0  0  0  0  0  0  0  0  0
  152.4968  142.8197  161.5745 C   0  0  0  0  0  0  0  0  0  0  0  0
  152.1135  141.2101  159.7570 C   0  0  0  0  0  0  0  0  0  0  0  0
  152.5474  140.2884  160.4525 O   0  0  0  0  0  0  0  0  0  0  0  0
  148.4025  136.8879  154.4620 N   0  3  0  0  0  0  0  0  0  0  0  0
  149.4727  136.2580  155.2869 C   0  0  0  0  0  0  0  0  0  0  0  0
  149.5876  134.7588  154.9684 C   0  0  0  0  0  0  0  0  0  0  0  0
  148.3393  134.1264  155.2113 O   0  0  0  0  0  0  0  0  0  0  0  0
  147.3157  134.6482  154.3763 C   0  0  0  0  0  0  0  0  0  0  0  0
  147.1231  136.1480  154.6587 C   0  0  0  0  0  0  0  0  0  0  0  0
  145.7232  138.9385  152.1686 H   0  0  0  0  0  0  0  0  0  0  0  0
  145.5056  138.8219  153.9053 H   0  0  0  0  0  0  0  0  0  0  0  0
  146.0541  137.4205  152.9850 H   0  0  0  0  0  0  0  0  0  0  0  0
  148.1632  138.7027  152.3697 H   0  0  0  0  0  0  0  0  0  0  0  0
  147.6058  140.0418  153.2950 H   0  0  0  0  0  0  0  0  0  0  0  0
  147.2005  139.8783  155.7221 H   0  0  0  0  0  0  0  0  0  0  0  0
  148.0331  138.6990  156.7017 H   0  0  0  0  0  0  0  0  0  0  0  0
  146.5560  138.2531  155.8559 H   0  0  0  0  0  0  0  0  0  0  0  0
  150.4678  138.4176  154.1006 H   0  0  0  0  0  0  0  0  0  0  0  0
  149.7468  140.0103  154.1712 H   0  0  0  0  0  0  0  0  0  0  0  0
  149.5595  138.9069  156.7461 H   0  0  0  0  0  0  0  0  0  0  0  0
  151.0038  138.9691  158.3688 H   0  0  0  0  0  0  0  0  0  0  0  0
  152.7027  139.1632  158.0533 H   0  0  0  0  0  0  0  0  0  0  0  0
  150.8975  141.8140  156.6548 H   0  0  0  0  0  0  0  0  0  0  0  0
  150.7908  144.0679  157.4523 H   0  0  0  0  0  0  0  0  0  0  0  0
  152.4269  141.9237  162.1918 H   0  0  0  0  0  0  0  0  0  0  0  0
  151.8566  143.5846  162.0172 H   0  0  0  0  0  0  0  0  0  0  0  0
  153.5291  143.1619  161.4887 H   0  0  0  0  0  0  0  0  0  0  0  0
  150.4421  136.7171  155.1040 H   0  0  0  0  0  0  0  0  0  0  0  0
  149.2536  136.3777  156.3481 H   0  0  0  0  0  0  0  0  0  0  0  0
  149.8990  134.6005  153.9346 H   0  0  0  0  0  0  0  0  0  0  0  0
  150.3446  134.2974  155.6030 H   0  0  0  0  0  0  0  0  0  0  0  0
  147.5627  134.4784  153.3270 H   0  0  0  0  0  0  0  0  0  0  0  0
  146.3901  134.1077  154.5750 H   0  0  0  0  0  0  0  0  0  0  0  0
  146.7610  136.2826  155.6781 H   0  0  0  0  0  0  0  0  0  0  0  0
  146.3432  136.5071  153.9898 H   0  0  0  0  0  0  0  0  0  0  0  0
  148.6636  136.7002  153.5044 H   0  0  0  0  0  0  0  0  0  0  0  0
  1  2  1  0  0  0  0
  1 25  1  0  0  0  0
  1 26  1  0  0  0  0
  1 27  1  0  0  0  0
  2  3  1  0  0  0  0
  2 28  1  0  0  0  0
  2 29  1  0  0  0  0
  3  4  1  0  0  0  0
  3  5  1  0  0  0  0
  3 19  1  0  0  0  0
  4 30  1  0  0  0  0
  4 31  1  0  0  0  0
  4 32  1  0  0  0  0
  5  6  1  0  0  0  0
  5 33  1  0  0  0  0
  5 34  1  0  0  0  0
  6  7  1  0  0  0  0
  6 35  1  0  0  0  0
  7  8  2  0  0  0  0
  7  9  1  0  0  0  0
  9 10  1  0  0  0  0
  9 36  1  0  0  0  0
  9 37  1  0  0  0  0
 10 17  1  0  0  0  0
 10 11  1  0  0  0  0
 11 12  2  0  0  0  0
 11 38  1  0  0  0  0
 12 13  1  0  0  0  0
 12 39  1  0  0  0  0
 13 14  2  0  0  0  0
 13 15  1  0  0  0  0
 15 16  1  0  0  0  0
 15 17  1  0  0  0  0
 16 40  1  0  0  0  0
 16 41  1  0  0  0  0
 16 42  1  0  0  0  0
 17 18  2  0  0  0  0
 19 24  1  0  0  0  0
 19 20  1  0  0  0  0
 19 51  1  0  0  0  0
 20 21  1  0  0  0  0
 20 43  1  0  0  0  0
 20 44  1  0  0  0  0
 21 22  1  0  0  0  0
 21 45  1  0  0  0  0
 21 46  1  0  0  0  0
 22 23  1  0  0  0  0
 23 24  1  0  0  0  0
 23 47  1  0  0  0  0
 23 48  1  0  0  0  0
 24 49  1  0  0  0  0
 24 50  1  0  0  0  0
M  CHG  1  19   1
M  END
> <s_m_source_file>
AV-unprocessed.smi

> <i_m_source_file_index>
1985

> <i_lp_mmshare_version>
43012

> <i_f3d_flags>
0

> <s_epik_input>
W0NIMl0xW0NIMl1PW0NIMl1bQ0gyXU4xW0NAQF0oW0NIM10pKFtDSDJdW0NIM10pW0NIMl1bTkhdQyg9TylbQ0gyXW4yW2NIXVtjSF1jKD1PKW4oW0NIM10pYzI9Tw==

> <s_epik_cmdline>
J2VwaWtfcHl0aG9uJywgJy1waCcsICc3LjAnLCAnLXRuJywgJzgnLCAnLW1hJywgJzIwMCcsICctbWV0YWxfYmluZGluZycsICctaW1hZScsICc8aW5maWxlLm1hZT4nLCAnLW9tYWUnLCAnPG91dGZpbGUubWFlPic=

> <r_lp_tautomer_probability>
1

> <r_epik_Ionization_Penalty>
0.519658

> <r_epik_Ionization_Penalty_Charging>
0.519658

> <r_epik_Ionization_Penalty_Neutral>
8.70177e-08

> <r_epik_State_Penalty>
0.527569

> <r_epik_Charging_Adjusted_Penalty>
1.04723

> <i_epik_Tot_Q>
1

> <i_epik_Tot_abs_Q>
1

> <r_epik_Metal_State_Penalty>
0.527613

> <b_epik_Metal_Only>
0

> <s_lp_Force_Field>
OPLS_2005

> <r_lp_Energy>
37.4979

> <b_lp_Chiralities_Consistent>
1

> <s_lp_Variant>
AV-unprocessed.smi:1985-4

> <Gold.Version>
5.8.1

> <Gold.Id.Protein>
6NUR|6NUR_protein|mol2

> <Gold.PLP.Fitness>
46.2806

> <Gold.PLP.PLP>
-38.2634

> <Gold.PLP.part.hbond>
-2.9649

> <Gold.PLP.part.metal>
0.0000

> <Gold.PLP.part.buried>
-3.1683

> <Gold.PLP.part.nonpolar>
-30.9252

> <Gold.PLP.part.repulsive>
0.1922

> <Gold.PLP.ligand.clash>
0.0000

> <Gold.PLP.ligand.torsion>
1.3430

> <Gold.PLP.Chemscore.Hbond>
3.4854

> <Gold.PLP.Chemscore.CHOScore>
0.0000

> <Gold.PLP.Chemscore.Metal>
0.0000

> <Gold.Chemscore.Hbonds>
donor molecule, donor type, donor heavy atom, donor atom, acceptor molecule, acceptor atom, score
      L1  H    19    51       P1  7948  2.00
      P1  H  7989  7998       L1     8  0.20
      P1  H  7997  8008       L1     8  0.62

> <Gold.PLP.Chemscore.Internal.Correction>
0.2470

> <Gold.Rescore>
     Score         DG    S(hbond)    S(metal)    S(lipo)     H(rot)  DE(clash)    DE(int)     intcor
     13.55     -15.45       2.23        0.00      71.27       2.27       0.09       1.81       ----

> <Gold.Chemscore.Fitness>
13.5525

> <Gold.Chemscore.DG>
-15.4516

> <Gold.Chemscore.ZeroCoef>
-5.4800

> <Gold.Chemscore.Hbond>
2.2306

> <Gold.Chemscore.Metal>
0.0000

> <Gold.Chemscore.Lipo>
71.2722

> <Gold.Chemscore.Internal_Hbond>
0.0000

> <Gold.Chemscore.DEClash>
0.0867

> <Gold.Chemscore.DEInternal>
1.8123

> <Gold.Chemscore.Rot>
2.2724

> <Gold.Chemscore.Internal.Correction>
   9.000000E+99

> <Gold.Chemscore.Hbonds>
donor molecule, donor type, donor heavy atom, donor atom, acceptor molecule, acceptor atom, score
      L1  H    19    51       P1  7948  1.00
      P1  H  7989  7998       L1     8  0.20
      P1  H  7997  8008       L1     8  0.60

> <Gold.Chemscore.Hbond.Weighted>
-7.4501

> <Gold.Chemscore.Metal.Weighted>
-0.0000

> <Gold.Chemscore.Lipo.Weighted>
-8.3388

> <Gold.Chemscore.Internal_Hbond.Weighted>
0.0000

> <Gold.Chemscore.DEClash.Weighted>
0.0867

> <Gold.Chemscore.DEInternal.Weighted>
1.8123

> <Gold.Chemscore.Rot.Weighted>
5.8174

> <Gold.Chemscore.Internal.Correction.Weighted>
   9.000000E+99

> <Gold.Protein.RotatedTorsions>
[ 6907 6896 6895 6894 ] final   32.96 input  -60.11 | X-H torsion
[ 7974 7965 7964 7962 ] final  127.25 input  175.53 | X-H torsion
[ 8008 7997 7996 7995 ] final  -22.59 input   59.86 | X-H torsion
[ 10167 10162 10161 10158 ] final -168.56 input  -65.29 | X-H torsion
[ 10718 10713 10712 10709 ] final -144.92 input   66.30 | X-H torsion
[ 10763 10752 10751 10750 ] final  164.22 input  -60.55 | X-H torsion
[ 11005 11000 10999 10996 ] final  104.36 input  -57.11 | X-H torsion

> <Gold.Protein.ActiveResidues>
 VAL166  LYS551  ARG553  GLY616  TRP617  ASP618  TYR619  PRO620  LYS621  CYS622 
 ASP623  PHE694  ASN695  SER759  ASP760  ASP761  ALA762  ILE779  LEU786  VAL792 
 PHE793  MET794  SER795  GLU796  ALA797  LYS798  CYS799  TRP800  GLU811  SER814 

> <Gold.Protein.RotatedAtoms>
  152.0817  134.9466  160.0573 H   0  0  0  0  0  0  0  0  0  0  0  0  # atno 6907 bound_to 6896
  152.0752  133.4121  159.4485 H   0  0  0  0  0  0  0  0  0  0  0  0  # atno 6908 bound_to 6896
  150.6836  134.2965  159.4732 H   0  0  0  0  0  0  0  0  0  0  0  0  # atno 6909 bound_to 6896
  145.0527  139.3870  143.5046 H   0  0  0  0  0  0  0  0  0  0  0  0  # atno 7974 bound_to 7965
  154.4635  140.2003  156.0181 H   0  0  0  0  0  0  0  0  0  0  0  0  # atno 8008 bound_to 7997
  156.0884  140.3261  155.7755 H   0  0  0  0  0  0  0  0  0  0  0  0  # atno 8009 bound_to 7997
  155.4997  140.0553  157.2932 H   0  0  0  0  0  0  0  0  0  0  0  0  # atno 8010 bound_to 7997
  139.5977  144.1076  152.1708 H   0  0  0  0  0  0  0  0  0  0  0  0  # atno 10167 bound_to 10162
  156.3761  130.7813  151.1999 H   0  0  0  0  0  0  0  0  0  0  0  0  # atno 10718 bound_to 10713
  154.3056  135.2758  155.2590 H   0  0  0  0  0  0  0  0  0  0  0  0  # atno 10763 bound_to 10752
  154.5008  135.5808  153.6533 H   0  0  0  0  0  0  0  0  0  0  0  0  # atno 10764 bound_to 10752
  152.9894  135.6157  154.3230 H   0  0  0  0  0  0  0  0  0  0  0  0  # atno 10765 bound_to 10752
  139.8791  134.9297  156.5350 H   0  0  0  0  0  0  0  0  0  0  0  0  # atno 11005 bound_to 11000
  146.3519  140.0185  142.8660 LP  0  0  0  0  0  0  0  0  0  0  0  0  # atno 17320 bound_to 7965
  145.1507  140.9621  143.4434 LP  0  0  0  0  0  0  0  0  0  0  0  0  # atno 17321 bound_to 7965
  140.0665  144.5814  150.7223 LP  0  0  0  0  0  0  0  0  0  0  0  0  # atno 17342 bound_to 10162
  140.7225  143.2603  151.4231 LP  0  0  0  0  0  0  0  0  0  0  0  0  # atno 17343 bound_to 10162
  157.7488  131.0358  150.4380 LP  0  0  0  0  0  0  0  0  0  0  0  0  # atno 17370 bound_to 10713
  156.4615  130.4033  149.6573 LP  0  0  0  0  0  0  0  0  0  0  0  0  # atno 17371 bound_to 10713
  140.8353  133.8247  155.9022 LP  0  0  0  0  0  0  0  0  0  0  0  0  # atno 17394 bound_to 11000
  140.9290  134.2046  157.4877 LP  0  0  0  0  0  0  0  0  0  0  0  0  # atno 17395 bound_to 11000

$$$$
