AV-unprocessed.smi:2817|AV-procd|sdf|10847|dock10
  -GOLD-   2272015293D 1   1.00000     0.00000
 Structure written by MMmdl.
 42 44  0  0  0  0  0  0  0  0  1 V2000
  153.5255  138.4787  155.0446 O   0  0  0  0  0  0  0  0  0  0  0  0
  152.3356  138.4360  155.3578 C   0  0  0  0  0  0  0  0  0  0  0  0
  151.2920  139.1081  154.5832 C   0  0  0  0  0  0  0  0  0  0  0  0
  149.9937  139.0411  154.9636 C   0  0  0  0  0  0  0  0  0  0  0  0
  148.8898  139.7506  154.1914 C   0  0  0  0  0  0  0  0  0  0  0  0
  148.8492  141.2817  154.3268 C   0  0  0  0  0  0  0  0  0  0  0  0
  147.3203  141.1753  154.3485 C   0  0  0  0  0  0  0  0  0  0  0  0
  147.4936  139.7328  154.8364 C   0  0  0  0  0  0  0  0  0  0  0  0
  149.6246  138.3345  156.1141 N   0  0  0  0  0  0  0  0  0  0  0  0
  150.5291  137.7303  156.8166 C   0  0  0  0  0  0  0  0  0  0  0  0
  151.8902  137.7622  156.4580 N   0  0  0  0  0  0  0  0  0  0  0  0
  152.8166  137.0374  157.3427 C   0  0  0  0  0  0  0  0  0  0  0  0
  152.9505  137.7102  158.7272 C   0  0  1  0  0  0  0  0  0  0  0  0
  152.9913  136.7354  159.7503 O   0  0  0  0  0  0  0  0  0  0  0  0
  154.2131  138.5795  158.8564 C   0  0  0  0  0  0  0  0  0  0  0  0
  154.2880  139.1389  160.1625 O   0  0  0  0  0  0  0  0  0  0  0  0
  153.7837  140.4057  160.3620 C   0  0  0  0  0  0  0  0  0  0  0  0
  153.9154  140.9492  161.6566 C   0  0  0  0  0  0  0  0  0  0  0  0
  153.4285  142.2371  161.9514 C   0  0  0  0  0  0  0  0  0  0  0  0
  152.8011  142.9982  160.9481 C   0  0  0  0  0  0  0  0  0  0  0  0
  152.6632  142.4688  159.6516 C   0  0  0  0  0  0  0  0  0  0  0  0
  153.1509  141.1807  159.3568 C   0  0  0  0  0  0  0  0  0  0  0  0
  151.5701  139.6625  153.6986 H   0  0  0  0  0  0  0  0  0  0  0  0
  148.8586  139.4336  153.1475 H   0  0  0  0  0  0  0  0  0  0  0  0
  149.2534  141.6474  155.2727 H   0  0  0  0  0  0  0  0  0  0  0  0
  149.2576  141.8269  153.4754 H   0  0  0  0  0  0  0  0  0  0  0  0
  146.8253  141.8415  155.0555 H   0  0  0  0  0  0  0  0  0  0  0  0
  146.8767  141.2361  153.3533 H   0  0  0  0  0  0  0  0  0  0  0  0
  146.7976  139.0157  154.4004 H   0  0  0  0  0  0  0  0  0  0  0  0
  147.5153  139.6637  155.9257 H   0  0  0  0  0  0  0  0  0  0  0  0
  150.2956  137.1689  157.7229 H   0  0  0  0  0  0  0  0  0  0  0  0
  152.5376  135.9874  157.4542 H   0  0  0  0  0  0  0  0  0  0  0  0
  153.7967  137.0054  156.8627 H   0  0  0  0  0  0  0  0  0  0  0  0
  152.0879  138.3486  158.9226 H   0  0  0  0  0  0  0  0  0  0  0  0
  153.5248  137.0632  160.4579 H   0  0  0  0  0  0  0  0  0  0  0  0
  155.0892  137.9499  158.6922 H   0  0  0  0  0  0  0  0  0  0  0  0
  154.2174  139.3582  158.0916 H   0  0  0  0  0  0  0  0  0  0  0  0
  154.3955  140.3715  162.4329 H   0  0  0  0  0  0  0  0  0  0  0  0
  153.5363  142.6400  162.9476 H   0  0  0  0  0  0  0  0  0  0  0  0
  152.4262  143.9860  161.1724 H   0  0  0  0  0  0  0  0  0  0  0  0
  152.1822  143.0517  158.8799 H   0  0  0  0  0  0  0  0  0  0  0  0
  153.0264  140.8100  158.3508 H   0  0  0  0  0  0  0  0  0  0  0  0
  1  2  2  0  0  0  0
  2 11  1  0  0  0  0
  2  3  1  0  0  0  0
  3  4  2  0  0  0  0
  3 23  1  0  0  0  0
  4  5  1  0  0  0  0
  4  9  1  0  0  0  0
  5  8  1  0  0  0  0
  5  6  1  0  0  0  0
  5 24  1  0  0  0  0
  6  7  1  0  0  0  0
  6 25  1  0  0  0  0
  6 26  1  0  0  0  0
  7  8  1  0  0  0  0
  7 27  1  0  0  0  0
  7 28  1  0  0  0  0
  8 29  1  0  0  0  0
  8 30  1  0  0  0  0
  9 10  2  0  0  0  0
 10 11  1  0  0  0  0
 10 31  1  0  0  0  0
 11 12  1  0  0  0  0
 12 13  1  0  0  0  0
 12 32  1  0  0  0  0
 12 33  1  0  0  0  0
 13 14  1  0  0  0  0
 13 15  1  0  0  0  0
 13 34  1  0  0  0  0
 14 35  1  0  0  0  0
 15 16  1  0  0  0  0
 15 36  1  0  0  0  0
 15 37  1  0  0  0  0
 16 17  1  0  0  0  0
 17 22  1  0  0  0  0
 17 18  2  0  0  0  0
 18 19  1  0  0  0  0
 18 38  1  0  0  0  0
 19 20  2  0  0  0  0
 19 39  1  0  0  0  0
 20 21  1  0  0  0  0
 20 40  1  0  0  0  0
 21 22  2  0  0  0  0
 21 41  1  0  0  0  0
 22 42  1  0  0  0  0
M  END
> <s_m_source_file>
AV-unprocessed.smi

> <i_m_source_file_index>
2817

> <i_lp_mmshare_version>
43012

> <i_f3d_flags>
0

> <s_epik_input>
W0NIMl0xW0NIMl1bQ0gyXVtDSF0xYyhbY0hdYzI9TyluW2NIXW4yW0NIMl1bQ0BIXShbT0hdKVtDSDJdT2MzW2NIXVtjSF1bY0hdW2NIXVtjSF0z

> <s_epik_cmdline>
J2VwaWtfcHl0aG9uJywgJy1waCcsICc3LjAnLCAnLXRuJywgJzgnLCAnLW1hJywgJzIwMCcsICctbWV0YWxfYmluZGluZycsICctaW1hZScsICc8aW5maWxlLm1hZT4nLCAnLW9tYWUnLCAnPG91dGZpbGUubWFlPic=

> <r_lp_tautomer_probability>
1

> <r_epik_Ionization_Penalty>
2.12778e-05

> <r_epik_Ionization_Penalty_Charging>
7.42033e-08

> <r_epik_Ionization_Penalty_Neutral>
2.12036e-05

> <r_epik_State_Penalty>
-0

> <r_epik_Charging_Adjusted_Penalty>
7.42033e-08

> <i_epik_Tot_Q>
0

> <i_epik_Tot_abs_Q>
0

> <r_epik_Metal_State_Penalty>
-0

> <b_epik_Metal_Only>
0

> <s_lp_Force_Field>
OPLS_2005

> <r_lp_Energy>
33.1228

> <b_lp_Chiralities_Consistent>
1

> <s_lp_Variant>
AV-unprocessed.smi:2817-2

> <Gold.Version>
5.8.1

> <Gold.Id.Protein>
6NUR|6NUR_protein|mol2

> <Gold.PLP.Fitness>
45.9354

> <Gold.PLP.PLP>
-41.6124

> <Gold.PLP.part.hbond>
-2.0000

> <Gold.PLP.part.metal>
0.0000

> <Gold.PLP.part.buried>
-2.6617

> <Gold.PLP.part.nonpolar>
-36.6633

> <Gold.PLP.part.repulsive>
0.0000

> <Gold.PLP.ligand.clash>
0.0000

> <Gold.PLP.ligand.torsion>
1.0753

> <Gold.PLP.Chemscore.Hbond>
1.9920

> <Gold.PLP.Chemscore.CHOScore>
0.0000

> <Gold.PLP.Chemscore.Metal>
0.0000

> <Gold.Chemscore.Hbonds>
donor molecule, donor type, donor heavy atom, donor atom, acceptor molecule, acceptor atom, score
      P1  H  6896  6908       L1    14  1.00
      P1  H  7997  8008       L1     1  0.70

> <Gold.PLP.Chemscore.Internal.Correction>
0.4976

> <Gold.Rescore>
     Score         DG    S(hbond)    S(metal)    S(lipo)     H(rot)  DE(clash)    DE(int)     intcor
     17.32     -18.68       1.89        0.00     111.93       2.42       0.02       1.34       ----

> <Gold.Chemscore.Fitness>
17.3200

> <Gold.Chemscore.DG>
-18.6811

> <Gold.Chemscore.ZeroCoef>
-5.4800

> <Gold.Chemscore.Hbond>
1.8897

> <Gold.Chemscore.Metal>
0.0000

> <Gold.Chemscore.Lipo>
111.9335

> <Gold.Chemscore.Internal_Hbond>
0.0000

> <Gold.Chemscore.DEClash>
0.0174

> <Gold.Chemscore.DEInternal>
1.3436

> <Gold.Chemscore.Rot>
2.4245

> <Gold.Chemscore.Internal.Correction>
   9.000000E+99

> <Gold.Chemscore.Hbonds>
donor molecule, donor type, donor heavy atom, donor atom, acceptor molecule, acceptor atom, score
      P1  H  6896  6908       L1    14  0.94
      P1  H  7997  8008       L1     1  0.51

> <Gold.Chemscore.Hbond.Weighted>
-6.3115

> <Gold.Chemscore.Metal.Weighted>
-0.0000

> <Gold.Chemscore.Lipo.Weighted>
-13.0962

> <Gold.Chemscore.Internal_Hbond.Weighted>
0.0000

> <Gold.Chemscore.DEClash.Weighted>
0.0174

> <Gold.Chemscore.DEInternal.Weighted>
1.3436

> <Gold.Chemscore.Rot.Weighted>
6.2066

> <Gold.Chemscore.Internal.Correction.Weighted>
   9.000000E+99

> <Gold.Protein.RotatedTorsions>
[ 6907 6896 6895 6894 ] final  -96.44 input  -60.11 | X-H torsion
[ 7974 7965 7964 7962 ] final   17.73 input  175.53 | X-H torsion
[ 8008 7997 7996 7995 ] final  -19.01 input   59.86 | X-H torsion
[ 10167 10162 10161 10158 ] final  -31.48 input  -65.29 | X-H torsion
[ 10718 10713 10712 10709 ] final   67.28 input   66.30 | X-H torsion
[ 10763 10752 10751 10750 ] final -113.88 input  -60.55 | X-H torsion
[ 11005 11000 10999 10996 ] final  -92.55 input  -57.11 | X-H torsion

> <Gold.Protein.ActiveResidues>
 VAL166  LYS551  ARG553  GLY616  TRP617  ASP618  TYR619  PRO620  LYS621  CYS622 
 ASP623  PHE694  ASN695  SER759  ASP760  ASP761  ALA762  ILE779  LEU786  VAL792 
 PHE793  MET794  SER795  GLU796  ALA797  LYS798  CYS799  TRP800  GLU811  SER814 

> <Gold.Protein.RotatedAtoms>
  150.6989  134.1503  159.4137 H   0  0  0  0  0  0  0  0  0  0  0  0  # atno 6907 bound_to 6896
  151.9486  135.0177  160.0550 H   0  0  0  0  0  0  0  0  0  0  0  0  # atno 6908 bound_to 6896
  152.2031  133.4820  159.5106 H   0  0  0  0  0  0  0  0  0  0  0  0  # atno 6909 bound_to 6896
  146.2208  139.8559  142.8614 H   0  0  0  0  0  0  0  0  0  0  0  0  # atno 7974 bound_to 7965
  154.4866  140.2100  155.9642 H   0  0  0  0  0  0  0  0  0  0  0  0  # atno 8008 bound_to 7997
  156.1245  140.3208  155.8225 H   0  0  0  0  0  0  0  0  0  0  0  0  # atno 8009 bound_to 7997
  155.4409  140.0510  157.3001 H   0  0  0  0  0  0  0  0  0  0  0  0  # atno 8010 bound_to 7997
  140.7235  143.3768  151.1675 H   0  0  0  0  0  0  0  0  0  0  0  0  # atno 10167 bound_to 10162
  157.6221  130.9312  150.0221 H   0  0  0  0  0  0  0  0  0  0  0  0  # atno 10718 bound_to 10713
  154.8416  135.4438  154.1419 H   0  0  0  0  0  0  0  0  0  0  0  0  # atno 10763 bound_to 10752
  153.2602  135.6935  153.7593 H   0  0  0  0  0  0  0  0  0  0  0  0  # atno 10764 bound_to 10752
  153.6872  135.3393  155.3168 H   0  0  0  0  0  0  0  0  0  0  0  0  # atno 10765 bound_to 10752
  141.1519  133.7828  157.0036 H   0  0  0  0  0  0  0  0  0  0  0  0  # atno 11005 bound_to 11000
  145.2754  141.0122  143.3748 LP  0  0  0  0  0  0  0  0  0  0  0  0  # atno 17320 bound_to 7965
  144.9191  139.4433  143.6550 LP  0  0  0  0  0  0  0  0  0  0  0  0  # atno 17321 bound_to 7965
  139.7349  143.9014  152.3031 LP  0  0  0  0  0  0  0  0  0  0  0  0  # atno 17342 bound_to 10162
  139.8816  144.7014  150.8871 LP  0  0  0  0  0  0  0  0  0  0  0  0  # atno 17343 bound_to 10162
  156.1371  130.3642  149.9639 LP  0  0  0  0  0  0  0  0  0  0  0  0  # atno 17370 bound_to 10713
  156.7688  130.9178  151.3643 LP  0  0  0  0  0  0  0  0  0  0  0  0  # atno 17371 bound_to 10713
  140.0924  134.9585  157.1796 LP  0  0  0  0  0  0  0  0  0  0  0  0  # atno 17394 bound_to 11000
  140.3428  134.2685  155.7209 LP  0  0  0  0  0  0  0  0  0  0  0  0  # atno 17395 bound_to 11000

$$$$
