AV-unprocessed.smi:2470|AV-procd|sdf|9735|dock5
  -GOLD-   2272013373D 1   1.00000     0.00000
 Structure written by MMmdl.
 33 34  0  0  0  0  0  0  0  0  1 V2000
  153.0515  138.5366  155.2033 C   0  0  0  0  0  0  0  0  0  0  0  0
  151.8001  138.0848  154.6980 O   0  0  0  0  0  0  0  0  0  0  0  0
  150.7370  138.9638  154.7108 C   0  0  0  0  0  0  0  0  0  0  0  0
  150.8588  140.1850  155.4050 C   0  0  0  0  0  0  0  0  0  0  0  0
  149.7484  141.0586  155.3898 C   0  0  0  0  0  0  0  0  0  0  0  0
  149.9127  142.2772  156.1000 N   0  0  0  0  0  0  0  0  0  0  0  0
  150.7893  142.5531  157.0814 C   0  0  0  0  0  0  0  0  0  0  0  0
  151.6022  141.7566  157.5518 O   0  0  0  0  0  0  0  0  0  0  0  0
  150.6660  143.8231  157.4964 N   0  0  0  0  0  0  0  0  0  0  0  0
  151.4560  144.4620  158.5456 C   0  0  2  0  0  0  0  0  0  0  0  0
  152.8812  144.7015  158.0278 C   0  0  0  0  0  0  0  0  0  0  0  0
  151.4706  143.6599  159.8329 C   0  0  0  0  0  0  0  0  0  0  0  0
  152.2009  144.1626  161.0549 C   0  0  0  0  0  0  0  0  0  0  0  0
  152.7254  142.9614  160.3000 C   0  0  0  0  0  0  0  0  0  0  0  0
  148.6198  140.7065  154.7256 N   0  0  0  0  0  0  0  0  0  0  0  0
  148.6039  139.5277  154.1007 C   0  0  0  0  0  0  0  0  0  0  0  0
  149.5964  138.6382  154.0555 N   0  0  0  0  0  0  0  0  0  0  0  0
  153.7791  137.7277  155.1403 H   0  0  0  0  0  0  0  0  0  0  0  0
  152.9760  138.8323  156.2507 H   0  0  0  0  0  0  0  0  0  0  0  0
  153.4365  139.3749  154.6211 H   0  0  0  0  0  0  0  0  0  0  0  0
  151.7714  140.4369  155.9253 H   0  0  0  0  0  0  0  0  0  0  0  0
  149.2943  143.0261  155.8266 H   0  0  0  0  0  0  0  0  0  0  0  0
  149.9679  144.3984  157.0486 H   0  0  0  0  0  0  0  0  0  0  0  0
  151.0278  145.4376  158.7829 H   0  0  0  0  0  0  0  0  0  0  0  0
  153.4887  145.2135  158.7747 H   0  0  0  0  0  0  0  0  0  0  0  0
  152.8746  145.3212  157.1304 H   0  0  0  0  0  0  0  0  0  0  0  0
  153.3781  143.7623  157.7818 H   0  0  0  0  0  0  0  0  0  0  0  0
  150.5401  143.1282  160.0247 H   0  0  0  0  0  0  0  0  0  0  0  0
  152.7556  145.0947  160.9653 H   0  0  0  0  0  0  0  0  0  0  0  0
  151.7384  143.9861  162.0239 H   0  0  0  0  0  0  0  0  0  0  0  0
  152.6126  141.9849  160.7660 H   0  0  0  0  0  0  0  0  0  0  0  0
  153.6312  143.0962  159.7121 H   0  0  0  0  0  0  0  0  0  0  0  0
  147.6948  139.2676  153.5790 H   0  0  0  0  0  0  0  0  0  0  0  0
  1  2  1  0  0  0  0
  1 18  1  0  0  0  0
  1 19  1  0  0  0  0
  1 20  1  0  0  0  0
  2  3  1  0  0  0  0
  3 17  1  0  0  0  0
  3  4  2  0  0  0  0
  4  5  1  0  0  0  0
  4 21  1  0  0  0  0
  5  6  1  0  0  0  0
  5 15  2  0  0  0  0
  6  7  1  0  0  0  0
  6 22  1  0  0  0  0
  7  8  2  0  0  0  0
  7  9  1  0  0  0  0
  9 10  1  0  0  0  0
  9 23  1  0  0  0  0
 10 11  1  0  0  0  0
 10 12  1  0  0  0  0
 10 24  1  0  0  0  0
 11 25  1  0  0  0  0
 11 26  1  0  0  0  0
 11 27  1  0  0  0  0
 12 14  1  0  0  0  0
 12 13  1  0  0  0  0
 12 28  1  0  0  0  0
 13 14  1  0  0  0  0
 13 29  1  0  0  0  0
 13 30  1  0  0  0  0
 14 31  1  0  0  0  0
 14 32  1  0  0  0  0
 15 16  1  0  0  0  0
 16 17  2  0  0  0  0
 16 33  1  0  0  0  0
M  END
> <s_m_source_file>
AV-unprocessed.smi

> <i_m_source_file_index>
2470

> <i_lp_mmshare_version>
43012

> <i_f3d_flags>
0

> <s_epik_input>
W0NIM11PYzFbY0hdYyhuW2NIXW4xKVtOSF1DKD1PKVtOSF1bQ0BIXShbQ0gzXSlbQ0hdMltDSDJdW0NIMl0y

> <s_epik_cmdline>
J2VwaWtfcHl0aG9uJywgJy1waCcsICc3LjAnLCAnLXRuJywgJzgnLCAnLW1hJywgJzIwMCcsICctbWV0YWxfYmluZGluZycsICctaW1hZScsICc8aW5maWxlLm1hZT4nLCAnLW9tYWUnLCAnPG91dGZpbGUubWFlPic=

> <r_lp_tautomer_probability>
1

> <r_epik_Ionization_Penalty>
2.81207e-05

> <r_epik_Ionization_Penalty_Charging>
0

> <r_epik_Ionization_Penalty_Neutral>
2.81207e-05

> <r_epik_State_Penalty>
-0

> <r_epik_Charging_Adjusted_Penalty>
0

> <i_epik_Tot_Q>
0

> <i_epik_Tot_abs_Q>
0

> <r_epik_Metal_State_Penalty>
-0

> <b_epik_Metal_Only>
0

> <s_lp_Force_Field>
OPLS_2005

> <r_lp_Energy>
11.3699

> <b_lp_Chiralities_Consistent>
1

> <s_lp_Variant>
AV-unprocessed.smi:2470-1

> <Gold.Version>
5.8.1

> <Gold.Id.Protein>
6NUR|6NUR_protein|mol2

> <Gold.PLP.Fitness>
43.1846

> <Gold.PLP.PLP>
-38.0563

> <Gold.PLP.part.hbond>
-2.0000

> <Gold.PLP.part.metal>
0.0000

> <Gold.PLP.part.buried>
-3.1291

> <Gold.PLP.part.nonpolar>
-33.0317

> <Gold.PLP.part.repulsive>
0.6035

> <Gold.PLP.ligand.clash>
0.0000

> <Gold.PLP.ligand.torsion>
0.9763

> <Gold.PLP.Chemscore.Hbond>
2.0000

> <Gold.PLP.Chemscore.CHOScore>
0.0000

> <Gold.PLP.Chemscore.Metal>
0.0000

> <Gold.Chemscore.Hbonds>
donor molecule, donor type, donor heavy atom, donor atom, acceptor molecule, acceptor atom, score
      L1  H     6    22       P1  8028  1.00
      L1  H     9    23       P1  8028  1.00

> <Gold.PLP.Chemscore.Internal.Correction>
1.0809

> <Gold.Rescore>
     Score         DG    S(hbond)    S(metal)    S(lipo)     H(rot)  DE(clash)    DE(int)     intcor
     13.11     -16.51       1.84        0.00      76.99       1.61       0.05       3.35       ----

> <Gold.Chemscore.Fitness>
13.1098

> <Gold.Chemscore.DG>
-16.5105

> <Gold.Chemscore.ZeroCoef>
-5.4800

> <Gold.Chemscore.Hbond>
1.8404

> <Gold.Chemscore.Metal>
0.0000

> <Gold.Chemscore.Lipo>
76.9883

> <Gold.Chemscore.Internal_Hbond>
0.0000

> <Gold.Chemscore.DEClash>
0.0519

> <Gold.Chemscore.DEInternal>
3.3488

> <Gold.Chemscore.Rot>
1.6109

> <Gold.Chemscore.Internal.Correction>
   9.000000E+99

> <Gold.Chemscore.Hbonds>
donor molecule, donor type, donor heavy atom, donor atom, acceptor molecule, acceptor atom, score
      L1  H     6    22       P1  8028  0.97
      L1  H     9    23       P1  8028  0.58

> <Gold.Chemscore.Hbond.Weighted>
-6.1469

> <Gold.Chemscore.Metal.Weighted>
-0.0000

> <Gold.Chemscore.Lipo.Weighted>
-9.0076

> <Gold.Chemscore.Internal_Hbond.Weighted>
0.0000

> <Gold.Chemscore.DEClash.Weighted>
0.0519

> <Gold.Chemscore.DEInternal.Weighted>
3.3488

> <Gold.Chemscore.Rot.Weighted>
4.1240

> <Gold.Chemscore.Internal.Correction.Weighted>
   9.000000E+99

> <Gold.Protein.RotatedTorsions>
[ 6907 6896 6895 6894 ] final  137.23 input  -60.11 | X-H torsion
[ 7974 7965 7964 7962 ] final -132.77 input  175.53 | X-H torsion
[ 8008 7997 7996 7995 ] final -104.56 input   59.86 | X-H torsion
[ 10167 10162 10161 10158 ] final -105.07 input  -65.29 | X-H torsion
[ 10718 10713 10712 10709 ] final   70.94 input   66.30 | X-H torsion
[ 10763 10752 10751 10750 ] final   86.51 input  -60.55 | X-H torsion
[ 11005 11000 10999 10996 ] final    2.39 input  -57.11 | X-H torsion

> <Gold.Protein.ActiveResidues>
 VAL166  LYS551  ARG553  GLY616  TRP617  ASP618  TYR619  PRO620  LYS621  CYS622 
 ASP623  PHE694  ASN695  SER759  ASP760  ASP761  ALA762  ILE779  LEU786  VAL792 
 PHE793  MET794  SER795  GLU796  ALA797  LYS798  CYS799  TRP800  GLU811  SER814 

> <Gold.Protein.RotatedAtoms>
  152.2804  133.5465  159.5493 H   0  0  0  0  0  0  0  0  0  0  0  0  # atno 6907 bound_to 6896
  150.7194  134.0572  159.3827 H   0  0  0  0  0  0  0  0  0  0  0  0  # atno 6908 bound_to 6896
  151.8483  135.0567  160.0507 H   0  0  0  0  0  0  0  0  0  0  0  0  # atno 6909 bound_to 6896
  144.9254  140.7065  143.4939 H   0  0  0  0  0  0  0  0  0  0  0  0  # atno 7974 bound_to 7965
  154.8871  140.0417  157.1816 H   0  0  0  0  0  0  0  0  0  0  0  0  # atno 8008 bound_to 7997
  154.8579  140.2939  155.5536 H   0  0  0  0  0  0  0  0  0  0  0  0  # atno 8009 bound_to 7997
  156.2998  140.2452  156.3549 H   0  0  0  0  0  0  0  0  0  0  0  0  # atno 8010 bound_to 7997
  140.2025  143.3807  152.1117 H   0  0  0  0  0  0  0  0  0  0  0  0  # atno 10167 bound_to 10162
  157.6426  130.9503  150.0720 H   0  0  0  0  0  0  0  0  0  0  0  0  # atno 10718 bound_to 10713
  153.1577  135.4578  154.9728 H   0  0  0  0  0  0  0  0  0  0  0  0  # atno 10763 bound_to 10752
  154.7874  135.3209  154.7858 H   0  0  0  0  0  0  0  0  0  0  0  0  # atno 10764 bound_to 10752
  153.8352  135.6935  153.4864 H   0  0  0  0  0  0  0  0  0  0  0  0  # atno 10765 bound_to 10752
  140.6048  133.9802  155.8149 H   0  0  0  0  0  0  0  0  0  0  0  0  # atno 11005 bound_to 11000
  145.3227  139.1783  143.4579 LP  0  0  0  0  0  0  0  0  0  0  0  0  # atno 17320 bound_to 7965
  146.3224  140.3247  142.8636 LP  0  0  0  0  0  0  0  0  0  0  0  0  # atno 17321 bound_to 7965
  139.5211  144.7042  151.5404 LP  0  0  0  0  0  0  0  0  0  0  0  0  # atno 17342 bound_to 10162
  140.6380  143.8945  150.6665 LP  0  0  0  0  0  0  0  0  0  0  0  0  # atno 17343 bound_to 10162
  156.1722  130.3647  149.9150 LP  0  0  0  0  0  0  0  0  0  0  0  0  # atno 17370 bound_to 10713
  156.7123  130.8975  151.3610 LP  0  0  0  0  0  0  0  0  0  0  0  0  # atno 17371 bound_to 10713
  141.0848  134.0007  157.3331 LP  0  0  0  0  0  0  0  0  0  0  0  0  # atno 17394 bound_to 11000
  139.9217  135.0200  156.8088 LP  0  0  0  0  0  0  0  0  0  0  0  0  # atno 17395 bound_to 11000

$$$$
