AV-unprocessed.smi:826|AV-procd|sdf|3853|dock2
  -GOLD-   22720 1303D 1   1.00000     0.00000
 Structure written by MMmdl.
 39 40  0  0  0  0  0  0  0  0  1 V2000
  143.8836  143.8073  162.5727 C   0  0  0  0  0  0  0  0  0  0  0  0
  144.9005  143.5141  161.5235 C   0  0  0  0  0  0  0  0  0  0  0  0
  146.1291  143.0715  161.8165 N   0  0  0  0  0  0  0  0  0  0  0  0
  146.9011  142.8717  160.6806 N   0  0  0  0  0  0  0  0  0  0  0  0
  146.2290  143.1708  159.5604 C   0  0  0  0  0  0  0  0  0  0  0  0
  146.7821  143.0667  158.2568 N   0  0  0  0  0  0  0  0  0  0  0  0
  146.7747  142.0049  157.4321 C   0  0  0  0  0  0  0  0  0  0  0  0
  146.2292  140.9256  157.6646 O   0  0  0  0  0  0  0  0  0  0  0  0
  147.4488  142.2627  156.3007 N   0  0  0  0  0  0  0  0  0  0  0  0
  147.6656  141.3069  155.2154 C   0  0  1  0  0  0  0  0  0  0  0  0
  147.1302  141.9271  153.9142 C   0  0  0  0  0  0  0  0  0  0  0  0
  149.1666  141.0257  155.0413 C   0  0  0  0  0  0  0  0  0  0  0  0
  149.7255  141.2525  153.9669 O   0  0  0  0  0  0  0  0  0  0  0  0
  149.8038  140.5294  156.1123 N   0  0  0  0  0  0  0  0  0  0  0  0
  151.2300  140.2234  156.1738 C   0  0  0  0  0  0  0  0  0  0  0  0
  151.6427  139.2993  155.0120 C   0  0  0  0  0  0  0  0  0  0  0  0
  152.4644  138.1714  155.6384 C   0  0  0  0  0  0  0  0  0  0  0  0
  151.8986  138.0310  157.0475 C   0  0  0  0  0  0  0  0  0  0  0  0
  151.5882  139.4672  157.4697 C   0  0  0  0  0  0  0  0  0  0  0  0
  144.5814  143.7247  159.8057 S   0  0  0  0  0  0  0  0  0  0  0  0
  143.7076  142.9206  163.1823 H   0  0  0  0  0  0  0  0  0  0  0  0
  142.9413  144.1096  162.1154 H   0  0  0  0  0  0  0  0  0  0  0  0
  144.2335  144.6139  163.2174 H   0  0  0  0  0  0  0  0  0  0  0  0
  147.2579  143.8912  157.9213 H   0  0  0  0  0  0  0  0  0  0  0  0
  147.8690  143.1740  156.1923 H   0  0  0  0  0  0  0  0  0  0  0  0
  147.1269  140.3806  155.4260 H   0  0  0  0  0  0  0  0  0  0  0  0
  147.2684  141.2520  153.0687 H   0  0  0  0  0  0  0  0  0  0  0  0
  147.6305  142.8668  153.6747 H   0  0  0  0  0  0  0  0  0  0  0  0
  146.0623  142.1337  153.9922 H   0  0  0  0  0  0  0  0  0  0  0  0
  149.2671  140.3755  156.9536 H   0  0  0  0  0  0  0  0  0  0  0  0
  151.8055  141.1495  156.1218 H   0  0  0  0  0  0  0  0  0  0  0  0
  150.7629  138.8700  154.5301 H   0  0  0  0  0  0  0  0  0  0  0  0
  152.2024  139.8312  154.2421 H   0  0  0  0  0  0  0  0  0  0  0  0
  152.4085  137.2440  155.0678 H   0  0  0  0  0  0  0  0  0  0  0  0
  153.5129  138.4666  155.6932 H   0  0  0  0  0  0  0  0  0  0  0  0
  150.9762  137.4497  157.0171 H   0  0  0  0  0  0  0  0  0  0  0  0
  152.5865  137.5311  157.7298 H   0  0  0  0  0  0  0  0  0  0  0  0
  152.4812  139.9135  157.9091 H   0  0  0  0  0  0  0  0  0  0  0  0
  150.8061  139.5072  158.2295 H   0  0  0  0  0  0  0  0  0  0  0  0
  1  2  1  0  0  0  0
  1 21  1  0  0  0  0
  1 22  1  0  0  0  0
  1 23  1  0  0  0  0
  2 20  1  0  0  0  0
  2  3  2  0  0  0  0
  3  4  1  0  0  0  0
  4  5  2  0  0  0  0
  5  6  1  0  0  0  0
  5 20  1  0  0  0  0
  6  7  1  0  0  0  0
  6 24  1  0  0  0  0
  7  8  2  0  0  0  0
  7  9  1  0  0  0  0
  9 10  1  0  0  0  0
  9 25  1  0  0  0  0
 10 11  1  0  0  0  0
 10 12  1  0  0  0  0
 10 26  1  0  0  0  0
 11 27  1  0  0  0  0
 11 28  1  0  0  0  0
 11 29  1  0  0  0  0
 12 13  2  0  0  0  0
 12 14  1  0  0  0  0
 14 15  1  0  0  0  0
 14 30  1  0  0  0  0
 15 19  1  0  0  0  0
 15 16  1  0  0  0  0
 15 31  1  0  0  0  0
 16 17  1  0  0  0  0
 16 32  1  0  0  0  0
 16 33  1  0  0  0  0
 17 18  1  0  0  0  0
 17 34  1  0  0  0  0
 17 35  1  0  0  0  0
 18 19  1  0  0  0  0
 18 36  1  0  0  0  0
 18 37  1  0  0  0  0
 19 38  1  0  0  0  0
 19 39  1  0  0  0  0
M  END
> <s_m_source_file>
AV-unprocessed.smi

> <i_m_source_file_index>
826

> <i_lp_mmshare_version>
43012

> <i_f3d_flags>
0

> <s_epik_input>
W0NIM11jMW5uYyhzMSlbTkhdQyg9TylbTkhdW0NASF0oW0NIM10pQyg9TylbTkhdW0NIXTJbQ0gyXVtDSDJdW0NIMl1bQ0gyXTI=

> <s_epik_cmdline>
J2VwaWtfcHl0aG9uJywgJy1waCcsICc3LjAnLCAnLXRuJywgJzgnLCAnLW1hJywgJzIwMCcsICctbWV0YWxfYmluZGluZycsICctaW1hZScsICc8aW5maWxlLm1hZT4nLCAnLW9tYWUnLCAnPG91dGZpbGUubWFlPic=

> <r_lp_tautomer_probability>
1

> <r_epik_Ionization_Penalty>
0.00368568

> <r_epik_Ionization_Penalty_Charging>
0

> <r_epik_Ionization_Penalty_Neutral>
0.00368568

> <r_epik_State_Penalty>
-0

> <r_epik_Charging_Adjusted_Penalty>
0

> <i_epik_Tot_Q>
0

> <i_epik_Tot_abs_Q>
0

> <r_epik_Metal_State_Penalty>
0.369753

> <b_epik_Metal_Only>
0

> <s_lp_Force_Field>
OPLS_2005

> <r_lp_Energy>
15.8717

> <b_lp_Chiralities_Consistent>
1

> <s_lp_Variant>
AV-unprocessed.smi:826-2

> <Gold.Version>
5.8.1

> <Gold.Id.Protein>
6NUR|6NUR_protein|mol2

> <Gold.PLP.Fitness>
42.4818

> <Gold.PLP.PLP>
-31.3480

> <Gold.PLP.part.hbond>
-5.4734

> <Gold.PLP.part.metal>
0.0000

> <Gold.PLP.part.buried>
-3.1443

> <Gold.PLP.part.nonpolar>
-23.6032

> <Gold.PLP.part.repulsive>
0.8276

> <Gold.PLP.ligand.clash>
0.0000

> <Gold.PLP.ligand.torsion>
0.8318

> <Gold.PLP.Chemscore.Hbond>
4.2484

> <Gold.PLP.Chemscore.CHOScore>
0.0000

> <Gold.PLP.Chemscore.Metal>
0.0000

> <Gold.Chemscore.Hbonds>
donor molecule, donor type, donor heavy atom, donor atom, acceptor molecule, acceptor atom, score
      L1  H     6    24       P1  8029  0.39
      L1  H     9    25       P1  8028  0.95
      P1  H  6933  6944       L1     4  0.94
      P1  H  6934  6946       L1     4  0.69
      P1  H  7989  7998       L1    13  0.32
      P1  H  8011  8017       L1    13  0.77

> <Gold.PLP.Chemscore.Internal.Correction>
0.0524

> <Gold.Rescore>
     Score         DG    S(hbond)    S(metal)    S(lipo)     H(rot)  DE(clash)    DE(int)     intcor
     11.32     -13.79       1.61        0.00      61.03       1.65       0.46       2.00       ----

> <Gold.Chemscore.Fitness>
11.3238

> <Gold.Chemscore.DG>
-13.7879

> <Gold.Chemscore.ZeroCoef>
-5.4800

> <Gold.Chemscore.Hbond>
1.6111

> <Gold.Chemscore.Metal>
0.0000

> <Gold.Chemscore.Lipo>
61.0278

> <Gold.Chemscore.Internal_Hbond>
0.0000

> <Gold.Chemscore.DEClash>
0.4641

> <Gold.Chemscore.DEInternal>
1.9999

> <Gold.Chemscore.Rot>
1.6458

> <Gold.Chemscore.Internal.Correction>
   9.000000E+99

> <Gold.Chemscore.Hbonds>
donor molecule, donor type, donor heavy atom, donor atom, acceptor molecule, acceptor atom, score
      L1  H     6    24       P1  8029  0.05
      L1  H     9    25       P1  8028  0.22
      P1  H  6933  6944       L1     4  0.23
      P1  H  6934  6946       L1     4  0.06
      P1  H  7989  7998       L1    13  0.31
      P1  H  8011  8017       L1    13  0.75

> <Gold.Chemscore.Hbond.Weighted>
-5.3809

> <Gold.Chemscore.Metal.Weighted>
-0.0000

> <Gold.Chemscore.Lipo.Weighted>
-7.1402

> <Gold.Chemscore.Internal_Hbond.Weighted>
0.0000

> <Gold.Chemscore.DEClash.Weighted>
0.4641

> <Gold.Chemscore.DEInternal.Weighted>
1.9999

> <Gold.Chemscore.Rot.Weighted>
4.2133

> <Gold.Chemscore.Internal.Correction.Weighted>
   9.000000E+99

> <Gold.Protein.RotatedTorsions>
[ 6907 6896 6895 6894 ] final -146.10 input  -60.11 | X-H torsion
[ 7974 7965 7964 7962 ] final  167.19 input  175.53 | X-H torsion
[ 8008 7997 7996 7995 ] final  -19.41 input   59.86 | X-H torsion
[ 10167 10162 10161 10158 ] final -125.97 input  -65.29 | X-H torsion
[ 10718 10713 10712 10709 ] final -153.34 input   66.30 | X-H torsion
[ 10763 10752 10751 10750 ] final  -65.00 input  -60.55 | X-H torsion
[ 11005 11000 10999 10996 ] final    6.52 input  -57.11 | X-H torsion

> <Gold.Protein.ActiveResidues>
 VAL166  LYS551  ARG553  GLY616  TRP617  ASP618  TYR619  PRO620  LYS621  CYS622 
 ASP623  PHE694  ASN695  SER759  ASP760  ASP761  ALA762  ILE779  LEU786  VAL792 
 PHE793  MET794  SER795  GLU796  ALA797  LYS798  CYS799  TRP800  GLU811  SER814 

> <Gold.Protein.RotatedAtoms>
  151.1369  133.4998  159.2597 H   0  0  0  0  0  0  0  0  0  0  0  0  # atno 6907 bound_to 6896
  151.1696  135.0311  159.8756 H   0  0  0  0  0  0  0  0  0  0  0  0  # atno 6908 bound_to 6896
  152.5461  134.1234  159.8462 H   0  0  0  0  0  0  0  0  0  0  0  0  # atno 6909 bound_to 6896
  144.7433  139.8725  143.6390 H   0  0  0  0  0  0  0  0  0  0  0  0  # atno 7974 bound_to 7965
  154.4838  140.2089  155.9702 H   0  0  0  0  0  0  0  0  0  0  0  0  # atno 8008 bound_to 7997
  156.1206  140.3214  155.8171 H   0  0  0  0  0  0  0  0  0  0  0  0  # atno 8009 bound_to 7997
  155.4475  140.0514  157.2995 H   0  0  0  0  0  0  0  0  0  0  0  0  # atno 8010 bound_to 7997
  139.9764  143.5789  152.2394 H   0  0  0  0  0  0  0  0  0  0  0  0  # atno 10167 bound_to 10162
  156.4845  130.8318  151.2544 H   0  0  0  0  0  0  0  0  0  0  0  0  # atno 10718 bound_to 10713
  154.3385  135.6162  153.5585 H   0  0  0  0  0  0  0  0  0  0  0  0  # atno 10763 bound_to 10752
  152.9806  135.5764  154.4880 H   0  0  0  0  0  0  0  0  0  0  0  0  # atno 10764 bound_to 10752
  154.4580  135.2855  155.1710 H   0  0  0  0  0  0  0  0  0  0  0  0  # atno 10765 bound_to 10752
  140.5585  134.0215  155.7963 H   0  0  0  0  0  0  0  0  0  0  0  0  # atno 11005 bound_to 11000
  146.1270  139.4298  143.0192 LP  0  0  0  0  0  0  0  0  0  0  0  0  # atno 17320 bound_to 7965
  145.7220  141.0072  143.1397 LP  0  0  0  0  0  0  0  0  0  0  0  0  # atno 17321 bound_to 7965
  139.6442  144.7657  151.2277 LP  0  0  0  0  0  0  0  0  0  0  0  0  # atno 17342 bound_to 10162
  140.7504  143.6266  150.8462 LP  0  0  0  0  0  0  0  0  0  0  0  0  # atno 17343 bound_to 10162
  157.7480  131.0034  150.3036 LP  0  0  0  0  0  0  0  0  0  0  0  0  # atno 17370 bound_to 10713
  156.3488  130.3827  149.7346 LP  0  0  0  0  0  0  0  0  0  0  0  0  # atno 17371 bound_to 10713
  141.1129  133.9588  157.2877 LP  0  0  0  0  0  0  0  0  0  0  0  0  # atno 17394 bound_to 11000
  139.9419  135.0190  156.8736 LP  0  0  0  0  0  0  0  0  0  0  0  0  # atno 17395 bound_to 11000

$$$$
