AV-unprocessed.smi:99|AV-procd|sdf|865|dock5
  -GOLD-   2262017313D 1   1.00000     0.00000
 Structure written by MMmdl.
 53 56  0  0  0  0  0  0  0  0  1 V2000
  146.4511  138.1820  159.4340 O   0  0  0  0  0  0  0  0  0  0  0  0
  146.2418  136.9680  159.4647 C   0  0  0  0  0  0  0  0  0  0  0  0
  145.6733  136.2813  158.4550 O   0  0  0  0  0  0  0  0  0  0  0  0
  145.4218  136.9053  157.2059 C   0  0  0  0  0  0  0  0  0  0  0  0
  146.7575  137.1273  156.4852 C   0  0  2  0  0  0  0  0  0  0  0  0
  147.3305  138.3662  156.8929 O   0  0  0  0  0  0  0  0  0  0  0  0
  148.1697  138.8639  155.8868 C   0  0  1  0  0  0  0  0  0  0  0  0
  149.6018  138.8745  156.3838 N   0  0  0  0  0  0  0  0  0  0  0  0
  149.9528  138.4127  157.6464 C   0  0  0  0  0  0  0  0  0  0  0  0
  151.2282  138.4077  158.1015 C   0  0  0  0  0  0  0  0  0  0  0  0
  152.3171  138.8969  157.2617 C   0  0  0  0  0  0  0  0  0  0  0  0
  153.5014  138.9354  157.5878 O   0  0  0  0  0  0  0  0  0  0  0  0
  151.9199  139.3414  155.9975 N   0  0  0  0  0  0  0  0  0  0  0  0
  150.6100  139.3476  155.5162 C   0  0  0  0  0  0  0  0  0  0  0  0
  150.3720  139.7483  154.3773 O   0  0  0  0  0  0  0  0  0  0  0  0
  147.9685  137.9794  154.6334 C   0  0  1  0  0  0  0  0  0  0  0  0
  149.0061  137.0250  154.4576 O   0  0  0  0  0  0  0  0  0  0  0  0
  146.6471  137.3079  154.9720 C   0  0  1  0  0  0  0  0  0  0  0  0
  146.4544  136.1016  154.2370 O   0  0  0  0  0  0  0  0  0  0  0  0
  145.2251  135.7192  153.8249 C   0  0  0  0  0  0  0  0  0  0  0  0
  144.1749  136.1595  154.2962 O   0  0  0  0  0  0  0  0  0  0  0  0
  145.2716  134.6720  152.7656 C   0  0  0  0  0  0  0  0  0  0  0  0
  144.0700  134.2700  152.1370 C   0  0  0  0  0  0  0  0  0  0  0  0
  144.0782  133.2643  151.1514 C   0  0  0  0  0  0  0  0  0  0  0  0
  145.2885  132.6506  150.7803 C   0  0  0  0  0  0  0  0  0  0  0  0
  146.4909  133.0440  151.3958 C   0  0  0  0  0  0  0  0  0  0  0  0
  146.4846  134.0484  152.3831 C   0  0  0  0  0  0  0  0  0  0  0  0
  146.5633  136.1042  160.6376 C   0  0  0  0  0  0  0  0  0  0  0  0
  146.2305  134.7303  160.5994 C   0  0  0  0  0  0  0  0  0  0  0  0
  146.5445  133.8861  161.6822 C   0  0  0  0  0  0  0  0  0  0  0  0
  147.1935  134.4055  162.8173 C   0  0  0  0  0  0  0  0  0  0  0  0
  147.5256  135.7716  162.8698 C   0  0  0  0  0  0  0  0  0  0  0  0
  147.2118  136.6174  161.7883 C   0  0  0  0  0  0  0  0  0  0  0  0
  152.6421  139.6822  155.3795 H   0  0  0  0  0  0  0  0  0  0  0  0
  144.7610  136.3003  156.5831 H   0  0  0  0  0  0  0  0  0  0  0  0
  144.9243  137.8588  157.3845 H   0  0  0  0  0  0  0  0  0  0  0  0
  147.4579  136.3253  156.7250 H   0  0  0  0  0  0  0  0  0  0  0  0
  147.8933  139.9080  155.7278 H   0  0  0  0  0  0  0  0  0  0  0  0
  149.1921  138.0312  158.3105 H   0  0  0  0  0  0  0  0  0  0  0  0
  151.4454  138.0376  159.0930 H   0  0  0  0  0  0  0  0  0  0  0  0
  147.8984  138.6012  153.7405 H   0  0  0  0  0  0  0  0  0  0  0  0
  149.0166  136.7586  153.5510 H   0  0  0  0  0  0  0  0  0  0  0  0
  145.8537  138.0279  154.7659 H   0  0  0  0  0  0  0  0  0  0  0  0
  143.1272  134.7204  152.4119 H   0  0  0  0  0  0  0  0  0  0  0  0
  143.1536  132.9613  150.6826 H   0  0  0  0  0  0  0  0  0  0  0  0
  145.2944  131.8785  150.0251 H   0  0  0  0  0  0  0  0  0  0  0  0
  147.4206  132.5735  151.1119 H   0  0  0  0  0  0  0  0  0  0  0  0
  147.4245  134.3244  152.8381 H   0  0  0  0  0  0  0  0  0  0  0  0
  145.7377  134.3072  159.7358 H   0  0  0  0  0  0  0  0  0  0  0  0
  146.2890  132.8374  161.6401 H   0  0  0  0  0  0  0  0  0  0  0  0
  147.4369  133.7571  163.6460 H   0  0  0  0  0  0  0  0  0  0  0  0
  148.0272  136.1717  163.7386 H   0  0  0  0  0  0  0  0  0  0  0  0
  147.4881  137.6592  161.8587 H   0  0  0  0  0  0  0  0  0  0  0  0
  1  2  2  0  0  0  0
  2  3  1  0  0  0  0
  2 28  1  0  0  0  0
  3  4  1  0  0  0  0
  4  5  1  0  0  0  0
  4 35  1  0  0  0  0
  4 36  1  0  0  0  0
  5 18  1  0  0  0  0
  5  6  1  0  0  0  0
  5 37  1  0  0  0  0
  6  7  1  0  0  0  0
  7  8  1  0  0  0  0
  7 16  1  0  0  0  0
  7 38  1  0  0  0  0
  8 14  1  0  0  0  0
  8  9  1  0  0  0  0
  9 10  2  0  0  0  0
  9 39  1  0  0  0  0
 10 11  1  0  0  0  0
 10 40  1  0  0  0  0
 11 12  2  0  0  0  0
 11 13  1  0  0  0  0
 13 34  1  0  0  0  0
 13 14  1  0  0  0  0
 14 15  2  0  0  0  0
 16 17  1  0  0  0  0
 16 18  1  0  0  0  0
 16 41  1  0  0  0  0
 17 42  1  0  0  0  0
 18 19  1  0  0  0  0
 18 43  1  0  0  0  0
 19 20  1  0  0  0  0
 20 21  2  0  0  0  0
 20 22  1  0  0  0  0
 22 27  1  0  0  0  0
 22 23  2  0  0  0  0
 23 24  1  0  0  0  0
 23 44  1  0  0  0  0
 24 25  2  0  0  0  0
 24 45  1  0  0  0  0
 25 26  1  0  0  0  0
 25 46  1  0  0  0  0
 26 27  2  0  0  0  0
 26 47  1  0  0  0  0
 27 48  1  0  0  0  0
 28 33  1  0  0  0  0
 28 29  2  0  0  0  0
 29 30  1  0  0  0  0
 29 49  1  0  0  0  0
 30 31  2  0  0  0  0
 30 50  1  0  0  0  0
 31 32  1  0  0  0  0
 31 51  1  0  0  0  0
 32 33  2  0  0  0  0
 32 52  1  0  0  0  0
 33 53  1  0  0  0  0
M  END
> <s_m_source_file>
AV-unprocessed.smi

> <i_m_source_file_index>
99

> <i_lp_mmshare_version>
43012

> <i_f3d_flags>
0

> <s_epik_input>
W2NIXTFbY0hdW2NIXVtjSF1bY0hdYzFDKD1PKU9bQ0gyXVtDQEBIXTJPW0NAQEhdKG4zW2NIXVtjSF1jKD1PKVtuSF1jMz1PKVtDQEBIXShbT0hdKVtDQEhdMk9DKD1PKWM0W2NIXVtjSF1bY0hdW2NIXVtjSF00

> <s_epik_cmdline>
J2VwaWtfcHl0aG9uJywgJy1waCcsICc3LjAnLCAnLXRuJywgJzgnLCAnLW1hJywgJzIwMCcsICctbWV0YWxfYmluZGluZycsICctaW1hZScsICc8aW5maWxlLm1hZT4nLCAnLW9tYWUnLCAnPG91dGZpbGUubWFlPic=

> <r_lp_tautomer_probability>
1

> <r_epik_Ionization_Penalty>
0.00454555

> <r_epik_Ionization_Penalty_Charging>
0.0045191

> <r_epik_Ionization_Penalty_Neutral>
2.64449e-05

> <r_epik_State_Penalty>
-0

> <r_epik_Charging_Adjusted_Penalty>
0.0045191

> <i_epik_Tot_Q>
0

> <i_epik_Tot_abs_Q>
0

> <r_epik_Metal_State_Penalty>
1.27877

> <b_epik_Metal_Only>
0

> <s_epik_Chemistry_Notes>
This compound has an ester and may undergo hydrolysis at high or low pH. This compound contains an acetal/aminal-like group ( X-CH(R)-Y where X, Y are N, S, or O) that may be acid/base labile, releasing an aldehyde.

> <s_lp_Force_Field>
OPLS_2005

> <r_lp_Energy>
44.6164

> <b_lp_Chiralities_Consistent>
1

> <s_lp_Variant>
AV-unprocessed.smi:99-1

> <Gold.Version>
5.8.1

> <Gold.Id.Protein>
6NUR|6NUR_protein|mol2

> <Gold.PLP.Fitness>
48.4462

> <Gold.PLP.PLP>
-39.4178

> <Gold.PLP.part.hbond>
-3.8802

> <Gold.PLP.part.metal>
0.0000

> <Gold.PLP.part.buried>
-7.5583

> <Gold.PLP.part.nonpolar>
-28.9166

> <Gold.PLP.part.repulsive>
0.3952

> <Gold.PLP.ligand.clash>
0.0000

> <Gold.PLP.ligand.torsion>
1.1104

> <Gold.PLP.Chemscore.Hbond>
3.6560

> <Gold.PLP.Chemscore.CHOScore>
0.0000

> <Gold.PLP.Chemscore.Metal>
0.0000

> <Gold.Chemscore.Hbonds>
donor molecule, donor type, donor heavy atom, donor atom, acceptor molecule, acceptor atom, score
      L1  H    17    42       P1  7948  1.00
      P1  H  6934  6947       L1     1  0.66
      P1  H  7989  7998       L1    15  1.00
      P1  H  7997  8010       L1    12  1.00

> <Gold.PLP.Chemscore.Internal.Correction>
0.2812

> <Gold.Rescore>
     Score         DG    S(hbond)    S(metal)    S(lipo)     H(rot)  DE(clash)    DE(int)     intcor
     17.81     -20.27       3.83        0.00      86.70       3.19       0.00       2.46       ----

> <Gold.Chemscore.Fitness>
17.8069

> <Gold.Chemscore.DG>
-20.2652

> <Gold.Chemscore.ZeroCoef>
-5.4800

> <Gold.Chemscore.Hbond>
3.8348

> <Gold.Chemscore.Metal>
0.0000

> <Gold.Chemscore.Lipo>
86.7029

> <Gold.Chemscore.Internal_Hbond>
0.0000

> <Gold.Chemscore.DEClash>
0.0000

> <Gold.Chemscore.DEInternal>
2.4584

> <Gold.Chemscore.Rot>
3.1903

> <Gold.Chemscore.Internal.Correction>
   9.000000E+99

> <Gold.Chemscore.Hbonds>
donor molecule, donor type, donor heavy atom, donor atom, acceptor molecule, acceptor atom, score
      L1  H    17    42       P1  7948  1.00
      P1  H  6934  6947       L1     1  0.65
      P1  H  7989  7998       L1    15  0.97
      P1  H  7997  8010       L1    12  0.89

> <Gold.Chemscore.Hbond.Weighted>
-12.8081

> <Gold.Chemscore.Metal.Weighted>
-0.0000

> <Gold.Chemscore.Lipo.Weighted>
-10.1442

> <Gold.Chemscore.Internal_Hbond.Weighted>
0.0000

> <Gold.Chemscore.DEClash.Weighted>
0.0000

> <Gold.Chemscore.DEInternal.Weighted>
2.4584

> <Gold.Chemscore.Rot.Weighted>
8.1671

> <Gold.Chemscore.Internal.Correction.Weighted>
   9.000000E+99

> <Gold.Protein.RotatedTorsions>
[ 6907 6896 6895 6894 ] final  -21.52 input  -60.11 | X-H torsion
[ 7974 7965 7964 7962 ] final  138.30 input  175.53 | X-H torsion
[ 8008 7997 7996 7995 ] final   53.74 input   59.86 | X-H torsion
[ 10167 10162 10161 10158 ] final -135.91 input  -65.29 | X-H torsion
[ 10718 10713 10712 10709 ] final  -88.21 input   66.30 | X-H torsion
[ 10763 10752 10751 10750 ] final   -4.95 input  -60.55 | X-H torsion
[ 11005 11000 10999 10996 ] final    9.63 input  -57.11 | X-H torsion

> <Gold.Protein.ActiveResidues>
 VAL166  LYS551  ARG553  GLY616  TRP617  ASP618  TYR619  PRO620  LYS621  CYS622 
 ASP623  PHE694  ASN695  SER759  ASP760  ASP761  ALA762  ILE779  LEU786  VAL792 
 PHE793  MET794  SER795  GLU796  ALA797  LYS798  CYS799  TRP800  GLU811  SER814 

> <Gold.Protein.RotatedAtoms>
  151.2321  135.0558  159.8991 H   0  0  0  0  0  0  0  0  0  0  0  0  # atno 6907 bound_to 6896
  152.5403  134.0525  159.8126 H   0  0  0  0  0  0  0  0  0  0  0  0  # atno 6908 bound_to 6896
  151.0706  133.5420  159.2659 H   0  0  0  0  0  0  0  0  0  0  0  0  # atno 6909 bound_to 6896
  144.9385  139.4959  143.5583 H   0  0  0  0  0  0  0  0  0  0  0  0  # atno 7974 bound_to 7965
  155.4733  140.3466  155.4329 H   0  0  0  0  0  0  0  0  0  0  0  0  # atno 8008 bound_to 7997
  156.1086  140.1455  156.9398 H   0  0  0  0  0  0  0  0  0  0  0  0  # atno 8009 bound_to 7997
  154.4741  140.0891  156.7197 H   0  0  0  0  0  0  0  0  0  0  0  0  # atno 8010 bound_to 7997
  139.8731  143.6932  152.2637 H   0  0  0  0  0  0  0  0  0  0  0  0  # atno 10167 bound_to 10162
  155.9984  130.4827  150.4984 H   0  0  0  0  0  0  0  0  0  0  0  0  # atno 10718 bound_to 10713
  153.3918  135.7002  153.6489 H   0  0  0  0  0  0  0  0  0  0  0  0  # atno 10763 bound_to 10752
  153.5059  135.3642  155.2563 H   0  0  0  0  0  0  0  0  0  0  0  0  # atno 10764 bound_to 10752
  154.8703  135.4123  154.3236 H   0  0  0  0  0  0  0  0  0  0  0  0  # atno 10765 bound_to 10752
  140.5235  134.0535  155.7852 H   0  0  0  0  0  0  0  0  0  0  0  0  # atno 11005 bound_to 11000
  146.3276  139.8387  142.8894 LP  0  0  0  0  0  0  0  0  0  0  0  0  # atno 17320 bound_to 7965
  145.3028  141.0199  143.3599 LP  0  0  0  0  0  0  0  0  0  0  0  0  # atno 17321 bound_to 7965
  139.7265  144.7592  151.0871 LP  0  0  0  0  0  0  0  0  0  0  0  0  # atno 17342 bound_to 10162
  140.7757  143.5142  150.9616 LP  0  0  0  0  0  0  0  0  0  0  0  0  # atno 17343 bound_to 10162
  157.2971  131.0638  151.2094 LP  0  0  0  0  0  0  0  0  0  0  0  0  # atno 17370 bound_to 10713
  157.3086  130.6878  149.6203 LP  0  0  0  0  0  0  0  0  0  0  0  0  # atno 17371 bound_to 10713
  141.1321  133.9284  157.2513 LP  0  0  0  0  0  0  0  0  0  0  0  0  # atno 17394 bound_to 11000
  139.9593  135.0158  156.9215 LP  0  0  0  0  0  0  0  0  0  0  0  0  # atno 17395 bound_to 11000

$$$$
