AV-unprocessed.smi:2710|AV-procd|sdf|10466|dock4
  -GOLD-   2272014503D 1   1.00000     0.00000
 Structure written by MMmdl.
 53 54  0  0  0  0  0  0  0  0  2 V2000
  146.7288  143.3433  157.8877 C   0  0  0  0  0  0  0  0  0  0  0  0
  147.6286  142.1653  157.4786 C   0  0  0  0  0  0  0  0  0  0  0  0
  147.7510  141.9981  156.0009 N   0  3  2  0  0  0  0  0  0  0  0  0
  146.4330  141.7039  155.3686 C   0  0  0  0  0  0  0  0  0  0  0  0
  146.5221  141.6700  153.8358 C   0  0  0  0  0  0  0  0  0  0  0  0
  147.5627  140.6501  153.3498 C   0  0  2  0  0  0  0  0  0  0  0  0
  147.1390  139.2704  153.5897 N   0  0  0  0  0  0  0  0  0  0  0  0
  146.7784  138.3963  152.6391 C   0  0  0  0  0  0  0  0  0  0  0  0
  146.7490  138.6767  151.4419 O   0  0  0  0  0  0  0  0  0  0  0  0
  146.4625  137.2037  153.1724 N   0  0  0  0  0  0  0  0  0  0  0  0
  146.0301  136.0153  152.5217 C   0  0  0  0  0  0  0  0  0  0  0  0
  145.5651  135.9225  151.1871 C   0  0  0  0  0  0  0  0  0  0  0  0
  145.1733  134.7460  150.6538 N   0  0  0  0  0  0  0  0  0  0  0  0
  145.2056  133.6606  151.4374 C   0  0  0  0  0  0  0  0  0  0  0  0
  144.8966  132.3068  150.7741 C   0  0  0  0  0  0  0  0  0  0  0  0
  143.5188  132.3316  150.0712 C   0  0  0  0  0  0  0  0  0  0  0  0
  144.9093  131.1980  151.8424 C   0  0  0  0  0  0  0  0  0  0  0  0
  145.9319  131.9778  149.6727 C   0  0  0  0  0  0  0  0  0  0  0  0
  145.6678  133.6344  152.6943 N   0  0  0  0  0  0  0  0  0  0  0  0
  146.0613  134.8034  153.2409 C   0  0  0  0  0  0  0  0  0  0  0  0
  148.9033  140.9353  154.0404 C   0  0  0  0  0  0  0  0  0  0  0  0
  148.7930  141.0034  155.5821 C   0  0  1  0  0  0  0  0  0  0  0  0
  150.1922  141.3040  156.1591 C   0  0  0  0  0  0  0  0  0  0  0  0
  146.8024  143.5215  158.9608 H   0  0  0  0  0  0  0  0  0  0  0  0
  145.6768  143.1595  157.6729 H   0  0  0  0  0  0  0  0  0  0  0  0
  147.0258  144.2627  157.3823 H   0  0  0  0  0  0  0  0  0  0  0  0
  148.6003  142.3725  157.9207 H   0  0  0  0  0  0  0  0  0  0  0  0
  147.2735  141.2384  157.9310 H   0  0  0  0  0  0  0  0  0  0  0  0
  146.0515  140.7539  155.7461 H   0  0  0  0  0  0  0  0  0  0  0  0
  145.6989  142.4616  155.6360 H   0  0  0  0  0  0  0  0  0  0  0  0
  145.5422  141.4533  153.4088 H   0  0  0  0  0  0  0  0  0  0  0  0
  146.7937  142.6621  153.4728 H   0  0  0  0  0  0  0  0  0  0  0  0
  147.7036  140.7751  152.2744 H   0  0  0  0  0  0  0  0  0  0  0  0
  147.1397  138.9520  154.5477 H   0  0  0  0  0  0  0  0  0  0  0  0
  146.5444  137.1341  154.1761 H   0  0  0  0  0  0  0  0  0  0  0  0
  145.5006  136.7677  150.5215 H   0  0  0  0  0  0  0  0  0  0  0  0
  143.3182  131.3905  149.5577 H   0  0  0  0  0  0  0  0  0  0  0  0
  143.4665  133.1279  149.3277 H   0  0  0  0  0  0  0  0  0  0  0  0
  142.7020  132.4841  150.7774 H   0  0  0  0  0  0  0  0  0  0  0  0
  144.1625  131.3847  152.6148 H   0  0  0  0  0  0  0  0  0  0  0  0
  145.8809  131.1335  152.3338 H   0  0  0  0  0  0  0  0  0  0  0  0
  144.6956  130.2217  151.4062 H   0  0  0  0  0  0  0  0  0  0  0  0
  145.6920  131.0410  149.1686 H   0  0  0  0  0  0  0  0  0  0  0  0
  146.9383  131.8671  150.0777 H   0  0  0  0  0  0  0  0  0  0  0  0
  145.9655  132.7594  148.9126 H   0  0  0  0  0  0  0  0  0  0  0  0
  146.4109  134.7675  154.2624 H   0  0  0  0  0  0  0  0  0  0  0  0
  149.6310  140.1772  153.7467 H   0  0  0  0  0  0  0  0  0  0  0  0
  149.2944  141.8837  153.6689 H   0  0  0  0  0  0  0  0  0  0  0  0
  148.4852  140.0228  155.9491 H   0  0  0  0  0  0  0  0  0  0  0  0
  150.9476  140.6643  155.7014 H   0  0  0  0  0  0  0  0  0  0  0  0
  150.2500  141.1142  157.2303 H   0  0  0  0  0  0  0  0  0  0  0  0
  150.4863  142.3381  155.9761 H   0  0  0  0  0  0  0  0  0  0  0  0
  148.0539  142.8916  155.6396 H   0  0  0  0  0  0  0  0  0  0  0  0
  1  2  1  0  0  0  0
  1 24  1  0  0  0  0
  1 25  1  0  0  0  0
  1 26  1  0  0  0  0
  2  3  1  0  0  0  0
  2 27  1  0  0  0  0
  2 28  1  0  0  0  0
  3 22  1  0  0  0  0
  3  4  1  0  0  0  0
  3 53  1  0  0  0  0
  4  5  1  0  0  0  0
  4 29  1  0  0  0  0
  4 30  1  0  0  0  0
  5  6  1  0  0  0  0
  5 31  1  0  0  0  0
  5 32  1  0  0  0  0
  6  7  1  0  0  0  0
  6 21  1  0  0  0  0
  6 33  1  0  0  0  0
  7  8  1  0  0  0  0
  7 34  1  0  0  0  0
  8  9  2  0  0  0  0
  8 10  1  0  0  0  0
 10 11  1  0  0  0  0
 10 35  1  0  0  0  0
 11 20  1  0  0  0  0
 11 12  2  0  0  0  0
 12 13  1  0  0  0  0
 12 36  1  0  0  0  0
 13 14  2  0  0  0  0
 14 15  1  0  0  0  0
 14 19  1  0  0  0  0
 15 16  1  0  0  0  0
 15 17  1  0  0  0  0
 15 18  1  0  0  0  0
 16 37  1  0  0  0  0
 16 38  1  0  0  0  0
 16 39  1  0  0  0  0
 17 40  1  0  0  0  0
 17 41  1  0  0  0  0
 17 42  1  0  0  0  0
 18 43  1  0  0  0  0
 18 44  1  0  0  0  0
 18 45  1  0  0  0  0
 19 20  2  0  0  0  0
 20 46  1  0  0  0  0
 21 22  1  0  0  0  0
 21 47  1  0  0  0  0
 21 48  1  0  0  0  0
 22 23  1  0  0  0  0
 22 49  1  0  0  0  0
 23 50  1  0  0  0  0
 23 51  1  0  0  0  0
 23 52  1  0  0  0  0
M  CHG  1   3   1
M  END
> <s_m_source_file>
AV-unprocessed.smi

> <i_m_source_file_index>
2710

> <i_lp_mmshare_version>
43012

> <i_f3d_flags>
0

> <s_epik_input>
W0NIM11bQ0gyXU4xW0NIMl1bQ0gyXVtDQEhdKFtDSDJdW0NASF0xW0NIM10pW05IXUMoPU8pW05IXWMyW2NIXW5jKEMoW0NIM10pKFtDSDNdKVtDSDNdKW5bY0hdMg==

> <s_epik_cmdline>
J2VwaWtfcHl0aG9uJywgJy1waCcsICc3LjAnLCAnLXRuJywgJzgnLCAnLW1hJywgJzIwMCcsICctbWV0YWxfYmluZGluZycsICctaW1hZScsICc8aW5maWxlLm1hZT4nLCAnLW9tYWUnLCAnPG91dGZpbGUubWFlPic=

> <r_lp_tautomer_probability>
1

> <r_epik_Ionization_Penalty>
0.00396003

> <r_epik_Ionization_Penalty_Charging>
0.0039379

> <r_epik_Ionization_Penalty_Neutral>
2.21316e-05

> <r_epik_State_Penalty>
0.00281651

> <r_epik_Charging_Adjusted_Penalty>
0.00675441

> <i_epik_Tot_Q>
1

> <i_epik_Tot_abs_Q>
1

> <r_epik_Metal_State_Penalty>
-0

> <b_epik_Metal_Only>
0

> <s_lp_Force_Field>
OPLS_2005

> <r_lp_Energy>
19.072

> <b_lp_Chiralities_Consistent>
1

> <s_lp_Variant>
AV-unprocessed.smi:2710-3

> <Gold.Version>
5.8.1

> <Gold.Id.Protein>
6NUR|6NUR_protein|mol2

> <Gold.PLP.Fitness>
47.4713

> <Gold.PLP.PLP>
-37.4867

> <Gold.PLP.part.hbond>
-2.6040

> <Gold.PLP.part.metal>
0.0000

> <Gold.PLP.part.buried>
-0.4827

> <Gold.PLP.part.nonpolar>
-35.2168

> <Gold.PLP.part.repulsive>
1.8308

> <Gold.PLP.ligand.clash>
0.0000

> <Gold.PLP.ligand.torsion>
0.3653

> <Gold.PLP.Chemscore.Hbond>
2.5200

> <Gold.PLP.Chemscore.CHOScore>
1.0000

> <Gold.PLP.Chemscore.Metal>
0.0000

> <Gold.Chemscore.Hbonds>
donor molecule, donor type, donor heavy atom, donor atom, acceptor molecule, acceptor atom, score
      L1  H     3    53       P1  8028  2.00
      P1  H  7954  7966       L1     9  0.47
      L1  C    12    36       P1 10171  0.99

> <Gold.PLP.Chemscore.Internal.Correction>
0.1552

> <Gold.Rescore>
     Score         DG    S(hbond)    S(metal)    S(lipo)     H(rot)  DE(clash)    DE(int)     intcor
     14.36     -15.58       0.96        0.00      87.53       1.31       0.04       1.17       ----

> <Gold.Chemscore.Fitness>
14.3621

> <Gold.Chemscore.DG>
-15.5758

> <Gold.Chemscore.ZeroCoef>
-5.4800

> <Gold.Chemscore.Hbond>
0.9591

> <Gold.Chemscore.Metal>
0.0000

> <Gold.Chemscore.Lipo>
87.5313

> <Gold.Chemscore.Internal_Hbond>
0.0000

> <Gold.Chemscore.DEClash>
0.0402

> <Gold.Chemscore.DEInternal>
1.1735

> <Gold.Chemscore.Rot>
1.3081

> <Gold.Chemscore.Internal.Correction>
   9.000000E+99

> <Gold.Chemscore.Hbonds>
donor molecule, donor type, donor heavy atom, donor atom, acceptor molecule, acceptor atom, score
      L1  H     3    53       P1  8028  0.83
      P1  H  7954  7966       L1     9  0.46

> <Gold.Chemscore.Hbond.Weighted>
-3.2034

> <Gold.Chemscore.Metal.Weighted>
-0.0000

> <Gold.Chemscore.Lipo.Weighted>
-10.2412

> <Gold.Chemscore.Internal_Hbond.Weighted>
0.0000

> <Gold.Chemscore.DEClash.Weighted>
0.0402

> <Gold.Chemscore.DEInternal.Weighted>
1.1735

> <Gold.Chemscore.Rot.Weighted>
3.3488

> <Gold.Chemscore.Internal.Correction.Weighted>
   9.000000E+99

> <Gold.Protein.RotatedTorsions>
[ 6907 6896 6895 6894 ] final -120.12 input  -60.11 | X-H torsion
[ 7974 7965 7964 7962 ] final   -2.42 input  175.53 | X-H torsion
[ 8008 7997 7996 7995 ] final  116.41 input   59.86 | X-H torsion
[ 10167 10162 10161 10158 ] final   20.08 input  -65.29 | X-H torsion
[ 10718 10713 10712 10709 ] final -116.62 input   66.30 | X-H torsion
[ 10763 10752 10751 10750 ] final   39.81 input  -60.55 | X-H torsion
[ 11005 11000 10999 10996 ] final  127.65 input  -57.11 | X-H torsion

> <Gold.Protein.ActiveResidues>
 VAL166  LYS551  ARG553  GLY616  TRP617  ASP618  TYR619  PRO620  LYS621  CYS622 
 ASP623  PHE694  ASN695  SER759  ASP760  ASP761  ALA762  ILE779  LEU786  VAL792 
 PHE793  MET794  SER795  GLU796  ALA797  LYS798  CYS799  TRP800  GLU811  SER814 

> <Gold.Protein.RotatedAtoms>
  150.8365  133.8006  159.3077 H   0  0  0  0  0  0  0  0  0  0  0  0  # atno 6907 bound_to 6896
  151.5720  135.1060  160.0007 H   0  0  0  0  0  0  0  0  0  0  0  0  # atno 6908 bound_to 6896
  152.4436  133.7452  159.6719 H   0  0  0  0  0  0  0  0  0  0  0  0  # atno 6909 bound_to 6896
  146.2404  140.1568  142.8333 H   0  0  0  0  0  0  0  0  0  0  0  0  # atno 7974 bound_to 7965
  156.2438  140.2918  156.0519 H   0  0  0  0  0  0  0  0  0  0  0  0  # atno 8008 bound_to 7997
  155.1871  140.0406  157.2910 H   0  0  0  0  0  0  0  0  0  0  0  0  # atno 8009 bound_to 7997
  154.6220  140.2478  155.7545 H   0  0  0  0  0  0  0  0  0  0  0  0  # atno 8010 bound_to 7997
  140.5530  143.9474  150.6591 H   0  0  0  0  0  0  0  0  0  0  0  0  # atno 10167 bound_to 10162
  156.0976  130.6145  150.9059 H   0  0  0  0  0  0  0  0  0  0  0  0  # atno 10718 bound_to 10713
  152.9955  135.6210  154.2524 H   0  0  0  0  0  0  0  0  0  0  0  0  # atno 10763 bound_to 10752
  154.2263  135.2794  155.2908 H   0  0  0  0  0  0  0  0  0  0  0  0  # atno 10764 bound_to 10752
  154.5487  135.5739  153.6961 H   0  0  0  0  0  0  0  0  0  0  0  0  # atno 10765 bound_to 10752
  139.9519  134.9620  156.8886 H   0  0  0  0  0  0  0  0  0  0  0  0  # atno 11005 bound_to 11000
  145.0122  140.8724  143.5217 LP  0  0  0  0  0  0  0  0  0  0  0  0  # atno 17320 bound_to 7965
  145.1603  139.2462  143.5395 LP  0  0  0  0  0  0  0  0  0  0  0  0  # atno 17321 bound_to 7965
  140.2905  143.3327  152.1067 LP  0  0  0  0  0  0  0  0  0  0  0  0  # atno 17342 bound_to 10162
  139.5036  144.6758  151.6132 LP  0  0  0  0  0  0  0  0  0  0  0  0  # atno 17343 bound_to 10162
  157.6140  131.0934  150.8743 LP  0  0  0  0  0  0  0  0  0  0  0  0  # atno 17370 bound_to 10713
  156.8878  130.5202  149.5287 LP  0  0  0  0  0  0  0  0  0  0  0  0  # atno 17371 bound_to 10713
  140.5699  134.0453  155.7427 LP  0  0  0  0  0  0  0  0  0  0  0  0  # atno 17394 bound_to 11000
  141.1183  133.9503  157.2779 LP  0  0  0  0  0  0  0  0  0  0  0  0  # atno 17395 bound_to 11000

$$$$
