AV-unprocessed.smi:3312|AV-procd|sdf|12727|dock2
  -GOLD-   2272019 73D 1   1.00000     0.00000
 Structure written by MMmdl.
 39 40  0  0  0  0  0  0  0  0  2 V2000
  144.2523  133.7217  151.0945 C   0  0  0  0  0  0  0  0  0  0  0  0
  144.6002  135.1434  151.4299 C   0  0  0  0  0  0  0  0  0  0  0  0
  144.0173  135.9725  152.4299 C   0  0  0  0  0  0  0  0  0  0  0  0
  144.5500  137.1825  152.4678 N   0  0  0  0  0  0  0  0  0  0  0  0
  145.4949  137.1670  151.5040 N   0  0  0  0  0  0  0  0  0  0  0  0
  146.2949  138.3540  151.2577 C   0  0  0  0  0  0  0  0  0  0  0  0
  146.8098  138.9899  152.5590 C   0  0  0  0  0  0  0  0  0  0  0  0
  148.1789  138.5298  152.8769 N   0  3  0  0  0  0  0  0  0  0  0  0
  148.5929  138.7453  154.2803 C   0  0  0  0  0  0  0  0  0  0  0  0
  150.0716  139.1496  154.4150 C   0  0  0  0  0  0  0  0  0  0  0  0
  150.3690  140.3434  154.3412 O   0  0  0  0  0  0  0  0  0  0  0  0
  151.0014  138.1863  154.6172 N   0  0  0  0  0  0  0  0  0  0  0  0
  152.4421  138.3975  154.7890 C   0  0  0  0  0  0  0  0  0  0  0  0
  152.8259  137.9606  156.2139 C   0  0  0  0  0  0  0  0  0  0  0  0
  152.4665  136.5946  156.4068 O   0  0  0  0  0  0  0  0  0  0  0  0
  151.0759  136.3464  156.2127 C   0  0  0  0  0  0  0  0  0  0  0  0
  150.6653  136.7703  154.7907 C   0  0  0  0  0  0  0  0  0  0  0  0
  145.5407  135.9509  150.8556 C   0  0  0  0  0  0  0  0  0  0  0  0
  143.2682  133.4458  151.4741 H   0  0  0  0  0  0  0  0  0  0  0  0
  144.9696  133.0205  151.5215 H   0  0  0  0  0  0  0  0  0  0  0  0
  144.2385  133.5525  150.0175 H   0  0  0  0  0  0  0  0  0  0  0  0
  143.2258  135.7322  153.1243 H   0  0  0  0  0  0  0  0  0  0  0  0
  147.1286  138.0896  150.6056 H   0  0  0  0  0  0  0  0  0  0  0  0
  145.6812  139.0696  150.7090 H   0  0  0  0  0  0  0  0  0  0  0  0
  146.8175  140.0762  152.4649 H   0  0  0  0  0  0  0  0  0  0  0  0
  146.1330  138.7524  153.3807 H   0  0  0  0  0  0  0  0  0  0  0  0
  148.2400  137.5393  152.6860 H   0  0  0  0  0  0  0  0  0  0  0  0
  147.9823  139.5522  154.6869 H   0  0  0  0  0  0  0  0  0  0  0  0
  148.3798  137.8467  154.8609 H   0  0  0  0  0  0  0  0  0  0  0  0
  152.9816  137.7939  154.0575 H   0  0  0  0  0  0  0  0  0  0  0  0
  152.7632  139.4234  154.6168 H   0  0  0  0  0  0  0  0  0  0  0  0
  153.9000  138.0679  156.3658 H   0  0  0  0  0  0  0  0  0  0  0  0
  152.3321  138.5863  156.9594 H   0  0  0  0  0  0  0  0  0  0  0  0
  150.8827  135.2838  156.3604 H   0  0  0  0  0  0  0  0  0  0  0  0
  150.4935  136.8849  156.9621 H   0  0  0  0  0  0  0  0  0  0  0  0
  149.6060  136.5604  154.6372 H   0  0  0  0  0  0  0  0  0  0  0  0
  151.2018  136.1760  154.0497 H   0  0  0  0  0  0  0  0  0  0  0  0
  146.2334  135.7598  150.0489 H   0  0  0  0  0  0  0  0  0  0  0  0
  148.8208  139.0178  152.2694 H   0  0  0  0  0  0  0  0  0  0  0  0
  1  2  1  0  0  0  0
  1 19  1  0  0  0  0
  1 20  1  0  0  0  0
  1 21  1  0  0  0  0
  2 18  2  0  0  0  0
  2  3  1  0  0  0  0
  3  4  2  0  0  0  0
  3 22  1  0  0  0  0
  4  5  1  0  0  0  0
  5  6  1  0  0  0  0
  5 18  1  0  0  0  0
  6  7  1  0  0  0  0
  6 23  1  0  0  0  0
  6 24  1  0  0  0  0
  7  8  1  0  0  0  0
  7 25  1  0  0  0  0
  7 26  1  0  0  0  0
  8  9  1  0  0  0  0
  8 27  1  0  0  0  0
  8 39  1  0  0  0  0
  9 10  1  0  0  0  0
  9 28  1  0  0  0  0
  9 29  1  0  0  0  0
 10 11  2  0  0  0  0
 10 12  1  0  0  0  0
 12 17  1  0  0  0  0
 12 13  1  0  0  0  0
 13 14  1  0  0  0  0
 13 30  1  0  0  0  0
 13 31  1  0  0  0  0
 14 15  1  0  0  0  0
 14 32  1  0  0  0  0
 14 33  1  0  0  0  0
 15 16  1  0  0  0  0
 16 17  1  0  0  0  0
 16 34  1  0  0  0  0
 16 35  1  0  0  0  0
 17 36  1  0  0  0  0
 17 37  1  0  0  0  0
 18 38  1  0  0  0  0
M  CHG  1   8   1
M  END
> <s_m_source_file>
AV-unprocessed.smi

> <i_m_source_file_index>
3312

> <i_lp_mmshare_version>
43012

> <i_f3d_flags>
0

> <s_epik_input>
W0NIM11jMVtjSF1ubihbY0hdMSlbQ0gyXVtDSDJdW05IXVtDSDJdQyg9TylOMltDSDJdW0NIMl1PW0NIMl1bQ0gyXTI=

> <s_epik_cmdline>
J2VwaWtfcHl0aG9uJywgJy1waCcsICc3LjAnLCAnLXRuJywgJzgnLCAnLW1hJywgJzIwMCcsICctbWV0YWxfYmluZGluZycsICctaW1hZScsICc8aW5maWxlLm1hZT4nLCAnLW9tYWUnLCAnPG91dGZpbGUubWFlPic=

> <r_lp_tautomer_probability>
1

> <r_epik_Ionization_Penalty>
0.325402

> <r_epik_Ionization_Penalty_Charging>
0.325398

> <r_epik_Ionization_Penalty_Neutral>
4.45308e-06

> <r_epik_State_Penalty>
0.321221

> <r_epik_Charging_Adjusted_Penalty>
0.646619

> <i_epik_Tot_Q>
1

> <i_epik_Tot_abs_Q>
1

> <r_epik_Metal_State_Penalty>
0.321643

> <b_epik_Metal_Only>
0

> <s_lp_Force_Field>
OPLS_2005

> <r_lp_Energy>
21.6744

> <b_lp_Chiralities_Consistent>
1

> <s_lp_Variant>
AV-unprocessed.smi:3312-1

> <Gold.Version>
5.8.1

> <Gold.Id.Protein>
6NUR|6NUR_protein|mol2

> <Gold.PLP.Fitness>
51.7922

> <Gold.PLP.PLP>
-36.0149

> <Gold.PLP.part.hbond>
-4.0000

> <Gold.PLP.part.metal>
0.0000

> <Gold.PLP.part.buried>
-0.7936

> <Gold.PLP.part.nonpolar>
-33.8607

> <Gold.PLP.part.repulsive>
0.4092

> <Gold.PLP.ligand.clash>
0.0000

> <Gold.PLP.ligand.torsion>
1.1331

> <Gold.PLP.Chemscore.Hbond>
5.0000

> <Gold.PLP.Chemscore.CHOScore>
1.0000

> <Gold.PLP.Chemscore.Metal>
0.0000

> <Gold.Chemscore.Hbonds>
donor molecule, donor type, donor heavy atom, donor atom, acceptor molecule, acceptor atom, score
      L1  H     8    27       P1  7948  1.95
      L1  H     8    39       P1  7957  1.00
      P1  H  7989  7998       L1    11  1.00
      P1  H 10752 10763       L1    15  1.00
      L1  C    18    38       P1  7921  0.89

> <Gold.PLP.Chemscore.Internal.Correction>
0.0435

> <Gold.Rescore>
     Score         DG    S(hbond)    S(metal)    S(lipo)     H(rot)  DE(clash)    DE(int)     intcor
     18.70     -20.50       3.50        0.00      69.72       1.89       0.72       1.08       ----

> <Gold.Chemscore.Fitness>
18.7013

> <Gold.Chemscore.DG>
-20.5017

> <Gold.Chemscore.ZeroCoef>
-5.4800

> <Gold.Chemscore.Hbond>
3.5018

> <Gold.Chemscore.Metal>
0.0000

> <Gold.Chemscore.Lipo>
69.7194

> <Gold.Chemscore.Internal_Hbond>
0.0000

> <Gold.Chemscore.DEClash>
0.7189

> <Gold.Chemscore.DEInternal>
1.0814

> <Gold.Chemscore.Rot>
1.8874

> <Gold.Chemscore.Internal.Correction>
   9.000000E+99

> <Gold.Chemscore.Hbonds>
donor molecule, donor type, donor heavy atom, donor atom, acceptor molecule, acceptor atom, score
      L1  H     8    27       P1  7948  0.93
      L1  H     8    39       P1  7957  0.98
      P1  H  7989  7998       L1    11  0.93
      P1  H 10752 10763       L1    15  0.42

> <Gold.Chemscore.Hbond.Weighted>
-11.6962

> <Gold.Chemscore.Metal.Weighted>
-0.0000

> <Gold.Chemscore.Lipo.Weighted>
-8.1572

> <Gold.Chemscore.Internal_Hbond.Weighted>
0.0000

> <Gold.Chemscore.DEClash.Weighted>
0.7189

> <Gold.Chemscore.DEInternal.Weighted>
1.0814

> <Gold.Chemscore.Rot.Weighted>
4.8317

> <Gold.Chemscore.Internal.Correction.Weighted>
   9.000000E+99

> <Gold.Protein.RotatedTorsions>
[ 6907 6896 6895 6894 ] final -155.95 input  -60.11 | X-H torsion
[ 7974 7965 7964 7962 ] final  175.99 input  175.53 | X-H torsion
[ 8008 7997 7996 7995 ] final   78.89 input   59.86 | X-H torsion
[ 10167 10162 10161 10158 ] final  -84.07 input  -65.29 | X-H torsion
[ 10718 10713 10712 10709 ] final   78.87 input   66.30 | X-H torsion
[ 10763 10752 10751 10750 ] final  105.05 input  -60.55 | X-H torsion
[ 11005 11000 10999 10996 ] final   42.04 input  -57.11 | X-H torsion

> <Gold.Protein.ActiveResidues>
 VAL166  LYS551  ARG553  GLY616  TRP617  ASP618  TYR619  PRO620  LYS621  CYS622 
 ASP623  PHE694  ASN695  SER759  ASP760  ASP761  ALA762  ILE779  LEU786  VAL792 
 PHE793  MET794  SER795  GLU796  ALA797  LYS798  CYS799  TRP800  GLU811  SER814 

> <Gold.Protein.RotatedAtoms>
  151.2803  133.4213  159.2626 H   0  0  0  0  0  0  0  0  0  0  0  0  # atno 6907 bound_to 6896
  151.0366  134.9578  159.8150 H   0  0  0  0  0  0  0  0  0  0  0  0  # atno 6908 bound_to 6896
  152.5357  134.2762  159.9043 H   0  0  0  0  0  0  0  0  0  0  0  0  # atno 6909 bound_to 6896
  144.7192  140.0029  143.6440 H   0  0  0  0  0  0  0  0  0  0  0  0  # atno 7974 bound_to 7965
  155.8620  140.3453  155.5763 H   0  0  0  0  0  0  0  0  0  0  0  0  # atno 8008 bound_to 7997
  155.7922  140.0873  157.2022 H   0  0  0  0  0  0  0  0  0  0  0  0  # atno 8009 bound_to 7997
  154.4012  140.1481  156.3164 H   0  0  0  0  0  0  0  0  0  0  0  0  # atno 8010 bound_to 7997
  140.4167  143.2601  151.8945 H   0  0  0  0  0  0  0  0  0  0  0  0  # atno 10167 bound_to 10162
  157.6759  130.9888  150.1849 H   0  0  0  0  0  0  0  0  0  0  0  0  # atno 10718 bound_to 10713
  153.3742  135.3922  155.1810 H   0  0  0  0  0  0  0  0  0  0  0  0  # atno 10763 bound_to 10752
  154.8698  135.3710  154.4939 H   0  0  0  0  0  0  0  0  0  0  0  0  # atno 10764 bound_to 10752
  153.5410  135.7084  153.5698 H   0  0  0  0  0  0  0  0  0  0  0  0  # atno 10765 bound_to 10752
  140.1777  134.4142  155.8218 H   0  0  0  0  0  0  0  0  0  0  0  0  # atno 11005 bound_to 11000
  146.0321  139.3344  143.0749 LP  0  0  0  0  0  0  0  0  0  0  0  0  # atno 17320 bound_to 7965
  145.8440  140.9565  143.0784 LP  0  0  0  0  0  0  0  0  0  0  0  0  # atno 17321 bound_to 7965
  139.4782  144.5480  151.8428 LP  0  0  0  0  0  0  0  0  0  0  0  0  # atno 17342 bound_to 10162
  140.4579  144.1764  150.5903 LP  0  0  0  0  0  0  0  0  0  0  0  0  # atno 17343 bound_to 10162
  156.2573  130.3707  149.8167 LP  0  0  0  0  0  0  0  0  0  0  0  0  # atno 17370 bound_to 10713
  156.5923  130.8511  151.3411 LP  0  0  0  0  0  0  0  0  0  0  0  0  # atno 17371 bound_to 10713
  141.2221  133.6986  156.7876 LP  0  0  0  0  0  0  0  0  0  0  0  0  # atno 17394 bound_to 11000
  140.2303  134.8691  157.3470 LP  0  0  0  0  0  0  0  0  0  0  0  0  # atno 17395 bound_to 11000

$$$$
