AV-unprocessed.smi:37|AV-procd|sdf|305|dock6
  -GOLD-   2262016113D 1   1.00000     0.00000
 Structure written by MMmdl.
 44 45  0  0  0  0  0  0  0  0  1 V2000
  145.4547  134.6031  162.1865 C   0  0  0  0  0  0  0  0  0  0  0  0
  146.6999  135.4978  162.2511 C   0  0  0  0  0  0  0  0  0  0  0  0
  146.9119  136.2934  160.9645 C   0  0  0  0  0  0  0  0  0  0  0  0
  146.7869  137.5177  160.9397 O   0  0  0  0  0  0  0  0  0  0  0  0
  147.2215  135.5135  159.9175 O   0  0  0  0  0  0  0  0  0  0  0  0
  147.3690  136.0888  158.6298 C   0  0  0  0  0  0  0  0  0  0  0  0
  147.9661  135.0451  157.6782 C   0  0  2  0  0  0  0  0  0  0  0  0
  149.3933  135.0624  157.7237 O   0  0  0  0  0  0  0  0  0  0  0  0
  149.9293  134.8768  156.4432 C   0  0  2  0  0  0  0  0  0  0  0  0
  150.6328  136.1428  155.9963 N   0  0  0  0  0  0  0  0  0  0  0  0
  150.2488  136.8501  154.8627 C   0  0  0  0  0  0  0  0  0  0  0  0
  150.8761  137.9766  154.4490 C   0  0  0  0  0  0  0  0  0  0  0  0
  150.4476  138.6055  153.3414 F   0  0  0  0  0  0  0  0  0  0  0  0
  152.0128  138.5128  155.1913 C   0  0  0  0  0  0  0  0  0  0  0  0
  152.6444  139.5249  154.8950 O   0  0  0  0  0  0  0  0  0  0  0  0
  152.3656  137.7696  156.3213 N   0  0  0  0  0  0  0  0  0  0  0  0
  151.7289  136.6069  156.7577 C   0  0  0  0  0  0  0  0  0  0  0  0
  152.1311  136.0259  157.7649 O   0  0  0  0  0  0  0  0  0  0  0  0
  148.7599  134.5665  155.5031 C   0  0  1  0  0  0  0  0  0  0  0  0
  148.4709  132.5922  155.4504 Br  0  0  0  0  0  0  0  0  0  0  0  0
  147.6116  135.2670  156.2089 C   0  0  1  0  0  0  0  0  0  0  0  0
  146.3430  134.7151  155.8844 O   0  0  0  0  0  0  0  0  0  0  0  0
  145.9269  134.6799  154.6074 C   0  0  0  0  0  0  0  0  0  0  0  0
  146.6506  134.6604  153.6117 O   0  0  0  0  0  0  0  0  0  0  0  0
  144.4054  134.6563  154.4876 C   0  0  0  0  0  0  0  0  0  0  0  0
  143.9442  134.5351  153.0286 C   0  0  0  0  0  0  0  0  0  0  0  0
  153.1490  138.1010  156.8655 H   0  0  0  0  0  0  0  0  0  0  0  0
  145.3570  134.0163  163.0999 H   0  0  0  0  0  0  0  0  0  0  0  0
  145.5099  133.9058  161.3499 H   0  0  0  0  0  0  0  0  0  0  0  0
  144.5432  135.1915  162.0756 H   0  0  0  0  0  0  0  0  0  0  0  0
  146.6186  136.1937  163.0859 H   0  0  0  0  0  0  0  0  0  0  0  0
  147.5838  134.8867  162.4358 H   0  0  0  0  0  0  0  0  0  0  0  0
  146.4050  136.4410  158.2616 H   0  0  0  0  0  0  0  0  0  0  0  0
  148.0320  136.9522  158.6969 H   0  0  0  0  0  0  0  0  0  0  0  0
  147.6565  134.0451  157.9872 H   0  0  0  0  0  0  0  0  0  0  0  0
  150.7017  134.1059  156.4700 H   0  0  0  0  0  0  0  0  0  0  0  0
  149.4181  136.5070  154.2668 H   0  0  0  0  0  0  0  0  0  0  0  0
  148.9306  134.9144  154.4837 H   0  0  0  0  0  0  0  0  0  0  0  0
  147.6471  136.3374  155.9973 H   0  0  0  0  0  0  0  0  0  0  0  0
  144.0182  133.8198  155.0698 H   0  0  0  0  0  0  0  0  0  0  0  0
  144.0025  135.5662  154.9331 H   0  0  0  0  0  0  0  0  0  0  0  0
  142.8573  134.4777  152.9724 H   0  0  0  0  0  0  0  0  0  0  0  0
  144.3473  133.6372  152.5590 H   0  0  0  0  0  0  0  0  0  0  0  0
  144.2594  135.3952  152.4370 H   0  0  0  0  0  0  0  0  0  0  0  0
  1  2  1  0  0  0  0
  1 28  1  0  0  0  0
  1 29  1  0  0  0  0
  1 30  1  0  0  0  0
  2  3  1  0  0  0  0
  2 31  1  0  0  0  0
  2 32  1  0  0  0  0
  3  4  2  0  0  0  0
  3  5  1  0  0  0  0
  5  6  1  0  0  0  0
  6  7  1  0  0  0  0
  6 33  1  0  0  0  0
  6 34  1  0  0  0  0
  7 21  1  0  0  0  0
  7  8  1  0  0  0  0
  7 35  1  0  0  0  0
  8  9  1  0  0  0  0
  9 10  1  0  0  0  0
  9 19  1  0  0  0  0
  9 36  1  0  0  0  0
 10 17  1  0  0  0  0
 10 11  1  0  0  0  0
 11 12  2  0  0  0  0
 11 37  1  0  0  0  0
 12 13  1  0  0  0  0
 12 14  1  0  0  0  0
 14 15  2  0  0  0  0
 14 16  1  0  0  0  0
 16 27  1  0  0  0  0
 16 17  1  0  0  0  0
 17 18  2  0  0  0  0
 19 20  1  0  0  0  0
 19 21  1  0  0  0  0
 19 38  1  0  0  0  0
 21 22  1  0  0  0  0
 21 39  1  0  0  0  0
 22 23  1  0  0  0  0
 23 24  2  0  0  0  0
 23 25  1  0  0  0  0
 25 26  1  0  0  0  0
 25 40  1  0  0  0  0
 25 41  1  0  0  0  0
 26 42  1  0  0  0  0
 26 43  1  0  0  0  0
 26 44  1  0  0  0  0
M  END
> <s_m_source_file>
AV-unprocessed.smi

> <i_m_source_file_index>
37

> <i_lp_mmshare_version>
43012

> <i_f3d_flags>
0

> <s_epik_input>
W0NIM11bQ0gyXUMoPU8pT1tDSDJdW0NAQEhdMU9bQ0BASF0objJbY0hdYyhGKWMoPU8pW25IXWMyPU8pW0NAQEhdKEJyKVtDQEhdMU9DKD1PKVtDSDJdW0NIM10=

> <s_epik_cmdline>
J2VwaWtfcHl0aG9uJywgJy1waCcsICc3LjAnLCAnLXRuJywgJzgnLCAnLW1hJywgJzIwMCcsICctbWV0YWxfYmluZGluZycsICctaW1hZScsICc8aW5maWxlLm1hZT4nLCAnLW9tYWUnLCAnPG91dGZpbGUubWFlPic=

> <r_lp_tautomer_probability>
0.999537

> <r_epik_Ionization_Penalty>
0.104106

> <r_epik_Ionization_Penalty_Charging>
0.104106

> <r_epik_Ionization_Penalty_Neutral>
3.94675e-16

> <r_epik_State_Penalty>
0.0940182

> <r_epik_Charging_Adjusted_Penalty>
0.198124

> <i_epik_Tot_Q>
0

> <i_epik_Tot_abs_Q>
0

> <r_epik_Metal_State_Penalty>
3.05314

> <b_epik_Metal_Only>
0

> <s_epik_Chemistry_Notes>
This compound has an ester and may undergo hydrolysis at high or low pH. This compound contains an acetal/aminal-like group ( X-CH(R)-Y where X, Y are N, S, or O) that may be acid/base labile, releasing an aldehyde.

> <s_lp_Force_Field>
OPLS_2005

> <r_lp_Energy>
22.9743

> <b_lp_Chiralities_Consistent>
1

> <s_lp_Variant>
AV-unprocessed.smi:37-3

> <Gold.Version>
5.8.1

> <Gold.Id.Protein>
6NUR|6NUR_protein|mol2

> <Gold.PLP.Fitness>
45.2956

> <Gold.PLP.PLP>
-32.3287

> <Gold.PLP.part.hbond>
-6.0000

> <Gold.PLP.part.metal>
0.0000

> <Gold.PLP.part.buried>
-2.8371

> <Gold.PLP.part.nonpolar>
-23.1374

> <Gold.PLP.part.repulsive>
0.2476

> <Gold.PLP.ligand.clash>
0.0000

> <Gold.PLP.ligand.torsion>
0.7862

> <Gold.PLP.Chemscore.Hbond>
4.0465

> <Gold.PLP.Chemscore.CHOScore>
0.7399

> <Gold.PLP.Chemscore.Metal>
0.0000

> <Gold.Chemscore.Hbonds>
donor molecule, donor type, donor heavy atom, donor atom, acceptor molecule, acceptor atom, score
      P1  H  6896  6909       L1     8  0.49
      P1  H  6934  6947       L1     4  1.00
      P1  H  7989  7998       L1    15  0.40
      P1  H  7997  8009       L1    15  0.46
      L1  C    11    37       P1  7948  1.00

> <Gold.PLP.Chemscore.Internal.Correction>
0.1802

> <Gold.Rescore>
     Score         DG    S(hbond)    S(metal)    S(lipo)     H(rot)  DE(clash)    DE(int)     intcor
     11.10     -14.69       3.72        0.00      45.44       3.33       0.02       3.58       ----

> <Gold.Chemscore.Fitness>
11.0985

> <Gold.Chemscore.DG>
-14.6938

> <Gold.Chemscore.ZeroCoef>
-5.4800

> <Gold.Chemscore.Hbond>
3.7196

> <Gold.Chemscore.Metal>
0.0000

> <Gold.Chemscore.Lipo>
45.4350

> <Gold.Chemscore.Internal_Hbond>
0.0000

> <Gold.Chemscore.DEClash>
0.0177

> <Gold.Chemscore.DEInternal>
3.5776

> <Gold.Chemscore.Rot>
3.3303

> <Gold.Chemscore.Internal.Correction>
   9.000000E+99

> <Gold.Chemscore.Hbonds>
donor molecule, donor type, donor heavy atom, donor atom, acceptor molecule, acceptor atom, score
      P1  H  6896  6907       L1    18  0.01
      P1  H  6896  6909       L1     8  0.42
      P1  H  6934  6947       L1     4  0.95
      P1  H  7989  7998       L1    15  0.38
      P1  H  7997  8009       L1    15  0.42

> <Gold.Chemscore.Hbond.Weighted>
-12.4235

> <Gold.Chemscore.Metal.Weighted>
-0.0000

> <Gold.Chemscore.Lipo.Weighted>
-5.3159

> <Gold.Chemscore.Internal_Hbond.Weighted>
0.0000

> <Gold.Chemscore.DEClash.Weighted>
0.0177

> <Gold.Chemscore.DEInternal.Weighted>
3.5776

> <Gold.Chemscore.Rot.Weighted>
8.5256

> <Gold.Chemscore.Internal.Correction.Weighted>
   9.000000E+99

> <Gold.Protein.RotatedTorsions>
[ 6907 6896 6895 6894 ] final   30.10 input  -60.11 | X-H torsion
[ 7974 7965 7964 7962 ] final -132.91 input  175.53 | X-H torsion
[ 8008 7997 7996 7995 ] final -158.05 input   59.86 | X-H torsion
[ 10167 10162 10161 10158 ] final -122.81 input  -65.29 | X-H torsion
[ 10718 10713 10712 10709 ] final  116.18 input   66.30 | X-H torsion
[ 10763 10752 10751 10750 ] final  -85.09 input  -60.55 | X-H torsion
[ 11005 11000 10999 10996 ] final -112.67 input  -57.11 | X-H torsion

> <Gold.Protein.ActiveResidues>
 VAL166  LYS551  ARG553  GLY616  TRP617  ASP618  TYR619  PRO620  LYS621  CYS622 
 ASP623  PHE694  ASN695  SER759  ASP760  ASP761  ALA762  ILE779  LEU786  VAL792 
 PHE793  MET794  SER795  GLU796  ALA797  LYS798  CYS799  TRP800  GLU811  SER814 

> <Gold.Protein.RotatedAtoms>
  152.0411  134.9711  160.0573 H   0  0  0  0  0  0  0  0  0  0  0  0  # atno 6907 bound_to 6896
  152.1149  133.4316  159.4656 H   0  0  0  0  0  0  0  0  0  0  0  0  # atno 6908 bound_to 6896
  150.6845  134.2523  159.4559 H   0  0  0  0  0  0  0  0  0  0  0  0  # atno 6909 bound_to 6896
  144.9242  140.7051  143.4946 H   0  0  0  0  0  0  0  0  0  0  0  0  # atno 7974 bound_to 7965
  155.7417  140.0815  157.2242 H   0  0  0  0  0  0  0  0  0  0  0  0  # atno 8008 bound_to 7997
  154.4021  140.1576  156.2679 H   0  0  0  0  0  0  0  0  0  0  0  0  # atno 8009 bound_to 7997
  155.9014  140.3409  155.6032 H   0  0  0  0  0  0  0  0  0  0  0  0  # atno 8010 bound_to 7997
  140.0102  143.5449  152.2266 H   0  0  0  0  0  0  0  0  0  0  0  0  # atno 10167 bound_to 10162
  157.6176  131.1022  150.7436 H   0  0  0  0  0  0  0  0  0  0  0  0  # atno 10718 bound_to 10713
  154.6070  135.5497  153.7434 H   0  0  0  0  0  0  0  0  0  0  0  0  # atno 10763 bound_to 10752
  153.0179  135.6380  154.1632 H   0  0  0  0  0  0  0  0  0  0  0  0  # atno 10764 bound_to 10752
  154.1571  135.2899  155.3099 H   0  0  0  0  0  0  0  0  0  0  0  0  # atno 10765 bound_to 10752
  141.0661  133.9456  157.2575 H   0  0  0  0  0  0  0  0  0  0  0  0  # atno 11005 bound_to 11000
  145.3246  139.1778  143.4569 LP  0  0  0  0  0  0  0  0  0  0  0  0  # atno 17320 bound_to 7965
  146.3218  140.3268  142.8637 LP  0  0  0  0  0  0  0  0  0  0  0  0  # atno 17321 bound_to 7965
  139.6210  144.7629  151.2740 LP  0  0  0  0  0  0  0  0  0  0  0  0  # atno 17342 bound_to 10162
  140.7384  143.6648  150.8132 LP  0  0  0  0  0  0  0  0  0  0  0  0  # atno 17343 bound_to 10162
  156.7799  130.4856  149.5403 LP  0  0  0  0  0  0  0  0  0  0  0  0  # atno 17370 bound_to 10713
  156.1306  130.6175  151.0328 LP  0  0  0  0  0  0  0  0  0  0  0  0  # atno 17371 bound_to 10713
  139.9478  135.0181  156.8904 LP  0  0  0  0  0  0  0  0  0  0  0  0  # atno 17394 bound_to 11000
  140.5770  134.0389  155.7450 LP  0  0  0  0  0  0  0  0  0  0  0  0  # atno 17395 bound_to 11000

$$$$
