AV-unprocessed.smi:231|AV-procd|sdf|1765|dock1
  -GOLD-   2262020303D 1   1.00000     0.00000
 Structure written by MMmdl.
 50 53  0  0  0  0  0  0  0  0  1 V2000
  146.8409  141.3734  154.4411 C   0  0  0  0  0  0  0  0  0  0  0  0
  147.2906  140.0350  153.8336 C   0  0  0  0  0  0  0  0  0  0  0  0
  147.5934  139.0181  154.8513 N   0  0  0  0  0  0  0  0  0  0  0  0
  147.3240  137.7222  154.5456 C   0  0  0  0  0  0  0  0  0  0  0  0
  147.9955  136.7196  155.1718 N   0  0  0  0  0  0  0  0  0  0  0  0
  147.7180  135.4437  154.8873 C   0  0  0  0  0  0  0  0  0  0  0  0
  146.8210  134.9560  154.0278 N   0  0  0  0  0  0  0  0  0  0  0  0
  146.1445  135.9585  153.3973 C   0  0  0  0  0  0  0  0  0  0  0  0
  146.3352  137.3550  153.5916 C   0  0  0  0  0  0  0  0  0  0  0  0
  145.4814  138.0709  152.7612 N   0  0  0  0  0  0  0  0  0  0  0  0
  144.8241  137.1488  152.1117 C   0  0  0  0  0  0  0  0  0  0  0  0
  145.1415  135.8519  152.4508 N   0  0  0  0  0  0  0  0  0  0  0  0
  144.6033  134.6485  151.8876 C   0  0  0  0  0  0  0  0  0  0  0  0
  145.2909  133.2909  152.0711 C   0  0  0  0  0  0  0  0  0  0  0  0
  144.8003  132.8680  150.6667 C   0  0  0  0  0  0  0  0  0  0  0  0
  145.7881  132.0530  149.8084 C   0  0  0  0  0  0  0  0  0  0  0  0
  147.1135  132.5373  149.8965 O   0  0  0  0  0  0  0  0  0  0  0  0
  143.4616  132.1051  150.6691 C   0  0  0  0  0  0  0  0  0  0  0  0
  142.9001  132.0349  149.3739 O   0  0  0  0  0  0  0  0  0  0  0  0
  144.6972  134.3845  150.3823 C   0  0  0  0  0  0  0  0  0  0  0  0
  148.7489  139.1837  155.7476 C   0  0  2  0  0  0  0  0  0  0  0  0
  148.3653  139.8075  157.1006 C   0  0  0  0  0  0  0  0  0  0  0  0
  149.5607  140.6979  157.4748 C   0  0  0  0  0  0  0  0  0  0  0  0
  150.2596  140.9164  156.2217 N   0  0  0  0  0  0  0  0  0  0  0  0
  149.8370  140.1239  155.2375 C   0  0  0  0  0  0  0  0  0  0  0  0
  150.2647  140.1200  154.0850 O   0  0  0  0  0  0  0  0  0  0  0  0
  146.6725  142.1135  153.6587 H   0  0  0  0  0  0  0  0  0  0  0  0
  147.6001  141.7714  155.1150 H   0  0  0  0  0  0  0  0  0  0  0  0
  145.9121  141.2764  155.0034 H   0  0  0  0  0  0  0  0  0  0  0  0
  146.5267  139.6648  153.1486 H   0  0  0  0  0  0  0  0  0  0  0  0
  148.1696  140.2146  153.2156 H   0  0  0  0  0  0  0  0  0  0  0  0
  148.2950  134.7087  155.4289 H   0  0  0  0  0  0  0  0  0  0  0  0
  144.0815  137.3954  151.3671 H   0  0  0  0  0  0  0  0  0  0  0  0
  143.5654  134.6010  152.2216 H   0  0  0  0  0  0  0  0  0  0  0  0
  146.3755  133.3805  152.1478 H   0  0  0  0  0  0  0  0  0  0  0  0
  144.8941  132.6948  152.8934 H   0  0  0  0  0  0  0  0  0  0  0  0
  145.7944  131.0059  150.1134 H   0  0  0  0  0  0  0  0  0  0  0  0
  145.5030  132.0725  148.7562 H   0  0  0  0  0  0  0  0  0  0  0  0
  147.7046  131.8005  149.8722 H   0  0  0  0  0  0  0  0  0  0  0  0
  143.5886  131.0916  151.0508 H   0  0  0  0  0  0  0  0  0  0  0  0
  142.7319  132.5860  151.3208 H   0  0  0  0  0  0  0  0  0  0  0  0
  142.2811  132.7421  149.2752 H   0  0  0  0  0  0  0  0  0  0  0  0
  143.8161  134.6919  149.8181 H   0  0  0  0  0  0  0  0  0  0  0  0
  145.6022  134.8101  149.9456 H   0  0  0  0  0  0  0  0  0  0  0  0
  149.2467  138.2314  155.9386 H   0  0  0  0  0  0  0  0  0  0  0  0
  147.4660  140.4190  157.0251 H   0  0  0  0  0  0  0  0  0  0  0  0
  148.1711  139.0476  157.8581 H   0  0  0  0  0  0  0  0  0  0  0  0
  149.2456  141.6399  157.9244 H   0  0  0  0  0  0  0  0  0  0  0  0
  150.2277  140.1887  158.1714 H   0  0  0  0  0  0  0  0  0  0  0  0
  150.9813  141.6147  156.1149 H   0  0  0  0  0  0  0  0  0  0  0  0
  1  2  1  0  0  0  0
  1 27  1  0  0  0  0
  1 28  1  0  0  0  0
  1 29  1  0  0  0  0
  2  3  1  0  0  0  0
  2 30  1  0  0  0  0
  2 31  1  0  0  0  0
  3  4  1  0  0  0  0
  3 21  1  0  0  0  0
  4  9  1  0  0  0  0
  4  5  2  0  0  0  0
  5  6  1  0  0  0  0
  6  7  2  0  0  0  0
  6 32  1  0  0  0  0
  7  8  1  0  0  0  0
  8 12  1  0  0  0  0
  8  9  2  0  0  0  0
  9 10  1  0  0  0  0
 10 11  2  0  0  0  0
 11 12  1  0  0  0  0
 11 33  1  0  0  0  0
 12 13  1  0  0  0  0
 13 20  1  0  0  0  0
 13 14  1  0  0  0  0
 13 34  1  0  0  0  0
 14 15  1  0  0  0  0
 14 35  1  0  0  0  0
 14 36  1  0  0  0  0
 15 16  1  0  0  0  0
 15 18  1  0  0  0  0
 15 20  1  0  0  0  0
 16 17  1  0  0  0  0
 16 37  1  0  0  0  0
 16 38  1  0  0  0  0
 17 39  1  0  0  0  0
 18 19  1  0  0  0  0
 18 40  1  0  0  0  0
 18 41  1  0  0  0  0
 19 42  1  0  0  0  0
 20 43  1  0  0  0  0
 20 44  1  0  0  0  0
 21 25  1  0  0  0  0
 21 22  1  0  0  0  0
 21 45  1  0  0  0  0
 22 23  1  0  0  0  0
 22 46  1  0  0  0  0
 22 47  1  0  0  0  0
 23 24  1  0  0  0  0
 23 48  1  0  0  0  0
 23 49  1  0  0  0  0
 24 25  1  0  0  0  0
 24 50  1  0  0  0  0
 25 26  2  0  0  0  0
M  END
> <s_m_source_file>
AV-unprocessed.smi

> <i_m_source_file_index>
231

> <i_lp_mmshare_version>
43012

> <i_f3d_flags>
0

> <s_epik_input>
Tz1DMVtOSF1bQ0gyXVtDSDJdW0NASF0xTihbQ0gyXVtDSDNdKWMobltjSF1uMiljKGMyMyluW2NIXW4zW0NIXShbQ0gyXTQpW0NIMl1DNChbQ0gyXVtPSF0pW0NIMl1bT0hd

> <s_epik_cmdline>
J2VwaWtfcHl0aG9uJywgJy1waCcsICc3LjAnLCAnLXRuJywgJzgnLCAnLW1hJywgJzIwMCcsICctbWV0YWxfYmluZGluZycsICctaW1hZScsICc8aW5maWxlLm1hZT4nLCAnLW9tYWUnLCAnPG91dGZpbGUubWFlPic=

> <r_lp_tautomer_probability>
1

> <r_epik_Ionization_Penalty>
0.000842899

> <r_epik_Ionization_Penalty_Charging>
0

> <r_epik_Ionization_Penalty_Neutral>
0.000842899

> <r_epik_State_Penalty>
0.000441286

> <r_epik_Charging_Adjusted_Penalty>
0.000441286

> <i_epik_Tot_Q>
0

> <i_epik_Tot_abs_Q>
0

> <r_epik_Metal_State_Penalty>
-0

> <b_epik_Metal_Only>
0

> <s_lp_Force_Field>
OPLS_2005

> <r_lp_Energy>
47.8415

> <b_lp_Chiralities_Consistent>
1

> <s_lp_Variant>
AV-unprocessed.smi:231-1

> <Gold.Version>
5.8.1

> <Gold.Id.Protein>
6NUR|6NUR_protein|mol2

> <Gold.PLP.Fitness>
46.5138

> <Gold.PLP.PLP>
-32.5867

> <Gold.PLP.part.hbond>
-6.0008

> <Gold.PLP.part.metal>
0.0000

> <Gold.PLP.part.buried>
-4.0911

> <Gold.PLP.part.nonpolar>
-23.6939

> <Gold.PLP.part.repulsive>
1.3852

> <Gold.PLP.ligand.clash>
0.0000

> <Gold.PLP.ligand.torsion>
1.0659

> <Gold.PLP.Chemscore.Hbond>
3.8037

> <Gold.PLP.Chemscore.CHOScore>
1.0000

> <Gold.PLP.Chemscore.Metal>
0.0000

> <Gold.Chemscore.Hbonds>
donor molecule, donor type, donor heavy atom, donor atom, acceptor molecule, acceptor atom, score
      L1  H    17    39       P1 10747  1.00
      L1  H    19    42       P1 10186  0.80
      P1  H  7989  7998       L1    26  0.99
      P1  H 10785 10796       L1    19  1.00
      L1  C    11    33       P1 10171  0.84

> <Gold.PLP.Chemscore.Internal.Correction>
1.6477

> <Gold.Rescore>
     Score         DG    S(hbond)    S(metal)    S(lipo)     H(rot)  DE(clash)    DE(int)     intcor
     10.72     -15.07       3.53        0.00      60.69       3.63       0.05       4.30       ----

> <Gold.Chemscore.Fitness>
10.7246

> <Gold.Chemscore.DG>
-15.0746

> <Gold.Chemscore.ZeroCoef>
-5.4800

> <Gold.Chemscore.Hbond>
3.5260

> <Gold.Chemscore.Metal>
0.0000

> <Gold.Chemscore.Lipo>
60.6948

> <Gold.Chemscore.Internal_Hbond>
0.0000

> <Gold.Chemscore.DEClash>
0.0482

> <Gold.Chemscore.DEInternal>
4.3019

> <Gold.Chemscore.Rot>
3.6264

> <Gold.Chemscore.Internal.Correction>
   9.000000E+99

> <Gold.Chemscore.Hbonds>
donor molecule, donor type, donor heavy atom, donor atom, acceptor molecule, acceptor atom, score
      L1  H    17    39       P1 10747  0.99
      L1  H    19    42       P1 10186  0.79
      P1  H  7989  7998       L1    26  0.94
      P1  H 10785 10796       L1    19  0.52

> <Gold.Chemscore.Hbond.Weighted>
-11.7769

> <Gold.Chemscore.Metal.Weighted>
-0.0000

> <Gold.Chemscore.Lipo.Weighted>
-7.1013

> <Gold.Chemscore.Internal_Hbond.Weighted>
0.0000

> <Gold.Chemscore.DEClash.Weighted>
0.0482

> <Gold.Chemscore.DEInternal.Weighted>
4.3019

> <Gold.Chemscore.Rot.Weighted>
9.2835

> <Gold.Chemscore.Internal.Correction.Weighted>
   9.000000E+99

> <Gold.Protein.RotatedTorsions>
[ 6907 6896 6895 6894 ] final   81.54 input  -60.11 | X-H torsion
[ 7974 7965 7964 7962 ] final  -82.22 input  175.53 | X-H torsion
[ 8008 7997 7996 7995 ] final  156.00 input   59.86 | X-H torsion
[ 10167 10162 10161 10158 ] final   97.33 input  -65.29 | X-H torsion
[ 10718 10713 10712 10709 ] final -172.44 input   66.30 | X-H torsion
[ 10763 10752 10751 10750 ] final   41.83 input  -60.55 | X-H torsion
[ 11005 11000 10999 10996 ] final   99.94 input  -57.11 | X-H torsion

> <Gold.Protein.ActiveResidues>
 VAL166  LYS551  ARG553  GLY616  TRP617  ASP618  TYR619  PRO620  LYS621  CYS622 
 ASP623  PHE694  ASN695  SER759  ASP760  ASP761  ALA762  ILE779  LEU786  VAL792 
 PHE793  MET794  SER795  GLU796  ALA797  LYS798  CYS799  TRP800  GLU811  SER814 

> <Gold.Protein.RotatedAtoms>
  152.5271  134.3189  159.9140 H   0  0  0  0  0  0  0  0  0  0  0  0  # atno 6907 bound_to 6896
  151.3138  133.4063  159.2656 H   0  0  0  0  0  0  0  0  0  0  0  0  # atno 6908 bound_to 6896
  151.0016  134.9343  159.8014 H   0  0  0  0  0  0  0  0  0  0  0  0  # atno 6909 bound_to 6896
  145.5361  140.9515  143.1576 H   0  0  0  0  0  0  0  0  0  0  0  0  # atno 7974 bound_to 7965
  156.2447  140.1924  156.6887 H   0  0  0  0  0  0  0  0  0  0  0  0  # atno 8008 bound_to 7997
  154.6267  140.0601  156.9709 H   0  0  0  0  0  0  0  0  0  0  0  0  # atno 8009 bound_to 7997
  155.1775  140.3273  155.4384 H   0  0  0  0  0  0  0  0  0  0  0  0  # atno 8010 bound_to 7997
  139.7811  144.6888  151.0022 H   0  0  0  0  0  0  0  0  0  0  0  0  # atno 10167 bound_to 10162
  156.7557  130.9394  151.3116 H   0  0  0  0  0  0  0  0  0  0  0  0  # atno 10718 bound_to 10713
  152.9898  135.6150  154.2851 H   0  0  0  0  0  0  0  0  0  0  0  0  # atno 10763 bound_to 10752
  154.2579  135.2783  155.2792 H   0  0  0  0  0  0  0  0  0  0  0  0  # atno 10764 bound_to 10752
  154.5231  135.5809  153.6754 H   0  0  0  0  0  0  0  0  0  0  0  0  # atno 10765 bound_to 10752
  139.8770  134.9118  156.4682 H   0  0  0  0  0  0  0  0  0  0  0  0  # atno 11005 bound_to 11000
  144.7600  139.6979  143.7238 LP  0  0  0  0  0  0  0  0  0  0  0  0  # atno 17320 bound_to 7965
  146.2012  139.5307  142.9742 LP  0  0  0  0  0  0  0  0  0  0  0  0  # atno 17321 bound_to 7965
  140.7818  143.4482  151.0451 LP  0  0  0  0  0  0  0  0  0  0  0  0  # atno 17342 bound_to 10162
  139.8163  143.7882  152.3174 LP  0  0  0  0  0  0  0  0  0  0  0  0  # atno 17343 bound_to 10162
  157.6757  130.9092  150.0145 LP  0  0  0  0  0  0  0  0  0  0  0  0  # atno 17370 bound_to 10713
  156.1372  130.3642  149.9638 LP  0  0  0  0  0  0  0  0  0  0  0  0  # atno 17371 bound_to 10713
  140.8815  133.7914  155.9472 LP  0  0  0  0  0  0  0  0  0  0  0  0  # atno 17394 bound_to 11000
  140.8849  134.2566  157.5125 LP  0  0  0  0  0  0  0  0  0  0  0  0  # atno 17395 bound_to 11000

$$$$
