AV-unprocessed.smi:1196|AV-procd|sdf|5004|dock7
  -GOLD-   22720 4 13D 1   1.00000     0.00000
 Structure written by MMmdl.
 36 37  0  0  0  0  0  0  0  0  2 V2000
  144.5905  135.7597  153.8693 C   0  0  0  0  0  0  0  0  0  0  0  0
  145.5010  136.6153  152.9782 C   0  0  2  0  0  0  0  0  0  0  0  0
  145.3959  136.1967  151.4962 C   0  0  0  0  0  0  0  0  0  0  0  0
  145.5067  134.7594  151.3125 N   0  0  0  0  0  0  0  0  0  0  0  0
  146.5511  133.9293  151.6608 C   0  0  0  0  0  0  0  0  0  0  0  0
  146.1915  132.6578  151.3168 C   0  0  0  0  0  0  0  0  0  0  0  0
  144.8937  132.8135  150.7544 C   0  0  0  0  0  0  0  0  0  0  0  0
  144.4894  134.0735  150.7472 N   0  0  0  0  0  0  0  0  0  0  0  0
  146.8804  136.5001  153.4507 N   0  0  0  0  0  0  0  0  0  0  0  0
  147.3195  136.8455  154.6718 C   0  0  0  0  0  0  0  0  0  0  0  0
  146.5795  137.2406  155.5731 O   0  0  0  0  0  0  0  0  0  0  0  0
  148.8279  136.7500  154.9049 C   0  0  0  0  0  0  0  0  0  0  0  0
  149.4321  138.1094  155.3022 C   0  0  0  0  0  0  0  0  0  0  0  0
  150.8991  138.2689  154.8587 C   0  0  2  0  0  0  0  0  0  0  0  0
  151.7219  137.1984  155.3788 N   0  0  0  0  0  0  0  0  0  0  0  0
  152.7187  137.6706  156.1247 C   0  0  0  0  0  0  0  0  0  0  0  0
  153.5451  136.9253  156.6462 O   0  0  0  0  0  0  0  0  0  0  0  0
  152.6492  139.0142  156.1956 N   0  5  0  0  0  0  0  0  0  0  0  0
  151.5978  139.4757  155.4846 C   0  0  0  0  0  0  0  0  0  0  0  0
  151.2020  140.6264  155.3057 O   0  0  0  0  0  0  0  0  0  0  0  0
  143.5481  135.8473  153.5624 H   0  0  0  0  0  0  0  0  0  0  0  0
  144.6529  136.0742  154.9117 H   0  0  0  0  0  0  0  0  0  0  0  0
  144.8636  134.7050  153.8216 H   0  0  0  0  0  0  0  0  0  0  0  0
  145.1603  137.6481  153.0704 H   0  0  0  0  0  0  0  0  0  0  0  0
  144.4540  136.5418  151.0658 H   0  0  0  0  0  0  0  0  0  0  0  0
  146.1915  136.6681  150.9180 H   0  0  0  0  0  0  0  0  0  0  0  0
  147.4491  134.3077  152.1266 H   0  0  0  0  0  0  0  0  0  0  0  0
  146.7661  131.7534  151.4502 H   0  0  0  0  0  0  0  0  0  0  0  0
  144.2387  132.0542  150.3533 H   0  0  0  0  0  0  0  0  0  0  0  0
  147.5655  136.1889  152.7776 H   0  0  0  0  0  0  0  0  0  0  0  0
  149.0097  136.0123  155.6869 H   0  0  0  0  0  0  0  0  0  0  0  0
  149.3183  136.3787  154.0036 H   0  0  0  0  0  0  0  0  0  0  0  0
  148.8380  138.9033  154.8458 H   0  0  0  0  0  0  0  0  0  0  0  0
  149.3527  138.2551  156.3811 H   0  0  0  0  0  0  0  0  0  0  0  0
  150.9846  138.3181  153.7723 H   0  0  0  0  0  0  0  0  0  0  0  0
  151.5617  136.2225  155.1778 H   0  0  0  0  0  0  0  0  0  0  0  0
  1  2  1  0  0  0  0
  1 21  1  0  0  0  0
  1 22  1  0  0  0  0
  1 23  1  0  0  0  0
  2  3  1  0  0  0  0
  2  9  1  0  0  0  0
  2 24  1  0  0  0  0
  3  4  1  0  0  0  0
  3 25  1  0  0  0  0
  3 26  1  0  0  0  0
  4  8  1  0  0  0  0
  4  5  1  0  0  0  0
  5  6  2  0  0  0  0
  5 27  1  0  0  0  0
  6  7  1  0  0  0  0
  6 28  1  0  0  0  0
  7  8  2  0  0  0  0
  7 29  1  0  0  0  0
  9 10  1  0  0  0  0
  9 30  1  0  0  0  0
 10 11  2  0  0  0  0
 10 12  1  0  0  0  0
 12 13  1  0  0  0  0
 12 31  1  0  0  0  0
 12 32  1  0  0  0  0
 13 14  1  0  0  0  0
 13 33  1  0  0  0  0
 13 34  1  0  0  0  0
 14 19  1  0  0  0  0
 14 15  1  0  0  0  0
 14 35  1  0  0  0  0
 15 16  1  0  0  0  0
 15 36  1  0  0  0  0
 16 17  2  0  0  0  0
 16 18  1  0  0  0  0
 18 19  1  0  0  0  0
 19 20  2  0  0  0  0
M  CHG  1  18  -1
M  END
> <s_m_source_file>
AV-unprocessed.smi

> <i_m_source_file_index>
1196

> <i_lp_mmshare_version>
43012

> <i_f3d_flags>
0

> <s_epik_input>
bjFbY0hdW2NIXVtjSF1uMVtDSDJdW0NAQEhdKFtDSDNdKVtOSF1DKD1PKVtDSDJdW0NIMl1bQ0BASF0yW05IXUMoPU8pW05IXUMyPU8=

> <s_epik_cmdline>
J2VwaWtfcHl0aG9uJywgJy1waCcsICc3LjAnLCAnLXRuJywgJzgnLCAnLW1hJywgJzIwMCcsICctbWV0YWxfYmluZGluZycsICctaW1hZScsICc8aW5maWxlLm1hZT4nLCAnLW9tYWUnLCAnPG91dGZpbGUubWFlPic=

> <r_lp_tautomer_probability>
1

> <r_epik_Ionization_Penalty>
2.57056

> <r_epik_Ionization_Penalty_Charging>
2.57023

> <r_epik_Ionization_Penalty_Neutral>
0.000331301

> <r_epik_State_Penalty>
2.56828

> <r_epik_Charging_Adjusted_Penalty>
5.13851

> <i_epik_Tot_Q>
-1

> <i_epik_Tot_abs_Q>
1

> <r_epik_Metal_State_Penalty>
0.444883

> <b_epik_Metal_Only>
1

> <s_lp_Force_Field>
OPLS_2005

> <r_lp_Energy>
6.89561

> <b_lp_Chiralities_Consistent>
1

> <s_lp_Variant>
AV-unprocessed.smi:1196-9

> <Gold.Version>
5.8.1

> <Gold.Id.Protein>
6NUR|6NUR_protein|mol2

> <Gold.PLP.Fitness>
40.7645

> <Gold.PLP.PLP>
-24.2302

> <Gold.PLP.part.hbond>
-4.0000

> <Gold.PLP.part.metal>
0.0000

> <Gold.PLP.part.buried>
-2.5838

> <Gold.PLP.part.nonpolar>
-18.6152

> <Gold.PLP.part.repulsive>
0.4814

> <Gold.PLP.ligand.clash>
0.0000

> <Gold.PLP.ligand.torsion>
0.3073

> <Gold.PLP.Chemscore.Hbond>
4.6960

> <Gold.PLP.Chemscore.CHOScore>
1.0000

> <Gold.PLP.Chemscore.Metal>
0.0000

> <Gold.Chemscore.Hbonds>
donor molecule, donor type, donor heavy atom, donor atom, acceptor molecule, acceptor atom, score
      L1  H     9    30       P1  7948  1.00
      P1  H  7989  7998       L1    20  0.86
      P1  H  7997  8009       L1    18  2.00
      P1  H 10752 10765       L1    17  0.78
      L1  C     5    27       P1  7948  1.00

> <Gold.PLP.Chemscore.Internal.Correction>
0.0610

> <Gold.Rescore>
     Score         DG    S(hbond)    S(metal)    S(lipo)     H(rot)  DE(clash)    DE(int)     intcor
     11.25     -11.87       2.54        0.00      45.40       2.89       0.18       0.44       ----

> <Gold.Chemscore.Fitness>
11.2541

> <Gold.Chemscore.DG>
-11.8712

> <Gold.Chemscore.ZeroCoef>
-5.4800

> <Gold.Chemscore.Hbond>
2.5418

> <Gold.Chemscore.Metal>
0.0000

> <Gold.Chemscore.Lipo>
45.3980

> <Gold.Chemscore.Internal_Hbond>
0.0000

> <Gold.Chemscore.DEClash>
0.1784

> <Gold.Chemscore.DEInternal>
0.4388

> <Gold.Chemscore.Rot>
2.8946

> <Gold.Chemscore.Internal.Correction>
   9.000000E+99

> <Gold.Chemscore.Hbonds>
donor molecule, donor type, donor heavy atom, donor atom, acceptor molecule, acceptor atom, score
      L1  H     9    30       P1  7948  0.99
      P1  H  7989  7998       L1    20  0.25
      P1  H  7997  8009       L1    18  0.91
      P1  H 10752 10765       L1    17  0.22

> <Gold.Chemscore.Hbond.Weighted>
-8.4898

> <Gold.Chemscore.Metal.Weighted>
-0.0000

> <Gold.Chemscore.Lipo.Weighted>
-5.3116

> <Gold.Chemscore.Internal_Hbond.Weighted>
0.0000

> <Gold.Chemscore.DEClash.Weighted>
0.1784

> <Gold.Chemscore.DEInternal.Weighted>
0.4388

> <Gold.Chemscore.Rot.Weighted>
7.4101

> <Gold.Chemscore.Internal.Correction.Weighted>
   9.000000E+99

> <Gold.Protein.RotatedTorsions>
[ 6907 6896 6895 6894 ] final  -44.74 input  -60.11 | X-H torsion
[ 7974 7965 7964 7962 ] final -112.52 input  175.53 | X-H torsion
[ 8008 7997 7996 7995 ] final -163.68 input   59.86 | X-H torsion
[ 10167 10162 10161 10158 ] final   45.03 input  -65.29 | X-H torsion
[ 10718 10713 10712 10709 ] final  -80.05 input   66.30 | X-H torsion
[ 10763 10752 10751 10750 ] final -121.54 input  -60.55 | X-H torsion
[ 11005 11000 10999 10996 ] final  112.73 input  -57.11 | X-H torsion

> <Gold.Protein.ActiveResidues>
 VAL166  LYS551  ARG553  GLY616  TRP617  ASP618  TYR619  PRO620  LYS621  CYS622 
 ASP623  PHE694  ASN695  SER759  ASP760  ASP761  ALA762  ILE779  LEU786  VAL792 
 PHE793  MET794  SER795  GLU796  ALA797  LYS798  CYS799  TRP800  GLU811  SER814 

> <Gold.Protein.RotatedAtoms>
  150.9296  134.8711  159.7542 H   0  0  0  0  0  0  0  0  0  0  0  0  # atno 6907 bound_to 6896
  152.5031  134.4099  159.9455 H   0  0  0  0  0  0  0  0  0  0  0  0  # atno 6908 bound_to 6896
  151.4127  133.3682  159.2781 H   0  0  0  0  0  0  0  0  0  0  0  0  # atno 6909 bound_to 6896
  145.1431  140.8788  143.3690 H   0  0  0  0  0  0  0  0  0  0  0  0  # atno 7974 bound_to 7965
  155.8248  140.0925  157.1827 H   0  0  0  0  0  0  0  0  0  0  0  0  # atno 8008 bound_to 7997
  154.3979  140.1430  156.3604 H   0  0  0  0  0  0  0  0  0  0  0  0  # atno 8009 bound_to 7997
  155.8228  140.3445  155.5527 H   0  0  0  0  0  0  0  0  0  0  0  0  # atno 8010 bound_to 7997
  140.3283  144.2621  150.6172 H   0  0  0  0  0  0  0  0  0  0  0  0  # atno 10167 bound_to 10162
  156.0079  130.4563  150.3741 H   0  0  0  0  0  0  0  0  0  0  0  0  # atno 10718 bound_to 10713
  154.8670  135.4164  154.2637 H   0  0  0  0  0  0  0  0  0  0  0  0  # atno 10763 bound_to 10752
  153.3560  135.7001  153.6755 H   0  0  0  0  0  0  0  0  0  0  0  0  # atno 10764 bound_to 10752
  153.5676  135.3597  155.2797 H   0  0  0  0  0  0  0  0  0  0  0  0  # atno 10765 bound_to 10752
  139.8935  134.9536  156.6631 H   0  0  0  0  0  0  0  0  0  0  0  0  # atno 11005 bound_to 11000
  145.0511  139.3181  143.5928 LP  0  0  0  0  0  0  0  0  0  0  0  0  # atno 17320 bound_to 7965
  146.3503  139.9919  142.8685 LP  0  0  0  0  0  0  0  0  0  0  0  0  # atno 17321 bound_to 7965
  140.5421  143.2221  151.8068 LP  0  0  0  0  0  0  0  0  0  0  0  0  # atno 17342 bound_to 10162
  139.4861  144.4587  151.9567 LP  0  0  0  0  0  0  0  0  0  0  0  0  # atno 17343 bound_to 10162
  157.1824  131.0395  151.2742 LP  0  0  0  0  0  0  0  0  0  0  0  0  # atno 17370 bound_to 10713
  157.4134  130.7398  149.6857 LP  0  0  0  0  0  0  0  0  0  0  0  0  # atno 17371 bound_to 10713
  140.7432  133.8960  155.8293 LP  0  0  0  0  0  0  0  0  0  0  0  0  # atno 17394 bound_to 11000
  141.0061  134.1084  157.4269 LP  0  0  0  0  0  0  0  0  0  0  0  0  # atno 17395 bound_to 11000

$$$$
