AV-unprocessed.smi:17|AV-procd|sdf|104|dock4
  -GOLD-   2262015253D 1   1.00000     0.00000
 Structure written by MMmdl.
 57 59  0  0  0  0  0  0  0  0  1 V2000
  150.5727  136.0924  155.8458 C   0  0  0  0  0  0  0  0  0  0  0  0
  150.0093  135.7735  157.2408 C   0  0  0  0  0  0  0  0  0  0  0  0
  149.6070  136.9616  157.9972 N   0  0  0  0  0  0  0  0  0  0  0  0
  150.6259  137.6938  158.5167 C   0  0  0  0  0  0  0  0  0  0  0  0
  151.4091  137.0976  159.4502 N   0  0  0  0  0  0  0  0  0  0  0  0
  152.4218  137.7661  160.0082 C   0  0  0  0  0  0  0  0  0  0  0  0
  152.8178  139.0200  159.7836 N   0  0  0  0  0  0  0  0  0  0  0  0
  152.0284  139.6290  158.8532 C   0  0  0  0  0  0  0  0  0  0  0  0
  150.9181  139.0475  158.1776 C   0  0  0  0  0  0  0  0  0  0  0  0
  150.3604  139.9758  157.3055 N   0  0  0  0  0  0  0  0  0  0  0  0
  151.0972  141.0417  157.4560 C   0  0  0  0  0  0  0  0  0  0  0  0
  152.1346  140.9144  158.3510 N   0  0  0  0  0  0  0  0  0  0  0  0
  153.1001  141.9389  158.7082 C   0  0  0  0  0  0  0  0  0  0  0  0
  152.5725  142.9921  159.7210 C   0  0  1  0  0  0  0  0  0  0  0  0
  151.1151  143.3635  159.3554 C   0  0  0  0  0  0  0  0  0  0  0  0
  150.6027  144.3509  160.2266 O   0  0  0  0  0  0  0  0  0  0  0  0
  152.6817  142.5172  161.2011 C   0  0  2  0  0  0  0  0  0  0  0  0
  152.7848  143.6341  162.2303 C   0  0  0  0  0  0  0  0  0  0  0  0
  153.3443  142.9076  163.4438 C   0  0  0  0  0  0  0  0  0  0  0  0
  154.2856  141.9975  162.8998 O   0  0  0  0  0  0  0  0  0  0  0  0
  153.9346  141.6948  161.5526 C   0  0  0  0  0  0  0  0  0  0  0  0
  148.4110  136.8211  158.8436 C   0  0  1  0  0  0  0  0  0  0  0  0
  147.2409  136.1252  158.1221 C   0  0  0  0  0  0  0  0  0  0  0  0
  148.6876  136.1689  160.2160 C   0  0  0  0  0  0  0  0  0  0  0  0
  147.4183  136.6472  161.4693 S   0  0  0  0  0  0  0  0  0  0  0  0
  146.7535  135.0093  161.9739 C   0  0  0  0  0  0  0  0  0  0  0  0
  148.0906  137.2503  162.6298 O   0  0  0  0  0  0  0  0  0  0  0  0
  146.3516  137.3930  160.7840 O   0  0  0  0  0  0  0  0  0  0  0  0
  150.7778  135.1734  155.2968 H   0  0  0  0  0  0  0  0  0  0  0  0
  151.5060  136.6533  155.8996 H   0  0  0  0  0  0  0  0  0  0  0  0
  149.8619  136.6764  155.2602 H   0  0  0  0  0  0  0  0  0  0  0  0
  149.1337  135.1358  157.1171 H   0  0  0  0  0  0  0  0  0  0  0  0
  150.7290  135.1860  157.8092 H   0  0  0  0  0  0  0  0  0  0  0  0
  152.9962  137.2168  160.7394 H   0  0  0  0  0  0  0  0  0  0  0  0
  150.9095  141.9533  156.9074 H   0  0  0  0  0  0  0  0  0  0  0  0
  153.9669  141.4168  159.1131 H   0  0  0  0  0  0  0  0  0  0  0  0
  153.4459  142.4346  157.8006 H   0  0  0  0  0  0  0  0  0  0  0  0
  153.1677  143.9010  159.6202 H   0  0  0  0  0  0  0  0  0  0  0  0
  151.0515  143.7201  158.3267 H   0  0  0  0  0  0  0  0  0  0  0  0
  150.4493  142.5058  159.4390 H   0  0  0  0  0  0  0  0  0  0  0  0
  149.9359  144.8392  159.7681 H   0  0  0  0  0  0  0  0  0  0  0  0
  151.8012  141.9215  161.4478 H   0  0  0  0  0  0  0  0  0  0  0  0
  153.4856  144.4009  161.8973 H   0  0  0  0  0  0  0  0  0  0  0  0
  151.8286  144.1112  162.4472 H   0  0  0  0  0  0  0  0  0  0  0  0
  153.8061  143.5817  164.1655 H   0  0  0  0  0  0  0  0  0  0  0  0
  152.5577  142.3471  163.9512 H   0  0  0  0  0  0  0  0  0  0  0  0
  153.7600  140.6245  161.4486 H   0  0  0  0  0  0  0  0  0  0  0  0
  154.7804  141.9642  160.9196 H   0  0  0  0  0  0  0  0  0  0  0  0
  148.0687  137.8349  159.0542 H   0  0  0  0  0  0  0  0  0  0  0  0
  146.3369  136.1566  158.7304 H   0  0  0  0  0  0  0  0  0  0  0  0
  147.4583  135.0763  157.9190 H   0  0  0  0  0  0  0  0  0  0  0  0
  147.0074  136.6111  157.1745 H   0  0  0  0  0  0  0  0  0  0  0  0
  148.6373  135.0838  160.1255 H   0  0  0  0  0  0  0  0  0  0  0  0
  149.6798  136.4009  160.6007 H   0  0  0  0  0  0  0  0  0  0  0  0
  145.9722  135.1510  162.7200 H   0  0  0  0  0  0  0  0  0  0  0  0
  147.5554  134.4069  162.4005 H   0  0  0  0  0  0  0  0  0  0  0  0
  146.3370  134.5001  161.1053 H   0  0  0  0  0  0  0  0  0  0  0  0
  1  2  1  0  0  0  0
  1 29  1  0  0  0  0
  1 30  1  0  0  0  0
  1 31  1  0  0  0  0
  2  3  1  0  0  0  0
  2 32  1  0  0  0  0
  2 33  1  0  0  0  0
  3  4  1  0  0  0  0
  3 22  1  0  0  0  0
  4  9  1  0  0  0  0
  4  5  2  0  0  0  0
  5  6  1  0  0  0  0
  6  7  2  0  0  0  0
  6 34  1  0  0  0  0
  7  8  1  0  0  0  0
  8 12  1  0  0  0  0
  8  9  2  0  0  0  0
  9 10  1  0  0  0  0
 10 11  2  0  0  0  0
 11 12  1  0  0  0  0
 11 35  1  0  0  0  0
 12 13  1  0  0  0  0
 13 14  1  0  0  0  0
 13 36  1  0  0  0  0
 13 37  1  0  0  0  0
 14 15  1  0  0  0  0
 14 17  1  0  0  0  0
 14 38  1  0  0  0  0
 15 16  1  0  0  0  0
 15 39  1  0  0  0  0
 15 40  1  0  0  0  0
 16 41  1  0  0  0  0
 17 21  1  0  0  0  0
 17 18  1  0  0  0  0
 17 42  1  0  0  0  0
 18 19  1  0  0  0  0
 18 43  1  0  0  0  0
 18 44  1  0  0  0  0
 19 20  1  0  0  0  0
 19 45  1  0  0  0  0
 19 46  1  0  0  0  0
 20 21  1  0  0  0  0
 21 47  1  0  0  0  0
 21 48  1  0  0  0  0
 22 23  1  0  0  0  0
 22 24  1  0  0  0  0
 22 49  1  0  0  0  0
 23 50  1  0  0  0  0
 23 51  1  0  0  0  0
 23 52  1  0  0  0  0
 24 25  1  0  0  0  0
 24 53  1  0  0  0  0
 24 54  1  0  0  0  0
 25 26  1  0  0  0  0
 25 27  2  0  0  0  0
 25 28  2  0  0  0  0
 26 55  1  0  0  0  0
 26 56  1  0  0  0  0
 26 57  1  0  0  0  0
M  END
> <s_m_source_file>
AV-unprocessed.smi

> <i_m_source_file_index>
17

> <i_lp_mmshare_version>
43012

> <i_f3d_flags>
0

> <s_epik_input>
W0NIM11TKD1PKSg9TylbQ0gyXVtDQEBIXShbQ0gzXSlOKFtDSDJdW0NIM10pYyhuW2NIXW4xKWMoYzEyKW5bY0hdbjJbQ0gyXVtDQEhdKFtDSDJdW09IXSlbQ0BASF0zW0NIMl1bQ0gyXU9bQ0gyXTM=

> <s_epik_cmdline>
J2VwaWtfcHl0aG9uJywgJy1waCcsICc3LjAnLCAnLXRuJywgJzgnLCAnLW1hJywgJzIwMCcsICctbWV0YWxfYmluZGluZycsICctaW1hZScsICc8aW5maWxlLm1hZT4nLCAnLW9tYWUnLCAnPG91dGZpbGUubWFlPic=

> <r_lp_tautomer_probability>
1

> <r_epik_Ionization_Penalty>
0.00119955

> <r_epik_Ionization_Penalty_Charging>
0

> <r_epik_Ionization_Penalty_Neutral>
0.00119955

> <r_epik_State_Penalty>
0.000665399

> <r_epik_Charging_Adjusted_Penalty>
0.000665399

> <i_epik_Tot_Q>
0

> <i_epik_Tot_abs_Q>
0

> <r_epik_Metal_State_Penalty>
-0

> <b_epik_Metal_Only>
0

> <s_lp_Force_Field>
OPLS_2005

> <r_lp_Energy>
33.8653

> <b_lp_Chiralities_Consistent>
1

> <s_lp_Variant>
AV-unprocessed.smi:17-6

> <Gold.Version>
5.8.1

> <Gold.Id.Protein>
6NUR|6NUR_protein|mol2

> <Gold.PLP.Fitness>
55.2342

> <Gold.PLP.PLP>
-49.0336

> <Gold.PLP.part.hbond>
-3.9131

> <Gold.PLP.part.metal>
0.0000

> <Gold.PLP.part.buried>
-7.8004

> <Gold.PLP.part.nonpolar>
-36.4394

> <Gold.PLP.part.repulsive>
0.0112

> <Gold.PLP.ligand.clash>
0.0069

> <Gold.PLP.ligand.torsion>
1.9345

> <Gold.PLP.Chemscore.Hbond>
2.9280

> <Gold.PLP.Chemscore.CHOScore>
0.0000

> <Gold.PLP.Chemscore.Metal>
0.0000

> <Gold.Chemscore.Hbonds>
donor molecule, donor type, donor heavy atom, donor atom, acceptor molecule, acceptor atom, score
      P1  H  6896  6909       L1     5  1.00
      P1  H  6931  6943       L1    27  0.85
      P1  H  6934  6947       L1    28  0.80

> <Gold.PLP.Chemscore.Internal.Correction>
1.2924

> <Gold.Rescore>
     Score         DG    S(hbond)    S(metal)    S(lipo)     H(rot)  DE(clash)    DE(int)     intcor
      8.81     -13.64       1.72        0.00     103.50       3.79       0.53       4.30       ----

> <Gold.Chemscore.Fitness>
8.8102

> <Gold.Chemscore.DG>
-13.6395

> <Gold.Chemscore.ZeroCoef>
-5.4800

> <Gold.Chemscore.Hbond>
1.7218

> <Gold.Chemscore.Metal>
0.0000

> <Gold.Chemscore.Lipo>
103.5030

> <Gold.Chemscore.Internal_Hbond>
0.0000

> <Gold.Chemscore.DEClash>
0.5314

> <Gold.Chemscore.DEInternal>
4.2979

> <Gold.Chemscore.Rot>
3.7894

> <Gold.Chemscore.Internal.Correction>
   9.000000E+99

> <Gold.Chemscore.Hbonds>
donor molecule, donor type, donor heavy atom, donor atom, acceptor molecule, acceptor atom, score
      P1  H  6896  6909       L1     5  0.84
      P1  H  6931  6943       L1    27  0.28
      P1  H  6934  6947       L1    28  0.12

> <Gold.Chemscore.Hbond.Weighted>
-5.7507

> <Gold.Chemscore.Metal.Weighted>
-0.0000

> <Gold.Chemscore.Lipo.Weighted>
-12.1098

> <Gold.Chemscore.Internal_Hbond.Weighted>
0.0000

> <Gold.Chemscore.DEClash.Weighted>
0.5314

> <Gold.Chemscore.DEInternal.Weighted>
4.2979

> <Gold.Chemscore.Rot.Weighted>
9.7010

> <Gold.Chemscore.Internal.Correction.Weighted>
   9.000000E+99

> <Gold.Protein.RotatedTorsions>
[ 6907 6896 6895 6894 ] final  106.52 input  -60.11 | X-H torsion
[ 7974 7965 7964 7962 ] final  -33.71 input  175.53 | X-H torsion
[ 8008 7997 7996 7995 ] final  154.93 input   59.86 | X-H torsion
[ 10167 10162 10161 10158 ] final   45.86 input  -65.29 | X-H torsion
[ 10718 10713 10712 10709 ] final  -45.20 input   66.30 | X-H torsion
[ 10763 10752 10751 10750 ] final  -65.64 input  -60.55 | X-H torsion
[ 11005 11000 10999 10996 ] final   -7.77 input  -57.11 | X-H torsion

> <Gold.Protein.ActiveResidues>
 VAL166  LYS551  ARG553  GLY616  TRP617  ASP618  TYR619  PRO620  LYS621  CYS622 
 ASP623  PHE694  ASN695  SER759  ASP760  ASP761  ALA762  ILE779  LEU786  VAL792 
 PHE793  MET794  SER795  GLU796  ALA797  LYS798  CYS799  TRP800  GLU811  SER814 

> <Gold.Protein.RotatedAtoms>
  152.5190  133.9369  159.7607 H   0  0  0  0  0  0  0  0  0  0  0  0  # atno 6907 bound_to 6896
  150.9707  133.6338  159.2745 H   0  0  0  0  0  0  0  0  0  0  0  0  # atno 6908 bound_to 6896
  151.3551  135.0898  159.9469 H   0  0  0  0  0  0  0  0  0  0  0  0  # atno 6909 bound_to 6896
  146.0888  140.5950  142.8874 H   0  0  0  0  0  0  0  0  0  0  0  0  # atno 7974 bound_to 7965
  156.2505  140.1953  156.6722 H   0  0  0  0  0  0  0  0  0  0  0  0  # atno 8008 bound_to 7997
  154.6384  140.0586  156.9842 H   0  0  0  0  0  0  0  0  0  0  0  0  # atno 8009 bound_to 7997
  155.1601  140.3259  155.4416 H   0  0  0  0  0  0  0  0  0  0  0  0  # atno 8010 bound_to 7997
  140.3199  144.2718  150.6184 H   0  0  0  0  0  0  0  0  0  0  0  0  # atno 10167 bound_to 10162
  156.2307  130.4172  149.8878 H   0  0  0  0  0  0  0  0  0  0  0  0  # atno 10718 bound_to 10713
  154.3480  135.6142  153.5629 H   0  0  0  0  0  0  0  0  0  0  0  0  # atno 10763 bound_to 10752
  152.9800  135.5785  154.4776 H   0  0  0  0  0  0  0  0  0  0  0  0  # atno 10764 bound_to 10752
  154.4492  135.2852  155.1770 H   0  0  0  0  0  0  0  0  0  0  0  0  # atno 10765 bound_to 10752
  140.7164  133.8866  155.8788 H   0  0  0  0  0  0  0  0  0  0  0  0  # atno 11005 bound_to 11000
  144.7345  140.4769  143.6913 LP  0  0  0  0  0  0  0  0  0  0  0  0  # atno 17320 bound_to 7965
  145.6078  139.1510  143.3093 LP  0  0  0  0  0  0  0  0  0  0  0  0  # atno 17321 bound_to 7965
  140.5493  143.2209  151.7954 LP  0  0  0  0  0  0  0  0  0  0  0  0  # atno 17342 bound_to 10162
  139.4876  144.4497  151.9668 LP  0  0  0  0  0  0  0  0  0  0  0  0  # atno 17343 bound_to 10162
  156.6493  130.8737  151.3528 LP  0  0  0  0  0  0  0  0  0  0  0  0  # atno 17370 bound_to 10713
  157.7132  130.9465  150.1161 LP  0  0  0  0  0  0  0  0  0  0  0  0  # atno 17371 bound_to 10713
  141.0041  134.1110  157.4288 LP  0  0  0  0  0  0  0  0  0  0  0  0  # atno 17394 bound_to 11000
  139.8859  135.0076  156.6463 LP  0  0  0  0  0  0  0  0  0  0  0  0  # atno 17395 bound_to 11000

$$$$
