AV-unprocessed.smi:280|AV-procd|sdf|2099|dock4
  -GOLD-   2262021383D 1   1.00000     0.00000
 Structure written by MMmdl.
 59 62  0  0  0  0  0  0  0  0  2 V2000
  149.0871  136.9945  156.7448 C   0  0  0  0  0  0  0  0  0  0  0  0
  149.2470  136.8055  155.2198 C   0  0  2  0  0  0  0  0  0  0  0  0
  149.8453  138.0587  154.5454 C   0  0  0  0  0  0  0  0  0  0  0  0
  148.8575  139.1351  154.4646 N   0  0  0  0  0  0  0  0  0  0  0  0
  148.9078  140.1333  155.3890 C   0  0  0  0  0  0  0  0  0  0  0  0
  147.7319  140.5196  155.9503 N   0  0  0  0  0  0  0  0  0  0  0  0
  147.6978  141.4893  156.8673 C   0  0  0  0  0  0  0  0  0  0  0  0
  148.7095  142.2000  157.3642 N   0  0  0  0  0  0  0  0  0  0  0  0
  149.8965  141.8244  156.8093 C   0  0  0  0  0  0  0  0  0  0  0  0
  150.0879  140.8119  155.8237 C   0  0  0  0  0  0  0  0  0  0  0  0
  151.4386  140.7399  155.4973 N   0  0  0  0  0  0  0  0  0  0  0  0
  152.0086  141.6372  156.2529 C   0  0  0  0  0  0  0  0  0  0  0  0
  151.1569  142.3281  157.0822 N   0  0  0  0  0  0  0  0  0  0  0  0
  151.5146  143.3760  158.0258 C   0  0  0  0  0  0  0  0  0  0  0  0
  151.9823  142.8719  159.4086 C   0  0  0  0  0  0  0  0  0  0  0  0
  151.1766  143.5473  160.5342 C   0  0  0  0  0  0  0  0  0  0  0  0
  151.6069  143.1382  161.8177 O   0  0  0  0  0  0  0  0  0  0  0  0
  152.2044  141.3573  159.5465 C   0  0  0  0  0  0  0  0  0  0  0  0
  153.6332  141.4918  159.4000 O   0  0  0  0  0  0  0  0  0  0  0  0
  153.5077  142.9171  159.5866 C   0  0  0  0  0  0  0  0  0  0  0  0
  147.6065  138.7665  153.8105 C   0  0  0  0  0  0  0  0  0  0  0  0
  146.9870  137.5171  154.4642 C   0  0  0  0  0  0  0  0  0  0  0  0
  147.9793  136.4101  154.5365 N   0  3  2  0  0  0  0  0  0  0  0  0
  147.4112  135.1135  154.9975 C   0  0  0  0  0  0  0  0  0  0  0  0
  147.8779  133.9054  154.1487 C   0  0  0  0  0  0  0  0  0  0  0  0
  149.4078  133.7311  154.1715 C   0  0  0  0  0  0  0  0  0  0  0  0
  147.1907  132.6209  154.6417 C   0  0  0  0  0  0  0  0  0  0  0  0
  147.4710  134.0810  152.8069 O   0  0  0  0  0  0  0  0  0  0  0  0
  150.0387  137.2733  157.1980 H   0  0  0  0  0  0  0  0  0  0  0  0
  148.7552  136.0816  157.2382 H   0  0  0  0  0  0  0  0  0  0  0  0
  148.3723  137.7791  156.9916 H   0  0  0  0  0  0  0  0  0  0  0  0
  149.9601  135.9939  155.0685 H   0  0  0  0  0  0  0  0  0  0  0  0
  150.7572  138.3600  155.0611 H   0  0  0  0  0  0  0  0  0  0  0  0
  150.1482  137.8119  153.5272 H   0  0  0  0  0  0  0  0  0  0  0  0
  146.7204  141.7286  157.2599 H   0  0  0  0  0  0  0  0  0  0  0  0
  153.0725  141.8202  156.2220 H   0  0  0  0  0  0  0  0  0  0  0  0
  152.2946  143.9813  157.5617 H   0  0  0  0  0  0  0  0  0  0  0  0
  150.6585  144.0427  158.1370 H   0  0  0  0  0  0  0  0  0  0  0  0
  151.2849  144.6313  160.4918 H   0  0  0  0  0  0  0  0  0  0  0  0
  150.1103  143.3431  160.4341 H   0  0  0  0  0  0  0  0  0  0  0  0
  151.3662  143.8060  162.4417 H   0  0  0  0  0  0  0  0  0  0  0  0
  151.9364  140.9574  160.5258 H   0  0  0  0  0  0  0  0  0  0  0  0
  151.7602  140.7603  158.7511 H   0  0  0  0  0  0  0  0  0  0  0  0
  154.0294  143.4868  158.8165 H   0  0  0  0  0  0  0  0  0  0  0  0
  153.8375  143.2229  160.5808 H   0  0  0  0  0  0  0  0  0  0  0  0
  146.9011  139.5961  153.7858 H   0  0  0  0  0  0  0  0  0  0  0  0
  147.8335  138.5478  152.7664 H   0  0  0  0  0  0  0  0  0  0  0  0
  146.6223  137.7457  155.4652 H   0  0  0  0  0  0  0  0  0  0  0  0
  146.1166  137.2130  153.8854 H   0  0  0  0  0  0  0  0  0  0  0  0
  147.7301  134.9256  156.0235 H   0  0  0  0  0  0  0  0  0  0  0  0
  146.3220  135.1734  155.0335 H   0  0  0  0  0  0  0  0  0  0  0  0
  149.7734  133.6007  155.1905 H   0  0  0  0  0  0  0  0  0  0  0  0
  149.9219  134.5922  153.7438 H   0  0  0  0  0  0  0  0  0  0  0  0
  149.7149  132.8550  153.5992 H   0  0  0  0  0  0  0  0  0  0  0  0
  147.4593  132.4017  155.6759 H   0  0  0  0  0  0  0  0  0  0  0  0
  147.4771  131.7575  154.0396 H   0  0  0  0  0  0  0  0  0  0  0  0
  146.1042  132.7069  154.5959 H   0  0  0  0  0  0  0  0  0  0  0  0
  147.6907  134.9602  152.5371 H   0  0  0  0  0  0  0  0  0  0  0  0
  148.2535  136.2412  153.5792 H   0  0  0  0  0  0  0  0  0  0  0  0
  1  2  1  0  0  0  0
  1 29  1  0  0  0  0
  1 30  1  0  0  0  0
  1 31  1  0  0  0  0
  2 23  1  0  0  0  0
  2  3  1  0  0  0  0
  2 32  1  0  0  0  0
  3  4  1  0  0  0  0
  3 33  1  0  0  0  0
  3 34  1  0  0  0  0
  4  5  1  0  0  0  0
  4 21  1  0  0  0  0
  5 10  1  0  0  0  0
  5  6  2  0  0  0  0
  6  7  1  0  0  0  0
  7  8  2  0  0  0  0
  7 35  1  0  0  0  0
  8  9  1  0  0  0  0
  9 13  1  0  0  0  0
  9 10  2  0  0  0  0
 10 11  1  0  0  0  0
 11 12  2  0  0  0  0
 12 13  1  0  0  0  0
 12 36  1  0  0  0  0
 13 14  1  0  0  0  0
 14 15  1  0  0  0  0
 14 37  1  0  0  0  0
 14 38  1  0  0  0  0
 15 20  1  0  0  0  0
 15 16  1  0  0  0  0
 15 18  1  0  0  0  0
 16 17  1  0  0  0  0
 16 39  1  0  0  0  0
 16 40  1  0  0  0  0
 17 41  1  0  0  0  0
 18 19  1  0  0  0  0
 18 42  1  0  0  0  0
 18 43  1  0  0  0  0
 19 20  1  0  0  0  0
 20 44  1  0  0  0  0
 20 45  1  0  0  0  0
 21 22  1  0  0  0  0
 21 46  1  0  0  0  0
 21 47  1  0  0  0  0
 22 23  1  0  0  0  0
 22 48  1  0  0  0  0
 22 49  1  0  0  0  0
 23 24  1  0  0  0  0
 23 59  1  0  0  0  0
 24 25  1  0  0  0  0
 24 50  1  0  0  0  0
 24 51  1  0  0  0  0
 25 26  1  0  0  0  0
 25 27  1  0  0  0  0
 25 28  1  0  0  0  0
 26 52  1  0  0  0  0
 26 53  1  0  0  0  0
 26 54  1  0  0  0  0
 27 55  1  0  0  0  0
 27 56  1  0  0  0  0
 27 57  1  0  0  0  0
 28 58  1  0  0  0  0
M  CHG  1  23   1
M  END
> <s_m_source_file>
AV-unprocessed.smi

> <i_m_source_file_index>
280

> <i_lp_mmshare_version>
43012

> <i_f3d_flags>
0

> <s_epik_input>
W0NIM11DKFtDSDNdKShbT0hdKVtDSDJdTjFbQ0gyXVtDSDJdTihbQ0gyXVtDQEhdMVtDSDNdKWMobltjSF1uMiljKGMyMyluW2NIXW4zW0NIMl1DNChbQ0gyXVtPSF0pW0NIMl1PW0NIMl00

> <s_epik_cmdline>
J2VwaWtfcHl0aG9uJywgJy1waCcsICc3LjAnLCAnLXRuJywgJzgnLCAnLW1hJywgJzIwMCcsICctbWV0YWxfYmluZGluZycsICctaW1hZScsICc8aW5maWxlLm1hZT4nLCAnLW9tYWUnLCAnPG91dGZpbGUubWFlPic=

> <r_lp_tautomer_probability>
1

> <r_epik_Ionization_Penalty>
0.00179402

> <r_epik_Ionization_Penalty_Charging>
0.00173996

> <r_epik_Ionization_Penalty_Neutral>
5.40607e-05

> <r_epik_State_Penalty>
-0

> <r_epik_Charging_Adjusted_Penalty>
0.00173996

> <i_epik_Tot_Q>
1

> <i_epik_Tot_abs_Q>
1

> <r_epik_Metal_State_Penalty>
-0

> <b_epik_Metal_Only>
0

> <s_lp_Force_Field>
OPLS_2005

> <r_lp_Energy>
53.0384

> <b_lp_Chiralities_Consistent>
1

> <s_lp_Variant>
AV-unprocessed.smi:280-3

> <Gold.Version>
5.8.1

> <Gold.Id.Protein>
6NUR|6NUR_protein|mol2

> <Gold.PLP.Fitness>
41.5309

> <Gold.PLP.PLP>
-32.4229

> <Gold.PLP.part.hbond>
-5.0000

> <Gold.PLP.part.metal>
0.0000

> <Gold.PLP.part.buried>
-4.5539

> <Gold.PLP.part.nonpolar>
-23.8807

> <Gold.PLP.part.repulsive>
0.8009

> <Gold.PLP.ligand.clash>
0.0000

> <Gold.PLP.ligand.torsion>
2.4229

> <Gold.PLP.Chemscore.Hbond>
4.3260

> <Gold.PLP.Chemscore.CHOScore>
0.0000

> <Gold.PLP.Chemscore.Metal>
0.0000

> <Gold.Chemscore.Hbonds>
donor molecule, donor type, donor heavy atom, donor atom, acceptor molecule, acceptor atom, score
      L1  H    23    59       P1  7948  2.00
      L1  H    28    58       P1  7948  0.99
      P1  H  6933  6945       L1    17  0.41
      P1  H  7989  7998       L1    11  0.72

> <Gold.PLP.Chemscore.Internal.Correction>
0.9758

> <Gold.Rescore>
     Score         DG    S(hbond)    S(metal)    S(lipo)     H(rot)  DE(clash)    DE(int)     intcor
     11.15     -15.80       2.48        0.00      89.48       3.30       2.15       2.49       ----

> <Gold.Chemscore.Fitness>
11.1550

> <Gold.Chemscore.DG>
-15.8007

> <Gold.Chemscore.ZeroCoef>
-5.4800

> <Gold.Chemscore.Hbond>
2.4843

> <Gold.Chemscore.Metal>
0.0000

> <Gold.Chemscore.Lipo>
89.4770

> <Gold.Chemscore.Internal_Hbond>
0.0000

> <Gold.Chemscore.DEClash>
2.1541

> <Gold.Chemscore.DEInternal>
2.4916

> <Gold.Chemscore.Rot>
3.2991

> <Gold.Chemscore.Internal.Correction>
   9.000000E+99

> <Gold.Chemscore.Hbonds>
donor molecule, donor type, donor heavy atom, donor atom, acceptor molecule, acceptor atom, score
      L1  H    23    59       P1  7948  1.00
      L1  H    28    58       P1  7948  0.89
      P1  H  6933  6945       L1    17  0.02
      P1  H  7989  7998       L1    11  0.49

> <Gold.Chemscore.Hbond.Weighted>
-8.2975

> <Gold.Chemscore.Metal.Weighted>
-0.0000

> <Gold.Chemscore.Lipo.Weighted>
-10.4688

> <Gold.Chemscore.Internal_Hbond.Weighted>
0.0000

> <Gold.Chemscore.DEClash.Weighted>
2.1541

> <Gold.Chemscore.DEInternal.Weighted>
2.4916

> <Gold.Chemscore.Rot.Weighted>
8.4456

> <Gold.Chemscore.Internal.Correction.Weighted>
   9.000000E+99

> <Gold.Protein.RotatedTorsions>
[ 6907 6896 6895 6894 ] final  -50.44 input  -60.11 | X-H torsion
[ 7974 7965 7964 7962 ] final  137.39 input  175.53 | X-H torsion
[ 8008 7997 7996 7995 ] final  159.82 input   59.86 | X-H torsion
[ 10167 10162 10161 10158 ] final  -99.04 input  -65.29 | X-H torsion
[ 10718 10713 10712 10709 ] final  -11.74 input   66.30 | X-H torsion
[ 10763 10752 10751 10750 ] final   87.40 input  -60.55 | X-H torsion
[ 11005 11000 10999 10996 ] final  -37.40 input  -57.11 | X-H torsion

> <Gold.Protein.ActiveResidues>
 VAL166  LYS551  ARG553  GLY616  TRP617  ASP618  TYR619  PRO620  LYS621  CYS622 
 ASP623  PHE694  ASN695  SER759  ASP760  ASP761  ALA762  ILE779  LEU786  VAL792 
 PHE793  MET794  SER795  GLU796  ALA797  LYS798  CYS799  TRP800  GLU811  SER814 

> <Gold.Protein.RotatedAtoms>
  150.8707  134.8080  159.7152 H   0  0  0  0  0  0  0  0  0  0  0  0  # atno 6907 bound_to 6896
  152.4712  134.4951  159.9717 H   0  0  0  0  0  0  0  0  0  0  0  0  # atno 6908 bound_to 6896
  151.5040  133.3460  159.2909 H   0  0  0  0  0  0  0  0  0  0  0  0  # atno 6909 bound_to 6896
  144.9472  139.4861  143.5543 H   0  0  0  0  0  0  0  0  0  0  0  0  # atno 7974 bound_to 7965
  156.2214  140.1821  156.7468 H   0  0  0  0  0  0  0  0  0  0  0  0  # atno 8008 bound_to 7997
  154.5871  140.0657  156.9215 H   0  0  0  0  0  0  0  0  0  0  0  0  # atno 8009 bound_to 7997
  155.2401  140.3321  155.4296 H   0  0  0  0  0  0  0  0  0  0  0  0  # atno 8010 bound_to 7997
  140.2667  143.3371  152.0574 H   0  0  0  0  0  0  0  0  0  0  0  0  # atno 10167 bound_to 10162
  156.6547  130.4964  149.6050 H   0  0  0  0  0  0  0  0  0  0  0  0  # atno 10718 bound_to 10713
  153.1665  135.4545  154.9844 H   0  0  0  0  0  0  0  0  0  0  0  0  # atno 10763 bound_to 10752
  154.7935  135.3229  154.7723 H   0  0  0  0  0  0  0  0  0  0  0  0  # atno 10764 bound_to 10752
  153.8205  135.6947  153.4882 H   0  0  0  0  0  0  0  0  0  0  0  0  # atno 10765 bound_to 10752
  140.9949  133.6985  156.1916 H   0  0  0  0  0  0  0  0  0  0  0  0  # atno 11005 bound_to 11000
  146.3308  139.8532  142.8869 LP  0  0  0  0  0  0  0  0  0  0  0  0  # atno 17320 bound_to 7965
  145.2900  141.0164  143.3669 LP  0  0  0  0  0  0  0  0  0  0  0  0  # atno 17321 bound_to 7965
  139.5001  144.6683  151.6302 LP  0  0  0  0  0  0  0  0  0  0  0  0  # atno 17342 bound_to 10162
  140.5923  143.9758  150.6332 LP  0  0  0  0  0  0  0  0  0  0  0  0  # atno 17343 bound_to 10162
  156.2057  130.6648  151.1216 LP  0  0  0  0  0  0  0  0  0  0  0  0  # atno 17370 bound_to 10713
  157.7129  131.0725  150.6433 LP  0  0  0  0  0  0  0  0  0  0  0  0  # atno 17371 bound_to 10713
  140.6982  134.4592  157.5587 LP  0  0  0  0  0  0  0  0  0  0  0  0  # atno 17394 bound_to 11000
  139.9010  134.8557  156.1898 LP  0  0  0  0  0  0  0  0  0  0  0  0  # atno 17395 bound_to 11000

$$$$
