AV-unprocessed.smi:951|AV-procd|sdf|4251|dock1
  -GOLD-   22720 2153D 1   1.00000     0.00000
 Structure written by MMmdl.
 51 53  0  0  0  0  0  0  0  0  1 V2000
  146.5694  140.5236  156.0928 O   0  0  0  0  0  0  0  0  0  0  0  0
  147.7359  140.2690  156.3913 C   0  0  0  0  0  0  0  0  0  0  0  0
  148.0590  139.4321  157.3909 N   0  0  0  0  0  0  0  0  0  0  0  0
  147.1052  138.7384  158.2421 C   0  0  0  0  0  0  0  0  0  0  0  0
  147.2894  137.2197  158.1186 C   0  0  0  0  0  0  0  0  0  0  0  0
  146.8101  136.4802  159.3531 C   0  0  0  0  0  0  0  0  0  0  0  0
  146.7067  135.0725  159.3563 C   0  0  0  0  0  0  0  0  0  0  0  0
  146.2639  134.4352  160.5316 C   0  0  0  0  0  0  0  0  0  0  0  0
  145.9437  135.2254  161.6522 C   0  0  0  0  0  0  0  0  0  0  0  0
  146.0817  136.6241  161.5479 C   0  0  0  0  0  0  0  0  0  0  0  0
  146.5048  137.2451  160.4257 N   0  0  0  0  0  0  0  0  0  0  0  0
  148.8825  140.9431  155.6022 C   0  0  2  0  0  0  0  0  0  0  0  0
  148.6238  140.8538  154.0906 C   0  0  0  0  0  0  0  0  0  0  0  0
  149.3227  139.5715  153.6687 C   0  0  0  0  0  0  0  0  0  0  0  0
  150.5341  139.4909  154.5986 C   0  0  0  0  0  0  0  0  0  0  0  0
  150.1932  140.2923  155.7789 N   0  0  0  0  0  0  0  0  0  0  0  0
  150.9649  140.4475  156.8818 C   0  0  0  0  0  0  0  0  0  0  0  0
  152.0377  139.8549  156.9988 O   0  0  0  0  0  0  0  0  0  0  0  0
  150.4983  141.4072  158.0023 C   0  0  0  0  0  0  0  0  0  0  0  0
  150.2826  142.8414  157.4636 C   0  0  0  0  0  0  0  0  0  0  0  0
  151.6003  143.5988  157.2253 C   0  0  0  0  0  0  0  0  0  0  0  0
  152.4395  143.6512  158.5100 C   0  0  0  0  0  0  0  0  0  0  0  0
  152.7305  142.2401  159.0411 C   0  0  0  0  0  0  0  0  0  0  0  0
  151.4346  141.4257  159.2387 C   0  0  0  0  0  0  0  0  0  0  0  0
  149.0386  139.2750  157.5787 H   0  0  0  0  0  0  0  0  0  0  0  0
  147.2472  139.0490  159.2786 H   0  0  0  0  0  0  0  0  0  0  0  0
  146.0925  139.0232  157.9526 H   0  0  0  0  0  0  0  0  0  0  0  0
  146.7448  136.8460  157.2500 H   0  0  0  0  0  0  0  0  0  0  0  0
  148.3405  136.9844  157.9449 H   0  0  0  0  0  0  0  0  0  0  0  0
  146.9628  134.4934  158.4812 H   0  0  0  0  0  0  0  0  0  0  0  0
  146.1727  133.3599  160.5734 H   0  0  0  0  0  0  0  0  0  0  0  0
  145.6014  134.7713  162.5703 H   0  0  0  0  0  0  0  0  0  0  0  0
  145.8462  137.2611  162.3877 H   0  0  0  0  0  0  0  0  0  0  0  0
  148.9313  141.9918  155.9012 H   0  0  0  0  0  0  0  0  0  0  0  0
  147.5671  140.8628  153.8185 H   0  0  0  0  0  0  0  0  0  0  0  0
  149.0924  141.7036  153.5922 H   0  0  0  0  0  0  0  0  0  0  0  0
  148.6641  138.7206  153.8485 H   0  0  0  0  0  0  0  0  0  0  0  0
  149.5971  139.5635  152.6135 H   0  0  0  0  0  0  0  0  0  0  0  0
  150.7652  138.4561  154.8530 H   0  0  0  0  0  0  0  0  0  0  0  0
  151.4054  139.9278  154.1089 H   0  0  0  0  0  0  0  0  0  0  0  0
  149.5407  141.0444  158.3729 H   0  0  0  0  0  0  0  0  0  0  0  0
  149.7072  142.8206  156.5372 H   0  0  0  0  0  0  0  0  0  0  0  0
  149.6750  143.4004  158.1763 H   0  0  0  0  0  0  0  0  0  0  0  0
  152.1711  143.1206  156.4282 H   0  0  0  0  0  0  0  0  0  0  0  0
  151.3863  144.6114  156.8828 H   0  0  0  0  0  0  0  0  0  0  0  0
  153.3756  144.1778  158.3225 H   0  0  0  0  0  0  0  0  0  0  0  0
  151.9082  144.2255  159.2701 H   0  0  0  0  0  0  0  0  0  0  0  0
  153.4054  141.7272  158.3571 H   0  0  0  0  0  0  0  0  0  0  0  0
  153.2659  142.3088  159.9885 H   0  0  0  0  0  0  0  0  0  0  0  0
  150.8858  141.8517  160.0794 H   0  0  0  0  0  0  0  0  0  0  0  0
  151.6845  140.4069  159.5381 H   0  0  0  0  0  0  0  0  0  0  0  0
  1  2  2  0  0  0  0
  2  3  1  0  0  0  0
  2 12  1  0  0  0  0
  3  4  1  0  0  0  0
  3 25  1  0  0  0  0
  4  5  1  0  0  0  0
  4 26  1  0  0  0  0
  4 27  1  0  0  0  0
  5  6  1  0  0  0  0
  5 28  1  0  0  0  0
  5 29  1  0  0  0  0
  6 11  1  0  0  0  0
  6  7  2  0  0  0  0
  7  8  1  0  0  0  0
  7 30  1  0  0  0  0
  8  9  2  0  0  0  0
  8 31  1  0  0  0  0
  9 10  1  0  0  0  0
  9 32  1  0  0  0  0
 10 11  2  0  0  0  0
 10 33  1  0  0  0  0
 12 16  1  0  0  0  0
 12 13  1  0  0  0  0
 12 34  1  0  0  0  0
 13 14  1  0  0  0  0
 13 35  1  0  0  0  0
 13 36  1  0  0  0  0
 14 15  1  0  0  0  0
 14 37  1  0  0  0  0
 14 38  1  0  0  0  0
 15 16  1  0  0  0  0
 15 39  1  0  0  0  0
 15 40  1  0  0  0  0
 16 17  1  0  0  0  0
 17 18  2  0  0  0  0
 17 19  1  0  0  0  0
 19 24  1  0  0  0  0
 19 20  1  0  0  0  0
 19 41  1  0  0  0  0
 20 21  1  0  0  0  0
 20 42  1  0  0  0  0
 20 43  1  0  0  0  0
 21 22  1  0  0  0  0
 21 44  1  0  0  0  0
 21 45  1  0  0  0  0
 22 23  1  0  0  0  0
 22 46  1  0  0  0  0
 22 47  1  0  0  0  0
 23 24  1  0  0  0  0
 23 48  1  0  0  0  0
 23 49  1  0  0  0  0
 24 50  1  0  0  0  0
 24 51  1  0  0  0  0
M  END
> <s_m_source_file>
AV-unprocessed.smi

> <i_m_source_file_index>
951

> <i_lp_mmshare_version>
43012

> <i_f3d_flags>
0

> <s_epik_input>
bjFbY0hdW2NIXVtjSF1bY0hdYzFbQ0gyXVtDSDJdW05IXUMoPU8pW0NAQEhdMltDSDJdW0NIMl1bQ0gyXU4yQyg9TylbQ0hdM1tDSDJdW0NIMl1bQ0gyXVtDSDJdW0NIMl0z

> <s_epik_cmdline>
J2VwaWtfcHl0aG9uJywgJy1waCcsICc3LjAnLCAnLXRuJywgJzgnLCAnLW1hJywgJzIwMCcsICctbWV0YWxfYmluZGluZycsICctaW1hZScsICc8aW5maWxlLm1hZT4nLCAnLW9tYWUnLCAnPG91dGZpbGUubWFlPic=

> <r_epik_Ionization_Penalty>
0.0265505

> <r_epik_Ionization_Penalty_Charging>
0

> <r_epik_Ionization_Penalty_Neutral>
0.0265505

> <r_epik_State_Penalty>
0.02168

> <r_epik_Charging_Adjusted_Penalty>
0.02168

> <i_epik_Tot_Q>
0

> <i_epik_Tot_abs_Q>
0

> <r_epik_Metal_State_Penalty>
0.020746

> <b_epik_Metal_Only>
0

> <s_lp_Force_Field>
OPLS_2005

> <r_lp_Energy>
18.972

> <b_lp_Chiralities_Consistent>
1

> <s_lp_Variant>
AV-unprocessed.smi:951-1

> <Gold.Version>
5.8.1

> <Gold.Id.Protein>
6NUR|6NUR_protein|mol2

> <Gold.PLP.Fitness>
52.5601

> <Gold.PLP.PLP>
-45.3790

> <Gold.PLP.part.hbond>
-3.0000

> <Gold.PLP.part.metal>
0.0000

> <Gold.PLP.part.buried>
-2.4066

> <Gold.PLP.part.nonpolar>
-41.4851

> <Gold.PLP.part.repulsive>
0.1539

> <Gold.PLP.ligand.clash>
0.0000

> <Gold.PLP.ligand.torsion>
0.6377

> <Gold.PLP.Chemscore.Hbond>
2.7896

> <Gold.PLP.Chemscore.CHOScore>
0.0000

> <Gold.PLP.Chemscore.Metal>
0.0000

> <Gold.Chemscore.Hbonds>
donor molecule, donor type, donor heavy atom, donor atom, acceptor molecule, acceptor atom, score
      P1  H  6934  6947       L1    11  1.00
      P1  H  7997  8010       L1    18  0.03

> <Gold.PLP.Chemscore.Internal.Correction>
0.0878

> <Gold.Rescore>
     Score         DG    S(hbond)    S(metal)    S(lipo)     H(rot)  DE(clash)    DE(int)     intcor
     17.46     -19.84       0.96        0.00     129.14       1.55       1.41       0.97       ----

> <Gold.Chemscore.Fitness>
17.4617

> <Gold.Chemscore.DG>
-19.8400

> <Gold.Chemscore.ZeroCoef>
-5.4800

> <Gold.Chemscore.Hbond>
0.9642

> <Gold.Chemscore.Metal>
0.0000

> <Gold.Chemscore.Lipo>
129.1380

> <Gold.Chemscore.Internal_Hbond>
0.0000

> <Gold.Chemscore.DEClash>
1.4090

> <Gold.Chemscore.DEInternal>
0.9693

> <Gold.Chemscore.Rot>
1.5506

> <Gold.Chemscore.Internal.Correction>
   9.000000E+99

> <Gold.Chemscore.Hbonds>
donor molecule, donor type, donor heavy atom, donor atom, acceptor molecule, acceptor atom, score
      P1  H  6934  6947       L1    11  0.64
      P1  H  7997  8010       L1    18  0.08

> <Gold.Chemscore.Hbond.Weighted>
-3.2204

> <Gold.Chemscore.Metal.Weighted>
-0.0000

> <Gold.Chemscore.Lipo.Weighted>
-15.1091

> <Gold.Chemscore.Internal_Hbond.Weighted>
0.0000

> <Gold.Chemscore.DEClash.Weighted>
1.4090

> <Gold.Chemscore.DEInternal.Weighted>
0.9693

> <Gold.Chemscore.Rot.Weighted>
3.9695

> <Gold.Chemscore.Internal.Correction.Weighted>
   9.000000E+99

> <Gold.Protein.RotatedTorsions>
[ 6907 6896 6895 6894 ] final -160.11 input  -60.11 | X-H torsion
[ 7974 7965 7964 7962 ] final   70.72 input  175.53 | X-H torsion
[ 8008 7997 7996 7995 ] final   49.20 input   59.86 | X-H torsion
[ 10167 10162 10161 10158 ] final  105.42 input  -65.29 | X-H torsion
[ 10718 10713 10712 10709 ] final  172.55 input   66.30 | X-H torsion
[ 10763 10752 10751 10750 ] final -108.94 input  -60.55 | X-H torsion
[ 11005 11000 10999 10996 ] final  167.57 input  -57.11 | X-H torsion

> <Gold.Protein.ActiveResidues>
 VAL166  LYS551  ARG553  GLY616  TRP617  ASP618  TYR619  PRO620  LYS621  CYS622 
 ASP623  PHE694  ASN695  SER759  ASP760  ASP761  ALA762  ILE779  LEU786  VAL792 
 PHE793  MET794  SER795  GLU796  ALA797  LYS798  CYS799  TRP800  GLU811  SER814 

> <Gold.Protein.RotatedAtoms>
  151.3440  133.3951  159.2673 H   0  0  0  0  0  0  0  0  0  0  0  0  # atno 6907 bound_to 6896
  150.9855  134.9202  159.7879 H   0  0  0  0  0  0  0  0  0  0  0  0  # atno 6908 bound_to 6896
  152.5231  134.3405  159.9267 H   0  0  0  0  0  0  0  0  0  0  0  0  # atno 6909 bound_to 6896
  145.7747  139.2859  143.1301 H   0  0  0  0  0  0  0  0  0  0  0  0  # atno 7974 bound_to 7965
  155.3982  140.3436  155.4255 H   0  0  0  0  0  0  0  0  0  0  0  0  # atno 8008 bound_to 7997
  156.1519  140.1573  156.8789 H   0  0  0  0  0  0  0  0  0  0  0  0  # atno 8009 bound_to 7997
  154.5060  140.0802  156.7876 H   0  0  0  0  0  0  0  0  0  0  0  0  # atno 8010 bound_to 7997
  139.7094  144.7080  151.1052 H   0  0  0  0  0  0  0  0  0  0  0  0  # atno 10167 bound_to 10162
  156.9773  131.0108  151.2890 H   0  0  0  0  0  0  0  0  0  0  0  0  # atno 10718 bound_to 10713
  154.8165  135.4619  154.0657 H   0  0  0  0  0  0  0  0  0  0  0  0  # atno 10763 bound_to 10752
  153.2046  135.6873  153.8195 H   0  0  0  0  0  0  0  0  0  0  0  0  # atno 10764 bound_to 10752
  153.7668  135.3276  155.3323 H   0  0  0  0  0  0  0  0  0  0  0  0  # atno 10765 bound_to 10752
  140.2782  134.7772  157.3735 H   0  0  0  0  0  0  0  0  0  0  0  0  # atno 11005 bound_to 11000
  146.0135  140.8414  142.9959 LP  0  0  0  0  0  0  0  0  0  0  0  0  # atno 17320 bound_to 7965
  144.6806  140.2524  143.7330 LP  0  0  0  0  0  0  0  0  0  0  0  0  # atno 17321 bound_to 7965
  140.7729  143.5313  150.9419 LP  0  0  0  0  0  0  0  0  0  0  0  0  # atno 17342 bound_to 10162
  139.8998  143.6850  152.3133 LP  0  0  0  0  0  0  0  0  0  0  0  0  # atno 17343 bound_to 10162
  157.5551  130.8208  149.8194 LP  0  0  0  0  0  0  0  0  0  0  0  0  # atno 17370 bound_to 10713
  156.0258  130.3780  150.1826 LP  0  0  0  0  0  0  0  0  0  0  0  0  # atno 17371 bound_to 10713
  140.1308  134.5097  155.8107 LP  0  0  0  0  0  0  0  0  0  0  0  0  # atno 17394 bound_to 11000
  141.2167  133.6789  156.7036 LP  0  0  0  0  0  0  0  0  0  0  0  0  # atno 17395 bound_to 11000

$$$$
