AV-unprocessed.smi:1941|AV-procd|sdf|7847|dock2
  -GOLD-   22720 9593D 1   1.00000     0.00000
 Structure written by MMmdl.
 40 41  0  0  0  0  0  0  0  0  1 V2000
  146.4860  131.2569  152.6432 C   0  0  0  0  0  0  0  0  0  0  0  0
  145.7442  132.3100  151.8938 C   0  0  0  0  0  0  0  0  0  0  0  0
  146.1121  133.5936  151.8616 N   0  0  0  0  0  0  0  0  0  0  0  0
  145.2507  134.3812  151.0910 C   0  0  0  0  0  0  0  0  0  0  0  0
  145.5109  135.8492  150.9386 C   0  0  0  0  0  0  0  0  0  0  0  0
  145.4108  136.5995  152.2775 C   0  0  0  0  0  0  0  0  0  0  0  0
  146.6554  137.2861  152.6037 N   0  0  0  0  0  0  0  0  0  0  0  0
  146.7942  138.1959  153.5779 C   0  0  0  0  0  0  0  0  0  0  0  0
  145.8747  138.5685  154.3070 O   0  0  0  0  0  0  0  0  0  0  0  0
  148.0565  138.6380  153.6676 N   0  0  0  0  0  0  0  0  0  0  0  0
  148.5588  139.6078  154.6408 C   0  0  2  0  0  0  0  0  0  0  0  0
  148.5878  141.0058  154.0066 C   0  0  0  0  0  0  0  0  0  0  0  0
  149.9444  139.1834  155.1695 C   0  0  1  0  0  0  0  0  0  0  0  0
  150.1939  137.6687  155.2289 C   0  0  0  0  0  0  0  0  0  0  0  0
  151.6622  137.5138  154.8545 C   0  0  0  0  0  0  0  0  0  0  0  0
  152.1579  138.9476  154.6798 C   0  0  0  0  0  0  0  0  0  0  0  0
  150.9874  139.6700  154.3361 O   0  0  0  0  0  0  0  0  0  0  0  0
  144.2191  133.6679  150.5333 C   0  0  0  0  0  0  0  0  0  0  0  0
  144.2910  131.9801  150.9588 S   0  0  0  0  0  0  0  0  0  0  0  0
  147.3169  131.6931  153.1988 H   0  0  0  0  0  0  0  0  0  0  0  0
  146.8804  130.5143  151.9496 H   0  0  0  0  0  0  0  0  0  0  0  0
  145.8175  130.7604  153.3467 H   0  0  0  0  0  0  0  0  0  0  0  0
  146.4996  136.0021  150.5039 H   0  0  0  0  0  0  0  0  0  0  0  0
  144.8041  136.2793  150.2274 H   0  0  0  0  0  0  0  0  0  0  0  0
  144.6160  137.3442  152.2288 H   0  0  0  0  0  0  0  0  0  0  0  0
  145.1429  135.9118  153.0816 H   0  0  0  0  0  0  0  0  0  0  0  0
  147.4680  137.0441  152.0559 H   0  0  0  0  0  0  0  0  0  0  0  0
  148.7358  138.2600  153.0234 H   0  0  0  0  0  0  0  0  0  0  0  0
  147.8864  139.6604  155.4988 H   0  0  0  0  0  0  0  0  0  0  0  0
  148.9321  141.7534  154.7217 H   0  0  0  0  0  0  0  0  0  0  0  0
  147.5940  141.3056  153.6721 H   0  0  0  0  0  0  0  0  0  0  0  0
  149.2543  141.0392  153.1440 H   0  0  0  0  0  0  0  0  0  0  0  0
  150.0940  139.5985  156.1680 H   0  0  0  0  0  0  0  0  0  0  0  0
  149.9780  137.2726  156.2214 H   0  0  0  0  0  0  0  0  0  0  0  0
  149.5752  137.1204  154.5183 H   0  0  0  0  0  0  0  0  0  0  0  0
  152.2350  136.9724  155.6080 H   0  0  0  0  0  0  0  0  0  0  0  0
  151.7470  136.9699  153.9131 H   0  0  0  0  0  0  0  0  0  0  0  0
  152.5620  139.3358  155.6160 H   0  0  0  0  0  0  0  0  0  0  0  0
  152.9263  139.0369  153.9116 H   0  0  0  0  0  0  0  0  0  0  0  0
  143.4248  134.0324  149.8985 H   0  0  0  0  0  0  0  0  0  0  0  0
  1  2  1  0  0  0  0
  1 20  1  0  0  0  0
  1 21  1  0  0  0  0
  1 22  1  0  0  0  0
  2 19  1  0  0  0  0
  2  3  2  0  0  0  0
  3  4  1  0  0  0  0
  4  5  1  0  0  0  0
  4 18  2  0  0  0  0
  5  6  1  0  0  0  0
  5 23  1  0  0  0  0
  5 24  1  0  0  0  0
  6  7  1  0  0  0  0
  6 25  1  0  0  0  0
  6 26  1  0  0  0  0
  7  8  1  0  0  0  0
  7 27  1  0  0  0  0
  8  9  2  0  0  0  0
  8 10  1  0  0  0  0
 10 11  1  0  0  0  0
 10 28  1  0  0  0  0
 11 12  1  0  0  0  0
 11 13  1  0  0  0  0
 11 29  1  0  0  0  0
 12 30  1  0  0  0  0
 12 31  1  0  0  0  0
 12 32  1  0  0  0  0
 13 17  1  0  0  0  0
 13 14  1  0  0  0  0
 13 33  1  0  0  0  0
 14 15  1  0  0  0  0
 14 34  1  0  0  0  0
 14 35  1  0  0  0  0
 15 16  1  0  0  0  0
 15 36  1  0  0  0  0
 15 37  1  0  0  0  0
 16 17  1  0  0  0  0
 16 38  1  0  0  0  0
 16 39  1  0  0  0  0
 18 19  1  0  0  0  0
 18 40  1  0  0  0  0
M  END
> <s_m_source_file>
AV-unprocessed.smi

> <i_m_source_file_index>
1941

> <i_lp_mmshare_version>
43012

> <i_f3d_flags>
0

> <s_epik_input>
W0NIM11jMW5jKFtjSF1zMSlbQ0gyXVtDSDJdW05IXUMoPU8pW05IXVtDQEhdKFtDSDNdKVtDQEBIXTJbQ0gyXVtDSDJdW0NIMl1PMg==

> <s_epik_cmdline>
J2VwaWtfcHl0aG9uJywgJy1waCcsICc3LjAnLCAnLXRuJywgJzgnLCAnLW1hJywgJzIwMCcsICctbWV0YWxfYmluZGluZycsICctaW1hZScsICc8aW5maWxlLm1hZT4nLCAnLW9tYWUnLCAnPG91dGZpbGUubWFlPic=

> <r_epik_Ionization_Penalty>
0.00195486

> <r_epik_Ionization_Penalty_Charging>
0

> <r_epik_Ionization_Penalty_Neutral>
0.00195486

> <r_epik_State_Penalty>
0.00129472

> <r_epik_Charging_Adjusted_Penalty>
0.00129472

> <i_epik_Tot_Q>
0

> <i_epik_Tot_abs_Q>
0

> <r_epik_Metal_State_Penalty>
-0

> <b_epik_Metal_Only>
0

> <s_lp_Force_Field>
OPLS_2005

> <r_lp_Energy>
12.2091

> <b_lp_Chiralities_Consistent>
1

> <s_lp_Variant>
AV-unprocessed.smi:1941-3

> <Gold.Version>
5.8.1

> <Gold.Id.Protein>
6NUR|6NUR_protein|mol2

> <Gold.PLP.Fitness>
41.1758

> <Gold.PLP.PLP>
-34.3323

> <Gold.PLP.part.hbond>
-3.2015

> <Gold.PLP.part.metal>
0.0000

> <Gold.PLP.part.buried>
-3.9340

> <Gold.PLP.part.nonpolar>
-27.8821

> <Gold.PLP.part.repulsive>
0.4641

> <Gold.PLP.ligand.clash>
0.0000

> <Gold.PLP.ligand.torsion>
1.3701

> <Gold.PLP.Chemscore.Hbond>
2.1726

> <Gold.PLP.Chemscore.CHOScore>
1.0000

> <Gold.PLP.Chemscore.Metal>
0.0000

> <Gold.Chemscore.Hbonds>
donor molecule, donor type, donor heavy atom, donor atom, acceptor molecule, acceptor atom, score
      L1  H     7    27       P1  7948  1.00
      L1  H    10    28       P1  7948  0.20
      P1  H  7989  7998       L1    17  1.00
      L1  C    18    40       P1 10186  1.00

> <Gold.PLP.Chemscore.Internal.Correction>
0.0660

> <Gold.Rescore>
     Score         DG    S(hbond)    S(metal)    S(lipo)     H(rot)  DE(clash)    DE(int)     intcor
     17.32     -19.11       2.32        0.00      87.36       1.69       0.42       1.37       ----

> <Gold.Chemscore.Fitness>
17.3161

> <Gold.Chemscore.DG>
-19.1052

> <Gold.Chemscore.ZeroCoef>
-5.4800

> <Gold.Chemscore.Hbond>
2.3164

> <Gold.Chemscore.Metal>
0.0000

> <Gold.Chemscore.Lipo>
87.3574

> <Gold.Chemscore.Internal_Hbond>
0.0000

> <Gold.Chemscore.DEClash>
0.4222

> <Gold.Chemscore.DEInternal>
1.3670

> <Gold.Chemscore.Rot>
1.6923

> <Gold.Chemscore.Internal.Correction>
   9.000000E+99

> <Gold.Chemscore.Hbonds>
donor molecule, donor type, donor heavy atom, donor atom, acceptor molecule, acceptor atom, score
      L1  H     7    27       P1  7948  0.97
      L1  H    10    28       P1  7948  0.19
      P1  H  7989  7998       L1    17  0.25

> <Gold.Chemscore.Hbond.Weighted>
-7.7367

> <Gold.Chemscore.Metal.Weighted>
-0.0000

> <Gold.Chemscore.Lipo.Weighted>
-10.2208

> <Gold.Chemscore.Internal_Hbond.Weighted>
0.0000

> <Gold.Chemscore.DEClash.Weighted>
0.4222

> <Gold.Chemscore.DEInternal.Weighted>
1.3670

> <Gold.Chemscore.Rot.Weighted>
4.3323

> <Gold.Chemscore.Internal.Correction.Weighted>
   9.000000E+99

> <Gold.Protein.RotatedTorsions>
[ 6907 6896 6895 6894 ] final  138.96 input  -60.11 | X-H torsion
[ 7974 7965 7964 7962 ] final  137.64 input  175.53 | X-H torsion
[ 8008 7997 7996 7995 ] final -123.47 input   59.86 | X-H torsion
[ 10167 10162 10161 10158 ] final -114.80 input  -65.29 | X-H torsion
[ 10718 10713 10712 10709 ] final  162.96 input   66.30 | X-H torsion
[ 10763 10752 10751 10750 ] final -152.60 input  -60.55 | X-H torsion
[ 11005 11000 10999 10996 ] final  -81.35 input  -57.11 | X-H torsion

> <Gold.Protein.ActiveResidues>
 VAL166  LYS551  ARG553  GLY616  TRP617  ASP618  TYR619  PRO620  LYS621  CYS622 
 ASP623  PHE694  ASN695  SER759  ASP760  ASP761  ALA762  ILE779  LEU786  VAL792 
 PHE793  MET794  SER795  GLU796  ALA797  LYS798  CYS799  TRP800  GLU811  SER814 

> <Gold.Protein.RotatedAtoms>
  152.2605  133.5293  159.5378 H   0  0  0  0  0  0  0  0  0  0  0  0  # atno 6907 bound_to 6896
  150.7123  134.0837  159.3916 H   0  0  0  0  0  0  0  0  0  0  0  0  # atno 6908 bound_to 6896
  151.8754  135.0473  160.0534 H   0  0  0  0  0  0  0  0  0  0  0  0  # atno 6909 bound_to 6896
  144.9449  139.4887  143.5554 H   0  0  0  0  0  0  0  0  0  0  0  0  # atno 7974 bound_to 7965
  155.1811  140.0410  157.2882 H   0  0  0  0  0  0  0  0  0  0  0  0  # atno 8008 bound_to 7997
  154.6203  140.2499  155.7530 H   0  0  0  0  0  0  0  0  0  0  0  0  # atno 8009 bound_to 7997
  156.2429  140.2896  156.0507 H   0  0  0  0  0  0  0  0  0  0  0  0  # atno 8010 bound_to 7997
  140.0970  143.4647  152.1835 H   0  0  0  0  0  0  0  0  0  0  0  0  # atno 10167 bound_to 10162
  157.1152  131.0478  151.2440 H   0  0  0  0  0  0  0  0  0  0  0  0  # atno 10718 bound_to 10713
  154.7983  135.3232  154.7612 H   0  0  0  0  0  0  0  0  0  0  0  0  # atno 10763 bound_to 10752
  153.8286  135.6881  153.4822 H   0  0  0  0  0  0  0  0  0  0  0  0  # atno 10764 bound_to 10752
  153.1686  135.4632  154.9814 H   0  0  0  0  0  0  0  0  0  0  0  0  # atno 10765 bound_to 10752
  141.1666  133.7192  156.8409 H   0  0  0  0  0  0  0  0  0  0  0  0  # atno 11005 bound_to 11000
  146.3299  139.8494  142.8876 LP  0  0  0  0  0  0  0  0  0  0  0  0  # atno 17320 bound_to 7965
  145.2934  141.0174  143.3650 LP  0  0  0  0  0  0  0  0  0  0  0  0  # atno 17321 bound_to 7965
  139.5692  144.7453  151.3937 LP  0  0  0  0  0  0  0  0  0  0  0  0  # atno 17342 bound_to 10162
  140.6998  143.7659  150.7385 LP  0  0  0  0  0  0  0  0  0  0  0  0  # atno 17343 bound_to 10162
  157.4525  130.7606  149.7163 LP  0  0  0  0  0  0  0  0  0  0  0  0  # atno 17370 bound_to 10713
  155.9841  130.3994  150.3328 LP  0  0  0  0  0  0  0  0  0  0  0  0  # atno 17371 bound_to 10713
  140.1984  134.8915  157.3141 LP  0  0  0  0  0  0  0  0  0  0  0  0  # atno 17394 bound_to 11000
  140.2214  134.4019  155.7564 LP  0  0  0  0  0  0  0  0  0  0  0  0  # atno 17395 bound_to 11000

$$$$
