AV-unprocessed.smi:2819|AV-procd|sdf|10850|dock4
  -GOLD-   2272015293D 1   1.00000     0.00000
 Structure written by MMmdl.
 50 51  0  0  0  0  0  0  0  0  2 V2000
  152.9265  142.5319  162.4994 C   0  0  0  0  0  0  0  0  0  0  0  0
  152.7105  142.3238  161.0706 N   0  0  0  0  0  0  0  0  0  0  0  0
  153.4630  141.2961  160.3622 C   0  0  0  0  0  0  0  0  0  0  0  0
  151.8630  143.1983  160.3543 C   0  0  0  0  0  0  0  0  0  0  0  0
  151.5692  144.5016  160.8086 C   0  0  0  0  0  0  0  0  0  0  0  0
  150.7094  145.2820  160.0156 C   0  0  0  0  0  0  0  0  0  0  0  0
  150.1947  144.7854  158.8652 N   0  3  0  0  0  0  0  0  0  0  0  0
  150.5082  143.5404  158.4740 C   0  0  0  0  0  0  0  0  0  0  0  0
  149.9471  143.1039  157.2931 N   0  0  0  0  0  0  0  0  0  0  0  0
  149.6498  141.8579  156.8769 C   0  0  0  0  0  0  0  0  0  0  0  0
  149.8508  140.8257  157.5186 O   0  0  0  0  0  0  0  0  0  0  0  0
  149.1054  141.8729  155.6513 N   0  0  0  0  0  0  0  0  0  0  0  0
  148.6841  140.6975  154.8884 C   0  0  0  0  0  0  0  0  0  0  0  0
  147.1706  140.7229  154.5206 C   0  0  0  0  0  0  0  0  0  0  0  0
  146.9269  142.0364  153.7347 C   0  0  0  0  0  0  0  0  0  0  0  0
  146.9219  139.5536  153.5371 C   0  0  0  0  0  0  0  0  0  0  0  0
  146.3081  140.6574  155.7344 N   0  0  0  0  0  0  0  0  0  0  0  0
  146.6272  139.5642  156.6606 C   0  0  0  0  0  0  0  0  0  0  0  0
  145.6289  139.4829  157.8282 C   0  0  0  0  0  0  0  0  0  0  0  0
  145.5921  140.7271  158.5162 O   0  0  0  0  0  0  0  0  0  0  0  0
  145.2271  141.8068  157.6656 C   0  0  0  0  0  0  0  0  0  0  0  0
  146.2247  141.9075  156.4995 C   0  0  0  0  0  0  0  0  0  0  0  0
  151.3231  142.7553  159.1962 N   0  0  0  0  0  0  0  0  0  0  0  0
  151.9808  142.4922  163.0410 H   0  0  0  0  0  0  0  0  0  0  0  0
  153.3882  143.5032  162.6797 H   0  0  0  0  0  0  0  0  0  0  0  0
  153.5807  141.7673  162.9186 H   0  0  0  0  0  0  0  0  0  0  0  0
  154.1015  141.7446  159.6004 H   0  0  0  0  0  0  0  0  0  0  0  0
  152.7875  140.5887  159.8803 H   0  0  0  0  0  0  0  0  0  0  0  0
  154.1029  140.7337  161.0425 H   0  0  0  0  0  0  0  0  0  0  0  0
  151.9756  144.9063  161.7236 H   0  0  0  0  0  0  0  0  0  0  0  0
  150.4152  146.2911  160.2649 H   0  0  0  0  0  0  0  0  0  0  0  0
  149.7274  143.8373  156.6359 H   0  0  0  0  0  0  0  0  0  0  0  0
  148.9865  142.7652  155.1940 H   0  0  0  0  0  0  0  0  0  0  0  0
  149.2906  140.5880  153.9874 H   0  0  0  0  0  0  0  0  0  0  0  0
  148.9248  139.8156  155.4814 H   0  0  0  0  0  0  0  0  0  0  0  0
  147.6768  142.1823  152.9561 H   0  0  0  0  0  0  0  0  0  0  0  0
  146.9608  142.9097  154.3868 H   0  0  0  0  0  0  0  0  0  0  0  0
  145.9611  142.0419  153.2293 H   0  0  0  0  0  0  0  0  0  0  0  0
  147.5605  139.6408  152.6571 H   0  0  0  0  0  0  0  0  0  0  0  0
  145.8942  139.5291  153.1758 H   0  0  0  0  0  0  0  0  0  0  0  0
  147.1385  138.5842  153.9857 H   0  0  0  0  0  0  0  0  0  0  0  0
  146.6149  138.6035  156.1489 H   0  0  0  0  0  0  0  0  0  0  0  0
  147.6304  139.6941  157.0666 H   0  0  0  0  0  0  0  0  0  0  0  0
  144.6315  139.2286  157.4666 H   0  0  0  0  0  0  0  0  0  0  0  0
  145.9255  138.6996  158.5259 H   0  0  0  0  0  0  0  0  0  0  0  0
  144.2119  141.6609  157.2937 H   0  0  0  0  0  0  0  0  0  0  0  0
  145.2267  142.7309  158.2439 H   0  0  0  0  0  0  0  0  0  0  0  0
  147.2041  142.1714  156.8989 H   0  0  0  0  0  0  0  0  0  0  0  0
  145.9091  142.7333  155.8649 H   0  0  0  0  0  0  0  0  0  0  0  0
  149.5721  145.3692  158.3062 H   0  0  0  0  0  0  0  0  0  0  0  0
  1  2  1  0  0  0  0
  1 24  1  0  0  0  0
  1 25  1  0  0  0  0
  1 26  1  0  0  0  0
  2  3  1  0  0  0  0
  2  4  1  0  0  0  0
  3 27  1  0  0  0  0
  3 28  1  0  0  0  0
  3 29  1  0  0  0  0
  4 23  1  0  0  0  0
  4  5  2  0  0  0  0
  5  6  1  0  0  0  0
  5 30  1  0  0  0  0
  6  7  2  0  0  0  0
  6 31  1  0  0  0  0
  7  8  1  0  0  0  0
  7 50  1  0  0  0  0
  8  9  1  0  0  0  0
  8 23  2  0  0  0  0
  9 10  1  0  0  0  0
  9 32  1  0  0  0  0
 10 11  2  0  0  0  0
 10 12  1  0  0  0  0
 12 13  1  0  0  0  0
 12 33  1  0  0  0  0
 13 14  1  0  0  0  0
 13 34  1  0  0  0  0
 13 35  1  0  0  0  0
 14 15  1  0  0  0  0
 14 16  1  0  0  0  0
 14 17  1  0  0  0  0
 15 36  1  0  0  0  0
 15 37  1  0  0  0  0
 15 38  1  0  0  0  0
 16 39  1  0  0  0  0
 16 40  1  0  0  0  0
 16 41  1  0  0  0  0
 17 22  1  0  0  0  0
 17 18  1  0  0  0  0
 18 19  1  0  0  0  0
 18 42  1  0  0  0  0
 18 43  1  0  0  0  0
 19 20  1  0  0  0  0
 19 44  1  0  0  0  0
 19 45  1  0  0  0  0
 20 21  1  0  0  0  0
 21 22  1  0  0  0  0
 21 46  1  0  0  0  0
 21 47  1  0  0  0  0
 22 48  1  0  0  0  0
 22 49  1  0  0  0  0
M  CHG  1   7   1
M  END
> <s_m_source_file>
AV-unprocessed.smi

> <i_m_source_file_index>
2819

> <i_lp_mmshare_version>
43012

> <i_f3d_flags>
0

> <s_epik_input>
W0NIM11OKFtDSDNdKWMxW2NIXVtjSF1uYyhuMSlbTkhdQyg9TylbTkhdW0NIMl1DKFtDSDNdKShbQ0gzXSlOMltDSDJdW0NIMl1PW0NIMl1bQ0gyXTI=

> <s_epik_cmdline>
J2VwaWtfcHl0aG9uJywgJy1waCcsICc3LjAnLCAnLXRuJywgJzgnLCAnLW1hJywgJzIwMCcsICctbWV0YWxfYmluZGluZycsICctaW1hZScsICc8aW5maWxlLm1hZT4nLCAnLW9tYWUnLCAnPG91dGZpbGUubWFlPic=

> <r_lp_tautomer_probability>
0.999336

> <r_epik_Ionization_Penalty>
0.36245

> <r_epik_Ionization_Penalty_Charging>
0.09642

> <r_epik_Ionization_Penalty_Neutral>
0.26603

> <r_epik_State_Penalty>
0.34182

> <r_epik_Charging_Adjusted_Penalty>
0.43824

> <i_epik_Tot_Q>
1

> <i_epik_Tot_abs_Q>
1

> <r_epik_Metal_State_Penalty>
0.680072

> <b_epik_Metal_Only>
0

> <s_lp_Force_Field>
OPLS_2005

> <r_lp_Energy>
46.6514

> <b_lp_Chiralities_Consistent>
1

> <s_lp_Variant>
AV-unprocessed.smi:2819-1

> <Gold.Version>
5.8.1

> <Gold.Id.Protein>
6NUR|6NUR_protein|mol2

> <Gold.PLP.Fitness>
50.9338

> <Gold.PLP.PLP>
-40.5617

> <Gold.PLP.part.hbond>
-3.9320

> <Gold.PLP.part.metal>
0.0000

> <Gold.PLP.part.buried>
-7.4280

> <Gold.PLP.part.nonpolar>
-31.6515

> <Gold.PLP.part.repulsive>
0.3983

> <Gold.PLP.ligand.clash>
0.0000

> <Gold.PLP.ligand.torsion>
0.7075

> <Gold.PLP.Chemscore.Hbond>
3.8835

> <Gold.PLP.Chemscore.CHOScore>
0.0000

> <Gold.PLP.Chemscore.Metal>
0.0000

> <Gold.Chemscore.Hbonds>
donor molecule, donor type, donor heavy atom, donor atom, acceptor molecule, acceptor atom, score
      L1  H     7    50       P1  8029  1.98
      L1  H     9    32       P1  8028  1.00
      L1  H    12    33       P1  8028  0.80

> <Gold.PLP.Chemscore.Internal.Correction>
0.1367

> <Gold.Rescore>
     Score         DG    S(hbond)    S(metal)    S(lipo)     H(rot)  DE(clash)    DE(int)     intcor
     16.17     -18.94       2.84        0.00      67.40       1.53       0.01       2.76       ----

> <Gold.Chemscore.Fitness>
16.1678

> <Gold.Chemscore.DG>
-18.9377

> <Gold.Chemscore.ZeroCoef>
-5.4800

> <Gold.Chemscore.Hbond>
2.8396

> <Gold.Chemscore.Metal>
0.0000

> <Gold.Chemscore.Lipo>
67.3990

> <Gold.Chemscore.Internal_Hbond>
0.0000

> <Gold.Chemscore.DEClash>
0.0091

> <Gold.Chemscore.DEInternal>
2.7608

> <Gold.Chemscore.Rot>
1.5282

> <Gold.Chemscore.Internal.Correction>
   9.000000E+99

> <Gold.Chemscore.Hbonds>
donor molecule, donor type, donor heavy atom, donor atom, acceptor molecule, acceptor atom, score
      L1  H     7    50       P1  8029  0.55
      L1  H     9    32       P1  8028  0.94
      L1  H    12    33       P1  8028  0.76

> <Gold.Chemscore.Hbond.Weighted>
-9.4841

> <Gold.Chemscore.Metal.Weighted>
-0.0000

> <Gold.Chemscore.Lipo.Weighted>
-7.8857

> <Gold.Chemscore.Internal_Hbond.Weighted>
0.0000

> <Gold.Chemscore.DEClash.Weighted>
0.0091

> <Gold.Chemscore.DEInternal.Weighted>
2.7608

> <Gold.Chemscore.Rot.Weighted>
3.9121

> <Gold.Chemscore.Internal.Correction.Weighted>
   9.000000E+99

> <Gold.Protein.RotatedTorsions>
[ 6907 6896 6895 6894 ] final  100.24 input  -60.11 | X-H torsion
[ 7974 7965 7964 7962 ] final   -4.48 input  175.53 | X-H torsion
[ 8008 7997 7996 7995 ] final  -39.68 input   59.86 | X-H torsion
[ 10167 10162 10161 10158 ] final   85.69 input  -65.29 | X-H torsion
[ 10718 10713 10712 10709 ] final -115.81 input   66.30 | X-H torsion
[ 10763 10752 10751 10750 ] final -109.97 input  -60.55 | X-H torsion
[ 11005 11000 10999 10996 ] final   99.16 input  -57.11 | X-H torsion

> <Gold.Protein.ActiveResidues>
 VAL166  LYS551  ARG553  GLY616  TRP617  ASP618  TYR619  PRO620  LYS621  CYS622 
 ASP623  PHE694  ASN695  SER759  ASP760  ASP761  ALA762  ILE779  LEU786  VAL792 
 PHE793  MET794  SER795  GLU796  ALA797  LYS798  CYS799  TRP800  GLU811  SER814 

> <Gold.Protein.RotatedAtoms>
  152.5376  134.0307  159.8023 H   0  0  0  0  0  0  0  0  0  0  0  0  # atno 6907 bound_to 6896
  151.0478  133.5642  159.2652 H   0  0  0  0  0  0  0  0  0  0  0  0  # atno 6908 bound_to 6896
  151.2588  135.0654  159.9144 H   0  0  0  0  0  0  0  0  0  0  0  0  # atno 6909 bound_to 6896
  146.2371  140.1878  142.8332 H   0  0  0  0  0  0  0  0  0  0  0  0  # atno 7974 bound_to 7965
  154.4020  140.1545  156.2902 H   0  0  0  0  0  0  0  0  0  0  0  0  # atno 8008 bound_to 7997
  155.8792  140.3445  155.5854 H   0  0  0  0  0  0  0  0  0  0  0  0  # atno 8009 bound_to 7997
  155.7687  140.0827  157.2109 H   0  0  0  0  0  0  0  0  0  0  0  0  # atno 8010 bound_to 7997
  139.8952  144.6362  150.8696 H   0  0  0  0  0  0  0  0  0  0  0  0  # atno 10167 bound_to 10162
  156.0921  130.6101  150.8954 H   0  0  0  0  0  0  0  0  0  0  0  0  # atno 10718 bound_to 10713
  154.8223  135.4581  154.0814 H   0  0  0  0  0  0  0  0  0  0  0  0  # atno 10763 bound_to 10752
  153.2158  135.6887  153.8066 H   0  0  0  0  0  0  0  0  0  0  0  0  # atno 10764 bound_to 10752
  153.7501  135.3299  155.3296 H   0  0  0  0  0  0  0  0  0  0  0  0  # atno 10765 bound_to 10752
  139.8771  134.9083  156.4565 H   0  0  0  0  0  0  0  0  0  0  0  0  # atno 11005 bound_to 11000
  144.9883  140.8523  143.5355 LP  0  0  0  0  0  0  0  0  0  0  0  0  # atno 17320 bound_to 7965
  145.1880  139.2316  143.5257 LP  0  0  0  0  0  0  0  0  0  0  0  0  # atno 17321 bound_to 7965
  140.7718  143.3479  151.2073 LP  0  0  0  0  0  0  0  0  0  0  0  0  # atno 17342 bound_to 10162
  139.7074  143.9432  152.2933 LP  0  0  0  0  0  0  0  0  0  0  0  0  # atno 17343 bound_to 10162
  157.6073  131.0938  150.8857 LP  0  0  0  0  0  0  0  0  0  0  0  0  # atno 17370 bound_to 10713
  156.9004  130.5244  149.5283 LP  0  0  0  0  0  0  0  0  0  0  0  0  # atno 17371 bound_to 10713
  140.8895  133.7859  155.9555 LP  0  0  0  0  0  0  0  0  0  0  0  0  # atno 17394 bound_to 11000
  140.8769  134.2659  157.5163 LP  0  0  0  0  0  0  0  0  0  0  0  0  # atno 17395 bound_to 11000

$$$$
