AV-unprocessed.smi:2073|AV-procd|sdf|8451|dock3
  -GOLD-   2272011143D 1   1.00000     0.00000
 Structure written by MMmdl.
 27 27  0  0  0  0  0  0  0  0  2 V2000
  153.5840  140.6059  160.3518 C   0  0  0  0  0  0  0  0  0  0  0  0
  152.9193  141.4288  159.2364 C   0  0  0  0  0  0  0  0  0  0  0  0
  152.2083  142.6715  159.8013 C   0  0  0  0  0  0  0  0  0  0  0  0
  151.9532  140.5495  158.4222 C   0  0  0  0  0  0  0  0  0  0  0  0
  150.9743  140.0471  158.9781 O   0  0  0  0  0  0  0  0  0  0  0  0
  152.3404  140.4338  157.1287 N   0  5  0  0  0  0  0  0  0  0  0  0
  151.4144  140.2621  156.1728 C   0  0  0  0  0  0  0  0  0  0  0  0
  150.3535  141.0642  156.0338 N   0  0  0  0  0  0  0  0  0  0  0  0
  149.5161  140.7078  154.9725 C   0  0  0  0  0  0  0  0  0  0  0  0
  148.2900  141.5239  154.6790 C   0  0  0  0  0  0  0  0  0  0  0  0
  147.0594  140.6239  154.5402 C   0  0  0  0  0  0  0  0  0  0  0  0
  146.2773  140.8141  153.4734 N   0  0  0  0  0  0  0  0  0  0  0  0
  146.8097  139.7749  155.3935 O   0  0  0  0  0  0  0  0  0  0  0  0
  149.9463  139.5916  154.3021 C   0  0  0  0  0  0  0  0  0  0  0  0
  151.4231  138.9647  154.9765 S   0  0  0  0  0  0  0  0  0  0  0  0
  154.1047  139.7372  159.9467 H   0  0  0  0  0  0  0  0  0  0  0  0
  152.8504  140.2476  161.0752 H   0  0  0  0  0  0  0  0  0  0  0  0
  154.3179  141.2036  160.8925 H   0  0  0  0  0  0  0  0  0  0  0  0
  153.7109  141.7918  158.5773 H   0  0  0  0  0  0  0  0  0  0  0  0
  151.7148  143.2388  159.0112 H   0  0  0  0  0  0  0  0  0  0  0  0
  152.9208  143.3387  160.2861 H   0  0  0  0  0  0  0  0  0  0  0  0
  151.4535  142.4028  160.5413 H   0  0  0  0  0  0  0  0  0  0  0  0
  148.1186  142.2505  155.4742 H   0  0  0  0  0  0  0  0  0  0  0  0
  148.4136  142.0984  153.7599 H   0  0  0  0  0  0  0  0  0  0  0  0
  145.4442  140.2544  153.3566 H   0  0  0  0  0  0  0  0  0  0  0  0
  146.5095  141.5290  152.7997 H   0  0  0  0  0  0  0  0  0  0  0  0
  149.4891  139.1051  153.4536 H   0  0  0  0  0  0  0  0  0  0  0  0
  1  2  1  0  0  0  0
  1 16  1  0  0  0  0
  1 17  1  0  0  0  0
  1 18  1  0  0  0  0
  2  3  1  0  0  0  0
  2  4  1  0  0  0  0
  2 19  1  0  0  0  0
  3 20  1  0  0  0  0
  3 21  1  0  0  0  0
  3 22  1  0  0  0  0
  4  5  2  0  0  0  0
  4  6  1  0  0  0  0
  6  7  1  0  0  0  0
  7 15  1  0  0  0  0
  7  8  2  0  0  0  0
  8  9  1  0  0  0  0
  9 10  1  0  0  0  0
  9 14  2  0  0  0  0
 10 11  1  0  0  0  0
 10 23  1  0  0  0  0
 10 24  1  0  0  0  0
 11 12  1  0  0  0  0
 11 13  2  0  0  0  0
 12 25  1  0  0  0  0
 12 26  1  0  0  0  0
 14 15  1  0  0  0  0
 14 27  1  0  0  0  0
M  CHG  1   6  -1
M  END
> <s_m_source_file>
AV-unprocessed.smi

> <i_m_source_file_index>
2073

> <i_lp_mmshare_version>
43012

> <i_f3d_flags>
0

> <s_epik_input>
W0NIM11bQ0hdKFtDSDNdKUMoPU8pW05IXWMxbmMoW2NIXXMxKVtDSDJdQyg9TylbTkgyXQ==

> <s_epik_cmdline>
J2VwaWtfcHl0aG9uJywgJy1waCcsICc3LjAnLCAnLXRuJywgJzgnLCAnLW1hJywgJzIwMCcsICctbWV0YWxfYmluZGluZycsICctaW1hZScsICc8aW5maWxlLm1hZT4nLCAnLW9tYWUnLCAnPG91dGZpbGUubWFlPic=

> <r_lp_tautomer_probability>
1

> <r_epik_Ionization_Penalty>
5.4698

> <r_epik_Ionization_Penalty_Charging>
4.98646

> <r_epik_Ionization_Penalty_Neutral>
0.483343

> <r_epik_State_Penalty>
4.98633

> <r_epik_Charging_Adjusted_Penalty>
9.97279

> <i_epik_Tot_Q>
-1

> <i_epik_Tot_abs_Q>
1

> <r_epik_Metal_State_Penalty>
1.11062

> <b_epik_Metal_Only>
1

> <s_lp_Force_Field>
OPLS_2005

> <r_lp_Energy>
-0.551018

> <b_lp_Chiralities_Consistent>
1

> <s_lp_Variant>
AV-unprocessed.smi:2073-2

> <Gold.Version>
5.8.1

> <Gold.Id.Protein>
6NUR|6NUR_protein|mol2

> <Gold.PLP.Fitness>
38.1125

> <Gold.PLP.PLP>
-28.7352

> <Gold.PLP.part.hbond>
-2.0000

> <Gold.PLP.part.metal>
0.0000

> <Gold.PLP.part.buried>
0.6628

> <Gold.PLP.part.nonpolar>
-25.4184

> <Gold.PLP.part.repulsive>
0.1362

> <Gold.PLP.ligand.clash>
0.0000

> <Gold.PLP.ligand.torsion>
0.8870

> <Gold.PLP.Chemscore.Hbond>
2.9113

> <Gold.PLP.Chemscore.CHOScore>
0.7551

> <Gold.PLP.Chemscore.Metal>
0.0000

> <Gold.Chemscore.Hbonds>
donor molecule, donor type, donor heavy atom, donor atom, acceptor molecule, acceptor atom, score
      L1  H    12    25       P1 10175  0.72
      P1  H  7997  8009       L1     6  1.50
      L1  C    14    27       P1  7957  0.86

> <Gold.PLP.Chemscore.Internal.Correction>
0.1523

> <Gold.Rescore>
     Score         DG    S(hbond)    S(metal)    S(lipo)     H(rot)  DE(clash)    DE(int)     intcor
     11.76     -12.91       1.59        0.00      59.72       1.90       0.06       1.10       ----

> <Gold.Chemscore.Fitness>
11.7554

> <Gold.Chemscore.DG>
-12.9069

> <Gold.Chemscore.ZeroCoef>
-5.4800

> <Gold.Chemscore.Hbond>
1.5888

> <Gold.Chemscore.Metal>
0.0000

> <Gold.Chemscore.Lipo>
59.7220

> <Gold.Chemscore.Internal_Hbond>
0.0000

> <Gold.Chemscore.DEClash>
0.0558

> <Gold.Chemscore.DEInternal>
1.0956

> <Gold.Chemscore.Rot>
1.9012

> <Gold.Chemscore.Internal.Correction>
   9.000000E+99

> <Gold.Chemscore.Hbonds>
donor molecule, donor type, donor heavy atom, donor atom, acceptor molecule, acceptor atom, score
      L1  H    12    25       P1 10175  0.70
      P1  H  7997  8009       L1     6  0.67

> <Gold.Chemscore.Hbond.Weighted>
-5.3065

> <Gold.Chemscore.Metal.Weighted>
-0.0000

> <Gold.Chemscore.Lipo.Weighted>
-6.9875

> <Gold.Chemscore.Internal_Hbond.Weighted>
0.0000

> <Gold.Chemscore.DEClash.Weighted>
0.0558

> <Gold.Chemscore.DEInternal.Weighted>
1.0956

> <Gold.Chemscore.Rot.Weighted>
4.8671

> <Gold.Chemscore.Internal.Correction.Weighted>
   9.000000E+99

> <Gold.Protein.RotatedTorsions>
[ 6907 6896 6895 6894 ] final   72.15 input  -60.11 | X-H torsion
[ 7974 7965 7964 7962 ] final -171.95 input  175.53 | X-H torsion
[ 8008 7997 7996 7995 ] final -175.28 input   59.86 | X-H torsion
[ 10167 10162 10161 10158 ] final -166.10 input  -65.29 | X-H torsion
[ 10718 10713 10712 10709 ] final  163.37 input   66.30 | X-H torsion
[ 10763 10752 10751 10750 ] final -146.48 input  -60.55 | X-H torsion
[ 11005 11000 10999 10996 ] final   71.15 input  -57.11 | X-H torsion

> <Gold.Protein.ActiveResidues>
 VAL166  LYS551  ARG553  GLY616  TRP617  ASP618  TYR619  PRO620  LYS621  CYS622 
 ASP623  PHE694  ASN695  SER759  ASP760  ASP761  ALA762  ILE779  LEU786  VAL792 
 PHE793  MET794  SER795  GLU796  ALA797  LYS798  CYS799  TRP800  GLU811  SER814 

> <Gold.Protein.RotatedAtoms>
  152.4851  134.4614  159.9606 H   0  0  0  0  0  0  0  0  0  0  0  0  # atno 6907 bound_to 6896
  151.4612  133.3586  159.2817 H   0  0  0  0  0  0  0  0  0  0  0  0  # atno 6908 bound_to 6896
  150.8955  134.8388  159.7384 H   0  0  0  0  0  0  0  0  0  0  0  0  # atno 6909 bound_to 6896
  144.7151  140.1845  143.6355 H   0  0  0  0  0  0  0  0  0  0  0  0  # atno 7974 bound_to 7965
  155.9806  140.1181  157.0730 H   0  0  0  0  0  0  0  0  0  0  0  0  # atno 8008 bound_to 7997
  154.4182  140.1145  156.5498 H   0  0  0  0  0  0  0  0  0  0  0  0  # atno 8009 bound_to 7997
  155.6476  140.3473  155.4739 H   0  0  0  0  0  0  0  0  0  0  0  0  # atno 8010 bound_to 7997
  139.6137  144.0762  152.1867 H   0  0  0  0  0  0  0  0  0  0  0  0  # atno 10167 bound_to 10162
  157.1095  131.0464  151.2463 H   0  0  0  0  0  0  0  0  0  0  0  0  # atno 10718 bound_to 10713
  154.8334  135.3385  154.6668 H   0  0  0  0  0  0  0  0  0  0  0  0  # atno 10763 bound_to 10752
  153.7285  135.6953  153.4999 H   0  0  0  0  0  0  0  0  0  0  0  0  # atno 10764 bound_to 10752
  153.2329  135.4410  155.0567 H   0  0  0  0  0  0  0  0  0  0  0  0  # atno 10765 bound_to 10752
  139.9559  134.7145  156.0755 H   0  0  0  0  0  0  0  0  0  0  0  0  # atno 11005 bound_to 11000
  145.8826  139.2331  143.1596 LP  0  0  0  0  0  0  0  0  0  0  0  0  # atno 17320 bound_to 7965
  145.9980  140.8545  143.0033 LP  0  0  0  0  0  0  0  0  0  0  0  0  # atno 17321 bound_to 7965
  140.0387  144.6024  150.7429 LP  0  0  0  0  0  0  0  0  0  0  0  0  # atno 17342 bound_to 10162
  140.7337  143.2720  151.3859 LP  0  0  0  0  0  0  0  0  0  0  0  0  # atno 17343 bound_to 10162
  157.4572  130.7632  149.7203 LP  0  0  0  0  0  0  0  0  0  0  0  0  # atno 17370 bound_to 10713
  155.9854  130.3983  150.3264 LP  0  0  0  0  0  0  0  0  0  0  0  0  # atno 17371 bound_to 10713
  141.1230  133.6607  156.3264 LP  0  0  0  0  0  0  0  0  0  0  0  0  # atno 17394 bound_to 11000
  140.5611  134.5934  157.5433 LP  0  0  0  0  0  0  0  0  0  0  0  0  # atno 17395 bound_to 11000

$$$$
