AV-unprocessed.smi:2163|AV-procd|sdf|8805|dock10
  -GOLD-   2272011593D 1   1.00000     0.00000
 Structure written by MMmdl.
 43 45  0  0  0  0  0  0  0  0  1 V2000
  151.8804  139.0690  156.1384 C   0  0  0  0  0  0  0  0  0  0  0  0
  152.2626  139.9148  157.3114 C   0  0  0  0  0  0  0  0  0  0  0  0
  153.2138  139.5471  158.1703 N   0  0  0  0  0  0  0  0  0  0  0  0
  153.2288  140.5938  159.0717 C   0  0  0  0  0  0  0  0  0  0  0  0
  154.0208  140.8033  160.2234 C   0  0  0  0  0  0  0  0  0  0  0  0
  153.8529  141.9664  161.0032 C   0  0  0  0  0  0  0  0  0  0  0  0
  152.8937  142.9351  160.6433 C   0  0  0  0  0  0  0  0  0  0  0  0
  152.0944  142.7464  159.4994 C   0  0  0  0  0  0  0  0  0  0  0  0
  152.2660  141.5838  158.7245 C   0  0  0  0  0  0  0  0  0  0  0  0
  151.6597  141.1023  157.5687 N   0  0  0  0  0  0  0  0  0  0  0  0
  150.5969  141.7598  156.8188 C   0  0  0  0  0  0  0  0  0  0  0  0
  149.3518  142.0491  157.6814 C   0  0  1  0  0  0  0  0  0  0  0  0
  149.4072  143.3853  158.1404 O   0  0  0  0  0  0  0  0  0  0  0  0
  148.0495  141.8644  156.8870 C   0  0  0  0  0  0  0  0  0  0  0  0
  146.9854  142.4772  157.6041 O   0  0  0  0  0  0  0  0  0  0  0  0
  145.9576  143.0501  156.8861 C   0  0  0  0  0  0  0  0  0  0  0  0
  144.9761  143.7483  157.6196 C   0  0  0  0  0  0  0  0  0  0  0  0
  143.8915  144.3662  156.9681 C   0  0  0  0  0  0  0  0  0  0  0  0
  143.7748  144.2917  155.5667 C   0  0  0  0  0  0  0  0  0  0  0  0
  142.6148  144.9621  154.8610 C   0  0  0  0  0  0  0  0  0  0  0  0
  143.0714  145.9587  153.8810 C   0  0  0  0  0  0  0  0  0  0  0  0
  143.4312  146.7430  153.1102 N   0  0  0  0  0  0  0  0  0  0  0  0
  144.7476  143.5953  154.8233 C   0  0  0  0  0  0  0  0  0  0  0  0
  145.8325  142.9778  155.4754 C   0  0  0  0  0  0  0  0  0  0  0  0
  152.5353  138.2003  156.0633 H   0  0  0  0  0  0  0  0  0  0  0  0
  151.9636  139.6397  155.2136 H   0  0  0  0  0  0  0  0  0  0  0  0
  150.8543  138.7174  156.2469 H   0  0  0  0  0  0  0  0  0  0  0  0
  154.7585  140.0674  160.5073 H   0  0  0  0  0  0  0  0  0  0  0  0
  154.4634  142.1154  161.8816 H   0  0  0  0  0  0  0  0  0  0  0  0
  152.7722  143.8235  161.2459 H   0  0  0  0  0  0  0  0  0  0  0  0
  151.3585  143.4856  159.2203 H   0  0  0  0  0  0  0  0  0  0  0  0
  150.9762  142.6796  156.3735 H   0  0  0  0  0  0  0  0  0  0  0  0
  150.3277  141.1106  155.9848 H   0  0  0  0  0  0  0  0  0  0  0  0
  149.3515  141.3801  158.5428 H   0  0  0  0  0  0  0  0  0  0  0  0
  149.5022  143.9539  157.3915 H   0  0  0  0  0  0  0  0  0  0  0  0
  148.1484  142.2748  155.8804 H   0  0  0  0  0  0  0  0  0  0  0  0
  147.8331  140.7989  156.7937 H   0  0  0  0  0  0  0  0  0  0  0  0
  145.0567  143.8134  158.6948 H   0  0  0  0  0  0  0  0  0  0  0  0
  143.1518  144.8998  157.5470 H   0  0  0  0  0  0  0  0  0  0  0  0
  142.0125  144.2171  154.3407 H   0  0  0  0  0  0  0  0  0  0  0  0
  141.9693  145.4595  155.5851 H   0  0  0  0  0  0  0  0  0  0  0  0
  144.6652  143.5356  153.7480 H   0  0  0  0  0  0  0  0  0  0  0  0
  146.5561  142.4545  154.8693 H   0  0  0  0  0  0  0  0  0  0  0  0
  1  2  1  0  0  0  0
  1 25  1  0  0  0  0
  1 26  1  0  0  0  0
  1 27  1  0  0  0  0
  2 10  1  0  0  0  0
  2  3  2  0  0  0  0
  3  4  1  0  0  0  0
  4  9  2  0  0  0  0
  4  5  1  0  0  0  0
  5  6  2  0  0  0  0
  5 28  1  0  0  0  0
  6  7  1  0  0  0  0
  6 29  1  0  0  0  0
  7  8  2  0  0  0  0
  7 30  1  0  0  0  0
  8  9  1  0  0  0  0
  8 31  1  0  0  0  0
  9 10  1  0  0  0  0
 10 11  1  0  0  0  0
 11 12  1  0  0  0  0
 11 32  1  0  0  0  0
 11 33  1  0  0  0  0
 12 13  1  0  0  0  0
 12 14  1  0  0  0  0
 12 34  1  0  0  0  0
 13 35  1  0  0  0  0
 14 15  1  0  0  0  0
 14 36  1  0  0  0  0
 14 37  1  0  0  0  0
 15 16  1  0  0  0  0
 16 24  1  0  0  0  0
 16 17  2  0  0  0  0
 17 18  1  0  0  0  0
 17 38  1  0  0  0  0
 18 19  2  0  0  0  0
 18 39  1  0  0  0  0
 19 20  1  0  0  0  0
 19 23  1  0  0  0  0
 20 21  1  0  0  0  0
 20 40  1  0  0  0  0
 20 41  1  0  0  0  0
 21 22  3  0  0  0  0
 23 24  2  0  0  0  0
 23 42  1  0  0  0  0
 24 43  1  0  0  0  0
M  END
> <s_m_source_file>
AV-unprocessed.smi

> <i_m_source_file_index>
2163

> <i_lp_mmshare_version>
43012

> <i_f3d_flags>
0

> <s_epik_input>
W2NIXTFbY0hdW2NIXVtjSF1jKGMxMiluKGMobjIpW0NIM10pW0NIMl1bQ0BIXShbT0hdKVtDSDJdT2MzW2NIXVtjSF1jKFtDSDJdQyNOKVtjSF1bY0hdMw==

> <s_epik_cmdline>
J2VwaWtfcHl0aG9uJywgJy1waCcsICc3LjAnLCAnLXRuJywgJzgnLCAnLW1hJywgJzIwMCcsICctbWV0YWxfYmluZGluZycsICctaW1hZScsICc8aW5maWxlLm1hZT4nLCAnLW9tYWUnLCAnPG91dGZpbGUubWFlPic=

> <r_lp_tautomer_probability>
1

> <r_epik_Ionization_Penalty>
0.114213

> <r_epik_Ionization_Penalty_Charging>
0

> <r_epik_Ionization_Penalty_Neutral>
0.114213

> <r_epik_State_Penalty>
0.103875

> <r_epik_Charging_Adjusted_Penalty>
0.103875

> <i_epik_Tot_Q>
0

> <i_epik_Tot_abs_Q>
0

> <r_epik_Metal_State_Penalty>
0.000113526

> <b_epik_Metal_Only>
0

> <s_lp_Force_Field>
OPLS_2005

> <r_lp_Energy>
15.853

> <b_lp_Chiralities_Consistent>
1

> <s_lp_Variant>
AV-unprocessed.smi:2163-2

> <Gold.Version>
5.8.1

> <Gold.Id.Protein>
6NUR|6NUR_protein|mol2

> <Gold.PLP.Fitness>
47.1589

> <Gold.PLP.PLP>
-42.9226

> <Gold.PLP.part.hbond>
-4.8040

> <Gold.PLP.part.metal>
0.0000

> <Gold.PLP.part.buried>
-2.3808

> <Gold.PLP.part.nonpolar>
-35.1108

> <Gold.PLP.part.repulsive>
0.2147

> <Gold.PLP.ligand.clash>
0.0000

> <Gold.PLP.ligand.torsion>
0.8787

> <Gold.PLP.Chemscore.Hbond>
1.9500

> <Gold.PLP.Chemscore.CHOScore>
0.0000

> <Gold.PLP.Chemscore.Metal>
0.0000

> <Gold.Chemscore.Hbonds>
donor molecule, donor type, donor heavy atom, donor atom, acceptor molecule, acceptor atom, score
      L1  H    13    35       P1  8028  1.00
      P1  H  7997  8009       L1     3  0.75

> <Gold.PLP.Chemscore.Internal.Correction>
0.1437

> <Gold.Rescore>
     Score         DG    S(hbond)    S(metal)    S(lipo)     H(rot)  DE(clash)    DE(int)     intcor
     10.31     -11.39       0.22        0.00      99.19       2.51       0.29       0.79       ----

> <Gold.Chemscore.Fitness>
10.3072

> <Gold.Chemscore.DG>
-11.3944

> <Gold.Chemscore.ZeroCoef>
-5.4800

> <Gold.Chemscore.Hbond>
0.2213

> <Gold.Chemscore.Metal>
0.0000

> <Gold.Chemscore.Lipo>
99.1860

> <Gold.Chemscore.Internal_Hbond>
0.0000

> <Gold.Chemscore.DEClash>
0.2949

> <Gold.Chemscore.DEInternal>
0.7924

> <Gold.Chemscore.Rot>
2.5115

> <Gold.Chemscore.Internal.Correction>
   9.000000E+99

> <Gold.Chemscore.Hbonds>
donor molecule, donor type, donor heavy atom, donor atom, acceptor molecule, acceptor atom, score
      L1  H    13    35       P1  8028  0.38
      P1  H  7997  8009       L1     3  0.03

> <Gold.Chemscore.Hbond.Weighted>
-0.7392

> <Gold.Chemscore.Metal.Weighted>
-0.0000

> <Gold.Chemscore.Lipo.Weighted>
-11.6048

> <Gold.Chemscore.Internal_Hbond.Weighted>
0.0000

> <Gold.Chemscore.DEClash.Weighted>
0.2949

> <Gold.Chemscore.DEInternal.Weighted>
0.7924

> <Gold.Chemscore.Rot.Weighted>
6.4296

> <Gold.Chemscore.Internal.Correction.Weighted>
   9.000000E+99

> <Gold.Protein.RotatedTorsions>
[ 6907 6896 6895 6894 ] final  -52.74 input  -60.11 | X-H torsion
[ 7974 7965 7964 7962 ] final  -20.45 input  175.53 | X-H torsion
[ 8008 7997 7996 7995 ] final  152.11 input   59.86 | X-H torsion
[ 10167 10162 10161 10158 ] final  128.37 input  -65.29 | X-H torsion
[ 10718 10713 10712 10709 ] final   82.26 input   66.30 | X-H torsion
[ 10763 10752 10751 10750 ] final   24.45 input  -60.55 | X-H torsion
[ 11005 11000 10999 10996 ] final  -68.89 input  -57.11 | X-H torsion

> <Gold.Protein.ActiveResidues>
 VAL166  LYS551  ARG553  GLY616  TRP617  ASP618  TYR619  PRO620  LYS621  CYS622 
 ASP623  PHE694  ASN695  SER759  ASP760  ASP761  ALA762  ILE779  LEU786  VAL792 
 PHE793  MET794  SER795  GLU796  ALA797  LYS798  CYS799  TRP800  GLU811  SER814 

> <Gold.Protein.RotatedAtoms>
  150.8490  134.7809  159.6993 H   0  0  0  0  0  0  0  0  0  0  0  0  # atno 6907 bound_to 6896
  152.4560  134.5287  159.9814 H   0  0  0  0  0  0  0  0  0  0  0  0  # atno 6908 bound_to 6896
  151.5412  133.3394  159.2971 H   0  0  0  0  0  0  0  0  0  0  0  0  # atno 6909 bound_to 6896
  146.1788  140.4203  142.8503 H   0  0  0  0  0  0  0  0  0  0  0  0  # atno 7974 bound_to 7965
  156.2644  140.2029  156.6282 H   0  0  0  0  0  0  0  0  0  0  0  0  # atno 8008 bound_to 7997
  154.6704  140.0551  157.0183 H   0  0  0  0  0  0  0  0  0  0  0  0  # atno 8009 bound_to 7997
  155.1146  140.3219  155.4515 H   0  0  0  0  0  0  0  0  0  0  0  0  # atno 8010 bound_to 7997
  139.5531  144.6828  151.4264 H   0  0  0  0  0  0  0  0  0  0  0  0  # atno 10167 bound_to 10162
  157.6853  131.0040  150.2349 H   0  0  0  0  0  0  0  0  0  0  0  0  # atno 10718 bound_to 10713
  153.0763  135.6605  154.0139 H   0  0  0  0  0  0  0  0  0  0  0  0  # atno 10763 bound_to 10752
  153.9772  135.2958  155.3424 H   0  0  0  0  0  0  0  0  0  0  0  0  # atno 10764 bound_to 10752
  154.7152  135.5188  153.8797 H   0  0  0  0  0  0  0  0  0  0  0  0  # atno 10765 bound_to 10752
  141.1542  133.6751  156.6515 H   0  0  0  0  0  0  0  0  0  0  0  0  # atno 11005 bound_to 11000
  144.8279  140.6659  143.6310 LP  0  0  0  0  0  0  0  0  0  0  0  0  # atno 17320 bound_to 7965
  145.4137  139.1575  143.4112 LP  0  0  0  0  0  0  0  0  0  0  0  0  # atno 17321 bound_to 7965
  140.6798  143.8108  150.7106 LP  0  0  0  0  0  0  0  0  0  0  0  0  # atno 17342 bound_to 10162
  140.1558  143.4318  152.2100 LP  0  0  0  0  0  0  0  0  0  0  0  0  # atno 17343 bound_to 10162
  156.2974  130.3754  149.7783 LP  0  0  0  0  0  0  0  0  0  0  0  0  # atno 17370 bound_to 10713
  156.5423  130.8305  151.3273 LP  0  0  0  0  0  0  0  0  0  0  0  0  # atno 17371 bound_to 10713
  140.3316  134.7924  157.4331 LP  0  0  0  0  0  0  0  0  0  0  0  0  # atno 17394 bound_to 11000
  140.1012  134.5470  155.8351 LP  0  0  0  0  0  0  0  0  0  0  0  0  # atno 17395 bound_to 11000

$$$$
