AV-unprocessed.smi:2881|AV-procd|sdf|11055|dock10
  -GOLD-   2272015523D 1   1.00000     0.00000
 Structure written by MMmdl.
 40 42  0  0  0  0  0  0  0  0  1 V2000
  148.1228  125.5208  150.0601 C   0  0  0  0  0  0  0  0  0  0  0  0
  148.4306  126.4502  151.1845 C   0  0  0  0  0  0  0  0  0  0  0  0
  148.0721  127.7495  151.4083 C   0  0  0  0  0  0  0  0  0  0  0  0
  148.6805  128.0744  152.6578 C   0  0  0  0  0  0  0  0  0  0  0  0
  148.6335  129.3820  153.4023 C   0  0  0  0  0  0  0  0  0  0  0  0
  147.2776  130.0591  153.2006 C   0  0  0  0  0  0  0  0  0  0  0  0
  146.3003  129.6836  153.8477 O   0  0  0  0  0  0  0  0  0  0  0  0
  147.2354  131.0551  152.3018 N   0  0  0  0  0  0  0  0  0  0  0  0
  146.0561  131.8540  151.9776 C   0  0  2  0  0  0  0  0  0  0  0  0
  145.2793  131.2181  150.8035 C   0  0  1  0  0  0  0  0  0  0  0  0
  143.8736  131.8425  150.7438 C   0  0  0  0  0  0  0  0  0  0  0  0
  144.1619  133.2615  150.2189 C   0  0  0  0  0  0  0  0  0  0  0  0
  145.6973  133.2643  150.0536 C   0  0  2  0  0  0  0  0  0  0  0  0
  145.9431  131.8385  149.5771 C   0  0  0  0  0  0  0  0  0  0  0  0
  146.4254  133.2535  151.4193 C   0  0  1  0  0  0  0  0  0  0  0  0
  146.0821  134.4352  152.3470 C   0  0  0  0  0  0  0  0  0  0  0  0
  146.4791  135.6526  151.7540 O   0  0  0  0  0  0  0  0  0  0  0  0
  149.3663  127.0581  153.1625 N   0  0  0  0  0  0  0  0  0  0  0  0
  149.2043  126.0749  152.2581 N   0  0  0  0  0  0  0  0  0  0  0  0
  149.6242  125.1650  152.3846 H   0  0  0  0  0  0  0  0  0  0  0  0
  147.3465  125.9335  149.4156 H   0  0  0  0  0  0  0  0  0  0  0  0
  147.7727  124.5587  150.4353 H   0  0  0  0  0  0  0  0  0  0  0  0
  149.0092  125.3448  149.4502 H   0  0  0  0  0  0  0  0  0  0  0  0
  147.4631  128.3778  150.7751 H   0  0  0  0  0  0  0  0  0  0  0  0
  148.7972  129.2314  154.4705 H   0  0  0  0  0  0  0  0  0  0  0  0
  149.4321  130.0410  153.0589 H   0  0  0  0  0  0  0  0  0  0  0  0
  148.0889  131.2891  151.8159 H   0  0  0  0  0  0  0  0  0  0  0  0
  145.4076  131.9252  152.8531 H   0  0  0  0  0  0  0  0  0  0  0  0
  145.2632  130.1274  150.8192 H   0  0  0  0  0  0  0  0  0  0  0  0
  143.2358  131.2988  150.0457 H   0  0  0  0  0  0  0  0  0  0  0  0
  143.3762  131.8486  151.7144 H   0  0  0  0  0  0  0  0  0  0  0  0
  143.6758  133.4109  149.2539 H   0  0  0  0  0  0  0  0  0  0  0  0
  143.7976  134.0408  150.8872 H   0  0  0  0  0  0  0  0  0  0  0  0
  146.0600  134.0373  149.3756 H   0  0  0  0  0  0  0  0  0  0  0  0
  147.0009  131.5877  149.4812 H   0  0  0  0  0  0  0  0  0  0  0  0
  145.4345  131.5990  148.6414 H   0  0  0  0  0  0  0  0  0  0  0  0
  147.4959  133.2951  151.2063 H   0  0  0  0  0  0  0  0  0  0  0  0
  145.0075  134.4766  152.5260 H   0  0  0  0  0  0  0  0  0  0  0  0
  146.5716  134.3405  153.3162 H   0  0  0  0  0  0  0  0  0  0  0  0
  147.4139  135.7472  151.8551 H   0  0  0  0  0  0  0  0  0  0  0  0
  1  2  1  0  0  0  0
  1 21  1  0  0  0  0
  1 22  1  0  0  0  0
  1 23  1  0  0  0  0
  2 19  1  0  0  0  0
  2  3  2  0  0  0  0
  3  4  1  0  0  0  0
  3 24  1  0  0  0  0
  4  5  1  0  0  0  0
  4 18  2  0  0  0  0
  5  6  1  0  0  0  0
  5 25  1  0  0  0  0
  5 26  1  0  0  0  0
  6  7  2  0  0  0  0
  6  8  1  0  0  0  0
  8  9  1  0  0  0  0
  8 27  1  0  0  0  0
  9 15  1  0  0  0  0
  9 10  1  0  0  0  0
  9 28  1  0  0  0  0
 10 14  1  0  0  0  0
 10 11  1  0  0  0  0
 10 29  1  0  0  0  0
 11 12  1  0  0  0  0
 11 30  1  0  0  0  0
 11 31  1  0  0  0  0
 12 13  1  0  0  0  0
 12 32  1  0  0  0  0
 12 33  1  0  0  0  0
 13 14  1  0  0  0  0
 13 15  1  0  0  0  0
 13 34  1  0  0  0  0
 14 35  1  0  0  0  0
 14 36  1  0  0  0  0
 15 16  1  0  0  0  0
 15 37  1  0  0  0  0
 16 17  1  0  0  0  0
 16 38  1  0  0  0  0
 16 39  1  0  0  0  0
 17 40  1  0  0  0  0
 18 19  1  0  0  0  0
 19 20  1  0  0  0  0
M  END
> <s_m_source_file>
AV-unprocessed.smi

> <i_m_source_file_index>
2881

> <i_lp_mmshare_version>
43012

> <i_f3d_flags>
0

> <s_epik_input>
W0NIM11jMVtjSF1jKG5bbkhdMSlbQ0gyXUMoPU8pW05IXVtDQEhdKFtDQEBIXTIzKVtDQEhdKFtDSDJdW09IXSlbQ0BASF0oW0NIMl0zKVtDSDJdW0NIMl0y

> <s_epik_cmdline>
J2VwaWtfcHl0aG9uJywgJy1waCcsICc3LjAnLCAnLXRuJywgJzgnLCAnLW1hJywgJzIwMCcsICctbWV0YWxfYmluZGluZycsICctaW1hZScsICc8aW5maWxlLm1hZT4nLCAnLW9tYWUnLCAnPG91dGZpbGUubWFlPic=

> <r_lp_tautomer_probability>
0.5

> <r_epik_Ionization_Penalty>
9.4349e-05

> <r_epik_Ionization_Penalty_Charging>
0

> <r_epik_Ionization_Penalty_Neutral>
9.4349e-05

> <r_epik_State_Penalty>
0.41068

> <r_epik_Charging_Adjusted_Penalty>
0.41068

> <i_epik_Tot_Q>
0

> <i_epik_Tot_abs_Q>
0

> <r_epik_Metal_State_Penalty>
0.4107

> <b_epik_Metal_Only>
0

> <s_lp_Force_Field>
OPLS_2005

> <r_lp_Energy>
47.7549

> <b_lp_Chiralities_Consistent>
1

> <s_lp_Variant>
AV-unprocessed.smi:2881-1

> <Gold.Version>
5.8.1

> <Gold.Id.Protein>
6NUR|6NUR_protein|mol2

> <Gold.PLP.Fitness>
41.5497

> <Gold.PLP.PLP>
-38.1907

> <Gold.PLP.part.hbond>
-2.9551

> <Gold.PLP.part.metal>
0.0000

> <Gold.PLP.part.buried>
-4.5480

> <Gold.PLP.part.nonpolar>
-31.6576

> <Gold.PLP.part.repulsive>
1.6252

> <Gold.PLP.ligand.clash>
0.0000

> <Gold.PLP.ligand.torsion>
0.9870

> <Gold.PLP.Chemscore.Hbond>
1.7680

> <Gold.PLP.Chemscore.CHOScore>
0.0000

> <Gold.PLP.Chemscore.Metal>
0.0000

> <Gold.Chemscore.Hbonds>
donor molecule, donor type, donor heavy atom, donor atom, acceptor molecule, acceptor atom, score
      L1  H     8    27       P1 10747  0.80
      L1  H    17    40       P1  7948  1.00

> <Gold.PLP.Chemscore.Internal.Correction>
0.0289

> <Gold.Rescore>
     Score         DG    S(hbond)    S(metal)    S(lipo)     H(rot)  DE(clash)    DE(int)     intcor
     16.98     -18.71       1.95        0.00     107.20       2.28       0.72       1.01       ----

> <Gold.Chemscore.Fitness>
16.9793

> <Gold.Chemscore.DG>
-18.7097

> <Gold.Chemscore.ZeroCoef>
-5.4800

> <Gold.Chemscore.Hbond>
1.9500

> <Gold.Chemscore.Metal>
0.0000

> <Gold.Chemscore.Lipo>
107.1954

> <Gold.Chemscore.Internal_Hbond>
0.0000

> <Gold.Chemscore.DEClash>
0.7195

> <Gold.Chemscore.DEInternal>
1.0109

> <Gold.Chemscore.Rot>
2.2755

> <Gold.Chemscore.Internal.Correction>
   9.000000E+99

> <Gold.Chemscore.Hbonds>
donor molecule, donor type, donor heavy atom, donor atom, acceptor molecule, acceptor atom, score
      L1  H     8    27       P1 10747  0.80
      L1  H    17    40       P1  7948  0.98

> <Gold.Chemscore.Hbond.Weighted>
-6.5130

> <Gold.Chemscore.Metal.Weighted>
-0.0000

> <Gold.Chemscore.Lipo.Weighted>
-12.5419

> <Gold.Chemscore.Internal_Hbond.Weighted>
0.0000

> <Gold.Chemscore.DEClash.Weighted>
0.7195

> <Gold.Chemscore.DEInternal.Weighted>
1.0109

> <Gold.Chemscore.Rot.Weighted>
5.8252

> <Gold.Chemscore.Internal.Correction.Weighted>
   9.000000E+99

> <Gold.Protein.RotatedTorsions>
[ 6907 6896 6895 6894 ] final   80.61 input  -60.11 | X-H torsion
[ 7974 7965 7964 7962 ] final  114.87 input  175.53 | X-H torsion
[ 8008 7997 7996 7995 ] final -140.13 input   59.86 | X-H torsion
[ 10167 10162 10161 10158 ] final  -36.82 input  -65.29 | X-H torsion
[ 10718 10713 10712 10709 ] final  -52.31 input   66.30 | X-H torsion
[ 10763 10752 10751 10750 ] final  -30.73 input  -60.55 | X-H torsion
[ 11005 11000 10999 10996 ] final  -90.82 input  -57.11 | X-H torsion

> <Gold.Protein.ActiveResidues>
 VAL166  LYS551  ARG553  GLY616  TRP617  ASP618  TYR619  PRO620  LYS621  CYS622 
 ASP623  PHE694  ASN695  SER759  ASP760  ASP761  ALA762  ILE779  LEU786  VAL792 
 PHE793  MET794  SER795  GLU796  ALA797  LYS798  CYS799  TRP800  GLU811  SER814 

> <Gold.Protein.RotatedAtoms>
  152.5240  134.3332  159.9190 H   0  0  0  0  0  0  0  0  0  0  0  0  # atno 6907 bound_to 6896
  151.3281  133.4005  159.2668 H   0  0  0  0  0  0  0  0  0  0  0  0  # atno 6908 bound_to 6896
  150.9903  134.9257  159.7953 H   0  0  0  0  0  0  0  0  0  0  0  0  # atno 6909 bound_to 6896
  145.1991  139.2961  143.4328 H   0  0  0  0  0  0  0  0  0  0  0  0  # atno 7974 bound_to 7965
  155.4563  140.0542  157.2996 H   0  0  0  0  0  0  0  0  0  0  0  0  # atno 8008 bound_to 7997
  154.4756  140.2059  155.9842 H   0  0  0  0  0  0  0  0  0  0  0  0  # atno 8009 bound_to 7997
  156.1126  140.3201  155.8099 H   0  0  0  0  0  0  0  0  0  0  0  0  # atno 8010 bound_to 7997
  140.7133  143.3383  151.2414 H   0  0  0  0  0  0  0  0  0  0  0  0  # atno 10167 bound_to 10162
  156.1632  130.4149  149.9760 H   0  0  0  0  0  0  0  0  0  0  0  0  # atno 10718 bound_to 10713
  153.7857  135.6901  153.4880 H   0  0  0  0  0  0  0  0  0  0  0  0  # atno 10763 bound_to 10752
  153.1782  135.4516  154.9992 H   0  0  0  0  0  0  0  0  0  0  0  0  # atno 10764 bound_to 10752
  154.8064  135.3359  154.7357 H   0  0  0  0  0  0  0  0  0  0  0  0  # atno 10765 bound_to 10752
  141.1558  133.7716  156.9792 H   0  0  0  0  0  0  0  0  0  0  0  0  # atno 11005 bound_to 11000
  146.3421  140.2229  142.8592 LP  0  0  0  0  0  0  0  0  0  0  0  0  # atno 17320 bound_to 7965
  144.9966  140.8594  143.5307 LP  0  0  0  0  0  0  0  0  0  0  0  0  # atno 17321 bound_to 7965
  139.6884  143.9734  152.2846 LP  0  0  0  0  0  0  0  0  0  0  0  0  # atno 17342 bound_to 10162
  139.9387  144.6695  150.8288 LP  0  0  0  0  0  0  0  0  0  0  0  0  # atno 17343 bound_to 10162
  156.7583  130.9141  151.3640 LP  0  0  0  0  0  0  0  0  0  0  0  0  # atno 17370 bound_to 10713
  157.6748  130.9085  150.0125 LP  0  0  0  0  0  0  0  0  0  0  0  0  # atno 17371 bound_to 10713
  140.1077  134.9496  157.2019 LP  0  0  0  0  0  0  0  0  0  0  0  0  # atno 17394 bound_to 11000
  140.3234  134.2890  155.7241 LP  0  0  0  0  0  0  0  0  0  0  0  0  # atno 17395 bound_to 11000

$$$$
