AV-unprocessed.smi:1703|AV-procd|sdf|6876|dock10
  -GOLD-   22720 8 83D 1   1.00000     0.00000
 Structure written by MMmdl.
 50 52  0  0  0  0  0  0  0  0  3 V2000
  147.6497  135.9666  162.2980 C   0  0  0  0  0  0  0  0  0  0  0  0
  147.5749  136.5491  160.8826 C   0  0  1  0  0  0  0  0  0  0  0  0
  148.7863  136.1287  160.0227 C   0  0  0  0  0  0  0  0  0  0  0  0
  148.6532  136.5959  158.6180 N   0  3  2  0  0  0  0  0  0  0  0  0
  148.9401  138.0410  158.4089 C   0  0  0  0  0  0  0  0  0  0  0  0
  150.4391  138.3327  158.1697 C   0  0  1  0  0  0  0  0  0  0  0  0
  151.1699  137.1279  158.2729 O   0  0  0  0  0  0  0  0  0  0  0  0
  150.7357  138.9377  156.7828 C   0  0  0  0  0  0  0  0  0  0  0  0
  150.6202  140.4069  156.7599 N   0  0  0  0  0  0  0  0  0  0  0  0
  149.8791  141.2132  155.9444 C   0  0  0  0  0  0  0  0  0  0  0  0
  148.9881  140.7893  154.8238 C   0  0  0  0  0  0  0  0  0  0  0  0
  149.5482  141.0741  153.5601 O   0  0  0  0  0  0  0  0  0  0  0  0
  150.1166  142.5001  156.3230 N   0  3  0  0  0  0  0  0  0  0  0  0
  151.0154  142.5219  157.3891 C   0  0  0  0  0  0  0  0  0  0  0  0
  151.5515  143.5897  158.1023 C   0  0  0  0  0  0  0  0  0  0  0  0
  152.4538  143.2701  159.1374 C   0  0  0  0  0  0  0  0  0  0  0  0
  152.7931  141.9330  159.4270 C   0  0  0  0  0  0  0  0  0  0  0  0
  152.2433  140.8587  158.6968 C   0  0  0  0  0  0  0  0  0  0  0  0
  151.3466  141.1810  157.6763 C   0  0  0  0  0  0  0  0  0  0  0  0
  147.3481  136.1676  158.0585 C   0  0  0  0  0  0  0  0  0  0  0  0
  146.1783  136.6074  158.9637 C   0  0  1  0  0  0  0  0  0  0  0  0
  144.8277  136.1005  158.4471 C   0  0  0  0  0  0  0  0  0  0  0  0
  146.3800  136.0768  160.2695 O   0  0  0  0  0  0  0  0  0  0  0  0
  148.5456  136.3103  162.8160 H   0  0  0  0  0  0  0  0  0  0  0  0
  147.6721  134.8766  162.2770 H   0  0  0  0  0  0  0  0  0  0  0  0
  146.7867  136.2704  162.8908 H   0  0  0  0  0  0  0  0  0  0  0  0
  147.5275  137.6354  160.9694 H   0  0  0  0  0  0  0  0  0  0  0  0
  149.7137  136.4785  160.4731 H   0  0  0  0  0  0  0  0  0  0  0  0
  148.8540  135.0401  160.0065 H   0  0  0  0  0  0  0  0  0  0  0  0
  148.3775  138.4097  157.5496 H   0  0  0  0  0  0  0  0  0  0  0  0
  148.5679  138.6006  159.2652 H   0  0  0  0  0  0  0  0  0  0  0  0
  150.8243  139.0176  158.9227 H   0  0  0  0  0  0  0  0  0  0  0  0
  151.9189  137.1705  157.6983 H   0  0  0  0  0  0  0  0  0  0  0  0
  151.7523  138.6889  156.4759 H   0  0  0  0  0  0  0  0  0  0  0  0
  150.0841  138.5052  156.0249 H   0  0  0  0  0  0  0  0  0  0  0  0
  148.7856  139.7205  154.8940 H   0  0  0  0  0  0  0  0  0  0  0  0
  148.0299  141.3022  154.9118 H   0  0  0  0  0  0  0  0  0  0  0  0
  149.4433  140.3138  153.0076 H   0  0  0  0  0  0  0  0  0  0  0  0
  151.2947  144.6155  157.8809 H   0  0  0  0  0  0  0  0  0  0  0  0
  152.8949  144.0664  159.7199 H   0  0  0  0  0  0  0  0  0  0  0  0
  153.4892  141.7268  160.2275 H   0  0  0  0  0  0  0  0  0  0  0  0
  152.5177  139.8419  158.9338 H   0  0  0  0  0  0  0  0  0  0  0  0
  147.2233  136.5497  157.0445 H   0  0  0  0  0  0  0  0  0  0  0  0
  147.3544  135.0799  157.9746 H   0  0  0  0  0  0  0  0  0  0  0  0
  146.1354  137.6963  159.0201 H   0  0  0  0  0  0  0  0  0  0  0  0
  144.6188  136.4862  157.4490 H   0  0  0  0  0  0  0  0  0  0  0  0
  144.0158  136.4181  159.1019 H   0  0  0  0  0  0  0  0  0  0  0  0
  144.8069  135.0116  158.3964 H   0  0  0  0  0  0  0  0  0  0  0  0
  149.3554  136.1070  158.0814 H   0  0  0  0  0  0  0  0  0  0  0  0
  149.6934  143.3054  155.8793 H   0  0  0  0  0  0  0  0  0  0  0  0
  1  2  1  0  0  0  0
  1 24  1  0  0  0  0
  1 25  1  0  0  0  0
  1 26  1  0  0  0  0
  2 23  1  0  0  0  0
  2  3  1  0  0  0  0
  2 27  1  0  0  0  0
  3  4  1  0  0  0  0
  3 28  1  0  0  0  0
  3 29  1  0  0  0  0
  4  5  1  0  0  0  0
  4 20  1  0  0  0  0
  4 49  1  0  0  0  0
  5  6  1  0  0  0  0
  5 30  1  0  0  0  0
  5 31  1  0  0  0  0
  6  7  1  0  0  0  0
  6  8  1  0  0  0  0
  6 32  1  0  0  0  0
  7 33  1  0  0  0  0
  8  9  1  0  0  0  0
  8 34  1  0  0  0  0
  8 35  1  0  0  0  0
  9 19  1  0  0  0  0
  9 10  1  0  0  0  0
 10 11  1  0  0  0  0
 10 13  2  0  0  0  0
 11 12  1  0  0  0  0
 11 36  1  0  0  0  0
 11 37  1  0  0  0  0
 12 38  1  0  0  0  0
 13 14  1  0  0  0  0
 13 50  1  0  0  0  0
 14 19  2  0  0  0  0
 14 15  1  0  0  0  0
 15 16  2  0  0  0  0
 15 39  1  0  0  0  0
 16 17  1  0  0  0  0
 16 40  1  0  0  0  0
 17 18  2  0  0  0  0
 17 41  1  0  0  0  0
 18 19  1  0  0  0  0
 18 42  1  0  0  0  0
 20 21  1  0  0  0  0
 20 43  1  0  0  0  0
 20 44  1  0  0  0  0
 21 22  1  0  0  0  0
 21 23  1  0  0  0  0
 21 45  1  0  0  0  0
 22 46  1  0  0  0  0
 22 47  1  0  0  0  0
 22 48  1  0  0  0  0
M  CHG  1   4   1
M  CHG  1  13   1
M  END
> <s_m_source_file>
AV-unprocessed.smi

> <i_m_source_file_index>
1703

> <i_lp_mmshare_version>
43012

> <i_f3d_flags>
0

> <s_epik_input>
W0NIM11bQ0BASF0xW0NIMl1OKFtDSDJdW0NASF0oTzEpW0NIM10pW0NIMl1bQ0BIXShbT0hdKVtDSDJdbihjKG4yKVtDSDJdW09IXSljKGMyMylbY0hdW2NIXVtjSF1bY0hdMw==

> <s_epik_cmdline>
J2VwaWtfcHl0aG9uJywgJy1waCcsICc3LjAnLCAnLXRuJywgJzgnLCAnLW1hJywgJzIwMCcsICctbWV0YWxfYmluZGluZycsICctaW1hZScsICc8aW5maWxlLm1hZT4nLCAnLW9tYWUnLCAnPG91dGZpbGUubWFlPic=

> <r_epik_Ionization_Penalty>
2.22579

> <r_epik_Ionization_Penalty_Charging>
2.22492

> <r_epik_Ionization_Penalty_Neutral>
0.000870007

> <r_epik_State_Penalty>
2.3141

> <r_epik_Charging_Adjusted_Penalty>
4.53902

> <i_epik_Tot_Q>
2

> <i_epik_Tot_abs_Q>
2

> <r_epik_Metal_State_Penalty>
6.36517

> <b_epik_Metal_Only>
0

> <s_lp_Force_Field>
OPLS_2005

> <r_lp_Energy>
31.3011

> <b_lp_Chiralities_Consistent>
1

> <s_lp_Variant>
AV-unprocessed.smi:1703-24

> <Gold.Version>
5.8.1

> <Gold.Id.Protein>
6NUR|6NUR_protein|mol2

> <Gold.PLP.Fitness>
47.8535

> <Gold.PLP.PLP>
-39.7164

> <Gold.PLP.part.hbond>
-4.0000

> <Gold.PLP.part.metal>
0.0000

> <Gold.PLP.part.buried>
-5.8891

> <Gold.PLP.part.nonpolar>
-30.7288

> <Gold.PLP.part.repulsive>
0.2154

> <Gold.PLP.ligand.clash>
0.0000

> <Gold.PLP.ligand.torsion>
1.6438

> <Gold.PLP.Chemscore.Hbond>
3.7858

> <Gold.PLP.Chemscore.CHOScore>
0.0000

> <Gold.PLP.Chemscore.Metal>
0.0000

> <Gold.Chemscore.Hbonds>
donor molecule, donor type, donor heavy atom, donor atom, acceptor molecule, acceptor atom, score
      L1  H    12    38       P1  7957  0.66
      L1  H    13    50       P1  8028  2.00
      P1  H  7989  7998       L1    12  0.13
      P1  H  8011  8017       L1    12  1.00

> <Gold.PLP.Chemscore.Internal.Correction>
0.0673

> <Gold.Rescore>
     Score         DG    S(hbond)    S(metal)    S(lipo)     H(rot)  DE(clash)    DE(int)     intcor
     15.54     -17.13       2.37        0.00      98.39       3.04       0.00       1.58       ----

> <Gold.Chemscore.Fitness>
15.5435

> <Gold.Chemscore.DG>
-17.1253

> <Gold.Chemscore.ZeroCoef>
-5.4800

> <Gold.Chemscore.Hbond>
2.3682

> <Gold.Chemscore.Metal>
0.0000

> <Gold.Chemscore.Lipo>
98.3937

> <Gold.Chemscore.Internal_Hbond>
0.0000

> <Gold.Chemscore.DEClash>
0.0048

> <Gold.Chemscore.DEInternal>
1.5769

> <Gold.Chemscore.Rot>
3.0378

> <Gold.Chemscore.Internal.Correction>
   9.000000E+99

> <Gold.Chemscore.Hbonds>
donor molecule, donor type, donor heavy atom, donor atom, acceptor molecule, acceptor atom, score
      L1  H    12    38       P1  7957  0.66
      L1  H    13    50       P1  8028  0.99
      P1  H  7989  7998       L1    12  0.01
      P1  H  8011  8017       L1    12  0.33

> <Gold.Chemscore.Hbond.Weighted>
-7.9099

> <Gold.Chemscore.Metal.Weighted>
-0.0000

> <Gold.Chemscore.Lipo.Weighted>
-11.5121

> <Gold.Chemscore.Internal_Hbond.Weighted>
0.0000

> <Gold.Chemscore.DEClash.Weighted>
0.0048

> <Gold.Chemscore.DEInternal.Weighted>
1.5769

> <Gold.Chemscore.Rot.Weighted>
7.7767

> <Gold.Chemscore.Internal.Correction.Weighted>
   9.000000E+99

> <Gold.Protein.RotatedTorsions>
[ 6907 6896 6895 6894 ] final  173.33 input  -60.11 | X-H torsion
[ 7974 7965 7964 7962 ] final -131.22 input  175.53 | X-H torsion
[ 8008 7997 7996 7995 ] final   96.45 input   59.86 | X-H torsion
[ 10167 10162 10161 10158 ] final  -45.21 input  -65.29 | X-H torsion
[ 10718 10713 10712 10709 ] final -127.45 input   66.30 | X-H torsion
[ 10763 10752 10751 10750 ] final  148.85 input  -60.55 | X-H torsion
[ 11005 11000 10999 10996 ] final  -34.54 input  -57.11 | X-H torsion

> <Gold.Protein.ActiveResidues>
 VAL166  LYS551  ARG553  GLY616  TRP617  ASP618  TYR619  PRO620  LYS621  CYS622 
 ASP623  PHE694  ASN695  SER759  ASP760  ASP761  ALA762  ILE779  LEU786  VAL792 
 PHE793  MET794  SER795  GLU796  ALA797  LYS798  CYS799  TRP800  GLU811  SER814 

> <Gold.Protein.RotatedAtoms>
  151.7701  133.3340  159.3441 H   0  0  0  0  0  0  0  0  0  0  0  0  # atno 6907 bound_to 6896
  150.7465  134.6026  159.6054 H   0  0  0  0  0  0  0  0  0  0  0  0  # atno 6908 bound_to 6896
  152.3347  134.7215  160.0331 H   0  0  0  0  0  0  0  0  0  0  0  0  # atno 6909 bound_to 6896
  144.9400  140.7227  143.4852 H   0  0  0  0  0  0  0  0  0  0  0  0  # atno 7974 bound_to 7965
  156.0797  140.3272  155.7679 H   0  0  0  0  0  0  0  0  0  0  0  0  # atno 8008 bound_to 7997
  155.5172  140.0582  157.2930 H   0  0  0  0  0  0  0  0  0  0  0  0  # atno 8009 bound_to 7997
  154.4575  140.1950  156.0354 H   0  0  0  0  0  0  0  0  0  0  0  0  # atno 8010 bound_to 7997
  140.6867  143.2891  151.3606 H   0  0  0  0  0  0  0  0  0  0  0  0  # atno 10167 bound_to 10162
  156.1858  130.6762  151.0362 H   0  0  0  0  0  0  0  0  0  0  0  0  # atno 10718 bound_to 10713
  154.0615  135.2873  155.3324 H   0  0  0  0  0  0  0  0  0  0  0  0  # atno 10763 bound_to 10752
  154.6805  135.5265  153.8260 H   0  0  0  0  0  0  0  0  0  0  0  0  # atno 10764 bound_to 10752
  153.0520  135.6580  154.0804 H   0  0  0  0  0  0  0  0  0  0  0  0  # atno 10765 bound_to 10752
  140.9724  133.7102  156.1546 H   0  0  0  0  0  0  0  0  0  0  0  0  # atno 11005 bound_to 11000
  145.3006  139.1852  143.4691 LP  0  0  0  0  0  0  0  0  0  0  0  0  # atno 17320 bound_to 7965
  146.3282  140.2997  142.8620 LP  0  0  0  0  0  0  0  0  0  0  0  0  # atno 17321 bound_to 7965
  139.6231  144.0867  152.2410 LP  0  0  0  0  0  0  0  0  0  0  0  0  # atno 17342 bound_to 10162
  140.0318  144.6075  150.7482 LP  0  0  0  0  0  0  0  0  0  0  0  0  # atno 17343 bound_to 10162
  157.6898  131.0813  150.7141 LP  0  0  0  0  0  0  0  0  0  0  0  0  # atno 17370 bound_to 10713
  156.7198  130.4677  149.5526 LP  0  0  0  0  0  0  0  0  0  0  0  0  # atno 17371 bound_to 10713
  140.7309  134.4256  157.5566 LP  0  0  0  0  0  0  0  0  0  0  0  0  # atno 17394 bound_to 11000
  139.8917  134.8772  156.2305 LP  0  0  0  0  0  0  0  0  0  0  0  0  # atno 17395 bound_to 11000

$$$$
