AV-unprocessed.smi:1560|AV-procd|sdf|6277|dock4
  -GOLD-   22720 6473D 1   1.00000     0.00000
 Structure written by MMmdl.
 48 49  0  0  0  0  0  0  0  0  2 V2000
  145.7594  133.2150  150.4544 C   0  0  0  0  0  0  0  0  0  0  0  0
  145.6469  134.6169  151.0800 C   0  0  0  0  0  0  0  0  0  0  0  0
  146.1793  134.7504  152.5408 C   0  0  1  0  0  0  0  0  0  0  0  0
  145.0226  134.3377  153.4895 C   0  0  0  0  0  0  0  0  0  0  0  0
  147.3818  133.7788  152.7615 C   0  0  0  0  0  0  0  0  0  0  0  0
  146.9745  132.4104  153.0768 N   0  0  0  0  0  0  0  0  0  0  0  0
  147.7783  131.4397  153.5369 C   0  0  0  0  0  0  0  0  0  0  0  0
  148.9702  131.6133  153.7939 O   0  0  0  0  0  0  0  0  0  0  0  0
  147.1340  130.0617  153.7357 C   0  0  0  0  0  0  0  0  0  0  0  0
  147.7077  129.0446  152.8432 N   0  0  0  0  0  0  0  0  0  0  0  0
  146.9610  128.5277  151.7938 C   0  0  0  0  0  0  0  0  0  0  0  0
  147.4272  127.5849  150.9410 C   0  0  0  0  0  0  0  0  0  0  0  0
  148.7776  127.0534  151.0930 C   0  0  0  0  0  0  0  0  0  0  0  0
  149.2891  126.2000  150.3716 O   0  0  0  0  0  0  0  0  0  0  0  0
  149.4965  127.5965  152.1612 N   0  0  0  0  0  0  0  0  0  0  0  0
  149.0222  128.5677  153.0443 C   0  0  0  0  0  0  0  0  0  0  0  0
  149.7389  128.9766  153.9576 O   0  0  0  0  0  0  0  0  0  0  0  0
  146.5922  136.1769  152.8072 N   0  3  0  0  0  0  0  0  0  0  0  0
  145.8874  137.2236  152.0138 C   0  0  0  0  0  0  0  0  0  0  0  0
  146.5379  138.5994  152.2379 C   0  0  0  0  0  0  0  0  0  0  0  0
  146.5293  138.9185  153.6223 O   0  0  0  0  0  0  0  0  0  0  0  0
  147.2722  137.9767  154.3832 C   0  0  0  0  0  0  0  0  0  0  0  0
  146.6348  136.5854  154.2402 C   0  0  0  0  0  0  0  0  0  0  0  0
  150.4363  127.2572  152.3065 H   0  0  0  0  0  0  0  0  0  0  0  0
  145.3675  133.2220  149.4370 H   0  0  0  0  0  0  0  0  0  0  0  0
  145.1919  132.4713  151.0136 H   0  0  0  0  0  0  0  0  0  0  0  0
  146.7940  132.8781  150.3980 H   0  0  0  0  0  0  0  0  0  0  0  0
  146.1890  135.3022  150.4284 H   0  0  0  0  0  0  0  0  0  0  0  0
  144.6111  134.9500  151.0189 H   0  0  0  0  0  0  0  0  0  0  0  0
  144.5522  133.4066  153.1712 H   0  0  0  0  0  0  0  0  0  0  0  0
  144.2393  135.0951  153.5282 H   0  0  0  0  0  0  0  0  0  0  0  0
  145.3691  134.1703  154.5097 H   0  0  0  0  0  0  0  0  0  0  0  0
  148.0443  133.7686  151.8956 H   0  0  0  0  0  0  0  0  0  0  0  0
  147.9934  134.1154  153.5977 H   0  0  0  0  0  0  0  0  0  0  0  0
  146.0080  132.1741  152.9027 H   0  0  0  0  0  0  0  0  0  0  0  0
  147.2634  129.7755  154.7805 H   0  0  0  0  0  0  0  0  0  0  0  0
  146.0540  130.1192  153.5833 H   0  0  0  0  0  0  0  0  0  0  0  0
  145.9531  128.8886  151.6442 H   0  0  0  0  0  0  0  0  0  0  0  0
  146.7970  127.2210  150.1425 H   0  0  0  0  0  0  0  0  0  0  0  0
  145.9246  137.0143  150.9464 H   0  0  0  0  0  0  0  0  0  0  0  0
  144.8358  137.2678  152.2980 H   0  0  0  0  0  0  0  0  0  0  0  0
  147.5598  138.6136  151.8554 H   0  0  0  0  0  0  0  0  0  0  0  0
  145.9858  139.3678  151.6964 H   0  0  0  0  0  0  0  0  0  0  0  0
  148.3145  137.9651  154.0603 H   0  0  0  0  0  0  0  0  0  0  0  0
  147.2661  138.2868  155.4283 H   0  0  0  0  0  0  0  0  0  0  0  0
  145.6282  136.6129  154.6575 H   0  0  0  0  0  0  0  0  0  0  0  0
  147.2124  135.8861  154.8411 H   0  0  0  0  0  0  0  0  0  0  0  0
  147.5520  136.2180  152.4945 H   0  0  0  0  0  0  0  0  0  0  0  0
  1  2  1  0  0  0  0
  1 25  1  0  0  0  0
  1 26  1  0  0  0  0
  1 27  1  0  0  0  0
  2  3  1  0  0  0  0
  2 28  1  0  0  0  0
  2 29  1  0  0  0  0
  3  4  1  0  0  0  0
  3  5  1  0  0  0  0
  3 18  1  0  0  0  0
  4 30  1  0  0  0  0
  4 31  1  0  0  0  0
  4 32  1  0  0  0  0
  5  6  1  0  0  0  0
  5 33  1  0  0  0  0
  5 34  1  0  0  0  0
  6  7  1  0  0  0  0
  6 35  1  0  0  0  0
  7  8  2  0  0  0  0
  7  9  1  0  0  0  0
  9 10  1  0  0  0  0
  9 36  1  0  0  0  0
  9 37  1  0  0  0  0
 10 16  1  0  0  0  0
 10 11  1  0  0  0  0
 11 12  2  0  0  0  0
 11 38  1  0  0  0  0
 12 13  1  0  0  0  0
 12 39  1  0  0  0  0
 13 14  2  0  0  0  0
 13 15  1  0  0  0  0
 15 24  1  0  0  0  0
 15 16  1  0  0  0  0
 16 17  2  0  0  0  0
 18 23  1  0  0  0  0
 18 19  1  0  0  0  0
 18 48  1  0  0  0  0
 19 20  1  0  0  0  0
 19 40  1  0  0  0  0
 19 41  1  0  0  0  0
 20 21  1  0  0  0  0
 20 42  1  0  0  0  0
 20 43  1  0  0  0  0
 21 22  1  0  0  0  0
 22 23  1  0  0  0  0
 22 44  1  0  0  0  0
 22 45  1  0  0  0  0
 23 46  1  0  0  0  0
 23 47  1  0  0  0  0
M  CHG  1  18   1
M  END
> <s_m_source_file>
AV-unprocessed.smi

> <i_m_source_file_index>
1560

> <i_lp_mmshare_version>
43012

> <i_f3d_flags>
0

> <s_epik_input>
W0NIMl0xW0NIMl1PW0NIMl1bQ0gyXU4xW0NAQF0oW0NIM10pKFtDSDJdW0NIM10pW0NIMl1bTkhdQyg9TylbQ0gyXW4yW2NIXVtjSF1jKD1PKVtuSF1jMj1P

> <s_epik_cmdline>
J2VwaWtfcHl0aG9uJywgJy1waCcsICc3LjAnLCAnLXRuJywgJzgnLCAnLW1hJywgJzIwMCcsICctbWV0YWxfYmluZGluZycsICctaW1hZScsICc8aW5maWxlLm1hZT4nLCAnLW9tYWUnLCAnPG91dGZpbGUubWFlPic=

> <r_lp_tautomer_probability>
0.999537

> <r_epik_Ionization_Penalty>
0.523885

> <r_epik_Ionization_Penalty_Charging>
0.523885

> <r_epik_Ionization_Penalty_Neutral>
8.70177e-08

> <r_epik_State_Penalty>
0.572334

> <r_epik_Charging_Adjusted_Penalty>
1.09622

> <i_epik_Tot_Q>
1

> <i_epik_Tot_abs_Q>
1

> <r_epik_Metal_State_Penalty>
0.938906

> <b_epik_Metal_Only>
0

> <s_lp_Force_Field>
OPLS_2005

> <r_lp_Energy>
27.5913

> <b_lp_Chiralities_Consistent>
1

> <s_lp_Variant>
AV-unprocessed.smi:1560-3

> <Gold.Version>
5.8.1

> <Gold.Id.Protein>
6NUR|6NUR_protein|mol2

> <Gold.PLP.Fitness>
39.8728

> <Gold.PLP.PLP>
-35.0814

> <Gold.PLP.part.hbond>
-2.0000

> <Gold.PLP.part.metal>
0.0000

> <Gold.PLP.part.buried>
-4.6151

> <Gold.PLP.part.nonpolar>
-29.3994

> <Gold.PLP.part.repulsive>
0.7390

> <Gold.PLP.ligand.clash>
0.0000

> <Gold.PLP.ligand.torsion>
1.9357

> <Gold.PLP.Chemscore.Hbond>
2.7840

> <Gold.PLP.Chemscore.CHOScore>
0.0000

> <Gold.PLP.Chemscore.Metal>
0.0000

> <Gold.Chemscore.Hbonds>
donor molecule, donor type, donor heavy atom, donor atom, acceptor molecule, acceptor atom, score
      L1  H    15    24       P1 10737  0.70
      L1  H    18    48       P1  7948  1.98

> <Gold.PLP.Chemscore.Internal.Correction>
0.3108

> <Gold.Rescore>
     Score         DG    S(hbond)    S(metal)    S(lipo)     H(rot)  DE(clash)    DE(int)     intcor
      8.86     -12.97       1.94        0.00      64.65       2.56       0.10       4.00       ----

> <Gold.Chemscore.Fitness>
8.8641

> <Gold.Chemscore.DG>
-12.9707

> <Gold.Chemscore.ZeroCoef>
-5.4800

> <Gold.Chemscore.Hbond>
1.9428

> <Gold.Chemscore.Metal>
0.0000

> <Gold.Chemscore.Lipo>
64.6516

> <Gold.Chemscore.Internal_Hbond>
0.0000

> <Gold.Chemscore.DEClash>
0.1022

> <Gold.Chemscore.DEInternal>
4.0045

> <Gold.Chemscore.Rot>
2.5634

> <Gold.Chemscore.Internal.Correction>
   9.000000E+99

> <Gold.Chemscore.Hbonds>
donor molecule, donor type, donor heavy atom, donor atom, acceptor molecule, acceptor atom, score
      L1  H    15    24       P1 10737  0.70
      L1  H    18    48       P1  7948  0.92

> <Gold.Chemscore.Hbond.Weighted>
-6.4889

> <Gold.Chemscore.Metal.Weighted>
-0.0000

> <Gold.Chemscore.Lipo.Weighted>
-7.5642

> <Gold.Chemscore.Internal_Hbond.Weighted>
0.0000

> <Gold.Chemscore.DEClash.Weighted>
0.1022

> <Gold.Chemscore.DEInternal.Weighted>
4.0045

> <Gold.Chemscore.Rot.Weighted>
6.5624

> <Gold.Chemscore.Internal.Correction.Weighted>
   9.000000E+99

> <Gold.Protein.RotatedTorsions>
[ 6907 6896 6895 6894 ] final   26.60 input  -60.11 | X-H torsion
[ 7974 7965 7964 7962 ] final -102.07 input  175.53 | X-H torsion
[ 8008 7997 7996 7995 ] final  -18.36 input   59.86 | X-H torsion
[ 10167 10162 10161 10158 ] final   13.29 input  -65.29 | X-H torsion
[ 10718 10713 10712 10709 ] final   -7.17 input   66.30 | X-H torsion
[ 10763 10752 10751 10750 ] final  -25.99 input  -60.55 | X-H torsion
[ 11005 11000 10999 10996 ] final    0.64 input  -57.11 | X-H torsion

> <Gold.Protein.ActiveResidues>
 VAL166  LYS551  ARG553  GLY616  TRP617  ASP618  TYR619  PRO620  LYS621  CYS622 
 ASP623  PHE694  ASN695  SER759  ASP760  ASP761  ALA762  ILE779  LEU786  VAL792 
 PHE793  MET794  SER795  GLU796  ALA797  LYS798  CYS799  TRP800  GLU811  SER814 

> <Gold.Protein.RotatedAtoms>
  151.9898  134.9985  160.0560 H   0  0  0  0  0  0  0  0  0  0  0  0  # atno 6907 bound_to 6896
  152.1619  133.4582  159.4873 H   0  0  0  0  0  0  0  0  0  0  0  0  # atno 6908 bound_to 6896
  150.6889  134.1979  159.4353 H   0  0  0  0  0  0  0  0  0  0  0  0  # atno 6909 bound_to 6896
  145.2735  140.9305  143.2973 H   0  0  0  0  0  0  0  0  0  0  0  0  # atno 7974 bound_to 7965
  154.4912  140.2118  155.9545 H   0  0  0  0  0  0  0  0  0  0  0  0  # atno 8008 bound_to 7997
  156.1308  140.3197  155.8314 H   0  0  0  0  0  0  0  0  0  0  0  0  # atno 8009 bound_to 7997
  155.4301  140.0503  157.3010 H   0  0  0  0  0  0  0  0  0  0  0  0  # atno 8010 bound_to 7997
  140.6012  143.8600  150.6967 H   0  0  0  0  0  0  0  0  0  0  0  0  # atno 10167 bound_to 10162
  156.7212  130.5151  149.5868 H   0  0  0  0  0  0  0  0  0  0  0  0  # atno 10718 bound_to 10713
  153.7087  135.6952  153.5043 H   0  0  0  0  0  0  0  0  0  0  0  0  # atno 10763 bound_to 10752
  153.2289  135.4344  155.0572 H   0  0  0  0  0  0  0  0  0  0  0  0  # atno 10764 bound_to 10752
  154.8322  135.3479  154.6624 H   0  0  0  0  0  0  0  0  0  0  0  0  # atno 10765 bound_to 10752
  140.6243  133.9633  155.8241 H   0  0  0  0  0  0  0  0  0  0  0  0  # atno 11005 bound_to 11000
  144.9314  139.4294  143.6493 LP  0  0  0  0  0  0  0  0  0  0  0  0  # atno 17320 bound_to 7965
  146.3239  139.8228  142.8923 LP  0  0  0  0  0  0  0  0  0  0  0  0  # atno 17321 bound_to 7965
  140.2146  143.3856  152.1691 LP  0  0  0  0  0  0  0  0  0  0  0  0  # atno 17342 bound_to 10162
  139.5293  144.7140  151.5115 LP  0  0  0  0  0  0  0  0  0  0  0  0  # atno 17343 bound_to 10162
  156.1593  130.6363  151.0698 LP  0  0  0  0  0  0  0  0  0  0  0  0  # atno 17370 bound_to 10713
  157.6897  131.0814  150.7142 LP  0  0  0  0  0  0  0  0  0  0  0  0  # atno 17371 bound_to 10713
  141.0720  134.0191  157.3512 LP  0  0  0  0  0  0  0  0  0  0  0  0  # atno 17394 bound_to 11000
  139.9141  135.0194  156.7811 LP  0  0  0  0  0  0  0  0  0  0  0  0  # atno 17395 bound_to 11000

$$$$
