AV-unprocessed.smi:630|AV-procd|sdf|3120|dock2
  -GOLD-   22720 0 43D 1   1.00000     0.00000
 Structure written by MMmdl.
 37 38  0  0  0  0  0  0  0  0  1 V2000
  149.7638  138.7050  153.3042 N   0  0  0  0  0  0  0  0  0  0  0  0
  150.3970  138.8127  154.4753 C   0  0  0  0  0  0  0  0  0  0  0  0
  151.0110  139.8297  154.7915 O   0  0  0  0  0  0  0  0  0  0  0  0
  150.3300  137.6034  155.4282 C   0  0  1  0  0  0  0  0  0  0  0  0
  151.2187  137.8479  156.6736 C   0  0  0  0  0  0  0  0  0  0  0  0
  150.5486  138.5514  157.8662 C   0  0  0  0  0  0  0  0  0  0  0  0
  149.8500  137.5643  158.8145 C   0  0  0  0  0  0  0  0  0  0  0  0
  148.5438  136.9703  158.2698 C   0  0  0  0  0  0  0  0  0  0  0  0
  148.6646  136.2473  156.9157 C   0  0  0  0  0  0  0  0  0  0  0  0
  148.8526  137.2118  155.7242 C   0  0  2  0  0  0  0  0  0  0  0  0
  148.2677  136.6072  154.5231 N   0  0  0  0  0  0  0  0  0  0  0  0
  147.0170  136.1361  154.4002 C   0  0  0  0  0  0  0  0  0  0  0  0
  146.1886  136.1481  155.3108 O   0  0  0  0  0  0  0  0  0  0  0  0
  146.7999  135.6609  153.1613 N   0  0  0  0  0  0  0  0  0  0  0  0
  145.6095  135.0951  152.6335 C   0  0  0  0  0  0  0  0  0  0  0  0
  144.6286  134.5702  153.3769 N   0  0  0  0  0  0  0  0  0  0  0  0
  143.5774  134.0872  152.5934 C   0  0  0  0  0  0  0  0  0  0  0  0
  143.7759  134.2543  151.2455 C   0  0  0  0  0  0  0  0  0  0  0  0
  145.2999  135.0299  150.9046 S   0  0  0  0  0  0  0  0  0  0  0  0
  149.7840  139.4765  152.6532 H   0  0  0  0  0  0  0  0  0  0  0  0
  149.2678  137.8567  153.0735 H   0  0  0  0  0  0  0  0  0  0  0  0
  150.7915  136.7624  154.9061 H   0  0  0  0  0  0  0  0  0  0  0  0
  151.6388  136.8978  157.0061 H   0  0  0  0  0  0  0  0  0  0  0  0
  152.0901  138.4352  156.3786 H   0  0  0  0  0  0  0  0  0  0  0  0
  151.3270  139.0599  158.4363 H   0  0  0  0  0  0  0  0  0  0  0  0
  149.8639  139.3334  157.5368 H   0  0  0  0  0  0  0  0  0  0  0  0
  150.5365  136.7601  159.0817 H   0  0  0  0  0  0  0  0  0  0  0  0
  149.6251  138.0800  159.7488 H   0  0  0  0  0  0  0  0  0  0  0  0
  148.1625  136.2628  159.0068 H   0  0  0  0  0  0  0  0  0  0  0  0
  147.7879  137.7536  158.2002 H   0  0  0  0  0  0  0  0  0  0  0  0
  149.4567  135.4982  156.9412 H   0  0  0  0  0  0  0  0  0  0  0  0
  147.7370  135.6899  156.7759 H   0  0  0  0  0  0  0  0  0  0  0  0
  148.2968  138.1208  155.9618 H   0  0  0  0  0  0  0  0  0  0  0  0
  148.8706  136.5473  153.7159 H   0  0  0  0  0  0  0  0  0  0  0  0
  147.5758  135.7135  152.5180 H   0  0  0  0  0  0  0  0  0  0  0  0
  142.7237  133.6385  153.0794 H   0  0  0  0  0  0  0  0  0  0  0  0
  143.1201  133.9694  150.4361 H   0  0  0  0  0  0  0  0  0  0  0  0
  1  2  1  0  0  0  0
  1 20  1  0  0  0  0
  1 21  1  0  0  0  0
  2  3  2  0  0  0  0
  2  4  1  0  0  0  0
  4 10  1  0  0  0  0
  4  5  1  0  0  0  0
  4 22  1  0  0  0  0
  5  6  1  0  0  0  0
  5 23  1  0  0  0  0
  5 24  1  0  0  0  0
  6  7  1  0  0  0  0
  6 25  1  0  0  0  0
  6 26  1  0  0  0  0
  7  8  1  0  0  0  0
  7 27  1  0  0  0  0
  7 28  1  0  0  0  0
  8  9  1  0  0  0  0
  8 29  1  0  0  0  0
  8 30  1  0  0  0  0
  9 10  1  0  0  0  0
  9 31  1  0  0  0  0
  9 32  1  0  0  0  0
 10 11  1  0  0  0  0
 10 33  1  0  0  0  0
 11 12  1  0  0  0  0
 11 34  1  0  0  0  0
 12 13  2  0  0  0  0
 12 14  1  0  0  0  0
 14 15  1  0  0  0  0
 14 35  1  0  0  0  0
 15 19  1  0  0  0  0
 15 16  2  0  0  0  0
 16 17  1  0  0  0  0
 17 18  2  0  0  0  0
 17 36  1  0  0  0  0
 18 19  1  0  0  0  0
 18 37  1  0  0  0  0
M  END
> <s_m_source_file>
AV-unprocessed.smi

> <i_m_source_file_index>
630

> <i_lp_mmshare_version>
43012

> <i_f3d_flags>
0

> <s_epik_input>
W05IMl1DKD1PKVtDQEBIXTFbQ0gyXVtDSDJdW0NIMl1bQ0gyXVtDSDJdW0NASF0xW05IXUMoPU8pW05IXWMybltjSF1bY0hdczI=

> <s_epik_cmdline>
J2VwaWtfcHl0aG9uJywgJy1waCcsICc3LjAnLCAnLXRuJywgJzgnLCAnLW1hJywgJzIwMCcsICctbWV0YWxfYmluZGluZycsICctaW1hZScsICc8aW5maWxlLm1hZT4nLCAnLW9tYWUnLCAnPG91dGZpbGUubWFlPic=

> <r_lp_tautomer_probability>
0.999

> <r_epik_Ionization_Penalty>
0.000342689

> <r_epik_Ionization_Penalty_Charging>
0

> <r_epik_Ionization_Penalty_Neutral>
0.000342689

> <r_epik_State_Penalty>
0.000177984

> <r_epik_Charging_Adjusted_Penalty>
0.000177984

> <i_epik_Tot_Q>
0

> <i_epik_Tot_abs_Q>
0

> <r_epik_Metal_State_Penalty>
0.00743087

> <b_epik_Metal_Only>
0

> <s_lp_Force_Field>
OPLS_2005

> <r_lp_Energy>
11.5905

> <b_lp_Chiralities_Consistent>
1

> <s_lp_Variant>
AV-unprocessed.smi:630-4

> <Gold.Version>
5.8.1

> <Gold.Id.Protein>
6NUR|6NUR_protein|mol2

> <Gold.PLP.Fitness>
42.1212

> <Gold.PLP.PLP>
-21.6008

> <Gold.PLP.part.hbond>
-4.9382

> <Gold.PLP.part.metal>
0.0000

> <Gold.PLP.part.buried>
-3.2321

> <Gold.PLP.part.nonpolar>
-13.6242

> <Gold.PLP.part.repulsive>
0.2769

> <Gold.PLP.ligand.clash>
0.0000

> <Gold.PLP.ligand.torsion>
0.1663

> <Gold.PLP.Chemscore.Hbond>
4.9200

> <Gold.PLP.Chemscore.CHOScore>
1.9949

> <Gold.PLP.Chemscore.Metal>
0.0000

> <Gold.Chemscore.Hbonds>
donor molecule, donor type, donor heavy atom, donor atom, acceptor molecule, acceptor atom, score
      L1  H     1    20       P1  7957  0.99
      L1  H     1    21       P1  7948  0.99
      L1  H    11    34       P1  7948  0.93
      L1  H    14    35       P1  7948  1.00
      P1  H  7989  7998       L1     3  1.00
      L1  C    17    36       P1 10957  0.99
      L1  C    18    37       P1 10186  1.00

> <Gold.PLP.Chemscore.Internal.Correction>
0.1083

> <Gold.Rescore>
     Score         DG    S(hbond)    S(metal)    S(lipo)     H(rot)  DE(clash)    DE(int)     intcor
     18.34     -22.00       4.82        0.00      36.75       1.52       0.03       3.63       ----

> <Gold.Chemscore.Fitness>
18.3447

> <Gold.Chemscore.DG>
-21.9957

> <Gold.Chemscore.ZeroCoef>
-5.4800

> <Gold.Chemscore.Hbond>
4.8213

> <Gold.Chemscore.Metal>
0.0000

> <Gold.Chemscore.Lipo>
36.7515

> <Gold.Chemscore.Internal_Hbond>
0.0000

> <Gold.Chemscore.DEClash>
0.0251

> <Gold.Chemscore.DEInternal>
3.6260

> <Gold.Chemscore.Rot>
1.5184

> <Gold.Chemscore.Internal.Correction>
   9.000000E+99

> <Gold.Chemscore.Hbonds>
donor molecule, donor type, donor heavy atom, donor atom, acceptor molecule, acceptor atom, score
      L1  H     1    20       P1  7957  0.91
      L1  H     1    21       P1  7948  0.87
      L1  H    11    34       P1  7948  0.91
      L1  H    14    35       P1  7948  0.98
      P1  H  7989  7998       L1     3  0.96

> <Gold.Chemscore.Hbond.Weighted>
-16.1030

> <Gold.Chemscore.Metal.Weighted>
-0.0000

> <Gold.Chemscore.Lipo.Weighted>
-4.2999

> <Gold.Chemscore.Internal_Hbond.Weighted>
0.0000

> <Gold.Chemscore.DEClash.Weighted>
0.0251

> <Gold.Chemscore.DEInternal.Weighted>
3.6260

> <Gold.Chemscore.Rot.Weighted>
3.8872

> <Gold.Chemscore.Internal.Correction.Weighted>
   9.000000E+99

> <Gold.Protein.RotatedTorsions>
[ 6907 6896 6895 6894 ] final  -50.85 input  -60.11 | X-H torsion
[ 7974 7965 7964 7962 ] final  -53.27 input  175.53 | X-H torsion
[ 8008 7997 7996 7995 ] final   77.20 input   59.86 | X-H torsion
[ 10167 10162 10161 10158 ] final -167.53 input  -65.29 | X-H torsion
[ 10718 10713 10712 10709 ] final   77.99 input   66.30 | X-H torsion
[ 10763 10752 10751 10750 ] final -147.75 input  -60.55 | X-H torsion
[ 11005 11000 10999 10996 ] final  -28.42 input  -57.11 | X-H torsion

> <Gold.Protein.ActiveResidues>
 VAL166  LYS551  ARG553  GLY616  TRP617  ASP618  TYR619  PRO620  LYS621  CYS622 
 ASP623  PHE694  ASN695  SER759  ASP760  ASP761  ALA762  ILE779  LEU786  VAL792 
 PHE793  MET794  SER795  GLU796  ALA797  LYS798  CYS799  TRP800  GLU811  SER814 

> <Gold.Protein.RotatedAtoms>
  150.8667  134.8032  159.7123 H   0  0  0  0  0  0  0  0  0  0  0  0  # atno 6907 bound_to 6896
  152.4686  134.5012  159.9735 H   0  0  0  0  0  0  0  0  0  0  0  0  # atno 6908 bound_to 6896
  151.5107  133.3447  159.2920 H   0  0  0  0  0  0  0  0  0  0  0  0  # atno 6909 bound_to 6896
  145.8987  140.8011  142.9754 H   0  0  0  0  0  0  0  0  0  0  0  0  # atno 7974 bound_to 7965
  155.8382  140.3463  155.5615 H   0  0  0  0  0  0  0  0  0  0  0  0  # atno 8008 bound_to 7997
  155.8169  140.0907  157.1891 H   0  0  0  0  0  0  0  0  0  0  0  0  # atno 8009 bound_to 7997
  154.4004  140.1437  156.3440 H   0  0  0  0  0  0  0  0  0  0  0  0  # atno 8010 bound_to 7997
  139.6043  144.0945  152.1777 H   0  0  0  0  0  0  0  0  0  0  0  0  # atno 10167 bound_to 10162
  157.6729  130.9847  150.1721 H   0  0  0  0  0  0  0  0  0  0  0  0  # atno 10718 bound_to 10713
  154.8269  135.3352  154.6867 H   0  0  0  0  0  0  0  0  0  0  0  0  # atno 10763 bound_to 10752
  153.7492  135.6940  153.4954 H   0  0  0  0  0  0  0  0  0  0  0  0  # atno 10764 bound_to 10752
  153.2189  135.4456  155.0416 H   0  0  0  0  0  0  0  0  0  0  0  0  # atno 10765 bound_to 10752
  140.9207  133.7401  156.0797 H   0  0  0  0  0  0  0  0  0  0  0  0  # atno 11005 bound_to 11000
  144.6734  140.1643  143.7420 LP  0  0  0  0  0  0  0  0  0  0  0  0  # atno 17320 bound_to 7965
  145.8818  139.2327  143.1601 LP  0  0  0  0  0  0  0  0  0  0  0  0  # atno 17321 bound_to 7965
  140.0548  144.5903  150.7308 LP  0  0  0  0  0  0  0  0  0  0  0  0  # atno 17342 bound_to 10162
  140.7273  143.2650  151.4075 LP  0  0  0  0  0  0  0  0  0  0  0  0  # atno 17343 bound_to 10162
  156.2473  130.3697  149.8271 LP  0  0  0  0  0  0  0  0  0  0  0  0  # atno 17370 bound_to 10713
  156.6054  130.8564  151.3442 LP  0  0  0  0  0  0  0  0  0  0  0  0  # atno 17371 bound_to 10713
  140.7992  134.3529  157.5444 LP  0  0  0  0  0  0  0  0  0  0  0  0  # atno 17394 bound_to 11000
  139.8775  134.9187  156.3209 LP  0  0  0  0  0  0  0  0  0  0  0  0  # atno 17395 bound_to 11000

$$$$
