AV-unprocessed.smi:1844|AV-procd|sdf|7509|dock5
  -GOLD-   22720 9213D 1   1.00000     0.00000
 Structure written by MMmdl.
 45 46  0  0  0  0  0  0  0  0  1 V2000
  148.4810  129.8257  161.8221 C   0  0  0  0  0  0  0  0  0  0  0  0
  148.2567  131.2620  161.8860 N   0  0  0  0  0  0  0  0  0  0  0  0
  147.7694  132.0019  160.8764 C   0  0  0  0  0  0  0  0  0  0  0  0
  147.4702  131.4994  159.7920 O   0  0  0  0  0  0  0  0  0  0  0  0
  147.6397  133.4260  161.1947 C   0  0  0  0  0  0  0  0  0  0  0  0
  147.4043  133.9231  162.5420 C   0  0  0  0  0  0  0  0  0  0  0  0
  147.3210  135.2469  162.7794 C   0  0  0  0  0  0  0  0  0  0  0  0
  147.4623  136.2344  161.7059 C   0  0  0  0  0  0  0  0  0  0  0  0
  147.4159  137.4453  161.9221 O   0  0  0  0  0  0  0  0  0  0  0  0
  147.6623  135.7246  160.4525 N   0  0  0  0  0  0  0  0  0  0  0  0
  147.8573  136.6169  159.2940 C   0  0  0  0  0  0  0  0  0  0  0  0
  149.1403  136.3391  158.4910 C   0  0  0  0  0  0  0  0  0  0  0  0
  149.3930  135.1889  158.1352 O   0  0  0  0  0  0  0  0  0  0  0  0
  149.9358  137.3836  158.2078 N   0  0  0  0  0  0  0  0  0  0  0  0
  151.1841  137.3524  157.4514 C   0  0  1  0  0  0  0  0  0  0  0  0
  151.0505  138.1685  156.1476 C   0  0  0  0  0  0  0  0  0  0  0  0
  150.9126  139.6765  156.4217 C   0  0  0  0  0  0  0  0  0  0  0  0
  152.0790  140.1928  157.2773 C   0  0  0  0  0  0  0  0  0  0  0  0
  152.2122  139.3959  158.5851 C   0  0  0  0  0  0  0  0  0  0  0  0
  152.3539  137.8819  158.3182 C   0  0  1  0  0  0  0  0  0  0  0  0
  152.5274  137.0954  159.6296 C   0  0  0  0  0  0  0  0  0  0  0  0
  147.7531  134.3397  160.2111 C   0  0  0  0  0  0  0  0  0  0  0  0
  148.8735  129.4688  162.7743 H   0  0  0  0  0  0  0  0  0  0  0  0
  149.2025  129.5795  161.0419 H   0  0  0  0  0  0  0  0  0  0  0  0
  147.5503  129.2957  161.6164 H   0  0  0  0  0  0  0  0  0  0  0  0
  148.4862  131.7260  162.7527 H   0  0  0  0  0  0  0  0  0  0  0  0
  147.2900  133.2488  163.3779 H   0  0  0  0  0  0  0  0  0  0  0  0
  147.1457  135.5918  163.7878 H   0  0  0  0  0  0  0  0  0  0  0  0
  147.0083  136.5340  158.6138 H   0  0  0  0  0  0  0  0  0  0  0  0
  147.8635  137.6616  159.6092 H   0  0  0  0  0  0  0  0  0  0  0  0
  149.6454  138.2899  158.5454 H   0  0  0  0  0  0  0  0  0  0  0  0
  151.3992  136.3149  157.1892 H   0  0  0  0  0  0  0  0  0  0  0  0
  151.9316  137.9980  155.5276 H   0  0  0  0  0  0  0  0  0  0  0  0
  150.1996  137.8171  155.5629 H   0  0  0  0  0  0  0  0  0  0  0  0
  150.8747  140.2223  155.4785 H   0  0  0  0  0  0  0  0  0  0  0  0
  149.9679  139.8761  156.9295 H   0  0  0  0  0  0  0  0  0  0  0  0
  153.0075  140.1191  156.7097 H   0  0  0  0  0  0  0  0  0  0  0  0
  151.9363  141.2508  157.4995 H   0  0  0  0  0  0  0  0  0  0  0  0
  153.0773  139.7571  159.1422 H   0  0  0  0  0  0  0  0  0  0  0  0
  151.3427  139.5848  159.2164 H   0  0  0  0  0  0  0  0  0  0  0  0
  153.2695  137.7384  157.7424 H   0  0  0  0  0  0  0  0  0  0  0  0
  151.6762  137.2282  160.2985 H   0  0  0  0  0  0  0  0  0  0  0  0
  153.4185  137.4230  160.1654 H   0  0  0  0  0  0  0  0  0  0  0  0
  152.6354  136.0280  159.4348 H   0  0  0  0  0  0  0  0  0  0  0  0
  147.9391  134.0813  159.1776 H   0  0  0  0  0  0  0  0  0  0  0  0
  1  2  1  0  0  0  0
  1 23  1  0  0  0  0
  1 24  1  0  0  0  0
  1 25  1  0  0  0  0
  2  3  1  0  0  0  0
  2 26  1  0  0  0  0
  3  4  2  0  0  0  0
  3  5  1  0  0  0  0
  5 22  2  0  0  0  0
  5  6  1  0  0  0  0
  6  7  2  0  0  0  0
  6 27  1  0  0  0  0
  7  8  1  0  0  0  0
  7 28  1  0  0  0  0
  8  9  2  0  0  0  0
  8 10  1  0  0  0  0
 10 11  1  0  0  0  0
 10 22  1  0  0  0  0
 11 12  1  0  0  0  0
 11 29  1  0  0  0  0
 11 30  1  0  0  0  0
 12 13  2  0  0  0  0
 12 14  1  0  0  0  0
 14 15  1  0  0  0  0
 14 31  1  0  0  0  0
 15 20  1  0  0  0  0
 15 16  1  0  0  0  0
 15 32  1  0  0  0  0
 16 17  1  0  0  0  0
 16 33  1  0  0  0  0
 16 34  1  0  0  0  0
 17 18  1  0  0  0  0
 17 35  1  0  0  0  0
 17 36  1  0  0  0  0
 18 19  1  0  0  0  0
 18 37  1  0  0  0  0
 18 38  1  0  0  0  0
 19 20  1  0  0  0  0
 19 39  1  0  0  0  0
 19 40  1  0  0  0  0
 20 21  1  0  0  0  0
 20 41  1  0  0  0  0
 21 42  1  0  0  0  0
 21 43  1  0  0  0  0
 21 44  1  0  0  0  0
 22 45  1  0  0  0  0
M  END
> <s_m_source_file>
AV-unprocessed.smi

> <i_m_source_file_index>
1844

> <i_lp_mmshare_version>
43012

> <i_f3d_flags>
0

> <s_epik_input>
W0NIM11bTkhdQyg9TyljMVtjSF1bY0hdYyg9TyluKFtjSF0xKVtDSDJdQyg9TylbTkhdW0NAQEhdMltDSDJdW0NIMl1bQ0gyXVtDSDJdW0NASF0yW0NIM10=

> <s_epik_cmdline>
J2VwaWtfcHl0aG9uJywgJy1waCcsICc3LjAnLCAnLXRuJywgJzgnLCAnLW1hJywgJzIwMCcsICctbWV0YWxfYmluZGluZycsICctaW1hZScsICc8aW5maWxlLm1hZT4nLCAnLW9tYWUnLCAnPG91dGZpbGUubWFlPic=

> <r_lp_tautomer_probability>
1

> <r_epik_Ionization_Penalty>
3.66612e-07

> <r_epik_Ionization_Penalty_Charging>
5.18929e-08

> <r_epik_Ionization_Penalty_Neutral>
3.14719e-07

> <r_epik_State_Penalty>
-0

> <r_epik_Charging_Adjusted_Penalty>
5.18929e-08

> <i_epik_Tot_Q>
0

> <i_epik_Tot_abs_Q>
0

> <r_epik_Metal_State_Penalty>
-0

> <b_epik_Metal_Only>
0

> <s_lp_Force_Field>
OPLS_2005

> <r_lp_Energy>
21.2081

> <b_lp_Chiralities_Consistent>
1

> <s_lp_Variant>
AV-unprocessed.smi:1844-2

> <Gold.Version>
5.8.1

> <Gold.Id.Protein>
6NUR|6NUR_protein|mol2

> <Gold.PLP.Fitness>
42.7533

> <Gold.PLP.PLP>
-36.8306

> <Gold.PLP.part.hbond>
-3.0000

> <Gold.PLP.part.metal>
0.0000

> <Gold.PLP.part.buried>
-4.7738

> <Gold.PLP.part.nonpolar>
-29.1874

> <Gold.PLP.part.repulsive>
0.1911

> <Gold.PLP.ligand.clash>
0.0000

> <Gold.PLP.ligand.torsion>
0.5124

> <Gold.PLP.Chemscore.Hbond>
2.3120

> <Gold.PLP.Chemscore.CHOScore>
0.0000

> <Gold.PLP.Chemscore.Metal>
0.0000

> <Gold.Chemscore.Hbonds>
donor molecule, donor type, donor heavy atom, donor atom, acceptor molecule, acceptor atom, score
      P1  H  6896  6908       L1    13  1.00
      P1  H  6931  6943       L1     9  0.78
      P1  H  6934  6947       L1     9  0.67

> <Gold.PLP.Chemscore.Internal.Correction>
0.0115

> <Gold.Rescore>
     Score         DG    S(hbond)    S(metal)    S(lipo)     H(rot)  DE(clash)    DE(int)     intcor
     16.05     -17.71       2.21        0.00      73.99       1.49       0.07       1.60       ----

> <Gold.Chemscore.Fitness>
16.0466

> <Gold.Chemscore.DG>
-17.7136

> <Gold.Chemscore.ZeroCoef>
-5.4800

> <Gold.Chemscore.Hbond>
2.2147

> <Gold.Chemscore.Metal>
0.0000

> <Gold.Chemscore.Lipo>
73.9894

> <Gold.Chemscore.Internal_Hbond>
0.0000

> <Gold.Chemscore.DEClash>
0.0650

> <Gold.Chemscore.DEInternal>
1.6019

> <Gold.Chemscore.Rot>
1.4923

> <Gold.Chemscore.Internal.Correction>
   9.000000E+99

> <Gold.Chemscore.Hbonds>
donor molecule, donor type, donor heavy atom, donor atom, acceptor molecule, acceptor atom, score
      P1  H  6896  6908       L1    13  0.54
      P1  H  6931  6943       L1     9  0.70
      P1  H  6934  6947       L1     9  0.68

> <Gold.Chemscore.Hbond.Weighted>
-7.3972

> <Gold.Chemscore.Metal.Weighted>
-0.0000

> <Gold.Chemscore.Lipo.Weighted>
-8.6568

> <Gold.Chemscore.Internal_Hbond.Weighted>
0.0000

> <Gold.Chemscore.DEClash.Weighted>
0.0650

> <Gold.Chemscore.DEInternal.Weighted>
1.6019

> <Gold.Chemscore.Rot.Weighted>
3.8204

> <Gold.Chemscore.Internal.Correction.Weighted>
   9.000000E+99

> <Gold.Protein.RotatedTorsions>
[ 6907 6896 6895 6894 ] final  162.06 input  -60.11 | X-H torsion
[ 7974 7965 7964 7962 ] final -100.55 input  175.53 | X-H torsion
[ 8008 7997 7996 7995 ] final    7.59 input   59.86 | X-H torsion
[ 10167 10162 10161 10158 ] final   91.18 input  -65.29 | X-H torsion
[ 10718 10713 10712 10709 ] final  138.54 input   66.30 | X-H torsion
[ 10763 10752 10751 10750 ] final  -46.23 input  -60.55 | X-H torsion
[ 11005 11000 10999 10996 ] final  -45.34 input  -57.11 | X-H torsion

> <Gold.Protein.ActiveResidues>
 VAL166  LYS551  ARG553  GLY616  TRP617  ASP618  TYR619  PRO620  LYS621  CYS622 
 ASP623  PHE694  ASN695  SER759  ASP760  ASP761  ALA762  ILE779  LEU786  VAL792 
 PHE793  MET794  SER795  GLU796  ALA797  LYS798  CYS799  TRP800  GLU811  SER814 

> <Gold.Protein.RotatedAtoms>
  151.9462  133.3652  159.3982 H   0  0  0  0  0  0  0  0  0  0  0  0  # atno 6907 bound_to 6896
  150.6989  134.4388  159.5292 H   0  0  0  0  0  0  0  0  0  0  0  0  # atno 6908 bound_to 6896
  152.2053  134.8551  160.0554 H   0  0  0  0  0  0  0  0  0  0  0  0  # atno 6909 bound_to 6896
  145.2931  140.9358  143.2866 H   0  0  0  0  0  0  0  0  0  0  0  0  # atno 7974 bound_to 7965
  154.7558  140.2775  155.6255 H   0  0  0  0  0  0  0  0  0  0  0  0  # atno 8008 bound_to 7997
  156.2905  140.2669  156.2250 H   0  0  0  0  0  0  0  0  0  0  0  0  # atno 8009 bound_to 7997
  155.0080  140.0372  157.2377 H   0  0  0  0  0  0  0  0  0  0  0  0  # atno 8010 bound_to 7997
  139.8400  144.6646  150.9295 H   0  0  0  0  0  0  0  0  0  0  0  0  # atno 10167 bound_to 10162
  157.4242  131.1042  151.0321 H   0  0  0  0  0  0  0  0  0  0  0  0  # atno 10718 bound_to 10713
  154.0415  135.6643  153.4790 H   0  0  0  0  0  0  0  0  0  0  0  0  # atno 10763 bound_to 10752
  153.0499  135.5091  154.7837 H   0  0  0  0  0  0  0  0  0  0  0  0  # atno 10764 bound_to 10752
  154.6815  135.3046  154.9572 H   0  0  0  0  0  0  0  0  0  0  0  0  # atno 10765 bound_to 10752
  141.0509  133.6743  156.2999 H   0  0  0  0  0  0  0  0  0  0  0  0  # atno 11005 bound_to 11000
  144.9156  139.4475  143.6566 LP  0  0  0  0  0  0  0  0  0  0  0  0  # atno 17320 bound_to 7965
  146.3178  139.7988  142.8970 LP  0  0  0  0  0  0  0  0  0  0  0  0  # atno 17321 bound_to 7965
  140.7799  143.3921  151.1292 LP  0  0  0  0  0  0  0  0  0  0  0  0  # atno 17342 bound_to 10162
  139.7568  143.8695  152.3091 LP  0  0  0  0  0  0  0  0  0  0  0  0  # atno 17343 bound_to 10162
  157.1240  130.6074  149.5512 LP  0  0  0  0  0  0  0  0  0  0  0  0  # atno 17370 bound_to 10713
  155.9891  130.4937  150.7198 LP  0  0  0  0  0  0  0  0  0  0  0  0  # atno 17371 bound_to 10713
  140.6057  134.5510  157.5525 LP  0  0  0  0  0  0  0  0  0  0  0  0  # atno 17394 bound_to 11000
  139.9350  134.7893  156.0828 LP  0  0  0  0  0  0  0  0  0  0  0  0  # atno 17395 bound_to 11000

$$$$
