AV-unprocessed.smi:3245|AV-procd|sdf|12407|dock2
  -GOLD-   2272018283D 1   1.00000     0.00000
 Structure written by MMmdl.
 35 36  0  0  0  0  0  0  0  0  3 V2000
  147.1159  140.5497  153.5048 C   0  0  0  0  0  0  0  0  0  0  0  0
  147.2618  139.0546  153.1922 C   0  0  1  0  0  0  0  0  0  0  0  0
  146.5218  138.6956  151.8852 C   0  0  0  0  0  0  0  0  0  0  0  0
  145.7031  137.5029  152.0080 N   0  0  0  0  0  0  0  0  0  0  0  0
  145.8444  136.2937  151.3605 C   0  0  0  0  0  0  0  0  0  0  0  0
  144.8227  135.4893  151.7769 C   0  0  0  0  0  0  0  0  0  0  0  0
  144.1013  136.3043  152.6934 C   0  0  0  0  0  0  0  0  0  0  0  0
  144.6329  137.5083  152.8321 N   0  0  0  0  0  0  0  0  0  0  0  0
  148.6987  138.7069  153.1071 N   0  3  0  0  0  0  0  0  0  0  0  0
  149.4186  138.7242  154.3964 C   0  0  0  0  0  0  0  0  0  0  0  0
  150.7728  138.0117  154.2788 C   0  0  0  0  0  0  0  0  0  0  0  0
  151.6447  138.3568  155.4039 N   0  0  0  0  0  0  0  0  0  0  0  0
  152.2717  137.4638  156.1748 C   0  0  0  0  0  0  0  0  0  0  0  0
  152.2279  136.2359  156.0970 O   0  0  0  0  0  0  0  0  0  0  0  0
  153.0891  138.2316  157.1871 C   0  0  0  0  0  0  0  0  0  0  0  0
  152.8150  139.6048  156.8270 N   0  5  0  0  0  0  0  0  0  0  0  0
  151.9649  139.6113  155.7746 C   0  0  0  0  0  0  0  0  0  0  0  0
  151.5218  140.6002  155.1912 O   0  0  0  0  0  0  0  0  0  0  0  0
  146.0666  140.8287  153.6056 H   0  0  0  0  0  0  0  0  0  0  0  0
  147.5487  141.1659  152.7158 H   0  0  0  0  0  0  0  0  0  0  0  0
  147.6146  140.8067  154.4401 H   0  0  0  0  0  0  0  0  0  0  0  0
  146.8089  138.5054  154.0199 H   0  0  0  0  0  0  0  0  0  0  0  0
  145.8697  139.5176  151.5874 H   0  0  0  0  0  0  0  0  0  0  0  0
  147.2326  138.5550  151.0689 H   0  0  0  0  0  0  0  0  0  0  0  0
  146.6461  136.1106  150.6603 H   0  0  0  0  0  0  0  0  0  0  0  0
  144.6183  134.4739  151.4714 H   0  0  0  0  0  0  0  0  0  0  0  0
  143.2121  136.0599  153.2554 H   0  0  0  0  0  0  0  0  0  0  0  0
  148.7762  137.7843  152.7028 H   0  0  0  0  0  0  0  0  0  0  0  0
  149.5584  139.7590  154.7114 H   0  0  0  0  0  0  0  0  0  0  0  0
  148.8168  138.2384  155.1640 H   0  0  0  0  0  0  0  0  0  0  0  0
  150.6253  136.9306  154.2484 H   0  0  0  0  0  0  0  0  0  0  0  0
  151.2528  138.2725  153.3340 H   0  0  0  0  0  0  0  0  0  0  0  0
  152.7640  137.9776  158.1967 H   0  0  0  0  0  0  0  0  0  0  0  0
  154.1419  137.9635  157.0940 H   0  0  0  0  0  0  0  0  0  0  0  0
  149.1549  139.3670  152.4940 H   0  0  0  0  0  0  0  0  0  0  0  0
  1  2  1  0  0  0  0
  1 19  1  0  0  0  0
  1 20  1  0  0  0  0
  1 21  1  0  0  0  0
  2  3  1  0  0  0  0
  2  9  1  0  0  0  0
  2 22  1  0  0  0  0
  3  4  1  0  0  0  0
  3 23  1  0  0  0  0
  3 24  1  0  0  0  0
  4  8  1  0  0  0  0
  4  5  1  0  0  0  0
  5  6  2  0  0  0  0
  5 25  1  0  0  0  0
  6  7  1  0  0  0  0
  6 26  1  0  0  0  0
  7  8  2  0  0  0  0
  7 27  1  0  0  0  0
  9 10  1  0  0  0  0
  9 28  1  0  0  0  0
  9 35  1  0  0  0  0
 10 11  1  0  0  0  0
 10 29  1  0  0  0  0
 10 30  1  0  0  0  0
 11 12  1  0  0  0  0
 11 31  1  0  0  0  0
 11 32  1  0  0  0  0
 12 17  1  0  0  0  0
 12 13  1  0  0  0  0
 13 14  2  0  0  0  0
 13 15  1  0  0  0  0
 15 16  1  0  0  0  0
 15 33  1  0  0  0  0
 15 34  1  0  0  0  0
 16 17  1  0  0  0  0
 17 18  2  0  0  0  0
M  CHG  1   9   1
M  CHG  1  16  -1
M  END
> <s_m_source_file>
AV-unprocessed.smi

> <i_m_source_file_index>
3245

> <i_lp_mmshare_version>
43012

> <i_f3d_flags>
0

> <s_epik_input>
bjFbY0hdW2NIXVtjSF1uMVtDSDJdW0NAQEhdKFtDSDNdKVtOSF1bQ0gyXVtDSDJdTjJDKD1PKVtDSDJdW05IXUMyPU8=

> <s_epik_cmdline>
J2VwaWtfcHl0aG9uJywgJy1waCcsICc3LjAnLCAnLXRuJywgJzgnLCAnLW1hJywgJzIwMCcsICctbWV0YWxfYmluZGluZycsICctaW1hZScsICc8aW5maWxlLm1hZT4nLCAnLW9tYWUnLCAnPG91dGZpbGUubWFlPic=

> <r_lp_tautomer_probability>
1

> <r_epik_Ionization_Penalty>
5.1873

> <r_epik_Ionization_Penalty_Charging>
5.18729

> <r_epik_Ionization_Penalty_Neutral>
3.83745e-06

> <r_epik_State_Penalty>
5.18822

> <r_epik_Charging_Adjusted_Penalty>
10.3755

> <i_epik_Tot_Q>
0

> <i_epik_Tot_abs_Q>
2

> <r_epik_Metal_State_Penalty>
1.25934

> <b_epik_Metal_Only>
1

> <s_lp_Force_Field>
OPLS_2005

> <r_lp_Energy>
10.2516

> <b_lp_Chiralities_Consistent>
1

> <s_lp_Variant>
AV-unprocessed.smi:3245-6

> <Gold.Version>
5.8.1

> <Gold.Id.Protein>
6NUR|6NUR_protein|mol2

> <Gold.PLP.Fitness>
53.7463

> <Gold.PLP.PLP>
-33.1675

> <Gold.PLP.part.hbond>
-4.9494

> <Gold.PLP.part.metal>
0.0000

> <Gold.PLP.part.buried>
-1.8530

> <Gold.PLP.part.nonpolar>
-28.5463

> <Gold.PLP.part.repulsive>
0.3442

> <Gold.PLP.ligand.clash>
0.0000

> <Gold.PLP.ligand.torsion>
0.9167

> <Gold.PLP.Chemscore.Hbond>
6.8320

> <Gold.PLP.Chemscore.CHOScore>
0.6127

> <Gold.PLP.Chemscore.Metal>
0.0000

> <Gold.Chemscore.Hbonds>
donor molecule, donor type, donor heavy atom, donor atom, acceptor molecule, acceptor atom, score
      L1  H     9    28       P1  7948  2.00
      L1  H     9    35       P1  7957  1.00
      P1  H  7989  7998       L1    18  0.80
      P1  H  7997  8010       L1    16  2.00
      P1  H 10752 10764       L1    14  1.00
      L1  C     5    25       P1  7948  0.61

> <Gold.PLP.Chemscore.Internal.Correction>
0.0782

> <Gold.Rescore>
     Score         DG    S(hbond)    S(metal)    S(lipo)     H(rot)  DE(clash)    DE(int)     intcor
     16.57     -18.74       4.08        0.00      54.96       2.66       0.10       2.07       ----

> <Gold.Chemscore.Fitness>
16.5736

> <Gold.Chemscore.DG>
-18.7421

> <Gold.Chemscore.ZeroCoef>
-5.4800

> <Gold.Chemscore.Hbond>
4.0843

> <Gold.Chemscore.Metal>
0.0000

> <Gold.Chemscore.Lipo>
54.9594

> <Gold.Chemscore.Internal_Hbond>
0.0000

> <Gold.Chemscore.DEClash>
0.0959

> <Gold.Chemscore.DEInternal>
2.0727

> <Gold.Chemscore.Rot>
2.6601

> <Gold.Chemscore.Internal.Correction>
   9.000000E+99

> <Gold.Chemscore.Hbonds>
donor molecule, donor type, donor heavy atom, donor atom, acceptor molecule, acceptor atom, score
      L1  H     9    28       P1  7948  1.00
      L1  H     9    35       P1  7957  0.94
      P1  H  7989  7998       L1    18  0.79
      P1  H  7997  8010       L1    16  0.25
      P1  H 10752 10764       L1    14  0.95

> <Gold.Chemscore.Hbond.Weighted>
-13.6417

> <Gold.Chemscore.Metal.Weighted>
-0.0000

> <Gold.Chemscore.Lipo.Weighted>
-6.4302

> <Gold.Chemscore.Internal_Hbond.Weighted>
0.0000

> <Gold.Chemscore.DEClash.Weighted>
0.0959

> <Gold.Chemscore.DEInternal.Weighted>
2.0727

> <Gold.Chemscore.Rot.Weighted>
6.8098

> <Gold.Chemscore.Internal.Correction.Weighted>
   9.000000E+99

> <Gold.Protein.RotatedTorsions>
[ 6907 6896 6895 6894 ] final -177.32 input  -60.11 | X-H torsion
[ 7974 7965 7964 7962 ] final  -48.39 input  175.53 | X-H torsion
[ 8008 7997 7996 7995 ] final   75.68 input   59.86 | X-H torsion
[ 10167 10162 10161 10158 ] final   89.03 input  -65.29 | X-H torsion
[ 10718 10713 10712 10709 ] final  -25.61 input   66.30 | X-H torsion
[ 10763 10752 10751 10750 ] final  -32.49 input  -60.55 | X-H torsion
[ 11005 11000 10999 10996 ] final  174.48 input  -57.11 | X-H torsion

> <Gold.Protein.ActiveResidues>
 VAL166  LYS551  ARG553  GLY616  TRP617  ASP618  TYR619  PRO620  LYS621  CYS622 
 ASP623  PHE694  ASN695  SER759  ASP760  ASP761  ALA762  ILE779  LEU786  VAL792 
 PHE793  MET794  SER795  GLU796  ALA797  LYS798  CYS799  TRP800  GLU811  SER814 

> <Gold.Protein.RotatedAtoms>
  151.6192  133.3340  159.3083 H   0  0  0  0  0  0  0  0  0  0  0  0  # atno 6907 bound_to 6896
  150.8115  134.7276  159.6704 H   0  0  0  0  0  0  0  0  0  0  0  0  # atno 6908 bound_to 6896
  152.4212  134.5957  160.0038 H   0  0  0  0  0  0  0  0  0  0  0  0  # atno 6909 bound_to 6896
  145.9517  140.7566  142.9501 H   0  0  0  0  0  0  0  0  0  0  0  0  # atno 7974 bound_to 7965
  155.8164  140.3471  155.5488 H   0  0  0  0  0  0  0  0  0  0  0  0  # atno 8008 bound_to 7997
  155.8387  140.0938  157.1768 H   0  0  0  0  0  0  0  0  0  0  0  0  # atno 8009 bound_to 7997
  154.4005  140.1398  156.3689 H   0  0  0  0  0  0  0  0  0  0  0  0  # atno 8010 bound_to 7997
  139.8614  144.6542  150.9054 H   0  0  0  0  0  0  0  0  0  0  0  0  # atno 10167 bound_to 10162
  156.4620  130.4506  149.6922 H   0  0  0  0  0  0  0  0  0  0  0  0  # atno 10718 bound_to 10713
  153.8146  135.6879  153.4836 H   0  0  0  0  0  0  0  0  0  0  0  0  # atno 10763 bound_to 10752
  153.1607  135.4581  154.9766 H   0  0  0  0  0  0  0  0  0  0  0  0  # atno 10764 bound_to 10752
  154.7953  135.3317  154.7624 H   0  0  0  0  0  0  0  0  0  0  0  0  # atno 10765 bound_to 10752
  140.3518  134.7188  157.4273 H   0  0  0  0  0  0  0  0  0  0  0  0  # atno 11005 bound_to 11000
  144.6797  140.2445  143.7339 LP  0  0  0  0  0  0  0  0  0  0  0  0  # atno 17320 bound_to 7965
  145.8162  139.2024  143.1964 LP  0  0  0  0  0  0  0  0  0  0  0  0  # atno 17321 bound_to 7965
  140.7774  143.3741  151.1595 LP  0  0  0  0  0  0  0  0  0  0  0  0  # atno 17342 bound_to 10162
  139.7370  143.8983  152.3038 LP  0  0  0  0  0  0  0  0  0  0  0  0  # atno 17343 bound_to 10162
  156.3706  130.7528  151.2511 LP  0  0  0  0  0  0  0  0  0  0  0  0  # atno 17370 bound_to 10713
  157.7497  131.0324  150.4225 LP  0  0  0  0  0  0  0  0  0  0  0  0  # atno 17371 bound_to 10713
  140.0697  134.5880  155.8656 LP  0  0  0  0  0  0  0  0  0  0  0  0  # atno 17394 bound_to 11000
  141.2010  133.6616  156.5926 LP  0  0  0  0  0  0  0  0  0  0  0  0  # atno 17395 bound_to 11000

$$$$
