AV-unprocessed.smi:658|AV-procd|sdf|3234|dock8
  -GOLD-   22720 0183D 1   1.00000     0.00000
 Structure written by MMmdl.
 37 37  0  0  0  0  0  0  0  0  3 V2000
  148.9790  132.4980  153.4656 C   0  0  0  0  0  0  0  0  0  0  0  0
  147.7892  133.0518  152.6644 C   0  0  2  0  0  0  0  0  0  0  0  0
  147.4582  134.4124  153.1468 N   0  3  0  0  0  0  0  0  0  0  0  0
  147.4556  134.5723  154.6136 C   0  0  0  0  0  0  0  0  0  0  0  0
  148.2760  135.7985  155.0265 C   0  0  0  0  0  0  0  0  0  0  0  0
  149.7839  135.5206  155.0339 C   0  0  0  0  0  0  0  0  0  0  0  0
  150.7367  137.0869  155.2025 S   0  0  0  0  0  0  0  0  0  0  0  0
  151.7666  136.9510  153.9690 N   0  5  0  0  0  0  0  0  0  0  0  0
  149.7608  138.1703  155.0095 O   0  0  0  0  0  0  0  0  0  0  0  0
  151.4103  137.0097  156.5074 O   0  0  0  0  0  0  0  0  0  0  0  0
  146.5511  132.1182  152.7058 C   0  0  2  0  0  0  0  0  0  0  0  0
  146.9227  130.6405  152.9322 C   0  0  0  0  0  0  0  0  0  0  0  0
  145.6664  132.2843  151.5558 N   0  0  0  0  0  0  0  0  0  0  0  0
  145.9244  131.9854  150.2331 C   0  0  0  0  0  0  0  0  0  0  0  0
  144.8030  132.2913  149.5168 C   0  0  0  0  0  0  0  0  0  0  0  0
  143.8951  132.7737  150.4993 C   0  0  0  0  0  0  0  0  0  0  0  0
  144.4115  132.7634  151.7171 N   0  0  0  0  0  0  0  0  0  0  0  0
  149.2478  131.4973  153.1264 H   0  0  0  0  0  0  0  0  0  0  0  0
  148.7585  132.4397  154.5321 H   0  0  0  0  0  0  0  0  0  0  0  0
  149.8583  133.1317  153.3460 H   0  0  0  0  0  0  0  0  0  0  0  0
  148.1084  133.1169  151.6226 H   0  0  0  0  0  0  0  0  0  0  0  0
  148.1372  135.0536  152.7606 H   0  0  0  0  0  0  0  0  0  0  0  0
  146.4271  134.6729  154.9628 H   0  0  0  0  0  0  0  0  0  0  0  0
  147.8711  133.6746  155.0734 H   0  0  0  0  0  0  0  0  0  0  0  0
  148.0642  136.6243  154.3460 H   0  0  0  0  0  0  0  0  0  0  0  0
  147.9639  136.1269  156.0185 H   0  0  0  0  0  0  0  0  0  0  0  0
  150.0570  134.8693  155.8646 H   0  0  0  0  0  0  0  0  0  0  0  0
  150.0954  135.0331  154.1098 H   0  0  0  0  0  0  0  0  0  0  0  0
  151.2370  136.6488  153.1428 H   0  0  0  0  0  0  0  0  0  0  0  0
  145.9680  132.4153  153.5790 H   0  0  0  0  0  0  0  0  0  0  0  0
  147.5060  130.5195  153.8453 H   0  0  0  0  0  0  0  0  0  0  0  0
  147.5126  130.2357  152.1092 H   0  0  0  0  0  0  0  0  0  0  0  0
  146.0285  130.0242  153.0306 H   0  0  0  0  0  0  0  0  0  0  0  0
  146.8753  131.5850  149.9134 H   0  0  0  0  0  0  0  0  0  0  0  0
  144.6538  132.1867  148.4521 H   0  0  0  0  0  0  0  0  0  0  0  0
  142.8830  133.1263  150.3655 H   0  0  0  0  0  0  0  0  0  0  0  0
  146.5473  134.6667  152.7926 H   0  0  0  0  0  0  0  0  0  0  0  0
  1  2  1  0  0  0  0
  1 18  1  0  0  0  0
  1 19  1  0  0  0  0
  1 20  1  0  0  0  0
  2  3  1  0  0  0  0
  2 11  1  0  0  0  0
  2 21  1  0  0  0  0
  3  4  1  0  0  0  0
  3 22  1  0  0  0  0
  3 37  1  0  0  0  0
  4  5  1  0  0  0  0
  4 23  1  0  0  0  0
  4 24  1  0  0  0  0
  5  6  1  0  0  0  0
  5 25  1  0  0  0  0
  5 26  1  0  0  0  0
  6  7  1  0  0  0  0
  6 27  1  0  0  0  0
  6 28  1  0  0  0  0
  7  8  1  0  0  0  0
  7  9  2  0  0  0  0
  7 10  2  0  0  0  0
  8 29  1  0  0  0  0
 11 12  1  0  0  0  0
 11 13  1  0  0  0  0
 11 30  1  0  0  0  0
 12 31  1  0  0  0  0
 12 32  1  0  0  0  0
 12 33  1  0  0  0  0
 13 17  1  0  0  0  0
 13 14  1  0  0  0  0
 14 15  2  0  0  0  0
 14 34  1  0  0  0  0
 15 16  1  0  0  0  0
 15 35  1  0  0  0  0
 16 17  2  0  0  0  0
 16 36  1  0  0  0  0
M  CHG  1   3   1
M  CHG  1   8  -1
M  END
> <s_m_source_file>
AV-unprocessed.smi

> <i_m_source_file_index>
658

> <i_lp_mmshare_version>
43012

> <i_f3d_flags>
0

> <s_epik_input>
bjFbY0hdW2NIXVtjSF1uMVtDQEBIXShbQ0gzXSlbQ0BIXShbQ0gzXSlbTkhdW0NIMl1bQ0gyXVtDSDJdUyg9TykoPU8pW05IMl0=

> <s_epik_cmdline>
J2VwaWtfcHl0aG9uJywgJy1waCcsICc3LjAnLCAnLXRuJywgJzgnLCAnLW1hJywgJzIwMCcsICctbWV0YWxfYmluZGluZycsICctaW1hZScsICc8aW5maWxlLm1hZT4nLCAnLW9tYWUnLCAnPG91dGZpbGUubWFlPic=

> <r_lp_tautomer_probability>
1

> <r_epik_Ionization_Penalty>
4.63642

> <r_epik_Ionization_Penalty_Charging>
4.63641

> <r_epik_Ionization_Penalty_Neutral>
1.08396e-05

> <r_epik_State_Penalty>
4.63466

> <r_epik_Charging_Adjusted_Penalty>
9.27106

> <i_epik_Tot_Q>
0

> <i_epik_Tot_abs_Q>
2

> <r_epik_Metal_State_Penalty>
0.890424

> <b_epik_Metal_Only>
1

> <s_lp_Force_Field>
OPLS_2005

> <r_lp_Energy>
0.307927

> <b_lp_Chiralities_Consistent>
1

> <s_lp_Variant>
AV-unprocessed.smi:658-5

> <Gold.Version>
5.8.1

> <Gold.Id.Protein>
6NUR|6NUR_protein|mol2

> <Gold.PLP.Fitness>
48.2345

> <Gold.PLP.PLP>
-29.9156

> <Gold.PLP.part.hbond>
-3.0000

> <Gold.PLP.part.metal>
0.0000

> <Gold.PLP.part.buried>
-5.2280

> <Gold.PLP.part.nonpolar>
-22.3313

> <Gold.PLP.part.repulsive>
0.2686

> <Gold.PLP.ligand.clash>
0.0000

> <Gold.PLP.ligand.torsion>
1.4479

> <Gold.PLP.Chemscore.Hbond>
5.0000

> <Gold.PLP.Chemscore.CHOScore>
2.0000

> <Gold.PLP.Chemscore.Metal>
0.0000

> <Gold.Chemscore.Hbonds>
donor molecule, donor type, donor heavy atom, donor atom, acceptor molecule, acceptor atom, score
      L1  H     3    22       P1  7948  2.00
      L1  H     8    29       P1  7949  1.00
      P1  H 10752 10763       L1     8  2.00
      L1  C    14    34       P1 10747  1.00
      L1  C    16    36       P1 10186  1.00

> <Gold.PLP.Chemscore.Internal.Correction>
0.2148

> <Gold.Rescore>
     Score         DG    S(hbond)    S(metal)    S(lipo)     H(rot)  DE(clash)    DE(int)     intcor
     11.92     -13.36       2.44        0.00      64.15       3.04       0.00       1.44       ----

> <Gold.Chemscore.Fitness>
11.9181

> <Gold.Chemscore.DG>
-13.3594

> <Gold.Chemscore.ZeroCoef>
-5.4800

> <Gold.Chemscore.Hbond>
2.4425

> <Gold.Chemscore.Metal>
0.0000

> <Gold.Chemscore.Lipo>
64.1550

> <Gold.Chemscore.Internal_Hbond>
0.0000

> <Gold.Chemscore.DEClash>
0.0048

> <Gold.Chemscore.DEInternal>
1.4365

> <Gold.Chemscore.Rot>
3.0409

> <Gold.Chemscore.Internal.Correction>
   9.000000E+99

> <Gold.Chemscore.Hbonds>
donor molecule, donor type, donor heavy atom, donor atom, acceptor molecule, acceptor atom, score
      L1  H     3    22       P1  7948  0.90
      L1  H     8    29       P1  7949  0.58
      P1  H 10752 10763       L1     8  0.39

> <Gold.Chemscore.Hbond.Weighted>
-8.1580

> <Gold.Chemscore.Metal.Weighted>
-0.0000

> <Gold.Chemscore.Lipo.Weighted>
-7.5061

> <Gold.Chemscore.Internal_Hbond.Weighted>
0.0000

> <Gold.Chemscore.DEClash.Weighted>
0.0048

> <Gold.Chemscore.DEInternal.Weighted>
1.4365

> <Gold.Chemscore.Rot.Weighted>
7.7848

> <Gold.Chemscore.Internal.Correction.Weighted>
   9.000000E+99

> <Gold.Protein.RotatedTorsions>
[ 6907 6896 6895 6894 ] final  164.67 input  -60.11 | X-H torsion
[ 7974 7965 7964 7962 ] final  -38.27 input  175.53 | X-H torsion
[ 8008 7997 7996 7995 ] final  112.05 input   59.86 | X-H torsion
[ 10167 10162 10161 10158 ] final  139.24 input  -65.29 | X-H torsion
[ 10718 10713 10712 10709 ] final   -1.16 input   66.30 | X-H torsion
[ 10763 10752 10751 10750 ] final   36.32 input  -60.55 | X-H torsion
[ 11005 11000 10999 10996 ] final -179.87 input  -57.11 | X-H torsion

> <Gold.Protein.ActiveResidues>
 VAL166  LYS551  ARG553  GLY616  TRP617  ASP618  TYR619  PRO620  LYS621  CYS622 
 ASP623  PHE694  ASN695  SER759  ASP760  ASP761  ALA762  ILE779  LEU786  VAL792 
 PHE793  MET794  SER795  GLU796  ALA797  LYS798  CYS799  TRP800  GLU811  SER814 

> <Gold.Protein.RotatedAtoms>
  151.9063  133.3550  159.3847 H   0  0  0  0  0  0  0  0  0  0  0  0  # atno 6907 bound_to 6896
  150.7068  134.4777  159.5464 H   0  0  0  0  0  0  0  0  0  0  0  0  # atno 6908 bound_to 6896
  152.2375  134.8262  160.0516 H   0  0  0  0  0  0  0  0  0  0  0  0  # atno 6909 bound_to 6896
  146.0501  140.6492  142.9046 H   0  0  0  0  0  0  0  0  0  0  0  0  # atno 7974 bound_to 7965
  156.2166  140.3007  155.9853 H   0  0  0  0  0  0  0  0  0  0  0  0  # atno 8008 bound_to 7997
  155.2590  140.0429  157.3012 H   0  0  0  0  0  0  0  0  0  0  0  0  # atno 8009 bound_to 7997
  154.5777  140.2366  155.8107 H   0  0  0  0  0  0  0  0  0  0  0  0  # atno 8010 bound_to 7997
  139.5085  144.6306  151.5826 H   0  0  0  0  0  0  0  0  0  0  0  0  # atno 10167 bound_to 10162
  156.8098  130.5420  149.5710 H   0  0  0  0  0  0  0  0  0  0  0  0  # atno 10718 bound_to 10713
  153.0082  135.6309  154.1966 H   0  0  0  0  0  0  0  0  0  0  0  0  # atno 10763 bound_to 10752
  154.1709  135.2818  155.3083 H   0  0  0  0  0  0  0  0  0  0  0  0  # atno 10764 bound_to 10752
  154.5909  135.5618  153.7338 H   0  0  0  0  0  0  0  0  0  0  0  0  # atno 10765 bound_to 10752
  140.4139  134.6667  157.4628 H   0  0  0  0  0  0  0  0  0  0  0  0  # atno 11005 bound_to 11000
  144.7118  140.4067  143.7074 LP  0  0  0  0  0  0  0  0  0  0  0  0  # atno 17320 bound_to 7965
  145.6738  139.1604  143.2739 LP  0  0  0  0  0  0  0  0  0  0  0  0  # atno 17321 bound_to 7965
  140.6038  143.9561  150.6404 LP  0  0  0  0  0  0  0  0  0  0  0  0  # atno 17342 bound_to 10162
  140.2782  143.3408  152.1176 LP  0  0  0  0  0  0  0  0  0  0  0  0  # atno 17343 bound_to 10162
  156.1051  130.5998  150.9958 LP  0  0  0  0  0  0  0  0  0  0  0  0  # atno 17370 bound_to 10713
  157.6512  131.0896  150.8047 LP  0  0  0  0  0  0  0  0  0  0  0  0  # atno 17371 bound_to 10713
  140.0248  134.6493  155.9188 LP  0  0  0  0  0  0  0  0  0  0  0  0  # atno 17394 bound_to 11000
  141.1810  133.6546  156.5022 LP  0  0  0  0  0  0  0  0  0  0  0  0  # atno 17395 bound_to 11000

$$$$
