AV-unprocessed.smi:766|AV-procd|sdf|3655|dock1
  -GOLD-   22720 1 63D 1   1.00000     0.00000
 Structure written by MMmdl.
 46 48  0  0  0  0  0  0  0  0  1 V2000
  152.8274  142.8900  161.6237 C   0  0  0  0  0  0  0  0  0  0  0  0
  152.2225  142.5804  160.2658 C   0  0  0  0  0  0  0  0  0  0  0  0
  152.1053  141.2327  159.8571 C   0  0  0  0  0  0  0  0  0  0  0  0
  151.5479  140.9020  158.6025 C   0  0  0  0  0  0  0  0  0  0  0  0
  151.3400  139.6692  158.0081 N   0  0  0  0  0  0  0  0  0  0  0  0
  150.7905  140.0204  156.8489 C   0  0  0  0  0  0  0  0  0  0  0  0
  150.6166  141.3368  156.6219 N   0  0  0  0  0  0  0  0  0  0  0  0
  150.0484  141.9564  155.4375 C   0  0  0  0  0  0  0  0  0  0  0  0
  149.0924  141.0177  154.6758 C   0  0  2  0  0  0  0  0  0  0  0  0
  149.0993  141.3654  153.3045 O   0  0  0  0  0  0  0  0  0  0  0  0
  147.6508  141.1264  155.2004 C   0  0  0  0  0  0  0  0  0  0  0  0
  147.1147  142.4678  154.9970 N   0  0  0  0  0  0  0  0  0  0  0  0
  145.6569  142.5261  155.0637 C   0  0  0  0  0  0  0  0  0  0  0  0
  145.1772  143.5388  156.1162 C   0  0  0  0  0  0  0  0  0  0  0  0
  144.3341  144.5732  155.5437 N   0  0  0  0  0  0  0  0  0  0  0  0
  143.8800  144.6886  154.2469 C   0  0  0  0  0  0  0  0  0  0  0  0
  143.1185  145.8202  154.1821 C   0  0  0  0  0  0  0  0  0  0  0  0
  143.1691  146.3374  155.5066 C   0  0  0  0  0  0  0  0  0  0  0  0
  143.8999  145.5908  156.3187 N   0  0  0  0  0  0  0  0  0  0  0  0
  151.1086  141.9653  157.7606 C   0  0  0  0  0  0  0  0  0  0  0  0
  151.2214  143.3101  158.1551 C   0  0  0  0  0  0  0  0  0  0  0  0
  151.7779  143.6227  159.4130 C   0  0  0  0  0  0  0  0  0  0  0  0
  151.8898  145.0780  159.8324 C   0  0  0  0  0  0  0  0  0  0  0  0
  153.1584  141.9820  162.1285 H   0  0  0  0  0  0  0  0  0  0  0  0
  152.0949  143.3816  162.2643 H   0  0  0  0  0  0  0  0  0  0  0  0
  153.6915  143.5464  161.5180 H   0  0  0  0  0  0  0  0  0  0  0  0
  152.4424  140.4383  160.5066 H   0  0  0  0  0  0  0  0  0  0  0  0
  150.4959  139.2767  156.1229 H   0  0  0  0  0  0  0  0  0  0  0  0
  149.5192  142.8569  155.7510 H   0  0  0  0  0  0  0  0  0  0  0  0
  150.8617  142.2829  154.7875 H   0  0  0  0  0  0  0  0  0  0  0  0
  149.4493  139.9917  154.7785 H   0  0  0  0  0  0  0  0  0  0  0  0
  149.4046  140.6220  152.8076 H   0  0  0  0  0  0  0  0  0  0  0  0
  147.0197  140.4157  154.6653 H   0  0  0  0  0  0  0  0  0  0  0  0
  147.6055  140.8434  156.2531 H   0  0  0  0  0  0  0  0  0  0  0  0
  147.5170  143.1025  155.6799 H   0  0  0  0  0  0  0  0  0  0  0  0
  145.2436  142.7828  154.0875 H   0  0  0  0  0  0  0  0  0  0  0  0
  145.2638  141.5408  155.3162 H   0  0  0  0  0  0  0  0  0  0  0  0
  144.6069  143.0252  156.8913 H   0  0  0  0  0  0  0  0  0  0  0  0
  146.0264  144.0084  156.6144 H   0  0  0  0  0  0  0  0  0  0  0  0
  144.1315  143.9629  153.4879 H   0  0  0  0  0  0  0  0  0  0  0  0
  142.6036  146.2178  153.3203 H   0  0  0  0  0  0  0  0  0  0  0  0
  142.6997  147.2275  155.8989 H   0  0  0  0  0  0  0  0  0  0  0  0
  150.8790  144.0936  157.4952 H   0  0  0  0  0  0  0  0  0  0  0  0
  151.4721  145.7431  159.0760 H   0  0  0  0  0  0  0  0  0  0  0  0
  152.9343  145.3528  159.9804 H   0  0  0  0  0  0  0  0  0  0  0  0
  151.3500  145.2507  160.7637 H   0  0  0  0  0  0  0  0  0  0  0  0
  1  2  1  0  0  0  0
  1 24  1  0  0  0  0
  1 25  1  0  0  0  0
  1 26  1  0  0  0  0
  2 22  1  0  0  0  0
  2  3  2  0  0  0  0
  3  4  1  0  0  0  0
  3 27  1  0  0  0  0
  4 20  2  0  0  0  0
  4  5  1  0  0  0  0
  5  6  2  0  0  0  0
  6  7  1  0  0  0  0
  6 28  1  0  0  0  0
  7  8  1  0  0  0  0
  7 20  1  0  0  0  0
  8  9  1  0  0  0  0
  8 29  1  0  0  0  0
  8 30  1  0  0  0  0
  9 10  1  0  0  0  0
  9 11  1  0  0  0  0
  9 31  1  0  0  0  0
 10 32  1  0  0  0  0
 11 12  1  0  0  0  0
 11 33  1  0  0  0  0
 11 34  1  0  0  0  0
 12 13  1  0  0  0  0
 12 35  1  0  0  0  0
 13 14  1  0  0  0  0
 13 36  1  0  0  0  0
 13 37  1  0  0  0  0
 14 15  1  0  0  0  0
 14 38  1  0  0  0  0
 14 39  1  0  0  0  0
 15 19  1  0  0  0  0
 15 16  1  0  0  0  0
 16 17  2  0  0  0  0
 16 40  1  0  0  0  0
 17 18  1  0  0  0  0
 17 41  1  0  0  0  0
 18 19  2  0  0  0  0
 18 42  1  0  0  0  0
 20 21  1  0  0  0  0
 21 22  2  0  0  0  0
 21 43  1  0  0  0  0
 22 23  1  0  0  0  0
 23 44  1  0  0  0  0
 23 45  1  0  0  0  0
 23 46  1  0  0  0  0
M  END
> <s_m_source_file>
AV-unprocessed.smi

> <i_m_source_file_index>
766

> <i_lp_mmshare_version>
43012

> <i_f3d_flags>
0

> <s_epik_input>
W0NIM11jKFtjSF0xKWMoW0NIM10pW2NIXWMoYzEyKW4oW2NIXW4yKVtDSDJdW0NASF0oW09IXSlbQ0gyXVtOSF1bQ0gyXVtDSDJdbjNbY0hdW2NIXVtjSF1uMw==

> <s_epik_cmdline>
J2VwaWtfcHl0aG9uJywgJy1waCcsICc3LjAnLCAnLXRuJywgJzgnLCAnLW1hJywgJzIwMCcsICctbWV0YWxfYmluZGluZycsICctaW1hZScsICc8aW5maWxlLm1hZT4nLCAnLW9tYWUnLCAnPG91dGZpbGUubWFlPic=

> <r_lp_tautomer_probability>
1

> <r_epik_Ionization_Penalty>
1.68727

> <r_epik_Ionization_Penalty_Charging>
0

> <r_epik_Ionization_Penalty_Neutral>
1.68727

> <r_epik_State_Penalty>
1.78741

> <r_epik_Charging_Adjusted_Penalty>
1.78741

> <i_epik_Tot_Q>
0

> <i_epik_Tot_abs_Q>
0

> <r_epik_Metal_State_Penalty>
1.73664

> <b_epik_Metal_Only>
0

> <s_lp_Force_Field>
OPLS_2005

> <r_lp_Energy>
17.6974

> <b_lp_Chiralities_Consistent>
1

> <s_lp_Variant>
AV-unprocessed.smi:766-5

> <Gold.Version>
5.8.1

> <Gold.Id.Protein>
6NUR|6NUR_protein|mol2

> <Gold.PLP.Fitness>
57.7908

> <Gold.PLP.PLP>
-50.0788

> <Gold.PLP.part.hbond>
-3.5511

> <Gold.PLP.part.metal>
0.0000

> <Gold.PLP.part.buried>
-6.0561

> <Gold.PLP.part.nonpolar>
-40.1582

> <Gold.PLP.part.repulsive>
0.0715

> <Gold.PLP.ligand.clash>
0.0000

> <Gold.PLP.ligand.torsion>
1.5425

> <Gold.PLP.Chemscore.Hbond>
2.5840

> <Gold.PLP.Chemscore.CHOScore>
0.9701

> <Gold.PLP.Chemscore.Metal>
0.0000

> <Gold.Chemscore.Hbonds>
donor molecule, donor type, donor heavy atom, donor atom, acceptor molecule, acceptor atom, score
      L1  H    10    32       P1  7957  0.83
      L1  H    12    35       P1  8028  0.56
      P1  H  8011  8017       L1    10  0.64
      L1  C    16    40       P1 10174  1.00

> <Gold.PLP.Chemscore.Internal.Correction>
0.1346

> <Gold.Rescore>
     Score         DG    S(hbond)    S(metal)    S(lipo)     H(rot)  DE(clash)    DE(int)     intcor
     17.70     -19.53       1.86        0.00     129.01       2.83       0.45       1.38       ----

> <Gold.Chemscore.Fitness>
17.7045

> <Gold.Chemscore.DG>
-19.5301

> <Gold.Chemscore.ZeroCoef>
-5.4800

> <Gold.Chemscore.Hbond>
1.8602

> <Gold.Chemscore.Metal>
0.0000

> <Gold.Chemscore.Lipo>
129.0095

> <Gold.Chemscore.Internal_Hbond>
0.0000

> <Gold.Chemscore.DEClash>
0.4475

> <Gold.Chemscore.DEInternal>
1.3781

> <Gold.Chemscore.Rot>
2.8348

> <Gold.Chemscore.Internal.Correction>
   9.000000E+99

> <Gold.Chemscore.Hbonds>
donor molecule, donor type, donor heavy atom, donor atom, acceptor molecule, acceptor atom, score
      L1  H    10    32       P1  7957  0.83
      L1  H    12    35       P1  8028  0.11
      P1  H  8011  8017       L1    10  0.05

> <Gold.Chemscore.Hbond.Weighted>
-6.2132

> <Gold.Chemscore.Metal.Weighted>
-0.0000

> <Gold.Chemscore.Lipo.Weighted>
-15.0941

> <Gold.Chemscore.Internal_Hbond.Weighted>
0.0000

> <Gold.Chemscore.DEClash.Weighted>
0.4475

> <Gold.Chemscore.DEInternal.Weighted>
1.3781

> <Gold.Chemscore.Rot.Weighted>
7.2572

> <Gold.Chemscore.Internal.Correction.Weighted>
   9.000000E+99

> <Gold.Protein.RotatedTorsions>
[ 6907 6896 6895 6894 ] final -148.82 input  -60.11 | X-H torsion
[ 7974 7965 7964 7962 ] final  115.51 input  175.53 | X-H torsion
[ 8008 7997 7996 7995 ] final   89.02 input   59.86 | X-H torsion
[ 10167 10162 10161 10158 ] final   87.69 input  -65.29 | X-H torsion
[ 10718 10713 10712 10709 ] final -161.14 input   66.30 | X-H torsion
[ 10763 10752 10751 10750 ] final    0.95 input  -60.55 | X-H torsion
[ 11005 11000 10999 10996 ] final   -5.20 input  -57.11 | X-H torsion

> <Gold.Protein.ActiveResidues>
 VAL166  LYS551  ARG553  GLY616  TRP617  ASP618  TYR619  PRO620  LYS621  CYS622 
 ASP623  PHE694  ASN695  SER759  ASP760  ASP761  ALA762  ILE779  LEU786  VAL792 
 PHE793  MET794  SER795  GLU796  ALA797  LYS798  CYS799  TRP800  GLU811  SER814 

> <Gold.Protein.RotatedAtoms>
  151.1753  133.4758  159.2593 H   0  0  0  0  0  0  0  0  0  0  0  0  # atno 6907 bound_to 6896
  151.1314  135.0132  159.8594 H   0  0  0  0  0  0  0  0  0  0  0  0  # atno 6908 bound_to 6896
  152.5460  134.1655  159.8628 H   0  0  0  0  0  0  0  0  0  0  0  0  # atno 6909 bound_to 6896
  145.1911  139.2999  143.4367 H   0  0  0  0  0  0  0  0  0  0  0  0  # atno 7974 bound_to 7965
  155.9949  140.3365  155.6788 H   0  0  0  0  0  0  0  0  0  0  0  0  # atno 8008 bound_to 7997
  155.6370  140.0691  157.2648 H   0  0  0  0  0  0  0  0  0  0  0  0  # atno 8009 bound_to 7997
  154.4231  140.1749  156.1520 H   0  0  0  0  0  0  0  0  0  0  0  0  # atno 8010 bound_to 7997
  139.8749  144.6472  150.8908 H   0  0  0  0  0  0  0  0  0  0  0  0  # atno 10167 bound_to 10162
  156.5920  130.8774  151.2892 H   0  0  0  0  0  0  0  0  0  0  0  0  # atno 10718 bound_to 10713
  153.3142  135.6965  153.7088 H   0  0  0  0  0  0  0  0  0  0  0  0  # atno 10763 bound_to 10752
  153.5953  135.3472  155.2926 H   0  0  0  0  0  0  0  0  0  0  0  0  # atno 10764 bound_to 10752
  154.8582  135.4327  154.2289 H   0  0  0  0  0  0  0  0  0  0  0  0  # atno 10765 bound_to 10752
  140.6886  133.9091  155.8602 H   0  0  0  0  0  0  0  0  0  0  0  0  # atno 11005 bound_to 11000
  146.3436  140.2124  142.8590 LP  0  0  0  0  0  0  0  0  0  0  0  0  # atno 17320 bound_to 7965
  145.0040  140.8657  143.5264 LP  0  0  0  0  0  0  0  0  0  0  0  0  # atno 17321 bound_to 7965
  140.7754  143.3633  151.1786 LP  0  0  0  0  0  0  0  0  0  0  0  0  # atno 17342 bound_to 10162
  139.7250  143.9163  152.2999 LP  0  0  0  0  0  0  0  0  0  0  0  0  # atno 17343 bound_to 10162
  157.7301  130.9681  150.1818 LP  0  0  0  0  0  0  0  0  0  0  0  0  # atno 17370 bound_to 10713
  156.2541  130.3703  149.8200 LP  0  0  0  0  0  0  0  0  0  0  0  0  # atno 17371 bound_to 10713
  141.0260  134.0823  157.4068 LP  0  0  0  0  0  0  0  0  0  0  0  0  # atno 17394 bound_to 11000
  139.8930  135.0128  156.6877 LP  0  0  0  0  0  0  0  0  0  0  0  0  # atno 17395 bound_to 11000

$$$$
