AV-unprocessed.smi:3138|AV-procd|sdf|11954|dock3
  -GOLD-   2272017353D 1   1.00000     0.00000
 Structure written by MMmdl.
 38 39  0  0  0  0  0  0  0  0  2 V2000
  153.3996  139.4343  158.0953 O   0  0  0  0  0  0  0  0  0  0  0  0
  152.4248  140.1703  157.9294 C   0  0  0  0  0  0  0  0  0  0  0  0
  151.6271  140.0555  156.6213 C   0  0  0  0  0  0  0  0  0  0  0  0
  151.2030  138.6689  156.3382 N   0  3  0  0  0  0  0  0  0  0  0  0
  150.0217  138.5654  155.4589 C   0  0  0  0  0  0  0  0  0  0  0  0
  150.0257  139.6610  154.3782 C   0  0  0  0  0  0  0  0  0  0  0  0
  148.7233  140.2776  154.1890 N   0  0  0  0  0  0  0  0  0  0  0  0
  148.3421  141.5736  154.4684 C   0  0  0  0  0  0  0  0  0  0  0  0
  147.0326  141.7006  154.1028 C   0  0  0  0  0  0  0  0  0  0  0  0
  146.6979  140.4162  153.5905 C   0  0  0  0  0  0  0  0  0  0  0  0
  147.7134  139.5691  153.6383 N   0  0  0  0  0  0  0  0  0  0  0  0
  152.0361  141.0772  158.8587 N   0  0  0  0  0  0  0  0  0  0  0  0
  150.9213  142.0241  158.7134 C   0  0  0  0  0  0  0  0  0  0  0  0
  151.4944  143.4456  158.5696 C   0  0  0  0  0  0  0  0  0  0  0  0
  152.3991  143.7966  159.7661 C   0  0  0  0  0  0  0  0  0  0  0  0
  153.4462  142.6978  160.0302 C   0  0  0  0  0  0  0  0  0  0  0  0
  152.7834  141.3096  160.1019 C   0  0  0  0  0  0  0  0  0  0  0  0
  150.7423  140.6906  156.6818 H   0  0  0  0  0  0  0  0  0  0  0  0
  152.2420  140.4076  155.7916 H   0  0  0  0  0  0  0  0  0  0  0  0
  151.9735  138.1876  155.8961 H   0  0  0  0  0  0  0  0  0  0  0  0
  150.0190  137.5839  154.9835 H   0  0  0  0  0  0  0  0  0  0  0  0
  149.1131  138.6263  156.0594 H   0  0  0  0  0  0  0  0  0  0  0  0
  150.7472  140.4382  154.6334 H   0  0  0  0  0  0  0  0  0  0  0  0
  150.3433  139.2408  153.4231 H   0  0  0  0  0  0  0  0  0  0  0  0
  149.0249  142.2905  154.9003 H   0  0  0  0  0  0  0  0  0  0  0  0
  146.4095  142.5792  154.1827 H   0  0  0  0  0  0  0  0  0  0  0  0
  145.7554  140.0779  153.1854 H   0  0  0  0  0  0  0  0  0  0  0  0
  150.2620  141.8040  157.8755 H   0  0  0  0  0  0  0  0  0  0  0  0
  150.2881  141.9675  159.6001 H   0  0  0  0  0  0  0  0  0  0  0  0
  152.0671  143.5161  157.6439 H   0  0  0  0  0  0  0  0  0  0  0  0
  150.6850  144.1718  158.4896 H   0  0  0  0  0  0  0  0  0  0  0  0
  152.8912  144.7552  159.5995 H   0  0  0  0  0  0  0  0  0  0  0  0
  151.7804  143.9191  160.6560 H   0  0  0  0  0  0  0  0  0  0  0  0
  154.1913  142.7041  159.2335 H   0  0  0  0  0  0  0  0  0  0  0  0
  153.9819  142.9075  160.9566 H   0  0  0  0  0  0  0  0  0  0  0  0
  152.0984  141.2639  160.9498 H   0  0  0  0  0  0  0  0  0  0  0  0
  153.5405  140.5475  160.2922 H   0  0  0  0  0  0  0  0  0  0  0  0
  151.0002  138.2107  157.2151 H   0  0  0  0  0  0  0  0  0  0  0  0
  1  2  2  0  0  0  0
  2  3  1  0  0  0  0
  2 12  1  0  0  0  0
  3  4  1  0  0  0  0
  3 18  1  0  0  0  0
  3 19  1  0  0  0  0
  4  5  1  0  0  0  0
  4 20  1  0  0  0  0
  4 38  1  0  0  0  0
  5  6  1  0  0  0  0
  5 21  1  0  0  0  0
  5 22  1  0  0  0  0
  6  7  1  0  0  0  0
  6 23  1  0  0  0  0
  6 24  1  0  0  0  0
  7 11  1  0  0  0  0
  7  8  1  0  0  0  0
  8  9  2  0  0  0  0
  8 25  1  0  0  0  0
  9 10  1  0  0  0  0
  9 26  1  0  0  0  0
 10 11  2  0  0  0  0
 10 27  1  0  0  0  0
 12 17  1  0  0  0  0
 12 13  1  0  0  0  0
 13 14  1  0  0  0  0
 13 28  1  0  0  0  0
 13 29  1  0  0  0  0
 14 15  1  0  0  0  0
 14 30  1  0  0  0  0
 14 31  1  0  0  0  0
 15 16  1  0  0  0  0
 15 32  1  0  0  0  0
 15 33  1  0  0  0  0
 16 17  1  0  0  0  0
 16 34  1  0  0  0  0
 16 35  1  0  0  0  0
 17 36  1  0  0  0  0
 17 37  1  0  0  0  0
M  CHG  1   4   1
M  END
> <s_m_source_file>
AV-unprocessed.smi

> <i_m_source_file_index>
3138

> <i_lp_mmshare_version>
43012

> <i_f3d_flags>
0

> <s_epik_input>
W0NIMl0xW0NIMl1bQ0gyXVtDSDJdW0NIMl1OMUMoPU8pW0NIMl1bTkhdW0NIMl1bQ0gyXW4yW2NIXVtjSF1bY0hdbjI=

> <s_epik_cmdline>
J2VwaWtfcHl0aG9uJywgJy1waCcsICc3LjAnLCAnLXRuJywgJzgnLCAnLW1hJywgJzIwMCcsICctbWV0YWxfYmluZGluZycsICctaW1hZScsICc8aW5maWxlLm1hZT4nLCAnLW9tYWUnLCAnPG91dGZpbGUubWFlPic=

> <r_lp_tautomer_probability>
1

> <r_epik_Ionization_Penalty>
0.202061

> <r_epik_Ionization_Penalty_Charging>
0.202058

> <r_epik_Ionization_Penalty_Neutral>
2.33614e-06

> <r_epik_State_Penalty>
0.191938

> <r_epik_Charging_Adjusted_Penalty>
0.393996

> <i_epik_Tot_Q>
1

> <i_epik_Tot_abs_Q>
1

> <r_epik_Metal_State_Penalty>
0.192416

> <b_epik_Metal_Only>
0

> <s_lp_Force_Field>
OPLS_2005

> <r_lp_Energy>
21.8037

> <b_lp_Chiralities_Consistent>
1

> <s_lp_Variant>
AV-unprocessed.smi:3138-1

> <Gold.Version>
5.8.1

> <Gold.Id.Protein>
6NUR|6NUR_protein|mol2

> <Gold.PLP.Fitness>
43.1213

> <Gold.PLP.PLP>
-35.5506

> <Gold.PLP.part.hbond>
-1.0000

> <Gold.PLP.part.metal>
0.0000

> <Gold.PLP.part.buried>
-0.9181

> <Gold.PLP.part.nonpolar>
-33.0926

> <Gold.PLP.part.repulsive>
0.3869

> <Gold.PLP.ligand.clash>
0.0000

> <Gold.PLP.ligand.torsion>
0.6844

> <Gold.PLP.Chemscore.Hbond>
1.0000

> <Gold.PLP.Chemscore.CHOScore>
1.9598

> <Gold.PLP.Chemscore.Metal>
0.0000

> <Gold.Chemscore.Hbonds>
donor molecule, donor type, donor heavy atom, donor atom, acceptor molecule, acceptor atom, score
      P1  H  7997  8009       L1     1  1.00
      L1  C     8    25       P1  8028  0.98
      L1  C    10    27       P1 10175  1.00

> <Gold.PLP.Chemscore.Internal.Correction>
0.0603

> <Gold.Rescore>
     Score         DG    S(hbond)    S(metal)    S(lipo)     H(rot)  DE(clash)    DE(int)     intcor
     14.15     -14.71       0.90        0.00      93.32       1.84       0.07       0.49       ----

> <Gold.Chemscore.Fitness>
14.1465

> <Gold.Chemscore.DG>
-14.7068

> <Gold.Chemscore.ZeroCoef>
-5.4800

> <Gold.Chemscore.Hbond>
0.9039

> <Gold.Chemscore.Metal>
0.0000

> <Gold.Chemscore.Lipo>
93.3220

> <Gold.Chemscore.Internal_Hbond>
0.0000

> <Gold.Chemscore.DEClash>
0.0662

> <Gold.Chemscore.DEInternal>
0.4941

> <Gold.Chemscore.Rot>
1.8402

> <Gold.Chemscore.Internal.Correction>
   9.000000E+99

> <Gold.Chemscore.Hbonds>
donor molecule, donor type, donor heavy atom, donor atom, acceptor molecule, acceptor atom, score
      P1  H  7997  8009       L1     1  0.65

> <Gold.Chemscore.Hbond.Weighted>
-3.0191

> <Gold.Chemscore.Metal.Weighted>
-0.0000

> <Gold.Chemscore.Lipo.Weighted>
-10.9187

> <Gold.Chemscore.Internal_Hbond.Weighted>
0.0000

> <Gold.Chemscore.DEClash.Weighted>
0.0662

> <Gold.Chemscore.DEInternal.Weighted>
0.4941

> <Gold.Chemscore.Rot.Weighted>
4.7110

> <Gold.Chemscore.Internal.Correction.Weighted>
   9.000000E+99

> <Gold.Protein.RotatedTorsions>
[ 6907 6896 6895 6894 ] final -148.97 input  -60.11 | X-H torsion
[ 7974 7965 7964 7962 ] final    1.41 input  175.53 | X-H torsion
[ 8008 7997 7996 7995 ] final  147.92 input   59.86 | X-H torsion
[ 10167 10162 10161 10158 ] final  -88.64 input  -65.29 | X-H torsion
[ 10718 10713 10712 10709 ] final   82.35 input   66.30 | X-H torsion
[ 10763 10752 10751 10750 ] final  -46.90 input  -60.55 | X-H torsion
[ 11005 11000 10999 10996 ] final  -77.78 input  -57.11 | X-H torsion

> <Gold.Protein.ActiveResidues>
 VAL166  LYS551  ARG553  GLY616  TRP617  ASP618  TYR619  PRO620  LYS621  CYS622 
 ASP623  PHE694  ASN695  SER759  ASP760  ASP761  ALA762  ILE779  LEU786  VAL792 
 PHE793  MET794  SER795  GLU796  ALA797  LYS798  CYS799  TRP800  GLU811  SER814 

> <Gold.Protein.RotatedAtoms>
  151.1774  133.4746  159.2593 H   0  0  0  0  0  0  0  0  0  0  0  0  # atno 6907 bound_to 6896
  151.1294  135.0122  159.8585 H   0  0  0  0  0  0  0  0  0  0  0  0  # atno 6908 bound_to 6896
  152.5459  134.1678  159.8637 H   0  0  0  0  0  0  0  0  0  0  0  0  # atno 6909 bound_to 6896
  146.2440  140.0990  142.8348 H   0  0  0  0  0  0  0  0  0  0  0  0  # atno 7974 bound_to 7965
  156.2809  140.2142  156.5615 H   0  0  0  0  0  0  0  0  0  0  0  0  # atno 8008 bound_to 7997
  154.7209  140.0503  157.0661 H   0  0  0  0  0  0  0  0  0  0  0  0  # atno 8009 bound_to 7997
  155.0480  140.3153  155.4705 H   0  0  0  0  0  0  0  0  0  0  0  0  # atno 8010 bound_to 7997
  140.3726  143.2787  151.9481 H   0  0  0  0  0  0  0  0  0  0  0  0  # atno 10167 bound_to 10162
  157.6855  131.0044  150.2361 H   0  0  0  0  0  0  0  0  0  0  0  0  # atno 10718 bound_to 10713
  154.0526  135.6629  153.4802 H   0  0  0  0  0  0  0  0  0  0  0  0  # atno 10763 bound_to 10752
  153.0458  135.5116  154.7736 H   0  0  0  0  0  0  0  0  0  0  0  0  # atno 10764 bound_to 10752
  154.6747  135.3035  154.9661 H   0  0  0  0  0  0  0  0  0  0  0  0  # atno 10765 bound_to 10752
  141.1662  133.7036  156.7872 H   0  0  0  0  0  0  0  0  0  0  0  0  # atno 11005 bound_to 11000
  145.0584  140.9070  143.4953 LP  0  0  0  0  0  0  0  0  0  0  0  0  # atno 17320 bound_to 7965
  145.1101  139.2763  143.5641 LP  0  0  0  0  0  0  0  0  0  0  0  0  # atno 17321 bound_to 7965
  139.4802  144.5892  151.7800 LP  0  0  0  0  0  0  0  0  0  0  0  0  # atno 17342 bound_to 10162
  140.5017  144.1158  150.5973 LP  0  0  0  0  0  0  0  0  0  0  0  0  # atno 17343 bound_to 10162
  156.2984  130.3755  149.7773 LP  0  0  0  0  0  0  0  0  0  0  0  0  # atno 17370 bound_to 10713
  156.5411  130.8300  151.3269 LP  0  0  0  0  0  0  0  0  0  0  0  0  # atno 17371 bound_to 10713
  140.2352  134.8656  157.3517 LP  0  0  0  0  0  0  0  0  0  0  0  0  # atno 17394 bound_to 11000
  140.1851  134.4441  155.7748 LP  0  0  0  0  0  0  0  0  0  0  0  0  # atno 17395 bound_to 11000

$$$$
