AV-unprocessed.smi:1439|AV-procd|sdf|5872|dock3
  -GOLD-   22720 5543D 1   1.00000     0.00000
 Structure written by MMmdl.
 35 36  0  0  0  0  0  0  0  0  2 V2000
  144.6417  138.0411  152.2293 N   0  0  0  0  0  0  0  0  0  0  0  0
  145.2978  137.4592  153.2382 C   0  0  0  0  0  0  0  0  0  0  0  0
  145.8476  136.3669  153.1119 O   0  0  0  0  0  0  0  0  0  0  0  0
  145.3754  138.2122  154.5722 C   0  0  0  0  0  0  0  0  0  0  0  0
  146.5151  139.1925  154.5942 C   0  0  0  0  0  0  0  0  0  0  0  0
  146.6934  140.2638  153.7570 C   0  0  0  0  0  0  0  0  0  0  0  0
  148.1453  141.1441  154.1371 S   0  0  0  0  0  0  0  0  0  0  0  0
  148.4766  140.0102  155.4476 C   0  0  0  0  0  0  0  0  0  0  0  0
  149.5412  140.0691  156.2624 N   0  5  0  0  0  0  0  0  0  0  0  0
  150.7163  140.5512  155.7914 C   0  0  0  0  0  0  0  0  0  0  0  0
  151.4907  140.0366  154.9825 O   0  0  0  0  0  0  0  0  0  0  0  0
  151.0580  141.9212  156.3919 C   0  0  0  0  0  0  0  0  0  0  0  0
  151.3139  141.8447  157.9077 C   0  0  0  0  0  0  0  0  0  0  0  0
  152.0984  143.0535  158.4382 C   0  0  1  0  0  0  0  0  0  0  0  0
  151.5146  144.4005  158.0187 C   0  0  0  0  0  0  0  0  0  0  0  0
  152.0863  145.3176  159.0757 C   0  0  0  0  0  0  0  0  0  0  0  0
  152.0360  144.4375  160.3229 C   0  0  0  0  0  0  0  0  0  0  0  0
  152.0837  143.0886  159.8626 O   0  0  0  0  0  0  0  0  0  0  0  0
  147.5421  139.0572  155.5334 N   0  0  0  0  0  0  0  0  0  0  0  0
  144.5475  137.5586  151.3476 H   0  0  0  0  0  0  0  0  0  0  0  0
  144.2179  138.9480  152.3623 H   0  0  0  0  0  0  0  0  0  0  0  0
  144.4304  138.7276  154.7484 H   0  0  0  0  0  0  0  0  0  0  0  0
  145.4806  137.4827  155.3756 H   0  0  0  0  0  0  0  0  0  0  0  0
  146.0603  140.5899  152.9456 H   0  0  0  0  0  0  0  0  0  0  0  0
  151.9457  142.3010  155.8848 H   0  0  0  0  0  0  0  0  0  0  0  0
  150.2622  142.6431  156.1973 H   0  0  0  0  0  0  0  0  0  0  0  0
  150.3577  141.7875  158.4301 H   0  0  0  0  0  0  0  0  0  0  0  0
  151.8531  140.9280  158.1506 H   0  0  0  0  0  0  0  0  0  0  0  0
  153.1385  143.0006  158.1118 H   0  0  0  0  0  0  0  0  0  0  0  0
  151.7933  144.6887  157.0048 H   0  0  0  0  0  0  0  0  0  0  0  0
  150.4257  144.3871  158.0853 H   0  0  0  0  0  0  0  0  0  0  0  0
  153.1204  145.5659  158.8331 H   0  0  0  0  0  0  0  0  0  0  0  0
  151.5279  146.2475  159.1865 H   0  0  0  0  0  0  0  0  0  0  0  0
  152.8562  144.6511  161.0088 H   0  0  0  0  0  0  0  0  0  0  0  0
  151.0986  144.5857  160.8600 H   0  0  0  0  0  0  0  0  0  0  0  0
  1  2  1  0  0  0  0
  1 20  1  0  0  0  0
  1 21  1  0  0  0  0
  2  3  2  0  0  0  0
  2  4  1  0  0  0  0
  4  5  1  0  0  0  0
  4 22  1  0  0  0  0
  4 23  1  0  0  0  0
  5 19  1  0  0  0  0
  5  6  2  0  0  0  0
  6  7  1  0  0  0  0
  6 24  1  0  0  0  0
  7  8  1  0  0  0  0
  8  9  1  0  0  0  0
  8 19  2  0  0  0  0
  9 10  1  0  0  0  0
 10 11  2  0  0  0  0
 10 12  1  0  0  0  0
 12 13  1  0  0  0  0
 12 25  1  0  0  0  0
 12 26  1  0  0  0  0
 13 14  1  0  0  0  0
 13 27  1  0  0  0  0
 13 28  1  0  0  0  0
 14 18  1  0  0  0  0
 14 15  1  0  0  0  0
 14 29  1  0  0  0  0
 15 16  1  0  0  0  0
 15 30  1  0  0  0  0
 15 31  1  0  0  0  0
 16 17  1  0  0  0  0
 16 32  1  0  0  0  0
 16 33  1  0  0  0  0
 17 18  1  0  0  0  0
 17 34  1  0  0  0  0
 17 35  1  0  0  0  0
M  CHG  1   9  -1
M  END
> <s_m_source_file>
AV-unprocessed.smi

> <i_m_source_file_index>
1439

> <i_lp_mmshare_version>
43012

> <i_f3d_flags>
0

> <s_epik_input>
W05IMl1DKD1PKVtDSDJdYzFbY0hdc2MobjEpW05IXUMoPU8pW0NIMl1bQ0gyXVtDQEBIXTJbQ0gyXVtDSDJdW0NIMl1PMg==

> <s_epik_cmdline>
J2VwaWtfcHl0aG9uJywgJy1waCcsICc3LjAnLCAnLXRuJywgJzgnLCAnLW1hJywgJzIwMCcsICctbWV0YWxfYmluZGluZycsICctaW1hZScsICc8aW5maWxlLm1hZT4nLCAnLW9tYWUnLCAnPG91dGZpbGUubWFlPic=

> <r_lp_tautomer_probability>
1

> <r_epik_Ionization_Penalty>
4.85214

> <r_epik_Ionization_Penalty_Charging>
4.5239

> <r_epik_Ionization_Penalty_Neutral>
0.32824

> <r_epik_State_Penalty>
4.52362

> <r_epik_Charging_Adjusted_Penalty>
9.04752

> <i_epik_Tot_Q>
-1

> <i_epik_Tot_abs_Q>
1

> <r_epik_Metal_State_Penalty>
0.831335

> <b_epik_Metal_Only>
1

> <s_lp_Force_Field>
OPLS_2005

> <r_lp_Energy>
13.9468

> <b_lp_Chiralities_Consistent>
1

> <s_lp_Variant>
AV-unprocessed.smi:1439-4

> <Gold.Version>
5.8.1

> <Gold.Id.Protein>
6NUR|6NUR_protein|mol2

> <Gold.PLP.Fitness>
42.1015

> <Gold.PLP.PLP>
-34.6815

> <Gold.PLP.part.hbond>
-3.0000

> <Gold.PLP.part.metal>
0.0000

> <Gold.PLP.part.buried>
-7.3467

> <Gold.PLP.part.nonpolar>
-25.3121

> <Gold.PLP.part.repulsive>
0.2289

> <Gold.PLP.ligand.clash>
0.0000

> <Gold.PLP.ligand.torsion>
1.4093

> <Gold.PLP.Chemscore.Hbond>
2.3520

> <Gold.PLP.Chemscore.CHOScore>
1.0000

> <Gold.PLP.Chemscore.Metal>
0.0000

> <Gold.Chemscore.Hbonds>
donor molecule, donor type, donor heavy atom, donor atom, acceptor molecule, acceptor atom, score
      L1  H     1    20       P1 10171  0.35
      L1  H     1    21       P1 10175  1.00
      P1  H  7989  7998       L1    11  1.00
      L1  C     6    24       P1 10175  1.00

> <Gold.PLP.Chemscore.Internal.Correction>
0.1825

> <Gold.Rescore>
     Score         DG    S(hbond)    S(metal)    S(lipo)     H(rot)  DE(clash)    DE(int)     intcor
     14.79     -16.21       2.18        0.00      84.38       2.51       0.02       1.41       ----

> <Gold.Chemscore.Fitness>
14.7863

> <Gold.Chemscore.DG>
-16.2106

> <Gold.Chemscore.ZeroCoef>
-5.4800

> <Gold.Chemscore.Hbond>
2.1810

> <Gold.Chemscore.Metal>
0.0000

> <Gold.Chemscore.Lipo>
84.3793

> <Gold.Chemscore.Internal_Hbond>
0.0000

> <Gold.Chemscore.DEClash>
0.0153

> <Gold.Chemscore.DEInternal>
1.4090

> <Gold.Chemscore.Rot>
2.5103

> <Gold.Chemscore.Internal.Correction>
   9.000000E+99

> <Gold.Chemscore.Hbonds>
donor molecule, donor type, donor heavy atom, donor atom, acceptor molecule, acceptor atom, score
      L1  H     1    20       P1 10171  0.35
      L1  H     1    21       P1 10175  0.98
      P1  H  7989  7998       L1    11  0.89

> <Gold.Chemscore.Hbond.Weighted>
-7.2846

> <Gold.Chemscore.Metal.Weighted>
-0.0000

> <Gold.Chemscore.Lipo.Weighted>
-9.8724

> <Gold.Chemscore.Internal_Hbond.Weighted>
0.0000

> <Gold.Chemscore.DEClash.Weighted>
0.0153

> <Gold.Chemscore.DEInternal.Weighted>
1.4090

> <Gold.Chemscore.Rot.Weighted>
6.4264

> <Gold.Chemscore.Internal.Correction.Weighted>
   9.000000E+99

> <Gold.Protein.RotatedTorsions>
[ 6907 6896 6895 6894 ] final   43.61 input  -60.11 | X-H torsion
[ 7974 7965 7964 7962 ] final  150.72 input  175.53 | X-H torsion
[ 8008 7997 7996 7995 ] final -155.40 input   59.86 | X-H torsion
[ 10167 10162 10161 10158 ] final  149.65 input  -65.29 | X-H torsion
[ 10718 10713 10712 10709 ] final   -1.77 input   66.30 | X-H torsion
[ 10763 10752 10751 10750 ] final   78.05 input  -60.55 | X-H torsion
[ 11005 11000 10999 10996 ] final   52.49 input  -57.11 | X-H torsion

> <Gold.Protein.ActiveResidues>
 VAL166  LYS551  ARG553  GLY616  TRP617  ASP618  TYR619  PRO620  LYS621  CYS622 
 ASP623  PHE694  ASN695  SER759  ASP760  ASP761  ALA762  ILE779  LEU786  VAL792 
 PHE793  MET794  SER795  GLU796  ALA797  LYS798  CYS799  TRP800  GLU811  SER814 

> <Gold.Protein.RotatedAtoms>
  152.2224  134.8400  160.0483 H   0  0  0  0  0  0  0  0  0  0  0  0  # atno 6907 bound_to 6896
  151.9179  133.3573  159.3894 H   0  0  0  0  0  0  0  0  0  0  0  0  # atno 6908 bound_to 6896
  150.7003  134.4591  159.5416 H   0  0  0  0  0  0  0  0  0  0  0  0  # atno 6909 bound_to 6896
  144.8344  139.6445  143.6044 H   0  0  0  0  0  0  0  0  0  0  0  0  # atno 7974 bound_to 7965
  155.7012  140.0767  157.2409 H   0  0  0  0  0  0  0  0  0  0  0  0  # atno 8008 bound_to 7997
  154.4073  140.1647  156.2246 H   0  0  0  0  0  0  0  0  0  0  0  0  # atno 8009 bound_to 7997
  155.9366  140.3387  155.6295 H   0  0  0  0  0  0  0  0  0  0  0  0  # atno 8010 bound_to 7997
  139.4859  144.5585  151.7274 H   0  0  0  0  0  0  0  0  0  0  0  0  # atno 10167 bound_to 10162
  156.8006  130.5392  149.5722 H   0  0  0  0  0  0  0  0  0  0  0  0  # atno 10718 bound_to 10713
  153.0845  135.4891  154.8569 H   0  0  0  0  0  0  0  0  0  0  0  0  # atno 10763 bound_to 10752
  154.7193  135.3036  154.9075 H   0  0  0  0  0  0  0  0  0  0  0  0  # atno 10764 bound_to 10752
  153.9745  135.6797  153.4801 H   0  0  0  0  0  0  0  0  0  0  0  0  # atno 10765 bound_to 10752
  140.0844  134.5294  155.8913 H   0  0  0  0  0  0  0  0  0  0  0  0  # atno 11005 bound_to 11000
  146.2644  139.6485  142.9340 LP  0  0  0  0  0  0  0  0  0  0  0  0  # atno 17320 bound_to 7965
  145.4827  141.0438  143.2637 LP  0  0  0  0  0  0  0  0  0  0  0  0  # atno 17321 bound_to 7965
  140.5151  144.0966  150.6006 LP  0  0  0  0  0  0  0  0  0  0  0  0  # atno 17342 bound_to 10162
  140.3904  143.2755  152.0066 LP  0  0  0  0  0  0  0  0  0  0  0  0  # atno 17343 bound_to 10162
  156.1103  130.6035  151.0037 LP  0  0  0  0  0  0  0  0  0  0  0  0  # atno 17370 bound_to 10713
  157.6555  131.0890  150.7956 LP  0  0  0  0  0  0  0  0  0  0  0  0  # atno 17371 bound_to 10713
  141.2058  133.6649  156.6201 LP  0  0  0  0  0  0  0  0  0  0  0  0  # atno 17394 bound_to 11000
  140.3441  134.7824  157.4419 LP  0  0  0  0  0  0  0  0  0  0  0  0  # atno 17395 bound_to 11000

$$$$
