AV-unprocessed.smi:356|AV-procd|sdf|2415|dock8
  -GOLD-   2262022353D 1   1.00000     0.00000
 Structure written by MMmdl.
 43 45  0  0  0  0  0  0  0  0  3 V2000
  150.8071  145.6017  159.3888 C   0  0  0  0  0  0  0  0  0  0  0  0
  151.5859  144.6614  160.2459 C   0  0  0  0  0  0  0  0  0  0  0  0
  151.8020  144.7899  161.5851 N   0  3  0  0  0  0  0  0  0  0  0  0
  152.5711  143.7200  162.0442 C   0  0  0  0  0  0  0  0  0  0  0  0
  153.0420  143.4188  163.3186 C   0  0  0  0  0  0  0  0  0  0  0  0
  153.8090  142.2427  163.4484 C   0  0  0  0  0  0  0  0  0  0  0  0
  154.0798  141.4173  162.3378 C   0  0  0  0  0  0  0  0  0  0  0  0
  153.5951  141.7316  161.0509 C   0  0  0  0  0  0  0  0  0  0  0  0
  152.8381  142.8974  160.9298 C   0  0  0  0  0  0  0  0  0  0  0  0
  152.2117  143.5191  159.8414 N   0  0  0  0  0  0  0  0  0  0  0  0
  152.2975  142.9163  158.5010 C   0  0  0  0  0  0  0  0  0  0  0  0
  151.0455  142.0942  158.1343 C   0  0  1  0  0  0  0  0  0  0  0  0
  149.9164  142.6266  158.8000 O   0  0  0  0  0  0  0  0  0  0  0  0
  150.7763  142.1034  156.6163 C   0  0  0  0  0  0  0  0  0  0  0  0
  150.3267  140.7816  156.1083 N   0  3  0  0  0  0  0  0  0  0  0  0
  149.5092  140.8938  154.8771 C   0  0  0  0  0  0  0  0  0  0  0  0
  149.0142  139.5072  154.4318 C   0  0  0  0  0  0  0  0  0  0  0  0
  150.1271  138.6441  154.2346 O   0  0  0  0  0  0  0  0  0  0  0  0
  150.8746  138.4579  155.4299 C   0  0  0  0  0  0  0  0  0  0  0  0
  151.4309  139.8104  155.9080 C   0  0  0  0  0  0  0  0  0  0  0  0
  150.4577  146.4533  159.9729 H   0  0  0  0  0  0  0  0  0  0  0  0
  149.9411  145.0933  158.9646 H   0  0  0  0  0  0  0  0  0  0  0  0
  151.4281  145.9727  158.5735 H   0  0  0  0  0  0  0  0  0  0  0  0
  152.8353  144.0500  164.1707 H   0  0  0  0  0  0  0  0  0  0  0  0
  154.1976  141.9687  164.4187 H   0  0  0  0  0  0  0  0  0  0  0  0
  154.6727  140.5245  162.4759 H   0  0  0  0  0  0  0  0  0  0  0  0
  153.8125  141.0906  160.2102 H   0  0  0  0  0  0  0  0  0  0  0  0
  152.4925  143.6958  157.7643 H   0  0  0  0  0  0  0  0  0  0  0  0
  153.1771  142.2715  158.4965 H   0  0  0  0  0  0  0  0  0  0  0  0
  151.1910  141.0728  158.4840 H   0  0  0  0  0  0  0  0  0  0  0  0
  149.8764  142.2601  159.6702 H   0  0  0  0  0  0  0  0  0  0  0  0
  150.0150  142.8563  156.4052 H   0  0  0  0  0  0  0  0  0  0  0  0
  151.6682  142.4139  156.0696 H   0  0  0  0  0  0  0  0  0  0  0  0
  148.6534  141.5454  155.0573 H   0  0  0  0  0  0  0  0  0  0  0  0
  150.1027  141.3526  154.0843 H   0  0  0  0  0  0  0  0  0  0  0  0
  148.3322  139.0805  155.1692 H   0  0  0  0  0  0  0  0  0  0  0  0
  148.4608  139.5889  153.4961 H   0  0  0  0  0  0  0  0  0  0  0  0
  150.2495  137.9992  156.1976 H   0  0  0  0  0  0  0  0  0  0  0  0
  151.6921  137.7652  155.2296 H   0  0  0  0  0  0  0  0  0  0  0  0
  152.1352  140.2024  155.1725 H   0  0  0  0  0  0  0  0  0  0  0  0
  151.9858  139.6627  156.8335 H   0  0  0  0  0  0  0  0  0  0  0  0
  149.7178  140.3962  156.8167 H   0  0  0  0  0  0  0  0  0  0  0  0
  151.4484  145.5563  162.1436 H   0  0  0  0  0  0  0  0  0  0  0  0
  1  2  1  0  0  0  0
  1 21  1  0  0  0  0
  1 22  1  0  0  0  0
  1 23  1  0  0  0  0
  2 10  1  0  0  0  0
  2  3  2  0  0  0  0
  3  4  1  0  0  0  0
  3 43  1  0  0  0  0
  4  9  2  0  0  0  0
  4  5  1  0  0  0  0
  5  6  2  0  0  0  0
  5 24  1  0  0  0  0
  6  7  1  0  0  0  0
  6 25  1  0  0  0  0
  7  8  2  0  0  0  0
  7 26  1  0  0  0  0
  8  9  1  0  0  0  0
  8 27  1  0  0  0  0
  9 10  1  0  0  0  0
 10 11  1  0  0  0  0
 11 12  1  0  0  0  0
 11 28  1  0  0  0  0
 11 29  1  0  0  0  0
 12 13  1  0  0  0  0
 12 14  1  0  0  0  0
 12 30  1  0  0  0  0
 13 31  1  0  0  0  0
 14 15  1  0  0  0  0
 14 32  1  0  0  0  0
 14 33  1  0  0  0  0
 15 20  1  0  0  0  0
 15 16  1  0  0  0  0
 15 42  1  0  0  0  0
 16 17  1  0  0  0  0
 16 34  1  0  0  0  0
 16 35  1  0  0  0  0
 17 18  1  0  0  0  0
 17 36  1  0  0  0  0
 17 37  1  0  0  0  0
 18 19  1  0  0  0  0
 19 20  1  0  0  0  0
 19 38  1  0  0  0  0
 19 39  1  0  0  0  0
 20 40  1  0  0  0  0
 20 41  1  0  0  0  0
M  CHG  1   3   1
M  CHG  1  15   1
M  END
> <s_m_source_file>
AV-unprocessed.smi

> <i_m_source_file_index>
356

> <i_lp_mmshare_version>
43012

> <i_f3d_flags>
0

> <s_epik_input>
W2NIXTFbY0hdW2NIXVtjSF1jKGMxMiluKGMobjIpW0NIM10pW0NIMl1bQ0BIXShbT0hdKVtDSDJdTjNbQ0gyXVtDSDJdT1tDSDJdW0NIMl0z

> <s_epik_cmdline>
J2VwaWtfcHl0aG9uJywgJy1waCcsICc3LjAnLCAnLXRuJywgJzgnLCAnLW1hJywgJzIwMCcsICctbWV0YWxfYmluZGluZycsICctaW1hZScsICc8aW5maWxlLm1hZT4nLCAnLW9tYWUnLCAnPG91dGZpbGUubWFlPic=

> <r_epik_Ionization_Penalty>
1.81899

> <r_epik_Ionization_Penalty_Charging>
1.81898

> <r_epik_Ionization_Penalty_Neutral>
1.42224e-05

> <r_epik_State_Penalty>
1.87399

> <r_epik_Charging_Adjusted_Penalty>
3.69296

> <i_epik_Tot_Q>
2

> <i_epik_Tot_abs_Q>
2

> <r_epik_Metal_State_Penalty>
5.87601

> <b_epik_Metal_Only>
0

> <s_lp_Force_Field>
OPLS_2005

> <r_lp_Energy>
27.965

> <b_lp_Chiralities_Consistent>
1

> <s_lp_Variant>
AV-unprocessed.smi:356-8

> <Gold.Version>
5.8.1

> <Gold.Id.Protein>
6NUR|6NUR_protein|mol2

> <Gold.PLP.Fitness>
49.0954

> <Gold.PLP.PLP>
-52.0220

> <Gold.PLP.part.hbond>
-2.2730

> <Gold.PLP.part.metal>
0.0000

> <Gold.PLP.part.buried>
-4.3716

> <Gold.PLP.part.nonpolar>
-46.2281

> <Gold.PLP.part.repulsive>
0.3680

> <Gold.PLP.ligand.clash>
0.0000

> <Gold.PLP.ligand.torsion>
1.4760

> <Gold.PLP.Chemscore.Hbond>
0.0000

> <Gold.PLP.Chemscore.CHOScore>
0.0000

> <Gold.PLP.Chemscore.Metal>
0.0000

> <Gold.PLP.Chemscore.Internal.Correction>
0.0255

> <Gold.Rescore>
     Score         DG    S(hbond)    S(metal)    S(lipo)     H(rot)  DE(clash)    DE(int)     intcor
     12.14     -15.09       0.00        0.00     128.81       2.13       0.62       2.34       ----

> <Gold.Chemscore.Fitness>
12.1378

> <Gold.Chemscore.DG>
-15.0907

> <Gold.Chemscore.ZeroCoef>
-5.4800

> <Gold.Chemscore.Hbond>
0.0000

> <Gold.Chemscore.Metal>
0.0000

> <Gold.Chemscore.Lipo>
128.8058

> <Gold.Chemscore.Internal_Hbond>
0.0000

> <Gold.Chemscore.DEClash>
0.6151

> <Gold.Chemscore.DEInternal>
2.3378

> <Gold.Chemscore.Rot>
2.1327

> <Gold.Chemscore.Internal.Correction>
   9.000000E+99

> <Gold.Chemscore.Hbond.Weighted>
-0.0000

> <Gold.Chemscore.Metal.Weighted>
-0.0000

> <Gold.Chemscore.Lipo.Weighted>
-15.0703

> <Gold.Chemscore.Internal_Hbond.Weighted>
0.0000

> <Gold.Chemscore.DEClash.Weighted>
0.6151

> <Gold.Chemscore.DEInternal.Weighted>
2.3378

> <Gold.Chemscore.Rot.Weighted>
5.4596

> <Gold.Chemscore.Internal.Correction.Weighted>
   9.000000E+99

> <Gold.Protein.RotatedTorsions>
[ 6907 6896 6895 6894 ] final -160.18 input  -60.11 | X-H torsion
[ 7974 7965 7964 7962 ] final  -88.96 input  175.53 | X-H torsion
[ 8008 7997 7996 7995 ] final -141.22 input   59.86 | X-H torsion
[ 10167 10162 10161 10158 ] final  173.29 input  -65.29 | X-H torsion
[ 10718 10713 10712 10709 ] final    7.24 input   66.30 | X-H torsion
[ 10763 10752 10751 10750 ] final -123.12 input  -60.55 | X-H torsion
[ 11005 11000 10999 10996 ] final   58.74 input  -57.11 | X-H torsion

> <Gold.Protein.ActiveResidues>
 VAL166  LYS551  ARG553  GLY616  TRP617  ASP618  TYR619  PRO620  LYS621  CYS622 
 ASP623  PHE694  ASN695  SER759  ASP760  ASP761  ALA762  ILE779  LEU786  VAL792 
 PHE793  MET794  SER795  GLU796  ALA797  LYS798  CYS799  TRP800  GLU811  SER814 

> <Gold.Protein.RotatedAtoms>
  151.3451  133.3947  159.2674 H   0  0  0  0  0  0  0  0  0  0  0  0  # atno 6907 bound_to 6896
  150.9847  134.9195  159.7875 H   0  0  0  0  0  0  0  0  0  0  0  0  # atno 6908 bound_to 6896
  152.5228  134.3415  159.9271 H   0  0  0  0  0  0  0  0  0  0  0  0  # atno 6909 bound_to 6896
  145.4462  140.9560  143.2047 H   0  0  0  0  0  0  0  0  0  0  0  0  # atno 7974 bound_to 7965
  155.4742  140.0555  157.2975 H   0  0  0  0  0  0  0  0  0  0  0  0  # atno 8008 bound_to 7997
  154.4686  140.2030  156.0006 H   0  0  0  0  0  0  0  0  0  0  0  0  # atno 8009 bound_to 7997
  156.1017  140.3218  155.7956 H   0  0  0  0  0  0  0  0  0  0  0  0  # atno 8010 bound_to 7997
  139.5103  144.3277  152.0141 H   0  0  0  0  0  0  0  0  0  0  0  0  # atno 10167 bound_to 10162
  156.9339  130.5836  149.5650 H   0  0  0  0  0  0  0  0  0  0  0  0  # atno 10718 bound_to 10713
  154.8702  135.4109  154.2892 H   0  0  0  0  0  0  0  0  0  0  0  0  # atno 10763 bound_to 10752
  153.3771  135.7010  153.6599 H   0  0  0  0  0  0  0  0  0  0  0  0  # atno 10764 bound_to 10752
  153.5436  135.3643  155.2701 H   0  0  0  0  0  0  0  0  0  0  0  0  # atno 10765 bound_to 10752
  140.0355  134.5949  155.9450 H   0  0  0  0  0  0  0  0  0  0  0  0  # atno 11005 bound_to 11000
  144.8090  139.5997  143.7038 LP  0  0  0  0  0  0  0  0  0  0  0  0  # atno 17320 bound_to 7965
  146.2529  139.6239  142.9414 LP  0  0  0  0  0  0  0  0  0  0  0  0  # atno 17321 bound_to 7965
  140.2718  144.3956  150.6149 LP  0  0  0  0  0  0  0  0  0  0  0  0  # atno 17342 bound_to 10162
  140.6083  143.2168  151.6937 LP  0  0  0  0  0  0  0  0  0  0  0  0  # atno 17343 bound_to 10162
  156.0434  130.5514  150.8825 LP  0  0  0  0  0  0  0  0  0  0  0  0  # atno 17370 bound_to 10713
  157.5829  131.0946  150.9243 LP  0  0  0  0  0  0  0  0  0  0  0  0  # atno 17371 bound_to 10713
  141.1855  133.6555  156.5200 LP  0  0  0  0  0  0  0  0  0  0  0  0  # atno 17394 bound_to 11000
  140.4155  134.7234  157.4860 LP  0  0  0  0  0  0  0  0  0  0  0  0  # atno 17395 bound_to 11000

$$$$
