AV-unprocessed.smi:72|AV-procd|sdf|731|dock4
  -GOLD-   2262017 63D 1   1.00000     0.00000
 Structure written by MMmdl.
 28 29  0  0  0  0  0  0  0  0  2 V2000
  148.3314  136.7934  160.6591 N   0  0  0  0  0  0  0  0  0  0  0  0
  148.6738  136.9086  159.4512 C   0  0  0  0  0  0  0  0  0  0  0  0
  148.2974  138.0856  158.7008 N   0  0  0  0  0  0  0  0  0  0  0  0
  148.6152  138.1274  157.4435 C   0  0  0  0  0  0  0  0  0  0  0  0
  149.2871  137.0162  156.7754 N   0  0  0  0  0  0  0  0  0  0  0  0
  149.6801  137.0870  155.3035 C   0  0  2  0  0  0  0  0  0  0  0  0
  151.0759  137.1760  155.1896 O   0  0  0  0  0  0  0  0  0  0  0  0
  151.4974  138.4917  154.8315 C   0  0  2  0  0  0  0  0  0  0  0  0
  151.7204  139.3641  156.0889 C   0  0  0  0  0  0  0  0  0  0  0  0
  152.8688  138.9243  156.7823 O   0  0  0  0  0  0  0  0  0  0  0  0
  150.3454  138.9384  153.9264 C   0  0  2  0  0  0  0  0  0  0  0  0
  150.2427  140.3436  153.8024 O   0  0  0  0  0  0  0  0  0  0  0  0
  149.1128  138.3385  154.5897 C   0  0  1  0  0  0  0  0  0  0  0  0
  148.1712  137.9957  153.5924 O   0  0  0  0  0  0  0  0  0  0  0  0
  149.7478  135.9299  157.5715 C   0  0  0  0  0  0  0  0  0  0  0  0
  150.4468  135.0688  157.0378 O   0  0  0  0  0  0  0  0  0  0  0  0
  149.4125  135.8912  158.8910 N   0  5  0  0  0  0  0  0  0  0  0  0
  149.3373  136.1390  154.8857 H   0  0  0  0  0  0  0  0  0  0  0  0
  152.4236  138.4432  154.2570 H   0  0  0  0  0  0  0  0  0  0  0  0
  150.4928  138.5014  152.9370 H   0  0  0  0  0  0  0  0  0  0  0  0
  148.6872  139.0312  155.3178 H   0  0  0  0  0  0  0  0  0  0  0  0
  148.6568  135.9340  161.0770 H   0  0  0  0  0  0  0  0  0  0  0  0
  148.3955  138.9932  156.8189 H   0  0  0  0  0  0  0  0  0  0  0  0
  151.9132  140.3989  155.8071 H   0  0  0  0  0  0  0  0  0  0  0  0
  150.8538  139.3791  156.7480 H   0  0  0  0  0  0  0  0  0  0  0  0
  152.6359  138.1664  157.2966 H   0  0  0  0  0  0  0  0  0  0  0  0
  149.8612  140.5385  152.9599 H   0  0  0  0  0  0  0  0  0  0  0  0
  148.4232  137.1608  153.2263 H   0  0  0  0  0  0  0  0  0  0  0  0
  1  2  2  0  0  0  0
  1 22  1  0  0  0  0
  2 17  1  0  0  0  0
  2  3  1  0  0  0  0
  3  4  2  0  0  0  0
  4  5  1  0  0  0  0
  4 23  1  0  0  0  0
  5  6  1  0  0  0  0
  5 15  1  0  0  0  0
  6 18  1  0  0  0  0
  6 13  1  0  0  0  0
  6  7  1  0  0  0  0
  7  8  1  0  0  0  0
  8 19  1  0  0  0  0
  8  9  1  0  0  0  0
  8 11  1  0  0  0  0
  9 10  1  0  0  0  0
  9 24  1  0  0  0  0
  9 25  1  0  0  0  0
 10 26  1  0  0  0  0
 11 20  1  0  0  0  0
 11 12  1  0  0  0  0
 11 13  1  0  0  0  0
 12 27  1  0  0  0  0
 13 21  1  0  0  0  0
 13 14  1  0  0  0  0
 14 28  1  0  0  0  0
 15 16  2  0  0  0  0
 15 17  1  0  0  0  0
M  CHG  1  17  -1
M  END
> <s_m_source_file>
AV-unprocessed.smi

> <i_m_source_file_index>
72

> <i_lp_mmshare_version>
43012

> <i_f3d_flags>
0

> <s_epik_input>
W05IMl1jMW5bY0hdbihjKD1PKW4xKVtDQEBIXTJPW0NASF0oW0NIMl1bT0hdKVtDQEBIXShbT0hdKVtDQEhdMltPSF0=

> <s_epik_cmdline>
J2VwaWtfcHl0aG9uJywgJy1waCcsICc3LjAnLCAnLXRuJywgJzgnLCAnLW1hJywgJzIwMCcsICctbWV0YWxfYmluZGluZycsICctaW1hZScsICc8aW5maWxlLm1hZT4nLCAnLW9tYWUnLCAnPG91dGZpbGUubWFlPic=

> <r_lp_tautomer_probability>
7.17554e-07

> <r_epik_Ionization_Penalty>
12.8705

> <r_epik_Ionization_Penalty_Charging>
5.64144

> <r_epik_Ionization_Penalty_Neutral>
7.22905

> <r_epik_State_Penalty>
3.30104

> <r_epik_Charging_Adjusted_Penalty>
8.94249

> <i_epik_Tot_Q>
-1

> <i_epik_Tot_abs_Q>
1

> <r_epik_Metal_State_Penalty>
0.529074

> <b_epik_Metal_Only>
1

> <s_epik_Chemistry_Notes>
This compound contains an acetal/aminal-like group ( X-CH(R)-Y where X, Y are N, S, or O) that may be acid/base labile, releasing an aldehyde.

> <s_lp_Force_Field>
OPLS_2005

> <r_lp_Energy>
34.678

> <b_lp_Chiralities_Consistent>
1

> <s_lp_Variant>
AV-unprocessed.smi:72-69

> <Gold.Version>
5.8.1

> <Gold.Id.Protein>
6NUR|6NUR_protein|mol2

> <Gold.PLP.Fitness>
41.9775

> <Gold.PLP.PLP>
-22.5678

> <Gold.PLP.part.hbond>
-7.5630

> <Gold.PLP.part.metal>
0.0000

> <Gold.PLP.part.buried>
-2.8296

> <Gold.PLP.part.nonpolar>
-11.6932

> <Gold.PLP.part.repulsive>
0.1030

> <Gold.PLP.ligand.clash>
0.0000

> <Gold.PLP.ligand.torsion>
0.1172

> <Gold.PLP.Chemscore.Hbond>
6.5160

> <Gold.PLP.Chemscore.CHOScore>
0.0000

> <Gold.PLP.Chemscore.Metal>
0.0000

> <Gold.Chemscore.Hbonds>
donor molecule, donor type, donor heavy atom, donor atom, acceptor molecule, acceptor atom, score
      L1  H    12    27       P1  7957  0.96
      L1  H    14    28       P1  7948  0.98
      P1  H  6896  6907       L1    17  2.00
      P1  H  6931  6943       L1     1  0.95
      P1  H  7989  7998       L1    12  0.53
      P1  H  7997  8008       L1    10  1.00

> <Gold.PLP.Chemscore.Internal.Correction>
0.0960

> <Gold.Rescore>
     Score         DG    S(hbond)    S(metal)    S(lipo)     H(rot)  DE(clash)    DE(int)     intcor
     12.13     -13.59       4.57        0.00      27.26       4.04       0.05       1.41       ----

> <Gold.Chemscore.Fitness>
12.1334

> <Gold.Chemscore.DG>
-13.5926

> <Gold.Chemscore.ZeroCoef>
-5.4800

> <Gold.Chemscore.Hbond>
4.5707

> <Gold.Chemscore.Metal>
0.0000

> <Gold.Chemscore.Lipo>
27.2618

> <Gold.Chemscore.Internal_Hbond>
0.0000

> <Gold.Chemscore.DEClash>
0.0515

> <Gold.Chemscore.DEInternal>
1.4077

> <Gold.Chemscore.Rot>
4.0403

> <Gold.Chemscore.Internal.Correction>
   9.000000E+99

> <Gold.Chemscore.Hbonds>
donor molecule, donor type, donor heavy atom, donor atom, acceptor molecule, acceptor atom, score
      L1  H    12    27       P1  7957  0.92
      L1  H    14    28       P1  7948  0.93
      P1  H  6896  6907       L1    17  0.40
      P1  H  6931  6943       L1     1  0.35
      P1  H  7989  7998       L1    12  0.04
      P1  H  7997  8008       L1    10  0.85

> <Gold.Chemscore.Hbond.Weighted>
-15.2661

> <Gold.Chemscore.Metal.Weighted>
-0.0000

> <Gold.Chemscore.Lipo.Weighted>
-3.1896

> <Gold.Chemscore.Internal_Hbond.Weighted>
0.0000

> <Gold.Chemscore.DEClash.Weighted>
0.0515

> <Gold.Chemscore.DEInternal.Weighted>
1.4077

> <Gold.Chemscore.Rot.Weighted>
10.3431

> <Gold.Chemscore.Internal.Correction.Weighted>
   9.000000E+99

> <Gold.Protein.RotatedTorsions>
[ 6907 6896 6895 6894 ] final  -58.45 input  -60.11 | X-H torsion
[ 7974 7965 7964 7962 ] final  -64.92 input  175.53 | X-H torsion
[ 8008 7997 7996 7995 ] final  -55.17 input   59.86 | X-H torsion
[ 10167 10162 10161 10158 ] final  -53.04 input  -65.29 | X-H torsion
[ 10718 10713 10712 10709 ] final -167.47 input   66.30 | X-H torsion
[ 10763 10752 10751 10750 ] final   89.19 input  -60.55 | X-H torsion
[ 11005 11000 10999 10996 ] final  -87.01 input  -57.11 | X-H torsion

> <Gold.Protein.ActiveResidues>
 VAL166  LYS551  ARG553  GLY616  TRP617  ASP618  TYR619  PRO620  LYS621  CYS622 
 ASP623  PHE694  ASN695  SER759  ASP760  ASP761  ALA762  ILE779  LEU786  VAL792 
 PHE793  MET794  SER795  GLU796  ALA797  LYS798  CYS799  TRP800  GLU811  SER814 

> <Gold.Protein.RotatedAtoms>
  150.8006  134.7097  159.6596 H   0  0  0  0  0  0  0  0  0  0  0  0  # atno 6907 bound_to 6896
  152.4123  134.6100  160.0033 H   0  0  0  0  0  0  0  0  0  0  0  0  # atno 6908 bound_to 6896
  151.6339  133.3293  159.3151 H   0  0  0  0  0  0  0  0  0  0  0  0  # atno 6909 bound_to 6896
  145.7607  140.8863  143.0431 H   0  0  0  0  0  0  0  0  0  0  0  0  # atno 7974 bound_to 7965
  154.4186  140.1159  156.5434 H   0  0  0  0  0  0  0  0  0  0  0  0  # atno 8008 bound_to 7997
  155.6485  140.3496  155.4720 H   0  0  0  0  0  0  0  0  0  0  0  0  # atno 8009 bound_to 7997
  155.9812  140.1160  157.0714 H   0  0  0  0  0  0  0  0  0  0  0  0  # atno 8010 bound_to 7997
  140.6506  143.2563  151.4735 H   0  0  0  0  0  0  0  0  0  0  0  0  # atno 10167 bound_to 10162
  156.6829  130.9129  151.3059 H   0  0  0  0  0  0  0  0  0  0  0  0  # atno 10718 bound_to 10713
  153.1845  135.4479  155.0071 H   0  0  0  0  0  0  0  0  0  0  0  0  # atno 10763 bound_to 10752
  154.8051  135.3271  154.7453 H   0  0  0  0  0  0  0  0  0  0  0  0  # atno 10764 bound_to 10752
  153.7914  135.6970  153.4926 H   0  0  0  0  0  0  0  0  0  0  0  0  # atno 10765 bound_to 10752
  141.1622  133.7487  156.9245 H   0  0  0  0  0  0  0  0  0  0  0  0  # atno 11005 bound_to 11000
  144.6831  139.9719  143.7482 LP  0  0  0  0  0  0  0  0  0  0  0  0  # atno 17320 bound_to 7965
  146.0267  139.3298  143.0780 LP  0  0  0  0  0  0  0  0  0  0  0  0  # atno 17321 bound_to 7965
  139.5720  144.1906  152.1850 LP  0  0  0  0  0  0  0  0  0  0  0  0  # atno 17342 bound_to 10162
  140.1205  144.5378  150.6866 LP  0  0  0  0  0  0  0  0  0  0  0  0  # atno 17343 bound_to 10162
  157.7037  130.9361  150.0864 LP  0  0  0  0  0  0  0  0  0  0  0  0  # atno 17370 bound_to 10713
  156.1854  130.3652  149.8979 LP  0  0  0  0  0  0  0  0  0  0  0  0  # atno 17371 bound_to 10713
  140.1429  134.9282  157.2490 LP  0  0  0  0  0  0  0  0  0  0  0  0  # atno 17394 bound_to 11000
  140.2815  134.3344  155.7341 LP  0  0  0  0  0  0  0  0  0  0  0  0  # atno 17395 bound_to 11000

$$$$
