AV-unprocessed.smi:1368|AV-procd|sdf|5578|dock4
  -GOLD-   22720 5173D 1   1.00000     0.00000
 Structure written by MMmdl.
 47 49  0  0  0  0  0  0  0  0  2 V2000
  145.7933  131.0602  161.6071 C   0  0  0  0  0  0  0  0  0  0  0  0
  146.3955  132.4615  161.5868 C   0  0  0  0  0  0  0  0  0  0  0  0
  146.1413  133.2429  162.5026 O   0  0  0  0  0  0  0  0  0  0  0  0
  147.1678  132.7464  160.5223 N   0  0  0  0  0  0  0  0  0  0  0  0
  147.8564  133.9541  160.2266 C   0  0  0  0  0  0  0  0  0  0  0  0
  147.9011  134.9387  161.2336 C   0  0  0  0  0  0  0  0  0  0  0  0
  148.5537  136.1649  161.0047 C   0  0  0  0  0  0  0  0  0  0  0  0
  149.1631  136.4383  159.7639 C   0  0  0  0  0  0  0  0  0  0  0  0
  149.7814  137.6626  159.6255 O   0  0  0  0  0  0  0  0  0  0  0  0
  150.5283  137.9087  158.4413 C   0  0  0  0  0  0  0  0  0  0  0  0
  151.5798  138.9907  158.7327 C   0  0  1  0  0  0  0  0  0  0  0  0
  152.6937  138.3758  159.3496 O   0  0  0  0  0  0  0  0  0  0  0  0
  152.0392  139.7029  157.4446 C   0  0  0  0  0  0  0  0  0  0  0  0
  151.4356  141.0351  157.2768 N   0  0  0  0  0  0  0  0  0  0  0  0
  150.5713  141.4894  156.3250 C   0  0  0  0  0  0  0  0  0  0  0  0
  150.0093  140.7077  155.1854 C   0  0  0  0  0  0  0  0  0  0  0  0
  150.3141  142.7985  156.6029 N   0  3  0  0  0  0  0  0  0  0  0  0
  151.0179  143.1858  157.7439 C   0  0  0  0  0  0  0  0  0  0  0  0
  151.0752  144.4082  158.4065 C   0  0  0  0  0  0  0  0  0  0  0  0
  151.8925  144.4682  159.5543 C   0  0  0  0  0  0  0  0  0  0  0  0
  152.6119  143.3416  160.0026 C   0  0  0  0  0  0  0  0  0  0  0  0
  152.5476  142.1082  159.3212 C   0  0  0  0  0  0  0  0  0  0  0  0
  151.7390  142.0570  158.1855 C   0  0  0  0  0  0  0  0  0  0  0  0
  149.1010  135.4559  158.7443 C   0  0  0  0  0  0  0  0  0  0  0  0
  148.4503  134.2278  158.9719 C   0  0  0  0  0  0  0  0  0  0  0  0
  145.3582  130.8128  160.6383 H   0  0  0  0  0  0  0  0  0  0  0  0
  145.0079  130.9866  162.3603 H   0  0  0  0  0  0  0  0  0  0  0  0
  146.5612  130.3222  161.8404 H   0  0  0  0  0  0  0  0  0  0  0  0
  147.2106  132.0369  159.8054 H   0  0  0  0  0  0  0  0  0  0  0  0
  147.4403  134.7545  162.1932 H   0  0  0  0  0  0  0  0  0  0  0  0
  148.5859  136.9048  161.7911 H   0  0  0  0  0  0  0  0  0  0  0  0
  151.0027  137.0003  158.0648 H   0  0  0  0  0  0  0  0  0  0  0  0
  149.8422  138.2701  157.6735 H   0  0  0  0  0  0  0  0  0  0  0  0
  151.1628  139.7307  159.4168 H   0  0  0  0  0  0  0  0  0  0  0  0
  152.6649  137.4497  159.1609 H   0  0  0  0  0  0  0  0  0  0  0  0
  153.1252  139.7898  157.4057 H   0  0  0  0  0  0  0  0  0  0  0  0
  151.7546  139.1116  156.5735 H   0  0  0  0  0  0  0  0  0  0  0  0
  149.3004  141.3118  154.6188 H   0  0  0  0  0  0  0  0  0  0  0  0
  149.4920  139.8220  155.5541 H   0  0  0  0  0  0  0  0  0  0  0  0
  150.8090  140.3918  154.5154 H   0  0  0  0  0  0  0  0  0  0  0  0
  150.5235  145.2719  158.0655 H   0  0  0  0  0  0  0  0  0  0  0  0
  151.9674  145.3961  160.1024 H   0  0  0  0  0  0  0  0  0  0  0  0
  153.2253  143.4239  160.8883 H   0  0  0  0  0  0  0  0  0  0  0  0
  153.0982  141.2509  159.6786 H   0  0  0  0  0  0  0  0  0  0  0  0
  149.5415  135.6203  157.7729 H   0  0  0  0  0  0  0  0  0  0  0  0
  148.4073  133.5153  158.1628 H   0  0  0  0  0  0  0  0  0  0  0  0
  149.7003  143.3831  156.0504 H   0  0  0  0  0  0  0  0  0  0  0  0
  1  2  1  0  0  0  0
  1 26  1  0  0  0  0
  1 27  1  0  0  0  0
  1 28  1  0  0  0  0
  2  3  2  0  0  0  0
  2  4  1  0  0  0  0
  4  5  1  0  0  0  0
  4 29  1  0  0  0  0
  5 25  1  0  0  0  0
  5  6  2  0  0  0  0
  6  7  1  0  0  0  0
  6 30  1  0  0  0  0
  7  8  2  0  0  0  0
  7 31  1  0  0  0  0
  8  9  1  0  0  0  0
  8 24  1  0  0  0  0
  9 10  1  0  0  0  0
 10 11  1  0  0  0  0
 10 32  1  0  0  0  0
 10 33  1  0  0  0  0
 11 12  1  0  0  0  0
 11 13  1  0  0  0  0
 11 34  1  0  0  0  0
 12 35  1  0  0  0  0
 13 14  1  0  0  0  0
 13 36  1  0  0  0  0
 13 37  1  0  0  0  0
 14 23  1  0  0  0  0
 14 15  1  0  0  0  0
 15 16  1  0  0  0  0
 15 17  2  0  0  0  0
 16 38  1  0  0  0  0
 16 39  1  0  0  0  0
 16 40  1  0  0  0  0
 17 18  1  0  0  0  0
 17 47  1  0  0  0  0
 18 23  2  0  0  0  0
 18 19  1  0  0  0  0
 19 20  2  0  0  0  0
 19 41  1  0  0  0  0
 20 21  1  0  0  0  0
 20 42  1  0  0  0  0
 21 22  2  0  0  0  0
 21 43  1  0  0  0  0
 22 23  1  0  0  0  0
 22 44  1  0  0  0  0
 24 25  2  0  0  0  0
 24 45  1  0  0  0  0
 25 46  1  0  0  0  0
M  CHG  1  17   1
M  END
> <s_m_source_file>
AV-unprocessed.smi

> <i_m_source_file_index>
1368

> <i_lp_mmshare_version>
43012

> <i_f3d_flags>
0

> <s_epik_input>
W0NIM11DKD1PKVtOSF1jMVtjSF1bY0hdYyhbY0hdW2NIXTEpT1tDSDJdW0NASF0oW09IXSlbQ0gyXW4oYyhuMilbQ0gzXSljKGMyMylbY0hdW2NIXVtjSF1bY0hdMw==

> <s_epik_cmdline>
J2VwaWtfcHl0aG9uJywgJy1waCcsICc3LjAnLCAnLXRuJywgJzgnLCAnLW1hJywgJzIwMCcsICctbWV0YWxfYmluZGluZycsICctaW1hZScsICc8aW5maWxlLm1hZT4nLCAnLW9tYWUnLCAnPG91dGZpbGUubWFlPic=

> <r_lp_tautomer_probability>
1

> <r_epik_Ionization_Penalty>
1.00673

> <r_epik_Ionization_Penalty_Charging>
1.00673

> <r_epik_Ionization_Penalty_Neutral>
2.60899e-06

> <r_epik_State_Penalty>
1.05579

> <r_epik_Charging_Adjusted_Penalty>
2.06252

> <i_epik_Tot_Q>
1

> <i_epik_Tot_abs_Q>
1

> <r_epik_Metal_State_Penalty>
1.15682

> <b_epik_Metal_Only>
0

> <s_lp_Force_Field>
OPLS_2005

> <r_lp_Energy>
24.3516

> <b_lp_Chiralities_Consistent>
1

> <s_lp_Variant>
AV-unprocessed.smi:1368-4

> <Gold.Version>
5.8.1

> <Gold.Id.Protein>
6NUR|6NUR_protein|mol2

> <Gold.PLP.Fitness>
50.4251

> <Gold.PLP.PLP>
-46.3641

> <Gold.PLP.part.hbond>
-2.0000

> <Gold.PLP.part.metal>
0.0000

> <Gold.PLP.part.buried>
-6.0072

> <Gold.PLP.part.nonpolar>
-38.2169

> <Gold.PLP.part.repulsive>
0.0843

> <Gold.PLP.ligand.clash>
0.0000

> <Gold.PLP.ligand.torsion>
1.0630

> <Gold.PLP.Chemscore.Hbond>
2.0010

> <Gold.PLP.Chemscore.CHOScore>
0.0000

> <Gold.PLP.Chemscore.Metal>
0.0000

> <Gold.Chemscore.Hbonds>
donor molecule, donor type, donor heavy atom, donor atom, acceptor molecule, acceptor atom, score
      L1  H    17    47       P1  8028  2.00

> <Gold.PLP.Chemscore.Internal.Correction>
0.1838

> <Gold.Rescore>
     Score         DG    S(hbond)    S(metal)    S(lipo)     H(rot)  DE(clash)    DE(int)     intcor
     14.27     -16.86       1.00        0.00     122.79       2.47       0.05       2.54       ----

> <Gold.Chemscore.Fitness>
14.2713

> <Gold.Chemscore.DG>
-16.8608

> <Gold.Chemscore.ZeroCoef>
-5.4800

> <Gold.Chemscore.Hbond>
1.0003

> <Gold.Chemscore.Metal>
0.0000

> <Gold.Chemscore.Lipo>
122.7948

> <Gold.Chemscore.Internal_Hbond>
0.0000

> <Gold.Chemscore.DEClash>
0.0504

> <Gold.Chemscore.DEInternal>
2.5391

> <Gold.Chemscore.Rot>
2.4715

> <Gold.Chemscore.Internal.Correction>
   9.000000E+99

> <Gold.Chemscore.Hbonds>
donor molecule, donor type, donor heavy atom, donor atom, acceptor molecule, acceptor atom, score
      L1  H    17    47       P1  8028  0.97

> <Gold.Chemscore.Hbond.Weighted>
-3.3409

> <Gold.Chemscore.Metal.Weighted>
-0.0000

> <Gold.Chemscore.Lipo.Weighted>
-14.3670

> <Gold.Chemscore.Internal_Hbond.Weighted>
0.0000

> <Gold.Chemscore.DEClash.Weighted>
0.0504

> <Gold.Chemscore.DEInternal.Weighted>
2.5391

> <Gold.Chemscore.Rot.Weighted>
6.3271

> <Gold.Chemscore.Internal.Correction.Weighted>
   9.000000E+99

> <Gold.Protein.RotatedTorsions>
[ 6907 6896 6895 6894 ] final   46.60 input  -60.11 | X-H torsion
[ 7974 7965 7964 7962 ] final  -76.57 input  175.53 | X-H torsion
[ 8008 7997 7996 7995 ] final   18.01 input   59.86 | X-H torsion
[ 10167 10162 10161 10158 ] final   60.98 input  -65.29 | X-H torsion
[ 10718 10713 10712 10709 ] final   88.59 input   66.30 | X-H torsion
[ 10763 10752 10751 10750 ] final  -51.57 input  -60.55 | X-H torsion
[ 11005 11000 10999 10996 ] final   47.49 input  -57.11 | X-H torsion

> <Gold.Protein.ActiveResidues>
 VAL166  LYS551  ARG553  GLY616  TRP617  ASP618  TYR619  PRO620  LYS621  CYS622 
 ASP623  PHE694  ASN695  SER759  ASP760  ASP761  ALA762  ILE779  LEU786  VAL792 
 PHE793  MET794  SER795  GLU796  ALA797  LYS798  CYS799  TRP800  GLU811  SER814 

> <Gold.Protein.RotatedAtoms>
  152.2583  134.8061  160.0434 H   0  0  0  0  0  0  0  0  0  0  0  0  # atno 6907 bound_to 6896
  151.8716  133.3472  159.3745 H   0  0  0  0  0  0  0  0  0  0  0  0  # atno 6908 bound_to 6896
  150.7107  134.5034  159.5616 H   0  0  0  0  0  0  0  0  0  0  0  0  # atno 6909 bound_to 6896
  145.6112  140.9386  143.1188 H   0  0  0  0  0  0  0  0  0  0  0  0  # atno 7974 bound_to 7965
  154.8997  140.2999  155.5324 H   0  0  0  0  0  0  0  0  0  0  0  0  # atno 8008 bound_to 7997
  156.3019  140.2409  156.3958 H   0  0  0  0  0  0  0  0  0  0  0  0  # atno 8009 bound_to 7997
  154.8534  140.0408  157.1607 H   0  0  0  0  0  0  0  0  0  0  0  0  # atno 8010 bound_to 7997
  140.1597  144.4382  150.6716 H   0  0  0  0  0  0  0  0  0  0  0  0  # atno 10167 bound_to 10162
  157.6950  131.0300  150.3298 H   0  0  0  0  0  0  0  0  0  0  0  0  # atno 10718 bound_to 10713
  154.1286  135.6523  153.4917 H   0  0  0  0  0  0  0  0  0  0  0  0  # atno 10763 bound_to 10752
  153.0202  135.5287  154.7024 H   0  0  0  0  0  0  0  0  0  0  0  0  # atno 10764 bound_to 10752
  154.6252  135.2969  155.0251 H   0  0  0  0  0  0  0  0  0  0  0  0  # atno 10765 bound_to 10752
  140.1274  134.4750  155.8548 H   0  0  0  0  0  0  0  0  0  0  0  0  # atno 11005 bound_to 11000
  144.7269  139.7847  143.7361 LP  0  0  0  0  0  0  0  0  0  0  0  0  # atno 17320 bound_to 7965
  146.1503  139.4584  143.0053 LP  0  0  0  0  0  0  0  0  0  0  0  0  # atno 17321 bound_to 7965
  140.6651  143.2265  151.5763 LP  0  0  0  0  0  0  0  0  0  0  0  0  # atno 17342 bound_to 10162
  139.5387  144.2708  152.1306 LP  0  0  0  0  0  0  0  0  0  0  0  0  # atno 17343 bound_to 10162
  156.3773  130.3874  149.7129 LP  0  0  0  0  0  0  0  0  0  0  0  0  # atno 17370 bound_to 10713
  156.4523  130.7912  151.2933 LP  0  0  0  0  0  0  0  0  0  0  0  0  # atno 17371 bound_to 10713
  141.2164  133.6783  156.7004 LP  0  0  0  0  0  0  0  0  0  0  0  0  # atno 17394 bound_to 11000
  140.2886  134.8259  157.3997 LP  0  0  0  0  0  0  0  0  0  0  0  0  # atno 17395 bound_to 11000

$$$$
