AV-unprocessed.smi:2100|AV-procd|sdf|8577|dock1
  -GOLD-   2272011303D 1   1.00000     0.00000
 Structure written by MMmdl.
 40 41  0  0  0  0  0  0  0  0  2 V2000
  152.1751  144.4583  158.0395 C   0  0  0  0  0  0  0  0  0  0  0  0
  151.8753  143.1576  158.7928 C   0  0  1  0  0  0  0  0  0  0  0  0
  151.0838  142.1590  157.9287 C   0  0  0  0  0  0  0  0  0  0  0  0
  150.9322  140.8663  158.6176 N   0  0  0  0  0  0  0  0  0  0  0  0
  149.7683  139.7362  157.9984 S   0  0  0  0  0  0  0  0  0  0  0  0
  148.4969  140.4702  157.8870 O   0  0  0  0  0  0  0  0  0  0  0  0
  150.3498  139.1776  156.7668 O   0  0  0  0  0  0  0  0  0  0  0  0
  149.8075  138.7077  159.2509 N   0  5  0  0  0  0  0  0  0  0  0  0
  149.6021  137.2908  159.0073 C   0  0  0  0  0  0  0  0  0  0  0  0
  148.1013  136.9521  159.1365 C   0  0  0  0  0  0  0  0  0  0  0  0
  147.6866  136.4536  160.5173 C   0  0  0  0  0  0  0  0  0  0  0  0
  147.4725  135.0755  160.7490 C   0  0  0  0  0  0  0  0  0  0  0  0
  147.0763  134.6603  162.0348 C   0  0  0  0  0  0  0  0  0  0  0  0
  146.9039  135.6320  163.0387 C   0  0  0  0  0  0  0  0  0  0  0  0
  147.1359  136.9822  162.7102 C   0  0  0  0  0  0  0  0  0  0  0  0
  147.5154  137.3918  161.4811 N   0  0  0  0  0  0  0  0  0  0  0  0
  152.1876  140.3389  159.1785 C   0  0  0  0  0  0  0  0  0  0  0  0
  152.9280  141.4192  159.9880 C   0  0  1  0  0  0  0  0  0  0  0  0
  154.3053  140.9412  160.4612 C   0  0  0  0  0  0  0  0  0  0  0  0
  153.1120  142.5765  159.1840 O   0  0  0  0  0  0  0  0  0  0  0  0
  151.2544  144.9516  157.7270 H   0  0  0  0  0  0  0  0  0  0  0  0
  152.7732  144.2691  157.1477 H   0  0  0  0  0  0  0  0  0  0  0  0
  152.7280  145.1551  158.6699 H   0  0  0  0  0  0  0  0  0  0  0  0
  151.2974  143.4037  159.6856 H   0  0  0  0  0  0  0  0  0  0  0  0
  150.1018  142.5699  157.6946 H   0  0  0  0  0  0  0  0  0  0  0  0
  151.5950  141.9928  156.9796 H   0  0  0  0  0  0  0  0  0  0  0  0
  149.9453  137.0048  158.0125 H   0  0  0  0  0  0  0  0  0  0  0  0
  150.1694  136.6779  159.7084 H   0  0  0  0  0  0  0  0  0  0  0  0
  147.5030  137.8311  158.8914 H   0  0  0  0  0  0  0  0  0  0  0  0
  147.8319  136.1918  158.4019 H   0  0  0  0  0  0  0  0  0  0  0  0
  147.6129  134.3529  159.9585 H   0  0  0  0  0  0  0  0  0  0  0  0
  146.9069  133.6150  162.2467 H   0  0  0  0  0  0  0  0  0  0  0  0
  146.6003  135.3497  164.0358 H   0  0  0  0  0  0  0  0  0  0  0  0
  147.0110  137.7545  163.4548 H   0  0  0  0  0  0  0  0  0  0  0  0
  151.9752  139.4807  159.8156 H   0  0  0  0  0  0  0  0  0  0  0  0
  152.8150  139.9827  158.3605 H   0  0  0  0  0  0  0  0  0  0  0  0
  152.3369  141.6842  160.8666 H   0  0  0  0  0  0  0  0  0  0  0  0
  154.2175  140.0584  161.0949 H   0  0  0  0  0  0  0  0  0  0  0  0
  154.8092  141.7163  161.0389 H   0  0  0  0  0  0  0  0  0  0  0  0
  154.9459  140.6854  159.6168 H   0  0  0  0  0  0  0  0  0  0  0  0
  1  2  1  0  0  0  0
  1 21  1  0  0  0  0
  1 22  1  0  0  0  0
  1 23  1  0  0  0  0
  2 20  1  0  0  0  0
  2  3  1  0  0  0  0
  2 24  1  0  0  0  0
  3  4  1  0  0  0  0
  3 25  1  0  0  0  0
  3 26  1  0  0  0  0
  4  5  1  0  0  0  0
  4 17  1  0  0  0  0
  5  6  2  0  0  0  0
  5  7  2  0  0  0  0
  5  8  1  0  0  0  0
  8  9  1  0  0  0  0
  9 10  1  0  0  0  0
  9 27  1  0  0  0  0
  9 28  1  0  0  0  0
 10 11  1  0  0  0  0
 10 29  1  0  0  0  0
 10 30  1  0  0  0  0
 11 16  1  0  0  0  0
 11 12  2  0  0  0  0
 12 13  1  0  0  0  0
 12 31  1  0  0  0  0
 13 14  2  0  0  0  0
 13 32  1  0  0  0  0
 14 15  1  0  0  0  0
 14 33  1  0  0  0  0
 15 16  2  0  0  0  0
 15 34  1  0  0  0  0
 17 18  1  0  0  0  0
 17 35  1  0  0  0  0
 17 36  1  0  0  0  0
 18 19  1  0  0  0  0
 18 20  1  0  0  0  0
 18 37  1  0  0  0  0
 19 38  1  0  0  0  0
 19 39  1  0  0  0  0
 19 40  1  0  0  0  0
M  CHG  1   8  -1
M  END
> <s_m_source_file>
AV-unprocessed.smi

> <i_m_source_file_index>
2100

> <i_lp_mmshare_version>
43012

> <i_f3d_flags>
0

> <s_epik_input>
W0NIM11bQ0BASF0xW0NIMl1OKFtDSDJdW0NASF0oTzEpW0NIM10pUyg9TykoPU8pW05IXVtDSDJdW0NIMl1jMltjSF1bY0hdW2NIXVtjSF1uMg==

> <s_epik_cmdline>
J2VwaWtfcHl0aG9uJywgJy1waCcsICc3LjAnLCAnLXRuJywgJzgnLCAnLW1hJywgJzIwMCcsICctbWV0YWxfYmluZGluZycsICctaW1hZScsICc8aW5maWxlLm1hZT4nLCAnLW9tYWUnLCAnPG91dGZpbGUubWFlPic=

> <r_epik_Ionization_Penalty>
1.27779

> <r_epik_Ionization_Penalty_Charging>
1.20871

> <r_epik_Ionization_Penalty_Neutral>
0.0690773

> <r_epik_State_Penalty>
1.64557

> <r_epik_Charging_Adjusted_Penalty>
2.85428

> <i_epik_Tot_Q>
-1

> <i_epik_Tot_abs_Q>
1

> <r_epik_Metal_State_Penalty>
0.643506

> <b_epik_Metal_Only>
0

> <s_lp_Force_Field>
OPLS_2005

> <r_lp_Energy>
4.91885

> <b_lp_Chiralities_Consistent>
1

> <s_lp_Variant>
AV-unprocessed.smi:2100-5

> <Gold.Version>
5.8.1

> <Gold.Id.Protein>
6NUR|6NUR_protein|mol2

> <Gold.PLP.Fitness>
47.4811

> <Gold.PLP.PLP>
-43.9792

> <Gold.PLP.part.hbond>
-3.1651

> <Gold.PLP.part.metal>
0.0000

> <Gold.PLP.part.buried>
-3.5397

> <Gold.PLP.part.nonpolar>
-37.2426

> <Gold.PLP.part.repulsive>
0.0000

> <Gold.PLP.ligand.clash>
0.0000

> <Gold.PLP.ligand.torsion>
2.4261

> <Gold.PLP.Chemscore.Hbond>
1.7520

> <Gold.PLP.Chemscore.CHOScore>
0.0000

> <Gold.PLP.Chemscore.Metal>
0.0000

> <Gold.Chemscore.Hbonds>
donor molecule, donor type, donor heavy atom, donor atom, acceptor molecule, acceptor atom, score
      P1  H  6931  6943       L1    16  0.85
      P1  H  6934  6947       L1    16  0.82

> <Gold.PLP.Chemscore.Internal.Correction>
3.0981

> <Gold.Rescore>
     Score         DG    S(hbond)    S(metal)    S(lipo)     H(rot)  DE(clash)    DE(int)     intcor
     16.05     -18.56       0.99        0.00     111.94       1.30       0.24       2.27       ----

> <Gold.Chemscore.Fitness>
16.0494

> <Gold.Chemscore.DG>
-18.5560

> <Gold.Chemscore.ZeroCoef>
-5.4800

> <Gold.Chemscore.Hbond>
0.9931

> <Gold.Chemscore.Metal>
0.0000

> <Gold.Chemscore.Lipo>
111.9401

> <Gold.Chemscore.Internal_Hbond>
0.0000

> <Gold.Chemscore.DEClash>
0.2383

> <Gold.Chemscore.DEInternal>
2.2683

> <Gold.Chemscore.Rot>
1.3039

> <Gold.Chemscore.Internal.Correction>
   9.000000E+99

> <Gold.Chemscore.Hbonds>
donor molecule, donor type, donor heavy atom, donor atom, acceptor molecule, acceptor atom, score
      P1  H  6931  6943       L1    16  0.19
      P1  H  6934  6947       L1    16  0.75

> <Gold.Chemscore.Hbond.Weighted>
-3.3170

> <Gold.Chemscore.Metal.Weighted>
-0.0000

> <Gold.Chemscore.Lipo.Weighted>
-13.0970

> <Gold.Chemscore.Internal_Hbond.Weighted>
0.0000

> <Gold.Chemscore.DEClash.Weighted>
0.2383

> <Gold.Chemscore.DEInternal.Weighted>
2.2683

> <Gold.Chemscore.Rot.Weighted>
3.3379

> <Gold.Chemscore.Internal.Correction.Weighted>
   9.000000E+99

> <Gold.Protein.RotatedTorsions>
[ 6907 6896 6895 6894 ] final   20.96 input  -60.11 | X-H torsion
[ 7974 7965 7964 7962 ] final  -98.73 input  175.53 | X-H torsion
[ 8008 7997 7996 7995 ] final  158.86 input   59.86 | X-H torsion
[ 10167 10162 10161 10158 ] final   66.70 input  -65.29 | X-H torsion
[ 10718 10713 10712 10709 ] final -175.20 input   66.30 | X-H torsion
[ 10763 10752 10751 10750 ] final -158.30 input  -60.55 | X-H torsion
[ 11005 11000 10999 10996 ] final  -79.16 input  -57.11 | X-H torsion

> <Gold.Protein.ActiveResidues>
 VAL166  LYS551  ARG553  GLY616  TRP617  ASP618  TYR619  PRO620  LYS621  CYS622 
 ASP623  PHE694  ASN695  SER759  ASP760  ASP761  ALA762  ILE779  LEU786  VAL792 
 PHE793  MET794  SER795  GLU796  ALA797  LYS798  CYS799  TRP800  GLU811  SER814 

> <Gold.Protein.RotatedAtoms>
  151.9045  135.0365  160.0508 H   0  0  0  0  0  0  0  0  0  0  0  0  # atno 6907 bound_to 6896
  152.2331  133.5070  159.5235 H   0  0  0  0  0  0  0  0  0  0  0  0  # atno 6908 bound_to 6896
  150.7031  134.1106  159.4041 H   0  0  0  0  0  0  0  0  0  0  0  0  # atno 6909 bound_to 6896
  145.3168  140.9413  143.2738 H   0  0  0  0  0  0  0  0  0  0  0  0  # atno 7974 bound_to 7965
  156.2276  140.1847  156.7324 H   0  0  0  0  0  0  0  0  0  0  0  0  # atno 8008 bound_to 7997
  154.5967  140.0642  156.9341 H   0  0  0  0  0  0  0  0  0  0  0  0  # atno 8009 bound_to 7997
  155.2243  140.3310  155.4314 H   0  0  0  0  0  0  0  0  0  0  0  0  # atno 8010 bound_to 7997
  140.0976  144.4933  150.7058 H   0  0  0  0  0  0  0  0  0  0  0  0  # atno 10167 bound_to 10162
  156.7963  130.9536  151.3119 H   0  0  0  0  0  0  0  0  0  0  0  0  # atno 10718 bound_to 10713
  154.7568  135.3107  154.8455 H   0  0  0  0  0  0  0  0  0  0  0  0  # atno 10763 bound_to 10752
  153.9227  135.6794  153.4751 H   0  0  0  0  0  0  0  0  0  0  0  0  # atno 10764 bound_to 10752
  153.1166  135.4842  154.9055 H   0  0  0  0  0  0  0  0  0  0  0  0  # atno 10765 bound_to 10752
  141.1667  133.7094  156.8081 H   0  0  0  0  0  0  0  0  0  0  0  0  # atno 11005 bound_to 11000
  144.8971  139.4697  143.6650 LP  0  0  0  0  0  0  0  0  0  0  0  0  # atno 17320 bound_to 7965
  146.3097  139.7704  142.9029 LP  0  0  0  0  0  0  0  0  0  0  0  0  # atno 17321 bound_to 7965
  140.6995  143.2425  151.4904 LP  0  0  0  0  0  0  0  0  0  0  0  0  # atno 17342 bound_to 10162
  139.5689  144.1975  152.1807 LP  0  0  0  0  0  0  0  0  0  0  0  0  # atno 17343 bound_to 10162
  157.6576  130.8938  149.9761 LP  0  0  0  0  0  0  0  0  0  0  0  0  # atno 17370 bound_to 10713
  156.1128  130.3649  150.0019 LP  0  0  0  0  0  0  0  0  0  0  0  0  # atno 17371 bound_to 10713
  140.2207  134.8759  157.3374 LP  0  0  0  0  0  0  0  0  0  0  0  0  # atno 17394 bound_to 11000
  140.1990  134.4277  155.7673 LP  0  0  0  0  0  0  0  0  0  0  0  0  # atno 17395 bound_to 11000

$$$$
