AV-unprocessed.smi:155|AV-procd|sdf|1267|dock3
  -GOLD-   2262018523D 1   1.00000     0.00000
 Structure written by MMmdl.
 63 66  0  0  0  0  0  0  0  0  2 V2000
  150.1053  134.8068  154.9307 C   0  0  0  0  0  0  0  0  0  0  0  0
  149.4703  133.5020  155.0817 N   0  0  0  0  0  0  0  0  0  0  0  0
  150.5180  132.4969  155.2026 C   0  0  0  0  0  0  0  0  0  0  0  0
  148.6220  133.1735  153.9361 C   0  0  0  0  0  0  0  0  0  0  0  0
  147.2097  133.8073  153.9968 C   0  0  0  0  0  0  0  0  0  0  0  0
  146.3998  133.6694  152.7565 N   0  3  2  0  0  0  0  0  0  0  0  0
  146.6209  132.3942  152.0193 C   0  0  0  0  0  0  0  0  0  0  0  0
  145.7736  132.2539  150.7369 C   0  0  0  0  0  0  0  0  0  0  0  0
  144.2807  132.5981  150.9083 C   0  0  0  0  0  0  0  0  0  0  0  0
  144.0611  133.9646  151.3898 N   0  0  0  0  0  0  0  0  0  0  0  0
  142.9564  134.2357  152.1329 C   0  0  0  0  0  0  0  0  0  0  0  0
  142.0095  133.2681  152.2527 N   0  0  0  0  0  0  0  0  0  0  0  0
  140.9009  133.4872  152.9655 C   0  0  0  0  0  0  0  0  0  0  0  0
  140.5447  134.5835  153.6362 N   0  0  0  0  0  0  0  0  0  0  0  0
  141.4955  135.5549  153.5338 C   0  0  0  0  0  0  0  0  0  0  0  0
  142.7208  135.4676  152.8126 C   0  0  0  0  0  0  0  0  0  0  0  0
  143.4359  136.6512  152.9652 N   0  0  0  0  0  0  0  0  0  0  0  0
  142.6696  137.3993  153.7111 C   0  0  0  0  0  0  0  0  0  0  0  0
  141.4837  136.8183  154.0955 N   0  0  0  0  0  0  0  0  0  0  0  0
  140.4447  137.4137  154.9182 C   0  0  0  0  0  0  0  0  0  0  0  0
  139.5300  138.3648  154.1124 C   0  0  2  0  0  0  0  0  0  0  0  0
  140.3397  139.4202  153.6280 O   0  0  0  0  0  0  0  0  0  0  0  0
  138.3933  139.0079  154.9399 C   0  0  2  0  0  0  0  0  0  0  0  0
  137.3704  138.0205  155.5331 C   0  0  0  0  0  0  0  0  0  0  0  0
  136.2310  138.0436  154.5400 C   0  0  0  0  0  0  0  0  0  0  0  0
  136.2462  139.5019  154.1166 C   0  0  0  0  0  0  0  0  0  0  0  0
  137.6288  139.8208  154.0429 O   0  0  0  0  0  0  0  0  0  0  0  0
  145.0359  135.0174  151.0955 C   0  0  0  0  0  0  0  0  0  0  0  0
  146.3486  134.8930  151.9100 C   0  0  0  0  0  0  0  0  0  0  0  0
  149.3713  135.6111  154.9152 H   0  0  0  0  0  0  0  0  0  0  0  0
  150.6930  134.8605  154.0131 H   0  0  0  0  0  0  0  0  0  0  0  0
  150.7730  135.0029  155.7707 H   0  0  0  0  0  0  0  0  0  0  0  0
  150.0866  131.5060  155.3485 H   0  0  0  0  0  0  0  0  0  0  0  0
  151.1540  132.7073  156.0636 H   0  0  0  0  0  0  0  0  0  0  0  0
  151.1480  132.4677  154.3120 H   0  0  0  0  0  0  0  0  0  0  0  0
  149.1258  133.5067  153.0273 H   0  0  0  0  0  0  0  0  0  0  0  0
  148.5337  132.0910  153.8413 H   0  0  0  0  0  0  0  0  0  0  0  0
  146.6351  133.4571  154.8532 H   0  0  0  0  0  0  0  0  0  0  0  0
  147.3341  134.8776  154.1658 H   0  0  0  0  0  0  0  0  0  0  0  0
  147.6691  132.2952  151.7424 H   0  0  0  0  0  0  0  0  0  0  0  0
  146.3954  131.5674  152.6940 H   0  0  0  0  0  0  0  0  0  0  0  0
  146.2051  132.8641  149.9431 H   0  0  0  0  0  0  0  0  0  0  0  0
  145.8570  131.2281  150.3764 H   0  0  0  0  0  0  0  0  0  0  0  0
  143.7609  132.4741  149.9577 H   0  0  0  0  0  0  0  0  0  0  0  0
  143.8373  131.8857  151.6056 H   0  0  0  0  0  0  0  0  0  0  0  0
  140.1987  132.6673  153.0026 H   0  0  0  0  0  0  0  0  0  0  0  0
  142.9471  138.4025  154.0008 H   0  0  0  0  0  0  0  0  0  0  0  0
  139.8776  136.5959  155.3595 H   0  0  0  0  0  0  0  0  0  0  0  0
  140.9161  137.9482  155.7442 H   0  0  0  0  0  0  0  0  0  0  0  0
  139.1078  137.8289  153.2612 H   0  0  0  0  0  0  0  0  0  0  0  0
  140.1105  139.5778  152.7244 H   0  0  0  0  0  0  0  0  0  0  0  0
  138.8094  139.6247  155.7382 H   0  0  0  0  0  0  0  0  0  0  0  0
  137.7446  137.0147  155.7106 H   0  0  0  0  0  0  0  0  0  0  0  0
  137.0154  138.4027  156.4914 H   0  0  0  0  0  0  0  0  0  0  0  0
  136.4565  137.3985  153.6896 H   0  0  0  0  0  0  0  0  0  0  0  0
  135.2788  137.7317  154.9696 H   0  0  0  0  0  0  0  0  0  0  0  0
  135.7430  139.6721  153.1644 H   0  0  0  0  0  0  0  0  0  0  0  0
  135.7730  140.1286  154.8741 H   0  0  0  0  0  0  0  0  0  0  0  0
  145.2683  134.9644  150.0315 H   0  0  0  0  0  0  0  0  0  0  0  0
  144.5954  136.0057  151.2306 H   0  0  0  0  0  0  0  0  0  0  0  0
  146.4232  135.7705  152.5534 H   0  0  0  0  0  0  0  0  0  0  0  0
  147.2149  134.9292  151.2482 H   0  0  0  0  0  0  0  0  0  0  0  0
  145.4544  133.5861  153.1027 H   0  0  0  0  0  0  0  0  0  0  0  0
  1  2  1  0  0  0  0
  1 30  1  0  0  0  0
  1 31  1  0  0  0  0
  1 32  1  0  0  0  0
  2  3  1  0  0  0  0
  2  4  1  0  0  0  0
  3 33  1  0  0  0  0
  3 34  1  0  0  0  0
  3 35  1  0  0  0  0
  4  5  1  0  0  0  0
  4 36  1  0  0  0  0
  4 37  1  0  0  0  0
  5  6  1  0  0  0  0
  5 38  1  0  0  0  0
  5 39  1  0  0  0  0
  6 29  1  0  0  0  0
  6  7  1  0  0  0  0
  6 63  1  0  0  0  0
  7  8  1  0  0  0  0
  7 40  1  0  0  0  0
  7 41  1  0  0  0  0
  8  9  1  0  0  0  0
  8 42  1  0  0  0  0
  8 43  1  0  0  0  0
  9 10  1  0  0  0  0
  9 44  1  0  0  0  0
  9 45  1  0  0  0  0
 10 11  1  0  0  0  0
 10 28  1  0  0  0  0
 11 16  1  0  0  0  0
 11 12  2  0  0  0  0
 12 13  1  0  0  0  0
 13 14  2  0  0  0  0
 13 46  1  0  0  0  0
 14 15  1  0  0  0  0
 15 19  1  0  0  0  0
 15 16  2  0  0  0  0
 16 17  1  0  0  0  0
 17 18  2  0  0  0  0
 18 19  1  0  0  0  0
 18 47  1  0  0  0  0
 19 20  1  0  0  0  0
 20 21  1  0  0  0  0
 20 48  1  0  0  0  0
 20 49  1  0  0  0  0
 21 22  1  0  0  0  0
 21 23  1  0  0  0  0
 21 50  1  0  0  0  0
 22 51  1  0  0  0  0
 23 27  1  0  0  0  0
 23 24  1  0  0  0  0
 23 52  1  0  0  0  0
 24 25  1  0  0  0  0
 24 53  1  0  0  0  0
 24 54  1  0  0  0  0
 25 26  1  0  0  0  0
 25 55  1  0  0  0  0
 25 56  1  0  0  0  0
 26 27  1  0  0  0  0
 26 57  1  0  0  0  0
 26 58  1  0  0  0  0
 28 29  1  0  0  0  0
 28 59  1  0  0  0  0
 28 60  1  0  0  0  0
 29 61  1  0  0  0  0
 29 62  1  0  0  0  0
M  CHG  1   6   1
M  END
> <s_m_source_file>
AV-unprocessed.smi

> <i_m_source_file_index>
155

> <i_lp_mmshare_version>
43012

> <i_f3d_flags>
0

> <s_epik_input>
W0NIM11OKFtDSDNdKVtDSDJdW0NIMl1OMVtDSDJdW0NIMl1bQ0gyXU4oW0NIMl1bQ0gyXTEpYyhuW2NIXW4yKWMoYzIzKW5bY0hdbjNbQ0gyXVtDQEhdKFtPSF0pW0NAQEhdNFtDSDJdW0NIMl1bQ0gyXU80

> <s_epik_cmdline>
J2VwaWtfcHl0aG9uJywgJy1waCcsICc3LjAnLCAnLXRuJywgJzgnLCAnLW1hJywgJzIwMCcsICctbWV0YWxfYmluZGluZycsICctaW1hZScsICc8aW5maWxlLm1hZT4nLCAnLW9tYWUnLCAnPG91dGZpbGUubWFlPic=

> <r_epik_Ionization_Penalty>
0.0619615

> <r_epik_Ionization_Penalty_Charging>
0.0161638

> <r_epik_Ionization_Penalty_Neutral>
0.0457976

> <r_epik_State_Penalty>
0.403408

> <r_epik_Charging_Adjusted_Penalty>
0.419572

> <i_epik_Tot_Q>
1

> <i_epik_Tot_abs_Q>
1

> <r_epik_Metal_State_Penalty>
0.404222

> <b_epik_Metal_Only>
0

> <s_lp_Force_Field>
OPLS_2005

> <r_lp_Energy>
58.592

> <b_lp_Chiralities_Consistent>
1

> <s_lp_Variant>
AV-unprocessed.smi:155-1

> <Gold.Version>
5.8.1

> <Gold.Id.Protein>
6NUR|6NUR_protein|mol2

> <Gold.PLP.Fitness>
44.6115

> <Gold.PLP.PLP>
-38.3490

> <Gold.PLP.part.hbond>
-2.7605

> <Gold.PLP.part.metal>
0.0000

> <Gold.PLP.part.buried>
-2.3749

> <Gold.PLP.part.nonpolar>
-37.7463

> <Gold.PLP.part.repulsive>
1.9499

> <Gold.PLP.ligand.clash>
0.0000

> <Gold.PLP.ligand.torsion>
1.0027

> <Gold.PLP.Chemscore.Hbond>
1.6825

> <Gold.PLP.Chemscore.CHOScore>
1.0000

> <Gold.PLP.Chemscore.Metal>
0.0000

> <Gold.Chemscore.Hbonds>
donor molecule, donor type, donor heavy atom, donor atom, acceptor molecule, acceptor atom, score
      L1  H    22    51       P1 10160  0.80
      P1  H 11000 11005       L1    14  0.81
      L1  C    18    47       P1 10175  0.74

> <Gold.PLP.Chemscore.Internal.Correction>
0.2205

> <Gold.Rescore>
     Score         DG    S(hbond)    S(metal)    S(lipo)     H(rot)  DE(clash)    DE(int)     intcor
      9.36     -13.83       1.39        0.00      89.35       2.63       2.38       2.10       ----

> <Gold.Chemscore.Fitness>
9.3558

> <Gold.Chemscore.DG>
-13.8268

> <Gold.Chemscore.ZeroCoef>
-5.4800

> <Gold.Chemscore.Hbond>
1.3868

> <Gold.Chemscore.Metal>
0.0000

> <Gold.Chemscore.Lipo>
89.3485

> <Gold.Chemscore.Internal_Hbond>
0.0000

> <Gold.Chemscore.DEClash>
2.3755

> <Gold.Chemscore.DEInternal>
2.0955

> <Gold.Chemscore.Rot>
2.6324

> <Gold.Chemscore.Internal.Correction>
   9.000000E+99

> <Gold.Chemscore.Hbonds>
donor molecule, donor type, donor heavy atom, donor atom, acceptor molecule, acceptor atom, score
      L1  H    22    51       P1 10160  0.75
      P1  H 11000 11005       L1    14  0.34

> <Gold.Chemscore.Hbond.Weighted>
-4.6319

> <Gold.Chemscore.Metal.Weighted>
-0.0000

> <Gold.Chemscore.Lipo.Weighted>
-10.4538

> <Gold.Chemscore.Internal_Hbond.Weighted>
0.0000

> <Gold.Chemscore.DEClash.Weighted>
2.3755

> <Gold.Chemscore.DEInternal.Weighted>
2.0955

> <Gold.Chemscore.Rot.Weighted>
6.7389

> <Gold.Chemscore.Internal.Correction.Weighted>
   9.000000E+99

> <Gold.Protein.RotatedTorsions>
[ 6907 6896 6895 6894 ] final -172.58 input  -60.11 | X-H torsion
[ 7974 7965 7964 7962 ] final  172.21 input  175.53 | X-H torsion
[ 8008 7997 7996 7995 ] final  153.19 input   59.86 | X-H torsion
[ 10167 10162 10161 10158 ] final   84.61 input  -65.29 | X-H torsion
[ 10718 10713 10712 10709 ] final   16.14 input   66.30 | X-H torsion
[ 10763 10752 10751 10750 ] final   44.66 input  -60.55 | X-H torsion
[ 11005 11000 10999 10996 ] final   27.97 input  -57.11 | X-H torsion

> <Gold.Protein.ActiveResidues>
 VAL166  LYS551  ARG553  GLY616  TRP617  ASP618  TYR619  PRO620  LYS621  CYS622 
 ASP623  PHE694  ASN695  SER759  ASP760  ASP761  ALA762  ILE779  LEU786  VAL792 
 PHE793  MET794  SER795  GLU796  ALA797  LYS798  CYS799  TRP800  GLU811  SER814 

> <Gold.Protein.RotatedAtoms>
  151.5423  133.3431  159.2937 H   0  0  0  0  0  0  0  0  0  0  0  0  # atno 6907 bound_to 6896
  150.8528  134.7861  159.7033 H   0  0  0  0  0  0  0  0  0  0  0  0  # atno 6908 bound_to 6896
  152.4570  134.5278  159.9853 H   0  0  0  0  0  0  0  0  0  0  0  0  # atno 6909 bound_to 6896
  144.7274  139.9464  143.6430 H   0  0  0  0  0  0  0  0  0  0  0  0  # atno 7974 bound_to 7965
  156.2594  140.2000  156.6451 H   0  0  0  0  0  0  0  0  0  0  0  0  # atno 8008 bound_to 7997
  154.6580  140.0564  157.0055 H   0  0  0  0  0  0  0  0  0  0  0  0  # atno 8009 bound_to 7997
  155.1319  140.3234  155.4475 H   0  0  0  0  0  0  0  0  0  0  0  0  # atno 8010 bound_to 7997
  139.9063  144.6299  150.8584 H   0  0  0  0  0  0  0  0  0  0  0  0  # atno 10167 bound_to 10162
  157.0636  130.6319  149.5791 H   0  0  0  0  0  0  0  0  0  0  0  0  # atno 10718 bound_to 10713
  152.9837  135.6064  154.3310 H   0  0  0  0  0  0  0  0  0  0  0  0  # atno 10763 bound_to 10752
  154.3013  135.2773  155.2611 H   0  0  0  0  0  0  0  0  0  0  0  0  # atno 10764 bound_to 10752
  154.4862  135.5904  153.6482 H   0  0  0  0  0  0  0  0  0  0  0  0  # atno 10765 bound_to 10752
  140.3205  134.2548  155.7718 H   0  0  0  0  0  0  0  0  0  0  0  0  # atno 11005 bound_to 11000
  146.0745  139.3733  143.0503 LP  0  0  0  0  0  0  0  0  0  0  0  0  # atno 17320 bound_to 7965
  145.7924  140.9808  143.1042 LP  0  0  0  0  0  0  0  0  0  0  0  0  # atno 17321 bound_to 7965
  140.7696  143.3399  151.2230 LP  0  0  0  0  0  0  0  0  0  0  0  0  # atno 17342 bound_to 10162
  139.6981  143.9578  152.2892 LP  0  0  0  0  0  0  0  0  0  0  0  0  # atno 17343 bound_to 10162
  155.9971  130.5042  150.7521 LP  0  0  0  0  0  0  0  0  0  0  0  0  # atno 17370 bound_to 10713
  157.4934  131.0913  151.0399 LP  0  0  0  0  0  0  0  0  0  0  0  0  # atno 17371 bound_to 10713
  141.2087  133.7769  157.0040 LP  0  0  0  0  0  0  0  0  0  0  0  0  # atno 17394 bound_to 11000
  140.0946  134.9572  157.1829 LP  0  0  0  0  0  0  0  0  0  0  0  0  # atno 17395 bound_to 11000

$$$$
