AV-unprocessed.smi:2355|AV-procd|sdf|9386|dock6
  -GOLD-   2272013 13D 1   1.00000     0.00000
 Structure written by MMmdl.
 48 49  0  0  0  0  0  0  0  0  1 V2000
  144.1608  132.7106  149.5330 C   0  0  0  0  0  0  0  0  0  0  0  0
  145.0978  132.2687  150.6371 C   0  0  0  0  0  0  0  0  0  0  0  0
  145.1166  130.9305  151.0741 C   0  0  0  0  0  0  0  0  0  0  0  0
  146.0083  130.5812  152.1070 C   0  0  0  0  0  0  0  0  0  0  0  0
  146.0828  129.1604  152.6257 C   0  0  0  0  0  0  0  0  0  0  0  0
  146.8383  131.4688  152.6948 N   0  0  0  0  0  0  0  0  0  0  0  0
  146.8282  132.7609  152.2832 C   0  0  0  0  0  0  0  0  0  0  0  0
  147.6634  133.7690  152.8346 N   0  0  0  0  0  0  0  0  0  0  0  0
  148.1033  133.8802  154.1004 C   0  0  0  0  0  0  0  0  0  0  0  0
  147.8308  133.1074  155.0200 O   0  0  0  0  0  0  0  0  0  0  0  0
  148.8848  134.9604  154.2511 N   0  0  0  0  0  0  0  0  0  0  0  0
  149.5079  135.3820  155.5056 C   0  0  1  0  0  0  0  0  0  0  0  0
  150.7320  134.4917  155.7826 C   0  0  0  0  0  0  0  0  0  0  0  0
  149.8380  136.9107  155.5018 C   0  0  2  0  0  0  0  0  0  0  0  0
  150.9824  137.2009  154.4959 C   0  0  0  0  0  0  0  0  0  0  0  0
  150.0922  137.4805  156.8464 N   0  0  0  0  0  0  0  0  0  0  0  0
  149.1721  136.9523  157.8602 C   0  0  0  0  0  0  0  0  0  0  0  0
  149.4417  137.5177  159.2649 C   0  0  0  0  0  0  0  0  0  0  0  0
  150.7845  137.2442  159.6396 O   0  0  0  0  0  0  0  0  0  0  0  0
  151.7172  137.8039  158.7257 C   0  0  0  0  0  0  0  0  0  0  0  0
  151.4634  137.2461  157.3144 C   0  0  0  0  0  0  0  0  0  0  0  0
  145.9657  133.1942  151.2513 C   0  0  0  0  0  0  0  0  0  0  0  0
  143.7816  131.8550  148.9734 H   0  0  0  0  0  0  0  0  0  0  0  0
  144.6760  133.3709  148.8348 H   0  0  0  0  0  0  0  0  0  0  0  0
  143.3117  133.2494  149.9538 H   0  0  0  0  0  0  0  0  0  0  0  0
  144.4650  130.1920  150.6299 H   0  0  0  0  0  0  0  0  0  0  0  0
  145.4881  128.4834  152.0118 H   0  0  0  0  0  0  0  0  0  0  0  0
  145.7089  129.1119  153.6488 H   0  0  0  0  0  0  0  0  0  0  0  0
  147.1140  128.8060  152.6193 H   0  0  0  0  0  0  0  0  0  0  0  0
  147.9586  134.4881  152.1912 H   0  0  0  0  0  0  0  0  0  0  0  0
  149.0559  135.5409  153.4431 H   0  0  0  0  0  0  0  0  0  0  0  0
  148.7724  135.1614  156.2779 H   0  0  0  0  0  0  0  0  0  0  0  0
  151.2035  134.7519  156.7305 H   0  0  0  0  0  0  0  0  0  0  0  0
  151.4855  134.5815  155.0000 H   0  0  0  0  0  0  0  0  0  0  0  0
  150.4445  133.4417  155.8412 H   0  0  0  0  0  0  0  0  0  0  0  0
  148.9544  137.4134  155.1051 H   0  0  0  0  0  0  0  0  0  0  0  0
  150.8433  136.6900  153.5440 H   0  0  0  0  0  0  0  0  0  0  0  0
  151.9504  136.8945  154.8936 H   0  0  0  0  0  0  0  0  0  0  0  0
  151.0452  138.2600  154.2483 H   0  0  0  0  0  0  0  0  0  0  0  0
  148.1417  137.1975  157.6081 H   0  0  0  0  0  0  0  0  0  0  0  0
  149.2404  135.8638  157.8900 H   0  0  0  0  0  0  0  0  0  0  0  0
  149.2587  138.5931  159.2911 H   0  0  0  0  0  0  0  0  0  0  0  0
  148.7700  137.0610  159.9919 H   0  0  0  0  0  0  0  0  0  0  0  0
  151.6362  138.8921  158.7305 H   0  0  0  0  0  0  0  0  0  0  0  0
  152.7270  137.5571  159.0534 H   0  0  0  0  0  0  0  0  0  0  0  0
  151.6816  136.1771  157.3023 H   0  0  0  0  0  0  0  0  0  0  0  0
  152.1838  137.7255  156.6550 H   0  0  0  0  0  0  0  0  0  0  0  0
  145.9664  134.2269  150.9330 H   0  0  0  0  0  0  0  0  0  0  0  0
  1  2  1  0  0  0  0
  1 23  1  0  0  0  0
  1 24  1  0  0  0  0
  1 25  1  0  0  0  0
  2 22  1  0  0  0  0
  2  3  2  0  0  0  0
  3  4  1  0  0  0  0
  3 26  1  0  0  0  0
  4  5  1  0  0  0  0
  4  6  2  0  0  0  0
  5 27  1  0  0  0  0
  5 28  1  0  0  0  0
  5 29  1  0  0  0  0
  6  7  1  0  0  0  0
  7  8  1  0  0  0  0
  7 22  2  0  0  0  0
  8  9  1  0  0  0  0
  8 30  1  0  0  0  0
  9 10  2  0  0  0  0
  9 11  1  0  0  0  0
 11 12  1  0  0  0  0
 11 31  1  0  0  0  0
 12 13  1  0  0  0  0
 12 14  1  0  0  0  0
 12 32  1  0  0  0  0
 13 33  1  0  0  0  0
 13 34  1  0  0  0  0
 13 35  1  0  0  0  0
 14 15  1  0  0  0  0
 14 16  1  0  0  0  0
 14 36  1  0  0  0  0
 15 37  1  0  0  0  0
 15 38  1  0  0  0  0
 15 39  1  0  0  0  0
 16 21  1  0  0  0  0
 16 17  1  0  0  0  0
 17 18  1  0  0  0  0
 17 40  1  0  0  0  0
 17 41  1  0  0  0  0
 18 19  1  0  0  0  0
 18 42  1  0  0  0  0
 18 43  1  0  0  0  0
 19 20  1  0  0  0  0
 20 21  1  0  0  0  0
 20 44  1  0  0  0  0
 20 45  1  0  0  0  0
 21 46  1  0  0  0  0
 21 47  1  0  0  0  0
 22 48  1  0  0  0  0
M  END
> <s_m_source_file>
AV-unprocessed.smi

> <i_m_source_file_index>
2355

> <i_lp_mmshare_version>
43012

> <i_f3d_flags>
0

> <s_epik_input>
W0NIM11jMVtjSF1jKFtDSDNdKW5jKFtjSF0xKVtOSF1DKD1PKVtOSF1bQ0BIXShbQ0gzXSlbQ0BIXShbQ0gzXSlOMltDSDJdW0NIMl1PW0NIMl1bQ0gyXTI=

> <s_epik_cmdline>
J2VwaWtfcHl0aG9uJywgJy1waCcsICc3LjAnLCAnLXRuJywgJzgnLCAnLW1hJywgJzIwMCcsICctbWV0YWxfYmluZGluZycsICctaW1hZScsICc8aW5maWxlLm1hZT4nLCAnLW9tYWUnLCAnPG91dGZpbGUubWFlPic=

> <r_epik_Ionization_Penalty>
0.266238

> <r_epik_Ionization_Penalty_Charging>
0

> <r_epik_Ionization_Penalty_Neutral>
0.266238

> <r_epik_State_Penalty>
0.257924

> <r_epik_Charging_Adjusted_Penalty>
0.257924

> <i_epik_Tot_Q>
0

> <i_epik_Tot_abs_Q>
0

> <r_epik_Metal_State_Penalty>
0.257904

> <b_epik_Metal_Only>
0

> <s_lp_Force_Field>
OPLS_2005

> <r_lp_Energy>
33.1774

> <b_lp_Chiralities_Consistent>
1

> <s_lp_Variant>
AV-unprocessed.smi:2355-2

> <Gold.Version>
5.8.1

> <Gold.Id.Protein>
6NUR|6NUR_protein|mol2

> <Gold.PLP.Fitness>
41.5898

> <Gold.PLP.PLP>
-34.3734

> <Gold.PLP.part.hbond>
-3.0000

> <Gold.PLP.part.metal>
0.0000

> <Gold.PLP.part.buried>
-5.6768

> <Gold.PLP.part.nonpolar>
-25.8653

> <Gold.PLP.part.repulsive>
0.1487

> <Gold.PLP.ligand.clash>
0.0000

> <Gold.PLP.ligand.torsion>
0.9405

> <Gold.PLP.Chemscore.Hbond>
3.0000

> <Gold.PLP.Chemscore.CHOScore>
0.0000

> <Gold.PLP.Chemscore.Metal>
0.0000

> <Gold.Chemscore.Hbonds>
donor molecule, donor type, donor heavy atom, donor atom, acceptor molecule, acceptor atom, score
      L1  H     8    30       P1  7948  1.00
      L1  H    11    31       P1  7948  1.00
      P1  H  6896  6909       L1    19  0.62

> <Gold.PLP.Chemscore.Internal.Correction>
0.0975

> <Gold.Rescore>
     Score         DG    S(hbond)    S(metal)    S(lipo)     H(rot)  DE(clash)    DE(int)     intcor
     18.68     -20.56       2.53        0.00      87.37       1.40       0.01       1.88       ----

> <Gold.Chemscore.Fitness>
18.6769

> <Gold.Chemscore.DG>
-20.5616

> <Gold.Chemscore.ZeroCoef>
-5.4800

> <Gold.Chemscore.Hbond>
2.5291

> <Gold.Chemscore.Metal>
0.0000

> <Gold.Chemscore.Lipo>
87.3697

> <Gold.Chemscore.Internal_Hbond>
0.0000

> <Gold.Chemscore.DEClash>
0.0057

> <Gold.Chemscore.DEInternal>
1.8790

> <Gold.Chemscore.Rot>
1.4015

> <Gold.Chemscore.Internal.Correction>
   9.000000E+99

> <Gold.Chemscore.Hbonds>
donor molecule, donor type, donor heavy atom, donor atom, acceptor molecule, acceptor atom, score
      L1  H     8    30       P1  7948  0.24
      L1  H    11    31       P1  7948  0.65
      P1  H  6896  6909       L1    19  0.36

> <Gold.Chemscore.Hbond.Weighted>
-8.4471

> <Gold.Chemscore.Metal.Weighted>
-0.0000

> <Gold.Chemscore.Lipo.Weighted>
-10.2223

> <Gold.Chemscore.Internal_Hbond.Weighted>
0.0000

> <Gold.Chemscore.DEClash.Weighted>
0.0057

> <Gold.Chemscore.DEInternal.Weighted>
1.8790

> <Gold.Chemscore.Rot.Weighted>
3.5878

> <Gold.Chemscore.Internal.Correction.Weighted>
   9.000000E+99

> <Gold.Protein.RotatedTorsions>
[ 6907 6896 6895 6894 ] final  107.56 input  -60.11 | X-H torsion
[ 7974 7965 7964 7962 ] final  -95.96 input  175.53 | X-H torsion
[ 8008 7997 7996 7995 ] final  -21.12 input   59.86 | X-H torsion
[ 10167 10162 10161 10158 ] final   80.66 input  -65.29 | X-H torsion
[ 10718 10713 10712 10709 ] final -101.46 input   66.30 | X-H torsion
[ 10763 10752 10751 10750 ] final -134.18 input  -60.55 | X-H torsion
[ 11005 11000 10999 10996 ] final  -83.50 input  -57.11 | X-H torsion

> <Gold.Protein.ActiveResidues>
 VAL166  LYS551  ARG553  GLY616  TRP617  ASP618  TYR619  PRO620  LYS621  CYS622 
 ASP623  PHE694  ASN695  SER759  ASP760  ASP761  ALA762  ILE779  LEU786  VAL792 
 PHE793  MET794  SER795  GLU796  ALA797  LYS798  CYS799  TRP800  GLU811  SER814 

> <Gold.Protein.RotatedAtoms>
  152.5149  133.9217  159.7537 H   0  0  0  0  0  0  0  0  0  0  0  0  # atno 6907 bound_to 6896
  150.9587  133.6461  159.2765 H   0  0  0  0  0  0  0  0  0  0  0  0  # atno 6908 bound_to 6896
  151.3713  135.0928  159.9519 H   0  0  0  0  0  0  0  0  0  0  0  0  # atno 6909 bound_to 6896
  145.3532  140.9480  143.2543 H   0  0  0  0  0  0  0  0  0  0  0  0  # atno 7974 bound_to 7965
  154.4726  140.2043  155.9958 H   0  0  0  0  0  0  0  0  0  0  0  0  # atno 8008 bound_to 7997
  156.1036  140.3240  155.7945 H   0  0  0  0  0  0  0  0  0  0  0  0  # atno 8009 bound_to 7997
  155.4756  140.0534  157.2964 H   0  0  0  0  0  0  0  0  0  0  0  0  # atno 8010 bound_to 7997
  139.9474  144.6049  150.8193 H   0  0  0  0  0  0  0  0  0  0  0  0  # atno 10167 bound_to 10162
  156.0195  130.5374  150.6966 H   0  0  0  0  0  0  0  0  0  0  0  0  # atno 10718 bound_to 10713
  154.8723  135.3742  154.4693 H   0  0  0  0  0  0  0  0  0  0  0  0  # atno 10763 bound_to 10752
  153.5355  135.7027  153.5667 H   0  0  0  0  0  0  0  0  0  0  0  0  # atno 10764 bound_to 10752
  153.3852  135.3986  155.1850 H   0  0  0  0  0  0  0  0  0  0  0  0  # atno 10765 bound_to 10752
  141.1657  133.7297  156.8729 H   0  0  0  0  0  0  0  0  0  0  0  0  # atno 11005 bound_to 11000
  144.8702  139.5049  143.6771 LP  0  0  0  0  0  0  0  0  0  0  0  0  # atno 17320 bound_to 7965
  146.2959  139.7277  142.9127 LP  0  0  0  0  0  0  0  0  0  0  0  0  # atno 17321 bound_to 7965
  140.7593  143.3126  151.2809 LP  0  0  0  0  0  0  0  0  0  0  0  0  # atno 17342 bound_to 10162
  139.6655  144.0112  152.2720 LP  0  0  0  0  0  0  0  0  0  0  0  0  # atno 17343 bound_to 10162
  157.4636  131.0886  151.0719 LP  0  0  0  0  0  0  0  0  0  0  0  0  # atno 17370 bound_to 10713
  157.1200  130.6057  149.5502 LP  0  0  0  0  0  0  0  0  0  0  0  0  # atno 17371 bound_to 10713
  140.1768  134.9061  157.2901 LP  0  0  0  0  0  0  0  0  0  0  0  0  # atno 17394 bound_to 11000
  140.2439  134.3763  155.7469 LP  0  0  0  0  0  0  0  0  0  0  0  0  # atno 17395 bound_to 11000

$$$$
