AV-unprocessed.smi:2451|AV-procd|sdf|9677|dock5
  -GOLD-   2272013313D 1   1.00000     0.00000
 Structure written by MMmdl.
 37 38  0  0  0  0  0  0  0  0  2 V2000
  151.7767  145.9277  160.3975 C   0  0  0  0  0  0  0  0  0  0  0  0
  151.9506  144.3980  160.3661 C   0  0  2  0  0  0  0  0  0  0  0  0
  152.5232  143.9247  161.7262 C   0  0  0  0  0  0  0  0  0  0  0  0
  152.7346  142.3984  161.7291 C   0  0  0  0  0  0  0  0  0  0  0  0
  153.5979  141.9133  160.5386 C   0  0  0  0  0  0  0  0  0  0  0  0
  153.0641  142.3609  159.1571 C   0  0  1  0  0  0  0  0  0  0  0  0
  151.8278  141.6473  158.8587 N   0  5  0  0  0  0  0  0  0  0  0  0
  151.8798  140.1147  158.3310 S   0  0  0  0  0  0  0  0  0  0  0  0
  153.2042  139.4940  158.5009 O   0  0  0  0  0  0  0  0  0  0  0  0
  150.7120  139.3393  158.7797 O   0  0  0  0  0  0  0  0  0  0  0  0
  151.6523  140.3703  156.5160 C   0  0  0  0  0  0  0  0  0  0  0  0
  151.7463  139.0598  155.7820 C   0  0  0  0  0  0  0  0  0  0  0  0
  150.7284  138.3752  155.0605 C   0  0  0  0  0  0  0  0  0  0  0  0
  151.3587  137.2542  154.6040 C   0  0  0  0  0  0  0  0  0  0  0  0
  152.6516  137.2352  155.0152 O   0  0  0  0  0  0  0  0  0  0  0  0
  152.8885  138.3893  155.7706 N   0  0  0  0  0  0  0  0  0  0  0  0
  152.8263  143.9076  159.1600 C   0  0  1  0  0  0  0  0  0  0  0  0
  152.3321  144.4366  157.7896 C   0  0  0  0  0  0  0  0  0  0  0  0
  152.7413  146.4363  160.3997 H   0  0  0  0  0  0  0  0  0  0  0  0
  151.2338  146.2416  161.2895 H   0  0  0  0  0  0  0  0  0  0  0  0
  151.2062  146.2872  159.5418 H   0  0  0  0  0  0  0  0  0  0  0  0
  150.9480  143.9763  160.2658 H   0  0  0  0  0  0  0  0  0  0  0  0
  153.4746  144.4221  161.9197 H   0  0  0  0  0  0  0  0  0  0  0  0
  151.8540  144.2050  162.5401 H   0  0  0  0  0  0  0  0  0  0  0  0
  153.2114  142.1026  162.6639 H   0  0  0  0  0  0  0  0  0  0  0  0
  151.7645  141.8972  161.7224 H   0  0  0  0  0  0  0  0  0  0  0  0
  154.6083  142.3045  160.6632 H   0  0  0  0  0  0  0  0  0  0  0  0
  153.6961  140.8274  160.5697 H   0  0  0  0  0  0  0  0  0  0  0  0
  153.8354  142.1378  158.4186 H   0  0  0  0  0  0  0  0  0  0  0  0
  150.6733  140.8263  156.3691 H   0  0  0  0  0  0  0  0  0  0  0  0
  152.3997  141.0820  156.1667 H   0  0  0  0  0  0  0  0  0  0  0  0
  149.7026  138.6695  154.8951 H   0  0  0  0  0  0  0  0  0  0  0  0
  151.0383  136.4146  154.0052 H   0  0  0  0  0  0  0  0  0  0  0  0
  153.8117  144.3537  159.3028 H   0  0  0  0  0  0  0  0  0  0  0  0
  151.3011  144.1439  157.5846 H   0  0  0  0  0  0  0  0  0  0  0  0
  152.9485  144.0837  156.9601 H   0  0  0  0  0  0  0  0  0  0  0  0
  152.3733  145.5240  157.7462 H   0  0  0  0  0  0  0  0  0  0  0  0
  1  2  1  0  0  0  0
  1 19  1  0  0  0  0
  1 20  1  0  0  0  0
  1 21  1  0  0  0  0
  2 17  1  0  0  0  0
  2  3  1  0  0  0  0
  2 22  1  0  0  0  0
  3  4  1  0  0  0  0
  3 23  1  0  0  0  0
  3 24  1  0  0  0  0
  4  5  1  0  0  0  0
  4 25  1  0  0  0  0
  4 26  1  0  0  0  0
  5  6  1  0  0  0  0
  5 27  1  0  0  0  0
  5 28  1  0  0  0  0
  6  7  1  0  0  0  0
  6 17  1  0  0  0  0
  6 29  1  0  0  0  0
  7  8  1  0  0  0  0
  8  9  2  0  0  0  0
  8 10  2  0  0  0  0
  8 11  1  0  0  0  0
 11 12  1  0  0  0  0
 11 30  1  0  0  0  0
 11 31  1  0  0  0  0
 12 16  2  0  0  0  0
 12 13  1  0  0  0  0
 13 14  2  0  0  0  0
 13 32  1  0  0  0  0
 14 15  1  0  0  0  0
 14 33  1  0  0  0  0
 15 16  1  0  0  0  0
 17 18  1  0  0  0  0
 17 34  1  0  0  0  0
 18 35  1  0  0  0  0
 18 36  1  0  0  0  0
 18 37  1  0  0  0  0
M  CHG  1   7  -1
M  END
> <s_m_source_file>
AV-unprocessed.smi

> <i_m_source_file_index>
2451

> <i_lp_mmshare_version>
43012

> <i_f3d_flags>
0

> <s_epik_input>
W0NIM11bQ0BASF0xW0NIMl1bQ0gyXVtDSDJdW0NASF0oW0NASF0xW0NIM10pW05IXVMoPU8pKD1PKVtDSDJdYzJbY0hdW2NIXW9uMg==

> <s_epik_cmdline>
J2VwaWtfcHl0aG9uJywgJy1waCcsICc3LjAnLCAnLXRuJywgJzgnLCAnLW1hJywgJzIwMCcsICctbWV0YWxfYmluZGluZycsICctaW1hZScsICc8aW5maWxlLm1hZT4nLCAnLW9tYWUnLCAnPG91dGZpbGUubWFlPic=

> <r_lp_tautomer_probability>
1

> <r_epik_Ionization_Penalty>
5.22693

> <r_epik_Ionization_Penalty_Charging>
5.22693

> <r_epik_Ionization_Penalty_Neutral>
2.67702e-10

> <r_epik_State_Penalty>
5.22685

> <r_epik_Charging_Adjusted_Penalty>
10.4538

> <i_epik_Tot_Q>
-1

> <i_epik_Tot_abs_Q>
1

> <r_epik_Metal_State_Penalty>
1.28716

> <b_epik_Metal_Only>
1

> <s_lp_Force_Field>
OPLS_2005

> <r_lp_Energy>
15.2767

> <b_lp_Chiralities_Consistent>
1

> <s_lp_Variant>
AV-unprocessed.smi:2451-9

> <Gold.Version>
5.8.1

> <Gold.Id.Protein>
6NUR|6NUR_protein|mol2

> <Gold.PLP.Fitness>
53.2328

> <Gold.PLP.PLP>
-46.3024

> <Gold.PLP.part.hbond>
-2.4260

> <Gold.PLP.part.metal>
0.0000

> <Gold.PLP.part.buried>
-4.2055

> <Gold.PLP.part.nonpolar>
-40.3364

> <Gold.PLP.part.repulsive>
0.0838

> <Gold.PLP.ligand.clash>
0.0000

> <Gold.PLP.ligand.torsion>
0.8146

> <Gold.PLP.Chemscore.Hbond>
1.5120

> <Gold.PLP.Chemscore.CHOScore>
1.0108

> <Gold.PLP.Chemscore.Metal>
0.0000

> <Gold.Chemscore.Hbonds>
donor molecule, donor type, donor heavy atom, donor atom, acceptor molecule, acceptor atom, score
      P1  H  7997  8008       L1     9  0.75
      P1  H 10752 10764       L1    15  0.21
      L1  C    14    33       P1  7949  0.95

> <Gold.PLP.Chemscore.Internal.Correction>
0.9914

> <Gold.Rescore>
     Score         DG    S(hbond)    S(metal)    S(lipo)     H(rot)  DE(clash)    DE(int)     intcor
     16.17     -20.31       1.00        0.00     128.84       1.40       1.80       2.34       ----

> <Gold.Chemscore.Fitness>
16.1706

> <Gold.Chemscore.DG>
-20.3068

> <Gold.Chemscore.ZeroCoef>
-5.4800

> <Gold.Chemscore.Hbond>
0.9977

> <Gold.Chemscore.Metal>
0.0000

> <Gold.Chemscore.Lipo>
128.8439

> <Gold.Chemscore.Internal_Hbond>
0.0000

> <Gold.Chemscore.DEClash>
1.7984

> <Gold.Chemscore.DEInternal>
2.3378

> <Gold.Chemscore.Rot>
1.3986

> <Gold.Chemscore.Internal.Correction>
   9.000000E+99

> <Gold.Chemscore.Hbonds>
donor molecule, donor type, donor heavy atom, donor atom, acceptor molecule, acceptor atom, score
      P1  H  7997  8008       L1     9  0.58
      P1  H 10752 10764       L1    15  0.02

> <Gold.Chemscore.Hbond.Weighted>
-3.3324

> <Gold.Chemscore.Metal.Weighted>
-0.0000

> <Gold.Chemscore.Lipo.Weighted>
-15.0747

> <Gold.Chemscore.Internal_Hbond.Weighted>
0.0000

> <Gold.Chemscore.DEClash.Weighted>
1.7984

> <Gold.Chemscore.DEInternal.Weighted>
2.3378

> <Gold.Chemscore.Rot.Weighted>
3.5804

> <Gold.Chemscore.Internal.Correction.Weighted>
   9.000000E+99

> <Gold.Protein.RotatedTorsions>
[ 6907 6896 6895 6894 ] final  120.26 input  -60.11 | X-H torsion
[ 7974 7965 7964 7962 ] final -119.00 input  175.53 | X-H torsion
[ 8008 7997 7996 7995 ] final  -75.87 input   59.86 | X-H torsion
[ 10167 10162 10161 10158 ] final  173.76 input  -65.29 | X-H torsion
[ 10718 10713 10712 10709 ] final   56.09 input   66.30 | X-H torsion
[ 10763 10752 10751 10750 ] final  -93.40 input  -60.55 | X-H torsion
[ 11005 11000 10999 10996 ] final   92.62 input  -57.11 | X-H torsion

> <Gold.Protein.ActiveResidues>
 VAL166  LYS551  ARG553  GLY616  TRP617  ASP618  TYR619  PRO620  LYS621  CYS622 
 ASP623  PHE694  ASN695  SER759  ASP760  ASP761  ALA762  ILE779  LEU786  VAL792 
 PHE793  MET794  SER795  GLU796  ALA797  LYS798  CYS799  TRP800  GLU811  SER814 

> <Gold.Protein.RotatedAtoms>
  152.4411  133.7450  159.6661 H   0  0  0  0  0  0  0  0  0  0  0  0  # atno 6907 bound_to 6896
  150.8302  133.8093  159.3108 H   0  0  0  0  0  0  0  0  0  0  0  0  # atno 6908 bound_to 6896
  151.5749  135.1063  160.0055 H   0  0  0  0  0  0  0  0  0  0  0  0  # atno 6909 bound_to 6896
  145.0674  140.8334  143.4116 H   0  0  0  0  0  0  0  0  0  0  0  0  # atno 7974 bound_to 7965
  154.5455  140.0736  156.8581 H   0  0  0  0  0  0  0  0  0  0  0  0  # atno 8008 bound_to 7997
  155.3096  140.3389  155.4226 H   0  0  0  0  0  0  0  0  0  0  0  0  # atno 8009 bound_to 7997
  156.1914  140.1687  156.8071 H   0  0  0  0  0  0  0  0  0  0  0  0  # atno 8010 bound_to 7997
  139.5119  144.3223  152.0190 H   0  0  0  0  0  0  0  0  0  0  0  0  # atno 10167 bound_to 10162
  157.5401  130.8691  149.8809 H   0  0  0  0  0  0  0  0  0  0  0  0  # atno 10718 bound_to 10713
  154.6955  135.5196  153.8452 H   0  0  0  0  0  0  0  0  0  0  0  0  # atno 10763 bound_to 10752
  153.0664  135.6586  154.0355 H   0  0  0  0  0  0  0  0  0  0  0  0  # atno 10764 bound_to 10752
  154.0222  135.2992  155.3359 H   0  0  0  0  0  0  0  0  0  0  0  0  # atno 10765 bound_to 10752
  139.8821  134.8743  156.3600 H   0  0  0  0  0  0  0  0  0  0  0  0  # atno 11005 bound_to 11000
  145.1334  139.2617  143.5527 LP  0  0  0  0  0  0  0  0  0  0  0  0  # atno 17320 bound_to 7965
  146.3527  140.0991  142.8609 LP  0  0  0  0  0  0  0  0  0  0  0  0  # atno 17321 bound_to 7965
  140.2665  144.4011  150.6166 LP  0  0  0  0  0  0  0  0  0  0  0  0  # atno 17342 bound_to 10162
  140.6119  143.2170  151.6868 LP  0  0  0  0  0  0  0  0  0  0  0  0  # atno 17343 bound_to 10162
  156.0490  130.3722  150.1248 LP  0  0  0  0  0  0  0  0  0  0  0  0  # atno 17370 bound_to 10713
  156.9428  130.9750  151.3513 LP  0  0  0  0  0  0  0  0  0  0  0  0  # atno 17371 bound_to 10713
  140.9536  133.7435  156.0305 LP  0  0  0  0  0  0  0  0  0  0  0  0  # atno 17394 bound_to 11000
  140.8076  134.3437  157.5421 LP  0  0  0  0  0  0  0  0  0  0  0  0  # atno 17395 bound_to 11000

$$$$
