AV-unprocessed.smi:3240|AV-procd|sdf|12381|dock6
  -GOLD-   2272018243D 1   1.00000     0.00000
 Structure written by MMmdl.
 44 45  0  0  0  0  0  0  0  0  2 V2000
  143.7661  132.7733  148.1909 C   0  0  0  0  0  0  0  0  0  0  0  0
  144.1936  132.9394  149.6206 C   0  0  0  0  0  0  0  0  0  0  0  0
  143.6666  132.2912  150.7737 C   0  0  0  0  0  0  0  0  0  0  0  0
  144.2683  132.6634  151.8916 N   0  0  0  0  0  0  0  0  0  0  0  0
  145.2015  133.5538  151.4937 N   0  0  0  0  0  0  0  0  0  0  0  0
  146.0595  134.1936  152.4764 C   0  0  0  0  0  0  0  0  0  0  0  0
  145.6267  135.6375  152.8033 C   0  0  2  0  0  0  0  0  0  0  0  0
  145.2930  136.4078  151.5148 C   0  0  0  0  0  0  0  0  0  0  0  0
  146.6873  136.3225  153.5773 N   0  3  0  0  0  0  0  0  0  0  0  0
  146.3650  137.6964  154.0229 C   0  0  0  0  0  0  0  0  0  0  0  0
  147.5352  138.6768  153.7864 C   0  0  0  0  0  0  0  0  0  0  0  0
  147.9059  138.5645  152.4234 O   0  0  0  0  0  0  0  0  0  0  0  0
  147.1366  140.1421  154.0932 C   0  0  0  0  0  0  0  0  0  0  0  0
  148.3232  141.1189  154.0040 C   0  0  0  0  0  0  0  0  0  0  0  0
  149.4846  140.6732  154.9030 C   0  0  0  0  0  0  0  0  0  0  0  0
  149.9269  139.2450  154.5568 C   0  0  0  0  0  0  0  0  0  0  0  0
  148.7495  138.2580  154.6495 C   0  0  0  0  0  0  0  0  0  0  0  0
  145.1718  133.7462  150.1287 C   0  0  0  0  0  0  0  0  0  0  0  0
  142.9474  132.0599  148.0922 H   0  0  0  0  0  0  0  0  0  0  0  0
  144.5835  132.4124  147.5665 H   0  0  0  0  0  0  0  0  0  0  0  0
  143.4246  133.7151  147.7610 H   0  0  0  0  0  0  0  0  0  0  0  0
  142.8676  131.5666  150.8307 H   0  0  0  0  0  0  0  0  0  0  0  0
  146.0656  133.5844  153.3816 H   0  0  0  0  0  0  0  0  0  0  0  0
  147.0787  134.1830  152.0876 H   0  0  0  0  0  0  0  0  0  0  0  0
  144.7264  135.5938  153.4183 H   0  0  0  0  0  0  0  0  0  0  0  0
  144.5321  135.8841  150.9352 H   0  0  0  0  0  0  0  0  0  0  0  0
  146.1725  136.5206  150.8799 H   0  0  0  0  0  0  0  0  0  0  0  0
  144.9027  137.4033  151.7255 H   0  0  0  0  0  0  0  0  0  0  0  0
  146.8522  135.7786  154.4128 H   0  0  0  0  0  0  0  0  0  0  0  0
  145.4806  138.0494  153.4925 H   0  0  0  0  0  0  0  0  0  0  0  0
  146.1091  137.6739  155.0835 H   0  0  0  0  0  0  0  0  0  0  0  0
  148.0808  137.6548  152.2338 H   0  0  0  0  0  0  0  0  0  0  0  0
  146.3486  140.4762  153.4173 H   0  0  0  0  0  0  0  0  0  0  0  0
  146.7157  140.1964  155.0982 H   0  0  0  0  0  0  0  0  0  0  0  0
  148.6674  141.1910  152.9715 H   0  0  0  0  0  0  0  0  0  0  0  0
  147.9994  142.1204  154.2888 H   0  0  0  0  0  0  0  0  0  0  0  0
  150.3249  141.3597  154.7946 H   0  0  0  0  0  0  0  0  0  0  0  0
  149.1791  140.7204  155.9490 H   0  0  0  0  0  0  0  0  0  0  0  0
  150.3504  139.2252  153.5520 H   0  0  0  0  0  0  0  0  0  0  0  0
  150.7247  138.9318  155.2310 H   0  0  0  0  0  0  0  0  0  0  0  0
  148.4400  138.1885  155.6934 H   0  0  0  0  0  0  0  0  0  0  0  0
  149.0866  137.2588  154.3699 H   0  0  0  0  0  0  0  0  0  0  0  0
  145.8433  134.4333  149.6348 H   0  0  0  0  0  0  0  0  0  0  0  0
  147.5379  136.3386  153.0337 H   0  0  0  0  0  0  0  0  0  0  0  0
  1  2  1  0  0  0  0
  1 19  1  0  0  0  0
  1 20  1  0  0  0  0
  1 21  1  0  0  0  0
  2 18  2  0  0  0  0
  2  3  1  0  0  0  0
  3  4  2  0  0  0  0
  3 22  1  0  0  0  0
  4  5  1  0  0  0  0
  5  6  1  0  0  0  0
  5 18  1  0  0  0  0
  6  7  1  0  0  0  0
  6 23  1  0  0  0  0
  6 24  1  0  0  0  0
  7  8  1  0  0  0  0
  7  9  1  0  0  0  0
  7 25  1  0  0  0  0
  8 26  1  0  0  0  0
  8 27  1  0  0  0  0
  8 28  1  0  0  0  0
  9 10  1  0  0  0  0
  9 29  1  0  0  0  0
  9 44  1  0  0  0  0
 10 11  1  0  0  0  0
 10 30  1  0  0  0  0
 10 31  1  0  0  0  0
 11 17  1  0  0  0  0
 11 12  1  0  0  0  0
 11 13  1  0  0  0  0
 12 32  1  0  0  0  0
 13 14  1  0  0  0  0
 13 33  1  0  0  0  0
 13 34  1  0  0  0  0
 14 15  1  0  0  0  0
 14 35  1  0  0  0  0
 14 36  1  0  0  0  0
 15 16  1  0  0  0  0
 15 37  1  0  0  0  0
 15 38  1  0  0  0  0
 16 17  1  0  0  0  0
 16 39  1  0  0  0  0
 16 40  1  0  0  0  0
 17 41  1  0  0  0  0
 17 42  1  0  0  0  0
 18 43  1  0  0  0  0
M  CHG  1   9   1
M  END
> <s_m_source_file>
AV-unprocessed.smi

> <i_m_source_file_index>
3240

> <i_lp_mmshare_version>
43012

> <i_f3d_flags>
0

> <s_epik_input>
W0NIM11jMVtjSF1ubihbY0hdMSlbQ0gyXVtDQEhdKFtDSDNdKVtOSF1bQ0gyXUMyKFtPSF0pW0NIMl1bQ0gyXVtDSDJdW0NIMl1bQ0gyXTI=

> <s_epik_cmdline>
J2VwaWtfcHl0aG9uJywgJy1waCcsICc3LjAnLCAnLXRuJywgJzgnLCAnLW1hJywgJzIwMCcsICctbWV0YWxfYmluZGluZycsICctaW1hZScsICc8aW5maWxlLm1hZT4nLCAnLW9tYWUnLCAnPG91dGZpbGUubWFlPic=

> <r_lp_tautomer_probability>
1

> <r_epik_Ionization_Penalty>
0.0111573

> <r_epik_Ionization_Penalty_Charging>
0.0111472

> <r_epik_Ionization_Penalty_Neutral>
1.01652e-05

> <r_epik_State_Penalty>
0.00856328

> <r_epik_Charging_Adjusted_Penalty>
0.0197104

> <i_epik_Tot_Q>
1

> <i_epik_Tot_abs_Q>
1

> <r_epik_Metal_State_Penalty>
0.00856448

> <b_epik_Metal_Only>
0

> <s_lp_Force_Field>
OPLS_2005

> <r_lp_Energy>
16.744

> <b_lp_Chiralities_Consistent>
1

> <s_lp_Variant>
AV-unprocessed.smi:3240-1

> <Gold.Version>
5.8.1

> <Gold.Id.Protein>
6NUR|6NUR_protein|mol2

> <Gold.PLP.Fitness>
47.0770

> <Gold.PLP.PLP>
-34.6448

> <Gold.PLP.part.hbond>
-2.8892

> <Gold.PLP.part.metal>
0.0000

> <Gold.PLP.part.buried>
-0.1818

> <Gold.PLP.part.nonpolar>
-30.9266

> <Gold.PLP.part.repulsive>
0.1613

> <Gold.PLP.ligand.clash>
0.0000

> <Gold.PLP.ligand.torsion>
0.6748

> <Gold.PLP.Chemscore.Hbond>
3.0000

> <Gold.PLP.Chemscore.CHOScore>
1.5758

> <Gold.PLP.Chemscore.Metal>
0.0000

> <Gold.Chemscore.Hbonds>
donor molecule, donor type, donor heavy atom, donor atom, acceptor molecule, acceptor atom, score
      L1  H     9    44       P1  7948  2.00
      L1  H    12    32       P1  7948  1.00
      L1  C     3    22       P1 10952  0.60
      L1  C    18    43       P1  7921  1.00

> <Gold.PLP.Chemscore.Internal.Correction>
0.0545

> <Gold.Rescore>
     Score         DG    S(hbond)    S(metal)    S(lipo)     H(rot)  DE(clash)    DE(int)     intcor
     16.26     -17.90       2.00        0.00      95.51       2.12       0.17       1.48       ----

> <Gold.Chemscore.Fitness>
16.2552

> <Gold.Chemscore.DG>
-17.9034

> <Gold.Chemscore.ZeroCoef>
-5.4800

> <Gold.Chemscore.Hbond>
1.9983

> <Gold.Chemscore.Metal>
0.0000

> <Gold.Chemscore.Lipo>
95.5093

> <Gold.Chemscore.Internal_Hbond>
0.0000

> <Gold.Chemscore.DEClash>
0.1730

> <Gold.Chemscore.DEInternal>
1.4753

> <Gold.Chemscore.Rot>
2.1193

> <Gold.Chemscore.Internal.Correction>
   9.000000E+99

> <Gold.Chemscore.Hbonds>
donor molecule, donor type, donor heavy atom, donor atom, acceptor molecule, acceptor atom, score
      L1  H     9    44       P1  7948  1.00
      L1  H    12    32       P1  7948  0.99

> <Gold.Chemscore.Hbond.Weighted>
-6.6742

> <Gold.Chemscore.Metal.Weighted>
-0.0000

> <Gold.Chemscore.Lipo.Weighted>
-11.1746

> <Gold.Chemscore.Internal_Hbond.Weighted>
0.0000

> <Gold.Chemscore.DEClash.Weighted>
0.1730

> <Gold.Chemscore.DEInternal.Weighted>
1.4753

> <Gold.Chemscore.Rot.Weighted>
5.4254

> <Gold.Chemscore.Internal.Correction.Weighted>
   9.000000E+99

> <Gold.Protein.RotatedTorsions>
[ 6907 6896 6895 6894 ] final  145.88 input  -60.11 | X-H torsion
[ 7974 7965 7964 7962 ] final   35.67 input  175.53 | X-H torsion
[ 8008 7997 7996 7995 ] final   44.98 input   59.86 | X-H torsion
[ 10167 10162 10161 10158 ] final  -76.80 input  -65.29 | X-H torsion
[ 10718 10713 10712 10709 ] final -129.83 input   66.30 | X-H torsion
[ 10763 10752 10751 10750 ] final  -45.12 input  -60.55 | X-H torsion
[ 11005 11000 10999 10996 ] final  -54.41 input  -57.11 | X-H torsion

> <Gold.Protein.ActiveResidues>
 VAL166  LYS551  ARG553  GLY616  TRP617  ASP618  TYR619  PRO620  LYS621  CYS622 
 ASP623  PHE694  ASN695  SER759  ASP760  ASP761  ALA762  ILE779  LEU786  VAL792 
 PHE793  MET794  SER795  GLU796  ALA797  LYS798  CYS799  TRP800  GLU811  SER814 

> <Gold.Protein.RotatedAtoms>
  152.1752  133.4670  159.4929 H   0  0  0  0  0  0  0  0  0  0  0  0  # atno 6907 bound_to 6896
  150.6926  134.1903  159.4291 H   0  0  0  0  0  0  0  0  0  0  0  0  # atno 6908 bound_to 6896
  151.9811  135.0027  160.0608 H   0  0  0  0  0  0  0  0  0  0  0  0  # atno 6909 bound_to 6896
  146.1267  139.6114  142.9254 H   0  0  0  0  0  0  0  0  0  0  0  0  # atno 7974 bound_to 7965
  155.3283  140.3401  155.4240 H   0  0  0  0  0  0  0  0  0  0  0  0  # atno 8008 bound_to 7997
  156.1874  140.1685  156.8195 H   0  0  0  0  0  0  0  0  0  0  0  0  # atno 8009 bound_to 7997
  154.5402  140.0726  156.8480 H   0  0  0  0  0  0  0  0  0  0  0  0  # atno 8010 bound_to 7997
  140.4826  143.2398  151.8034 H   0  0  0  0  0  0  0  0  0  0  0  0  # atno 10167 bound_to 10162
  156.2085  130.6903  151.0622 H   0  0  0  0  0  0  0  0  0  0  0  0  # atno 10718 bound_to 10713
  154.0234  135.6666  153.4774 H   0  0  0  0  0  0  0  0  0  0  0  0  # atno 10763 bound_to 10752
  153.0571  135.5050  154.8002 H   0  0  0  0  0  0  0  0  0  0  0  0  # atno 10764 bound_to 10752
  154.6923  135.3063  154.9426 H   0  0  0  0  0  0  0  0  0  0  0  0  # atno 10765 bound_to 10752
  141.1024  133.6616  156.4316 H   0  0  0  0  0  0  0  0  0  0  0  0  # atno 11005 bound_to 11000
  145.5350  141.0424  143.2362 LP  0  0  0  0  0  0  0  0  0  0  0  0  # atno 17320 bound_to 7965
  144.7649  139.6869  143.7219 LP  0  0  0  0  0  0  0  0  0  0  0  0  # atno 17321 bound_to 7965
  139.4836  144.4753  151.9374 LP  0  0  0  0  0  0  0  0  0  0  0  0  # atno 17342 bound_to 10162
  140.3839  144.2702  150.5906 LP  0  0  0  0  0  0  0  0  0  0  0  0  # atno 17343 bound_to 10162
  157.7025  131.0770  150.6773 LP  0  0  0  0  0  0  0  0  0  0  0  0  # atno 17370 bound_to 10713
  156.6832  130.4573  149.5621 LP  0  0  0  0  0  0  0  0  0  0  0  0  # atno 17371 bound_to 10713
  140.4988  134.6505  157.5240 LP  0  0  0  0  0  0  0  0  0  0  0  0  # atno 17394 bound_to 11000
  139.9881  134.7030  155.9739 LP  0  0  0  0  0  0  0  0  0  0  0  0  # atno 17395 bound_to 11000

$$$$
