AV-unprocessed.smi:787|AV-procd|sdf|3727|dock8
  -GOLD-   22720 1163D 1   1.00000     0.00000
 Structure written by MMmdl.
 47 49  0  0  0  0  0  0  0  0  2 V2000
  143.3748  143.6576  157.6543 C   0  0  0  0  0  0  0  0  0  0  0  0
  143.8139  143.2684  156.3237 N   0  0  0  0  0  0  0  0  0  0  0  0
  143.6459  144.1356  155.2351 C   0  0  0  0  0  0  0  0  0  0  0  0
  142.7581  145.1537  155.3136 N   0  0  0  0  0  0  0  0  0  0  0  0
  142.6367  145.9634  154.2537 C   0  0  0  0  0  0  0  0  0  0  0  0
  143.2835  145.9197  153.0786 N   0  0  0  0  0  0  0  0  0  0  0  0
  144.1630  144.9130  152.9894 C   0  0  0  0  0  0  0  0  0  0  0  0
  144.9650  144.6291  151.8975 N   0  0  0  0  0  0  0  0  0  0  0  0
  145.6297  143.5575  152.3204 C   0  0  0  0  0  0  0  0  0  0  0  0
  145.3463  143.0967  153.5551 N   0  0  0  0  0  0  0  0  0  0  0  0
  145.9363  141.9379  154.2031 C   0  0  0  0  0  0  0  0  0  0  0  0
  147.4245  142.1425  154.5524 C   0  0  2  0  0  0  0  0  0  0  0  0
  148.1957  141.4830  153.5693 O   0  0  0  0  0  0  0  0  0  0  0  0
  147.8245  141.6068  155.9454 C   0  0  0  0  0  0  0  0  0  0  0  0
  149.0703  142.2426  156.4420 N   0  3  2  0  0  0  0  0  0  0  0  0
  150.2784  141.7180  155.7645 C   0  0  0  0  0  0  0  0  0  0  0  0
  149.1901  142.2151  157.9224 C   0  0  0  0  0  0  0  0  0  0  0  0
  150.3987  143.0026  158.3919 C   0  0  0  0  0  0  0  0  0  0  0  0
  151.3171  142.4339  159.3001 C   0  0  0  0  0  0  0  0  0  0  0  0
  152.4383  143.1720  159.7269 C   0  0  0  0  0  0  0  0  0  0  0  0
  152.6446  144.4804  159.2488 C   0  0  0  0  0  0  0  0  0  0  0  0
  151.7284  145.0518  158.3448 C   0  0  0  0  0  0  0  0  0  0  0  0
  150.6070  144.3148  157.9175 C   0  0  0  0  0  0  0  0  0  0  0  0
  144.3839  143.9774  154.0450 C   0  0  0  0  0  0  0  0  0  0  0  0
  143.5990  142.8638  158.3667 H   0  0  0  0  0  0  0  0  0  0  0  0
  142.2994  143.8369  157.6699 H   0  0  0  0  0  0  0  0  0  0  0  0
  143.8865  144.5634  157.9809 H   0  0  0  0  0  0  0  0  0  0  0  0
  144.3039  142.3935  156.2055 H   0  0  0  0  0  0  0  0  0  0  0  0
  141.9184  146.7630  154.3597 H   0  0  0  0  0  0  0  0  0  0  0  0
  146.3585  143.0705  151.6889 H   0  0  0  0  0  0  0  0  0  0  0  0
  145.3640  141.7204  155.1066 H   0  0  0  0  0  0  0  0  0  0  0  0
  145.8123  141.0773  153.5447 H   0  0  0  0  0  0  0  0  0  0  0  0
  147.6548  143.2040  154.4829 H   0  0  0  0  0  0  0  0  0  0  0  0
  147.6653  141.3614  152.7960 H   0  0  0  0  0  0  0  0  0  0  0  0
  147.0367  141.7745  156.6809 H   0  0  0  0  0  0  0  0  0  0  0  0
  147.9504  140.5249  155.8790 H   0  0  0  0  0  0  0  0  0  0  0  0
  150.4179  140.6579  155.9804 H   0  0  0  0  0  0  0  0  0  0  0  0
  151.1725  142.2528  156.0854 H   0  0  0  0  0  0  0  0  0  0  0  0
  150.1985  141.8393  154.6838 H   0  0  0  0  0  0  0  0  0  0  0  0
  148.3111  142.6534  158.3949 H   0  0  0  0  0  0  0  0  0  0  0  0
  149.2377  141.1851  158.2797 H   0  0  0  0  0  0  0  0  0  0  0  0
  151.1670  141.4306  159.6707 H   0  0  0  0  0  0  0  0  0  0  0  0
  153.1407  142.7347  160.4212 H   0  0  0  0  0  0  0  0  0  0  0  0
  153.5047  145.0458  159.5760 H   0  0  0  0  0  0  0  0  0  0  0  0
  151.8865  146.0558  157.9790 H   0  0  0  0  0  0  0  0  0  0  0  0
  149.9088  144.7584  157.2225 H   0  0  0  0  0  0  0  0  0  0  0  0
  148.9994  143.2154  156.1776 H   0  0  0  0  0  0  0  0  0  0  0  0
  1  2  1  0  0  0  0
  1 25  1  0  0  0  0
  1 26  1  0  0  0  0
  1 27  1  0  0  0  0
  2  3  1  0  0  0  0
  2 28  1  0  0  0  0
  3 24  1  0  0  0  0
  3  4  2  0  0  0  0
  4  5  1  0  0  0  0
  5  6  2  0  0  0  0
  5 29  1  0  0  0  0
  6  7  1  0  0  0  0
  7 24  2  0  0  0  0
  7  8  1  0  0  0  0
  8  9  2  0  0  0  0
  9 10  1  0  0  0  0
  9 30  1  0  0  0  0
 10 11  1  0  0  0  0
 10 24  1  0  0  0  0
 11 12  1  0  0  0  0
 11 31  1  0  0  0  0
 11 32  1  0  0  0  0
 12 13  1  0  0  0  0
 12 14  1  0  0  0  0
 12 33  1  0  0  0  0
 13 34  1  0  0  0  0
 14 15  1  0  0  0  0
 14 35  1  0  0  0  0
 14 36  1  0  0  0  0
 15 16  1  0  0  0  0
 15 17  1  0  0  0  0
 15 47  1  0  0  0  0
 16 37  1  0  0  0  0
 16 38  1  0  0  0  0
 16 39  1  0  0  0  0
 17 18  1  0  0  0  0
 17 40  1  0  0  0  0
 17 41  1  0  0  0  0
 18 23  1  0  0  0  0
 18 19  2  0  0  0  0
 19 20  1  0  0  0  0
 19 42  1  0  0  0  0
 20 21  2  0  0  0  0
 20 43  1  0  0  0  0
 21 22  1  0  0  0  0
 21 44  1  0  0  0  0
 22 23  2  0  0  0  0
 22 45  1  0  0  0  0
 23 46  1  0  0  0  0
M  CHG  1  15   1
M  END
> <s_m_source_file>
AV-unprocessed.smi

> <i_m_source_file_index>
787

> <i_lp_mmshare_version>
43012

> <i_f3d_flags>
0

> <s_epik_input>
bjFbY0hdbmMoW05IXVtDSDNdKWMoYzEyKW4oW2NIXW4yKVtDSDJdW0NASF0oW09IXSlbQ0gyXU4oW0NIM10pW0NIMl1jM1tjSF1bY0hdW2NIXVtjSF1bY0hdMw==

> <s_epik_cmdline>
J2VwaWtfcHl0aG9uJywgJy1waCcsICc3LjAnLCAnLXRuJywgJzgnLCAnLW1hJywgJzIwMCcsICctbWV0YWxfYmluZGluZycsICctaW1hZScsICc8aW5maWxlLm1hZT4nLCAnLW9tYWUnLCAnPG91dGZpbGUubWFlPic=

> <r_lp_tautomer_probability>
0.999987

> <r_epik_Ionization_Penalty>
0.0526284

> <r_epik_Ionization_Penalty_Charging>
0.0475377

> <r_epik_Ionization_Penalty_Neutral>
0.00509065

> <r_epik_State_Penalty>
0.0404888

> <r_epik_Charging_Adjusted_Penalty>
0.0880265

> <i_epik_Tot_Q>
1

> <i_epik_Tot_abs_Q>
1

> <r_epik_Metal_State_Penalty>
0.040507

> <b_epik_Metal_Only>
0

> <s_lp_Force_Field>
OPLS_2005

> <r_lp_Energy>
15.7703

> <b_lp_Chiralities_Consistent>
1

> <s_lp_Variant>
AV-unprocessed.smi:787-3

> <Gold.Version>
5.8.1

> <Gold.Id.Protein>
6NUR|6NUR_protein|mol2

> <Gold.PLP.Fitness>
52.0462

> <Gold.PLP.PLP>
-47.7005

> <Gold.PLP.part.hbond>
-4.6598

> <Gold.PLP.part.metal>
0.0000

> <Gold.PLP.part.buried>
-2.9102

> <Gold.PLP.part.nonpolar>
-40.2008

> <Gold.PLP.part.repulsive>
0.2769

> <Gold.PLP.ligand.clash>
0.0000

> <Gold.PLP.ligand.torsion>
1.2296

> <Gold.PLP.Chemscore.Hbond>
2.1529

> <Gold.PLP.Chemscore.CHOScore>
0.0000

> <Gold.PLP.Chemscore.Metal>
0.0000

> <Gold.Chemscore.Hbonds>
donor molecule, donor type, donor heavy atom, donor atom, acceptor molecule, acceptor atom, score
      L1  H    15    47       P1  8028  2.00
      P1  H  8011  8017       L1    13  0.18

> <Gold.PLP.Chemscore.Internal.Correction>
0.3462

> <Gold.Rescore>
     Score         DG    S(hbond)    S(metal)    S(lipo)     H(rot)  DE(clash)    DE(int)     intcor
      8.12     -11.77       1.00        0.00      95.00       3.19       2.03       1.63       ----

> <Gold.Chemscore.Fitness>
8.1154

> <Gold.Chemscore.DG>
-11.7671

> <Gold.Chemscore.ZeroCoef>
-5.4800

> <Gold.Chemscore.Hbond>
1.0019

> <Gold.Chemscore.Metal>
0.0000

> <Gold.Chemscore.Lipo>
94.9958

> <Gold.Chemscore.Internal_Hbond>
0.0000

> <Gold.Chemscore.DEClash>
2.0263

> <Gold.Chemscore.DEInternal>
1.6254

> <Gold.Chemscore.Rot>
3.1928

> <Gold.Chemscore.Internal.Correction>
   9.000000E+99

> <Gold.Chemscore.Hbonds>
donor molecule, donor type, donor heavy atom, donor atom, acceptor molecule, acceptor atom, score
      L1  H    15    47       P1  8028  0.98
      P1  H  8011  8017       L1    13  0.01

> <Gold.Chemscore.Hbond.Weighted>
-3.3462

> <Gold.Chemscore.Metal.Weighted>
-0.0000

> <Gold.Chemscore.Lipo.Weighted>
-11.1145

> <Gold.Chemscore.Internal_Hbond.Weighted>
0.0000

> <Gold.Chemscore.DEClash.Weighted>
2.0263

> <Gold.Chemscore.DEInternal.Weighted>
1.6254

> <Gold.Chemscore.Rot.Weighted>
8.1736

> <Gold.Chemscore.Internal.Correction.Weighted>
   9.000000E+99

> <Gold.Protein.RotatedTorsions>
[ 6907 6896 6895 6894 ] final  -61.23 input  -60.11 | X-H torsion
[ 7974 7965 7964 7962 ] final  -11.88 input  175.53 | X-H torsion
[ 8008 7997 7996 7995 ] final  126.81 input   59.86 | X-H torsion
[ 10167 10162 10161 10158 ] final  -50.34 input  -65.29 | X-H torsion
[ 10718 10713 10712 10709 ] final  141.41 input   66.30 | X-H torsion
[ 10763 10752 10751 10750 ] final   88.74 input  -60.55 | X-H torsion
[ 11005 11000 10999 10996 ] final   -2.86 input  -57.11 | X-H torsion

> <Gold.Protein.ActiveResidues>
 VAL166  LYS551  ARG553  GLY616  TRP617  ASP618  TYR619  PRO620  LYS621  CYS622 
 ASP623  PHE694  ASN695  SER759  ASP760  ASP761  ALA762  ILE779  LEU786  VAL792 
 PHE793  MET794  SER795  GLU796  ALA797  LYS798  CYS799  TRP800  GLU811  SER814 

> <Gold.Protein.RotatedAtoms>
  150.7799  134.6732  159.6402 H   0  0  0  0  0  0  0  0  0  0  0  0  # atno 6907 bound_to 6896
  152.3881  134.6482  160.0127 H   0  0  0  0  0  0  0  0  0  0  0  0  # atno 6908 bound_to 6896
  151.6791  133.3276  159.3251 H   0  0  0  0  0  0  0  0  0  0  0  0  # atno 6909 bound_to 6896
  146.2172  140.2976  142.8373 H   0  0  0  0  0  0  0  0  0  0  0  0  # atno 7974 bound_to 7965
  156.2874  140.2684  156.2172 H   0  0  0  0  0  0  0  0  0  0  0  0  # atno 8008 bound_to 7997
  155.0205  140.0386  157.2453 H   0  0  0  0  0  0  0  0  0  0  0  0  # atno 8009 bound_to 7997
  154.7440  140.2730  155.6354 H   0  0  0  0  0  0  0  0  0  0  0  0  # atno 8010 bound_to 7997
  140.6642  143.2661  151.4345 H   0  0  0  0  0  0  0  0  0  0  0  0  # atno 10167 bound_to 10162
  157.3923  131.1006  151.0634 H   0  0  0  0  0  0  0  0  0  0  0  0  # atno 10718 bound_to 10713
  153.1799  135.4496  155.0014 H   0  0  0  0  0  0  0  0  0  0  0  0  # atno 10763 bound_to 10752
  154.8023  135.3260  154.7521 H   0  0  0  0  0  0  0  0  0  0  0  0  # atno 10764 bound_to 10752
  153.7987  135.6964  153.4914 H   0  0  0  0  0  0  0  0  0  0  0  0  # atno 10765 bound_to 10752
  140.6630  133.9303  155.8448 H   0  0  0  0  0  0  0  0  0  0  0  0  # atno 11005 bound_to 11000
  144.9081  140.7724  143.5825 LP  0  0  0  0  0  0  0  0  0  0  0  0  # atno 17320 bound_to 7965
  145.2905  139.1885  143.4742 LP  0  0  0  0  0  0  0  0  0  0  0  0  # atno 17321 bound_to 7965
  139.5885  144.1550  152.2059 LP  0  0  0  0  0  0  0  0  0  0  0  0  # atno 17342 bound_to 10162
  140.0897  144.5631  150.7063 LP  0  0  0  0  0  0  0  0  0  0  0  0  # atno 17343 bound_to 10162
  157.1663  130.6247  149.5626 LP  0  0  0  0  0  0  0  0  0  0  0  0  # atno 17370 bound_to 10713
  155.9801  130.4800  150.6756 LP  0  0  0  0  0  0  0  0  0  0  0  0  # atno 17371 bound_to 10713
  141.0450  134.0566  157.3855 LP  0  0  0  0  0  0  0  0  0  0  0  0  # atno 17394 bound_to 11000
  139.9006  135.0163  156.7251 LP  0  0  0  0  0  0  0  0  0  0  0  0  # atno 17395 bound_to 11000

$$$$
