AV-unprocessed.smi:3164|AV-procd|sdf|12081|dock1
  -GOLD-   2272017513D 1   1.00000     0.00000
 Structure written by MMmdl.
 40 41  0  0  0  0  0  0  0  0  3 V2000
  144.1360  133.5325  148.7724 C   0  0  0  0  0  0  0  0  0  0  0  0
  143.5413  133.4680  150.1276 N   0  3  1  0  0  0  0  0  0  0  0  0
  143.6284  132.1276  150.7540 C   0  0  0  0  0  0  0  0  0  0  0  0
  145.0322  131.8689  151.3312 C   0  0  0  0  0  0  0  0  0  0  0  0
  145.3739  132.9094  152.2396 O   0  0  0  0  0  0  0  0  0  0  0  0
  145.4308  134.1862  151.6110 C   0  0  2  0  0  0  0  0  0  0  0  0
  145.8831  135.2142  152.6594 C   0  0  0  0  0  0  0  0  0  0  0  0
  146.2670  136.4948  152.0310 N   0  3  0  0  0  0  0  0  0  0  0  0
  146.1769  137.6566  152.9365 C   0  0  0  0  0  0  0  0  0  0  0  0
  146.7393  138.9209  152.2725 C   0  0  0  0  0  0  0  0  0  0  0  0
  147.6475  139.6998  153.2046 C   0  0  0  0  0  0  0  0  0  0  0  0
  148.7369  139.0714  153.8448 C   0  0  0  0  0  0  0  0  0  0  0  0
  149.5424  139.8412  154.7065 C   0  0  0  0  0  0  0  0  0  0  0  0
  149.2278  141.2010  154.8941 C   0  0  0  0  0  0  0  0  0  0  0  0
  148.1176  141.7334  154.2090 C   0  0  0  0  0  0  0  0  0  0  0  0
  147.3383  141.0039  153.3812 N   0  0  0  0  0  0  0  0  0  0  0  0
  144.0313  134.5226  151.0483 C   0  0  0  0  0  0  0  0  0  0  0  0
  145.2098  133.3467  148.7880 H   0  0  0  0  0  0  0  0  0  0  0  0
  143.9679  134.5138  148.3278 H   0  0  0  0  0  0  0  0  0  0  0  0
  143.6746  132.7925  148.1176 H   0  0  0  0  0  0  0  0  0  0  0  0
  142.8942  132.0779  151.5593 H   0  0  0  0  0  0  0  0  0  0  0  0
  143.3533  131.3527  150.0374 H   0  0  0  0  0  0  0  0  0  0  0  0
  145.0460  130.9187  151.8651 H   0  0  0  0  0  0  0  0  0  0  0  0
  145.7809  131.7961  150.5412 H   0  0  0  0  0  0  0  0  0  0  0  0
  146.1616  134.1643  150.8007 H   0  0  0  0  0  0  0  0  0  0  0  0
  145.0701  135.4041  153.3616 H   0  0  0  0  0  0  0  0  0  0  0  0
  146.7212  134.8222  153.2376 H   0  0  0  0  0  0  0  0  0  0  0  0
  147.2190  136.4189  151.7007 H   0  0  0  0  0  0  0  0  0  0  0  0
  145.1332  137.8126  153.2137 H   0  0  0  0  0  0  0  0  0  0  0  0
  146.7265  137.4424  153.8542 H   0  0  0  0  0  0  0  0  0  0  0  0
  147.2926  138.6555  151.3706 H   0  0  0  0  0  0  0  0  0  0  0  0
  145.9235  139.5711  151.9523 H   0  0  0  0  0  0  0  0  0  0  0  0
  148.9536  138.0258  153.6827 H   0  0  0  0  0  0  0  0  0  0  0  0
  150.3858  139.3971  155.2143 H   0  0  0  0  0  0  0  0  0  0  0  0
  149.8233  141.8215  155.5471 H   0  0  0  0  0  0  0  0  0  0  0  0
  147.8479  142.7722  154.3297 H   0  0  0  0  0  0  0  0  0  0  0  0
  144.0363  135.4890  150.5425 H   0  0  0  0  0  0  0  0  0  0  0  0
  143.3200  134.6093  151.8712 H   0  0  0  0  0  0  0  0  0  0  0  0
  145.6623  136.6621  151.2391 H   0  0  0  0  0  0  0  0  0  0  0  0
  142.5569  133.6496  149.9882 H   0  0  0  0  0  0  0  0  0  0  0  0
  1  2  1  0  0  0  0
  1 18  1  0  0  0  0
  1 19  1  0  0  0  0
  1 20  1  0  0  0  0
  2 17  1  0  0  0  0
  2  3  1  0  0  0  0
  2 40  1  0  0  0  0
  3  4  1  0  0  0  0
  3 21  1  0  0  0  0
  3 22  1  0  0  0  0
  4  5  1  0  0  0  0
  4 23  1  0  0  0  0
  4 24  1  0  0  0  0
  5  6  1  0  0  0  0
  6  7  1  0  0  0  0
  6 17  1  0  0  0  0
  6 25  1  0  0  0  0
  7  8  1  0  0  0  0
  7 26  1  0  0  0  0
  7 27  1  0  0  0  0
  8  9  1  0  0  0  0
  8 28  1  0  0  0  0
  8 39  1  0  0  0  0
  9 10  1  0  0  0  0
  9 29  1  0  0  0  0
  9 30  1  0  0  0  0
 10 11  1  0  0  0  0
 10 31  1  0  0  0  0
 10 32  1  0  0  0  0
 11 16  1  0  0  0  0
 11 12  2  0  0  0  0
 12 13  1  0  0  0  0
 12 33  1  0  0  0  0
 13 14  2  0  0  0  0
 13 34  1  0  0  0  0
 14 15  1  0  0  0  0
 14 35  1  0  0  0  0
 15 16  2  0  0  0  0
 15 36  1  0  0  0  0
 17 37  1  0  0  0  0
 17 38  1  0  0  0  0
M  CHG  1   2   1
M  CHG  1   8   1
M  END
> <s_m_source_file>
AV-unprocessed.smi

> <i_m_source_file_index>
3164

> <i_lp_mmshare_version>
43012

> <i_f3d_flags>
0

> <s_epik_input>
W0NIM11OMVtDSDJdW0NIMl1PW0NASF0oW0NIMl0xKVtDSDJdW05IXVtDSDJdW0NIMl1jMltjSF1bY0hdW2NIXVtjSF1uMg==

> <s_epik_cmdline>
J2VwaWtfcHl0aG9uJywgJy1waCcsICc3LjAnLCAnLXRuJywgJzgnLCAnLW1hJywgJzIwMCcsICctbWV0YWxfYmluZGluZycsICctaW1hZScsICc8aW5maWxlLm1hZT4nLCAnLW9tYWUnLCAnPG91dGZpbGUubWFlPic=

> <r_epik_Ionization_Penalty>
0.294944

> <r_epik_Ionization_Penalty_Charging>
0.29381

> <r_epik_Ionization_Penalty_Neutral>
0.00113372

> <r_epik_State_Penalty>
0.271365

> <r_epik_Charging_Adjusted_Penalty>
0.565175

> <i_epik_Tot_Q>
2

> <i_epik_Tot_abs_Q>
2

> <r_epik_Metal_State_Penalty>
0.271365

> <b_epik_Metal_Only>
0

> <s_lp_Force_Field>
OPLS_2005

> <r_lp_Energy>
22.4387

> <b_lp_Chiralities_Consistent>
1

> <s_lp_Variant>
AV-unprocessed.smi:3164-3

> <Gold.Version>
5.8.1

> <Gold.Id.Protein>
6NUR|6NUR_protein|mol2

> <Gold.PLP.Fitness>
43.7194

> <Gold.PLP.PLP>
-29.8470

> <Gold.PLP.part.hbond>
-2.0000

> <Gold.PLP.part.metal>
0.0000

> <Gold.PLP.part.buried>
2.9623

> <Gold.PLP.part.nonpolar>
-30.6987

> <Gold.PLP.part.repulsive>
0.3492

> <Gold.PLP.ligand.clash>
0.0000

> <Gold.PLP.ligand.torsion>
0.5857

> <Gold.PLP.Chemscore.Hbond>
4.0000

> <Gold.PLP.Chemscore.CHOScore>
0.9846

> <Gold.PLP.Chemscore.Metal>
0.0000

> <Gold.Chemscore.Hbonds>
donor molecule, donor type, donor heavy atom, donor atom, acceptor molecule, acceptor atom, score
      L1  H     2    40       P1 10186  2.00
      L1  H     8    28       P1  7948  2.00
      L1  C    15    36       P1  8028  0.98

> <Gold.PLP.Chemscore.Internal.Correction>
0.0900

> <Gold.Rescore>
     Score         DG    S(hbond)    S(metal)    S(lipo)     H(rot)  DE(clash)    DE(int)     intcor
     16.41     -18.59       1.97        0.00      91.76       1.65       1.65       0.53       ----

> <Gold.Chemscore.Fitness>
16.4127

> <Gold.Chemscore.DG>
-18.5945

> <Gold.Chemscore.ZeroCoef>
-5.4800

> <Gold.Chemscore.Hbond>
1.9734

> <Gold.Chemscore.Metal>
0.0000

> <Gold.Chemscore.Lipo>
91.7570

> <Gold.Chemscore.Internal_Hbond>
0.0000

> <Gold.Chemscore.DEClash>
1.6507

> <Gold.Chemscore.DEInternal>
0.5310

> <Gold.Chemscore.Rot>
1.6454

> <Gold.Chemscore.Internal.Correction>
   9.000000E+99

> <Gold.Chemscore.Hbonds>
donor molecule, donor type, donor heavy atom, donor atom, acceptor molecule, acceptor atom, score
      L1  H     2    40       P1 10186  1.00
      L1  H     8    28       P1  7948  0.99

> <Gold.Chemscore.Hbond.Weighted>
-6.5911

> <Gold.Chemscore.Metal.Weighted>
-0.0000

> <Gold.Chemscore.Lipo.Weighted>
-10.7356

> <Gold.Chemscore.Internal_Hbond.Weighted>
0.0000

> <Gold.Chemscore.DEClash.Weighted>
1.6507

> <Gold.Chemscore.DEInternal.Weighted>
0.5310

> <Gold.Chemscore.Rot.Weighted>
4.2122

> <Gold.Chemscore.Internal.Correction.Weighted>
   9.000000E+99

> <Gold.Protein.RotatedTorsions>
[ 6907 6896 6895 6894 ] final  115.63 input  -60.11 | X-H torsion
[ 7974 7965 7964 7962 ] final  113.10 input  175.53 | X-H torsion
[ 8008 7997 7996 7995 ] final   44.29 input   59.86 | X-H torsion
[ 10167 10162 10161 10158 ] final  -78.84 input  -65.29 | X-H torsion
[ 10718 10713 10712 10709 ] final  -72.77 input   66.30 | X-H torsion
[ 10763 10752 10751 10750 ] final   47.83 input  -60.55 | X-H torsion
[ 11005 11000 10999 10996 ] final  136.14 input  -57.11 | X-H torsion

> <Gold.Protein.ActiveResidues>
 VAL166  LYS551  ARG553  GLY616  TRP617  ASP618  TYR619  PRO620  LYS621  CYS622 
 ASP623  PHE694  ASN695  SER759  ASP760  ASP761  ALA762  ILE779  LEU786  VAL792 
 PHE793  MET794  SER795  GLU796  ALA797  LYS798  CYS799  TRP800  GLU811  SER814 

> <Gold.Protein.RotatedAtoms>
  152.4729  133.8071  159.6983 H   0  0  0  0  0  0  0  0  0  0  0  0  # atno 6907 bound_to 6896
  150.8729  133.7471  159.2962 H   0  0  0  0  0  0  0  0  0  0  0  0  # atno 6908 bound_to 6896
  151.5000  135.1064  159.9878 H   0  0  0  0  0  0  0  0  0  0  0  0  # atno 6909 bound_to 6896
  145.2212  139.2861  143.4217 H   0  0  0  0  0  0  0  0  0  0  0  0  # atno 7974 bound_to 7965
  155.3169  140.3394  155.4242 H   0  0  0  0  0  0  0  0  0  0  0  0  # atno 8008 bound_to 7997
  156.1928  140.1704  156.8095 H   0  0  0  0  0  0  0  0  0  0  0  0  # atno 8009 bound_to 7997
  154.5462  140.0714  156.8577 H   0  0  0  0  0  0  0  0  0  0  0  0  # atno 8010 bound_to 7997
  140.4646  143.2444  151.8297 H   0  0  0  0  0  0  0  0  0  0  0  0  # atno 10167 bound_to 10162
  156.0307  130.4379  150.2642 H   0  0  0  0  0  0  0  0  0  0  0  0  # atno 10718 bound_to 10713
  152.9796  135.5964  154.3826 H   0  0  0  0  0  0  0  0  0  0  0  0  # atno 10763 bound_to 10752
  154.3489  135.2767  155.2384 H   0  0  0  0  0  0  0  0  0  0  0  0  # atno 10764 bound_to 10752
  154.4432  135.6008  153.6198 H   0  0  0  0  0  0  0  0  0  0  0  0  # atno 10765 bound_to 10752
  140.0026  134.9472  157.0105 H   0  0  0  0  0  0  0  0  0  0  0  0  # atno 11005 bound_to 11000
  146.3375  140.2519  142.8599 LP  0  0  0  0  0  0  0  0  0  0  0  0  # atno 17320 bound_to 7965
  144.9763  140.8417  143.5424 LP  0  0  0  0  0  0  0  0  0  0  0  0  # atno 17321 bound_to 7965
  139.4810  144.4966  151.9115 LP  0  0  0  0  0  0  0  0  0  0  0  0  # atno 17342 bound_to 10162
  140.4052  144.2442  150.5891 LP  0  0  0  0  0  0  0  0  0  0  0  0  # atno 17343 bound_to 10162
  157.0744  131.0126  151.3179 LP  0  0  0  0  0  0  0  0  0  0  0  0  # atno 17370 bound_to 10713
  157.4975  130.7859  149.7570 LP  0  0  0  0  0  0  0  0  0  0  0  0  # atno 17371 bound_to 10713
  140.4700  134.1397  155.7202 LP  0  0  0  0  0  0  0  0  0  0  0  0  # atno 17394 bound_to 11000
  141.1653  133.8714  157.1731 LP  0  0  0  0  0  0  0  0  0  0  0  0  # atno 17395 bound_to 11000

$$$$
