AV-unprocessed.smi:1512|AV-procd|sdf|6101|dock5
  -GOLD-   22720 6233D 1   1.00000     0.00000
 Structure written by MMmdl.
 44 46  0  0  0  0  0  0  0  0  3 V2000
  146.3220  134.8817  154.5913 C   0  0  0  0  0  0  0  0  0  0  0  0
  145.7774  135.3557  153.2334 C   0  0  1  0  0  0  0  0  0  0  0  0
  146.5154  136.5528  152.8336 N   0  0  0  0  0  0  0  0  0  0  0  0
  146.1766  137.8198  153.1173 C   0  0  0  0  0  0  0  0  0  0  0  0
  145.2125  138.1272  153.8192 O   0  0  0  0  0  0  0  0  0  0  0  0
  147.0751  138.9078  152.5147 C   0  0  0  0  0  0  0  0  0  0  0  0
  147.5072  139.8998  153.5140 N   0  0  0  0  0  0  0  0  0  0  0  0
  146.6165  140.9521  153.7966 C   0  0  0  0  0  0  0  0  0  0  0  0
  146.9149  141.9147  154.6807 C   0  0  0  0  0  0  0  0  0  0  0  0
  148.1891  141.8523  155.3540 C   0  0  0  0  0  0  0  0  0  0  0  0
  149.0620  140.8505  155.0990 C   0  0  0  0  0  0  0  0  0  0  0  0
  150.3197  140.8465  155.8109 N   0  3  0  0  0  0  0  0  0  0  0  0
  150.4294  141.5284  156.8252 O   0  0  0  0  0  0  0  0  0  0  0  0
  151.2420  140.1692  155.3664 O   0  5  0  0  0  0  0  0  0  0  0  0
  148.7322  139.7954  154.1184 C   0  0  0  0  0  0  0  0  0  0  0  0
  149.5041  138.8750  153.8409 O   0  0  0  0  0  0  0  0  0  0  0  0
  145.9001  134.2814  152.1238 C   0  0  2  0  0  0  0  0  0  0  0  0
  145.4036  134.7551  150.7328 C   0  0  0  0  0  0  0  0  0  0  0  0
  144.3982  133.6654  150.3235 C   0  0  1  0  0  0  0  0  0  0  0  0
  145.1469  132.3517  150.0344 C   0  0  0  0  0  0  0  0  0  0  0  0
  145.5643  131.8844  151.4410 C   0  0  0  0  0  0  0  0  0  0  0  0
  145.0358  133.0142  152.3459 C   0  0  2  0  0  0  0  0  0  0  0  0
  143.7220  133.3637  151.6534 C   0  0  0  0  0  0  0  0  0  0  0  0
  145.7585  134.0354  154.9820 H   0  0  0  0  0  0  0  0  0  0  0  0
  146.2589  135.6766  155.3353 H   0  0  0  0  0  0  0  0  0  0  0  0
  147.3675  134.5803  154.5167 H   0  0  0  0  0  0  0  0  0  0  0  0
  144.7212  135.5959  153.3636 H   0  0  0  0  0  0  0  0  0  0  0  0
  147.3300  136.4051  152.2558 H   0  0  0  0  0  0  0  0  0  0  0  0
  147.9335  138.4191  152.0522 H   0  0  0  0  0  0  0  0  0  0  0  0
  146.5566  139.4098  151.6953 H   0  0  0  0  0  0  0  0  0  0  0  0
  145.6871  140.9317  153.2459 H   0  0  0  0  0  0  0  0  0  0  0  0
  146.2209  142.7178  154.8811 H   0  0  0  0  0  0  0  0  0  0  0  0
  148.4334  142.6188  156.0751 H   0  0  0  0  0  0  0  0  0  0  0  0
  146.9508  133.9954  152.0517 H   0  0  0  0  0  0  0  0  0  0  0  0
  144.8921  135.7166  150.7925 H   0  0  0  0  0  0  0  0  0  0  0  0
  146.2177  134.8618  150.0152 H   0  0  0  0  0  0  0  0  0  0  0  0
  143.7251  133.9716  149.5223 H   0  0  0  0  0  0  0  0  0  0  0  0
  144.4861  131.6201  149.5674 H   0  0  0  0  0  0  0  0  0  0  0  0
  146.0021  132.5017  149.3747 H   0  0  0  0  0  0  0  0  0  0  0  0
  145.0832  130.9366  151.6864 H   0  0  0  0  0  0  0  0  0  0  0  0
  146.6417  131.7428  151.5326 H   0  0  0  0  0  0  0  0  0  0  0  0
  144.9327  132.7066  153.3856 H   0  0  0  0  0  0  0  0  0  0  0  0
  143.2141  134.2268  152.0871 H   0  0  0  0  0  0  0  0  0  0  0  0
  143.0228  132.5270  151.6023 H   0  0  0  0  0  0  0  0  0  0  0  0
  1  2  1  0  0  0  0
  1 24  1  0  0  0  0
  1 25  1  0  0  0  0
  1 26  1  0  0  0  0
  2  3  1  0  0  0  0
  2 17  1  0  0  0  0
  2 27  1  0  0  0  0
  3  4  1  0  0  0  0
  3 28  1  0  0  0  0
  4  5  2  0  0  0  0
  4  6  1  0  0  0  0
  6  7  1  0  0  0  0
  6 29  1  0  0  0  0
  6 30  1  0  0  0  0
  7 15  1  0  0  0  0
  7  8  1  0  0  0  0
  8  9  2  0  0  0  0
  8 31  1  0  0  0  0
  9 10  1  0  0  0  0
  9 32  1  0  0  0  0
 10 11  2  0  0  0  0
 10 33  1  0  0  0  0
 11 12  1  0  0  0  0
 11 15  1  0  0  0  0
 12 13  2  0  0  0  0
 12 14  1  0  0  0  0
 15 16  2  0  0  0  0
 17 22  1  0  0  0  0
 17 18  1  0  0  0  0
 17 34  1  0  0  0  0
 18 19  1  0  0  0  0
 18 35  1  0  0  0  0
 18 36  1  0  0  0  0
 19 23  1  0  0  0  0
 19 20  1  0  0  0  0
 19 37  1  0  0  0  0
 20 21  1  0  0  0  0
 20 38  1  0  0  0  0
 20 39  1  0  0  0  0
 21 22  1  0  0  0  0
 21 40  1  0  0  0  0
 21 41  1  0  0  0  0
 22 23  1  0  0  0  0
 22 42  1  0  0  0  0
 23 43  1  0  0  0  0
 23 44  1  0  0  0  0
M  CHG  1  12   1
M  CHG  1  14  -1
M  END
> <s_m_source_file>
AV-unprocessed.smi

> <i_m_source_file_index>
1512

> <i_lp_mmshare_version>
43012

> <i_f3d_flags>
0

> <s_epik_input>
W0NIMl0xW0NIMl1bQ0BIXShbQ0gyXTIpW0NAQEhdKFtDSDJdW0NAQEhdMTIpW0NASF0oW0NIM10pW05IXUMoPU8pW0NIMl1uM1tjSF1bY0hdW2NIXWMoW04rXSg9TylbTy1dKWMzPU8=

> <s_epik_cmdline>
J2VwaWtfcHl0aG9uJywgJy1waCcsICc3LjAnLCAnLXRuJywgJzgnLCAnLW1hJywgJzIwMCcsICctbWV0YWxfYmluZGluZycsICctaW1hZScsICc8aW5maWxlLm1hZT4nLCAnLW9tYWUnLCAnPG91dGZpbGUubWFlPic=

> <r_lp_tautomer_probability>
1

> <r_epik_Ionization_Penalty>
2.17697e-08

> <r_epik_Ionization_Penalty_Charging>
1.42735e-10

> <r_epik_Ionization_Penalty_Neutral>
2.16269e-08

> <r_epik_State_Penalty>
-0

> <r_epik_Charging_Adjusted_Penalty>
1.42735e-10

> <i_epik_Tot_Q>
0

> <i_epik_Tot_abs_Q>
2

> <r_epik_Metal_State_Penalty>
-0

> <b_epik_Metal_Only>
0

> <s_lp_Force_Field>
OPLS_2005

> <r_lp_Energy>
64.6124

> <b_lp_Chiralities_Consistent>
1

> <s_lp_Variant>
AV-unprocessed.smi:1512-2

> <Gold.Version>
5.8.1

> <Gold.Id.Protein>
6NUR|6NUR_protein|mol2

> <Gold.PLP.Fitness>
42.7337

> <Gold.PLP.PLP>
-35.5883

> <Gold.PLP.part.hbond>
-2.0000

> <Gold.PLP.part.metal>
0.0000

> <Gold.PLP.part.buried>
-2.1934

> <Gold.PLP.part.nonpolar>
-33.4895

> <Gold.PLP.part.repulsive>
1.9908

> <Gold.PLP.ligand.clash>
0.0000

> <Gold.PLP.ligand.torsion>
0.9555

> <Gold.PLP.Chemscore.Hbond>
2.0000

> <Gold.PLP.Chemscore.CHOScore>
1.0000

> <Gold.PLP.Chemscore.Metal>
0.0000

> <Gold.Chemscore.Hbonds>
donor molecule, donor type, donor heavy atom, donor atom, acceptor molecule, acceptor atom, score
      L1  H     3    28       P1  7948  1.00
      P1  H  7989  7998       L1    14  1.00
      L1  C     8    31       P1 10175  1.00

> <Gold.PLP.Chemscore.Internal.Correction>
0.0565

> <Gold.Rescore>
     Score         DG    S(hbond)    S(metal)    S(lipo)     H(rot)  DE(clash)    DE(int)     intcor
     12.43     -15.61       1.53        0.00      81.08       1.75       0.58       2.59       ----

> <Gold.Chemscore.Fitness>
12.4321

> <Gold.Chemscore.DG>
-15.6056

> <Gold.Chemscore.ZeroCoef>
-5.4800

> <Gold.Chemscore.Hbond>
1.5308

> <Gold.Chemscore.Metal>
0.0000

> <Gold.Chemscore.Lipo>
81.0786

> <Gold.Chemscore.Internal_Hbond>
0.0000

> <Gold.Chemscore.DEClash>
0.5790

> <Gold.Chemscore.DEInternal>
2.5945

> <Gold.Chemscore.Rot>
1.7474

> <Gold.Chemscore.Internal.Correction>
   9.000000E+99

> <Gold.Chemscore.Hbonds>
donor molecule, donor type, donor heavy atom, donor atom, acceptor molecule, acceptor atom, score
      L1  H     3    28       P1  7948  0.99
      P1  H  7989  7998       L1    14  0.55

> <Gold.Chemscore.Hbond.Weighted>
-5.1127

> <Gold.Chemscore.Metal.Weighted>
-0.0000

> <Gold.Chemscore.Lipo.Weighted>
-9.4862

> <Gold.Chemscore.Internal_Hbond.Weighted>
0.0000

> <Gold.Chemscore.DEClash.Weighted>
0.5790

> <Gold.Chemscore.DEInternal.Weighted>
2.5945

> <Gold.Chemscore.Rot.Weighted>
4.4733

> <Gold.Chemscore.Internal.Correction.Weighted>
   9.000000E+99

> <Gold.Protein.RotatedTorsions>
[ 6907 6896 6895 6894 ] final   86.71 input  -60.11 | X-H torsion
[ 7974 7965 7964 7962 ] final  -67.34 input  175.53 | X-H torsion
[ 8008 7997 7996 7995 ] final -113.00 input   59.86 | X-H torsion
[ 10167 10162 10161 10158 ] final  114.99 input  -65.29 | X-H torsion
[ 10718 10713 10712 10709 ] final -154.21 input   66.30 | X-H torsion
[ 10763 10752 10751 10750 ] final  129.88 input  -60.55 | X-H torsion
[ 11005 11000 10999 10996 ] final -117.06 input  -57.11 | X-H torsion

> <Gold.Protein.ActiveResidues>
 VAL166  LYS551  ARG553  GLY616  TRP617  ASP618  TYR619  PRO620  LYS621  CYS622 
 ASP623  PHE694  ASN695  SER759  ASP760  ASP761  ALA762  ILE779  LEU786  VAL792 
 PHE793  MET794  SER795  GLU796  ALA797  LYS798  CYS799  TRP800  GLU811  SER814 

> <Gold.Protein.RotatedAtoms>
  152.5399  134.2390  159.8854 H   0  0  0  0  0  0  0  0  0  0  0  0  # atno 6907 bound_to 6896
  151.2358  133.4419  159.2613 H   0  0  0  0  0  0  0  0  0  0  0  0  # atno 6908 bound_to 6896
  151.0673  134.9789  159.8347 H   0  0  0  0  0  0  0  0  0  0  0  0  # atno 6909 bound_to 6896
  145.7304  140.8999  143.0583 H   0  0  0  0  0  0  0  0  0  0  0  0  # atno 7974 bound_to 7965
  155.0139  140.0393  157.2410 H   0  0  0  0  0  0  0  0  0  0  0  0  # atno 8008 bound_to 7997
  154.7436  140.2753  155.6329 H   0  0  0  0  0  0  0  0  0  0  0  0  # atno 8009 bound_to 7997
  156.2870  140.2660  156.2170 H   0  0  0  0  0  0  0  0  0  0  0  0  # atno 8010 bound_to 7997
  139.6349  144.7119  151.2355 H   0  0  0  0  0  0  0  0  0  0  0  0  # atno 10167 bound_to 10162
  156.4963  130.8370  151.2591 H   0  0  0  0  0  0  0  0  0  0  0  0  # atno 10718 bound_to 10713
  153.7489  135.3213  155.3317 H   0  0  0  0  0  0  0  0  0  0  0  0  # atno 10763 bound_to 10752
  154.8270  135.4562  154.0952 H   0  0  0  0  0  0  0  0  0  0  0  0  # atno 10764 bound_to 10752
  153.2148  135.6940  153.8152 H   0  0  0  0  0  0  0  0  0  0  0  0  # atno 10765 bound_to 10752
  141.0380  133.9880  157.3040 H   0  0  0  0  0  0  0  0  0  0  0  0  # atno 11005 bound_to 11000
  144.6894  139.9323  143.7472 LP  0  0  0  0  0  0  0  0  0  0  0  0  # atno 17320 bound_to 7965
  146.0543  139.3541  143.0620 LP  0  0  0  0  0  0  0  0  0  0  0  0  # atno 17321 bound_to 7965
  140.7460  143.6414  150.8332 LP  0  0  0  0  0  0  0  0  0  0  0  0  # atno 17342 bound_to 10162
  140.0043  143.5710  152.2863 LP  0  0  0  0  0  0  0  0  0  0  0  0  # atno 17343 bound_to 10162
  157.7468  130.9997  150.2898 LP  0  0  0  0  0  0  0  0  0  0  0  0  # atno 17370 bound_to 10713
  156.3377  130.3810  149.7436 LP  0  0  0  0  0  0  0  0  0  0  0  0  # atno 17371 bound_to 10713
  139.9255  135.0201  156.8217 LP  0  0  0  0  0  0  0  0  0  0  0  0  # atno 17394 bound_to 11000
  140.6287  133.9926  155.7651 LP  0  0  0  0  0  0  0  0  0  0  0  0  # atno 17395 bound_to 11000

$$$$
