AV-unprocessed.smi:3156|AV-procd|sdf|12034|dock4
  -GOLD-   2272017453D 1   1.00000     0.00000
 Structure written by MMmdl.
 41 42  0  0  0  0  0  0  0  0  2 V2000
  150.0261  141.2529  156.6519 C   0  0  0  0  0  0  0  0  0  0  0  0
  150.5396  142.4250  157.5090 C   0  0  1  0  0  0  0  0  0  0  0  0
  149.4290  143.3590  157.8082 N   0  3  0  0  0  0  0  0  0  0  0  0
  148.3037  142.7937  158.5825 C   0  0  0  0  0  0  0  0  0  0  0  0
  147.6237  143.8702  159.4432 C   0  0  2  0  0  0  0  0  0  0  0  0
  148.6224  144.8742  160.0584 C   0  0  0  0  0  0  0  0  0  0  0  0
  147.8891  145.8814  160.9506 C   0  0  0  0  0  0  0  0  0  0  0  0
  147.0259  145.1322  161.9714 C   0  0  0  0  0  0  0  0  0  0  0  0
  146.1033  144.1290  161.2600 C   0  0  0  0  0  0  0  0  0  0  0  0
  146.8745  143.2266  160.4720 O   0  0  0  0  0  0  0  0  0  0  0  0
  151.1973  141.9528  158.8351 C   0  0  1  0  0  0  0  0  0  0  0  0
  152.2670  140.8647  158.6279 C   0  0  0  0  0  0  0  0  0  0  0  0
  151.7749  143.0673  159.5806 N   0  0  0  0  0  0  0  0  0  0  0  0
  151.8893  144.3855  159.1888 C   0  0  0  0  0  0  0  0  0  0  0  0
  152.4894  145.0656  160.2094 C   0  0  0  0  0  0  0  0  0  0  0  0
  152.6939  144.0703  161.2049 C   0  0  0  0  0  0  0  0  0  0  0  0
  152.2625  142.8779  160.8281 N   0  0  0  0  0  0  0  0  0  0  0  0
  150.8358  140.5887  156.3517 H   0  0  0  0  0  0  0  0  0  0  0  0
  149.5565  141.6040  155.7331 H   0  0  0  0  0  0  0  0  0  0  0  0
  149.2898  140.6578  157.1932 H   0  0  0  0  0  0  0  0  0  0  0  0
  151.2929  142.9658  156.9337 H   0  0  0  0  0  0  0  0  0  0  0  0
  149.7893  144.1757  158.2809 H   0  0  0  0  0  0  0  0  0  0  0  0
  147.5687  142.3629  157.9014 H   0  0  0  0  0  0  0  0  0  0  0  0
  148.6660  141.9842  159.2161 H   0  0  0  0  0  0  0  0  0  0  0  0
  146.9279  144.4157  158.8031 H   0  0  0  0  0  0  0  0  0  0  0  0
  149.3690  144.3485  160.6549 H   0  0  0  0  0  0  0  0  0  0  0  0
  149.1661  145.3984  159.2717 H   0  0  0  0  0  0  0  0  0  0  0  0
  148.6029  146.5311  161.4581 H   0  0  0  0  0  0  0  0  0  0  0  0
  147.2578  146.5258  160.3374 H   0  0  0  0  0  0  0  0  0  0  0  0
  147.6676  144.6013  162.6756 H   0  0  0  0  0  0  0  0  0  0  0  0
  146.4362  145.8382  162.5568 H   0  0  0  0  0  0  0  0  0  0  0  0
  145.5356  143.5573  161.9943 H   0  0  0  0  0  0  0  0  0  0  0  0
  145.3775  144.6473  160.6314 H   0  0  0  0  0  0  0  0  0  0  0  0
  150.4146  141.5280  159.4658 H   0  0  0  0  0  0  0  0  0  0  0  0
  151.8402  139.9487  158.2208 H   0  0  0  0  0  0  0  0  0  0  0  0
  152.7416  140.5999  159.5734 H   0  0  0  0  0  0  0  0  0  0  0  0
  153.0508  141.2002  157.9479 H   0  0  0  0  0  0  0  0  0  0  0  0
  151.5412  144.7269  158.2247 H   0  0  0  0  0  0  0  0  0  0  0  0
  152.7383  146.1160  160.2428 H   0  0  0  0  0  0  0  0  0  0  0  0
  153.1386  144.1783  162.1833 H   0  0  0  0  0  0  0  0  0  0  0  0
  149.0482  143.6491  156.9186 H   0  0  0  0  0  0  0  0  0  0  0  0
  1  2  1  0  0  0  0
  1 18  1  0  0  0  0
  1 19  1  0  0  0  0
  1 20  1  0  0  0  0
  2  3  1  0  0  0  0
  2 11  1  0  0  0  0
  2 21  1  0  0  0  0
  3  4  1  0  0  0  0
  3 22  1  0  0  0  0
  3 41  1  0  0  0  0
  4  5  1  0  0  0  0
  4 23  1  0  0  0  0
  4 24  1  0  0  0  0
  5 10  1  0  0  0  0
  5  6  1  0  0  0  0
  5 25  1  0  0  0  0
  6  7  1  0  0  0  0
  6 26  1  0  0  0  0
  6 27  1  0  0  0  0
  7  8  1  0  0  0  0
  7 28  1  0  0  0  0
  7 29  1  0  0  0  0
  8  9  1  0  0  0  0
  8 30  1  0  0  0  0
  8 31  1  0  0  0  0
  9 10  1  0  0  0  0
  9 32  1  0  0  0  0
  9 33  1  0  0  0  0
 11 12  1  0  0  0  0
 11 13  1  0  0  0  0
 11 34  1  0  0  0  0
 12 35  1  0  0  0  0
 12 36  1  0  0  0  0
 12 37  1  0  0  0  0
 13 17  1  0  0  0  0
 13 14  1  0  0  0  0
 14 15  2  0  0  0  0
 14 38  1  0  0  0  0
 15 16  1  0  0  0  0
 15 39  1  0  0  0  0
 16 17  2  0  0  0  0
 16 40  1  0  0  0  0
M  CHG  1   3   1
M  END
> <s_m_source_file>
AV-unprocessed.smi

> <i_m_source_file_index>
3156

> <i_lp_mmshare_version>
43012

> <i_f3d_flags>
0

> <s_epik_input>
bjFbY0hdW2NIXVtjSF1uMVtDQEBIXShbQ0gzXSlbQ0BIXShbQ0gzXSlbTkhdW0NIMl1bQ0BASF0yW0NIMl1bQ0gyXVtDSDJdW0NIMl1PMg==

> <s_epik_cmdline>
J2VwaWtfcHl0aG9uJywgJy1waCcsICc3LjAnLCAnLXRuJywgJzgnLCAnLW1hJywgJzIwMCcsICctbWV0YWxfYmluZGluZycsICctaW1hZScsICc8aW5maWxlLm1hZT4nLCAnLW9tYWUnLCAnPG91dGZpbGUubWFlPic=

> <r_lp_tautomer_probability>
1

> <r_epik_Ionization_Penalty>
0.00658015

> <r_epik_Ionization_Penalty_Charging>
0.00656881

> <r_epik_Ionization_Penalty_Neutral>
1.13431e-05

> <r_epik_State_Penalty>
0.0048654

> <r_epik_Charging_Adjusted_Penalty>
0.0114342

> <i_epik_Tot_Q>
1

> <i_epik_Tot_abs_Q>
1

> <r_epik_Metal_State_Penalty>
-0

> <b_epik_Metal_Only>
0

> <s_lp_Force_Field>
OPLS_2005

> <r_lp_Energy>
18.8572

> <b_lp_Chiralities_Consistent>
1

> <s_lp_Variant>
AV-unprocessed.smi:3156-6

> <Gold.Version>
5.8.1

> <Gold.Id.Protein>
6NUR|6NUR_protein|mol2

> <Gold.PLP.Fitness>
46.9398

> <Gold.PLP.PLP>
-38.4809

> <Gold.PLP.part.hbond>
-4.0203

> <Gold.PLP.part.metal>
0.0000

> <Gold.PLP.part.buried>
-5.0040

> <Gold.PLP.part.nonpolar>
-30.2577

> <Gold.PLP.part.repulsive>
0.1207

> <Gold.PLP.ligand.clash>
0.0000

> <Gold.PLP.ligand.torsion>
0.4647

> <Gold.PLP.Chemscore.Hbond>
3.0996

> <Gold.PLP.Chemscore.CHOScore>
0.0000

> <Gold.PLP.Chemscore.Metal>
0.0000

> <Gold.Chemscore.Hbonds>
donor molecule, donor type, donor heavy atom, donor atom, acceptor molecule, acceptor atom, score
      L1  H     3    41       P1  8028  2.00
      P1  H  6933  6944       L1    10  0.75
      P1  H  6934  6946       L1    10  0.13

> <Gold.PLP.Chemscore.Internal.Correction>
0.0896

> <Gold.Rescore>
     Score         DG    S(hbond)    S(metal)    S(lipo)     H(rot)  DE(clash)    DE(int)     intcor
     16.90     -17.34       1.81        0.00      84.65       1.59       0.00       0.44       ----

> <Gold.Chemscore.Fitness>
16.8965

> <Gold.Chemscore.DG>
-17.3366

> <Gold.Chemscore.ZeroCoef>
-5.4800

> <Gold.Chemscore.Hbond>
1.8061

> <Gold.Chemscore.Metal>
0.0000

> <Gold.Chemscore.Lipo>
84.6536

> <Gold.Chemscore.Internal_Hbond>
0.0000

> <Gold.Chemscore.DEClash>
0.0000

> <Gold.Chemscore.DEInternal>
0.4401

> <Gold.Chemscore.Rot>
1.5938

> <Gold.Chemscore.Internal.Correction>
   9.000000E+99

> <Gold.Chemscore.Hbonds>
donor molecule, donor type, donor heavy atom, donor atom, acceptor molecule, acceptor atom, score
      L1  H     3    41       P1  8028  0.63
      P1  H  6933  6944       L1    10  0.11
      P1  H  6934  6946       L1    10  0.15

> <Gold.Chemscore.Hbond.Weighted>
-6.0324

> <Gold.Chemscore.Metal.Weighted>
-0.0000

> <Gold.Chemscore.Lipo.Weighted>
-9.9045

> <Gold.Chemscore.Internal_Hbond.Weighted>
0.0000

> <Gold.Chemscore.DEClash.Weighted>
0.0000

> <Gold.Chemscore.DEInternal.Weighted>
0.4401

> <Gold.Chemscore.Rot.Weighted>
4.0802

> <Gold.Chemscore.Internal.Correction.Weighted>
   9.000000E+99

> <Gold.Protein.RotatedTorsions>
[ 6907 6896 6895 6894 ] final   35.57 input  -60.11 | X-H torsion
[ 7974 7965 7964 7962 ] final -171.56 input  175.53 | X-H torsion
[ 8008 7997 7996 7995 ] final -145.43 input   59.86 | X-H torsion
[ 10167 10162 10161 10158 ] final  -45.12 input  -65.29 | X-H torsion
[ 10718 10713 10712 10709 ] final   17.48 input   66.30 | X-H torsion
[ 10763 10752 10751 10750 ] final  -13.28 input  -60.55 | X-H torsion
[ 11005 11000 10999 10996 ] final   78.05 input  -57.11 | X-H torsion

> <Gold.Protein.ActiveResidues>
 VAL166  LYS551  ARG553  GLY616  TRP617  ASP618  TYR619  PRO620  LYS621  CYS622 
 ASP623  PHE694  ASN695  SER759  ASP760  ASP761  ALA762  ILE779  LEU786  VAL792 
 PHE793  MET794  SER795  GLU796  ALA797  LYS798  CYS799  TRP800  GLU811  SER814 

> <Gold.Protein.RotatedAtoms>
  152.1179  134.9227  160.0563 H   0  0  0  0  0  0  0  0  0  0  0  0  # atno 6907 bound_to 6896
  152.0379  133.3960  159.4333 H   0  0  0  0  0  0  0  0  0  0  0  0  # atno 6908 bound_to 6896
  150.6847  134.3368  159.4894 H   0  0  0  0  0  0  0  0  0  0  0  0  # atno 6909 bound_to 6896
  144.7155  140.1903  143.6349 H   0  0  0  0  0  0  0  0  0  0  0  0  # atno 7974 bound_to 7965
  155.5430  140.0610  157.2866 H   0  0  0  0  0  0  0  0  0  0  0  0  # atno 8008 bound_to 7997
  154.4445  140.1916  156.0654 H   0  0  0  0  0  0  0  0  0  0  0  0  # atno 8009 bound_to 7997
  156.0571  140.3277  155.7422 H   0  0  0  0  0  0  0  0  0  0  0  0  # atno 8010 bound_to 7997
  140.6870  143.2895  151.3593 H   0  0  0  0  0  0  0  0  0  0  0  0  # atno 10167 bound_to 10162
  157.0827  130.6394  149.5830 H   0  0  0  0  0  0  0  0  0  0  0  0  # atno 10718 bound_to 10713
  153.5110  135.7016  153.5781 H   0  0  0  0  0  0  0  0  0  0  0  0  # atno 10763 bound_to 10752
  153.3871  135.3905  155.1897 H   0  0  0  0  0  0  0  0  0  0  0  0  # atno 10764 bound_to 10752
  154.8703  135.3849  154.4590 H   0  0  0  0  0  0  0  0  0  0  0  0  # atno 10765 bound_to 10752
  139.9228  134.7733  156.1600 H   0  0  0  0  0  0  0  0  0  0  0  0  # atno 11005 bound_to 11000
  145.8774  139.2304  143.1625 LP  0  0  0  0  0  0  0  0  0  0  0  0  # atno 17320 bound_to 7965
  146.0027  140.8506  143.0010 LP  0  0  0  0  0  0  0  0  0  0  0  0  # atno 17321 bound_to 7965
  139.6238  144.0855  152.2415 LP  0  0  0  0  0  0  0  0  0  0  0  0  # atno 17342 bound_to 10162
  140.0307  144.6083  150.7490 LP  0  0  0  0  0  0  0  0  0  0  0  0  # atno 17343 bound_to 10162
  155.9919  130.4975  150.7318 LP  0  0  0  0  0  0  0  0  0  0  0  0  # atno 17370 bound_to 10713
  157.4787  131.0900  151.0561 LP  0  0  0  0  0  0  0  0  0  0  0  0  # atno 17371 bound_to 10713
  141.0763  133.6774  156.2244 LP  0  0  0  0  0  0  0  0  0  0  0  0  # atno 17394 bound_to 11000
  140.6422  134.5154  157.5570 LP  0  0  0  0  0  0  0  0  0  0  0  0  # atno 17395 bound_to 11000

$$$$
