AV-unprocessed.smi:1901|AV-procd|sdf|7716|dock8
  -GOLD-   22720 9453D 1   1.00000     0.00000
 Structure written by MMmdl.
 28 29  0  0  0  0  0  0  0  0  1 V2000
  151.0966  140.9212  155.6344 O   0  0  0  0  0  0  0  0  0  0  0  0
  150.3760  141.9197  155.6472 C   0  0  0  0  0  0  0  0  0  0  0  0
  150.7322  143.0802  156.2164 N   0  0  0  0  0  0  0  0  0  0  0  0
  152.0024  143.3251  156.8910 C   0  0  0  0  0  0  0  0  0  0  0  0
  151.8042  143.8300  158.3329 C   0  0  2  0  0  0  0  0  0  0  0  0
  153.0351  143.7389  159.2133 C   0  0  0  0  0  0  0  0  0  0  0  0
  152.4256  143.8263  160.6083 C   0  0  0  0  0  0  0  0  0  0  0  0
  151.1492  143.2014  160.5115 O   0  0  0  0  0  0  0  0  0  0  0  0
  150.7977  143.0132  159.1433 C   0  0  0  0  0  0  0  0  0  0  0  0
  149.1482  141.9997  155.1053 N   0  0  0  0  0  0  0  0  0  0  0  0
  148.4279  140.9923  154.4111 C   0  0  0  0  0  0  0  0  0  0  0  0
  147.2977  141.2073  153.7276 N   0  0  0  0  0  0  0  0  0  0  0  0
  146.8051  140.0361  153.1465 C   0  0  0  0  0  0  0  0  0  0  0  0
  147.5792  138.9310  153.3988 C   0  0  0  0  0  0  0  0  0  0  0  0
  148.9663  139.3196  154.3811 S   0  0  0  0  0  0  0  0  0  0  0  0
  150.0794  143.8495  156.1819 H   0  0  0  0  0  0  0  0  0  0  0  0
  152.6053  142.4155  156.8893 H   0  0  0  0  0  0  0  0  0  0  0  0
  152.5568  144.0613  156.3081 H   0  0  0  0  0  0  0  0  0  0  0  0
  151.4661  144.8678  158.3150 H   0  0  0  0  0  0  0  0  0  0  0  0
  153.5299  142.7757  159.0805 H   0  0  0  0  0  0  0  0  0  0  0  0
  153.7624  144.5279  159.0197 H   0  0  0  0  0  0  0  0  0  0  0  0
  153.0472  143.3499  161.3667 H   0  0  0  0  0  0  0  0  0  0  0  0
  152.2807  144.8689  160.8942 H   0  0  0  0  0  0  0  0  0  0  0  0
  149.7681  143.3170  158.9527 H   0  0  0  0  0  0  0  0  0  0  0  0
  150.8836  141.9506  158.9123 H   0  0  0  0  0  0  0  0  0  0  0  0
  148.6756  142.8873  155.1929 H   0  0  0  0  0  0  0  0  0  0  0  0
  145.8942  140.0793  152.5676 H   0  0  0  0  0  0  0  0  0  0  0  0
  147.4175  137.9160  153.0675 H   0  0  0  0  0  0  0  0  0  0  0  0
  1  2  2  0  0  0  0
  2  3  1  0  0  0  0
  2 10  1  0  0  0  0
  3  4  1  0  0  0  0
  3 16  1  0  0  0  0
  4  5  1  0  0  0  0
  4 17  1  0  0  0  0
  4 18  1  0  0  0  0
  5  9  1  0  0  0  0
  5  6  1  0  0  0  0
  5 19  1  0  0  0  0
  6  7  1  0  0  0  0
  6 20  1  0  0  0  0
  6 21  1  0  0  0  0
  7  8  1  0  0  0  0
  7 22  1  0  0  0  0
  7 23  1  0  0  0  0
  8  9  1  0  0  0  0
  9 24  1  0  0  0  0
  9 25  1  0  0  0  0
 10 11  1  0  0  0  0
 10 26  1  0  0  0  0
 11 15  1  0  0  0  0
 11 12  2  0  0  0  0
 12 13  1  0  0  0  0
 13 14  2  0  0  0  0
 13 27  1  0  0  0  0
 14 15  1  0  0  0  0
 14 28  1  0  0  0  0
M  END
> <s_m_source_file>
AV-unprocessed.smi

> <i_m_source_file_index>
1901

> <i_lp_mmshare_version>
43012

> <i_f3d_flags>
0

> <s_epik_input>
czFbY0hdW2NIXW5jMVtOSF1DKD1PKVtOSF1bQ0gyXVtDQEBIXTJbQ0gyXVtDSDJdT1tDSDJdMg==

> <s_epik_cmdline>
J2VwaWtfcHl0aG9uJywgJy1waCcsICc3LjAnLCAnLXRuJywgJzgnLCAnLW1hJywgJzIwMCcsICctbWV0YWxfYmluZGluZycsICctaW1hZScsICc8aW5maWxlLm1hZT4nLCAnLW9tYWUnLCAnPG91dGZpbGUubWFlPic=

> <r_lp_tautomer_probability>
0.999

> <r_epik_Ionization_Penalty>
0.000365592

> <r_epik_Ionization_Penalty_Charging>
0

> <r_epik_Ionization_Penalty_Neutral>
0.000365592

> <r_epik_State_Penalty>
0.000177984

> <r_epik_Charging_Adjusted_Penalty>
0.000177984

> <i_epik_Tot_Q>
0

> <i_epik_Tot_abs_Q>
0

> <r_epik_Metal_State_Penalty>
0.00682492

> <b_epik_Metal_Only>
0

> <s_lp_Force_Field>
OPLS_2005

> <r_lp_Energy>
16.9403

> <b_lp_Chiralities_Consistent>
1

> <s_lp_Variant>
AV-unprocessed.smi:1901-1

> <Gold.Version>
5.8.1

> <Gold.Id.Protein>
6NUR|6NUR_protein|mol2

> <Gold.PLP.Fitness>
38.5250

> <Gold.PLP.PLP>
-25.5484

> <Gold.PLP.part.hbond>
-3.9538

> <Gold.PLP.part.metal>
0.0000

> <Gold.PLP.part.buried>
-1.3807

> <Gold.PLP.part.nonpolar>
-19.9224

> <Gold.PLP.part.repulsive>
0.6064

> <Gold.PLP.ligand.clash>
0.0000

> <Gold.PLP.ligand.torsion>
0.1370

> <Gold.PLP.Chemscore.Hbond>
2.4151

> <Gold.PLP.Chemscore.CHOScore>
2.0000

> <Gold.PLP.Chemscore.Metal>
0.0000

> <Gold.Chemscore.Hbonds>
donor molecule, donor type, donor heavy atom, donor atom, acceptor molecule, acceptor atom, score
      L1  H     3    16       P1  8028  1.00
      L1  H    10    26       P1  8028  0.91
      P1  H  7989  7998       L1     1  0.40
      L1  C    13    27       P1 10175  1.00
      L1  C    14    28       P1  7948  0.90

> <Gold.PLP.Chemscore.Internal.Correction>
0.0053

> <Gold.Rescore>
     Score         DG    S(hbond)    S(metal)    S(lipo)     H(rot)  DE(clash)    DE(int)     intcor
     14.85     -18.31       2.06        0.00      79.52       1.32       2.23       1.23       ----

> <Gold.Chemscore.Fitness>
14.8479

> <Gold.Chemscore.DG>
-18.3076

> <Gold.Chemscore.ZeroCoef>
-5.4800

> <Gold.Chemscore.Hbond>
2.0640

> <Gold.Chemscore.Metal>
0.0000

> <Gold.Chemscore.Lipo>
79.5175

> <Gold.Chemscore.Internal_Hbond>
0.0000

> <Gold.Chemscore.DEClash>
2.2264

> <Gold.Chemscore.DEInternal>
1.2334

> <Gold.Chemscore.Rot>
1.3163

> <Gold.Chemscore.Internal.Correction>
   9.000000E+99

> <Gold.Chemscore.Hbonds>
donor molecule, donor type, donor heavy atom, donor atom, acceptor molecule, acceptor atom, score
      L1  H     3    16       P1  8028  0.95
      L1  H    10    26       P1  8028  0.89
      P1  H  7989  7998       L1     1  0.09

> <Gold.Chemscore.Hbond.Weighted>
-6.8939

> <Gold.Chemscore.Metal.Weighted>
-0.0000

> <Gold.Chemscore.Lipo.Weighted>
-9.3035

> <Gold.Chemscore.Internal_Hbond.Weighted>
0.0000

> <Gold.Chemscore.DEClash.Weighted>
2.2264

> <Gold.Chemscore.DEInternal.Weighted>
1.2334

> <Gold.Chemscore.Rot.Weighted>
3.3698

> <Gold.Chemscore.Internal.Correction.Weighted>
   9.000000E+99

> <Gold.Protein.RotatedTorsions>
[ 6907 6896 6895 6894 ] final   37.95 input  -60.11 | X-H torsion
[ 7974 7965 7964 7962 ] final  163.43 input  175.53 | X-H torsion
[ 8008 7997 7996 7995 ] final  -72.73 input   59.86 | X-H torsion
[ 10167 10162 10161 10158 ] final -175.43 input  -65.29 | X-H torsion
[ 10718 10713 10712 10709 ] final -101.52 input   66.30 | X-H torsion
[ 10763 10752 10751 10750 ] final    0.00 input  -60.55 | X-H torsion
[ 11005 11000 10999 10996 ] final   35.13 input  -57.11 | X-H torsion

> <Gold.Protein.ActiveResidues>
 VAL166  LYS551  ARG553  GLY616  TRP617  ASP618  TYR619  PRO620  LYS621  CYS622 
 ASP623  PHE694  ASN695  SER759  ASP760  ASP761  ALA762  ILE779  LEU786  VAL792 
 PHE793  MET794  SER795  GLU796  ALA797  LYS798  CYS799  TRP800  GLU811  SER814 

> <Gold.Protein.RotatedAtoms>
  152.1500  134.8996  160.0548 H   0  0  0  0  0  0  0  0  0  0  0  0  # atno 6907 bound_to 6896
  152.0031  133.3828  159.4198 H   0  0  0  0  0  0  0  0  0  0  0  0  # atno 6908 bound_to 6896
  150.6874  134.3734  159.5046 H   0  0  0  0  0  0  0  0  0  0  0  0  # atno 6909 bound_to 6896
  144.7590  139.8181  143.6339 H   0  0  0  0  0  0  0  0  0  0  0  0  # atno 7974 bound_to 7965
  154.5190  140.0792  156.8136 H   0  0  0  0  0  0  0  0  0  0  0  0  # atno 8008 bound_to 7997
  155.3617  140.3418  155.4223 H   0  0  0  0  0  0  0  0  0  0  0  0  # atno 8009 bound_to 7997
  156.1660  140.1604  156.8518 H   0  0  0  0  0  0  0  0  0  0  0  0  # atno 8010 bound_to 7997
  139.5581  144.1937  152.1194 H   0  0  0  0  0  0  0  0  0  0  0  0  # atno 10167 bound_to 10162
  156.0197  130.5377  150.6975 H   0  0  0  0  0  0  0  0  0  0  0  0  # atno 10718 bound_to 10713
  153.3262  135.6972  153.6987 H   0  0  0  0  0  0  0  0  0  0  0  0  # atno 10763 bound_to 10752
  153.5807  135.3498  155.2874 H   0  0  0  0  0  0  0  0  0  0  0  0  # atno 10764 bound_to 10752
  154.8608  135.4294  154.2439 H   0  0  0  0  0  0  0  0  0  0  0  0  # atno 10765 bound_to 10752
  140.2457  134.3362  155.7908 H   0  0  0  0  0  0  0  0  0  0  0  0  # atno 11005 bound_to 11000
  146.1633  139.4755  142.9974 LP  0  0  0  0  0  0  0  0  0  0  0  0  # atno 17320 bound_to 7965
  145.6682  141.0223  143.1672 LP  0  0  0  0  0  0  0  0  0  0  0  0  # atno 17321 bound_to 7965
  140.1445  144.5171  150.6724 LP  0  0  0  0  0  0  0  0  0  0  0  0  # atno 17342 bound_to 10162
  140.6857  143.2349  151.5265 LP  0  0  0  0  0  0  0  0  0  0  0  0  # atno 17343 bound_to 10162
  157.4643  131.0886  151.0712 LP  0  0  0  0  0  0  0  0  0  0  0  0  # atno 17370 bound_to 10713
  157.1190  130.6054  149.5500 LP  0  0  0  0  0  0  0  0  0  0  0  0  # atno 17371 bound_to 10713
  141.2206  133.7324  156.8957 LP  0  0  0  0  0  0  0  0  0  0  0  0  # atno 17394 bound_to 11000
  140.1608  134.9167  157.2712 LP  0  0  0  0  0  0  0  0  0  0  0  0  # atno 17395 bound_to 11000

$$$$
