AV-unprocessed.smi:368|AV-procd|sdf|2434|dock8
  -GOLD-   2262022373D 1   1.00000     0.00000
 Structure written by MMmdl.
 37 38  0  0  0  0  0  0  0  0  1 V2000
  151.8107  140.2317  155.1255 O   0  0  0  0  0  0  0  0  0  0  0  0
  150.7075  140.4902  155.6089 C   0  0  0  0  0  0  0  0  0  0  0  0
  149.4200  139.9351  154.9823 C   0  0  0  0  0  0  0  0  0  0  0  0
  148.2879  140.8747  155.0339 N   0  0  0  0  0  0  0  0  0  0  0  0
  147.9541  141.5531  153.8497 C   0  0  0  0  0  0  0  0  0  0  0  0
  146.9367  142.4258  153.8196 C   0  0  0  0  0  0  0  0  0  0  0  0
  146.2087  142.6229  155.0799 C   0  0  0  0  0  0  0  0  0  0  0  0
  146.5136  142.0100  156.1624 N   0  0  0  0  0  0  0  0  0  0  0  0
  147.5860  141.0981  156.1926 C   0  0  0  0  0  0  0  0  0  0  0  0
  147.8904  140.5121  157.2317 O   0  0  0  0  0  0  0  0  0  0  0  0
  150.5427  141.2491  156.7033 N   0  0  0  0  0  0  0  0  0  0  0  0
  151.6129  141.8847  157.4683 C   0  0  0  0  0  0  0  0  0  0  0  0
  151.6858  141.2241  158.8609 C   0  0  0  0  0  0  0  0  0  0  0  0
  152.9749  141.5650  159.6279 C   0  0  0  0  0  0  0  0  0  0  0  0
  152.9294  142.8547  160.4658 C   0  0  0  0  0  0  0  0  0  0  0  0
  152.2081  144.0585  159.8354 C   0  0  0  0  0  0  0  0  0  0  0  0
  152.3944  144.2181  158.3180 C   0  0  0  0  0  0  0  0  0  0  0  0
  151.3714  143.4082  157.5029 C   0  0  0  0  0  0  0  0  0  0  0  0
  149.6367  139.6586  153.9494 H   0  0  0  0  0  0  0  0  0  0  0  0
  149.1524  139.0004  155.4787 H   0  0  0  0  0  0  0  0  0  0  0  0
  148.5699  141.3257  152.9918 H   0  0  0  0  0  0  0  0  0  0  0  0
  146.6298  142.9812  152.9457 H   0  0  0  0  0  0  0  0  0  0  0  0
  145.3805  143.3349  155.0348 H   0  0  0  0  0  0  0  0  0  0  0  0
  149.5999  141.4051  157.0293 H   0  0  0  0  0  0  0  0  0  0  0  0
  152.5598  141.6938  156.9594 H   0  0  0  0  0  0  0  0  0  0  0  0
  150.8040  141.4618  159.4573 H   0  0  0  0  0  0  0  0  0  0  0  0
  151.6672  140.1418  158.7228 H   0  0  0  0  0  0  0  0  0  0  0  0
  153.2128  140.7404  160.3009 H   0  0  0  0  0  0  0  0  0  0  0  0
  153.8114  141.6112  158.9297 H   0  0  0  0  0  0  0  0  0  0  0  0
  152.4587  142.6415  161.4261 H   0  0  0  0  0  0  0  0  0  0  0  0
  153.9557  143.1387  160.7018 H   0  0  0  0  0  0  0  0  0  0  0  0
  151.1433  144.0073  160.0656 H   0  0  0  0  0  0  0  0  0  0  0  0
  152.5645  144.9607  160.3339 H   0  0  0  0  0  0  0  0  0  0  0  0
  152.2483  145.2705  158.0726 H   0  0  0  0  0  0  0  0  0  0  0  0
  153.4158  143.9822  158.0176 H   0  0  0  0  0  0  0  0  0  0  0  0
  151.3874  143.7823  156.4783 H   0  0  0  0  0  0  0  0  0  0  0  0
  150.3662  143.6168  157.8727 H   0  0  0  0  0  0  0  0  0  0  0  0
  1  2  2  0  0  0  0
  2  3  1  0  0  0  0
  2 11  1  0  0  0  0
  3  4  1  0  0  0  0
  3 19  1  0  0  0  0
  3 20  1  0  0  0  0
  4  9  1  0  0  0  0
  4  5  1  0  0  0  0
  5  6  2  0  0  0  0
  5 21  1  0  0  0  0
  6  7  1  0  0  0  0
  6 22  1  0  0  0  0
  7  8  2  0  0  0  0
  7 23  1  0  0  0  0
  8  9  1  0  0  0  0
  9 10  2  0  0  0  0
 11 12  1  0  0  0  0
 11 24  1  0  0  0  0
 12 18  1  0  0  0  0
 12 13  1  0  0  0  0
 12 25  1  0  0  0  0
 13 14  1  0  0  0  0
 13 26  1  0  0  0  0
 13 27  1  0  0  0  0
 14 15  1  0  0  0  0
 14 28  1  0  0  0  0
 14 29  1  0  0  0  0
 15 16  1  0  0  0  0
 15 30  1  0  0  0  0
 15 31  1  0  0  0  0
 16 17  1  0  0  0  0
 16 32  1  0  0  0  0
 16 33  1  0  0  0  0
 17 18  1  0  0  0  0
 17 34  1  0  0  0  0
 17 35  1  0  0  0  0
 18 36  1  0  0  0  0
 18 37  1  0  0  0  0
M  END
> <s_m_source_file>
AV-unprocessed.smi

> <i_m_source_file_index>
368

> <i_lp_mmshare_version>
43012

> <i_f3d_flags>
0

> <s_epik_input>
W0NIMl0xW0NIMl1bQ0gyXVtDSDJdW0NIMl1bQ0gyXVtDSF0xW05IXUMoPU8pW0NIMl1uMltjSF1bY0hdW2NIXW5jMj1P

> <s_epik_cmdline>
J2VwaWtfcHl0aG9uJywgJy1waCcsICc3LjAnLCAnLXRuJywgJzgnLCAnLW1hJywgJzIwMCcsICctbWV0YWxfYmluZGluZycsICctaW1hZScsICc8aW5maWxlLm1hZT4nLCAnLW9tYWUnLCAnPG91dGZpbGUubWFlPic=

> <r_lp_tautomer_probability>
1

> <r_epik_Ionization_Penalty>
7.18069e-06

> <r_epik_Ionization_Penalty_Charging>
1.77491e-08

> <r_epik_Ionization_Penalty_Neutral>
7.16294e-06

> <r_epik_State_Penalty>
-0

> <r_epik_Charging_Adjusted_Penalty>
1.77491e-08

> <i_epik_Tot_Q>
0

> <i_epik_Tot_abs_Q>
0

> <r_epik_Metal_State_Penalty>
-0

> <b_epik_Metal_Only>
0

> <s_lp_Force_Field>
OPLS_2005

> <r_lp_Energy>
17.0449

> <b_lp_Chiralities_Consistent>
1

> <s_lp_Variant>
AV-unprocessed.smi:368-1

> <Gold.Version>
5.8.1

> <Gold.Id.Protein>
6NUR|6NUR_protein|mol2

> <Gold.PLP.Fitness>
44.5039

> <Gold.PLP.PLP>
-39.9954

> <Gold.PLP.part.hbond>
-1.0000

> <Gold.PLP.part.metal>
0.0000

> <Gold.PLP.part.buried>
-5.6296

> <Gold.PLP.part.nonpolar>
-32.8747

> <Gold.PLP.part.repulsive>
0.2186

> <Gold.PLP.ligand.clash>
0.0000

> <Gold.PLP.ligand.torsion>
0.5729

> <Gold.PLP.Chemscore.Hbond>
0.8800

> <Gold.PLP.Chemscore.CHOScore>
1.0000

> <Gold.PLP.Chemscore.Metal>
0.0000

> <Gold.Chemscore.Hbonds>
donor molecule, donor type, donor heavy atom, donor atom, acceptor molecule, acceptor atom, score
      P1  H  7989  7998       L1     1  0.85
      L1  C     5    21       P1  7957  1.00

> <Gold.PLP.Chemscore.Internal.Correction>
0.0142

> <Gold.Rescore>
     Score         DG    S(hbond)    S(metal)    S(lipo)     H(rot)  DE(clash)    DE(int)     intcor
     15.61     -16.53       0.84        0.00     103.39       1.50       0.38       0.54       ----

> <Gold.Chemscore.Fitness>
15.6137

> <Gold.Chemscore.DG>
-16.5330

> <Gold.Chemscore.ZeroCoef>
-5.4800

> <Gold.Chemscore.Hbond>
0.8353

> <Gold.Chemscore.Metal>
0.0000

> <Gold.Chemscore.Lipo>
103.3940

> <Gold.Chemscore.Internal_Hbond>
0.0000

> <Gold.Chemscore.DEClash>
0.3843

> <Gold.Chemscore.DEInternal>
0.5350

> <Gold.Chemscore.Rot>
1.4977

> <Gold.Chemscore.Internal.Correction>
   9.000000E+99

> <Gold.Chemscore.Hbonds>
donor molecule, donor type, donor heavy atom, donor atom, acceptor molecule, acceptor atom, score
      P1  H  7989  7998       L1     1  0.29

> <Gold.Chemscore.Hbond.Weighted>
-2.7900

> <Gold.Chemscore.Metal.Weighted>
-0.0000

> <Gold.Chemscore.Lipo.Weighted>
-12.0971

> <Gold.Chemscore.Internal_Hbond.Weighted>
0.0000

> <Gold.Chemscore.DEClash.Weighted>
0.3843

> <Gold.Chemscore.DEInternal.Weighted>
0.5350

> <Gold.Chemscore.Rot.Weighted>
3.8341

> <Gold.Chemscore.Internal.Correction.Weighted>
   9.000000E+99

> <Gold.Protein.RotatedTorsions>
[ 6907 6896 6895 6894 ] final -114.80 input  -60.11 | X-H torsion
[ 7974 7965 7964 7962 ] final -164.06 input  175.53 | X-H torsion
[ 8008 7997 7996 7995 ] final  120.69 input   59.86 | X-H torsion
[ 10167 10162 10161 10158 ] final  124.95 input  -65.29 | X-H torsion
[ 10718 10713 10712 10709 ] final  173.65 input   66.30 | X-H torsion
[ 10763 10752 10751 10750 ] final  -95.74 input  -60.55 | X-H torsion
[ 11005 11000 10999 10996 ] final -178.41 input  -57.11 | X-H torsion

> <Gold.Protein.ActiveResidues>
 VAL166  LYS551  ARG553  GLY616  TRP617  ASP618  TYR619  PRO620  LYS621  CYS622 
 ASP623  PHE694  ASN695  SER759  ASP760  ASP761  ALA762  ILE779  LEU786  VAL792 
 PHE793  MET794  SER795  GLU796  ALA797  LYS798  CYS799  TRP800  GLU811  SER814 

> <Gold.Protein.RotatedAtoms>
  150.7930  133.8749  159.3268 H   0  0  0  0  0  0  0  0  0  0  0  0  # atno 6907 bound_to 6896
  151.6582  135.0991  160.0183 H   0  0  0  0  0  0  0  0  0  0  0  0  # atno 6908 bound_to 6896
  152.4007  133.6774  159.6349 H   0  0  0  0  0  0  0  0  0  0  0  0  # atno 6909 bound_to 6896
  144.7308  140.3016  143.6203 H   0  0  0  0  0  0  0  0  0  0  0  0  # atno 7974 bound_to 7965
  156.2653  140.2825  156.1189 H   0  0  0  0  0  0  0  0  0  0  0  0  # atno 8008 bound_to 7997
  155.1177  140.0392  157.2759 H   0  0  0  0  0  0  0  0  0  0  0  0  # atno 8009 bound_to 7997
  154.6694  140.2584  155.7029 H   0  0  0  0  0  0  0  0  0  0  0  0  # atno 8010 bound_to 7997
  139.5713  144.6940  151.3772 H   0  0  0  0  0  0  0  0  0  0  0  0  # atno 10167 bound_to 10162
  156.9612  131.0061  151.2927 H   0  0  0  0  0  0  0  0  0  0  0  0  # atno 10718 bound_to 10713
  154.7176  135.5109  153.8762 H   0  0  0  0  0  0  0  0  0  0  0  0  # atno 10763 bound_to 10752
  153.0834  135.6638  154.0007 H   0  0  0  0  0  0  0  0  0  0  0  0  # atno 10764 bound_to 10752
  153.9837  135.3026  155.3397 H   0  0  0  0  0  0  0  0  0  0  0  0  # atno 10765 bound_to 10752
  140.4301  134.6527  157.4707 H   0  0  0  0  0  0  0  0  0  0  0  0  # atno 11005 bound_to 11000
  145.7754  139.1872  143.2188 LP  0  0  0  0  0  0  0  0  0  0  0  0  # atno 17320 bound_to 7965
  146.0877  140.7692  142.9610 LP  0  0  0  0  0  0  0  0  0  0  0  0  # atno 17321 bound_to 7965
  140.6997  143.7663  150.7383 LP  0  0  0  0  0  0  0  0  0  0  0  0  # atno 17342 bound_to 10162
  140.1169  143.4647  152.2336 LP  0  0  0  0  0  0  0  0  0  0  0  0  # atno 17343 bound_to 10162
  157.5657  130.8276  149.8324 LP  0  0  0  0  0  0  0  0  0  0  0  0  # atno 17370 bound_to 10713
  156.0321  130.3761  150.1658 LP  0  0  0  0  0  0  0  0  0  0  0  0  # atno 17371 bound_to 10713
  140.0140  134.6647  155.9337 LP  0  0  0  0  0  0  0  0  0  0  0  0  # atno 17394 bound_to 11000
  141.1749  133.6539  156.4790 LP  0  0  0  0  0  0  0  0  0  0  0  0  # atno 17395 bound_to 11000

$$$$
