AV-unprocessed.smi:1047|AV-procd|sdf|4590|dock9
  -GOLD-   22720 3 73D 1   1.00000     0.00000
 Structure written by MMmdl.
 57 59  0  0  0  0  0  0  0  0  3 V2000
  140.9179  145.1524  153.9493 C   0  0  0  0  0  0  0  0  0  0  0  0
  142.0023  146.0986  154.4839 C   0  0  0  0  0  0  0  0  0  0  0  0
  143.0586  145.4501  155.2595 N   0  0  0  0  0  0  0  0  0  0  0  0
  142.5456  144.7729  156.4481 C   0  0  0  0  0  0  0  0  0  0  0  0
  143.6657  144.0704  157.2340 C   0  0  0  0  0  0  0  0  0  0  0  0
  144.3535  143.1636  156.3783 O   0  0  0  0  0  0  0  0  0  0  0  0
  144.9200  143.7980  155.2342 C   0  0  1  0  0  0  0  0  0  0  0  0
  145.6350  142.7273  154.3991 C   0  0  0  0  0  0  0  0  0  0  0  0
  146.9896  142.4630  154.9228 N   0  3  0  0  0  0  0  0  0  0  0  0
  147.8515  141.6967  154.0008 C   0  0  0  0  0  0  0  0  0  0  0  0
  148.9092  140.8739  154.7623 C   0  0  1  0  0  0  0  0  0  0  0  0
  149.5687  140.0141  153.8546 O   0  0  0  0  0  0  0  0  0  0  0  0
  149.9959  141.7315  155.4429 C   0  0  0  0  0  0  0  0  0  0  0  0
  150.7458  141.0052  156.4776 N   0  0  0  0  0  0  0  0  0  0  0  0
  151.2593  139.7450  156.4487 C   0  0  0  0  0  0  0  0  0  0  0  0
  151.8849  139.5280  157.6383 N   0  3  0  0  0  0  0  0  0  0  0  0
  151.7737  140.6670  158.4384 C   0  0  0  0  0  0  0  0  0  0  0  0
  152.2438  140.9271  159.7200 C   0  0  0  0  0  0  0  0  0  0  0  0
  151.9636  142.2007  160.2641 C   0  0  0  0  0  0  0  0  0  0  0  0
  152.4662  142.5184  161.6625 C   0  0  0  0  0  0  0  0  0  0  0  0
  151.2302  143.1644  159.5249 C   0  0  0  0  0  0  0  0  0  0  0  0
  150.9320  144.5301  160.1201 C   0  0  0  0  0  0  0  0  0  0  0  0
  150.7604  142.8805  158.2226 C   0  0  0  0  0  0  0  0  0  0  0  0
  151.0464  141.6211  157.6995 C   0  0  0  0  0  0  0  0  0  0  0  0
  143.7895  144.4865  154.4441 C   0  0  0  0  0  0  0  0  0  0  0  0
  140.1134  145.7197  153.4807 H   0  0  0  0  0  0  0  0  0  0  0  0
  140.4797  144.5606  154.7535 H   0  0  0  0  0  0  0  0  0  0  0  0
  141.3088  144.4669  153.1981 H   0  0  0  0  0  0  0  0  0  0  0  0
  142.4394  146.6563  153.6543 H   0  0  0  0  0  0  0  0  0  0  0  0
  141.5071  146.8386  155.1141 H   0  0  0  0  0  0  0  0  0  0  0  0
  142.0520  145.4862  157.1076 H   0  0  0  0  0  0  0  0  0  0  0  0
  141.7916  144.0386  156.1599 H   0  0  0  0  0  0  0  0  0  0  0  0
  144.3675  144.7998  157.6418 H   0  0  0  0  0  0  0  0  0  0  0  0
  143.2493  143.5196  158.0776 H   0  0  0  0  0  0  0  0  0  0  0  0
  145.6447  144.5485  155.5563 H   0  0  0  0  0  0  0  0  0  0  0  0
  145.0541  141.8038  154.3941 H   0  0  0  0  0  0  0  0  0  0  0  0
  145.7198  143.0608  153.3641 H   0  0  0  0  0  0  0  0  0  0  0  0
  147.4353  143.3459  155.1284 H   0  0  0  0  0  0  0  0  0  0  0  0
  147.2381  141.0435  153.3781 H   0  0  0  0  0  0  0  0  0  0  0  0
  148.3377  142.4097  153.3352 H   0  0  0  0  0  0  0  0  0  0  0  0
  148.4201  140.2588  155.5189 H   0  0  0  0  0  0  0  0  0  0  0  0
  149.7132  140.4741  153.0420 H   0  0  0  0  0  0  0  0  0  0  0  0
  150.7252  142.0599  154.7006 H   0  0  0  0  0  0  0  0  0  0  0  0
  149.5736  142.6406  155.8712 H   0  0  0  0  0  0  0  0  0  0  0  0
  151.1887  139.0456  155.6278 H   0  0  0  0  0  0  0  0  0  0  0  0
  152.8012  140.1880  160.2770 H   0  0  0  0  0  0  0  0  0  0  0  0
  153.1225  143.3889  161.6463 H   0  0  0  0  0  0  0  0  0  0  0  0
  153.0306  141.6851  162.0826 H   0  0  0  0  0  0  0  0  0  0  0  0
  151.6307  142.7262  162.3319 H   0  0  0  0  0  0  0  0  0  0  0  0
  150.3406  145.1424  159.4388 H   0  0  0  0  0  0  0  0  0  0  0  0
  151.8579  145.0661  160.3306 H   0  0  0  0  0  0  0  0  0  0  0  0
  150.3703  144.4298  161.0491 H   0  0  0  0  0  0  0  0  0  0  0  0
  150.2022  143.6172  157.6644 H   0  0  0  0  0  0  0  0  0  0  0  0
  143.1014  143.7313  154.0607 H   0  0  0  0  0  0  0  0  0  0  0  0
  144.2136  144.9900  153.5743 H   0  0  0  0  0  0  0  0  0  0  0  0
  146.8969  141.9398  155.7821 H   0  0  0  0  0  0  0  0  0  0  0  0
  152.3593  138.6673  157.8811 H   0  0  0  0  0  0  0  0  0  0  0  0
  1  2  1  0  0  0  0
  1 26  1  0  0  0  0
  1 27  1  0  0  0  0
  1 28  1  0  0  0  0
  2  3  1  0  0  0  0
  2 29  1  0  0  0  0
  2 30  1  0  0  0  0
  3 25  1  0  0  0  0
  3  4  1  0  0  0  0
  4  5  1  0  0  0  0
  4 31  1  0  0  0  0
  4 32  1  0  0  0  0
  5  6  1  0  0  0  0
  5 33  1  0  0  0  0
  5 34  1  0  0  0  0
  6  7  1  0  0  0  0
  7  8  1  0  0  0  0
  7 25  1  0  0  0  0
  7 35  1  0  0  0  0
  8  9  1  0  0  0  0
  8 36  1  0  0  0  0
  8 37  1  0  0  0  0
  9 10  1  0  0  0  0
  9 38  1  0  0  0  0
  9 56  1  0  0  0  0
 10 11  1  0  0  0  0
 10 39  1  0  0  0  0
 10 40  1  0  0  0  0
 11 12  1  0  0  0  0
 11 13  1  0  0  0  0
 11 41  1  0  0  0  0
 12 42  1  0  0  0  0
 13 14  1  0  0  0  0
 13 43  1  0  0  0  0
 13 44  1  0  0  0  0
 14 24  1  0  0  0  0
 14 15  1  0  0  0  0
 15 16  2  0  0  0  0
 15 45  1  0  0  0  0
 16 17  1  0  0  0  0
 16 57  1  0  0  0  0
 17 24  2  0  0  0  0
 17 18  1  0  0  0  0
 18 19  2  0  0  0  0
 18 46  1  0  0  0  0
 19 20  1  0  0  0  0
 19 21  1  0  0  0  0
 20 47  1  0  0  0  0
 20 48  1  0  0  0  0
 20 49  1  0  0  0  0
 21 22  1  0  0  0  0
 21 23  2  0  0  0  0
 22 50  1  0  0  0  0
 22 51  1  0  0  0  0
 22 52  1  0  0  0  0
 23 24  1  0  0  0  0
 23 53  1  0  0  0  0
 25 54  1  0  0  0  0
 25 55  1  0  0  0  0
M  CHG  1   9   1
M  CHG  1  16   1
M  END
> <s_m_source_file>
AV-unprocessed.smi

> <i_m_source_file_index>
1047

> <i_lp_mmshare_version>
43012

> <i_f3d_flags>
0

> <s_epik_input>
W0NIM11bQ0gyXU4xW0NIMl1bQ0gyXU9bQ0BIXShbQ0gyXTEpW0NIMl1bTkhdW0NIMl1bQ0BIXShbT0hdKVtDSDJdbihbY0hdbjIpYyhjMjMpW2NIXWMoW0NIM10pYyhbY0hdMylbQ0gzXQ==

> <s_epik_cmdline>
J2VwaWtfcHl0aG9uJywgJy1waCcsICc3LjAnLCAnLXRuJywgJzgnLCAnLW1hJywgJzIwMCcsICctbWV0YWxfYmluZGluZycsICctaW1hZScsICc8aW5maWxlLm1hZT4nLCAnLW9tYWUnLCAnPG91dGZpbGUubWFlPic=

> <r_epik_Ionization_Penalty>
1.75732

> <r_epik_Ionization_Penalty_Charging>
1.18089

> <r_epik_Ionization_Penalty_Neutral>
0.576429

> <r_epik_State_Penalty>
1.69377

> <r_epik_Charging_Adjusted_Penalty>
2.87466

> <i_epik_Tot_Q>
2

> <i_epik_Tot_abs_Q>
2

> <r_epik_Metal_State_Penalty>
5.70174

> <b_epik_Metal_Only>
0

> <s_lp_Force_Field>
OPLS_2005

> <r_lp_Energy>
42.3107

> <b_lp_Chiralities_Consistent>
1

> <s_lp_Variant>
AV-unprocessed.smi:1047-31

> <Gold.Version>
5.8.1

> <Gold.Id.Protein>
6NUR|6NUR_protein|mol2

> <Gold.PLP.Fitness>
58.9802

> <Gold.PLP.PLP>
-51.6010

> <Gold.PLP.part.hbond>
-2.3124

> <Gold.PLP.part.metal>
0.0000

> <Gold.PLP.part.buried>
-8.0283

> <Gold.PLP.part.nonpolar>
-41.1997

> <Gold.PLP.part.repulsive>
0.2991

> <Gold.PLP.ligand.clash>
0.0000

> <Gold.PLP.ligand.torsion>
0.8457

> <Gold.PLP.Chemscore.Hbond>
3.0000

> <Gold.PLP.Chemscore.CHOScore>
0.0000

> <Gold.PLP.Chemscore.Metal>
0.0000

> <Gold.Chemscore.Hbonds>
donor molecule, donor type, donor heavy atom, donor atom, acceptor molecule, acceptor atom, score
      L1  H     9    38       P1  8028  1.70
      L1  H    12    42       P1  7957  0.74

> <Gold.PLP.Chemscore.Internal.Correction>
0.0706

> <Gold.Rescore>
     Score         DG    S(hbond)    S(metal)    S(lipo)     H(rot)  DE(clash)    DE(int)     intcor
     17.26     -18.40       1.15        0.00     136.67       2.69       0.01       1.13       ----

> <Gold.Chemscore.Fitness>
17.2620

> <Gold.Chemscore.DG>
-18.4047

> <Gold.Chemscore.ZeroCoef>
-5.4800

> <Gold.Chemscore.Hbond>
1.1451

> <Gold.Chemscore.Metal>
0.0000

> <Gold.Chemscore.Lipo>
136.6740

> <Gold.Chemscore.Internal_Hbond>
0.0000

> <Gold.Chemscore.DEClash>
0.0110

> <Gold.Chemscore.DEInternal>
1.1317

> <Gold.Chemscore.Rot>
2.6917

> <Gold.Chemscore.Internal.Correction>
   9.000000E+99

> <Gold.Chemscore.Hbonds>
donor molecule, donor type, donor heavy atom, donor atom, acceptor molecule, acceptor atom, score
      L1  H     9    38       P1  8028  0.14
      L1  H    12    42       P1  7957  0.73

> <Gold.Chemscore.Hbond.Weighted>
-3.8245

> <Gold.Chemscore.Metal.Weighted>
-0.0000

> <Gold.Chemscore.Lipo.Weighted>
-15.9909

> <Gold.Chemscore.Internal_Hbond.Weighted>
0.0000

> <Gold.Chemscore.DEClash.Weighted>
0.0110

> <Gold.Chemscore.DEInternal.Weighted>
1.1317

> <Gold.Chemscore.Rot.Weighted>
6.8907

> <Gold.Chemscore.Internal.Correction.Weighted>
   9.000000E+99

> <Gold.Protein.RotatedTorsions>
[ 6907 6896 6895 6894 ] final -133.26 input  -60.11 | X-H torsion
[ 7974 7965 7964 7962 ] final    3.81 input  175.53 | X-H torsion
[ 8008 7997 7996 7995 ] final   92.67 input   59.86 | X-H torsion
[ 10167 10162 10161 10158 ] final  169.14 input  -65.29 | X-H torsion
[ 10718 10713 10712 10709 ] final   93.77 input   66.30 | X-H torsion
[ 10763 10752 10751 10750 ] final  -26.55 input  -60.55 | X-H torsion
[ 11005 11000 10999 10996 ] final  144.77 input  -57.11 | X-H torsion

> <Gold.Protein.ActiveResidues>
 VAL166  LYS551  ARG553  GLY616  TRP617  ASP618  TYR619  PRO620  LYS621  CYS622 
 ASP623  PHE694  ASN695  SER759  ASP760  ASP761  ALA762  ILE779  LEU786  VAL792 
 PHE793  MET794  SER795  GLU796  ALA797  LYS798  CYS799  TRP800  GLU811  SER814 

> <Gold.Protein.RotatedAtoms>
  150.9719  133.6335  159.2736 H   0  0  0  0  0  0  0  0  0  0  0  0  # atno 6907 bound_to 6896
  151.3621  135.0905  159.9447 H   0  0  0  0  0  0  0  0  0  0  0  0  # atno 6908 bound_to 6896
  152.5186  133.9291  159.7626 H   0  0  0  0  0  0  0  0  0  0  0  0  # atno 6909 bound_to 6896
  146.2445  140.0629  142.8367 H   0  0  0  0  0  0  0  0  0  0  0  0  # atno 7974 bound_to 7965
  156.0380  140.3322  155.7212 H   0  0  0  0  0  0  0  0  0  0  0  0  # atno 8008 bound_to 7997
  155.5787  140.0635  157.2806 H   0  0  0  0  0  0  0  0  0  0  0  0  # atno 8009 bound_to 7997
  154.4381  140.1848  156.0942 H   0  0  0  0  0  0  0  0  0  0  0  0  # atno 8010 bound_to 7997
  139.4985  144.3738  151.9696 H   0  0  0  0  0  0  0  0  0  0  0  0  # atno 10167 bound_to 10162
  157.6952  131.0490  150.4085 H   0  0  0  0  0  0  0  0  0  0  0  0  # atno 10718 bound_to 10713
  153.7177  135.6947  153.5021 H   0  0  0  0  0  0  0  0  0  0  0  0  # atno 10763 bound_to 10752
  153.2226  135.4364  155.0505 H   0  0  0  0  0  0  0  0  0  0  0  0  # atno 10764 bound_to 10752
  154.8294  135.3464  154.6712 H   0  0  0  0  0  0  0  0  0  0  0  0  # atno 10765 bound_to 10752
  140.0659  134.9179  157.1263 H   0  0  0  0  0  0  0  0  0  0  0  0  # atno 11005 bound_to 11000
  145.0884  140.9268  143.4784 LP  0  0  0  0  0  0  0  0  0  0  0  0  # atno 17320 bound_to 7965
  145.0796  139.2969  143.5790 LP  0  0  0  0  0  0  0  0  0  0  0  0  # atno 17321 bound_to 7965
  140.3174  144.3467  150.6018 LP  0  0  0  0  0  0  0  0  0  0  0  0  # atno 17342 bound_to 10162
  140.5750  143.2177  151.7531 LP  0  0  0  0  0  0  0  0  0  0  0  0  # atno 17343 bound_to 10162
  156.4472  130.4004  149.6659 LP  0  0  0  0  0  0  0  0  0  0  0  0  # atno 17370 bound_to 10713
  156.3822  130.7585  151.2578 LP  0  0  0  0  0  0  0  0  0  0  0  0  # atno 17371 bound_to 10713
  140.3700  134.2400  155.7179 LP  0  0  0  0  0  0  0  0  0  0  0  0  # atno 17394 bound_to 11000
  141.1992  133.8016  157.0546 LP  0  0  0  0  0  0  0  0  0  0  0  0  # atno 17395 bound_to 11000

$$$$
