AV-unprocessed.smi:2284|AV-procd|sdf|9201|dock4
  -GOLD-   2272012413D 1   1.00000     0.00000
 Structure written by MMmdl.
 44 45  0  0  0  0  0  0  0  0  1 V2000
  151.1917  144.2793  158.1468 C   0  0  0  0  0  0  0  0  0  0  0  0
  151.9194  143.1419  158.8334 C   0  0  0  0  0  0  0  0  0  0  0  0
  152.9252  143.4100  159.7820 C   0  0  0  0  0  0  0  0  0  0  0  0
  153.5973  142.3473  160.4120 C   0  0  0  0  0  0  0  0  0  0  0  0
  153.2691  141.0120  160.0987 C   0  0  0  0  0  0  0  0  0  0  0  0
  154.0041  139.8774  160.7876 C   0  0  0  0  0  0  0  0  0  0  0  0
  152.2621  140.7287  159.1473 C   0  0  0  0  0  0  0  0  0  0  0  0
  151.9927  139.4013  158.8860 O   0  0  0  0  0  0  0  0  0  0  0  0
  150.6742  139.0370  158.4966 C   0  0  0  0  0  0  0  0  0  0  0  0
  150.2678  137.7269  159.1924 C   0  0  2  0  0  0  0  0  0  0  0  0
  151.3639  136.8378  159.1138 O   0  0  0  0  0  0  0  0  0  0  0  0
  149.0033  137.0841  158.5791 C   0  0  0  0  0  0  0  0  0  0  0  0
  148.5480  135.9112  159.3440 N   0  0  0  0  0  0  0  0  0  0  0  0
  148.6098  134.6745  158.6814 C   0  0  0  0  0  0  0  0  0  0  0  0
  148.2400  133.5770  159.2561 N   0  0  0  0  0  0  0  0  0  0  0  0
  147.7680  133.6033  160.5715 C   0  0  0  0  0  0  0  0  0  0  0  0
  147.3667  132.2588  161.1518 C   0  0  0  0  0  0  0  0  0  0  0  0
  147.6865  134.7686  161.2702 C   0  0  0  0  0  0  0  0  0  0  0  0
  147.1896  134.8568  162.7080 C   0  0  0  0  0  0  0  0  0  0  0  0
  148.1031  136.0261  160.6288 C   0  0  0  0  0  0  0  0  0  0  0  0
  148.0624  137.1154  161.2038 O   0  0  0  0  0  0  0  0  0  0  0  0
  151.5907  141.8081  158.5181 C   0  0  0  0  0  0  0  0  0  0  0  0
  151.4308  145.2392  158.6057 H   0  0  0  0  0  0  0  0  0  0  0  0
  150.1130  144.1332  158.2093 H   0  0  0  0  0  0  0  0  0  0  0  0
  151.4723  144.3247  157.0942 H   0  0  0  0  0  0  0  0  0  0  0  0
  153.1857  144.4287  160.0295 H   0  0  0  0  0  0  0  0  0  0  0  0
  154.3678  142.5628  161.1376 H   0  0  0  0  0  0  0  0  0  0  0  0
  153.3010  139.2457  161.3315 H   0  0  0  0  0  0  0  0  0  0  0  0
  154.7429  140.2511  161.4970 H   0  0  0  0  0  0  0  0  0  0  0  0
  154.5218  139.2610  160.0520 H   0  0  0  0  0  0  0  0  0  0  0  0
  149.9608  139.8299  158.7283 H   0  0  0  0  0  0  0  0  0  0  0  0
  150.6545  138.8778  157.4172 H   0  0  0  0  0  0  0  0  0  0  0  0
  150.1067  137.9497  160.2479 H   0  0  0  0  0  0  0  0  0  0  0  0
  151.7483  136.9087  158.2537 H   0  0  0  0  0  0  0  0  0  0  0  0
  148.1967  137.8197  158.5661 H   0  0  0  0  0  0  0  0  0  0  0  0
  149.1673  136.8499  157.5249 H   0  0  0  0  0  0  0  0  0  0  0  0
  148.9928  134.7070  157.6599 H   0  0  0  0  0  0  0  0  0  0  0  0
  146.3111  132.2606  161.4247 H   0  0  0  0  0  0  0  0  0  0  0  0
  147.9566  132.0347  162.0409 H   0  0  0  0  0  0  0  0  0  0  0  0
  147.5249  131.4528  160.4342 H   0  0  0  0  0  0  0  0  0  0  0  0
  147.9831  135.2290  163.3566 H   0  0  0  0  0  0  0  0  0  0  0  0
  146.8604  133.8993  163.1079 H   0  0  0  0  0  0  0  0  0  0  0  0
  146.3466  135.5453  162.7748 H   0  0  0  0  0  0  0  0  0  0  0  0
  150.8161  141.6372  157.7863 H   0  0  0  0  0  0  0  0  0  0  0  0
  1  2  1  0  0  0  0
  1 23  1  0  0  0  0
  1 24  1  0  0  0  0
  1 25  1  0  0  0  0
  2 22  1  0  0  0  0
  2  3  2  0  0  0  0
  3  4  1  0  0  0  0
  3 26  1  0  0  0  0
  4  5  2  0  0  0  0
  4 27  1  0  0  0  0
  5  6  1  0  0  0  0
  5  7  1  0  0  0  0
  6 28  1  0  0  0  0
  6 29  1  0  0  0  0
  6 30  1  0  0  0  0
  7  8  1  0  0  0  0
  7 22  2  0  0  0  0
  8  9  1  0  0  0  0
  9 10  1  0  0  0  0
  9 31  1  0  0  0  0
  9 32  1  0  0  0  0
 10 11  1  0  0  0  0
 10 12  1  0  0  0  0
 10 33  1  0  0  0  0
 11 34  1  0  0  0  0
 12 13  1  0  0  0  0
 12 35  1  0  0  0  0
 12 36  1  0  0  0  0
 13 20  1  0  0  0  0
 13 14  1  0  0  0  0
 14 15  2  0  0  0  0
 14 37  1  0  0  0  0
 15 16  1  0  0  0  0
 16 17  1  0  0  0  0
 16 18  2  0  0  0  0
 17 38  1  0  0  0  0
 17 39  1  0  0  0  0
 17 40  1  0  0  0  0
 18 19  1  0  0  0  0
 18 20  1  0  0  0  0
 19 41  1  0  0  0  0
 19 42  1  0  0  0  0
 19 43  1  0  0  0  0
 20 21  2  0  0  0  0
 22 44  1  0  0  0  0
M  END
> <s_m_source_file>
AV-unprocessed.smi

> <i_m_source_file_index>
2284

> <i_lp_mmshare_version>
43012

> <i_f3d_flags>
0

> <s_epik_input>
W0NIM11jMVtjSF1bY0hdYyhbQ0gzXSljKFtjSF0xKU9bQ0gyXVtDQEhdKFtPSF0pW0NIMl1uMltjSF1uYyhbQ0gzXSljKFtDSDNdKWMyPU8=

> <s_epik_cmdline>
J2VwaWtfcHl0aG9uJywgJy1waCcsICc3LjAnLCAnLXRuJywgJzgnLCAnLW1hJywgJzIwMCcsICctbWV0YWxfYmluZGluZycsICctaW1hZScsICc8aW5maWxlLm1hZT4nLCAnLW9tYWUnLCAnPG91dGZpbGUubWFlPic=

> <r_lp_tautomer_probability>
1

> <r_epik_Ionization_Penalty>
3.7476e-05

> <r_epik_Ionization_Penalty_Charging>
8.44705e-08

> <r_epik_Ionization_Penalty_Neutral>
3.73915e-05

> <r_epik_State_Penalty>
-0

> <r_epik_Charging_Adjusted_Penalty>
8.44705e-08

> <i_epik_Tot_Q>
0

> <i_epik_Tot_abs_Q>
0

> <r_epik_Metal_State_Penalty>
-0

> <b_epik_Metal_Only>
0

> <s_lp_Force_Field>
OPLS_2005

> <r_lp_Energy>
24.4024

> <b_lp_Chiralities_Consistent>
1

> <s_lp_Variant>
AV-unprocessed.smi:2284-1

> <Gold.Version>
5.8.1

> <Gold.Id.Protein>
6NUR|6NUR_protein|mol2

> <Gold.PLP.Fitness>
51.5187

> <Gold.PLP.PLP>
-44.9287

> <Gold.PLP.part.hbond>
-3.0000

> <Gold.PLP.part.metal>
0.0000

> <Gold.PLP.part.buried>
-4.2868

> <Gold.PLP.part.nonpolar>
-37.8765

> <Gold.PLP.part.repulsive>
0.0000

> <Gold.PLP.ligand.clash>
0.0000

> <Gold.PLP.ligand.torsion>
0.8139

> <Gold.PLP.Chemscore.Hbond>
2.7040

> <Gold.PLP.Chemscore.CHOScore>
0.0000

> <Gold.PLP.Chemscore.Metal>
0.0000

> <Gold.Chemscore.Hbonds>
donor molecule, donor type, donor heavy atom, donor atom, acceptor molecule, acceptor atom, score
      P1  H  6896  6907       L1    11  1.00
      P1  H  6931  6943       L1    21  1.00
      P1  H  6934  6947       L1    21  0.55

> <Gold.PLP.Chemscore.Internal.Correction>
0.1059

> <Gold.Rescore>
     Score         DG    S(hbond)    S(metal)    S(lipo)     H(rot)  DE(clash)    DE(int)     intcor
     21.50     -22.32       2.66        0.00     118.86       2.32       0.03       0.78       ----

> <Gold.Chemscore.Fitness>
21.5034

> <Gold.Chemscore.DG>
-22.3184

> <Gold.Chemscore.ZeroCoef>
-5.4800

> <Gold.Chemscore.Hbond>
2.6587

> <Gold.Chemscore.Metal>
0.0000

> <Gold.Chemscore.Lipo>
118.8608

> <Gold.Chemscore.Internal_Hbond>
0.0000

> <Gold.Chemscore.DEClash>
0.0327

> <Gold.Chemscore.DEInternal>
0.7823

> <Gold.Chemscore.Rot>
2.3236

> <Gold.Chemscore.Internal.Correction>
   9.000000E+99

> <Gold.Chemscore.Hbonds>
donor molecule, donor type, donor heavy atom, donor atom, acceptor molecule, acceptor atom, score
      P1  H  6896  6907       L1    11  0.91
      P1  H  6931  6943       L1    21  0.97
      P1  H  6934  6947       L1    21  0.55

> <Gold.Chemscore.Hbond.Weighted>
-8.8801

> <Gold.Chemscore.Metal.Weighted>
-0.0000

> <Gold.Chemscore.Lipo.Weighted>
-13.9067

> <Gold.Chemscore.Internal_Hbond.Weighted>
0.0000

> <Gold.Chemscore.DEClash.Weighted>
0.0327

> <Gold.Chemscore.DEInternal.Weighted>
0.7823

> <Gold.Chemscore.Rot.Weighted>
5.9484

> <Gold.Chemscore.Internal.Correction.Weighted>
   9.000000E+99

> <Gold.Protein.RotatedTorsions>
[ 6907 6896 6895 6894 ] final  -18.22 input  -60.11 | X-H torsion
[ 7974 7965 7964 7962 ] final -103.92 input  175.53 | X-H torsion
[ 8008 7997 7996 7995 ] final -166.99 input   59.86 | X-H torsion
[ 10167 10162 10161 10158 ] final  -70.83 input  -65.29 | X-H torsion
[ 10718 10713 10712 10709 ] final  -64.62 input   66.30 | X-H torsion
[ 10763 10752 10751 10750 ] final   52.55 input  -60.55 | X-H torsion
[ 11005 11000 10999 10996 ] final  -27.00 input  -57.11 | X-H torsion

> <Gold.Protein.ActiveResidues>
 VAL166  LYS551  ARG553  GLY616  TRP617  ASP618  TYR619  PRO620  LYS621  CYS622 
 ASP623  PHE694  ASN695  SER759  ASP760  ASP761  ALA762  ILE779  LEU786  VAL792 
 PHE793  MET794  SER795  GLU796  ALA797  LYS798  CYS799  TRP800  GLU811  SER814 

> <Gold.Protein.RotatedAtoms>
  151.2815  135.0715  159.9170 H   0  0  0  0  0  0  0  0  0  0  0  0  # atno 6907 bound_to 6896
  152.5333  134.0026  159.7912 H   0  0  0  0  0  0  0  0  0  0  0  0  # atno 6908 bound_to 6896
  151.0281  133.5765  159.2694 H   0  0  0  0  0  0  0  0  0  0  0  0  # atno 6909 bound_to 6896
  145.2497  140.9234  143.3102 H   0  0  0  0  0  0  0  0  0  0  0  0  # atno 7974 bound_to 7965
  155.8716  140.0994  157.1546 H   0  0  0  0  0  0  0  0  0  0  0  0  # atno 8008 bound_to 7997
  154.3997  140.1346  156.4148 H   0  0  0  0  0  0  0  0  0  0  0  0  # atno 8009 bound_to 7997
  155.7744  140.3460  155.5266 H   0  0  0  0  0  0  0  0  0  0  0  0  # atno 8010 bound_to 7997
  140.5322  143.2321  151.7242 H   0  0  0  0  0  0  0  0  0  0  0  0  # atno 10167 bound_to 10162
  156.0718  130.4236  150.1446 H   0  0  0  0  0  0  0  0  0  0  0  0  # atno 10718 bound_to 10713
  152.9789  135.5808  154.4597 H   0  0  0  0  0  0  0  0  0  0  0  0  # atno 10763 bound_to 10752
  154.4175  135.2771  155.1999 H   0  0  0  0  0  0  0  0  0  0  0  0  # atno 10764 bound_to 10752
  154.3762  135.6157  153.5820 H   0  0  0  0  0  0  0  0  0  0  0  0  # atno 10765 bound_to 10752
  140.9080  133.7479  156.0632 H   0  0  0  0  0  0  0  0  0  0  0  0  # atno 11005 bound_to 11000
  144.9514  139.4079  143.6400 LP  0  0  0  0  0  0  0  0  0  0  0  0  # atno 17320 bound_to 7965
  146.3306  139.8523  142.8871 LP  0  0  0  0  0  0  0  0  0  0  0  0  # atno 17321 bound_to 7965
  139.4958  144.4097  152.0093 LP  0  0  0  0  0  0  0  0  0  0  0  0  # atno 17342 bound_to 10162
  140.3200  144.3439  150.6012 LP  0  0  0  0  0  0  0  0  0  0  0  0  # atno 17343 bound_to 10162
  156.9495  130.9770  151.3501 LP  0  0  0  0  0  0  0  0  0  0  0  0  # atno 17370 bound_to 10713
  157.5793  130.8365  149.8500 LP  0  0  0  0  0  0  0  0  0  0  0  0  # atno 17371 bound_to 10713
  140.8146  134.3360  157.5401 LP  0  0  0  0  0  0  0  0  0  0  0  0  # atno 17394 bound_to 11000
  139.8752  134.9274  156.3424 LP  0  0  0  0  0  0  0  0  0  0  0  0  # atno 17395 bound_to 11000

$$$$
