AV-unprocessed.smi:1944|AV-procd|sdf|7856|dock3
  -GOLD-   2272010 03D 1   1.00000     0.00000
 Structure written by MMmdl.
 46 47  0  0  0  0  0  0  0  0  2 V2000
  147.4924  131.6536  153.2070 C   0  0  0  0  0  0  0  0  0  0  0  0
  147.1875  132.8237  152.4559 O   0  0  0  0  0  0  0  0  0  0  0  0
  146.0757  132.8097  151.6350 C   0  0  0  0  0  0  0  0  0  0  0  0
  145.5036  131.6143  151.3443 N   0  0  0  0  0  0  0  0  0  0  0  0
  144.4223  131.5979  150.5385 C   0  0  0  0  0  0  0  0  0  0  0  0
  143.8621  132.7603  149.9782 C   0  0  0  0  0  0  0  0  0  0  0  0
  144.4529  134.0016  150.2790 C   0  0  0  0  0  0  0  0  0  0  0  0
  145.5798  134.0369  151.1361 C   0  0  0  0  0  0  0  0  0  0  0  0
  146.2658  135.2311  151.4922 N   0  0  0  0  0  0  0  0  0  0  0  0
  145.7545  136.4388  151.7837 C   0  0  0  0  0  0  0  0  0  0  0  0
  144.5571  136.7230  151.8014 O   0  0  0  0  0  0  0  0  0  0  0  0
  146.7230  137.3185  152.0759 N   0  0  0  0  0  0  0  0  0  0  0  0
  146.4987  138.7078  152.4588 C   0  0  0  0  0  0  0  0  0  0  0  0
  147.1928  139.0474  153.7943 C   0  0  0  0  0  0  0  0  0  0  0  0
  148.3085  138.1122  154.1176 N   0  3  1  0  0  0  0  0  0  0  0  0
  149.5712  138.8551  154.3994 C   0  0  0  0  0  0  0  0  0  0  0  0
  150.7644  137.9127  154.6054 C   0  0  0  0  0  0  0  0  0  0  0  0
  150.4813  136.9387  155.7479 C   0  0  0  0  0  0  0  0  0  0  0  0
  149.1891  136.1757  155.4488 C   0  0  0  0  0  0  0  0  0  0  0  0
  147.9921  137.1219  155.2004 C   0  0  2  0  0  0  0  0  0  0  0  0
  146.7506  136.2571  154.8919 C   0  0  0  0  0  0  0  0  0  0  0  0
  148.3935  131.8269  153.7947 H   0  0  0  0  0  0  0  0  0  0  0  0
  147.6821  130.7990  152.5558 H   0  0  0  0  0  0  0  0  0  0  0  0
  146.6881  131.4041  153.9005 H   0  0  0  0  0  0  0  0  0  0  0  0
  143.9949  130.6285  150.3290 H   0  0  0  0  0  0  0  0  0  0  0  0
  143.0013  132.7009  149.3284 H   0  0  0  0  0  0  0  0  0  0  0  0
  144.0398  134.8939  149.8353 H   0  0  0  0  0  0  0  0  0  0  0  0
  147.2650  135.1333  151.6016 H   0  0  0  0  0  0  0  0  0  0  0  0
  147.6810  137.0004  152.0441 H   0  0  0  0  0  0  0  0  0  0  0  0
  146.8485  139.3719  151.6664 H   0  0  0  0  0  0  0  0  0  0  0  0
  145.4207  138.8451  152.5257 H   0  0  0  0  0  0  0  0  0  0  0  0
  147.5621  140.0741  153.7878 H   0  0  0  0  0  0  0  0  0  0  0  0
  146.4250  139.0121  154.5617 H   0  0  0  0  0  0  0  0  0  0  0  0
  149.8137  139.5283  153.5793 H   0  0  0  0  0  0  0  0  0  0  0  0
  149.4354  139.4785  155.2847 H   0  0  0  0  0  0  0  0  0  0  0  0
  150.9643  137.3605  153.6861 H   0  0  0  0  0  0  0  0  0  0  0  0
  151.6632  138.4906  154.8228 H   0  0  0  0  0  0  0  0  0  0  0  0
  151.3125  136.2430  155.8673 H   0  0  0  0  0  0  0  0  0  0  0  0
  150.3864  137.4816  156.6892 H   0  0  0  0  0  0  0  0  0  0  0  0
  149.3417  135.5389  154.5760 H   0  0  0  0  0  0  0  0  0  0  0  0
  148.9700  135.5055  156.2811 H   0  0  0  0  0  0  0  0  0  0  0  0
  147.8005  137.6784  156.1194 H   0  0  0  0  0  0  0  0  0  0  0  0
  146.6676  135.4300  155.5978 H   0  0  0  0  0  0  0  0  0  0  0  0
  146.8024  135.8273  153.8910 H   0  0  0  0  0  0  0  0  0  0  0  0
  145.8181  136.8130  154.9788 H   0  0  0  0  0  0  0  0  0  0  0  0
  148.4702  137.5654  153.2839 H   0  0  0  0  0  0  0  0  0  0  0  0
  1  2  1  0  0  0  0
  1 22  1  0  0  0  0
  1 23  1  0  0  0  0
  1 24  1  0  0  0  0
  2  3  1  0  0  0  0
  3  8  1  0  0  0  0
  3  4  2  0  0  0  0
  4  5  1  0  0  0  0
  5  6  2  0  0  0  0
  5 25  1  0  0  0  0
  6  7  1  0  0  0  0
  6 26  1  0  0  0  0
  7  8  2  0  0  0  0
  7 27  1  0  0  0  0
  8  9  1  0  0  0  0
  9 10  1  0  0  0  0
  9 28  1  0  0  0  0
 10 11  2  0  0  0  0
 10 12  1  0  0  0  0
 12 13  1  0  0  0  0
 12 29  1  0  0  0  0
 13 14  1  0  0  0  0
 13 30  1  0  0  0  0
 13 31  1  0  0  0  0
 14 15  1  0  0  0  0
 14 32  1  0  0  0  0
 14 33  1  0  0  0  0
 15 20  1  0  0  0  0
 15 16  1  0  0  0  0
 15 46  1  0  0  0  0
 16 17  1  0  0  0  0
 16 34  1  0  0  0  0
 16 35  1  0  0  0  0
 17 18  1  0  0  0  0
 17 36  1  0  0  0  0
 17 37  1  0  0  0  0
 18 19  1  0  0  0  0
 18 38  1  0  0  0  0
 18 39  1  0  0  0  0
 19 20  1  0  0  0  0
 19 40  1  0  0  0  0
 19 41  1  0  0  0  0
 20 21  1  0  0  0  0
 20 42  1  0  0  0  0
 21 43  1  0  0  0  0
 21 44  1  0  0  0  0
 21 45  1  0  0  0  0
M  CHG  1  15   1
M  END
> <s_m_source_file>
AV-unprocessed.smi

> <i_m_source_file_index>
1944

> <i_lp_mmshare_version>
43012

> <i_f3d_flags>
0

> <s_epik_input>
W0NIM11PYzFuW2NIXVtjSF1bY0hdYzFbTkhdQyg9TylbTkhdW0NIMl1bQ0gyXU4yW0NIMl1bQ0gyXVtDSDJdW0NIMl1bQ0BIXTJbQ0gzXQ==

> <s_epik_cmdline>
J2VwaWtfcHl0aG9uJywgJy1waCcsICc3LjAnLCAnLXRuJywgJzgnLCAnLW1hJywgJzIwMCcsICctbWV0YWxfYmluZGluZycsICctaW1hZScsICc8aW5maWxlLm1hZT4nLCAnLW9tYWUnLCAnPG91dGZpbGUubWFlPic=

> <r_lp_tautomer_probability>
1

> <r_epik_Ionization_Penalty>
0.00219525

> <r_epik_Ionization_Penalty_Charging>
0.00211816

> <r_epik_Ionization_Penalty_Neutral>
7.7088e-05

> <r_epik_State_Penalty>
0.00145254

> <r_epik_Charging_Adjusted_Penalty>
0.0035707

> <i_epik_Tot_Q>
1

> <i_epik_Tot_abs_Q>
1

> <r_epik_Metal_State_Penalty>
-0

> <b_epik_Metal_Only>
0

> <s_lp_Force_Field>
OPLS_2005

> <r_lp_Energy>
21.9876

> <b_lp_Chiralities_Consistent>
1

> <s_lp_Variant>
AV-unprocessed.smi:1944-4

> <Gold.Version>
5.8.1

> <Gold.Id.Protein>
6NUR|6NUR_protein|mol2

> <Gold.PLP.Fitness>
42.8164

> <Gold.PLP.PLP>
-34.3723

> <Gold.PLP.part.hbond>
-2.7960

> <Gold.PLP.part.metal>
0.0000

> <Gold.PLP.part.buried>
-5.9822

> <Gold.PLP.part.nonpolar>
-27.3933

> <Gold.PLP.part.repulsive>
1.4367

> <Gold.PLP.ligand.clash>
0.0000

> <Gold.PLP.ligand.torsion>
1.4531

> <Gold.PLP.Chemscore.Hbond>
3.7575

> <Gold.PLP.Chemscore.CHOScore>
0.0000

> <Gold.PLP.Chemscore.Metal>
0.0000

> <Gold.Chemscore.Hbonds>
donor molecule, donor type, donor heavy atom, donor atom, acceptor molecule, acceptor atom, score
      L1  H     9    28       P1  7948  0.85
      L1  H    12    29       P1  7948  0.88
      L1  H    15    46       P1  7948  2.00

> <Gold.PLP.Chemscore.Internal.Correction>
0.0778

> <Gold.Rescore>
     Score         DG    S(hbond)    S(metal)    S(lipo)     H(rot)  DE(clash)    DE(int)     intcor
     17.60     -19.14       2.76        0.00      75.39       1.71       0.18       1.36       ----

> <Gold.Chemscore.Fitness>
17.5957

> <Gold.Chemscore.DG>
-19.1409

> <Gold.Chemscore.ZeroCoef>
-5.4800

> <Gold.Chemscore.Hbond>
2.7604

> <Gold.Chemscore.Metal>
0.0000

> <Gold.Chemscore.Lipo>
75.3907

> <Gold.Chemscore.Internal_Hbond>
0.0000

> <Gold.Chemscore.DEClash>
0.1820

> <Gold.Chemscore.DEInternal>
1.3631

> <Gold.Chemscore.Rot>
1.7107

> <Gold.Chemscore.Internal.Correction>
   9.000000E+99

> <Gold.Chemscore.Hbonds>
donor molecule, donor type, donor heavy atom, donor atom, acceptor molecule, acceptor atom, score
      L1  H     9    28       P1  7948  0.73
      L1  H    12    29       P1  7948  0.86
      L1  H    15    46       P1  7948  0.96

> <Gold.Chemscore.Hbond.Weighted>
-9.2196

> <Gold.Chemscore.Metal.Weighted>
-0.0000

> <Gold.Chemscore.Lipo.Weighted>
-8.8207

> <Gold.Chemscore.Internal_Hbond.Weighted>
0.0000

> <Gold.Chemscore.DEClash.Weighted>
0.1820

> <Gold.Chemscore.DEInternal.Weighted>
1.3631

> <Gold.Chemscore.Rot.Weighted>
4.3794

> <Gold.Chemscore.Internal.Correction.Weighted>
   9.000000E+99

> <Gold.Protein.RotatedTorsions>
[ 6907 6896 6895 6894 ] final    9.25 input  -60.11 | X-H torsion
[ 7974 7965 7964 7962 ] final  -37.28 input  175.53 | X-H torsion
[ 8008 7997 7996 7995 ] final -177.36 input   59.86 | X-H torsion
[ 10167 10162 10161 10158 ] final  175.21 input  -65.29 | X-H torsion
[ 10718 10713 10712 10709 ] final -121.45 input   66.30 | X-H torsion
[ 10763 10752 10751 10750 ] final -117.57 input  -60.55 | X-H torsion
[ 11005 11000 10999 10996 ] final  147.53 input  -57.11 | X-H torsion

> <Gold.Protein.ActiveResidues>
 VAL166  LYS551  ARG553  GLY616  TRP617  ASP618  TYR619  PRO620  LYS621  CYS622 
 ASP623  PHE694  ASN695  SER759  ASP760  ASP761  ALA762  ILE779  LEU786  VAL792 
 PHE793  MET794  SER795  GLU796  ALA797  LYS798  CYS799  TRP800  GLU811  SER814 

> <Gold.Protein.RotatedAtoms>
  151.7191  135.0898  160.0280 H   0  0  0  0  0  0  0  0  0  0  0  0  # atno 6907 bound_to 6896
  152.3613  133.6296  159.6025 H   0  0  0  0  0  0  0  0  0  0  0  0  # atno 6908 bound_to 6896
  150.7606  133.9335  159.3476 H   0  0  0  0  0  0  0  0  0  0  0  0  # atno 6909 bound_to 6896
  146.0588  140.6378  142.9007 H   0  0  0  0  0  0  0  0  0  0  0  0  # atno 7974 bound_to 7965
  156.0060  140.1230  157.0501 H   0  0  0  0  0  0  0  0  0  0  0  0  # atno 8008 bound_to 7997
  154.4259  140.1097  156.5832 H   0  0  0  0  0  0  0  0  0  0  0  0  # atno 8009 bound_to 7997
  155.6146  140.3472  155.4635 H   0  0  0  0  0  0  0  0  0  0  0  0  # atno 8010 bound_to 7997
  139.5169  144.3058  152.0337 H   0  0  0  0  0  0  0  0  0  0  0  0  # atno 10167 bound_to 10162
  156.1338  130.6415  150.9663 H   0  0  0  0  0  0  0  0  0  0  0  0  # atno 10718 bound_to 10713
  154.8559  135.4305  154.2000 H   0  0  0  0  0  0  0  0  0  0  0  0  # atno 10763 bound_to 10752
  153.3049  135.6971  153.7174 H   0  0  0  0  0  0  0  0  0  0  0  0  # atno 10764 bound_to 10752
  153.6290  135.3488  155.3010 H   0  0  0  0  0  0  0  0  0  0  0  0  # atno 10765 bound_to 10752
  140.0884  134.9056  157.1611 H   0  0  0  0  0  0  0  0  0  0  0  0  # atno 11005 bound_to 11000
  144.7163  140.4221  143.7042 LP  0  0  0  0  0  0  0  0  0  0  0  0  # atno 17320 bound_to 7965
  145.6596  139.1579  143.2816 LP  0  0  0  0  0  0  0  0  0  0  0  0  # atno 17321 bound_to 7965
  140.2504  144.4175  150.6224 LP  0  0  0  0  0  0  0  0  0  0  0  0  # atno 17342 bound_to 10162
  140.6229  143.2178  151.6658 LP  0  0  0  0  0  0  0  0  0  0  0  0  # atno 17343 bound_to 10162
  157.6513  131.0896  150.8045 LP  0  0  0  0  0  0  0  0  0  0  0  0  # atno 17370 bound_to 10713
  156.8127  130.4957  149.5354 LP  0  0  0  0  0  0  0  0  0  0  0  0  # atno 17371 bound_to 10713
  140.3388  134.2728  155.7215 LP  0  0  0  0  0  0  0  0  0  0  0  0  # atno 17394 bound_to 11000
  141.2070  133.7818  157.0145 LP  0  0  0  0  0  0  0  0  0  0  0  0  # atno 17395 bound_to 11000

$$$$
