AV-unprocessed.smi:3152|AV-procd|sdf|12018|dock10
  -GOLD-   2272017433D 1   1.00000     0.00000
 Structure written by MMmdl.
 40 41  0  0  0  0  0  0  0  0  1 V2000
  153.9694  140.5009  160.7891 C   0  0  0  0  0  0  0  0  0  0  0  0
  153.3687  141.8733  160.6845 C   0  0  0  0  0  0  0  0  0  0  0  0
  152.9455  142.7253  161.7442 C   0  0  0  0  0  0  0  0  0  0  0  0
  152.4601  143.8788  161.3147 N   0  0  0  0  0  0  0  0  0  0  0  0
  152.5550  143.8044  159.9703 N   0  0  0  0  0  0  0  0  0  0  0  0
  152.1104  144.9173  159.1541 C   0  0  0  0  0  0  0  0  0  0  0  0
  151.9669  144.5135  157.6807 C   0  0  0  0  0  0  0  0  0  0  0  0
  150.8987  143.5355  157.5097 N   0  0  0  0  0  0  0  0  0  0  0  0
  151.2085  142.5036  156.5218 C   0  0  0  0  0  0  0  0  0  0  0  0
  150.1336  141.3893  156.4672 C   0  0  0  0  0  0  0  0  0  0  0  0
  148.8804  142.0343  156.3358 O   0  0  0  0  0  0  0  0  0  0  0  0
  150.3034  140.5136  155.2030 C   0  0  0  0  0  0  0  0  0  0  0  0
  151.5248  139.5791  155.2865 C   0  0  0  0  0  0  0  0  0  0  0  0
  151.4816  138.7102  156.5530 C   0  0  0  0  0  0  0  0  0  0  0  0
  151.3307  139.5706  157.8173 C   0  0  0  0  0  0  0  0  0  0  0  0
  150.0955  140.4823  157.7222 C   0  0  0  0  0  0  0  0  0  0  0  0
  153.1009  142.6060  159.5627 C   0  0  0  0  0  0  0  0  0  0  0  0
  153.6645  139.9943  161.7051 H   0  0  0  0  0  0  0  0  0  0  0  0
  155.0588  140.5396  160.7904 H   0  0  0  0  0  0  0  0  0  0  0  0
  153.6702  139.8639  159.9566 H   0  0  0  0  0  0  0  0  0  0  0  0
  152.9780  142.5406  162.8077 H   0  0  0  0  0  0  0  0  0  0  0  0
  151.1569  145.2745  159.5454 H   0  0  0  0  0  0  0  0  0  0  0  0
  152.8235  145.7362  159.2611 H   0  0  0  0  0  0  0  0  0  0  0  0
  151.7575  145.3995  157.0798 H   0  0  0  0  0  0  0  0  0  0  0  0
  152.9101  144.1031  157.3180 H   0  0  0  0  0  0  0  0  0  0  0  0
  150.0406  144.0080  157.2430 H   0  0  0  0  0  0  0  0  0  0  0  0
  151.3091  142.9556  155.5341 H   0  0  0  0  0  0  0  0  0  0  0  0
  152.1816  142.0723  156.7554 H   0  0  0  0  0  0  0  0  0  0  0  0
  149.0202  142.8850  155.9490 H   0  0  0  0  0  0  0  0  0  0  0  0
  149.4122  139.8993  155.0627 H   0  0  0  0  0  0  0  0  0  0  0  0
  150.3790  141.1411  154.3138 H   0  0  0  0  0  0  0  0  0  0  0  0
  151.5591  138.9403  154.4036 H   0  0  0  0  0  0  0  0  0  0  0  0
  152.4456  140.1624  155.2728 H   0  0  0  0  0  0  0  0  0  0  0  0
  150.6459  138.0124  156.4865 H   0  0  0  0  0  0  0  0  0  0  0  0
  152.3853  138.1039  156.6202 H   0  0  0  0  0  0  0  0  0  0  0  0
  151.2472  138.9267  158.6932 H   0  0  0  0  0  0  0  0  0  0  0  0
  152.2274  140.1735  157.9645 H   0  0  0  0  0  0  0  0  0  0  0  0
  149.9980  141.0729  158.6335 H   0  0  0  0  0  0  0  0  0  0  0  0
  149.2055  139.8521  157.6851 H   0  0  0  0  0  0  0  0  0  0  0  0
  153.2538  142.3770  158.5182 H   0  0  0  0  0  0  0  0  0  0  0  0
  1  2  1  0  0  0  0
  1 18  1  0  0  0  0
  1 19  1  0  0  0  0
  1 20  1  0  0  0  0
  2 17  2  0  0  0  0
  2  3  1  0  0  0  0
  3  4  2  0  0  0  0
  3 21  1  0  0  0  0
  4  5  1  0  0  0  0
  5  6  1  0  0  0  0
  5 17  1  0  0  0  0
  6  7  1  0  0  0  0
  6 22  1  0  0  0  0
  6 23  1  0  0  0  0
  7  8  1  0  0  0  0
  7 24  1  0  0  0  0
  7 25  1  0  0  0  0
  8  9  1  0  0  0  0
  8 26  1  0  0  0  0
  9 10  1  0  0  0  0
  9 27  1  0  0  0  0
  9 28  1  0  0  0  0
 10 16  1  0  0  0  0
 10 11  1  0  0  0  0
 10 12  1  0  0  0  0
 11 29  1  0  0  0  0
 12 13  1  0  0  0  0
 12 30  1  0  0  0  0
 12 31  1  0  0  0  0
 13 14  1  0  0  0  0
 13 32  1  0  0  0  0
 13 33  1  0  0  0  0
 14 15  1  0  0  0  0
 14 34  1  0  0  0  0
 14 35  1  0  0  0  0
 15 16  1  0  0  0  0
 15 36  1  0  0  0  0
 15 37  1  0  0  0  0
 16 38  1  0  0  0  0
 16 39  1  0  0  0  0
 17 40  1  0  0  0  0
M  END
> <s_m_source_file>
AV-unprocessed.smi

> <i_m_source_file_index>
3152

> <i_lp_mmshare_version>
43012

> <i_f3d_flags>
0

> <s_epik_input>
W0NIM11jMVtjSF1ubihbY0hdMSlbQ0gyXVtDSDJdW05IXVtDSDJdQzIoW09IXSlbQ0gyXVtDSDJdW0NIMl1bQ0gyXVtDSDJdMg==

> <s_epik_cmdline>
J2VwaWtfcHl0aG9uJywgJy1waCcsICc3LjAnLCAnLXRuJywgJzgnLCAnLW1hJywgJzIwMCcsICctbWV0YWxfYmluZGluZycsICctaW1hZScsICc8aW5maWxlLm1hZT4nLCAnLW9tYWUnLCAnPG91dGZpbGUubWFlPic=

> <r_lp_tautomer_probability>
1

> <r_epik_Ionization_Penalty>
1.91403

> <r_epik_Ionization_Penalty_Charging>
0

> <r_epik_Ionization_Penalty_Neutral>
1.91403

> <r_epik_State_Penalty>
2.0334

> <r_epik_Charging_Adjusted_Penalty>
2.0334

> <i_epik_Tot_Q>
0

> <i_epik_Tot_abs_Q>
0

> <r_epik_Metal_State_Penalty>
2.03082

> <b_epik_Metal_Only>
0

> <s_lp_Force_Field>
OPLS_2005

> <r_lp_Energy>
20.9393

> <b_lp_Chiralities_Consistent>
1

> <s_lp_Variant>
AV-unprocessed.smi:3152-2

> <Gold.Version>
5.8.1

> <Gold.Id.Protein>
6NUR|6NUR_protein|mol2

> <Gold.PLP.Fitness>
49.1338

> <Gold.PLP.PLP>
-44.2472

> <Gold.PLP.part.hbond>
-2.0000

> <Gold.PLP.part.metal>
0.0000

> <Gold.PLP.part.buried>
-5.3117

> <Gold.PLP.part.nonpolar>
-36.4001

> <Gold.PLP.part.repulsive>
0.1386

> <Gold.PLP.ligand.clash>
0.0000

> <Gold.PLP.ligand.torsion>
0.5568

> <Gold.PLP.Chemscore.Hbond>
1.9920

> <Gold.PLP.Chemscore.CHOScore>
0.0000

> <Gold.PLP.Chemscore.Metal>
0.0000

> <Gold.Chemscore.Hbonds>
donor molecule, donor type, donor heavy atom, donor atom, acceptor molecule, acceptor atom, score
      L1  H     8    26       P1  8028  0.84
      L1  H    11    29       P1  8028  1.00

> <Gold.PLP.Chemscore.Internal.Correction>
0.0241

> <Gold.Rescore>
     Score         DG    S(hbond)    S(metal)    S(lipo)     H(rot)  DE(clash)    DE(int)     intcor
     19.12     -19.87       1.91        0.00     114.07       2.09       0.25       0.49       ----

> <Gold.Chemscore.Fitness>
19.1240

> <Gold.Chemscore.DG>
-19.8699

> <Gold.Chemscore.ZeroCoef>
-5.4800

> <Gold.Chemscore.Hbond>
1.9130

> <Gold.Chemscore.Metal>
0.0000

> <Gold.Chemscore.Lipo>
114.0735

> <Gold.Chemscore.Internal_Hbond>
0.0000

> <Gold.Chemscore.DEClash>
0.2541

> <Gold.Chemscore.DEInternal>
0.4918

> <Gold.Chemscore.Rot>
2.0883

> <Gold.Chemscore.Internal.Correction>
   9.000000E+99

> <Gold.Chemscore.Hbonds>
donor molecule, donor type, donor heavy atom, donor atom, acceptor molecule, acceptor atom, score
      L1  H     8    26       P1  8028  0.65
      L1  H    11    29       P1  8028  1.00

> <Gold.Chemscore.Hbond.Weighted>
-6.3894

> <Gold.Chemscore.Metal.Weighted>
-0.0000

> <Gold.Chemscore.Lipo.Weighted>
-13.3466

> <Gold.Chemscore.Internal_Hbond.Weighted>
0.0000

> <Gold.Chemscore.DEClash.Weighted>
0.2541

> <Gold.Chemscore.DEInternal.Weighted>
0.4918

> <Gold.Chemscore.Rot.Weighted>
5.3461

> <Gold.Chemscore.Internal.Correction.Weighted>
   9.000000E+99

> <Gold.Protein.RotatedTorsions>
[ 6907 6896 6895 6894 ] final  122.42 input  -60.11 | X-H torsion
[ 7974 7965 7964 7962 ] final  -73.00 input  175.53 | X-H torsion
[ 8008 7997 7996 7995 ] final  -75.33 input   59.86 | X-H torsion
[ 10167 10162 10161 10158 ] final -154.08 input  -65.29 | X-H torsion
[ 10718 10713 10712 10709 ] final   12.30 input   66.30 | X-H torsion
[ 10763 10752 10751 10750 ] final  -71.57 input  -60.55 | X-H torsion
[ 11005 11000 10999 10996 ] final -103.75 input  -57.11 | X-H torsion

> <Gold.Protein.ActiveResidues>
 VAL166  LYS551  ARG553  GLY616  TRP617  ASP618  TYR619  PRO620  LYS621  CYS622 
 ASP623  PHE694  ASN695  SER759  ASP760  ASP761  ALA762  ILE779  LEU786  VAL792 
 PHE793  MET794  SER795  GLU796  ALA797  LYS798  CYS799  TRP800  GLU811  SER814 

> <Gold.Protein.RotatedAtoms>
  152.4245  133.7171  159.6511 H   0  0  0  0  0  0  0  0  0  0  0  0  # atno 6907 bound_to 6896
  150.8121  133.8393  159.3183 H   0  0  0  0  0  0  0  0  0  0  0  0  # atno 6908 bound_to 6896
  151.6100  135.1043  160.0130 H   0  0  0  0  0  0  0  0  0  0  0  0  # atno 6909 bound_to 6896
  145.6578  140.9262  143.0950 H   0  0  0  0  0  0  0  0  0  0  0  0  # atno 7974 bound_to 7965
  154.5407  140.0746  156.8505 H   0  0  0  0  0  0  0  0  0  0  0  0  # atno 8008 bound_to 7997
  155.3186  140.3394  155.4223 H   0  0  0  0  0  0  0  0  0  0  0  0  # atno 8009 bound_to 7997
  156.1872  140.1673  156.8149 H   0  0  0  0  0  0  0  0  0  0  0  0  # atno 8010 bound_to 7997
  139.7043  143.9211  152.2442 H   0  0  0  0  0  0  0  0  0  0  0  0  # atno 10167 bound_to 10162
  157.0082  130.6106  149.5704 H   0  0  0  0  0  0  0  0  0  0  0  0  # atno 10718 bound_to 10713
  154.4336  135.5958  153.6084 H   0  0  0  0  0  0  0  0  0  0  0  0  # atno 10763 bound_to 10752
  152.9800  135.5981  154.3809 H   0  0  0  0  0  0  0  0  0  0  0  0  # atno 10764 bound_to 10752
  154.3650  135.2841  155.2277 H   0  0  0  0  0  0  0  0  0  0  0  0  # atno 10765 bound_to 10752
  141.1131  133.8666  157.1526 H   0  0  0  0  0  0  0  0  0  0  0  0  # atno 11005 bound_to 11000
  144.7100  139.8409  143.7418 LP  0  0  0  0  0  0  0  0  0  0  0  0  # atno 17320 bound_to 7965
  146.1150  139.4160  143.0264 LP  0  0  0  0  0  0  0  0  0  0  0  0  # atno 17321 bound_to 7965
  139.9062  144.6883  150.8611 LP  0  0  0  0  0  0  0  0  0  0  0  0  # atno 17342 bound_to 10162
  140.7718  143.3476  151.2078 LP  0  0  0  0  0  0  0  0  0  0  0  0  # atno 17343 bound_to 10162
  156.0146  130.5239  150.8094 LP  0  0  0  0  0  0  0  0  0  0  0  0  # atno 17370 bound_to 10713
  157.5340  131.0938  150.9917 LP  0  0  0  0  0  0  0  0  0  0  0  0  # atno 17371 bound_to 10713
  140.0037  135.0017  157.0246 LP  0  0  0  0  0  0  0  0  0  0  0  0  # atno 17394 bound_to 11000
  140.4720  134.1377  155.7204 LP  0  0  0  0  0  0  0  0  0  0  0  0  # atno 17395 bound_to 11000

$$$$
