AV-unprocessed.smi:1062|AV-procd|sdf|4661|dock4
  -GOLD-   22720 3173D 1   1.00000     0.00000
 Structure written by MMmdl.
 38 40  0  0  0  0  0  0  0  0  1 V2000
  154.3544  141.4238  160.3628 C   0  0  0  0  0  0  0  0  0  0  0  0
  152.8254  141.5043  160.2214 C   0  0  0  0  0  0  0  0  0  0  0  0
  152.4164  142.3766  159.1091 N   0  0  0  0  0  0  0  0  0  0  0  0
  151.7386  141.8678  158.0490 C   0  0  0  0  0  0  0  0  0  0  0  0
  151.1959  142.5955  157.2141 O   0  0  0  0  0  0  0  0  0  0  0  0
  151.6573  140.3380  157.8706 C   0  0  0  0  0  0  0  0  0  0  0  0
  151.0297  139.9622  156.5574 C   0  0  0  0  0  0  0  0  0  0  0  0
  151.5226  139.0756  155.6312 C   0  0  0  0  0  0  0  0  0  0  0  0
  150.4754  138.9277  154.2467 S   0  0  0  0  0  0  0  0  0  0  0  0
  149.3870  140.1055  154.9866 C   0  0  0  0  0  0  0  0  0  0  0  0
  148.1602  140.5858  154.4397 N   0  0  0  0  0  0  0  0  0  0  0  0
  147.7325  141.9701  154.6161 C   0  0  0  0  0  0  0  0  0  0  0  0
  146.3946  142.0358  153.8863 C   0  0  0  0  0  0  0  0  0  0  0  0
  146.2495  140.6853  153.3965 N   0  0  0  0  0  0  0  0  0  0  0  0
  147.2621  139.8797  153.7247 C   0  0  0  0  0  0  0  0  0  0  0  0
  147.3273  138.6938  153.4068 O   0  0  0  0  0  0  0  0  0  0  0  0
  149.8176  140.5459  156.1735 N   0  0  0  0  0  0  0  0  0  0  0  0
  152.5886  143.7826  159.3633 C   0  0  0  0  0  0  0  0  0  0  0  0
  151.4260  144.7408  159.1773 C   0  0  0  0  0  0  0  0  0  0  0  0
  152.5742  144.7610  158.2046 C   0  0  0  0  0  0  0  0  0  0  0  0
  154.6316  140.7382  161.1636 H   0  0  0  0  0  0  0  0  0  0  0  0
  154.7915  142.3946  160.5972 H   0  0  0  0  0  0  0  0  0  0  0  0
  154.8156  141.0618  159.4434 H   0  0  0  0  0  0  0  0  0  0  0  0
  152.4369  140.4950  160.0849 H   0  0  0  0  0  0  0  0  0  0  0  0
  152.3835  141.8577  161.1545 H   0  0  0  0  0  0  0  0  0  0  0  0
  152.6507  139.8930  157.9302 H   0  0  0  0  0  0  0  0  0  0  0  0
  151.0777  139.9229  158.6952 H   0  0  0  0  0  0  0  0  0  0  0  0
  152.4330  138.4972  155.6829 H   0  0  0  0  0  0  0  0  0  0  0  0
  147.6214  142.2073  155.6751 H   0  0  0  0  0  0  0  0  0  0  0  0
  148.4589  142.6570  154.1792 H   0  0  0  0  0  0  0  0  0  0  0  0
  145.5734  142.2912  154.5568 H   0  0  0  0  0  0  0  0  0  0  0  0
  146.4128  142.7457  153.0585 H   0  0  0  0  0  0  0  0  0  0  0  0
  145.4485  140.3887  152.8580 H   0  0  0  0  0  0  0  0  0  0  0  0
  153.2750  144.0236  160.1731 H   0  0  0  0  0  0  0  0  0  0  0  0
  150.4803  144.3478  158.8090 H   0  0  0  0  0  0  0  0  0  0  0  0
  151.3439  145.5700  159.8768 H   0  0  0  0  0  0  0  0  0  0  0  0
  153.2589  145.6053  158.2529 H   0  0  0  0  0  0  0  0  0  0  0  0
  152.3796  144.3770  157.2049 H   0  0  0  0  0  0  0  0  0  0  0  0
  1  2  1  0  0  0  0
  1 21  1  0  0  0  0
  1 22  1  0  0  0  0
  1 23  1  0  0  0  0
  2  3  1  0  0  0  0
  2 24  1  0  0  0  0
  2 25  1  0  0  0  0
  3  4  1  0  0  0  0
  3 18  1  0  0  0  0
  4  5  2  0  0  0  0
  4  6  1  0  0  0  0
  6  7  1  0  0  0  0
  6 26  1  0  0  0  0
  6 27  1  0  0  0  0
  7 17  1  0  0  0  0
  7  8  2  0  0  0  0
  8  9  1  0  0  0  0
  8 28  1  0  0  0  0
  9 10  1  0  0  0  0
 10 11  1  0  0  0  0
 10 17  2  0  0  0  0
 11 15  1  0  0  0  0
 11 12  1  0  0  0  0
 12 13  1  0  0  0  0
 12 29  1  0  0  0  0
 12 30  1  0  0  0  0
 13 14  1  0  0  0  0
 13 31  1  0  0  0  0
 13 32  1  0  0  0  0
 14 15  1  0  0  0  0
 14 33  1  0  0  0  0
 15 16  2  0  0  0  0
 18 20  1  0  0  0  0
 18 19  1  0  0  0  0
 18 34  1  0  0  0  0
 19 20  1  0  0  0  0
 19 35  1  0  0  0  0
 19 36  1  0  0  0  0
 20 37  1  0  0  0  0
 20 38  1  0  0  0  0
M  END
> <s_m_source_file>
AV-unprocessed.smi

> <i_m_source_file_index>
1062

> <i_lp_mmshare_version>
43012

> <i_f3d_flags>
0

> <s_epik_input>
W0NIMl0xW0NIMl1bQ0hdMU4oW0NIMl1bQ0gzXSlDKD1PKVtDSDJdYzJbY0hdc2MobjIpTjNbQ0gyXVtDSDJdW05IXUMzPU8=

> <s_epik_cmdline>
J2VwaWtfcHl0aG9uJywgJy1waCcsICc3LjAnLCAnLXRuJywgJzgnLCAnLW1hJywgJzIwMCcsICctbWV0YWxfYmluZGluZycsICctaW1hZScsICc8aW5maWxlLm1hZT4nLCAnLW9tYWUnLCAnPG91dGZpbGUubWFlPic=

> <r_lp_tautomer_probability>
1

> <r_epik_Ionization_Penalty>
0.000125669

> <r_epik_Ionization_Penalty_Charging>
0

> <r_epik_Ionization_Penalty_Neutral>
0.000125669

> <r_epik_State_Penalty>
-0

> <r_epik_Charging_Adjusted_Penalty>
0

> <i_epik_Tot_Q>
0

> <i_epik_Tot_abs_Q>
0

> <r_epik_Metal_State_Penalty>
-0

> <b_epik_Metal_Only>
0

> <s_lp_Force_Field>
OPLS_2005

> <r_lp_Energy>
60.5217

> <b_lp_Chiralities_Consistent>
1

> <s_lp_Variant>
AV-unprocessed.smi:1062-1

> <Gold.Version>
5.8.1

> <Gold.Id.Protein>
6NUR|6NUR_protein|mol2

> <Gold.PLP.Fitness>
48.0683

> <Gold.PLP.PLP>
-47.3384

> <Gold.PLP.part.hbond>
-1.0000

> <Gold.PLP.part.metal>
0.0000

> <Gold.PLP.part.buried>
-3.9048

> <Gold.PLP.part.nonpolar>
-42.6475

> <Gold.PLP.part.repulsive>
0.3726

> <Gold.PLP.ligand.clash>
0.0000

> <Gold.PLP.ligand.torsion>
1.2283

> <Gold.PLP.Chemscore.Hbond>
0.9440

> <Gold.PLP.Chemscore.CHOScore>
0.0000

> <Gold.PLP.Chemscore.Metal>
0.0000

> <Gold.Chemscore.Hbonds>
donor molecule, donor type, donor heavy atom, donor atom, acceptor molecule, acceptor atom, score
      L1  H    14    33       P1 10175  1.00

> <Gold.PLP.Chemscore.Internal.Correction>
0.3545

> <Gold.Rescore>
     Score         DG    S(hbond)    S(metal)    S(lipo)     H(rot)  DE(clash)    DE(int)     intcor
     10.41     -16.32       0.96        0.00     101.33       1.65       0.01       5.91       ----

> <Gold.Chemscore.Fitness>
10.4079

> <Gold.Chemscore.DG>
-16.3241

> <Gold.Chemscore.ZeroCoef>
-5.4800

> <Gold.Chemscore.Hbond>
0.9600

> <Gold.Chemscore.Metal>
0.0000

> <Gold.Chemscore.Lipo>
101.3330

> <Gold.Chemscore.Internal_Hbond>
0.0000

> <Gold.Chemscore.DEClash>
0.0086

> <Gold.Chemscore.DEInternal>
5.9076

> <Gold.Chemscore.Rot>
1.6477

> <Gold.Chemscore.Internal.Correction>
   9.000000E+99

> <Gold.Chemscore.Hbonds>
donor molecule, donor type, donor heavy atom, donor atom, acceptor molecule, acceptor atom, score
      L1  H    14    33       P1 10175  0.84

> <Gold.Chemscore.Hbond.Weighted>
-3.2063

> <Gold.Chemscore.Metal.Weighted>
-0.0000

> <Gold.Chemscore.Lipo.Weighted>
-11.8560

> <Gold.Chemscore.Internal_Hbond.Weighted>
0.0000

> <Gold.Chemscore.DEClash.Weighted>
0.0086

> <Gold.Chemscore.DEInternal.Weighted>
5.9076

> <Gold.Chemscore.Rot.Weighted>
4.2181

> <Gold.Chemscore.Internal.Correction.Weighted>
   9.000000E+99

> <Gold.Protein.RotatedTorsions>
[ 6907 6896 6895 6894 ] final    0.64 input  -60.11 | X-H torsion
[ 7974 7965 7964 7962 ] final  148.50 input  175.53 | X-H torsion
[ 8008 7997 7996 7995 ] final -137.71 input   59.86 | X-H torsion
[ 10167 10162 10161 10158 ] final -141.28 input  -65.29 | X-H torsion
[ 10718 10713 10712 10709 ] final -129.78 input   66.30 | X-H torsion
[ 10763 10752 10751 10750 ] final -150.67 input  -60.55 | X-H torsion
[ 11005 11000 10999 10996 ] final -169.15 input  -57.11 | X-H torsion

> <Gold.Protein.ActiveResidues>
 VAL166  LYS551  ARG553  GLY616  TRP617  ASP618  TYR619  PRO620  LYS621  CYS622 
 ASP623  PHE694  ASN695  SER759  ASP760  ASP761  ALA762  ILE779  LEU786  VAL792 
 PHE793  MET794  SER795  GLU796  ALA797  LYS798  CYS799  TRP800  GLU811  SER814 

> <Gold.Protein.RotatedAtoms>
  151.5798  135.1059  160.0014 H   0  0  0  0  0  0  0  0  0  0  0  0  # atno 6907 bound_to 6896
  152.4360  133.7357  159.6623 H   0  0  0  0  0  0  0  0  0  0  0  0  # atno 6908 bound_to 6896
  150.8258  133.8105  159.3142 H   0  0  0  0  0  0  0  0  0  0  0  0  # atno 6909 bound_to 6896
  144.8509  139.6161  143.5974 H   0  0  0  0  0  0  0  0  0  0  0  0  # atno 7974 bound_to 7965
  155.4162  140.0515  157.3028 H   0  0  0  0  0  0  0  0  0  0  0  0  # atno 8008 bound_to 7997
  154.4923  140.2125  155.9481 H   0  0  0  0  0  0  0  0  0  0  0  0  # atno 8009 bound_to 7997
  156.1359  140.3163  155.8425 H   0  0  0  0  0  0  0  0  0  0  0  0  # atno 8010 bound_to 7997
  139.8200  143.7587  152.2666 H   0  0  0  0  0  0  0  0  0  0  0  0  # atno 10167 bound_to 10162
  156.2080  130.6900  151.0617 H   0  0  0  0  0  0  0  0  0  0  0  0  # atno 10718 bound_to 10713
  154.8105  135.3279  154.7318 H   0  0  0  0  0  0  0  0  0  0  0  0  # atno 10763 bound_to 10752
  153.7968  135.6906  153.4866 H   0  0  0  0  0  0  0  0  0  0  0  0  # atno 10764 bound_to 10752
  153.1880  135.4561  155.0059 H   0  0  0  0  0  0  0  0  0  0  0  0  # atno 10765 bound_to 10752
  140.5340  134.5588  157.5082 H   0  0  0  0  0  0  0  0  0  0  0  0  # atno 11005 bound_to 11000
  146.2784  139.6812  142.9246 LP  0  0  0  0  0  0  0  0  0  0  0  0  # atno 17320 bound_to 7965
  145.4502  141.0428  143.2809 LP  0  0  0  0  0  0  0  0  0  0  0  0  # atno 17321 bound_to 7965
  139.7762  144.7460  151.0153 LP  0  0  0  0  0  0  0  0  0  0  0  0  # atno 17342 bound_to 10162
  140.7814  143.4591  151.0303 LP  0  0  0  0  0  0  0  0  0  0  0  0  # atno 17343 bound_to 10162
  157.7023  131.0771  150.6781 LP  0  0  0  0  0  0  0  0  0  0  0  0  # atno 17370 bound_to 10713
  156.6840  130.4575  149.5619 LP  0  0  0  0  0  0  0  0  0  0  0  0  # atno 17371 bound_to 10713
  139.9539  134.7569  156.0385 LP  0  0  0  0  0  0  0  0  0  0  0  0  # atno 17394 bound_to 11000
  141.1265  133.6598  156.3351 LP  0  0  0  0  0  0  0  0  0  0  0  0  # atno 17395 bound_to 11000

$$$$
