AV-unprocessed.smi:668|AV-procd|sdf|3262|dock4
  -GOLD-   22720 0213D 1   1.00000     0.00000
 Structure written by MMmdl.
 38 39  0  0  0  0  0  0  0  0  1 V2000
  153.7210  142.1395  162.8014 C   0  0  0  0  0  0  0  0  0  0  0  0
  153.3215  143.3801  162.2290 O   0  0  0  0  0  0  0  0  0  0  0  0
  152.4715  143.3567  161.1424 C   0  0  0  0  0  0  0  0  0  0  0  0
  151.8890  144.5667  160.7158 C   0  0  0  0  0  0  0  0  0  0  0  0
  151.0184  144.5516  159.6092 C   0  0  0  0  0  0  0  0  0  0  0  0
  150.7509  143.3193  158.9658 C   0  0  0  0  0  0  0  0  0  0  0  0
  149.9057  143.1704  157.8326 N   0  0  0  0  0  0  0  0  0  0  0  0
  149.3587  142.0488  157.3331 C   0  0  0  0  0  0  0  0  0  0  0  0
  149.5208  140.9147  157.7823 O   0  0  0  0  0  0  0  0  0  0  0  0
  148.6157  142.3152  156.2496 N   0  0  0  0  0  0  0  0  0  0  0  0
  147.8861  141.3243  155.4596 C   0  0  1  0  0  0  0  0  0  0  0  0
  146.4093  141.7288  155.3138 C   0  0  0  0  0  0  0  0  0  0  0  0
  146.2544  142.2228  153.8776 C   0  0  0  0  0  0  0  0  0  0  0  0
  147.2418  141.3731  153.0838 C   0  0  0  0  0  0  0  0  0  0  0  0
  148.4522  141.2008  154.0183 C   0  0  2  0  0  0  0  0  0  0  0  0
  149.2007  139.8794  153.7827 C   0  0  0  0  0  0  0  0  0  0  0  0
  148.5965  138.9668  153.0177 N   0  0  0  0  0  0  0  0  0  0  0  0
  150.3082  139.6843  154.2802 O   0  0  0  0  0  0  0  0  0  0  0  0
  151.3963  142.1677  159.4619 C   0  0  0  0  0  0  0  0  0  0  0  0
  152.2308  142.1749  160.5224 N   0  0  0  0  0  0  0  0  0  0  0  0
  154.3842  142.3289  163.6452 H   0  0  0  0  0  0  0  0  0  0  0  0
  154.2667  141.5253  162.0835 H   0  0  0  0  0  0  0  0  0  0  0  0
  152.8631  141.5782  163.1748 H   0  0  0  0  0  0  0  0  0  0  0  0
  152.1091  145.4925  161.2266 H   0  0  0  0  0  0  0  0  0  0  0  0
  150.5890  145.4824  159.2738 H   0  0  0  0  0  0  0  0  0  0  0  0
  149.7375  144.0161  157.3074 H   0  0  0  0  0  0  0  0  0  0  0  0
  148.5433  143.2760  155.9483 H   0  0  0  0  0  0  0  0  0  0  0  0
  147.9243  140.3721  155.9934 H   0  0  0  0  0  0  0  0  0  0  0  0
  145.7817  140.8480  155.4564 H   0  0  0  0  0  0  0  0  0  0  0  0
  146.0874  142.4724  156.0444 H   0  0  0  0  0  0  0  0  0  0  0  0
  145.2317  142.1328  153.5100 H   0  0  0  0  0  0  0  0  0  0  0  0
  146.5410  143.2735  153.8166 H   0  0  0  0  0  0  0  0  0  0  0  0
  146.7802  140.4132  152.8465 H   0  0  0  0  0  0  0  0  0  0  0  0
  147.5148  141.8465  152.1402 H   0  0  0  0  0  0  0  0  0  0  0  0
  149.1323  142.0333  153.8264 H   0  0  0  0  0  0  0  0  0  0  0  0
  149.0418  138.0774  152.8452 H   0  0  0  0  0  0  0  0  0  0  0  0
  147.6877  139.1657  152.6256 H   0  0  0  0  0  0  0  0  0  0  0  0
  151.2359  141.2063  158.9962 H   0  0  0  0  0  0  0  0  0  0  0  0
  1  2  1  0  0  0  0
  1 21  1  0  0  0  0
  1 22  1  0  0  0  0
  1 23  1  0  0  0  0
  2  3  1  0  0  0  0
  3 20  1  0  0  0  0
  3  4  2  0  0  0  0
  4  5  1  0  0  0  0
  4 24  1  0  0  0  0
  5  6  2  0  0  0  0
  5 25  1  0  0  0  0
  6  7  1  0  0  0  0
  6 19  1  0  0  0  0
  7  8  1  0  0  0  0
  7 26  1  0  0  0  0
  8  9  2  0  0  0  0
  8 10  1  0  0  0  0
 10 11  1  0  0  0  0
 10 27  1  0  0  0  0
 11 15  1  0  0  0  0
 11 12  1  0  0  0  0
 11 28  1  0  0  0  0
 12 13  1  0  0  0  0
 12 29  1  0  0  0  0
 12 30  1  0  0  0  0
 13 14  1  0  0  0  0
 13 31  1  0  0  0  0
 13 32  1  0  0  0  0
 14 15  1  0  0  0  0
 14 33  1  0  0  0  0
 14 34  1  0  0  0  0
 15 16  1  0  0  0  0
 15 35  1  0  0  0  0
 16 17  1  0  0  0  0
 16 18  2  0  0  0  0
 17 36  1  0  0  0  0
 17 37  1  0  0  0  0
 19 20  2  0  0  0  0
 19 38  1  0  0  0  0
M  END
> <s_m_source_file>
AV-unprocessed.smi

> <i_m_source_file_index>
668

> <i_lp_mmshare_version>
43012

> <i_f3d_flags>
0

> <s_epik_input>
W0NIM11PYzFbY0hdW2NIXWMoW2NIXW4xKVtOSF1DKD1PKVtOSF1bQ0BASF0yW0NIMl1bQ0gyXVtDSDJdW0NASF0yQyg9TylbTkgyXQ==

> <s_epik_cmdline>
J2VwaWtfcHl0aG9uJywgJy1waCcsICc3LjAnLCAnLXRuJywgJzgnLCAnLW1hJywgJzIwMCcsICctbWV0YWxfYmluZGluZycsICctaW1hZScsICc8aW5maWxlLm1hZT4nLCAnLW9tYWUnLCAnPG91dGZpbGUubWFlPic=

> <r_lp_tautomer_probability>
1

> <r_epik_Ionization_Penalty>
9.0916e-05

> <r_epik_Ionization_Penalty_Charging>
0

> <r_epik_Ionization_Penalty_Neutral>
9.0916e-05

> <r_epik_State_Penalty>
-0

> <r_epik_Charging_Adjusted_Penalty>
0

> <i_epik_Tot_Q>
0

> <i_epik_Tot_abs_Q>
0

> <r_epik_Metal_State_Penalty>
-0

> <b_epik_Metal_Only>
0

> <s_lp_Force_Field>
OPLS_2005

> <r_lp_Energy>
17.404

> <b_lp_Chiralities_Consistent>
1

> <s_lp_Variant>
AV-unprocessed.smi:668-4

> <Gold.Version>
5.8.1

> <Gold.Id.Protein>
6NUR|6NUR_protein|mol2

> <Gold.PLP.Fitness>
43.6996

> <Gold.PLP.PLP>
-33.2043

> <Gold.PLP.part.hbond>
-4.6181

> <Gold.PLP.part.metal>
0.0000

> <Gold.PLP.part.buried>
0.6939

> <Gold.PLP.part.nonpolar>
-29.8411

> <Gold.PLP.part.repulsive>
0.4540

> <Gold.PLP.ligand.clash>
0.0000

> <Gold.PLP.ligand.torsion>
0.4889

> <Gold.PLP.Chemscore.Hbond>
3.8168

> <Gold.PLP.Chemscore.CHOScore>
0.0000

> <Gold.PLP.Chemscore.Metal>
0.0000

> <Gold.Chemscore.Hbonds>
donor molecule, donor type, donor heavy atom, donor atom, acceptor molecule, acceptor atom, score
      L1  H     7    26       P1  8028  0.90
      L1  H    10    27       P1  8028  0.93
      L1  H    17    36       P1  7948  0.87
      P1  H  7989  7998       L1    18  1.00

> <Gold.PLP.Chemscore.Internal.Correction>
0.0226

> <Gold.Rescore>
     Score         DG    S(hbond)    S(metal)    S(lipo)     H(rot)  DE(clash)    DE(int)     intcor
     16.08     -21.45       3.43        0.00      79.31       1.86       3.47       1.91       ----

> <Gold.Chemscore.Fitness>
16.0775

> <Gold.Chemscore.DG>
-21.4495

> <Gold.Chemscore.ZeroCoef>
-5.4800

> <Gold.Chemscore.Hbond>
3.4325

> <Gold.Chemscore.Metal>
0.0000

> <Gold.Chemscore.Lipo>
79.3071

> <Gold.Chemscore.Internal_Hbond>
0.0000

> <Gold.Chemscore.DEClash>
3.4664

> <Gold.Chemscore.DEInternal>
1.9057

> <Gold.Chemscore.Rot>
1.8648

> <Gold.Chemscore.Internal.Correction>
   9.000000E+99

> <Gold.Chemscore.Hbonds>
donor molecule, donor type, donor heavy atom, donor atom, acceptor molecule, acceptor atom, score
      L1  H     7    26       P1  8028  0.52
      L1  H    10    27       P1  8028  0.86
      L1  H    17    36       P1  7948  0.80
      P1  H  7989  7998       L1    18  0.74

> <Gold.Chemscore.Hbond.Weighted>
-11.4645

> <Gold.Chemscore.Metal.Weighted>
-0.0000

> <Gold.Chemscore.Lipo.Weighted>
-9.2789

> <Gold.Chemscore.Internal_Hbond.Weighted>
0.0000

> <Gold.Chemscore.DEClash.Weighted>
3.4664

> <Gold.Chemscore.DEInternal.Weighted>
1.9057

> <Gold.Chemscore.Rot.Weighted>
4.7739

> <Gold.Chemscore.Internal.Correction.Weighted>
   9.000000E+99

> <Gold.Protein.RotatedTorsions>
[ 6907 6896 6895 6894 ] final  -77.96 input  -60.11 | X-H torsion
[ 7974 7965 7964 7962 ] final  -30.05 input  175.53 | X-H torsion
[ 8008 7997 7996 7995 ] final  146.30 input   59.86 | X-H torsion
[ 10167 10162 10161 10158 ] final   26.81 input  -65.29 | X-H torsion
[ 10718 10713 10712 10709 ] final   57.99 input   66.30 | X-H torsion
[ 10763 10752 10751 10750 ] final  -89.11 input  -60.55 | X-H torsion
[ 11005 11000 10999 10996 ] final  -38.88 input  -57.11 | X-H torsion

> <Gold.Protein.ActiveResidues>
 VAL166  LYS551  ARG553  GLY616  TRP617  ASP618  TYR619  PRO620  LYS621  CYS622 
 ASP623  PHE694  ASN695  SER759  ASP760  ASP761  ALA762  ILE779  LEU786  VAL792 
 PHE793  MET794  SER795  GLU796  ALA797  LYS798  CYS799  TRP800  GLU811  SER814 

> <Gold.Protein.RotatedAtoms>
  150.6985  134.4344  159.5262 H   0  0  0  0  0  0  0  0  0  0  0  0  # atno 6907 bound_to 6896
  152.2065  134.8538  160.0511 H   0  0  0  0  0  0  0  0  0  0  0  0  # atno 6908 bound_to 6896
  151.9439  133.3611  159.4012 H   0  0  0  0  0  0  0  0  0  0  0  0  # atno 6909 bound_to 6896
  146.1172  140.5490  142.8752 H   0  0  0  0  0  0  0  0  0  0  0  0  # atno 7974 bound_to 7965
  156.2859  140.2186  156.5355 H   0  0  0  0  0  0  0  0  0  0  0  0  # atno 8008 bound_to 7997
  154.7413  140.0487  157.0836 H   0  0  0  0  0  0  0  0  0  0  0  0  # atno 8009 bound_to 7997
  155.0227  140.3126  155.4791 H   0  0  0  0  0  0  0  0  0  0  0  0  # atno 8010 bound_to 7997
  140.4991  144.0344  150.6326 H   0  0  0  0  0  0  0  0  0  0  0  0  # atno 10167 bound_to 10162
  157.5560  130.8800  149.9036 H   0  0  0  0  0  0  0  0  0  0  0  0  # atno 10718 bound_to 10713
  154.6518  135.5352  153.7911 H   0  0  0  0  0  0  0  0  0  0  0  0  # atno 10763 bound_to 10752
  153.0390  135.6484  154.1005 H   0  0  0  0  0  0  0  0  0  0  0  0  # atno 10764 bound_to 10752
  154.0922  135.2939  155.3249 H   0  0  0  0  0  0  0  0  0  0  0  0  # atno 10765 bound_to 10752
  141.0060  133.6931  156.2112 H   0  0  0  0  0  0  0  0  0  0  0  0  # atno 11005 bound_to 11000
  144.7563  140.5316  143.6766 LP  0  0  0  0  0  0  0  0  0  0  0  0  # atno 17320 bound_to 7965
  145.5543  139.1477  143.3377 LP  0  0  0  0  0  0  0  0  0  0  0  0  # atno 17321 bound_to 7965
  140.3635  143.2895  152.0358 LP  0  0  0  0  0  0  0  0  0  0  0  0  # atno 17342 bound_to 10162
  139.4868  144.6285  151.7117 LP  0  0  0  0  0  0  0  0  0  0  0  0  # atno 17343 bound_to 10162
  156.0618  130.3698  150.0964 LP  0  0  0  0  0  0  0  0  0  0  0  0  # atno 17370 bound_to 10713
  156.9133  130.9659  151.3560 LP  0  0  0  0  0  0  0  0  0  0  0  0  # atno 17371 bound_to 10713
  140.6811  134.4766  157.5589 LP  0  0  0  0  0  0  0  0  0  0  0  0  # atno 17394 bound_to 11000
  139.9064  134.8440  156.1691 LP  0  0  0  0  0  0  0  0  0  0  0  0  # atno 17395 bound_to 11000

$$$$
