AV-unprocessed.smi:60|AV-procd|sdf|593|dock10
  -GOLD-   2262016483D 1   1.00000     0.00000
 Structure written by MMmdl.
 36 37  0  0  0  0  0  0  0  0  1 V2000
  151.1779  139.9082  154.8039 O   0  0  0  0  0  0  0  0  0  0  0  0
  150.0530  140.2638  155.1514 C   0  0  0  0  0  0  0  0  0  0  0  0
  149.0480  140.4060  154.1896 N   0  0  0  0  0  0  0  0  0  0  0  0
  147.7325  140.7932  154.4412 C   0  0  0  0  0  0  0  0  0  0  0  0
  146.9284  140.8941  153.5144 O   0  0  0  0  0  0  0  0  0  0  0  0
  147.3953  141.0500  155.7863 N   0  0  0  0  0  0  0  0  0  0  0  0
  146.0397  141.4920  156.0614 C   0  0  0  0  0  0  0  0  0  0  0  0
  145.7269  142.5509  155.2154 O   0  0  0  0  0  0  0  0  0  0  0  0
  144.3300  142.7491  155.0634 C   0  0  0  0  0  0  0  0  0  0  0  0
  144.0910  143.9511  154.1419 C   0  0  0  0  0  0  0  0  0  0  0  0
  142.7493  143.9675  153.7035 O   0  0  0  0  0  0  0  0  0  0  0  0
  148.3622  140.9424  156.7717 C   0  0  0  0  0  0  0  0  0  0  0  0
  149.6431  140.5648  156.5277 C   0  0  0  0  0  0  0  0  0  0  0  0
  150.6752  140.4520  157.6401 C   0  0  0  0  0  0  0  0  0  0  0  0
  151.0706  141.7940  158.2299 C   0  0  0  0  0  0  0  0  0  0  0  0
  151.9035  141.8507  159.3677 C   0  0  0  0  0  0  0  0  0  0  0  0
  152.2759  143.0952  159.9121 C   0  0  0  0  0  0  0  0  0  0  0  0
  151.8152  144.2881  159.3227 C   0  0  0  0  0  0  0  0  0  0  0  0
  150.9819  144.2359  158.1885 C   0  0  0  0  0  0  0  0  0  0  0  0
  150.6106  142.9915  157.6425 C   0  0  0  0  0  0  0  0  0  0  0  0
  149.2970  140.2132  153.2303 H   0  0  0  0  0  0  0  0  0  0  0  0
  145.3554  140.6509  155.9248 H   0  0  0  0  0  0  0  0  0  0  0  0
  145.9761  141.8160  157.1019 H   0  0  0  0  0  0  0  0  0  0  0  0
  143.9008  141.8572  154.6039 H   0  0  0  0  0  0  0  0  0  0  0  0
  143.8349  142.8874  156.0264 H   0  0  0  0  0  0  0  0  0  0  0  0
  144.3443  144.8890  154.6370 H   0  0  0  0  0  0  0  0  0  0  0  0
  144.7247  143.8699  153.2585 H   0  0  0  0  0  0  0  0  0  0  0  0
  142.4872  143.0813  153.5051 H   0  0  0  0  0  0  0  0  0  0  0  0
  148.0799  141.1654  157.7910 H   0  0  0  0  0  0  0  0  0  0  0  0
  150.3088  139.7856  158.4224 H   0  0  0  0  0  0  0  0  0  0  0  0
  151.5754  139.9770  157.2481 H   0  0  0  0  0  0  0  0  0  0  0  0
  152.2614  140.9398  159.8248 H   0  0  0  0  0  0  0  0  0  0  0  0
  152.9155  143.1345  160.7813 H   0  0  0  0  0  0  0  0  0  0  0  0
  152.1008  145.2425  159.7400 H   0  0  0  0  0  0  0  0  0  0  0  0
  150.6289  145.1507  157.7356 H   0  0  0  0  0  0  0  0  0  0  0  0
  149.9745  142.9605  156.7699 H   0  0  0  0  0  0  0  0  0  0  0  0
  1  2  2  0  0  0  0
  2 13  1  0  0  0  0
  2  3  1  0  0  0  0
  3 21  1  0  0  0  0
  3  4  1  0  0  0  0
  4  5  2  0  0  0  0
  4  6  1  0  0  0  0
  6  7  1  0  0  0  0
  6 12  1  0  0  0  0
  7  8  1  0  0  0  0
  7 22  1  0  0  0  0
  7 23  1  0  0  0  0
  8  9  1  0  0  0  0
  9 10  1  0  0  0  0
  9 24  1  0  0  0  0
  9 25  1  0  0  0  0
 10 11  1  0  0  0  0
 10 26  1  0  0  0  0
 10 27  1  0  0  0  0
 11 28  1  0  0  0  0
 12 13  2  0  0  0  0
 12 29  1  0  0  0  0
 13 14  1  0  0  0  0
 14 15  1  0  0  0  0
 14 30  1  0  0  0  0
 14 31  1  0  0  0  0
 15 20  1  0  0  0  0
 15 16  2  0  0  0  0
 16 17  1  0  0  0  0
 16 32  1  0  0  0  0
 17 18  2  0  0  0  0
 17 33  1  0  0  0  0
 18 19  1  0  0  0  0
 18 34  1  0  0  0  0
 19 20  2  0  0  0  0
 19 35  1  0  0  0  0
 20 36  1  0  0  0  0
M  END
> <s_m_source_file>
AV-unprocessed.smi

> <i_m_source_file_index>
60

> <i_lp_mmshare_version>
43012

> <i_f3d_flags>
0

> <s_epik_input>
W09IXVtDSDJdW0NIMl1PW0NIMl1uKGMoPU8pW25IXWMxPU8pW2NIXWMxW0NIMl1jMltjSF1bY0hdW2NIXVtjSF1bY0hdMg==

> <s_epik_cmdline>
J2VwaWtfcHl0aG9uJywgJy1waCcsICc3LjAnLCAnLXRuJywgJzgnLCAnLW1hJywgJzIwMCcsICctbWV0YWxfYmluZGluZycsICctaW1hZScsICc8aW5maWxlLm1hZT4nLCAnLW9tYWUnLCAnPG91dGZpbGUubWFlPic=

> <r_lp_tautomer_probability>
0.999537

> <r_epik_Ionization_Penalty>
0.00298861

> <r_epik_Ionization_Penalty_Charging>
0.00298856

> <r_epik_Ionization_Penalty_Neutral>
5.3532e-08

> <r_epik_State_Penalty>
0.00209779

> <r_epik_Charging_Adjusted_Penalty>
0.00508635

> <i_epik_Tot_Q>
0

> <i_epik_Tot_abs_Q>
0

> <r_epik_Metal_State_Penalty>
1.06718

> <b_epik_Metal_Only>
0

> <s_epik_Chemistry_Notes>
This compound contains an acetal/aminal-like group ( X-CH(R)-Y where X, Y are N, S, or O) that may be acid/base labile, releasing an aldehyde.

> <s_lp_Force_Field>
OPLS_2005

> <r_lp_Energy>
6.34754

> <b_lp_Chiralities_Consistent>
1

> <s_lp_Variant>
AV-unprocessed.smi:60-1

> <Gold.Version>
5.8.1

> <Gold.Id.Protein>
6NUR|6NUR_protein|mol2

> <Gold.PLP.Fitness>
49.6039

> <Gold.PLP.PLP>
-41.2565

> <Gold.PLP.part.hbond>
-4.0000

> <Gold.PLP.part.metal>
0.0000

> <Gold.PLP.part.buried>
-4.6398

> <Gold.PLP.part.nonpolar>
-33.7515

> <Gold.PLP.part.repulsive>
0.6416

> <Gold.PLP.ligand.clash>
0.0000

> <Gold.PLP.ligand.torsion>
0.3502

> <Gold.PLP.Chemscore.Hbond>
3.0000

> <Gold.PLP.Chemscore.CHOScore>
0.0000

> <Gold.PLP.Chemscore.Metal>
0.0000

> <Gold.Chemscore.Hbonds>
donor molecule, donor type, donor heavy atom, donor atom, acceptor molecule, acceptor atom, score
      L1  H     3    21       P1  7957  0.83
      L1  H    11    28       P1 10174  0.41
      P1  H  7989  7998       L1     1  1.00

> <Gold.PLP.Chemscore.Internal.Correction>
0.0478

> <Gold.Rescore>
     Score         DG    S(hbond)    S(metal)    S(lipo)     H(rot)  DE(clash)    DE(int)     intcor
     14.08     -16.29       2.48        0.00      93.40       3.28       0.18       2.03       ----

> <Gold.Chemscore.Fitness>
14.0755

> <Gold.Chemscore.DG>
-16.2879

> <Gold.Chemscore.ZeroCoef>
-5.4800

> <Gold.Chemscore.Hbond>
2.4806

> <Gold.Chemscore.Metal>
0.0000

> <Gold.Chemscore.Lipo>
93.3985

> <Gold.Chemscore.Internal_Hbond>
0.0000

> <Gold.Chemscore.DEClash>
0.1849

> <Gold.Chemscore.DEInternal>
2.0275

> <Gold.Chemscore.Rot>
3.2832

> <Gold.Chemscore.Internal.Correction>
   9.000000E+99

> <Gold.Chemscore.Hbonds>
donor molecule, donor type, donor heavy atom, donor atom, acceptor molecule, acceptor atom, score
      L1  H     3    21       P1  7957  0.80
      L1  H    11    28       P1 10174  0.39
      P1  H  7989  7998       L1     1  0.65

> <Gold.Chemscore.Hbond.Weighted>
-8.2853

> <Gold.Chemscore.Metal.Weighted>
-0.0000

> <Gold.Chemscore.Lipo.Weighted>
-10.9276

> <Gold.Chemscore.Internal_Hbond.Weighted>
0.0000

> <Gold.Chemscore.DEClash.Weighted>
0.1849

> <Gold.Chemscore.DEInternal.Weighted>
2.0275

> <Gold.Chemscore.Rot.Weighted>
8.4050

> <Gold.Chemscore.Internal.Correction.Weighted>
   9.000000E+99

> <Gold.Protein.RotatedTorsions>
[ 6907 6896 6895 6894 ] final  -66.07 input  -60.11 | X-H torsion
[ 7974 7965 7964 7962 ] final  111.63 input  175.53 | X-H torsion
[ 8008 7997 7996 7995 ] final  141.07 input   59.86 | X-H torsion
[ 10167 10162 10161 10158 ] final   61.09 input  -65.29 | X-H torsion
[ 10718 10713 10712 10709 ] final  -71.57 input   66.30 | X-H torsion
[ 10763 10752 10751 10750 ] final   67.17 input  -60.55 | X-H torsion
[ 11005 11000 10999 10996 ] final  -27.73 input  -57.11 | X-H torsion

> <Gold.Protein.ActiveResidues>
 VAL166  LYS551  ARG553  GLY616  TRP617  ASP618  TYR619  PRO620  LYS621  CYS622 
 ASP623  PHE694  ASN695  SER759  ASP760  ASP761  ALA762  ILE779  LEU786  VAL792 
 PHE793  MET794  SER795  GLU796  ALA797  LYS798  CYS799  TRP800  GLU811  SER814 

> <Gold.Protein.RotatedAtoms>
  150.7487  134.6072  159.6066 H   0  0  0  0  0  0  0  0  0  0  0  0  # atno 6907 bound_to 6896
  152.3417  134.7123  160.0271 H   0  0  0  0  0  0  0  0  0  0  0  0  # atno 6908 bound_to 6896
  151.7573  133.3295  159.3444 H   0  0  0  0  0  0  0  0  0  0  0  0  # atno 6909 bound_to 6896
  145.2397  139.2784  143.4124 H   0  0  0  0  0  0  0  0  0  0  0  0  # atno 7974 bound_to 7965
  156.2971  140.2325  156.4504 H   0  0  0  0  0  0  0  0  0  0  0  0  # atno 8008 bound_to 7997
  154.8106  140.0443  157.1361 H   0  0  0  0  0  0  0  0  0  0  0  0  # atno 8009 bound_to 7997
  154.9427  140.3031  155.5116 H   0  0  0  0  0  0  0  0  0  0  0  0  # atno 8010 bound_to 7997
  140.1585  144.4393  150.6722 H   0  0  0  0  0  0  0  0  0  0  0  0  # atno 10167 bound_to 10162
  156.0357  130.4354  150.2463 H   0  0  0  0  0  0  0  0  0  0  0  0  # atno 10718 bound_to 10713
  153.0174  135.5293  154.6938 H   0  0  0  0  0  0  0  0  0  0  0  0  # atno 10763 bound_to 10752
  154.6066  135.2874  155.0480 H   0  0  0  0  0  0  0  0  0  0  0  0  # atno 10764 bound_to 10752
  154.1518  135.6562  153.5017 H   0  0  0  0  0  0  0  0  0  0  0  0  # atno 10765 bound_to 10752
  140.9146  133.7439  156.0716 H   0  0  0  0  0  0  0  0  0  0  0  0  # atno 11005 bound_to 11000
  146.3331  140.2757  142.8608 LP  0  0  0  0  0  0  0  0  0  0  0  0  # atno 17320 bound_to 7965
  144.9600  140.8265  143.5519 LP  0  0  0  0  0  0  0  0  0  0  0  0  # atno 17321 bound_to 7965
  140.6658  143.2267  151.5747 LP  0  0  0  0  0  0  0  0  0  0  0  0  # atno 17342 bound_to 10162
  139.5392  144.2695  152.1316 LP  0  0  0  0  0  0  0  0  0  0  0  0  # atno 17343 bound_to 10162
  157.0563  131.0077  151.3237 LP  0  0  0  0  0  0  0  0  0  0  0  0  # atno 17370 bound_to 10713
  157.5104  130.7935  149.7698 LP  0  0  0  0  0  0  0  0  0  0  0  0  # atno 17371 bound_to 10713
  140.8067  134.3446  157.5424 LP  0  0  0  0  0  0  0  0  0  0  0  0  # atno 17394 bound_to 11000
  139.8763  134.9230  156.3313 LP  0  0  0  0  0  0  0  0  0  0  0  0  # atno 17395 bound_to 11000

$$$$
