AV-unprocessed.smi:1584|AV-procd|sdf|6368|dock1
  -GOLD-   22720 6593D 1   1.00000     0.00000
 Structure written by MMmdl.
 39 40  0  0  0  0  0  0  0  0  1 V2000
  147.1713  142.4007  154.4527 C   0  0  0  0  0  0  0  0  0  0  0  0
  148.2737  141.4668  154.9725 C   0  0  1  0  0  0  0  0  0  0  0  0
  149.2053  140.9970  153.8384 C   0  0  0  0  0  0  0  0  0  0  0  0
  150.1588  139.9978  154.2878 N   0  0  0  0  0  0  0  0  0  0  0  0
  150.0398  138.6240  154.2570 C   0  0  0  0  0  0  0  0  0  0  0  0
  151.1930  138.1048  154.7716 C   0  0  0  0  0  0  0  0  0  0  0  0
  151.9658  139.2547  155.0956 C   0  0  0  0  0  0  0  0  0  0  0  0
  151.3440  140.3863  154.8053 N   0  0  0  0  0  0  0  0  0  0  0  0
  149.0521  142.1515  156.0028 N   0  0  0  0  0  0  0  0  0  0  0  0
  149.8812  141.5639  156.8789 C   0  0  0  0  0  0  0  0  0  0  0  0
  150.0437  140.3451  156.9464 O   0  0  0  0  0  0  0  0  0  0  0  0
  150.6492  142.5021  157.8189 C   0  0  1  0  0  0  0  0  0  0  0  0
  149.6846  143.3370  158.6698 C   0  0  0  0  0  0  0  0  0  0  0  0
  150.4743  144.3149  159.5496 C   0  0  0  0  0  0  0  0  0  0  0  0
  151.5994  143.6910  160.2610 N   0  0  0  0  0  0  0  0  0  0  0  0
  152.1313  144.4712  161.3797 C   0  0  0  0  0  0  0  0  0  0  0  0
  152.1843  142.5229  159.9007 C   0  0  0  0  0  0  0  0  0  0  0  0
  153.1659  142.0674  160.4880 O   0  0  0  0  0  0  0  0  0  0  0  0
  151.5942  141.7048  158.7398 C   0  0  0  0  0  0  0  0  0  0  0  0
  146.5647  141.9058  153.6940 H   0  0  0  0  0  0  0  0  0  0  0  0
  147.5919  143.3027  154.0068 H   0  0  0  0  0  0  0  0  0  0  0  0
  146.5032  142.7066  155.2585 H   0  0  0  0  0  0  0  0  0  0  0  0
  147.7913  140.5841  155.3969 H   0  0  0  0  0  0  0  0  0  0  0  0
  148.6210  140.5685  153.0227 H   0  0  0  0  0  0  0  0  0  0  0  0
  149.7548  141.8403  153.4176 H   0  0  0  0  0  0  0  0  0  0  0  0
  149.1570  138.1362  153.8709 H   0  0  0  0  0  0  0  0  0  0  0  0
  151.4465  137.0626  154.8966 H   0  0  0  0  0  0  0  0  0  0  0  0
  152.9538  139.3006  155.5292 H   0  0  0  0  0  0  0  0  0  0  0  0
  148.9794  143.1582  156.0287 H   0  0  0  0  0  0  0  0  0  0  0  0
  151.2499  143.1835  157.2129 H   0  0  0  0  0  0  0  0  0  0  0  0
  148.9873  143.8893  158.0382 H   0  0  0  0  0  0  0  0  0  0  0  0
  149.0813  142.6855  159.3047 H   0  0  0  0  0  0  0  0  0  0  0  0
  150.8743  145.1190  158.9306 H   0  0  0  0  0  0  0  0  0  0  0  0
  149.7919  144.7802  160.2624 H   0  0  0  0  0  0  0  0  0  0  0  0
  153.1923  144.6815  161.2359 H   0  0  0  0  0  0  0  0  0  0  0  0
  152.0148  143.9239  162.3161 H   0  0  0  0  0  0  0  0  0  0  0  0
  151.6247  145.4305  161.4912 H   0  0  0  0  0  0  0  0  0  0  0  0
  151.0694  140.8568  159.1829 H   0  0  0  0  0  0  0  0  0  0  0  0
  152.4132  141.2863  158.1530 H   0  0  0  0  0  0  0  0  0  0  0  0
  1  2  1  0  0  0  0
  1 20  1  0  0  0  0
  1 21  1  0  0  0  0
  1 22  1  0  0  0  0
  2  3  1  0  0  0  0
  2  9  1  0  0  0  0
  2 23  1  0  0  0  0
  3  4  1  0  0  0  0
  3 24  1  0  0  0  0
  3 25  1  0  0  0  0
  4  8  1  0  0  0  0
  4  5  1  0  0  0  0
  5  6  2  0  0  0  0
  5 26  1  0  0  0  0
  6  7  1  0  0  0  0
  6 27  1  0  0  0  0
  7  8  2  0  0  0  0
  7 28  1  0  0  0  0
  9 10  1  0  0  0  0
  9 29  1  0  0  0  0
 10 11  2  0  0  0  0
 10 12  1  0  0  0  0
 12 19  1  0  0  0  0
 12 13  1  0  0  0  0
 12 30  1  0  0  0  0
 13 14  1  0  0  0  0
 13 31  1  0  0  0  0
 13 32  1  0  0  0  0
 14 15  1  0  0  0  0
 14 33  1  0  0  0  0
 14 34  1  0  0  0  0
 15 16  1  0  0  0  0
 15 17  1  0  0  0  0
 16 35  1  0  0  0  0
 16 36  1  0  0  0  0
 16 37  1  0  0  0  0
 17 18  2  0  0  0  0
 17 19  1  0  0  0  0
 19 38  1  0  0  0  0
 19 39  1  0  0  0  0
M  END
> <s_m_source_file>
AV-unprocessed.smi

> <i_m_source_file_index>
1584

> <i_lp_mmshare_version>
43012

> <i_f3d_flags>
0

> <s_epik_input>
bjFbY0hdW2NIXVtjSF1uMVtDSDJdW0NAQEhdKFtDSDNdKVtOSF1DKD1PKVtDQEBIXTJbQ0gyXVtDSDJdTihbQ0gzXSlDKD1PKVtDSDJdMg==

> <s_epik_cmdline>
J2VwaWtfcHl0aG9uJywgJy1waCcsICc3LjAnLCAnLXRuJywgJzgnLCAnLW1hJywgJzIwMCcsICctbWV0YWxfYmluZGluZycsICctaW1hZScsICc8aW5maWxlLm1hZT4nLCAnLW9tYWUnLCAnPG91dGZpbGUubWFlPic=

> <r_lp_tautomer_probability>
1

> <r_epik_Ionization_Penalty>
0.000299422

> <r_epik_Ionization_Penalty_Charging>
0

> <r_epik_Ionization_Penalty_Neutral>
0.000299422

> <r_epik_State_Penalty>
-0

> <r_epik_Charging_Adjusted_Penalty>
0

> <i_epik_Tot_Q>
0

> <i_epik_Tot_abs_Q>
0

> <r_epik_Metal_State_Penalty>
-0

> <b_epik_Metal_Only>
0

> <s_lp_Force_Field>
OPLS_2005

> <r_lp_Energy>
13.2703

> <b_lp_Chiralities_Consistent>
1

> <s_lp_Variant>
AV-unprocessed.smi:1584-4

> <Gold.Version>
5.8.1

> <Gold.Id.Protein>
6NUR|6NUR_protein|mol2

> <Gold.PLP.Fitness>
44.8578

> <Gold.PLP.PLP>
-38.5265

> <Gold.PLP.part.hbond>
-2.0000

> <Gold.PLP.part.metal>
0.0000

> <Gold.PLP.part.buried>
-3.7633

> <Gold.PLP.part.nonpolar>
-33.9472

> <Gold.PLP.part.repulsive>
0.1507

> <Gold.PLP.ligand.clash>
0.0000

> <Gold.PLP.ligand.torsion>
0.5637

> <Gold.PLP.Chemscore.Hbond>
2.0000

> <Gold.PLP.Chemscore.CHOScore>
0.4736

> <Gold.PLP.Chemscore.Metal>
0.0000

> <Gold.Chemscore.Hbonds>
donor molecule, donor type, donor heavy atom, donor atom, acceptor molecule, acceptor atom, score
      L1  H     9    29       P1  8028  1.00
      P1  H  7989  7998       L1     8  0.25
      L1  C     5    26       P1  7948  0.43

> <Gold.PLP.Chemscore.Internal.Correction>
0.0379

> <Gold.Rescore>
     Score         DG    S(hbond)    S(metal)    S(lipo)     H(rot)  DE(clash)    DE(int)     intcor
     14.36     -16.78       1.97        0.00      76.96       1.67       0.67       1.75       ----

> <Gold.Chemscore.Fitness>
14.3629

> <Gold.Chemscore.DG>
-16.7827

> <Gold.Chemscore.ZeroCoef>
-5.4800

> <Gold.Chemscore.Hbond>
1.9708

> <Gold.Chemscore.Metal>
0.0000

> <Gold.Chemscore.Lipo>
76.9604

> <Gold.Chemscore.Internal_Hbond>
0.0000

> <Gold.Chemscore.DEClash>
0.6740

> <Gold.Chemscore.DEInternal>
1.7459

> <Gold.Chemscore.Rot>
1.6734

> <Gold.Chemscore.Internal.Correction>
   9.000000E+99

> <Gold.Chemscore.Hbonds>
donor molecule, donor type, donor heavy atom, donor atom, acceptor molecule, acceptor atom, score
      L1  H     9    29       P1  8028  0.99

> <Gold.Chemscore.Hbond.Weighted>
-6.5824

> <Gold.Chemscore.Metal.Weighted>
-0.0000

> <Gold.Chemscore.Lipo.Weighted>
-9.0044

> <Gold.Chemscore.Internal_Hbond.Weighted>
0.0000

> <Gold.Chemscore.DEClash.Weighted>
0.6740

> <Gold.Chemscore.DEInternal.Weighted>
1.7459

> <Gold.Chemscore.Rot.Weighted>
4.2840

> <Gold.Chemscore.Internal.Correction.Weighted>
   9.000000E+99

> <Gold.Protein.RotatedTorsions>
[ 6907 6896 6895 6894 ] final   78.53 input  -60.11 | X-H torsion
[ 7974 7965 7964 7962 ] final  -38.76 input  175.53 | X-H torsion
[ 8008 7997 7996 7995 ] final   26.72 input   59.86 | X-H torsion
[ 10167 10162 10161 10158 ] final   83.29 input  -65.29 | X-H torsion
[ 10718 10713 10712 10709 ] final   66.76 input   66.30 | X-H torsion
[ 10763 10752 10751 10750 ] final    2.02 input  -60.55 | X-H torsion
[ 11005 11000 10999 10996 ] final  125.95 input  -57.11 | X-H torsion

> <Gold.Protein.ActiveResidues>
 VAL166  LYS551  ARG553  GLY616  TRP617  ASP618  TYR619  PRO620  LYS621  CYS622 
 ASP623  PHE694  ASN695  SER759  ASP760  ASP761  ALA762  ILE779  LEU786  VAL792 
 PHE793  MET794  SER795  GLU796  ALA797  LYS798  CYS799  TRP800  GLU811  SER814 

> <Gold.Protein.RotatedAtoms>
  152.5163  134.3651  159.9298 H   0  0  0  0  0  0  0  0  0  0  0  0  # atno 6907 bound_to 6896
  151.3604  133.3885  159.2697 H   0  0  0  0  0  0  0  0  0  0  0  0  # atno 6908 bound_to 6896
  150.9657  134.9057  159.7815 H   0  0  0  0  0  0  0  0  0  0  0  0  # atno 6909 bound_to 6896
  146.0457  140.6549  142.9066 H   0  0  0  0  0  0  0  0  0  0  0  0  # atno 7974 bound_to 7965
  155.0316  140.3159  155.4756 H   0  0  0  0  0  0  0  0  0  0  0  0  # atno 8008 bound_to 7997
  156.2873  140.2179  156.5380 H   0  0  0  0  0  0  0  0  0  0  0  0  # atno 8009 bound_to 7997
  154.7365  140.0477  157.0761 H   0  0  0  0  0  0  0  0  0  0  0  0  # atno 8010 bound_to 7997
  139.9199  144.6219  150.8450 H   0  0  0  0  0  0  0  0  0  0  0  0  # atno 10167 bound_to 10162
  157.6189  130.9285  150.0152 H   0  0  0  0  0  0  0  0  0  0  0  0  # atno 10718 bound_to 10713
  153.3007  135.6955  153.7205 H   0  0  0  0  0  0  0  0  0  0  0  0  # atno 10763 bound_to 10752
  153.6120  135.3442  155.2983 H   0  0  0  0  0  0  0  0  0  0  0  0  # atno 10764 bound_to 10752
  154.8550  135.4366  154.2118 H   0  0  0  0  0  0  0  0  0  0  0  0  # atno 10765 bound_to 10752
  139.9432  134.9633  156.8635 H   0  0  0  0  0  0  0  0  0  0  0  0  # atno 11005 bound_to 11000
  144.7097  140.3990  143.7090 LP  0  0  0  0  0  0  0  0  0  0  0  0  # atno 17320 bound_to 7965
  145.6809  139.1618  143.2701 LP  0  0  0  0  0  0  0  0  0  0  0  0  # atno 17321 bound_to 7965
  140.7665  143.3304  151.2423 LP  0  0  0  0  0  0  0  0  0  0  0  0  # atno 17342 bound_to 10162
  139.6870  143.9757  152.2839 LP  0  0  0  0  0  0  0  0  0  0  0  0  # atno 17343 bound_to 10162
  156.1324  130.3643  149.9710 LP  0  0  0  0  0  0  0  0  0  0  0  0  # atno 17370 bound_to 10713
  156.7768  130.9206  151.3645 LP  0  0  0  0  0  0  0  0  0  0  0  0  # atno 17371 bound_to 10713
  140.5900  134.0271  155.7496 LP  0  0  0  0  0  0  0  0  0  0  0  0  # atno 17394 bound_to 11000
  141.1073  133.9672  157.2973 LP  0  0  0  0  0  0  0  0  0  0  0  0  # atno 17395 bound_to 11000

$$$$
