AV-unprocessed.smi:586|AV-procd|sdf|3001|dock10
  -GOLD-   2262023503D 1   1.00000     0.00000
 Structure written by MMmdl.
 49 49  0  0  0  0  0  0  0  0  1 V2000
  151.5602  143.8889  159.4929 C   0  0  0  0  0  0  0  0  0  0  0  0
  150.3821  143.2501  158.7453 C   0  0  0  0  0  0  0  0  0  0  0  0
  150.7881  142.2149  157.6761 C   0  0  0  0  0  0  0  0  0  0  0  0
  150.8359  140.8494  158.1679 N   0  0  0  0  0  0  0  0  0  0  0  0
  149.9236  139.8659  157.7742 C   0  0  0  0  0  0  0  0  0  0  0  0
  148.9242  140.2323  156.8839 N   0  0  0  0  0  0  0  0  0  0  0  0
  150.0218  138.5734  158.2124 C   0  0  0  0  0  0  0  0  0  0  0  0
  149.0813  137.5930  157.8408 N   0  0  0  0  0  0  0  0  0  0  0  0
  147.7942  137.6417  158.5599 C   0  0  0  0  0  0  0  0  0  0  0  0
  147.7207  136.5963  159.6919 C   0  0  0  0  0  0  0  0  0  0  0  0
  146.9513  137.0659  160.7898 O   0  0  0  0  0  0  0  0  0  0  0  0
  146.7538  136.1044  161.8147 C   0  0  0  0  0  0  0  0  0  0  0  0
  149.3428  136.5582  156.9872 C   0  0  0  0  0  0  0  0  0  0  0  0
  148.6212  135.5579  157.0071 O   0  0  0  0  0  0  0  0  0  0  0  0
  150.4809  136.5908  155.9085 C   0  0  0  0  0  0  0  0  0  0  0  0
  151.9076  136.7791  156.4778 C   0  0  0  0  0  0  0  0  0  0  0  0
  150.2320  137.8091  154.9809 C   0  0  0  0  0  0  0  0  0  0  0  0
  150.4155  135.3285  155.0233 C   0  0  0  0  0  0  0  0  0  0  0  0
  151.0524  138.1994  159.1913 C   0  0  0  0  0  0  0  0  0  0  0  0
  151.1794  137.0937  159.7156 O   0  0  0  0  0  0  0  0  0  0  0  0
  151.9328  139.2203  159.5368 N   0  0  0  0  0  0  0  0  0  0  0  0
  151.8872  140.5249  159.0604 C   0  0  0  0  0  0  0  0  0  0  0  0
  152.7458  141.3272  159.4279 O   0  0  0  0  0  0  0  0  0  0  0  0
  152.6679  138.9936  160.1907 H   0  0  0  0  0  0  0  0  0  0  0  0
  151.2032  144.5554  160.2781 H   0  0  0  0  0  0  0  0  0  0  0  0
  152.1855  144.4787  158.8225 H   0  0  0  0  0  0  0  0  0  0  0  0
  152.1879  143.1300  159.9609 H   0  0  0  0  0  0  0  0  0  0  0  0
  149.7338  142.7602  159.4719 H   0  0  0  0  0  0  0  0  0  0  0  0
  149.7800  144.0376  158.2912 H   0  0  0  0  0  0  0  0  0  0  0  0
  150.1374  142.2610  156.8019 H   0  0  0  0  0  0  0  0  0  0  0  0
  151.7854  142.4269  157.2895 H   0  0  0  0  0  0  0  0  0  0  0  0
  148.8491  141.1741  156.5263 H   0  0  0  0  0  0  0  0  0  0  0  0
  148.2271  139.5750  156.5647 H   0  0  0  0  0  0  0  0  0  0  0  0
  147.6462  138.6364  158.9778 H   0  0  0  0  0  0  0  0  0  0  0  0
  146.9635  137.4993  157.8663 H   0  0  0  0  0  0  0  0  0  0  0  0
  147.2356  135.6916  159.3256 H   0  0  0  0  0  0  0  0  0  0  0  0
  148.7167  136.2977  160.0217 H   0  0  0  0  0  0  0  0  0  0  0  0
  146.1166  136.5293  162.5902 H   0  0  0  0  0  0  0  0  0  0  0  0
  147.6919  135.8103  162.2847 H   0  0  0  0  0  0  0  0  0  0  0  0
  146.2595  135.2116  161.4298 H   0  0  0  0  0  0  0  0  0  0  0  0
  152.6033  137.1050  155.7039 H   0  0  0  0  0  0  0  0  0  0  0  0
  152.3265  135.8541  156.8712 H   0  0  0  0  0  0  0  0  0  0  0  0
  151.9330  137.5350  157.2626 H   0  0  0  0  0  0  0  0  0  0  0  0
  150.2102  138.7437  155.5434 H   0  0  0  0  0  0  0  0  0  0  0  0
  149.2907  137.7269  154.4351 H   0  0  0  0  0  0  0  0  0  0  0  0
  151.0145  137.9069  154.2274 H   0  0  0  0  0  0  0  0  0  0  0  0
  150.9788  135.4656  154.0995 H   0  0  0  0  0  0  0  0  0  0  0  0
  149.3907  135.0809  154.7429 H   0  0  0  0  0  0  0  0  0  0  0  0
  150.8450  134.4584  155.5159 H   0  0  0  0  0  0  0  0  0  0  0  0
  1  2  1  0  0  0  0
  1 25  1  0  0  0  0
  1 26  1  0  0  0  0
  1 27  1  0  0  0  0
  2  3  1  0  0  0  0
  2 28  1  0  0  0  0
  2 29  1  0  0  0  0
  3  4  1  0  0  0  0
  3 30  1  0  0  0  0
  3 31  1  0  0  0  0
  4 22  1  0  0  0  0
  4  5  1  0  0  0  0
  5  6  1  0  0  0  0
  5  7  2  0  0  0  0
  6 32  1  0  0  0  0
  6 33  1  0  0  0  0
  7  8  1  0  0  0  0
  7 19  1  0  0  0  0
  8  9  1  0  0  0  0
  8 13  1  0  0  0  0
  9 10  1  0  0  0  0
  9 34  1  0  0  0  0
  9 35  1  0  0  0  0
 10 11  1  0  0  0  0
 10 36  1  0  0  0  0
 10 37  1  0  0  0  0
 11 12  1  0  0  0  0
 12 38  1  0  0  0  0
 12 39  1  0  0  0  0
 12 40  1  0  0  0  0
 13 14  2  0  0  0  0
 13 15  1  0  0  0  0
 15 16  1  0  0  0  0
 15 17  1  0  0  0  0
 15 18  1  0  0  0  0
 16 41  1  0  0  0  0
 16 42  1  0  0  0  0
 16 43  1  0  0  0  0
 17 44  1  0  0  0  0
 17 45  1  0  0  0  0
 17 46  1  0  0  0  0
 18 47  1  0  0  0  0
 18 48  1  0  0  0  0
 18 49  1  0  0  0  0
 19 20  2  0  0  0  0
 19 21  1  0  0  0  0
 21 24  1  0  0  0  0
 21 22  1  0  0  0  0
 22 23  2  0  0  0  0
M  END
> <s_m_source_file>
AV-unprocessed.smi

> <i_m_source_file_index>
586

> <i_lp_mmshare_version>
43012

> <i_f3d_flags>
0

> <s_epik_input>
W0NIM11bQ0gyXVtDSDJdbjFjKFtOSDJdKWMoYyg9TylbbkhdYzE9TylOKEMoPU8pQyhbQ0gzXSkoW0NIM10pW0NIM10pW0NIMl1bQ0gyXU9bQ0gzXQ==

> <s_epik_cmdline>
J2VwaWtfcHl0aG9uJywgJy1waCcsICc3LjAnLCAnLXRuJywgJzgnLCAnLW1hJywgJzIwMCcsICctbWV0YWxfYmluZGluZycsICctaW1hZScsICc8aW5maWxlLm1hZT4nLCAnLW9tYWUnLCAnPG91dGZpbGUubWFlPic=

> <r_lp_tautomer_probability>
1

> <r_epik_Ionization_Penalty>
2.71493e-05

> <r_epik_Ionization_Penalty_Charging>
5.25815e-06

> <r_epik_Ionization_Penalty_Neutral>
2.18912e-05

> <r_epik_State_Penalty>
-0

> <r_epik_Charging_Adjusted_Penalty>
5.25815e-06

> <i_epik_Tot_Q>
0

> <i_epik_Tot_abs_Q>
0

> <r_epik_Metal_State_Penalty>
-0

> <b_epik_Metal_Only>
0

> <s_epik_Chemistry_Notes>
This compound has an imine and may undergo hydrolysis.

> <s_lp_Force_Field>
OPLS_2005

> <r_lp_Energy>
40.2025

> <b_lp_Chiralities_Consistent>
1

> <s_lp_Variant>
AV-unprocessed.smi:586-1

> <Gold.Version>
5.8.1

> <Gold.Id.Protein>
6NUR|6NUR_protein|mol2

> <Gold.PLP.Fitness>
39.4969

> <Gold.PLP.PLP>
-32.8247

> <Gold.PLP.part.hbond>
-3.0000

> <Gold.PLP.part.metal>
0.0000

> <Gold.PLP.part.buried>
-4.3316

> <Gold.PLP.part.nonpolar>
-25.1816

> <Gold.PLP.part.repulsive>
0.1452

> <Gold.PLP.ligand.clash>
0.0000

> <Gold.PLP.ligand.torsion>
2.3393

> <Gold.PLP.Chemscore.Hbond>
2.8640

> <Gold.PLP.Chemscore.CHOScore>
0.0000

> <Gold.PLP.Chemscore.Metal>
0.0000

> <Gold.Chemscore.Hbonds>
donor molecule, donor type, donor heavy atom, donor atom, acceptor molecule, acceptor atom, score
      P1  H  6896  6909       L1    20  1.00
      P1  H  6934  6947       L1    11  1.00

> <Gold.PLP.Chemscore.Internal.Correction>
2.7588

> <Gold.Rescore>
     Score         DG    S(hbond)    S(metal)    S(lipo)     H(rot)  DE(clash)    DE(int)     intcor
     11.78     -15.78       2.40        0.00      65.17       2.08       0.20       3.79       ----

> <Gold.Chemscore.Fitness>
11.7802

> <Gold.Chemscore.DG>
-15.7783

> <Gold.Chemscore.ZeroCoef>
-5.4800

> <Gold.Chemscore.Hbond>
2.3981

> <Gold.Chemscore.Metal>
0.0000

> <Gold.Chemscore.Lipo>
65.1660

> <Gold.Chemscore.Internal_Hbond>
0.0000

> <Gold.Chemscore.DEClash>
0.2049

> <Gold.Chemscore.DEInternal>
3.7932

> <Gold.Chemscore.Rot>
2.0843

> <Gold.Chemscore.Internal.Correction>
   9.000000E+99

> <Gold.Chemscore.Hbonds>
donor molecule, donor type, donor heavy atom, donor atom, acceptor molecule, acceptor atom, score
      P1  H  6896  6909       L1    20  0.97
      P1  H  6934  6947       L1    11  0.68

> <Gold.Chemscore.Hbond.Weighted>
-8.0097

> <Gold.Chemscore.Metal.Weighted>
-0.0000

> <Gold.Chemscore.Lipo.Weighted>
-7.6244

> <Gold.Chemscore.Internal_Hbond.Weighted>
0.0000

> <Gold.Chemscore.DEClash.Weighted>
0.2049

> <Gold.Chemscore.DEInternal.Weighted>
3.7932

> <Gold.Chemscore.Rot.Weighted>
5.3359

> <Gold.Chemscore.Internal.Correction.Weighted>
   9.000000E+99

> <Gold.Protein.RotatedTorsions>
[ 6907 6896 6895 6894 ] final  122.27 input  -60.11 | X-H torsion
[ 7974 7965 7964 7962 ] final  -96.12 input  175.53 | X-H torsion
[ 8008 7997 7996 7995 ] final  101.74 input   59.86 | X-H torsion
[ 10167 10162 10161 10158 ] final   -6.86 input  -65.29 | X-H torsion
[ 10718 10713 10712 10709 ] final   53.54 input   66.30 | X-H torsion
[ 10763 10752 10751 10750 ] final  165.88 input  -60.55 | X-H torsion
[ 11005 11000 10999 10996 ] final  112.30 input  -57.11 | X-H torsion

> <Gold.Protein.ActiveResidues>
 VAL166  LYS551  ARG553  GLY616  TRP617  ASP618  TYR619  PRO620  LYS621  CYS622 
 ASP623  PHE694  ASN695  SER759  ASP760  ASP761  ALA762  ILE779  LEU786  VAL792 
 PHE793  MET794  SER795  GLU796  ALA797  LYS798  CYS799  TRP800  GLU811  SER814 

> <Gold.Protein.RotatedAtoms>
  152.4256  133.7190  159.6522 H   0  0  0  0  0  0  0  0  0  0  0  0  # atno 6907 bound_to 6896
  150.8133  133.8372  159.3178 H   0  0  0  0  0  0  0  0  0  0  0  0  # atno 6908 bound_to 6896
  151.6075  135.1045  160.0125 H   0  0  0  0  0  0  0  0  0  0  0  0  # atno 6909 bound_to 6896
  145.3510  140.9476  143.2554 H   0  0  0  0  0  0  0  0  0  0  0  0  # atno 7974 bound_to 7965
  156.1328  140.3192  155.8374 H   0  0  0  0  0  0  0  0  0  0  0  0  # atno 8008 bound_to 7997
  155.4301  140.0518  157.3036 H   0  0  0  0  0  0  0  0  0  0  0  0  # atno 8009 bound_to 7997
  154.4912  140.2093  155.9556 H   0  0  0  0  0  0  0  0  0  0  0  0  # atno 8010 bound_to 7997
  140.7010  143.6146  150.8671 H   0  0  0  0  0  0  0  0  0  0  0  0  # atno 10167 bound_to 10162
  157.5176  130.8543  149.8516 H   0  0  0  0  0  0  0  0  0  0  0  0  # atno 10718 bound_to 10713
  154.3307  135.2755  155.2473 H   0  0  0  0  0  0  0  0  0  0  0  0  # atno 10763 bound_to 10752
  154.4786  135.5864  153.6377 H   0  0  0  0  0  0  0  0  0  0  0  0  # atno 10764 bound_to 10752
  152.9867  135.6106  154.3499 H   0  0  0  0  0  0  0  0  0  0  0  0  # atno 10765 bound_to 10752
  139.8924  134.9527  156.6564 H   0  0  0  0  0  0  0  0  0  0  0  0  # atno 11005 bound_to 11000
  144.8718  139.5028  143.6764 LP  0  0  0  0  0  0  0  0  0  0  0  0  # atno 17320 bound_to 7965
  146.2968  139.7302  142.9121 LP  0  0  0  0  0  0  0  0  0  0  0  0  # atno 17321 bound_to 7965
  139.9868  143.5891  152.2924 LP  0  0  0  0  0  0  0  0  0  0  0  0  # atno 17342 bound_to 10162
  139.6531  144.7661  151.2108 LP  0  0  0  0  0  0  0  0  0  0  0  0  # atno 17343 bound_to 10162
  156.0331  130.3759  150.1633 LP  0  0  0  0  0  0  0  0  0  0  0  0  # atno 17370 bound_to 10713
  156.9821  130.9867  151.3435 LP  0  0  0  0  0  0  0  0  0  0  0  0  # atno 17371 bound_to 10713
  140.7481  133.8921  155.8326 LP  0  0  0  0  0  0  0  0  0  0  0  0  # atno 17394 bound_to 11000
  141.0023  134.1133  157.4305 LP  0  0  0  0  0  0  0  0  0  0  0  0  # atno 17395 bound_to 11000

$$$$
