AV-unprocessed.smi:212|AV-procd|sdf|1630|dock5
  -GOLD-   2262019583D 1   1.00000     0.00000
 Structure written by MMmdl.
 65 68  0  0  0  0  0  0  0  0  2 V2000
  144.0801  137.0356  154.2117 C   0  0  0  0  0  0  0  0  0  0  0  0
  145.5798  136.6950  154.1905 C   0  0  1  0  0  0  0  0  0  0  0  0
  145.8789  135.4344  153.3508 C   0  0  0  0  0  0  0  0  0  0  0  0
  145.7452  135.6997  151.8948 N   0  3  2  0  0  0  0  0  0  0  0  0
  145.9018  134.4809  151.0582 C   0  0  0  0  0  0  0  0  0  0  0  0
  144.5426  133.8683  150.6467 C   0  0  0  0  0  0  0  0  0  0  0  0
  144.7460  132.4446  150.1021 C   0  0  0  0  0  0  0  0  0  0  0  0
  143.5317  133.8546  151.8087 C   0  0  0  0  0  0  0  0  0  0  0  0
  143.9944  134.6304  149.5892 O   0  0  0  0  0  0  0  0  0  0  0  0
  146.5968  136.8323  151.4501 C   0  0  0  0  0  0  0  0  0  0  0  0
  146.3048  138.0977  152.2765 C   0  0  0  0  0  0  0  0  0  0  0  0
  146.3823  137.8238  153.7125 N   0  0  0  0  0  0  0  0  0  0  0  0
  147.5592  138.0371  154.3579 C   0  0  0  0  0  0  0  0  0  0  0  0
  148.2427  136.9881  154.8882 N   0  0  0  0  0  0  0  0  0  0  0  0
  149.3956  137.1886  155.5334 C   0  0  0  0  0  0  0  0  0  0  0  0
  150.0366  138.3365  155.7587 N   0  0  0  0  0  0  0  0  0  0  0  0
  149.3621  139.3920  155.2203 C   0  0  0  0  0  0  0  0  0  0  0  0
  148.1286  139.3329  154.5124 C   0  0  0  0  0  0  0  0  0  0  0  0
  147.7543  140.6098  154.1089 N   0  0  0  0  0  0  0  0  0  0  0  0
  148.7069  141.3797  154.5602 C   0  0  0  0  0  0  0  0  0  0  0  0
  149.7157  140.7289  155.2336 N   0  0  0  0  0  0  0  0  0  0  0  0
  150.8934  141.3280  155.8360 C   0  0  0  0  0  0  0  0  0  0  0  0
  150.8289  141.3466  157.3851 C   0  0  1  0  0  0  0  0  0  0  0  0
  151.8542  140.3684  158.0031 C   0  0  0  0  0  0  0  0  0  0  0  0
  151.7827  139.0972  157.3918 O   0  0  0  0  0  0  0  0  0  0  0  0
  150.9479  142.7727  157.9895 C   0  0  1  0  0  0  0  0  0  0  0  0
  151.2121  142.8546  159.4892 C   0  0  0  0  0  0  0  0  0  0  0  0
  151.9207  144.1955  159.6167 C   0  0  0  0  0  0  0  0  0  0  0  0
  152.7662  144.2092  158.4788 O   0  0  0  0  0  0  0  0  0  0  0  0
  152.0467  143.6617  157.3790 C   0  0  0  0  0  0  0  0  0  0  0  0
  143.4998  136.2115  154.6274 H   0  0  0  0  0  0  0  0  0  0  0  0
  143.6909  137.2400  153.2142 H   0  0  0  0  0  0  0  0  0  0  0  0
  143.8905  137.9137  154.8295 H   0  0  0  0  0  0  0  0  0  0  0  0
  145.8552  136.4565  155.2176 H   0  0  0  0  0  0  0  0  0  0  0  0
  146.8946  135.0899  153.5537 H   0  0  0  0  0  0  0  0  0  0  0  0
  145.2079  134.6264  153.6460 H   0  0  0  0  0  0  0  0  0  0  0  0
  146.5048  134.7045  150.1761 H   0  0  0  0  0  0  0  0  0  0  0  0
  146.4665  133.7259  151.6078 H   0  0  0  0  0  0  0  0  0  0  0  0
  145.1615  131.7861  150.8660 H   0  0  0  0  0  0  0  0  0  0  0  0
  145.4307  132.4356  149.2529 H   0  0  0  0  0  0  0  0  0  0  0  0
  143.8045  132.0053  149.7697 H   0  0  0  0  0  0  0  0  0  0  0  0
  143.9143  133.2833  152.6551 H   0  0  0  0  0  0  0  0  0  0  0  0
  142.5871  133.4000  151.5071 H   0  0  0  0  0  0  0  0  0  0  0  0
  143.3066  134.8603  152.1648 H   0  0  0  0  0  0  0  0  0  0  0  0
  143.0625  134.4740  149.5554 H   0  0  0  0  0  0  0  0  0  0  0  0
  147.6469  136.5529  151.5462 H   0  0  0  0  0  0  0  0  0  0  0  0
  146.4226  137.0400  150.3944 H   0  0  0  0  0  0  0  0  0  0  0  0
  146.9817  138.9051  151.9936 H   0  0  0  0  0  0  0  0  0  0  0  0
  145.3025  138.4606  152.0494 H   0  0  0  0  0  0  0  0  0  0  0  0
  149.8733  136.3025  155.9249 H   0  0  0  0  0  0  0  0  0  0  0  0
  148.7039  142.4492  154.4061 H   0  0  0  0  0  0  0  0  0  0  0  0
  151.7670  140.7741  155.4924 H   0  0  0  0  0  0  0  0  0  0  0  0
  150.9899  142.3342  155.4296 H   0  0  0  0  0  0  0  0  0  0  0  0
  149.8390  140.9821  157.6646 H   0  0  0  0  0  0  0  0  0  0  0  0
  152.8725  140.7320  157.8678 H   0  0  0  0  0  0  0  0  0  0  0  0
  151.6946  140.2636  159.0766 H   0  0  0  0  0  0  0  0  0  0  0  0
  151.0045  139.0638  156.8564 H   0  0  0  0  0  0  0  0  0  0  0  0
  150.0097  143.2983  157.8058 H   0  0  0  0  0  0  0  0  0  0  0  0
  150.3006  142.8002  160.0851 H   0  0  0  0  0  0  0  0  0  0  0  0
  151.8833  142.0668  159.8280 H   0  0  0  0  0  0  0  0  0  0  0  0
  151.2107  145.0223  159.5590 H   0  0  0  0  0  0  0  0  0  0  0  0
  152.4883  144.2882  160.5428 H   0  0  0  0  0  0  0  0  0  0  0  0
  152.7269  143.1268  156.7170 H   0  0  0  0  0  0  0  0  0  0  0  0
  151.6018  144.4713  156.7986 H   0  0  0  0  0  0  0  0  0  0  0  0
  144.7902  135.9994  151.7604 H   0  0  0  0  0  0  0  0  0  0  0  0
  1  2  1  0  0  0  0
  1 31  1  0  0  0  0
  1 32  1  0  0  0  0
  1 33  1  0  0  0  0
  2 12  1  0  0  0  0
  2  3  1  0  0  0  0
  2 34  1  0  0  0  0
  3  4  1  0  0  0  0
  3 35  1  0  0  0  0
  3 36  1  0  0  0  0
  4  5  1  0  0  0  0
  4 10  1  0  0  0  0
  4 65  1  0  0  0  0
  5  6  1  0  0  0  0
  5 37  1  0  0  0  0
  5 38  1  0  0  0  0
  6  7  1  0  0  0  0
  6  8  1  0  0  0  0
  6  9  1  0  0  0  0
  7 39  1  0  0  0  0
  7 40  1  0  0  0  0
  7 41  1  0  0  0  0
  8 42  1  0  0  0  0
  8 43  1  0  0  0  0
  8 44  1  0  0  0  0
  9 45  1  0  0  0  0
 10 11  1  0  0  0  0
 10 46  1  0  0  0  0
 10 47  1  0  0  0  0
 11 12  1  0  0  0  0
 11 48  1  0  0  0  0
 11 49  1  0  0  0  0
 12 13  1  0  0  0  0
 13 18  1  0  0  0  0
 13 14  2  0  0  0  0
 14 15  1  0  0  0  0
 15 16  2  0  0  0  0
 15 50  1  0  0  0  0
 16 17  1  0  0  0  0
 17 21  1  0  0  0  0
 17 18  2  0  0  0  0
 18 19  1  0  0  0  0
 19 20  2  0  0  0  0
 20 21  1  0  0  0  0
 20 51  1  0  0  0  0
 21 22  1  0  0  0  0
 22 23  1  0  0  0  0
 22 52  1  0  0  0  0
 22 53  1  0  0  0  0
 23 24  1  0  0  0  0
 23 26  1  0  0  0  0
 23 54  1  0  0  0  0
 24 25  1  0  0  0  0
 24 55  1  0  0  0  0
 24 56  1  0  0  0  0
 25 57  1  0  0  0  0
 26 30  1  0  0  0  0
 26 27  1  0  0  0  0
 26 58  1  0  0  0  0
 27 28  1  0  0  0  0
 27 59  1  0  0  0  0
 27 60  1  0  0  0  0
 28 29  1  0  0  0  0
 28 61  1  0  0  0  0
 28 62  1  0  0  0  0
 29 30  1  0  0  0  0
 30 63  1  0  0  0  0
 30 64  1  0  0  0  0
M  CHG  1   4   1
M  END
> <s_m_source_file>
AV-unprocessed.smi

> <i_m_source_file_index>
212

> <i_lp_mmshare_version>
43012

> <i_f3d_flags>
0

> <s_epik_input>
W0NIM11bQ0BASF0xW0NIMl1OKFtDSDJdQyhbQ0gzXSkoW0NIM10pW09IXSlbQ0gyXVtDSDJdTjFjKG5bY0hdbjIpYyhjMjMpbltjSF1uM1tDSDJdW0NASF0oW0NIMl1bT0hdKVtDQEBIXTRbQ0gyXVtDSDJdT1tDSDJdNA==

> <s_epik_cmdline>
J2VwaWtfcHl0aG9uJywgJy1waCcsICc3LjAnLCAnLXRuJywgJzgnLCAnLW1hJywgJzIwMCcsICctbWV0YWxfYmluZGluZycsICctaW1hZScsICc8aW5maWxlLm1hZT4nLCAnLW9tYWUnLCAnPG91dGZpbGUubWFlPic=

> <r_lp_tautomer_probability>
1

> <r_epik_Ionization_Penalty>
0.00182193

> <r_epik_Ionization_Penalty_Charging>
0.00173996

> <r_epik_Ionization_Penalty_Neutral>
8.19718e-05

> <r_epik_State_Penalty>
-0

> <r_epik_Charging_Adjusted_Penalty>
0.00173996

> <i_epik_Tot_Q>
1

> <i_epik_Tot_abs_Q>
1

> <r_epik_Metal_State_Penalty>
-0

> <b_epik_Metal_Only>
0

> <s_lp_Force_Field>
OPLS_2005

> <r_lp_Energy>
60.3061

> <b_lp_Chiralities_Consistent>
1

> <s_lp_Variant>
AV-unprocessed.smi:212-14

> <Gold.Version>
5.8.1

> <Gold.Id.Protein>
6NUR|6NUR_protein|mol2

> <Gold.PLP.Fitness>
45.5041

> <Gold.PLP.PLP>
-44.2194

> <Gold.PLP.part.hbond>
-2.4213

> <Gold.PLP.part.metal>
0.0000

> <Gold.PLP.part.buried>
-3.5133

> <Gold.PLP.part.nonpolar>
-39.5076

> <Gold.PLP.part.repulsive>
0.6429

> <Gold.PLP.ligand.clash>
0.0000

> <Gold.PLP.ligand.torsion>
2.8308

> <Gold.PLP.Chemscore.Hbond>
1.0000

> <Gold.PLP.Chemscore.CHOScore>
1.0000

> <Gold.PLP.Chemscore.Metal>
0.0000

> <Gold.Chemscore.Hbonds>
donor molecule, donor type, donor heavy atom, donor atom, acceptor molecule, acceptor atom, score
      L1  H     9    45       P1 10186  0.96
      L1  C    20    51       P1  8028  0.88

> <Gold.PLP.Chemscore.Internal.Correction>
0.9464

> <Gold.Rescore>
     Score         DG    S(hbond)    S(metal)    S(lipo)     H(rot)  DE(clash)    DE(int)     intcor
      9.36     -13.62       0.97        0.00     116.29       3.40       1.62       2.64       ----

> <Gold.Chemscore.Fitness>
9.3642

> <Gold.Chemscore.DG>
-13.6227

> <Gold.Chemscore.ZeroCoef>
-5.4800

> <Gold.Chemscore.Hbond>
0.9692

> <Gold.Chemscore.Metal>
0.0000

> <Gold.Chemscore.Lipo>
116.2916

> <Gold.Chemscore.Internal_Hbond>
0.0000

> <Gold.Chemscore.DEClash>
1.6156

> <Gold.Chemscore.DEInternal>
2.6429

> <Gold.Chemscore.Rot>
3.3986

> <Gold.Chemscore.Internal.Correction>
   9.000000E+99

> <Gold.Chemscore.Hbonds>
donor molecule, donor type, donor heavy atom, donor atom, acceptor molecule, acceptor atom, score
      L1  H     9    45       P1 10186  0.90

> <Gold.Chemscore.Hbond.Weighted>
-3.2370

> <Gold.Chemscore.Metal.Weighted>
-0.0000

> <Gold.Chemscore.Lipo.Weighted>
-13.6061

> <Gold.Chemscore.Internal_Hbond.Weighted>
0.0000

> <Gold.Chemscore.DEClash.Weighted>
1.6156

> <Gold.Chemscore.DEInternal.Weighted>
2.6429

> <Gold.Chemscore.Rot.Weighted>
8.7005

> <Gold.Chemscore.Internal.Correction.Weighted>
   9.000000E+99

> <Gold.Protein.RotatedTorsions>
[ 6907 6896 6895 6894 ] final -136.06 input  -60.11 | X-H torsion
[ 7974 7965 7964 7962 ] final  110.80 input  175.53 | X-H torsion
[ 8008 7997 7996 7995 ] final  110.35 input   59.86 | X-H torsion
[ 10167 10162 10161 10158 ] final  -17.89 input  -65.29 | X-H torsion
[ 10718 10713 10712 10709 ] final  -92.00 input   66.30 | X-H torsion
[ 10763 10752 10751 10750 ] final  -48.89 input  -60.55 | X-H torsion
[ 11005 11000 10999 10996 ] final   53.90 input  -57.11 | X-H torsion

> <Gold.Protein.ActiveResidues>
 VAL166  LYS551  ARG553  GLY616  TRP617  ASP618  TYR619  PRO620  LYS621  CYS622 
 ASP623  PHE694  ASN695  SER759  ASP760  ASP761  ALA762  ILE779  LEU786  VAL792 
 PHE793  MET794  SER795  GLU796  ALA797  LYS798  CYS799  TRP800  GLU811  SER814 

> <Gold.Protein.RotatedAtoms>
  151.0055  133.6015  159.2689 H   0  0  0  0  0  0  0  0  0  0  0  0  # atno 6907 bound_to 6896
  151.3186  135.0812  159.9307 H   0  0  0  0  0  0  0  0  0  0  0  0  # atno 6908 bound_to 6896
  152.5285  133.9706  159.7814 H   0  0  0  0  0  0  0  0  0  0  0  0  # atno 6909 bound_to 6896
  145.2503  139.2742  143.4071 H   0  0  0  0  0  0  0  0  0  0  0  0  # atno 7974 bound_to 7965
  156.2047  140.3040  155.9600 H   0  0  0  0  0  0  0  0  0  0  0  0  # atno 8008 bound_to 7997
  155.2871  140.0440  157.3037 H   0  0  0  0  0  0  0  0  0  0  0  0  # atno 8009 bound_to 7997
  154.5617  140.2322  155.8335 H   0  0  0  0  0  0  0  0  0  0  0  0  # atno 8010 bound_to 7997
  140.7252  143.4971  150.9917 H   0  0  0  0  0  0  0  0  0  0  0  0  # atno 10167 bound_to 10162
  155.9998  130.4970  150.5560 H   0  0  0  0  0  0  0  0  0  0  0  0  # atno 10718 bound_to 10713
  154.0851  135.6585  153.4844 H   0  0  0  0  0  0  0  0  0  0  0  0  # atno 10763 bound_to 10752
  153.0342  135.5189  154.7436 H   0  0  0  0  0  0  0  0  0  0  0  0  # atno 10764 bound_to 10752
  154.6542  135.3005  154.9916 H   0  0  0  0  0  0  0  0  0  0  0  0  # atno 10765 bound_to 10752
  140.0730  134.5444  155.9027 H   0  0  0  0  0  0  0  0  0  0  0  0  # atno 11005 bound_to 11000
  146.3304  140.2892  142.8614 LP  0  0  0  0  0  0  0  0  0  0  0  0  # atno 17320 bound_to 7965
  144.9508  140.8177  143.5573 LP  0  0  0  0  0  0  0  0  0  0  0  0  # atno 17321 bound_to 7965
  139.8678  143.7231  152.3169 LP  0  0  0  0  0  0  0  0  0  0  0  0  # atno 17342 bound_to 10162
  139.7469  144.7544  151.0565 LP  0  0  0  0  0  0  0  0  0  0  0  0  # atno 17343 bound_to 10162
  157.3476  131.0728  151.1738 LP  0  0  0  0  0  0  0  0  0  0  0  0  # atno 17370 bound_to 10713
  157.2566  130.6639  149.5955 LP  0  0  0  0  0  0  0  0  0  0  0  0  # atno 17371 bound_to 10713
  141.2019  133.6621  156.5975 LP  0  0  0  0  0  0  0  0  0  0  0  0  # atno 17394 bound_to 11000
  140.3600  134.7696  157.4527 LP  0  0  0  0  0  0  0  0  0  0  0  0  # atno 17395 bound_to 11000

$$$$
