AV-unprocessed.smi:2034|AV-procd|sdf|8267|dock1
  -GOLD-   2272010543D 1   1.00000     0.00000
 Structure written by MMmdl.
 50 52  0  0  0  0  0  0  0  0  1 V2000
  152.2305  144.4026  157.5991 C   0  0  0  0  0  0  0  0  0  0  0  0
  151.3235  143.6480  158.5873 C   0  0  1  0  0  0  0  0  0  0  0  0
  150.6023  142.4409  157.9566 C   0  0  0  0  0  0  0  0  0  0  0  0
  151.5121  141.3094  157.7870 N   0  0  0  0  0  0  0  0  0  0  0  0
  151.0725  140.2725  156.9337 C   0  0  0  0  0  0  0  0  0  0  0  0
  150.7564  140.4988  155.5704 C   0  0  0  0  0  0  0  0  0  0  0  0
  150.3150  139.4227  154.7768 C   0  0  0  0  0  0  0  0  0  0  0  0
  150.2038  138.1400  155.3602 C   0  0  0  0  0  0  0  0  0  0  0  0
  149.7472  136.9852  154.6696 N   0  0  0  0  0  0  0  0  0  0  0  0
  149.5358  135.7514  155.1587 C   0  0  0  0  0  0  0  0  0  0  0  0
  149.6452  135.4279  156.3414 O   0  0  0  0  0  0  0  0  0  0  0  0
  149.1637  134.9037  154.1893 N   0  0  0  0  0  0  0  0  0  0  0  0
  148.8736  133.4870  154.3799 C   0  0  0  0  0  0  0  0  0  0  0  0
  148.3917  132.8288  153.0762 C   0  0  2  0  0  0  0  0  0  0  0  0
  147.1702  133.5123  152.4618 C   0  0  0  0  0  0  0  0  0  0  0  0
  146.5510  132.3835  151.6699 C   0  0  0  0  0  0  0  0  0  0  0  0
  146.7735  131.1999  152.6047 C   0  0  0  0  0  0  0  0  0  0  0  0
  147.9860  131.4789  153.2989 O   0  0  0  0  0  0  0  0  0  0  0  0
  150.5255  138.0151  156.7254 C   0  0  0  0  0  0  0  0  0  0  0  0
  150.9511  139.0428  157.4889 N   0  0  0  0  0  0  0  0  0  0  0  0
  152.2467  140.9586  158.9977 C   0  0  0  0  0  0  0  0  0  0  0  0
  152.9631  142.1932  159.5730 C   0  0  2  0  0  0  0  0  0  0  0  0
  153.6245  141.8912  160.9216 C   0  0  0  0  0  0  0  0  0  0  0  0
  152.0223  143.2475  159.7677 O   0  0  0  0  0  0  0  0  0  0  0  0
  151.6450  144.8151  156.7773 H   0  0  0  0  0  0  0  0  0  0  0  0
  152.9909  143.7580  157.1596 H   0  0  0  0  0  0  0  0  0  0  0  0
  152.7365  145.2328  158.0918 H   0  0  0  0  0  0  0  0  0  0  0  0
  150.5603  144.3550  158.9134 H   0  0  0  0  0  0  0  0  0  0  0  0
  149.7854  142.1232  158.6055 H   0  0  0  0  0  0  0  0  0  0  0  0
  150.1506  142.7481  157.0136 H   0  0  0  0  0  0  0  0  0  0  0  0
  150.8470  141.4720  155.1127 H   0  0  0  0  0  0  0  0  0  0  0  0
  150.0586  139.6067  153.7450 H   0  0  0  0  0  0  0  0  0  0  0  0
  149.5189  137.1242  153.6962 H   0  0  0  0  0  0  0  0  0  0  0  0
  149.0934  135.2590  153.2470 H   0  0  0  0  0  0  0  0  0  0  0  0
  149.7424  132.9614  154.7803 H   0  0  0  0  0  0  0  0  0  0  0  0
  148.0922  133.4111  155.1365 H   0  0  0  0  0  0  0  0  0  0  0  0
  149.1968  132.8172  152.3395 H   0  0  0  0  0  0  0  0  0  0  0  0
  146.4797  133.8414  153.2400 H   0  0  0  0  0  0  0  0  0  0  0  0
  147.4299  134.3750  151.8477 H   0  0  0  0  0  0  0  0  0  0  0  0
  145.5000  132.5484  151.4315 H   0  0  0  0  0  0  0  0  0  0  0  0
  147.0964  132.2354  150.7368 H   0  0  0  0  0  0  0  0  0  0  0  0
  145.9657  131.1344  153.3346 H   0  0  0  0  0  0  0  0  0  0  0  0
  146.8273  130.2504  152.0718 H   0  0  0  0  0  0  0  0  0  0  0  0
  150.4441  137.0598  157.2234 H   0  0  0  0  0  0  0  0  0  0  0  0
  151.5518  140.5463  159.7306 H   0  0  0  0  0  0  0  0  0  0  0  0
  152.9912  140.1922  158.7801 H   0  0  0  0  0  0  0  0  0  0  0  0
  153.7419  142.5182  158.8830 H   0  0  0  0  0  0  0  0  0  0  0  0
  154.3645  141.0964  160.8261 H   0  0  0  0  0  0  0  0  0  0  0  0
  152.8876  141.5761  161.6610 H   0  0  0  0  0  0  0  0  0  0  0  0
  154.1328  142.7727  161.3127 H   0  0  0  0  0  0  0  0  0  0  0  0
  1  2  1  0  0  0  0
  1 25  1  0  0  0  0
  1 26  1  0  0  0  0
  1 27  1  0  0  0  0
  2 24  1  0  0  0  0
  2  3  1  0  0  0  0
  2 28  1  0  0  0  0
  3  4  1  0  0  0  0
  3 29  1  0  0  0  0
  3 30  1  0  0  0  0
  4  5  1  0  0  0  0
  4 21  1  0  0  0  0
  5 20  1  0  0  0  0
  5  6  2  0  0  0  0
  6  7  1  0  0  0  0
  6 31  1  0  0  0  0
  7  8  2  0  0  0  0
  7 32  1  0  0  0  0
  8  9  1  0  0  0  0
  8 19  1  0  0  0  0
  9 10  1  0  0  0  0
  9 33  1  0  0  0  0
 10 11  2  0  0  0  0
 10 12  1  0  0  0  0
 12 13  1  0  0  0  0
 12 34  1  0  0  0  0
 13 14  1  0  0  0  0
 13 35  1  0  0  0  0
 13 36  1  0  0  0  0
 14 18  1  0  0  0  0
 14 15  1  0  0  0  0
 14 37  1  0  0  0  0
 15 16  1  0  0  0  0
 15 38  1  0  0  0  0
 15 39  1  0  0  0  0
 16 17  1  0  0  0  0
 16 40  1  0  0  0  0
 16 41  1  0  0  0  0
 17 18  1  0  0  0  0
 17 42  1  0  0  0  0
 17 43  1  0  0  0  0
 19 20  2  0  0  0  0
 19 44  1  0  0  0  0
 21 22  1  0  0  0  0
 21 45  1  0  0  0  0
 21 46  1  0  0  0  0
 22 23  1  0  0  0  0
 22 24  1  0  0  0  0
 22 47  1  0  0  0  0
 23 48  1  0  0  0  0
 23 49  1  0  0  0  0
 23 50  1  0  0  0  0
M  END
> <s_m_source_file>
AV-unprocessed.smi

> <i_m_source_file_index>
2034

> <i_lp_mmshare_version>
43012

> <i_f3d_flags>
0

> <s_epik_input>
W0NIM11bQ0BASF0xW0NIMl1OKFtDSDJdW0NASF0oTzEpW0NIM10pYzJbY0hdW2NIXWMoW2NIXW4yKVtOSF1DKD1PKVtOSF1bQ0gyXVtDQEBIXTNbQ0gyXVtDSDJdW0NIMl1PMw==

> <s_epik_cmdline>
J2VwaWtfcHl0aG9uJywgJy1waCcsICc3LjAnLCAnLXRuJywgJzgnLCAnLW1hJywgJzIwMCcsICctbWV0YWxfYmluZGluZycsICctaW1hZScsICc8aW5maWxlLm1hZT4nLCAnLW9tYWUnLCAnPG91dGZpbGUubWFlPic=

> <r_lp_tautomer_probability>
1

> <r_epik_Ionization_Penalty>
0.00268225

> <r_epik_Ionization_Penalty_Charging>
0

> <r_epik_Ionization_Penalty_Neutral>
0.00268225

> <r_epik_State_Penalty>
0.00184408

> <r_epik_Charging_Adjusted_Penalty>
0.00184408

> <i_epik_Tot_Q>
0

> <i_epik_Tot_abs_Q>
0

> <r_epik_Metal_State_Penalty>
-0

> <b_epik_Metal_Only>
0

> <s_lp_Force_Field>
OPLS_2005

> <r_lp_Energy>
36.2022

> <b_lp_Chiralities_Consistent>
1

> <s_lp_Variant>
AV-unprocessed.smi:2034-5

> <Gold.Version>
5.8.1

> <Gold.Id.Protein>
6NUR|6NUR_protein|mol2

> <Gold.PLP.Fitness>
48.1410

> <Gold.PLP.PLP>
-42.9033

> <Gold.PLP.part.hbond>
-2.0000

> <Gold.PLP.part.metal>
0.0000

> <Gold.PLP.part.buried>
-4.8460

> <Gold.PLP.part.nonpolar>
-35.8269

> <Gold.PLP.part.repulsive>
0.1574

> <Gold.PLP.ligand.clash>
0.0000

> <Gold.PLP.ligand.torsion>
0.3264

> <Gold.PLP.Chemscore.Hbond>
1.8130

> <Gold.PLP.Chemscore.CHOScore>
0.0000

> <Gold.PLP.Chemscore.Metal>
0.0000

> <Gold.Chemscore.Hbonds>
donor molecule, donor type, donor heavy atom, donor atom, acceptor molecule, acceptor atom, score
      L1  H     9    33       P1  7948  0.81
      L1  H    12    34       P1  7948  1.00

> <Gold.PLP.Chemscore.Internal.Correction>
0.4515

> <Gold.Rescore>
     Score         DG    S(hbond)    S(metal)    S(lipo)     H(rot)  DE(clash)    DE(int)     intcor
     17.89     -20.05       1.44        0.00     113.24       1.37       0.42       1.73       ----

> <Gold.Chemscore.Fitness>
17.8926

> <Gold.Chemscore.DG>
-20.0465

> <Gold.Chemscore.ZeroCoef>
-5.4800

> <Gold.Chemscore.Hbond>
1.4418

> <Gold.Chemscore.Metal>
0.0000

> <Gold.Chemscore.Lipo>
113.2359

> <Gold.Chemscore.Internal_Hbond>
0.0000

> <Gold.Chemscore.DEClash>
0.4213

> <Gold.Chemscore.DEInternal>
1.7325

> <Gold.Chemscore.Rot>
1.3663

> <Gold.Chemscore.Internal.Correction>
   9.000000E+99

> <Gold.Chemscore.Hbonds>
donor molecule, donor type, donor heavy atom, donor atom, acceptor molecule, acceptor atom, score
      L1  H     9    33       P1  7948  0.69
      L1  H    12    34       P1  7948  0.30

> <Gold.Chemscore.Hbond.Weighted>
-4.8156

> <Gold.Chemscore.Metal.Weighted>
-0.0000

> <Gold.Chemscore.Lipo.Weighted>
-13.2486

> <Gold.Chemscore.Internal_Hbond.Weighted>
0.0000

> <Gold.Chemscore.DEClash.Weighted>
0.4213

> <Gold.Chemscore.DEInternal.Weighted>
1.7325

> <Gold.Chemscore.Rot.Weighted>
3.4977

> <Gold.Chemscore.Internal.Correction.Weighted>
   9.000000E+99

> <Gold.Protein.RotatedTorsions>
[ 6907 6896 6895 6894 ] final  -58.13 input  -60.11 | X-H torsion
[ 7974 7965 7964 7962 ] final  100.19 input  175.53 | X-H torsion
[ 8008 7997 7996 7995 ] final   96.23 input   59.86 | X-H torsion
[ 10167 10162 10161 10158 ] final  -98.13 input  -65.29 | X-H torsion
[ 10718 10713 10712 10709 ] final  -41.24 input   66.30 | X-H torsion
[ 10763 10752 10751 10750 ] final  131.61 input  -60.55 | X-H torsion
[ 11005 11000 10999 10996 ] final  163.94 input  -57.11 | X-H torsion

> <Gold.Protein.ActiveResidues>
 VAL166  LYS551  ARG553  GLY616  TRP617  ASP618  TYR619  PRO620  LYS621  CYS622 
 ASP623  PHE694  ASN695  SER759  ASP760  ASP761  ALA762  ILE779  LEU786  VAL792 
 PHE793  MET794  SER795  GLU796  ALA797  LYS798  CYS799  TRP800  GLU811  SER814 

> <Gold.Protein.RotatedAtoms>
  150.8031  134.7138  159.6618 H   0  0  0  0  0  0  0  0  0  0  0  0  # atno 6907 bound_to 6896
  152.4149  134.6056  160.0021 H   0  0  0  0  0  0  0  0  0  0  0  0  # atno 6908 bound_to 6896
  151.6288  133.3296  159.3140 H   0  0  0  0  0  0  0  0  0  0  0  0  # atno 6909 bound_to 6896
  145.3888  139.2366  143.3363 H   0  0  0  0  0  0  0  0  0  0  0  0  # atno 7974 bound_to 7965
  156.0774  140.3275  155.7651 H   0  0  0  0  0  0  0  0  0  0  0  0  # atno 8008 bound_to 7997
  155.5208  140.0585  157.2924 H   0  0  0  0  0  0  0  0  0  0  0  0  # atno 8009 bound_to 7997
  154.4563  140.1944  156.0388 H   0  0  0  0  0  0  0  0  0  0  0  0  # atno 8010 bound_to 7997
  140.2762  143.3312  152.0486 H   0  0  0  0  0  0  0  0  0  0  0  0  # atno 10167 bound_to 10162
  156.2725  130.4208  149.8423 H   0  0  0  0  0  0  0  0  0  0  0  0  # atno 10718 bound_to 10713
  153.7772  135.3173  155.3360 H   0  0  0  0  0  0  0  0  0  0  0  0  # atno 10763 bound_to 10752
  154.8175  135.4626  154.0686 H   0  0  0  0  0  0  0  0  0  0  0  0  # atno 10764 bound_to 10752
  153.1964  135.6916  153.8372 H   0  0  0  0  0  0  0  0  0  0  0  0  # atno 10765 bound_to 10752
  140.2409  134.8051  157.3410 H   0  0  0  0  0  0  0  0  0  0  0  0  # atno 11005 bound_to 11000
  146.2807  140.4567  142.8777 LP  0  0  0  0  0  0  0  0  0  0  0  0  # atno 17320 bound_to 7965
  144.8455  140.6922  143.6202 LP  0  0  0  0  0  0  0  0  0  0  0  0  # atno 17321 bound_to 7965
  139.4975  144.6623  151.6436 LP  0  0  0  0  0  0  0  0  0  0  0  0  # atno 17342 bound_to 10162
  140.5849  143.9881  150.6290 LP  0  0  0  0  0  0  0  0  0  0  0  0  # atno 17343 bound_to 10162
  156.5899  130.8502  151.3405 LP  0  0  0  0  0  0  0  0  0  0  0  0  # atno 17370 bound_to 10713
  157.7288  130.9662  150.1760 LP  0  0  0  0  0  0  0  0  0  0  0  0  # atno 17371 bound_to 10713
  140.1654  134.4675  155.7866 LP  0  0  0  0  0  0  0  0  0  0  0  0  # atno 17394 bound_to 11000
  141.2210  133.6919  156.7616 LP  0  0  0  0  0  0  0  0  0  0  0  0  # atno 17395 bound_to 11000

$$$$
