AV-unprocessed.smi:489|AV-procd|sdf|2702|dock3
  -GOLD-   2262023133D 1   1.00000     0.00000
 Structure written by MMmdl.
 42 43  0  0  0  0  0  0  0  0  1 V2000
  152.1507  138.6462  155.3057 C   0  0  0  0  0  0  0  0  0  0  0  0
  151.3841  137.6713  156.1583 C   0  0  0  0  0  0  0  0  0  0  0  0
  151.5571  136.4161  155.9033 N   0  0  0  0  0  0  0  0  0  0  0  0
  150.9041  135.4376  156.6277 N   0  0  0  0  0  0  0  0  0  0  0  0
  151.2318  134.0656  156.2132 C   0  0  0  0  0  0  0  0  0  0  0  0
  150.0008  133.2893  155.7228 C   0  0  0  0  0  0  0  0  0  0  0  0
  149.6813  132.2420  156.2911 O   0  0  0  0  0  0  0  0  0  0  0  0
  149.3557  133.8453  154.6715 N   0  0  0  0  0  0  0  0  0  0  0  0
  148.2334  133.4678  154.0150 C   0  0  0  0  0  0  0  0  0  0  0  0
  147.8149  132.3146  154.1038 O   0  0  0  0  0  0  0  0  0  0  0  0
  147.6173  134.4007  153.2645 N   0  0  0  0  0  0  0  0  0  0  0  0
  146.2264  134.3489  152.8236 C   0  0  0  0  0  0  0  0  0  0  0  0
  146.1108  134.2301  151.2887 C   0  0  0  0  0  0  0  0  0  0  0  0
  145.1163  135.3068  150.8522 C   0  0  0  0  0  0  0  0  0  0  0  0
  145.2702  136.4064  151.8978 C   0  0  0  0  0  0  0  0  0  0  0  0
  145.4927  135.6473  153.2065 C   0  0  0  0  0  0  0  0  0  0  0  0
  150.0195  135.6801  157.6379 C   0  0  0  0  0  0  0  0  0  0  0  0
  149.4415  134.7757  158.2429 O   0  0  0  0  0  0  0  0  0  0  0  0
  149.8342  137.1039  157.9267 C   0  0  0  0  0  0  0  0  0  0  0  0
  148.9317  137.4010  158.9919 C   0  0  0  0  0  0  0  0  0  0  0  0
  148.2136  137.6331  159.8697 N   0  0  0  0  0  0  0  0  0  0  0  0
  150.4787  138.0733  157.2301 C   0  0  0  0  0  0  0  0  0  0  0  0
  150.3201  139.5651  157.4900 C   0  0  0  0  0  0  0  0  0  0  0  0
  151.4703  139.2654  154.7208 H   0  0  0  0  0  0  0  0  0  0  0  0
  152.8176  138.1391  154.6069 H   0  0  0  0  0  0  0  0  0  0  0  0
  152.7620  139.3046  155.9229 H   0  0  0  0  0  0  0  0  0  0  0  0
  151.9995  134.0885  155.4370 H   0  0  0  0  0  0  0  0  0  0  0  0
  151.6712  133.5095  157.0431 H   0  0  0  0  0  0  0  0  0  0  0  0
  149.7807  134.6893  154.3159 H   0  0  0  0  0  0  0  0  0  0  0  0
  148.1569  135.2046  152.9760 H   0  0  0  0  0  0  0  0  0  0  0  0
  145.7297  133.5061  153.3078 H   0  0  0  0  0  0  0  0  0  0  0  0
  147.0735  134.4251  150.8134 H   0  0  0  0  0  0  0  0  0  0  0  0
  145.7955  133.2339  150.9771 H   0  0  0  0  0  0  0  0  0  0  0  0
  145.3001  135.6609  149.8375 H   0  0  0  0  0  0  0  0  0  0  0  0
  144.1021  134.9067  150.8876 H   0  0  0  0  0  0  0  0  0  0  0  0
  146.1488  137.0113  151.6688 H   0  0  0  0  0  0  0  0  0  0  0  0
  144.4076  137.0718  151.9392 H   0  0  0  0  0  0  0  0  0  0  0  0
  144.5246  135.3963  153.6426 H   0  0  0  0  0  0  0  0  0  0  0  0
  146.0284  136.2482  153.9428 H   0  0  0  0  0  0  0  0  0  0  0  0
  149.5751  139.7739  158.2569 H   0  0  0  0  0  0  0  0  0  0  0  0
  150.0062  140.0832  156.5833 H   0  0  0  0  0  0  0  0  0  0  0  0
  151.2650  139.9953  157.8229 H   0  0  0  0  0  0  0  0  0  0  0  0
  1  2  1  0  0  0  0
  1 24  1  0  0  0  0
  1 25  1  0  0  0  0
  1 26  1  0  0  0  0
  2 22  1  0  0  0  0
  2  3  2  0  0  0  0
  3  4  1  0  0  0  0
  4  5  1  0  0  0  0
  4 17  1  0  0  0  0
  5  6  1  0  0  0  0
  5 27  1  0  0  0  0
  5 28  1  0  0  0  0
  6  7  2  0  0  0  0
  6  8  1  0  0  0  0
  8  9  1  0  0  0  0
  8 29  1  0  0  0  0
  9 10  2  0  0  0  0
  9 11  1  0  0  0  0
 11 12  1  0  0  0  0
 11 30  1  0  0  0  0
 12 16  1  0  0  0  0
 12 13  1  0  0  0  0
 12 31  1  0  0  0  0
 13 14  1  0  0  0  0
 13 32  1  0  0  0  0
 13 33  1  0  0  0  0
 14 15  1  0  0  0  0
 14 34  1  0  0  0  0
 14 35  1  0  0  0  0
 15 16  1  0  0  0  0
 15 36  1  0  0  0  0
 15 37  1  0  0  0  0
 16 38  1  0  0  0  0
 16 39  1  0  0  0  0
 17 18  2  0  0  0  0
 17 19  1  0  0  0  0
 19 20  1  0  0  0  0
 19 22  2  0  0  0  0
 20 21  3  0  0  0  0
 22 23  1  0  0  0  0
 23 40  1  0  0  0  0
 23 41  1  0  0  0  0
 23 42  1  0  0  0  0
M  END
> <s_m_source_file>
AV-unprocessed.smi

> <i_m_source_file_index>
489

> <i_lp_mmshare_version>
43012

> <i_f3d_flags>
0

> <s_epik_input>
TiNDYyhjMVtDSDNdKWMoPU8pbihuYzFbQ0gzXSlbQ0gyXUMoPU8pW05IXUMoPU8pW05IXVtDSF0yW0NIMl1bQ0gyXVtDSDJdW0NIMl0y

> <s_epik_cmdline>
J2VwaWtfcHl0aG9uJywgJy1waCcsICc3LjAnLCAnLXRuJywgJzgnLCAnLW1hJywgJzIwMCcsICctbWV0YWxfYmluZGluZycsICctaW1hZScsICc8aW5maWxlLm1hZT4nLCAnLW9tYWUnLCAnPG91dGZpbGUubWFlPic=

> <r_lp_tautomer_probability>
1

> <r_epik_Ionization_Penalty>
3.28905e-05

> <r_epik_Ionization_Penalty_Charging>
1.69167e-11

> <r_epik_Ionization_Penalty_Neutral>
3.28905e-05

> <r_epik_State_Penalty>
-0

> <r_epik_Charging_Adjusted_Penalty>
1.69167e-11

> <i_epik_Tot_Q>
0

> <i_epik_Tot_abs_Q>
0

> <r_epik_Metal_State_Penalty>
-0

> <b_epik_Metal_Only>
0

> <s_lp_Force_Field>
OPLS_2005

> <r_lp_Energy>
37.6869

> <b_lp_Chiralities_Consistent>
1

> <s_lp_Variant>
AV-unprocessed.smi:489-1

> <Gold.Version>
5.8.1

> <Gold.Id.Protein>
6NUR|6NUR_protein|mol2

> <Gold.PLP.Fitness>
38.6812

> <Gold.PLP.PLP>
-28.5772

> <Gold.PLP.part.hbond>
-5.0000

> <Gold.PLP.part.metal>
0.0000

> <Gold.PLP.part.buried>
-4.4211

> <Gold.PLP.part.nonpolar>
-19.5274

> <Gold.PLP.part.repulsive>
0.1223

> <Gold.PLP.ligand.clash>
0.0000

> <Gold.PLP.ligand.torsion>
0.2072

> <Gold.PLP.Chemscore.Hbond>
3.5015

> <Gold.PLP.Chemscore.CHOScore>
0.0000

> <Gold.PLP.Chemscore.Metal>
0.0000

> <Gold.Chemscore.Hbonds>
donor molecule, donor type, donor heavy atom, donor atom, acceptor molecule, acceptor atom, score
      L1  H    11    30       P1  7948  1.00
      P1  H  6896  6909       L1    18  1.00
      P1  H  6931  6943       L1    21  0.16
      P1  H  6934  6947       L1    21  0.50
      P1  H 10752 10764       L1     3  1.00

> <Gold.PLP.Chemscore.Internal.Correction>
0.0139

> <Gold.Rescore>
     Score         DG    S(hbond)    S(metal)    S(lipo)     H(rot)  DE(clash)    DE(int)     intcor
     15.09     -17.43       3.07        0.00      49.72       1.61       0.09       2.26       ----

> <Gold.Chemscore.Fitness>
15.0878

> <Gold.Chemscore.DG>
-17.4330

> <Gold.Chemscore.ZeroCoef>
-5.4800

> <Gold.Chemscore.Hbond>
3.0727

> <Gold.Chemscore.Metal>
0.0000

> <Gold.Chemscore.Lipo>
49.7223

> <Gold.Chemscore.Internal_Hbond>
0.0000

> <Gold.Chemscore.DEClash>
0.0853

> <Gold.Chemscore.DEInternal>
2.2598

> <Gold.Chemscore.Rot>
1.6122

> <Gold.Chemscore.Internal.Correction>
   9.000000E+99

> <Gold.Chemscore.Hbonds>
donor molecule, donor type, donor heavy atom, donor atom, acceptor molecule, acceptor atom, score
      L1  H    11    30       P1  7948  0.95
      P1  H  6896  6909       L1    18  0.52
      P1  H  6931  6943       L1    21  0.16
      P1  H  6934  6947       L1    21  0.46
      P1  H 10752 10764       L1     3  0.63

> <Gold.Chemscore.Hbond.Weighted>
-10.2627

> <Gold.Chemscore.Metal.Weighted>
-0.0000

> <Gold.Chemscore.Lipo.Weighted>
-5.8175

> <Gold.Chemscore.Internal_Hbond.Weighted>
0.0000

> <Gold.Chemscore.DEClash.Weighted>
0.0853

> <Gold.Chemscore.DEInternal.Weighted>
2.2598

> <Gold.Chemscore.Rot.Weighted>
4.1272

> <Gold.Chemscore.Internal.Correction.Weighted>
   9.000000E+99

> <Gold.Protein.RotatedTorsions>
[ 6907 6896 6895 6894 ] final   13.90 input  -60.11 | X-H torsion
[ 7974 7965 7964 7962 ] final   20.18 input  175.53 | X-H torsion
[ 8008 7997 7996 7995 ] final -135.63 input   59.86 | X-H torsion
[ 10167 10162 10161 10158 ] final -142.96 input  -65.29 | X-H torsion
[ 10718 10713 10712 10709 ] final -126.79 input   66.30 | X-H torsion
[ 10763 10752 10751 10750 ] final  -44.16 input  -60.55 | X-H torsion
[ 11005 11000 10999 10996 ] final -118.59 input  -57.11 | X-H torsion

> <Gold.Protein.ActiveResidues>
 VAL166  LYS551  ARG553  GLY616  TRP617  ASP618  TYR619  PRO620  LYS621  CYS622 
 ASP623  PHE694  ASN695  SER759  ASP760  ASP761  ALA762  ILE779  LEU786  VAL792 
 PHE793  MET794  SER795  GLU796  ALA797  LYS798  CYS799  TRP800  GLU811  SER814 

> <Gold.Protein.RotatedAtoms>
  151.7937  135.0728  160.0390 H   0  0  0  0  0  0  0  0  0  0  0  0  # atno 6907 bound_to 6896
  152.3138  133.5777  159.5707 H   0  0  0  0  0  0  0  0  0  0  0  0  # atno 6908 bound_to 6896
  150.7334  134.0028  159.3686 H   0  0  0  0  0  0  0  0  0  0  0  0  # atno 6909 bound_to 6896
  146.2121  139.8207  142.8680 H   0  0  0  0  0  0  0  0  0  0  0  0  # atno 7974 bound_to 7965
  155.3818  140.0494  157.3043 H   0  0  0  0  0  0  0  0  0  0  0  0  # atno 8008 bound_to 7997
  154.5079  140.2181  155.9177 H   0  0  0  0  0  0  0  0  0  0  0  0  # atno 8009 bound_to 7997
  156.1547  140.3128  155.8712 H   0  0  0  0  0  0  0  0  0  0  0  0  # atno 8010 bound_to 7997
  139.8039  143.7796  152.2660 H   0  0  0  0  0  0  0  0  0  0  0  0  # atno 10167 bound_to 10162
  156.1798  130.6724  151.0289 H   0  0  0  0  0  0  0  0  0  0  0  0  # atno 10718 bound_to 10713
  154.0075  135.6685  153.4763 H   0  0  0  0  0  0  0  0  0  0  0  0  # atno 10763 bound_to 10752
  153.0635  135.5014  154.8144 H   0  0  0  0  0  0  0  0  0  0  0  0  # atno 10764 bound_to 10752
  154.7015  135.3080  154.9297 H   0  0  0  0  0  0  0  0  0  0  0  0  # atno 10765 bound_to 10752
  141.0275  134.0032  157.3193 H   0  0  0  0  0  0  0  0  0  0  0  0  # atno 11005 bound_to 11000
  145.3099  141.0217  143.3560 LP  0  0  0  0  0  0  0  0  0  0  0  0  # atno 17320 bound_to 7965
  144.8943  139.4732  143.6663 LP  0  0  0  0  0  0  0  0  0  0  0  0  # atno 17321 bound_to 7965
  139.7924  144.7405  150.9937 LP  0  0  0  0  0  0  0  0  0  0  0  0  # atno 17342 bound_to 10162
  140.7819  143.4428  151.0526 LP  0  0  0  0  0  0  0  0  0  0  0  0  # atno 17343 bound_to 10162
  157.6860  131.0824  150.7241 LP  0  0  0  0  0  0  0  0  0  0  0  0  # atno 17370 bound_to 10713
  156.7298  130.4706  149.5502 LP  0  0  0  0  0  0  0  0  0  0  0  0  # atno 17371 bound_to 10713
  139.9185  135.0199  156.7975 LP  0  0  0  0  0  0  0  0  0  0  0  0  # atno 17394 bound_to 11000
  140.6466  133.9770  155.7734 LP  0  0  0  0  0  0  0  0  0  0  0  0  # atno 17395 bound_to 11000

$$$$
