AV-unprocessed.smi:21|AV-procd|sdf|121|dock1
  -GOLD-   2262015293D 1   1.00000     0.00000
 Structure written by MMmdl.
 62 65  0  0  0  0  0  0  0  0  2 V2000
  147.7068  140.9942  154.1535 C   0  0  0  0  0  0  0  0  0  0  0  0
  148.9203  141.1858  154.8621 O   0  0  0  0  0  0  0  0  0  0  0  0
  148.7442  141.2989  156.2663 C   0  0  1  0  0  0  0  0  0  0  0  0
  149.9819  141.9082  156.9101 C   0  0  0  0  0  0  0  0  0  0  0  0
  149.4431  142.4678  158.2295 C   0  0  1  0  0  0  0  0  0  0  0  0
  150.3096  143.6043  158.8123 C   0  0  0  0  0  0  0  0  0  0  0  0
  151.7461  143.3781  158.6683 N   0  0  0  0  0  0  0  0  0  0  0  0
  152.4980  144.4700  158.0666 C   0  0  0  0  0  0  0  0  0  0  0  0
  152.3544  142.9009  159.7761 C   0  0  0  0  0  0  0  0  0  0  0  0
  152.2805  143.6564  160.8990 N   0  0  0  0  0  0  0  0  0  0  0  0
  152.8722  143.2400  162.0230 C   0  0  0  0  0  0  0  0  0  0  0  0
  153.5728  142.1231  162.2336 N   0  0  0  0  0  0  0  0  0  0  0  0
  153.6458  141.3618  161.1042 C   0  0  0  0  0  0  0  0  0  0  0  0
  153.0708  141.6730  159.8406 C   0  0  0  0  0  0  0  0  0  0  0  0
  153.3548  140.6648  158.9273 N   0  0  0  0  0  0  0  0  0  0  0  0
  154.0488  139.7996  159.6156 C   0  0  0  0  0  0  0  0  0  0  0  0
  154.2668  140.1372  160.9322 N   0  0  0  0  0  0  0  0  0  0  0  0
  155.0025  139.3579  161.9133 C   0  0  0  0  0  0  0  0  0  0  0  0
  156.2168  140.1136  162.5107 C   0  0  2  0  0  0  0  0  0  0  0  0
  157.3480  140.2666  161.4607 C   0  0  0  0  0  0  0  0  0  0  0  0
  156.9820  141.1375  160.4116 O   0  0  0  0  0  0  0  0  0  0  0  0
  156.7102  139.4116  163.8066 C   0  0  2  0  0  0  0  0  0  0  0  0
  155.6247  139.1203  164.8309 C   0  0  0  0  0  0  0  0  0  0  0  0
  156.4251  138.8848  166.1069 C   0  0  0  0  0  0  0  0  0  0  0  0
  157.5865  139.6968  165.9900 O   0  0  0  0  0  0  0  0  0  0  0  0
  157.6776  140.2273  164.6722 C   0  0  0  0  0  0  0  0  0  0  0  0
  148.0731  142.9378  157.9177 N   0  3  2  0  0  0  0  0  0  0  0  0
  147.1164  142.7928  159.0368 C   0  0  0  0  0  0  0  0  0  0  0  0
  147.6338  142.2809  156.6635 C   0  0  0  0  0  0  0  0  0  0  0  0
  148.5606  140.3211  156.7160 H   0  0  0  0  0  0  0  0  0  0  0  0
  149.3607  141.6427  158.9399 H   0  0  0  0  0  0  0  0  0  0  0  0
  147.9186  140.8954  153.0888 H   0  0  0  0  0  0  0  0  0  0  0  0
  147.0301  141.8397  154.2810 H   0  0  0  0  0  0  0  0  0  0  0  0
  147.1986  140.0859  154.4796 H   0  0  0  0  0  0  0  0  0  0  0  0
  150.7841  141.1832  157.0512 H   0  0  0  0  0  0  0  0  0  0  0  0
  150.3656  142.7163  156.2851 H   0  0  0  0  0  0  0  0  0  0  0  0
  150.0553  144.5432  158.3190 H   0  0  0  0  0  0  0  0  0  0  0  0
  150.0751  143.7470  159.8675 H   0  0  0  0  0  0  0  0  0  0  0  0
  153.5607  144.2303  158.0070 H   0  0  0  0  0  0  0  0  0  0  0  0
  152.3840  145.3890  158.6429 H   0  0  0  0  0  0  0  0  0  0  0  0
  152.1414  144.6588  157.0539 H   0  0  0  0  0  0  0  0  0  0  0  0
  152.7681  143.8940  162.8763 H   0  0  0  0  0  0  0  0  0  0  0  0
  154.4209  138.8828  159.1812 H   0  0  0  0  0  0  0  0  0  0  0  0
  154.2933  139.0828  162.6934 H   0  0  0  0  0  0  0  0  0  0  0  0
  155.3284  138.4253  161.4512 H   0  0  0  0  0  0  0  0  0  0  0  0
  155.8700  141.1136  162.7770 H   0  0  0  0  0  0  0  0  0  0  0  0
  158.2661  140.6219  161.9294 H   0  0  0  0  0  0  0  0  0  0  0  0
  157.5873  139.3159  160.9871 H   0  0  0  0  0  0  0  0  0  0  0  0
  157.7517  141.3289  159.8978 H   0  0  0  0  0  0  0  0  0  0  0  0
  157.1935  138.4688  163.5439 H   0  0  0  0  0  0  0  0  0  0  0  0
  154.9741  139.9877  164.9531 H   0  0  0  0  0  0  0  0  0  0  0  0
  155.0047  138.2609  164.5742 H   0  0  0  0  0  0  0  0  0  0  0  0
  155.8573  139.1272  167.0053 H   0  0  0  0  0  0  0  0  0  0  0  0
  156.7370  137.8419  166.1736 H   0  0  0  0  0  0  0  0  0  0  0  0
  158.7045  140.1817  164.3094 H   0  0  0  0  0  0  0  0  0  0  0  0
  157.3761  141.2750  164.7067 H   0  0  0  0  0  0  0  0  0  0  0  0
  146.9686  141.7433  159.2947 H   0  0  0  0  0  0  0  0  0  0  0  0
  146.1493  143.2187  158.7680 H   0  0  0  0  0  0  0  0  0  0  0  0
  147.4781  143.3154  159.9229 H   0  0  0  0  0  0  0  0  0  0  0  0
  147.5253  143.0580  155.9060 H   0  0  0  0  0  0  0  0  0  0  0  0
  146.6695  141.7797  156.7590 H   0  0  0  0  0  0  0  0  0  0  0  0
  148.1435  143.9235  157.7085 H   0  0  0  0  0  0  0  0  0  0  0  0
  1  2  1  0  0  0  0
  1 32  1  0  0  0  0
  1 33  1  0  0  0  0
  1 34  1  0  0  0  0
  2  3  1  0  0  0  0
  3 30  1  0  0  0  0
  3 29  1  0  0  0  0
  3  4  1  0  0  0  0
  4  5  1  0  0  0  0
  4 35  1  0  0  0  0
  4 36  1  0  0  0  0
  5 31  1  0  0  0  0
  5  6  1  0  0  0  0
  5 27  1  0  0  0  0
  6  7  1  0  0  0  0
  6 37  1  0  0  0  0
  6 38  1  0  0  0  0
  7  8  1  0  0  0  0
  7  9  1  0  0  0  0
  8 39  1  0  0  0  0
  8 40  1  0  0  0  0
  8 41  1  0  0  0  0
  9 14  1  0  0  0  0
  9 10  2  0  0  0  0
 10 11  1  0  0  0  0
 11 12  2  0  0  0  0
 11 42  1  0  0  0  0
 12 13  1  0  0  0  0
 13 17  1  0  0  0  0
 13 14  2  0  0  0  0
 14 15  1  0  0  0  0
 15 16  2  0  0  0  0
 16 17  1  0  0  0  0
 16 43  1  0  0  0  0
 17 18  1  0  0  0  0
 18 19  1  0  0  0  0
 18 44  1  0  0  0  0
 18 45  1  0  0  0  0
 19 20  1  0  0  0  0
 19 22  1  0  0  0  0
 19 46  1  0  0  0  0
 20 21  1  0  0  0  0
 20 47  1  0  0  0  0
 20 48  1  0  0  0  0
 21 49  1  0  0  0  0
 22 26  1  0  0  0  0
 22 23  1  0  0  0  0
 22 50  1  0  0  0  0
 23 24  1  0  0  0  0
 23 51  1  0  0  0  0
 23 52  1  0  0  0  0
 24 25  1  0  0  0  0
 24 53  1  0  0  0  0
 24 54  1  0  0  0  0
 25 26  1  0  0  0  0
 26 55  1  0  0  0  0
 26 56  1  0  0  0  0
 27 28  1  0  0  0  0
 27 29  1  0  0  0  0
 27 62  1  0  0  0  0
 28 57  1  0  0  0  0
 28 58  1  0  0  0  0
 28 59  1  0  0  0  0
 29 60  1  0  0  0  0
 29 61  1  0  0  0  0
M  CHG  1  27   1
M  END
> <s_m_source_file>
AV-unprocessed.smi

> <i_m_source_file_index>
21

> <i_lp_mmshare_version>
43012

> <i_f3d_flags>
0

> <s_epik_input>
W0NIM11PW0NASF0xW0NIMl1bQ0BIXShOKFtDSDNdKVtDSDJdMSlbQ0gyXU4oW0NIM10pYyhuW2NIXW4yKWMoYzIzKW5bY0hdbjNbQ0gyXVtDQEhdKFtDSDJdW09IXSlbQ0BASF00W0NIMl1bQ0gyXU9bQ0gyXTQ=

> <s_epik_cmdline>
J2VwaWtfcHl0aG9uJywgJy1waCcsICc3LjAnLCAnLXRuJywgJzgnLCAnLW1hJywgJzIwMCcsICctbWV0YWxfYmluZGluZycsICctaW1hZScsICc8aW5maWxlLm1hZT4nLCAnLW9tYWUnLCAnPG91dGZpbGUubWFlPic=

> <r_lp_tautomer_probability>
1

> <r_epik_Ionization_Penalty>
0.0157465

> <r_epik_Ionization_Penalty_Charging>
0.015354

> <r_epik_Ionization_Penalty_Neutral>
0.000392529

> <r_epik_State_Penalty>
0.0120612

> <r_epik_Charging_Adjusted_Penalty>
0.0274152

> <i_epik_Tot_Q>
1

> <i_epik_Tot_abs_Q>
1

> <r_epik_Metal_State_Penalty>
0.0121253

> <b_epik_Metal_Only>
0

> <s_lp_Force_Field>
OPLS_2005

> <r_lp_Energy>
60.2547

> <b_lp_Chiralities_Consistent>
1

> <s_lp_Variant>
AV-unprocessed.smi:21-1

> <Gold.Version>
5.8.1

> <Gold.Id.Protein>
6NUR|6NUR_protein|mol2

> <Gold.PLP.Fitness>
47.2284

> <Gold.PLP.PLP>
-43.0560

> <Gold.PLP.part.hbond>
-2.4251

> <Gold.PLP.part.metal>
0.0000

> <Gold.PLP.part.buried>
-5.2597

> <Gold.PLP.part.nonpolar>
-34.8124

> <Gold.PLP.part.repulsive>
0.3928

> <Gold.PLP.ligand.clash>
0.0000

> <Gold.PLP.ligand.torsion>
1.3793

> <Gold.PLP.Chemscore.Hbond>
2.0000

> <Gold.PLP.Chemscore.CHOScore>
0.0000

> <Gold.PLP.Chemscore.Metal>
0.0000

> <Gold.Chemscore.Hbonds>
donor molecule, donor type, donor heavy atom, donor atom, acceptor molecule, acceptor atom, score
      L1  H    27    62       P1  8029  0.64
      P1  H  7997  8010       L1    15  0.06

> <Gold.PLP.Chemscore.Internal.Correction>
0.9309

> <Gold.Rescore>
     Score         DG    S(hbond)    S(metal)    S(lipo)     H(rot)  DE(clash)    DE(int)     intcor
      5.77      -8.73       0.84        0.00      76.96       3.35       0.18       2.77       ----

> <Gold.Chemscore.Fitness>
5.7731

> <Gold.Chemscore.DG>
-8.7288

> <Gold.Chemscore.ZeroCoef>
-5.4800

> <Gold.Chemscore.Hbond>
0.8408

> <Gold.Chemscore.Metal>
0.0000

> <Gold.Chemscore.Lipo>
76.9596

> <Gold.Chemscore.Internal_Hbond>
0.0000

> <Gold.Chemscore.DEClash>
0.1829

> <Gold.Chemscore.DEInternal>
2.7728

> <Gold.Chemscore.Rot>
3.3452

> <Gold.Chemscore.Internal.Correction>
   9.000000E+99

> <Gold.Chemscore.Hbonds>
donor molecule, donor type, donor heavy atom, donor atom, acceptor molecule, acceptor atom, score
      L1  H    27    62       P1  8029  0.01

> <Gold.Chemscore.Hbond.Weighted>
-2.8082

> <Gold.Chemscore.Metal.Weighted>
-0.0000

> <Gold.Chemscore.Lipo.Weighted>
-9.0043

> <Gold.Chemscore.Internal_Hbond.Weighted>
0.0000

> <Gold.Chemscore.DEClash.Weighted>
0.1829

> <Gold.Chemscore.DEInternal.Weighted>
2.7728

> <Gold.Chemscore.Rot.Weighted>
8.5636

> <Gold.Chemscore.Internal.Correction.Weighted>
   9.000000E+99

> <Gold.Protein.RotatedTorsions>
[ 6907 6896 6895 6894 ] final   -6.23 input  -60.11 | X-H torsion
[ 7974 7965 7964 7962 ] final   89.87 input  175.53 | X-H torsion
[ 8008 7997 7996 7995 ] final   39.63 input   59.86 | X-H torsion
[ 10167 10162 10161 10158 ] final -149.36 input  -65.29 | X-H torsion
[ 10718 10713 10712 10709 ] final  -86.97 input   66.30 | X-H torsion
[ 10763 10752 10751 10750 ] final   35.25 input  -60.55 | X-H torsion
[ 11005 11000 10999 10996 ] final  168.69 input  -57.11 | X-H torsion

> <Gold.Protein.ActiveResidues>
 VAL166  LYS551  ARG553  GLY616  TRP617  ASP618  TYR619  PRO620  LYS621  CYS622 
 ASP623  PHE694  ASN695  SER759  ASP760  ASP761  ALA762  ILE779  LEU786  VAL792 
 PHE793  MET794  SER795  GLU796  ALA797  LYS798  CYS799  TRP800  GLU811  SER814 

> <Gold.Protein.RotatedAtoms>
  151.4688  135.1044  159.9745 H   0  0  0  0  0  0  0  0  0  0  0  0  # atno 6907 bound_to 6896
  152.4824  133.8284  159.7101 H   0  0  0  0  0  0  0  0  0  0  0  0  # atno 6908 bound_to 6896
  150.8907  133.7187  159.2932 H   0  0  0  0  0  0  0  0  0  0  0  0  # atno 6909 bound_to 6896
  145.5265  139.2281  143.2642 H   0  0  0  0  0  0  0  0  0  0  0  0  # atno 7974 bound_to 7965
  155.2398  140.3344  155.4293 H   0  0  0  0  0  0  0  0  0  0  0  0  # atno 8008 bound_to 7997
  156.2260  140.1829  156.7406 H   0  0  0  0  0  0  0  0  0  0  0  0  # atno 8009 bound_to 7997
  154.5900  140.0639  156.9211 H   0  0  0  0  0  0  0  0  0  0  0  0  # atno 8010 bound_to 7997
  139.7449  143.8605  152.2572 H   0  0  0  0  0  0  0  0  0  0  0  0  # atno 10167 bound_to 10162
  155.9987  130.4783  150.4796 H   0  0  0  0  0  0  0  0  0  0  0  0  # atno 10718 bound_to 10713
  153.0127  135.6338  154.1798 H   0  0  0  0  0  0  0  0  0  0  0  0  # atno 10763 bound_to 10752
  154.1539  135.2827  155.3129 H   0  0  0  0  0  0  0  0  0  0  0  0  # atno 10764 bound_to 10752
  154.6033  135.5580  153.7457 H   0  0  0  0  0  0  0  0  0  0  0  0  # atno 10765 bound_to 10752
  140.2899  134.7682  157.3829 H   0  0  0  0  0  0  0  0  0  0  0  0  # atno 11005 bound_to 11000
  146.2072  140.6080  142.9076 LP  0  0  0  0  0  0  0  0  0  0  0  0  # atno 17320 bound_to 7965
  144.7648  140.5505  143.6710 LP  0  0  0  0  0  0  0  0  0  0  0  0  # atno 17321 bound_to 7965
  139.8567  144.7138  150.9149 LP  0  0  0  0  0  0  0  0  0  0  0  0  # atno 17342 bound_to 10162
  140.7791  143.3853  151.1405 LP  0  0  0  0  0  0  0  0  0  0  0  0  # atno 17343 bound_to 10162
  157.2803  131.0605  151.2202 LP  0  0  0  0  0  0  0  0  0  0  0  0  # atno 17370 bound_to 10713
  157.3251  130.6957  149.6291 LP  0  0  0  0  0  0  0  0  0  0  0  0  # atno 17371 bound_to 10713
  140.1205  134.5226  155.8188 LP  0  0  0  0  0  0  0  0  0  0  0  0  # atno 17394 bound_to 11000
  141.2148  133.6755  156.6857 LP  0  0  0  0  0  0  0  0  0  0  0  0  # atno 17395 bound_to 11000

$$$$
