AV-unprocessed.smi:2562|AV-procd|sdf|10054|dock3
  -GOLD-   2272014 93D 1   1.00000     0.00000
 Structure written by MMmdl.
 29 30  0  0  0  0  0  0  0  0  2 V2000
  152.2976  144.3985  158.9614 C   0  0  0  0  0  0  0  0  0  0  0  0
  152.2951  143.3366  160.0665 C   0  0  0  0  0  0  0  0  0  0  0  0
  153.0970  142.0848  159.6851 C   0  0  0  0  0  0  0  0  0  0  0  0
  152.4391  141.3087  158.5651 C   0  0  0  0  0  0  0  0  0  0  0  0
  152.9428  140.2174  157.9623 N   0  5  0  0  0  0  0  0  0  0  0  0
  152.0925  139.7764  157.0578 N   0  0  0  0  0  0  0  0  0  0  0  0
  151.0384  140.6045  157.1230 C   0  0  0  0  0  0  0  0  0  0  0  0
  149.8157  140.5057  156.2327 C   0  0  2  0  0  0  0  0  0  0  0  0
  150.2196  140.3900  154.7487 C   0  0  0  0  0  0  0  0  0  0  0  0
  149.0349  140.3060  153.8944 N   0  0  0  0  0  0  0  0  0  0  0  0
  148.1303  141.4285  154.1318 C   0  0  0  0  0  0  0  0  0  0  0  0
  147.7714  141.5164  155.6248 C   0  0  0  0  0  0  0  0  0  0  0  0
  148.9635  141.6385  156.3919 O   0  0  0  0  0  0  0  0  0  0  0  0
  151.2418  141.5577  158.0447 N   0  0  0  0  0  0  0  0  0  0  0  0
  151.7217  145.2735  159.2633 H   0  0  0  0  0  0  0  0  0  0  0  0
  151.8582  144.0104  158.0421 H   0  0  0  0  0  0  0  0  0  0  0  0
  153.3116  144.7296  158.7358 H   0  0  0  0  0  0  0  0  0  0  0  0
  152.7049  143.7663  160.9813 H   0  0  0  0  0  0  0  0  0  0  0  0
  151.2661  143.0539  160.2917 H   0  0  0  0  0  0  0  0  0  0  0  0
  154.1045  142.3627  159.3739 H   0  0  0  0  0  0  0  0  0  0  0  0
  153.2037  141.4279  160.5490 H   0  0  0  0  0  0  0  0  0  0  0  0
  149.2688  139.6105  156.5353 H   0  0  0  0  0  0  0  0  0  0  0  0
  150.8204  141.2551  154.4643 H   0  0  0  0  0  0  0  0  0  0  0  0
  150.8473  139.5113  154.5998 H   0  0  0  0  0  0  0  0  0  0  0  0
  149.3209  140.2999  152.9208 H   0  0  0  0  0  0  0  0  0  0  0  0
  148.6019  142.3590  153.8138 H   0  0  0  0  0  0  0  0  0  0  0  0
  147.2258  141.3136  153.5344 H   0  0  0  0  0  0  0  0  0  0  0  0
  147.1437  142.3884  155.8082 H   0  0  0  0  0  0  0  0  0  0  0  0
  147.2027  140.6414  155.9443 H   0  0  0  0  0  0  0  0  0  0  0  0
  1  2  1  0  0  0  0
  1 15  1  0  0  0  0
  1 16  1  0  0  0  0
  1 17  1  0  0  0  0
  2  3  1  0  0  0  0
  2 18  1  0  0  0  0
  2 19  1  0  0  0  0
  3 20  1  0  0  0  0
  3 21  1  0  0  0  0
  3  4  1  0  0  0  0
  4 14  2  0  0  0  0
  4  5  1  0  0  0  0
  5  6  1  0  0  0  0
  6  7  2  0  0  0  0
  7 14  1  0  0  0  0
  7  8  1  0  0  0  0
  8 13  1  0  0  0  0
  8  9  1  0  0  0  0
  8 22  1  0  0  0  0
  9 10  1  0  0  0  0
  9 23  1  0  0  0  0
  9 24  1  0  0  0  0
 10 11  1  0  0  0  0
 10 25  1  0  0  0  0
 11 12  1  0  0  0  0
 11 26  1  0  0  0  0
 11 27  1  0  0  0  0
 12 13  1  0  0  0  0
 12 28  1  0  0  0  0
 12 29  1  0  0  0  0
M  CHG  1   5  -1
M  END
> <s_m_source_file>
AV-unprocessed.smi

> <i_m_source_file_index>
2562

> <i_lp_mmshare_version>
43012

> <i_f3d_flags>
0

> <s_epik_input>
W0NIM11bQ0gyXVtDSDJdYzFuW25IXWMobjEpW0NAQEhdMltDSDJdW05IXVtDSDJdW0NIMl1PMg==

> <s_epik_cmdline>
J2VwaWtfcHl0aG9uJywgJy1waCcsICc3LjAnLCAnLXRuJywgJzgnLCAnLW1hJywgJzIwMCcsICctbWV0YWxfYmluZGluZycsICctaW1hZScsICc8aW5maWxlLm1hZT4nLCAnLW9tYWUnLCAnPG91dGZpbGUubWFlPic=

> <r_epik_Ionization_Penalty>
15.949

> <r_epik_Ionization_Penalty_Charging>
14.3757

> <r_epik_Ionization_Penalty_Neutral>
1.5733

> <r_epik_State_Penalty>
7.02775

> <r_epik_Charging_Adjusted_Penalty>
21.4034

> <i_epik_Tot_Q>
-1

> <i_epik_Tot_abs_Q>
1

> <r_epik_Metal_State_Penalty>
3.10311

> <b_epik_Metal_Only>
1

> <s_lp_Force_Field>
OPLS_2005

> <r_lp_Energy>
11.5852

> <b_lp_Chiralities_Consistent>
1

> <s_lp_Variant>
AV-unprocessed.smi:2562-13

> <Gold.Version>
5.8.1

> <Gold.Id.Protein>
6NUR|6NUR_protein|mol2

> <Gold.PLP.Fitness>
35.2151

> <Gold.PLP.PLP>
-26.5737

> <Gold.PLP.part.hbond>
-2.0000

> <Gold.PLP.part.metal>
0.0000

> <Gold.PLP.part.buried>
-2.1739

> <Gold.PLP.part.nonpolar>
-22.9969

> <Gold.PLP.part.repulsive>
0.2832

> <Gold.PLP.ligand.clash>
0.0000

> <Gold.PLP.ligand.torsion>
0.1865

> <Gold.PLP.Chemscore.Hbond>
3.0000

> <Gold.PLP.Chemscore.CHOScore>
0.0000

> <Gold.PLP.Chemscore.Metal>
0.0000

> <Gold.Chemscore.Hbonds>
donor molecule, donor type, donor heavy atom, donor atom, acceptor molecule, acceptor atom, score
      L1  H    10    25       P1  7957  1.00
      P1  H  7997  8009       L1     5  1.92

> <Gold.PLP.Chemscore.Internal.Correction>
0.0145

> <Gold.Rescore>
     Score         DG    S(hbond)    S(metal)    S(lipo)     H(rot)  DE(clash)    DE(int)     intcor
     14.25     -14.75       1.81        0.00      59.22       1.44       0.19       0.31       ----

> <Gold.Chemscore.Fitness>
14.2461

> <Gold.Chemscore.DG>
-14.7489

> <Gold.Chemscore.ZeroCoef>
-5.4800

> <Gold.Chemscore.Hbond>
1.8076

> <Gold.Chemscore.Metal>
0.0000

> <Gold.Chemscore.Lipo>
59.2179

> <Gold.Chemscore.Internal_Hbond>
0.0000

> <Gold.Chemscore.DEClash>
0.1893

> <Gold.Chemscore.DEInternal>
0.3135

> <Gold.Chemscore.Rot>
1.4441

> <Gold.Chemscore.Internal.Correction>
   9.000000E+99

> <Gold.Chemscore.Hbonds>
donor molecule, donor type, donor heavy atom, donor atom, acceptor molecule, acceptor atom, score
      L1  H    10    25       P1  7957  1.00
      P1  H  7997  8009       L1     5  0.24

> <Gold.Chemscore.Hbond.Weighted>
-6.0373

> <Gold.Chemscore.Metal.Weighted>
-0.0000

> <Gold.Chemscore.Lipo.Weighted>
-6.9285

> <Gold.Chemscore.Internal_Hbond.Weighted>
0.0000

> <Gold.Chemscore.DEClash.Weighted>
0.1893

> <Gold.Chemscore.DEInternal.Weighted>
0.3135

> <Gold.Chemscore.Rot.Weighted>
3.6969

> <Gold.Chemscore.Internal.Correction.Weighted>
   9.000000E+99

> <Gold.Protein.RotatedTorsions>
[ 6907 6896 6895 6894 ] final   83.39 input  -60.11 | X-H torsion
[ 7974 7965 7964 7962 ] final -111.55 input  175.53 | X-H torsion
[ 8008 7997 7996 7995 ] final  157.96 input   59.86 | X-H torsion
[ 10167 10162 10161 10158 ] final  -66.56 input  -65.29 | X-H torsion
[ 10718 10713 10712 10709 ] final   97.60 input   66.30 | X-H torsion
[ 10763 10752 10751 10750 ] final -161.23 input  -60.55 | X-H torsion
[ 11005 11000 10999 10996 ] final   76.89 input  -57.11 | X-H torsion

> <Gold.Protein.ActiveResidues>
 VAL166  LYS551  ARG553  GLY616  TRP617  ASP618  TYR619  PRO620  LYS621  CYS622 
 ASP623  PHE694  ASN695  SER759  ASP760  ASP761  ALA762  ILE779  LEU786  VAL792 
 PHE793  MET794  SER795  GLU796  ALA797  LYS798  CYS799  TRP800  GLU811  SER814 

> <Gold.Protein.RotatedAtoms>
  152.5326  134.2902  159.9039 H   0  0  0  0  0  0  0  0  0  0  0  0  # atno 6907 bound_to 6896
  151.2854  133.4183  159.2637 H   0  0  0  0  0  0  0  0  0  0  0  0  # atno 6908 bound_to 6896
  151.0247  134.9510  159.8135 H   0  0  0  0  0  0  0  0  0  0  0  0  # atno 6909 bound_to 6896
  145.1547  140.8847  143.3626 H   0  0  0  0  0  0  0  0  0  0  0  0  # atno 7974 bound_to 7965
  156.2332  140.1871  156.7188 H   0  0  0  0  0  0  0  0  0  0  0  0  # atno 8008 bound_to 7997
  154.6060  140.0629  156.9458 H   0  0  0  0  0  0  0  0  0  0  0  0  # atno 8009 bound_to 7997
  155.2096  140.3299  155.4333 H   0  0  0  0  0  0  0  0  0  0  0  0  # atno 8010 bound_to 7997
  140.5648  143.2314  151.6657 H   0  0  0  0  0  0  0  0  0  0  0  0  # atno 10167 bound_to 10162
  157.6910  131.0614  150.4668 H   0  0  0  0  0  0  0  0  0  0  0  0  # atno 10718 bound_to 10713
  154.7322  135.3049  154.8872 H   0  0  0  0  0  0  0  0  0  0  0  0  # atno 10763 bound_to 10752
  153.9712  135.6741  153.4751 H   0  0  0  0  0  0  0  0  0  0  0  0  # atno 10764 bound_to 10752
  153.0929  135.4950  154.8645 H   0  0  0  0  0  0  0  0  0  0  0  0  # atno 10765 bound_to 10752
  139.9278  134.7638  156.1453 H   0  0  0  0  0  0  0  0  0  0  0  0  # atno 11005 bound_to 11000
  145.0393  139.3273  143.5984 LP  0  0  0  0  0  0  0  0  0  0  0  0  # atno 17320 bound_to 7965
  146.3490  139.9761  142.8701 LP  0  0  0  0  0  0  0  0  0  0  0  0  # atno 17321 bound_to 7965
  139.5087  144.3601  152.0570 LP  0  0  0  0  0  0  0  0  0  0  0  0  # atno 17342 bound_to 10162
  140.2731  144.3942  150.6144 LP  0  0  0  0  0  0  0  0  0  0  0  0  # atno 17343 bound_to 10162
  156.5008  130.4117  149.6354 LP  0  0  0  0  0  0  0  0  0  0  0  0  # atno 17370 bound_to 10713
  156.3330  130.7341  151.2274 LP  0  0  0  0  0  0  0  0  0  0  0  0  # atno 17371 bound_to 10713
  141.0847  133.6739  156.2411 LP  0  0  0  0  0  0  0  0  0  0  0  0  # atno 17394 bound_to 11000
  140.6287  134.5287  157.5557 LP  0  0  0  0  0  0  0  0  0  0  0  0  # atno 17395 bound_to 11000

$$$$
