AV-unprocessed.smi:1173|AV-procd|sdf|4945|dock5
  -GOLD-   22720 3533D 1   1.00000     0.00000
 Structure written by MMmdl.
 37 38  0  0  0  0  0  0  0  0  1 V2000
  148.4335  138.1523  155.6924 C   0  0  0  0  0  0  0  0  0  0  0  0
  148.5198  139.2136  154.6820 N   0  0  0  0  0  0  0  0  0  0  0  0
  147.4361  139.2629  153.6865 C   0  0  0  0  0  0  0  0  0  0  0  0
  147.2037  137.9189  152.9819 C   0  0  0  0  0  0  0  0  0  0  0  0
  148.1523  137.5182  152.1322 N   0  0  0  0  0  0  0  0  0  0  0  0
  146.1848  137.2591  153.1811 O   0  0  0  0  0  0  0  0  0  0  0  0
  149.5254  140.1249  154.6604 C   0  0  0  0  0  0  0  0  0  0  0  0
  149.5713  141.0661  153.8671 O   0  0  0  0  0  0  0  0  0  0  0  0
  150.6355  139.9657  155.6575 C   0  0  0  0  0  0  0  0  0  0  0  0
  150.8349  140.9881  156.5194 N   0  0  0  0  0  0  0  0  0  0  0  0
  151.8235  140.8793  157.4164 C   0  0  0  0  0  0  0  0  0  0  0  0
  152.0132  141.9470  158.3039 N   0  0  0  0  0  0  0  0  0  0  0  0
  152.3631  141.7262  159.7098 C   0  0  0  0  0  0  0  0  0  0  0  0
  153.1875  142.9013  160.2620 C   0  0  0  0  0  0  0  0  0  0  0  0
  152.4823  144.1200  160.0642 O   0  0  0  0  0  0  0  0  0  0  0  0
  152.2683  144.3798  158.6827 C   0  0  0  0  0  0  0  0  0  0  0  0
  151.4097  143.2614  158.0681 C   0  0  0  0  0  0  0  0  0  0  0  0
  152.6430  139.8254  157.5265 N   0  0  0  0  0  0  0  0  0  0  0  0
  152.4688  138.7988  156.6675 C   0  0  0  0  0  0  0  0  0  0  0  0
  151.4600  138.8156  155.6860 C   0  0  0  0  0  0  0  0  0  0  0  0
  151.2824  137.4958  154.5820 Cl  0  0  0  0  0  0  0  0  0  0  0  0
  149.2433  137.4331  155.5699 H   0  0  0  0  0  0  0  0  0  0  0  0
  147.5011  137.5912  155.6266 H   0  0  0  0  0  0  0  0  0  0  0  0
  148.4878  138.5656  156.7006 H   0  0  0  0  0  0  0  0  0  0  0  0
  146.4991  139.5690  154.1525 H   0  0  0  0  0  0  0  0  0  0  0  0
  147.6437  140.0312  152.9392 H   0  0  0  0  0  0  0  0  0  0  0  0
  148.0516  136.6436  151.6377 H   0  0  0  0  0  0  0  0  0  0  0  0
  148.9682  138.0946  151.9841 H   0  0  0  0  0  0  0  0  0  0  0  0
  151.4428  141.6125  160.2837 H   0  0  0  0  0  0  0  0  0  0  0  0
  152.9389  140.8119  159.8509 H   0  0  0  0  0  0  0  0  0  0  0  0
  153.3648  142.7648  161.3290 H   0  0  0  0  0  0  0  0  0  0  0  0
  154.1658  142.9502  159.7810 H   0  0  0  0  0  0  0  0  0  0  0  0
  151.7629  145.3399  158.5774 H   0  0  0  0  0  0  0  0  0  0  0  0
  153.2244  144.4659  158.1635 H   0  0  0  0  0  0  0  0  0  0  0  0
  151.2898  143.4715  157.0055 H   0  0  0  0  0  0  0  0  0  0  0  0
  150.4119  143.2703  158.5082 H   0  0  0  0  0  0  0  0  0  0  0  0
  153.1444  137.9615  156.7616 H   0  0  0  0  0  0  0  0  0  0  0  0
  1  2  1  0  0  0  0
  1 22  1  0  0  0  0
  1 23  1  0  0  0  0
  1 24  1  0  0  0  0
  2  3  1  0  0  0  0
  2  7  1  0  0  0  0
  3  4  1  0  0  0  0
  3 25  1  0  0  0  0
  3 26  1  0  0  0  0
  4  5  1  0  0  0  0
  4  6  2  0  0  0  0
  5 27  1  0  0  0  0
  5 28  1  0  0  0  0
  7  8  2  0  0  0  0
  7  9  1  0  0  0  0
  9 20  1  0  0  0  0
  9 10  2  0  0  0  0
 10 11  1  0  0  0  0
 11 12  1  0  0  0  0
 11 18  2  0  0  0  0
 12 17  1  0  0  0  0
 12 13  1  0  0  0  0
 13 14  1  0  0  0  0
 13 29  1  0  0  0  0
 13 30  1  0  0  0  0
 14 15  1  0  0  0  0
 14 31  1  0  0  0  0
 14 32  1  0  0  0  0
 15 16  1  0  0  0  0
 16 17  1  0  0  0  0
 16 33  1  0  0  0  0
 16 34  1  0  0  0  0
 17 35  1  0  0  0  0
 17 36  1  0  0  0  0
 18 19  1  0  0  0  0
 19 20  2  0  0  0  0
 19 37  1  0  0  0  0
 20 21  1  0  0  0  0
M  END
> <s_m_source_file>
AV-unprocessed.smi

> <i_m_source_file_index>
1173

> <i_lp_mmshare_version>
43012

> <i_f3d_flags>
0

> <s_epik_input>
W05IMl1DKD1PKVtDSDJdTihbQ0gzXSlDKD1PKWMxbmMobltjSF1jMUNsKU4yW0NIMl1bQ0gyXU9bQ0gyXVtDSDJdMg==

> <s_epik_cmdline>
J2VwaWtfcHl0aG9uJywgJy1waCcsICc3LjAnLCAnLXRuJywgJzgnLCAnLW1hJywgJzIwMCcsICctbWV0YWxfYmluZGluZycsICctaW1hZScsICc8aW5maWxlLm1hZT4nLCAnLW9tYWUnLCAnPG91dGZpbGUubWFlPic=

> <r_lp_tautomer_probability>
1

> <r_epik_Ionization_Penalty>
9.52456e-08

> <r_epik_Ionization_Penalty_Charging>
0

> <r_epik_Ionization_Penalty_Neutral>
9.52456e-08

> <r_epik_State_Penalty>
-0

> <r_epik_Charging_Adjusted_Penalty>
0

> <i_epik_Tot_Q>
0

> <i_epik_Tot_abs_Q>
0

> <r_epik_Metal_State_Penalty>
-0

> <b_epik_Metal_Only>
0

> <s_lp_Force_Field>
OPLS_2005

> <r_lp_Energy>
19.8888

> <b_lp_Chiralities_Consistent>
1

> <s_lp_Variant>
AV-unprocessed.smi:1173-1

> <Gold.Version>
5.8.1

> <Gold.Id.Protein>
6NUR|6NUR_protein|mol2

> <Gold.PLP.Fitness>
47.6837

> <Gold.PLP.PLP>
-41.6455

> <Gold.PLP.part.hbond>
-5.0000

> <Gold.PLP.part.metal>
0.0000

> <Gold.PLP.part.buried>
-6.0073

> <Gold.PLP.part.nonpolar>
-32.6988

> <Gold.PLP.part.repulsive>
1.7383

> <Gold.PLP.ligand.clash>
0.0000

> <Gold.PLP.ligand.torsion>
1.6447

> <Gold.PLP.Chemscore.Hbond>
2.5206

> <Gold.PLP.Chemscore.CHOScore>
0.0000

> <Gold.PLP.Chemscore.Metal>
0.0000

> <Gold.Chemscore.Hbonds>
donor molecule, donor type, donor heavy atom, donor atom, acceptor molecule, acceptor atom, score
      L1  H     5    28       P1  7957  0.47
      P1  H  7989  7998       L1     8  0.26
      P1  H  7997  8009       L1    18  0.50
      P1  H  8011  8017       L1     8  0.84

> <Gold.PLP.Chemscore.Internal.Correction>
1.7659

> <Gold.Rescore>
     Score         DG    S(hbond)    S(metal)    S(lipo)     H(rot)  DE(clash)    DE(int)     intcor
     15.15     -16.73       1.66        0.00      82.33       1.54       0.04       1.53       ----

> <Gold.Chemscore.Fitness>
15.1528

> <Gold.Chemscore.DG>
-16.7294

> <Gold.Chemscore.ZeroCoef>
-5.4800

> <Gold.Chemscore.Hbond>
1.6627

> <Gold.Chemscore.Metal>
0.0000

> <Gold.Chemscore.Lipo>
82.3279

> <Gold.Chemscore.Internal_Hbond>
0.0000

> <Gold.Chemscore.DEClash>
0.0436

> <Gold.Chemscore.DEInternal>
1.5330

> <Gold.Chemscore.Rot>
1.5377

> <Gold.Chemscore.Internal.Correction>
   9.000000E+99

> <Gold.Chemscore.Hbonds>
donor molecule, donor type, donor heavy atom, donor atom, acceptor molecule, acceptor atom, score
      L1  H     5    28       P1  7957  0.08
      P1  H  7989  7998       L1     8  0.04
      P1  H  7997  8009       L1    18  0.02
      P1  H  8011  8017       L1     8  0.79

> <Gold.Chemscore.Hbond.Weighted>
-5.5536

> <Gold.Chemscore.Metal.Weighted>
-0.0000

> <Gold.Chemscore.Lipo.Weighted>
-9.6324

> <Gold.Chemscore.Internal_Hbond.Weighted>
0.0000

> <Gold.Chemscore.DEClash.Weighted>
0.0436

> <Gold.Chemscore.DEInternal.Weighted>
1.5330

> <Gold.Chemscore.Rot.Weighted>
3.9366

> <Gold.Chemscore.Internal.Correction.Weighted>
   9.000000E+99

> <Gold.Protein.RotatedTorsions>
[ 6907 6896 6895 6894 ] final  -79.83 input  -60.11 | X-H torsion
[ 7974 7965 7964 7962 ] final  150.10 input  175.53 | X-H torsion
[ 8008 7997 7996 7995 ] final  166.99 input   59.86 | X-H torsion
[ 10167 10162 10161 10158 ] final -171.54 input  -65.29 | X-H torsion
[ 10718 10713 10712 10709 ] final  -97.46 input   66.30 | X-H torsion
[ 10763 10752 10751 10750 ] final -165.31 input  -60.55 | X-H torsion
[ 11005 11000 10999 10996 ] final  138.01 input  -57.11 | X-H torsion

> <Gold.Protein.ActiveResidues>
 VAL166  LYS551  ARG553  GLY616  TRP617  ASP618  TYR619  PRO620  LYS621  CYS622 
 ASP623  PHE694  ASN695  SER759  ASP760  ASP761  ALA762  ILE779  LEU786  VAL792 
 PHE793  MET794  SER795  GLU796  ALA797  LYS798  CYS799  TRP800  GLU811  SER814 

> <Gold.Protein.RotatedAtoms>
  150.6941  134.4061  159.5140 H   0  0  0  0  0  0  0  0  0  0  0  0  # atno 6907 bound_to 6896
  152.1827  134.8737  160.0534 H   0  0  0  0  0  0  0  0  0  0  0  0  # atno 6908 bound_to 6896
  151.9722  133.3694  159.4112 H   0  0  0  0  0  0  0  0  0  0  0  0  # atno 6909 bound_to 6896
  144.8389  139.6365  143.6025 H   0  0  0  0  0  0  0  0  0  0  0  0  # atno 7974 bound_to 7965
  156.1672  140.1629  156.8511 H   0  0  0  0  0  0  0  0  0  0  0  0  # atno 8008 bound_to 7997
  154.5219  140.0776  156.8223 H   0  0  0  0  0  0  0  0  0  0  0  0  # atno 8009 bound_to 7997
  155.3587  140.3394  155.4242 H   0  0  0  0  0  0  0  0  0  0  0  0  # atno 8010 bound_to 7997
  139.5796  144.1453  152.1497 H   0  0  0  0  0  0  0  0  0  0  0  0  # atno 10167 bound_to 10162
  156.0084  130.5195  150.6378 H   0  0  0  0  0  0  0  0  0  0  0  0  # atno 10718 bound_to 10713
  154.6944  135.2976  154.9432 H   0  0  0  0  0  0  0  0  0  0  0  0  # atno 10763 bound_to 10752
  154.0385  135.6660  153.4791 H   0  0  0  0  0  0  0  0  0  0  0  0  # atno 10764 bound_to 10752
  153.0635  135.5101  154.8054 H   0  0  0  0  0  0  0  0  0  0  0  0  # atno 10765 bound_to 10752
  140.0153  134.9421  157.0364 H   0  0  0  0  0  0  0  0  0  0  0  0  # atno 11005 bound_to 11000
  146.2684  139.6576  142.9313 LP  0  0  0  0  0  0  0  0  0  0  0  0  # atno 17320 bound_to 7965
  145.4736  141.0436  143.2685 LP  0  0  0  0  0  0  0  0  0  0  0  0  # atno 17321 bound_to 7965
  140.1003  144.5545  150.6993 LP  0  0  0  0  0  0  0  0  0  0  0  0  # atno 17342 bound_to 10162
  140.7076  143.2479  151.4680 LP  0  0  0  0  0  0  0  0  0  0  0  0  # atno 17343 bound_to 10162
  157.4164  131.0830  151.1173 LP  0  0  0  0  0  0  0  0  0  0  0  0  # atno 17370 bound_to 10713
  157.1788  130.6300  149.5665 LP  0  0  0  0  0  0  0  0  0  0  0  0  # atno 17371 bound_to 10713
  140.4481  134.1611  155.7179 LP  0  0  0  0  0  0  0  0  0  0  0  0  # atno 17394 bound_to 11000
  141.1739  133.8554  157.1484 LP  0  0  0  0  0  0  0  0  0  0  0  0  # atno 17395 bound_to 11000

$$$$
