AV-unprocessed.smi:3277|AV-procd|sdf|12536|dock9
  -GOLD-   2272018453D 1   1.00000     0.00000
 Structure written by MMmdl.
 35 37  0  0  0  0  0  0  0  0  1 V2000
  153.0912  137.0024  158.1178 C   0  0  0  0  0  0  0  0  0  0  0  0
  152.8920  138.0496  157.1281 N   0  0  0  0  0  0  0  0  0  0  0  0
  152.2687  137.8709  155.9540 C   0  0  0  0  0  0  0  0  0  0  0  0
  151.7943  136.7925  155.5978 O   0  0  0  0  0  0  0  0  0  0  0  0
  152.1570  139.0947  155.0430 C   0  0  0  0  0  0  0  0  0  0  0  0
  151.4500  140.1738  155.7987 C   0  0  0  0  0  0  0  0  0  0  0  0
  151.8634  140.6402  156.9800 N   0  0  0  0  0  0  0  0  0  0  0  0
  151.0381  141.6506  157.4872 C   0  0  0  0  0  0  0  0  0  0  0  0
  151.3339  142.3016  158.8131 C   0  0  2  0  0  0  0  0  0  0  0  0
  150.4937  143.5585  159.1267 C   0  0  0  0  0  0  0  0  0  0  0  0
  151.5653  144.5745  159.5684 C   0  0  1  0  0  0  0  0  0  0  0  0
  152.1944  144.1299  160.9041 C   0  0  0  0  0  0  0  0  0  0  0  0
  153.0823  142.9396  160.4867 C   0  0  0  0  0  0  0  0  0  0  0  0
  152.7848  142.8115  158.9800 C   0  0  2  0  0  0  0  0  0  0  0  0
  152.6888  144.2830  158.5819 C   0  0  0  0  0  0  0  0  0  0  0  0
  149.9862  141.9473  156.6562 C   0  0  0  0  0  0  0  0  0  0  0  0
  149.9954  140.9729  155.2125 S   0  0  0  0  0  0  0  0  0  0  0  0
  153.6718  137.3880  158.9557 H   0  0  0  0  0  0  0  0  0  0  0  0
  153.6316  136.1579  157.6887 H   0  0  0  0  0  0  0  0  0  0  0  0
  152.1345  136.6465  158.5010 H   0  0  0  0  0  0  0  0  0  0  0  0
  153.2533  138.9668  157.3465 H   0  0  0  0  0  0  0  0  0  0  0  0
  153.1484  139.4380  154.7442 H   0  0  0  0  0  0  0  0  0  0  0  0
  151.6015  138.8538  154.1359 H   0  0  0  0  0  0  0  0  0  0  0  0
  151.1390  141.5606  159.5901 H   0  0  0  0  0  0  0  0  0  0  0  0
  149.9794  143.9276  158.2382 H   0  0  0  0  0  0  0  0  0  0  0  0
  149.7395  143.3770  159.8930 H   0  0  0  0  0  0  0  0  0  0  0  0
  151.2125  145.6061  159.5716 H   0  0  0  0  0  0  0  0  0  0  0  0
  152.8009  144.9270  161.3357 H   0  0  0  0  0  0  0  0  0  0  0  0
  151.4391  143.8479  161.6384 H   0  0  0  0  0  0  0  0  0  0  0  0
  154.1351  143.1720  160.6521 H   0  0  0  0  0  0  0  0  0  0  0  0
  152.8536  142.0301  161.0434 H   0  0  0  0  0  0  0  0  0  0  0  0
  153.5313  142.2240  158.4444 H   0  0  0  0  0  0  0  0  0  0  0  0
  152.4026  144.4416  157.5417 H   0  0  0  0  0  0  0  0  0  0  0  0
  153.6007  144.8472  158.7857 H   0  0  0  0  0  0  0  0  0  0  0  0
  149.2076  142.6807  156.8056 H   0  0  0  0  0  0  0  0  0  0  0  0
  1  2  1  0  0  0  0
  1 18  1  0  0  0  0
  1 19  1  0  0  0  0
  1 20  1  0  0  0  0
  2  3  1  0  0  0  0
  2 21  1  0  0  0  0
  3  4  2  0  0  0  0
  3  5  1  0  0  0  0
  5  6  1  0  0  0  0
  5 22  1  0  0  0  0
  5 23  1  0  0  0  0
  6 17  1  0  0  0  0
  6  7  2  0  0  0  0
  7  8  1  0  0  0  0
  8  9  1  0  0  0  0
  8 16  2  0  0  0  0
  9 14  1  0  0  0  0
  9 10  1  0  0  0  0
  9 24  1  0  0  0  0
 10 11  1  0  0  0  0
 10 25  1  0  0  0  0
 10 26  1  0  0  0  0
 11 15  1  0  0  0  0
 11 12  1  0  0  0  0
 11 27  1  0  0  0  0
 12 13  1  0  0  0  0
 12 28  1  0  0  0  0
 12 29  1  0  0  0  0
 13 14  1  0  0  0  0
 13 30  1  0  0  0  0
 13 31  1  0  0  0  0
 14 15  1  0  0  0  0
 14 32  1  0  0  0  0
 15 33  1  0  0  0  0
 15 34  1  0  0  0  0
 16 17  1  0  0  0  0
 16 35  1  0  0  0  0
M  END
> <s_m_source_file>
AV-unprocessed.smi

> <i_m_source_file_index>
3277

> <i_lp_mmshare_version>
43012

> <i_f3d_flags>
0

> <s_epik_input>
W0NIM11bTkhdQyg9TylbQ0gyXWMxbmMoW2NIXXMxKVtDQEhdKFtDSDJdW0NAQEhdMjMpW0NAQEhdKFtDSDJdMylbQ0gyXVtDSDJdMg==

> <s_epik_cmdline>
J2VwaWtfcHl0aG9uJywgJy1waCcsICc3LjAnLCAnLXRuJywgJzgnLCAnLW1hJywgJzIwMCcsICctbWV0YWxfYmluZGluZycsICctaW1hZScsICc8aW5maWxlLm1hZT4nLCAnLW9tYWUnLCAnPG91dGZpbGUubWFlPic=

> <r_lp_tautomer_probability>
1

> <r_epik_Ionization_Penalty>
8.50008e-05

> <r_epik_Ionization_Penalty_Charging>
0

> <r_epik_Ionization_Penalty_Neutral>
8.50008e-05

> <r_epik_State_Penalty>
-0

> <r_epik_Charging_Adjusted_Penalty>
0

> <i_epik_Tot_Q>
0

> <i_epik_Tot_abs_Q>
0

> <r_epik_Metal_State_Penalty>
-0

> <b_epik_Metal_Only>
0

> <s_lp_Force_Field>
OPLS_2005

> <r_lp_Energy>
44.9061

> <b_lp_Chiralities_Consistent>
1

> <s_lp_Variant>
AV-unprocessed.smi:3277-1

> <Gold.Version>
5.8.1

> <Gold.Id.Protein>
6NUR|6NUR_protein|mol2

> <Gold.PLP.Fitness>
44.9301

> <Gold.PLP.PLP>
-39.3458

> <Gold.PLP.part.hbond>
-1.0000

> <Gold.PLP.part.metal>
0.0000

> <Gold.PLP.part.buried>
-2.9820

> <Gold.PLP.part.nonpolar>
-35.1184

> <Gold.PLP.part.repulsive>
0.1742

> <Gold.PLP.ligand.clash>
0.0000

> <Gold.PLP.ligand.torsion>
0.2087

> <Gold.PLP.Chemscore.Hbond>
1.0000

> <Gold.PLP.Chemscore.CHOScore>
1.0000

> <Gold.PLP.Chemscore.Metal>
0.0000

> <Gold.Chemscore.Hbonds>
donor molecule, donor type, donor heavy atom, donor atom, acceptor molecule, acceptor atom, score
      P1  H 10752 10763       L1     4  1.00
      L1  C    16    35       P1  8028  0.97

> <Gold.PLP.Chemscore.Internal.Correction>
0.0017

> <Gold.Rescore>
     Score         DG    S(hbond)    S(metal)    S(lipo)     H(rot)  DE(clash)    DE(int)     intcor
     17.26     -18.75       0.91        0.00     118.26       1.41       0.01       1.47       ----

> <Gold.Chemscore.Fitness>
17.2644

> <Gold.Chemscore.DG>
-18.7519

> <Gold.Chemscore.ZeroCoef>
-5.4800

> <Gold.Chemscore.Hbond>
0.9133

> <Gold.Chemscore.Metal>
0.0000

> <Gold.Chemscore.Lipo>
118.2618

> <Gold.Chemscore.Internal_Hbond>
0.0000

> <Gold.Chemscore.DEClash>
0.0149

> <Gold.Chemscore.DEInternal>
1.4726

> <Gold.Chemscore.Rot>
1.4122

> <Gold.Chemscore.Internal.Correction>
   9.000000E+99

> <Gold.Chemscore.Hbonds>
donor molecule, donor type, donor heavy atom, donor atom, acceptor molecule, acceptor atom, score
      P1  H 10752 10763       L1     4  0.93

> <Gold.Chemscore.Hbond.Weighted>
-3.0503

> <Gold.Chemscore.Metal.Weighted>
-0.0000

> <Gold.Chemscore.Lipo.Weighted>
-13.8366

> <Gold.Chemscore.Internal_Hbond.Weighted>
0.0000

> <Gold.Chemscore.DEClash.Weighted>
0.0149

> <Gold.Chemscore.DEInternal.Weighted>
1.4726

> <Gold.Chemscore.Rot.Weighted>
3.6151

> <Gold.Chemscore.Internal.Correction.Weighted>
   9.000000E+99

> <Gold.Protein.RotatedTorsions>
[ 6907 6896 6895 6894 ] final   -3.45 input  -60.11 | X-H torsion
[ 7974 7965 7964 7962 ] final -101.67 input  175.53 | X-H torsion
[ 8008 7997 7996 7995 ] final   50.79 input   59.86 | X-H torsion
[ 10167 10162 10161 10158 ] final  138.97 input  -65.29 | X-H torsion
[ 10718 10713 10712 10709 ] final  153.47 input   66.30 | X-H torsion
[ 10763 10752 10751 10750 ] final   63.96 input  -60.55 | X-H torsion
[ 11005 11000 10999 10996 ] final  -43.34 input  -57.11 | X-H torsion

> <Gold.Protein.ActiveResidues>
 VAL166  LYS551  ARG553  GLY616  TRP617  ASP618  TYR619  PRO620  LYS621  CYS622 
 ASP623  PHE694  ASN695  SER759  ASP760  ASP761  ALA762  ILE779  LEU786  VAL792 
 PHE793  MET794  SER795  GLU796  ALA797  LYS798  CYS799  TRP800  GLU811  SER814 

> <Gold.Protein.RotatedAtoms>
  151.5136  135.1065  159.9859 H   0  0  0  0  0  0  0  0  0  0  0  0  # atno 6907 bound_to 6896
  152.4651  133.7901  159.6908 H   0  0  0  0  0  0  0  0  0  0  0  0  # atno 6908 bound_to 6896
  150.8631  133.7551  159.3011 H   0  0  0  0  0  0  0  0  0  0  0  0  # atno 6909 bound_to 6896
  145.2786  140.9320  143.2945 H   0  0  0  0  0  0  0  0  0  0  0  0  # atno 7974 bound_to 7965
  155.4246  140.3448  155.4274 H   0  0  0  0  0  0  0  0  0  0  0  0  # atno 8008 bound_to 7997
  156.1373  140.1531  156.9006 H   0  0  0  0  0  0  0  0  0  0  0  0  # atno 8009 bound_to 7997
  154.4942  140.0832  156.7641 H   0  0  0  0  0  0  0  0  0  0  0  0  # atno 8010 bound_to 7997
  139.5093  144.6322  151.5788 H   0  0  0  0  0  0  0  0  0  0  0  0  # atno 10167 bound_to 10162
  157.2444  131.0766  151.1771 H   0  0  0  0  0  0  0  0  0  0  0  0  # atno 10718 bound_to 10713
  153.0037  135.5410  154.6435 H   0  0  0  0  0  0  0  0  0  0  0  0  # atno 10763 bound_to 10752
  154.5684  135.2839  155.0853 H   0  0  0  0  0  0  0  0  0  0  0  0  # atno 10764 bound_to 10752
  154.2029  135.6481  153.5145 H   0  0  0  0  0  0  0  0  0  0  0  0  # atno 10765 bound_to 10752
  141.0377  133.6793  156.2719 H   0  0  0  0  0  0  0  0  0  0  0  0  # atno 11005 bound_to 11000
  144.9272  139.4341  143.6512 LP  0  0  0  0  0  0  0  0  0  0  0  0  # atno 17320 bound_to 7965
  146.3223  139.8165  142.8935 LP  0  0  0  0  0  0  0  0  0  0  0  0  # atno 17321 bound_to 7965
  140.6059  143.9525  150.6418 LP  0  0  0  0  0  0  0  0  0  0  0  0  # atno 17342 bound_to 10162
  140.2752  143.3428  152.1201 LP  0  0  0  0  0  0  0  0  0  0  0  0  # atno 17343 bound_to 10162
  157.3345  130.7002  149.6344 LP  0  0  0  0  0  0  0  0  0  0  0  0  # atno 17370 bound_to 10713
  155.9668  130.4298  150.4847 LP  0  0  0  0  0  0  0  0  0  0  0  0  # atno 17371 bound_to 10713
  140.6292  134.5281  157.5557 LP  0  0  0  0  0  0  0  0  0  0  0  0  # atno 17394 bound_to 11000
  139.9252  134.8069  156.1089 LP  0  0  0  0  0  0  0  0  0  0  0  0  # atno 17395 bound_to 11000

$$$$
