AV-unprocessed.smi:1247|AV-procd|sdf|5245|dock1
  -GOLD-   22720 4353D 1   1.00000     0.00000
 Structure written by MMmdl.
 46 47  0  0  0  0  0  0  0  0  1 V2000
  146.2975  129.8196  152.1486 C   0  0  0  0  0  0  0  0  0  0  0  0
  146.1851  131.3074  151.9936 C   0  0  0  0  0  0  0  0  0  0  0  0
  146.9844  132.3163  152.6050 C   0  0  0  0  0  0  0  0  0  0  0  0
  146.4392  133.4721  152.1154 C   0  0  0  0  0  0  0  0  0  0  0  0
  146.8018  134.7586  152.3661 N   0  0  0  0  0  0  0  0  0  0  0  0
  146.1134  135.7146  153.0146 C   0  0  0  0  0  0  0  0  0  0  0  0
  144.9984  135.5752  153.5176 O   0  0  0  0  0  0  0  0  0  0  0  0
  146.7972  136.8677  153.0473 N   0  0  0  0  0  0  0  0  0  0  0  0
  146.3231  138.1014  153.6636 C   0  0  0  0  0  0  0  0  0  0  0  0
  147.2160  139.2971  153.2815 C   0  0  0  0  0  0  0  0  0  0  0  0
  148.2879  139.5949  154.2293 N   0  0  0  0  0  0  0  0  0  0  0  0
  149.4725  138.7680  154.0198 C   0  0  0  0  0  0  0  0  0  0  0  0
  150.5843  139.0888  155.0361 C   0  0  1  0  0  0  0  0  0  0  0  0
  151.8636  138.2907  154.7641 C   0  0  0  0  0  0  0  0  0  0  0  0
  150.9069  140.4767  154.9693 O   0  0  0  0  0  0  0  0  0  0  0  0
  149.8021  141.3665  155.1360 C   0  0  2  0  0  0  0  0  0  0  0  0
  149.3390  141.4354  156.6012 C   0  0  0  0  0  0  0  0  0  0  0  0
  148.6716  141.0009  154.1539 C   0  0  0  0  0  0  0  0  0  0  0  0
  145.3970  133.1491  151.2730 N   0  0  0  0  0  0  0  0  0  0  0  0
  144.5058  134.0094  150.5190 C   0  0  0  0  0  0  0  0  0  0  0  0
  145.2427  131.8093  151.2040 N   0  0  0  0  0  0  0  0  0  0  0  0
  147.1367  129.5525  152.7912 H   0  0  0  0  0  0  0  0  0  0  0  0
  146.4510  129.3339  151.1847 H   0  0  0  0  0  0  0  0  0  0  0  0
  145.3938  129.4024  152.5933 H   0  0  0  0  0  0  0  0  0  0  0  0
  147.8119  132.1895  153.2866 H   0  0  0  0  0  0  0  0  0  0  0  0
  147.7055  135.0282  152.0062 H   0  0  0  0  0  0  0  0  0  0  0  0
  147.7076  136.8967  152.6122 H   0  0  0  0  0  0  0  0  0  0  0  0
  145.2875  138.2893  153.3747 H   0  0  0  0  0  0  0  0  0  0  0  0
  146.3232  137.9468  154.7421 H   0  0  0  0  0  0  0  0  0  0  0  0
  147.6361  139.1371  152.2875 H   0  0  0  0  0  0  0  0  0  0  0  0
  146.5771  140.1773  153.1963 H   0  0  0  0  0  0  0  0  0  0  0  0
  149.2170  137.7130  154.1108 H   0  0  0  0  0  0  0  0  0  0  0  0
  149.8498  138.9131  153.0062 H   0  0  0  0  0  0  0  0  0  0  0  0
  150.2384  138.8463  156.0413 H   0  0  0  0  0  0  0  0  0  0  0  0
  151.6769  137.2180  154.8206 H   0  0  0  0  0  0  0  0  0  0  0  0
  152.6354  138.5323  155.4953 H   0  0  0  0  0  0  0  0  0  0  0  0
  152.2631  138.5104  153.7735 H   0  0  0  0  0  0  0  0  0  0  0  0
  150.1665  142.3595  154.8716 H   0  0  0  0  0  0  0  0  0  0  0  0
  148.5725  142.2001  156.7293 H   0  0  0  0  0  0  0  0  0  0  0  0
  150.1702  141.6868  157.2602 H   0  0  0  0  0  0  0  0  0  0  0  0
  148.9154  140.4911  156.9424 H   0  0  0  0  0  0  0  0  0  0  0  0
  149.0002  141.2312  153.1392 H   0  0  0  0  0  0  0  0  0  0  0  0
  147.8054  141.6356  154.3455 H   0  0  0  0  0  0  0  0  0  0  0  0
  144.9562  134.9913  150.3738 H   0  0  0  0  0  0  0  0  0  0  0  0
  143.5664  134.1250  151.0602 H   0  0  0  0  0  0  0  0  0  0  0  0
  144.3030  133.5714  149.5410 H   0  0  0  0  0  0  0  0  0  0  0  0
  1  2  1  0  0  0  0
  1 22  1  0  0  0  0
  1 23  1  0  0  0  0
  1 24  1  0  0  0  0
  2 21  2  0  0  0  0
  2  3  1  0  0  0  0
  3  4  2  0  0  0  0
  3 25  1  0  0  0  0
  4  5  1  0  0  0  0
  4 19  1  0  0  0  0
  5  6  1  0  0  0  0
  5 26  1  0  0  0  0
  6  7  2  0  0  0  0
  6  8  1  0  0  0  0
  8  9  1  0  0  0  0
  8 27  1  0  0  0  0
  9 10  1  0  0  0  0
  9 28  1  0  0  0  0
  9 29  1  0  0  0  0
 10 11  1  0  0  0  0
 10 30  1  0  0  0  0
 10 31  1  0  0  0  0
 11 18  1  0  0  0  0
 11 12  1  0  0  0  0
 12 13  1  0  0  0  0
 12 32  1  0  0  0  0
 12 33  1  0  0  0  0
 13 14  1  0  0  0  0
 13 15  1  0  0  0  0
 13 34  1  0  0  0  0
 14 35  1  0  0  0  0
 14 36  1  0  0  0  0
 14 37  1  0  0  0  0
 15 16  1  0  0  0  0
 16 17  1  0  0  0  0
 16 18  1  0  0  0  0
 16 38  1  0  0  0  0
 17 39  1  0  0  0  0
 17 40  1  0  0  0  0
 17 41  1  0  0  0  0
 18 42  1  0  0  0  0
 18 43  1  0  0  0  0
 19 20  1  0  0  0  0
 19 21  1  0  0  0  0
 20 44  1  0  0  0  0
 20 45  1  0  0  0  0
 20 46  1  0  0  0  0
M  END
> <s_m_source_file>
AV-unprocessed.smi

> <i_m_source_file_index>
1247

> <i_lp_mmshare_version>
43012

> <i_f3d_flags>
0

> <s_epik_input>
W0NIM11jMVtjSF1jKG4objEpW0NIM10pW05IXUMoPU8pW05IXVtDSDJdW0NIMl1OMltDSDJdW0NAQEhdKFtDSDNdKU9bQ0BASF0oW0NIM10pW0NIMl0y

> <s_epik_cmdline>
J2VwaWtfcHl0aG9uJywgJy1waCcsICc3LjAnLCAnLXRuJywgJzgnLCAnLW1hJywgJzIwMCcsICctbWV0YWxfYmluZGluZycsICctaW1hZScsICc8aW5maWxlLm1hZT4nLCAnLW9tYWUnLCAnPG91dGZpbGUubWFlPic=

> <r_lp_tautomer_probability>
1

> <r_epik_Ionization_Penalty>
0.233972

> <r_epik_Ionization_Penalty_Charging>
0

> <r_epik_Ionization_Penalty_Neutral>
0.233972

> <r_epik_State_Penalty>
0.224627

> <r_epik_Charging_Adjusted_Penalty>
0.224627

> <i_epik_Tot_Q>
0

> <i_epik_Tot_abs_Q>
0

> <r_epik_Metal_State_Penalty>
0.224624

> <b_epik_Metal_Only>
0

> <s_lp_Force_Field>
OPLS_2005

> <r_lp_Energy>
23.3755

> <b_lp_Chiralities_Consistent>
1

> <s_lp_Variant>
AV-unprocessed.smi:1247-3

> <Gold.Version>
5.8.1

> <Gold.Id.Protein>
6NUR|6NUR_protein|mol2

> <Gold.PLP.Fitness>
42.0980

> <Gold.PLP.PLP>
-35.4145

> <Gold.PLP.part.hbond>
-3.0000

> <Gold.PLP.part.metal>
0.0000

> <Gold.PLP.part.buried>
-3.1386

> <Gold.PLP.part.nonpolar>
-29.4209

> <Gold.PLP.part.repulsive>
0.3904

> <Gold.PLP.ligand.clash>
0.0000

> <Gold.PLP.ligand.torsion>
1.1848

> <Gold.PLP.Chemscore.Hbond>
3.0000

> <Gold.PLP.Chemscore.CHOScore>
0.0000

> <Gold.PLP.Chemscore.Metal>
0.0000

> <Gold.Chemscore.Hbonds>
donor molecule, donor type, donor heavy atom, donor atom, acceptor molecule, acceptor atom, score
      L1  H     5    26       P1  7948  1.00
      L1  H     8    27       P1  7948  1.00
      P1  H  7989  7998       L1    15  1.00

> <Gold.PLP.Chemscore.Internal.Correction>
0.0531

> <Gold.Rescore>
     Score         DG    S(hbond)    S(metal)    S(lipo)     H(rot)  DE(clash)    DE(int)     intcor
     18.40     -19.62       2.52        0.00      81.47       1.48       0.17       1.05       ----

> <Gold.Chemscore.Fitness>
18.4034

> <Gold.Chemscore.DG>
-19.6195

> <Gold.Chemscore.ZeroCoef>
-5.4800

> <Gold.Chemscore.Hbond>
2.5169

> <Gold.Chemscore.Metal>
0.0000

> <Gold.Chemscore.Lipo>
81.4663

> <Gold.Chemscore.Internal_Hbond>
0.0000

> <Gold.Chemscore.DEClash>
0.1692

> <Gold.Chemscore.DEInternal>
1.0468

> <Gold.Chemscore.Rot>
1.4838

> <Gold.Chemscore.Internal.Correction>
   9.000000E+99

> <Gold.Chemscore.Hbonds>
donor molecule, donor type, donor heavy atom, donor atom, acceptor molecule, acceptor atom, score
      L1  H     5    26       P1  7948  0.78
      L1  H     8    27       P1  7948  0.95
      P1  H  7989  7998       L1    15  0.44

> <Gold.Chemscore.Hbond.Weighted>
-8.4064

> <Gold.Chemscore.Metal.Weighted>
-0.0000

> <Gold.Chemscore.Lipo.Weighted>
-9.5316

> <Gold.Chemscore.Internal_Hbond.Weighted>
0.0000

> <Gold.Chemscore.DEClash.Weighted>
0.1692

> <Gold.Chemscore.DEInternal.Weighted>
1.0468

> <Gold.Chemscore.Rot.Weighted>
3.7985

> <Gold.Chemscore.Internal.Correction.Weighted>
   9.000000E+99

> <Gold.Protein.RotatedTorsions>
[ 6907 6896 6895 6894 ] final -116.60 input  -60.11 | X-H torsion
[ 7974 7965 7964 7962 ] final -114.44 input  175.53 | X-H torsion
[ 8008 7997 7996 7995 ] final  -37.81 input   59.86 | X-H torsion
[ 10167 10162 10161 10158 ] final   16.88 input  -65.29 | X-H torsion
[ 10718 10713 10712 10709 ] final   75.50 input   66.30 | X-H torsion
[ 10763 10752 10751 10750 ] final  -97.21 input  -60.55 | X-H torsion
[ 11005 11000 10999 10996 ] final -104.62 input  -57.11 | X-H torsion

> <Gold.Protein.ActiveResidues>
 VAL166  LYS551  ARG553  GLY616  TRP617  ASP618  TYR619  PRO620  LYS621  CYS622 
 ASP623  PHE694  ASN695  SER759  ASP760  ASP761  ALA762  ILE779  LEU786  VAL792 
 PHE793  MET794  SER795  GLU796  ALA797  LYS798  CYS799  TRP800  GLU811  SER814 

> <Gold.Protein.RotatedAtoms>
  150.8069  133.8494  159.3200 H   0  0  0  0  0  0  0  0  0  0  0  0  # atno 6907 bound_to 6896
  151.6290  135.1023  160.0127 H   0  0  0  0  0  0  0  0  0  0  0  0  # atno 6908 bound_to 6896
  152.4160  133.6999  159.6474 H   0  0  0  0  0  0  0  0  0  0  0  0  # atno 6909 bound_to 6896
  145.1202  140.8664  143.3818 H   0  0  0  0  0  0  0  0  0  0  0  0  # atno 7974 bound_to 7965
  154.4047  140.1594  156.2597 H   0  0  0  0  0  0  0  0  0  0  0  0  # atno 8008 bound_to 7997
  155.9047  140.3431  155.6030 H   0  0  0  0  0  0  0  0  0  0  0  0  # atno 8009 bound_to 7997
  155.7407  140.0792  157.2238 H   0  0  0  0  0  0  0  0  0  0  0  0  # atno 8010 bound_to 7997
  140.5766  143.9061  150.6755 H   0  0  0  0  0  0  0  0  0  0  0  0  # atno 10167 bound_to 10162
  157.6636  130.9729  150.1362 H   0  0  0  0  0  0  0  0  0  0  0  0  # atno 10718 bound_to 10713
  154.7308  135.5055  153.8961 H   0  0  0  0  0  0  0  0  0  0  0  0  # atno 10763 bound_to 10752
  153.0948  135.6669  153.9793 H   0  0  0  0  0  0  0  0  0  0  0  0  # atno 10764 bound_to 10752
  153.9594  135.3049  155.3413 H   0  0  0  0  0  0  0  0  0  0  0  0  # atno 10765 bound_to 10752
  141.1092  133.8739  157.1633 H   0  0  0  0  0  0  0  0  0  0  0  0  # atno 11005 bound_to 11000
  145.0749  139.3003  143.5813 LP  0  0  0  0  0  0  0  0  0  0  0  0  # atno 17320 bound_to 7965
  146.3521  140.0236  142.8656 LP  0  0  0  0  0  0  0  0  0  0  0  0  # atno 17321 bound_to 7965
  140.2550  143.3565  152.1373 LP  0  0  0  0  0  0  0  0  0  0  0  0  # atno 17342 bound_to 10162
  139.5146  144.6950  151.5655 LP  0  0  0  0  0  0  0  0  0  0  0  0  # atno 17343 bound_to 10162
  156.2196  130.3673  149.8571 LP  0  0  0  0  0  0  0  0  0  0  0  0  # atno 17370 bound_to 10713
  156.6428  130.8711  151.3517 LP  0  0  0  0  0  0  0  0  0  0  0  0  # atno 17371 bound_to 10713
  139.9977  135.0040  157.0119 LP  0  0  0  0  0  0  0  0  0  0  0  0  # atno 17394 bound_to 11000
  140.4821  134.1279  155.7218 LP  0  0  0  0  0  0  0  0  0  0  0  0  # atno 17395 bound_to 11000

$$$$
