AV-unprocessed.smi:388|AV-procd|sdf|2475|dock4
  -GOLD-   2262022413D 1   1.00000     0.00000
 Structure written by MMmdl.
 34 35  0  0  0  0  0  0  0  0  1 V2000
  147.1117  139.7649  153.2346 C   0  0  0  0  0  0  0  0  0  0  0  0
  147.7958  139.9248  154.5085 N   0  0  0  0  0  0  0  0  0  0  0  0
  149.0188  140.4547  154.6458 C   0  0  0  0  0  0  0  0  0  0  0  0
  149.5505  141.1596  153.7853 O   0  0  0  0  0  0  0  0  0  0  0  0
  149.5645  140.1091  155.8270 N   0  0  0  0  0  0  0  0  0  0  0  0
  150.8691  140.1271  156.1689 C   0  0  0  0  0  0  0  0  0  0  0  0
  151.7914  140.4906  155.4368 O   0  0  0  0  0  0  0  0  0  0  0  0
  151.1864  139.6458  157.5899 C   0  0  0  0  0  0  0  0  0  0  0  0
  151.8673  140.6526  158.3923 N   0  0  0  0  0  0  0  0  0  0  0  0
  153.1165  140.3104  158.9722 C   0  0  0  0  0  0  0  0  0  0  0  0
  153.6323  139.2034  158.8044 O   0  0  0  0  0  0  0  0  0  0  0  0
  153.7272  141.3741  159.7666 C   0  0  0  0  0  0  0  0  0  0  0  0
  154.9605  141.0737  160.4151 C   0  0  0  0  0  0  0  0  0  0  0  0
  155.9717  140.8275  160.9213 N   0  0  0  0  0  0  0  0  0  0  0  0
  153.1413  142.5856  159.8789 C   0  0  0  0  0  0  0  0  0  0  0  0
  151.9552  142.9036  159.2501 N   0  0  0  0  0  0  0  0  0  0  0  0
  151.2897  144.1521  159.4955 C   0  0  0  0  0  0  0  0  0  0  0  0
  151.8562  145.4451  158.9410 C   0  0  0  0  0  0  0  0  0  0  0  0
  151.9380  145.1592  160.4204 C   0  0  0  0  0  0  0  0  0  0  0  0
  151.2513  141.9222  158.5185 C   0  0  0  0  0  0  0  0  0  0  0  0
  150.1511  142.1653  158.0158 O   0  0  0  0  0  0  0  0  0  0  0  0
  146.1263  139.3270  153.3943 H   0  0  0  0  0  0  0  0  0  0  0  0
  147.6747  139.1058  152.5726 H   0  0  0  0  0  0  0  0  0  0  0  0
  146.9807  140.7279  152.7392 H   0  0  0  0  0  0  0  0  0  0  0  0
  147.3093  139.6099  155.3354 H   0  0  0  0  0  0  0  0  0  0  0  0
  148.9244  139.7892  156.5391 H   0  0  0  0  0  0  0  0  0  0  0  0
  150.2769  139.3536  158.1176 H   0  0  0  0  0  0  0  0  0  0  0  0
  151.8001  138.7439  157.5747 H   0  0  0  0  0  0  0  0  0  0  0  0
  153.6243  143.3435  160.4790 H   0  0  0  0  0  0  0  0  0  0  0  0
  150.2037  144.0954  159.5461 H   0  0  0  0  0  0  0  0  0  0  0  0
  152.7853  145.4017  158.3756 H   0  0  0  0  0  0  0  0  0  0  0  0
  151.1470  146.2018  158.6126 H   0  0  0  0  0  0  0  0  0  0  0  0
  151.2851  145.7285  161.0788 H   0  0  0  0  0  0  0  0  0  0  0  0
  152.9198  144.9249  160.8277 H   0  0  0  0  0  0  0  0  0  0  0  0
  1  2  1  0  0  0  0
  1 22  1  0  0  0  0
  1 23  1  0  0  0  0
  1 24  1  0  0  0  0
  2  3  1  0  0  0  0
  2 25  1  0  0  0  0
  3  4  2  0  0  0  0
  3  5  1  0  0  0  0
  5  6  1  0  0  0  0
  5 26  1  0  0  0  0
  6  7  2  0  0  0  0
  6  8  1  0  0  0  0
  8  9  1  0  0  0  0
  8 27  1  0  0  0  0
  8 28  1  0  0  0  0
  9 20  1  0  0  0  0
  9 10  1  0  0  0  0
 10 11  2  0  0  0  0
 10 12  1  0  0  0  0
 12 13  1  0  0  0  0
 12 15  2  0  0  0  0
 13 14  3  0  0  0  0
 15 16  1  0  0  0  0
 15 29  1  0  0  0  0
 16 17  1  0  0  0  0
 16 20  1  0  0  0  0
 17 19  1  0  0  0  0
 17 18  1  0  0  0  0
 17 30  1  0  0  0  0
 18 19  1  0  0  0  0
 18 31  1  0  0  0  0
 18 32  1  0  0  0  0
 19 33  1  0  0  0  0
 19 34  1  0  0  0  0
 20 21  2  0  0  0  0
M  END
> <s_m_source_file>
AV-unprocessed.smi

> <i_m_source_file_index>
388

> <i_lp_mmshare_version>
43012

> <i_f3d_flags>
0

> <s_epik_input>
W0NIM11bTkhdQyg9TylbTkhdQyg9TylbQ0gyXW4xYyg9TyljKEMjTilbY0hdbihjMT1PKVtDSF0yW0NIMl1bQ0gyXTI=

> <s_epik_cmdline>
J2VwaWtfcHl0aG9uJywgJy1waCcsICc3LjAnLCAnLXRuJywgJzgnLCAnLW1hJywgJzIwMCcsICctbWV0YWxfYmluZGluZycsICctaW1hZScsICc8aW5maWxlLm1hZT4nLCAnLW9tYWUnLCAnPG91dGZpbGUubWFlPic=

> <r_lp_tautomer_probability>
1

> <r_epik_Ionization_Penalty>
2.95777e-05

> <r_epik_Ionization_Penalty_Charging>
6.31124e-11

> <r_epik_Ionization_Penalty_Neutral>
2.95776e-05

> <r_epik_State_Penalty>
-0

> <r_epik_Charging_Adjusted_Penalty>
6.31124e-11

> <i_epik_Tot_Q>
0

> <i_epik_Tot_abs_Q>
0

> <r_epik_Metal_State_Penalty>
-0

> <b_epik_Metal_Only>
0

> <s_lp_Force_Field>
OPLS_2005

> <r_lp_Energy>
33.5858

> <b_lp_Chiralities_Consistent>
1

> <s_lp_Variant>
AV-unprocessed.smi:388-1

> <Gold.Version>
5.8.1

> <Gold.Id.Protein>
6NUR|6NUR_protein|mol2

> <Gold.PLP.Fitness>
47.1721

> <Gold.PLP.PLP>
-41.3926

> <Gold.PLP.part.hbond>
-4.6880

> <Gold.PLP.part.metal>
0.0000

> <Gold.PLP.part.buried>
-3.6555

> <Gold.PLP.part.nonpolar>
-33.9404

> <Gold.PLP.part.repulsive>
2.4479

> <Gold.PLP.ligand.clash>
0.0000

> <Gold.PLP.ligand.torsion>
0.2921

> <Gold.PLP.Chemscore.Hbond>
2.0543

> <Gold.PLP.Chemscore.CHOScore>
0.0000

> <Gold.PLP.Chemscore.Metal>
0.0000

> <Gold.Chemscore.Hbonds>
donor molecule, donor type, donor heavy atom, donor atom, acceptor molecule, acceptor atom, score
      P1  H  7989  7998       L1     7  0.74
      P1  H  7997  8009       L1    11  0.33
      P1  H  8011  8017       L1     4  0.90

> <Gold.PLP.Chemscore.Internal.Correction>
0.2008

> <Gold.Rescore>
     Score         DG    S(hbond)    S(metal)    S(lipo)     H(rot)  DE(clash)    DE(int)     intcor
     10.43     -14.70       1.78        0.00      68.93       1.87       1.46       2.81       ----

> <Gold.Chemscore.Fitness>
10.4316

> <Gold.Chemscore.DG>
-14.6999

> <Gold.Chemscore.ZeroCoef>
-5.4800

> <Gold.Chemscore.Hbond>
1.7767

> <Gold.Chemscore.Metal>
0.0000

> <Gold.Chemscore.Lipo>
68.9261

> <Gold.Chemscore.Internal_Hbond>
0.0000

> <Gold.Chemscore.DEClash>
1.4622

> <Gold.Chemscore.DEInternal>
2.8062

> <Gold.Chemscore.Rot>
1.8667

> <Gold.Chemscore.Internal.Correction>
   9.000000E+99

> <Gold.Chemscore.Hbonds>
donor molecule, donor type, donor heavy atom, donor atom, acceptor molecule, acceptor atom, score
      P1  H  7989  7998       L1     7  0.72
      P1  H  7997  8009       L1    11  0.01
      P1  H  8011  8017       L1     4  0.88

> <Gold.Chemscore.Hbond.Weighted>
-5.9343

> <Gold.Chemscore.Metal.Weighted>
-0.0000

> <Gold.Chemscore.Lipo.Weighted>
-8.0644

> <Gold.Chemscore.Internal_Hbond.Weighted>
0.0000

> <Gold.Chemscore.DEClash.Weighted>
1.4622

> <Gold.Chemscore.DEInternal.Weighted>
2.8062

> <Gold.Chemscore.Rot.Weighted>
4.7787

> <Gold.Chemscore.Internal.Correction.Weighted>
   9.000000E+99

> <Gold.Protein.RotatedTorsions>
[ 6907 6896 6895 6894 ] final  169.29 input  -60.11 | X-H torsion
[ 7974 7965 7964 7962 ] final  -28.40 input  175.53 | X-H torsion
[ 8008 7997 7996 7995 ] final  142.34 input   59.86 | X-H torsion
[ 10167 10162 10161 10158 ] final   -2.24 input  -65.29 | X-H torsion
[ 10718 10713 10712 10709 ] final -123.80 input   66.30 | X-H torsion
[ 10763 10752 10751 10750 ] final -175.76 input  -60.55 | X-H torsion
[ 11005 11000 10999 10996 ] final   37.15 input  -57.11 | X-H torsion

> <Gold.Protein.ActiveResidues>
 VAL166  LYS551  ARG553  GLY616  TRP617  ASP618  TYR619  PRO620  LYS621  CYS622 
 ASP623  PHE694  ASN695  SER759  ASP760  ASP761  ALA762  ILE779  LEU786  VAL792 
 PHE793  MET794  SER795  GLU796  ALA797  LYS798  CYS799  TRP800  GLU811  SER814 

> <Gold.Protein.RotatedAtoms>
  151.8341  133.3413  159.3622 H   0  0  0  0  0  0  0  0  0  0  0  0  # atno 6907 bound_to 6896
  150.7255  134.5454  159.5777 H   0  0  0  0  0  0  0  0  0  0  0  0  # atno 6908 bound_to 6896
  152.2914  134.7718  160.0428 H   0  0  0  0  0  0  0  0  0  0  0  0  # atno 6909 bound_to 6896
  146.1291  140.5277  142.8701 H   0  0  0  0  0  0  0  0  0  0  0  0  # atno 7974 bound_to 7965
  156.2951  140.2291  156.4712 H   0  0  0  0  0  0  0  0  0  0  0  0  # atno 8008 bound_to 7997
  154.7933  140.0453  157.1239 H   0  0  0  0  0  0  0  0  0  0  0  0  # atno 8009 bound_to 7997
  154.9619  140.3055  155.5030 H   0  0  0  0  0  0  0  0  0  0  0  0  # atno 8010 bound_to 7997
  140.6843  143.6680  150.8209 H   0  0  0  0  0  0  0  0  0  0  0  0  # atno 10167 bound_to 10162
  156.1533  130.6550  150.9945 H   0  0  0  0  0  0  0  0  0  0  0  0  # atno 10718 bound_to 10713
  154.5806  135.2836  155.0737 H   0  0  0  0  0  0  0  0  0  0  0  0  # atno 10763 bound_to 10752
  154.2074  135.6414  153.5109 H   0  0  0  0  0  0  0  0  0  0  0  0  # atno 10764 bound_to 10752
  153.0087  135.5483  154.6458 H   0  0  0  0  0  0  0  0  0  0  0  0  # atno 10765 bound_to 10752
  140.2255  134.3590  155.7986 H   0  0  0  0  0  0  0  0  0  0  0  0  # atno 11005 bound_to 11000
  144.7672  140.5556  143.6695 LP  0  0  0  0  0  0  0  0  0  0  0  0  # atno 17320 bound_to 7965
  145.5301  139.1475  143.3504 LP  0  0  0  0  0  0  0  0  0  0  0  0  # atno 17321 bound_to 7965
  140.0385  143.5370  152.2728 LP  0  0  0  0  0  0  0  0  0  0  0  0  # atno 17342 bound_to 10162
  139.6189  144.7625  151.2784 LP  0  0  0  0  0  0  0  0  0  0  0  0  # atno 17343 bound_to 10162
  157.6675  131.0868  150.7694 LP  0  0  0  0  0  0  0  0  0  0  0  0  # atno 17370 bound_to 10713
  156.7760  130.4844  149.5409 LP  0  0  0  0  0  0  0  0  0  0  0  0  # atno 17371 bound_to 10713
  141.2221  133.7216  156.8645 LP  0  0  0  0  0  0  0  0  0  0  0  0  # atno 17394 bound_to 11000
  140.1805  134.9036  157.2943 LP  0  0  0  0  0  0  0  0  0  0  0  0  # atno 17395 bound_to 11000

$$$$
