AV-unprocessed.smi:1679|AV-procd|sdf|6736|dock1
  -GOLD-   22720 7483D 1   1.00000     0.00000
 Structure written by MMmdl.
 44 45  0  0  0  0  0  0  0  0  2 V2000
  153.3010  142.7158  162.4548 C   0  0  0  0  0  0  0  0  0  0  0  0
  152.3956  143.0709  161.2635 C   0  0  1  0  0  0  0  0  0  0  0  0
  152.2344  144.5997  161.1398 C   0  0  0  0  0  0  0  0  0  0  0  0
  151.3386  144.9842  159.9527 C   0  0  0  0  0  0  0  0  0  0  0  0
  151.8755  144.3907  158.6429 C   0  0  0  0  0  0  0  0  0  0  0  0
  152.0283  142.8663  158.7504 C   0  0  0  0  0  0  0  0  0  0  0  0
  152.9249  142.4683  159.9421 C   0  0  2  0  0  0  0  0  0  0  0  0
  152.9352  141.0535  160.0874 O   0  0  0  0  0  0  0  0  0  0  0  0
  154.0226  140.3977  159.4511 C   0  0  0  0  0  0  0  0  0  0  0  0
  155.3047  140.6936  160.2360 C   0  0  0  0  0  0  0  0  0  0  0  0
  156.3289  141.2351  159.3536 N   0  0  0  0  0  0  0  0  0  0  0  0
  156.8200  140.6028  158.2794 C   0  0  0  0  0  0  0  0  0  0  0  0
  156.4270  139.4943  157.9130 O   0  0  0  0  0  0  0  0  0  0  0  0
  157.8986  141.3574  157.4895 C   0  0  0  0  0  0  0  0  0  0  0  0
  159.1014  141.6477  158.2864 N   0  0  0  0  0  0  0  0  0  0  0  0
  159.3173  140.8834  159.4467 C   0  0  0  0  0  0  0  0  0  0  0  0
  160.3884  141.0810  160.2386 C   0  0  0  0  0  0  0  0  0  0  0  0
  161.3400  142.1206  159.8661 C   0  0  0  0  0  0  0  0  0  0  0  0
  162.3268  142.3112  160.5746 O   0  0  0  0  0  0  0  0  0  0  0  0
  161.0841  142.8390  158.7338 N   0  5  0  0  0  0  0  0  0  0  0  0
  159.9885  142.6287  157.9393 C   0  0  0  0  0  0  0  0  0  0  0  0
  159.7750  143.2906  156.9228 O   0  0  0  0  0  0  0  0  0  0  0  0
  154.3114  143.1010  162.3138 H   0  0  0  0  0  0  0  0  0  0  0  0
  153.3732  141.6365  162.5925 H   0  0  0  0  0  0  0  0  0  0  0  0
  152.9112  143.1357  163.3824 H   0  0  0  0  0  0  0  0  0  0  0  0
  151.4098  142.6455  161.4590 H   0  0  0  0  0  0  0  0  0  0  0  0
  151.8123  145.0057  162.0599 H   0  0  0  0  0  0  0  0  0  0  0  0
  153.2137  145.0650  161.0194 H   0  0  0  0  0  0  0  0  0  0  0  0
  150.3231  144.6268  160.1285 H   0  0  0  0  0  0  0  0  0  0  0  0
  151.2751  146.0697  159.8707 H   0  0  0  0  0  0  0  0  0  0  0  0
  151.2061  144.6404  157.8194 H   0  0  0  0  0  0  0  0  0  0  0  0
  152.8407  144.8397  158.4053 H   0  0  0  0  0  0  0  0  0  0  0  0
  151.0438  142.4109  158.8662 H   0  0  0  0  0  0  0  0  0  0  0  0
  152.4371  142.4820  157.8162 H   0  0  0  0  0  0  0  0  0  0  0  0
  153.9391  142.8378  159.7773 H   0  0  0  0  0  0  0  0  0  0  0  0
  153.8522  139.3216  159.4221 H   0  0  0  0  0  0  0  0  0  0  0  0
  154.1298  140.7406  158.4207 H   0  0  0  0  0  0  0  0  0  0  0  0
  155.1015  141.4008  161.0415 H   0  0  0  0  0  0  0  0  0  0  0  0
  155.6721  139.7754  160.6967 H   0  0  0  0  0  0  0  0  0  0  0  0
  156.7058  142.1416  159.5892 H   0  0  0  0  0  0  0  0  0  0  0  0
  158.1573  140.7597  156.6144 H   0  0  0  0  0  0  0  0  0  0  0  0
  157.4816  142.2841  157.0901 H   0  0  0  0  0  0  0  0  0  0  0  0
  158.5627  140.1387  159.6539 H   0  0  0  0  0  0  0  0  0  0  0  0
  160.5380  140.4871  161.1283 H   0  0  0  0  0  0  0  0  0  0  0  0
  1  2  1  0  0  0  0
  1 23  1  0  0  0  0
  1 24  1  0  0  0  0
  1 25  1  0  0  0  0
  2  7  1  0  0  0  0
  2  3  1  0  0  0  0
  2 26  1  0  0  0  0
  3  4  1  0  0  0  0
  3 27  1  0  0  0  0
  3 28  1  0  0  0  0
  4  5  1  0  0  0  0
  4 29  1  0  0  0  0
  4 30  1  0  0  0  0
  5  6  1  0  0  0  0
  5 31  1  0  0  0  0
  5 32  1  0  0  0  0
  6  7  1  0  0  0  0
  6 33  1  0  0  0  0
  6 34  1  0  0  0  0
  7  8  1  0  0  0  0
  7 35  1  0  0  0  0
  8  9  1  0  0  0  0
  9 10  1  0  0  0  0
  9 36  1  0  0  0  0
  9 37  1  0  0  0  0
 10 11  1  0  0  0  0
 10 38  1  0  0  0  0
 10 39  1  0  0  0  0
 11 12  1  0  0  0  0
 11 40  1  0  0  0  0
 12 13  2  0  0  0  0
 12 14  1  0  0  0  0
 14 15  1  0  0  0  0
 14 41  1  0  0  0  0
 14 42  1  0  0  0  0
 15 21  1  0  0  0  0
 15 16  1  0  0  0  0
 16 17  2  0  0  0  0
 16 43  1  0  0  0  0
 17 18  1  0  0  0  0
 17 44  1  0  0  0  0
 18 19  2  0  0  0  0
 18 20  1  0  0  0  0
 20 21  1  0  0  0  0
 21 22  2  0  0  0  0
M  CHG  1  20  -1
M  END
> <s_m_source_file>
AV-unprocessed.smi

> <i_m_source_file_index>
1679

> <i_lp_mmshare_version>
43012

> <i_f3d_flags>
0

> <s_epik_input>
W0NIM11bQ0BASF0xW0NIMl1bQ0gyXVtDSDJdW0NIMl1bQ0BIXTFPW0NIMl1bQ0gyXVtOSF1DKD1PKVtDSDJdbjJbY0hdW2NIXWMoPU8pW25IXWMyPU8=

> <s_epik_cmdline>
J2VwaWtfcHl0aG9uJywgJy1waCcsICc3LjAnLCAnLXRuJywgJzgnLCAnLW1hJywgJzIwMCcsICctbWV0YWxfYmluZGluZycsICctaW1hZScsICc8aW5maWxlLm1hZT4nLCAnLW9tYWUnLCAnPG91dGZpbGUubWFlPic=

> <r_lp_tautomer_probability>
0.999537

> <r_epik_Ionization_Penalty>
3.07454

> <r_epik_Ionization_Penalty_Charging>
2.80088e-08

> <r_epik_Ionization_Penalty_Neutral>
3.07454

> <r_epik_State_Penalty>
3.07357

> <r_epik_Charging_Adjusted_Penalty>
3.07357

> <i_epik_Tot_Q>
-1

> <i_epik_Tot_abs_Q>
1

> <r_epik_Metal_State_Penalty>
0.45948

> <b_epik_Metal_Only>
1

> <s_lp_Force_Field>
OPLS_2005

> <r_lp_Energy>
20.702

> <b_lp_Chiralities_Consistent>
1

> <s_lp_Variant>
AV-unprocessed.smi:1679-8

> <Gold.Version>
5.8.1

> <Gold.Id.Protein>
6NUR|6NUR_protein|mol2

> <Gold.PLP.Fitness>
47.3407

> <Gold.PLP.PLP>
-46.5800

> <Gold.PLP.part.hbond>
-4.0000

> <Gold.PLP.part.metal>
0.0000

> <Gold.PLP.part.buried>
-2.8862

> <Gold.PLP.part.nonpolar>
-39.9274

> <Gold.PLP.part.repulsive>
0.2293

> <Gold.PLP.ligand.clash>
0.0000

> <Gold.PLP.ligand.torsion>
1.1663

> <Gold.PLP.Chemscore.Hbond>
1.0000

> <Gold.PLP.Chemscore.CHOScore>
0.0000

> <Gold.PLP.Chemscore.Metal>
0.0000

> <Gold.Chemscore.Hbonds>
donor molecule, donor type, donor heavy atom, donor atom, acceptor molecule, acceptor atom, score
      P1  H  7997  8010       L1    13  0.05

> <Gold.PLP.Chemscore.Internal.Correction>
0.0932

> <Gold.Rescore>
     Score         DG    S(hbond)    S(metal)    S(lipo)     H(rot)  DE(clash)    DE(int)     intcor
     11.00     -15.59       0.82        0.00     116.58       2.45       1.86       2.73       ----

> <Gold.Chemscore.Fitness>
10.9976

> <Gold.Chemscore.DG>
-15.5939

> <Gold.Chemscore.ZeroCoef>
-5.4800

> <Gold.Chemscore.Hbond>
0.8213

> <Gold.Chemscore.Metal>
0.0000

> <Gold.Chemscore.Lipo>
116.5813

> <Gold.Chemscore.Internal_Hbond>
0.0000

> <Gold.Chemscore.DEClash>
1.8622

> <Gold.Chemscore.DEInternal>
2.7341

> <Gold.Chemscore.Rot>
2.4490

> <Gold.Chemscore.Internal.Correction>
   9.000000E+99

> <Gold.Chemscore.Hbond.Weighted>
-2.7433

> <Gold.Chemscore.Metal.Weighted>
-0.0000

> <Gold.Chemscore.Lipo.Weighted>
-13.6400

> <Gold.Chemscore.Internal_Hbond.Weighted>
0.0000

> <Gold.Chemscore.DEClash.Weighted>
1.8622

> <Gold.Chemscore.DEInternal.Weighted>
2.7341

> <Gold.Chemscore.Rot.Weighted>
6.2694

> <Gold.Chemscore.Internal.Correction.Weighted>
   9.000000E+99

> <Gold.Protein.RotatedTorsions>
[ 6907 6896 6895 6894 ] final  -95.46 input  -60.11 | X-H torsion
[ 7974 7965 7964 7962 ] final   -9.22 input  175.53 | X-H torsion
[ 8008 7997 7996 7995 ] final  -21.52 input   59.86 | X-H torsion
[ 10167 10162 10161 10158 ] final  -77.43 input  -65.29 | X-H torsion
[ 10718 10713 10712 10709 ] final  136.72 input   66.30 | X-H torsion
[ 10763 10752 10751 10750 ] final  -47.90 input  -60.55 | X-H torsion
[ 11005 11000 10999 10996 ] final -162.47 input  -57.11 | X-H torsion

> <Gold.Protein.ActiveResidues>
 VAL166  LYS551  ARG553  GLY616  TRP617  ASP618  TYR619  PRO620  LYS621  CYS622 
 ASP623  PHE694  ASN695  SER759  ASP760  ASP761  ALA762  ILE779  LEU786  VAL792 
 PHE793  MET794  SER795  GLU796  ALA797  LYS798  CYS799  TRP800  GLU811  SER814 

> <Gold.Protein.RotatedAtoms>
  150.6964  134.1654  159.4191 H   0  0  0  0  0  0  0  0  0  0  0  0  # atno 6907 bound_to 6896
  151.9633  135.0110  160.0558 H   0  0  0  0  0  0  0  0  0  0  0  0  # atno 6908 bound_to 6896
  152.1907  133.4736  159.5043 H   0  0  0  0  0  0  0  0  0  0  0  0  # atno 6909 bound_to 6896
  146.2258  140.2584  142.8350 H   0  0  0  0  0  0  0  0  0  0  0  0  # atno 7974 bound_to 7965
  154.4701  140.2032  156.0017 H   0  0  0  0  0  0  0  0  0  0  0  0  # atno 8008 bound_to 7997
  156.0995  140.3246  155.7894 H   0  0  0  0  0  0  0  0  0  0  0  0  # atno 8009 bound_to 7997
  155.4821  140.0539  157.2956 H   0  0  0  0  0  0  0  0  0  0  0  0  # atno 8010 bound_to 7997
  140.4771  143.2411  151.8116 H   0  0  0  0  0  0  0  0  0  0  0  0  # atno 10167 bound_to 10162
  157.4437  131.1060  151.0114 H   0  0  0  0  0  0  0  0  0  0  0  0  # atno 10718 bound_to 10713
  154.0690  135.6607  153.4822 H   0  0  0  0  0  0  0  0  0  0  0  0  # atno 10763 bound_to 10752
  153.0398  135.5153  154.7585 H   0  0  0  0  0  0  0  0  0  0  0  0  # atno 10764 bound_to 10752
  154.6645  135.3020  154.9791 H   0  0  0  0  0  0  0  0  0  0  0  0  # atno 10765 bound_to 10752
  140.6089  134.4870  157.5213 H   0  0  0  0  0  0  0  0  0  0  0  0  # atno 11005 bound_to 11000
  144.9358  140.8025  143.5661 LP  0  0  0  0  0  0  0  0  0  0  0  0  # atno 17320 bound_to 7965
  145.2531  139.2023  143.4931 LP  0  0  0  0  0  0  0  0  0  0  0  0  # atno 17321 bound_to 7965
  139.4827  144.4820  151.9295 LP  0  0  0  0  0  0  0  0  0  0  0  0  # atno 17342 bound_to 10162
  140.3905  144.2621  150.5900 LP  0  0  0  0  0  0  0  0  0  0  0  0  # atno 17343 bound_to 10162
  157.0968  130.5965  149.5451 LP  0  0  0  0  0  0  0  0  0  0  0  0  # atno 17370 bound_to 10713
  155.9959  130.5026  150.7475 LP  0  0  0  0  0  0  0  0  0  0  0  0  # atno 17371 bound_to 10713
  139.9200  134.8167  156.1240 LP  0  0  0  0  0  0  0  0  0  0  0  0  # atno 17394 bound_to 11000
  141.0821  133.6749  156.2359 LP  0  0  0  0  0  0  0  0  0  0  0  0  # atno 17395 bound_to 11000

$$$$
