AV-unprocessed.smi:157|AV-procd|sdf|1307|dock1
  -GOLD-   2262018593D 1   1.00000     0.00000
 Structure written by MMmdl.
 36 38  0  0  0  0  0  0  0  0  2 V2000
  144.7080  132.4798  148.3783 O   0  0  0  0  0  0  0  0  0  0  0  0
  144.8845  132.0965  149.7253 C   0  0  0  0  0  0  0  0  0  0  0  0
  145.8324  133.0779  150.4321 C   0  0  1  0  0  0  0  0  0  0  0  0
  145.1641  134.3217  150.6151 O   0  0  0  0  0  0  0  0  0  0  0  0
  145.7100  134.9299  151.7324 C   0  0  1  0  0  0  0  0  0  0  0  0
  144.7574  135.9717  152.2218 N   0  0  0  0  0  0  0  0  0  0  0  0
  145.0199  137.2920  152.3043 C   0  0  0  0  0  0  0  0  0  0  0  0
  144.0141  138.0217  152.7563 N   0  3  0  0  0  0  0  0  0  0  0  0
  142.9755  137.1481  152.9998 C   0  0  0  0  0  0  0  0  0  0  0  0
  143.4567  135.8784  152.6690 C   0  0  0  0  0  0  0  0  0  0  0  0
  142.8117  134.6326  152.7303 N   0  0  0  0  0  0  0  0  0  0  0  0
  141.7282  134.4324  153.4074 C   0  0  0  0  0  0  0  0  0  0  0  0
  140.9495  135.3464  154.0972 N   0  0  0  0  0  0  0  0  0  0  0  0
  140.5428  136.6207  153.5324 C   0  0  0  0  0  0  0  0  0  0  0  0
  141.6641  137.6679  153.5016 C   0  0  1  0  0  0  0  0  0  0  0  0
  141.7681  138.2561  154.7819 O   0  0  0  0  0  0  0  0  0  0  0  0
  145.8961  133.8144  152.7517 C   0  0  0  0  0  0  0  0  0  0  0  0
  146.2298  132.6282  151.8566 C   0  0  2  0  0  0  0  0  0  0  0  0
  147.6134  132.3441  151.9200 O   0  0  0  0  0  0  0  0  0  0  0  0
  146.7282  133.2497  149.8312 H   0  0  0  0  0  0  0  0  0  0  0  0
  146.6351  135.4515  151.4799 H   0  0  0  0  0  0  0  0  0  0  0  0
  141.3482  138.4677  152.8310 H   0  0  0  0  0  0  0  0  0  0  0  0
  145.6737  131.7471  152.1801 H   0  0  0  0  0  0  0  0  0  0  0  0
  145.0387  133.3583  148.2689 H   0  0  0  0  0  0  0  0  0  0  0  0
  143.9222  132.0369  150.2350 H   0  0  0  0  0  0  0  0  0  0  0  0
  145.3146  131.0944  149.7237 H   0  0  0  0  0  0  0  0  0  0  0  0
  145.9691  137.7119  152.0231 H   0  0  0  0  0  0  0  0  0  0  0  0
  141.3246  133.4208  153.4698 H   0  0  0  0  0  0  0  0  0  0  0  0
  140.2668  134.9998  154.7563 H   0  0  0  0  0  0  0  0  0  0  0  0
  140.2087  136.4320  152.5110 H   0  0  0  0  0  0  0  0  0  0  0  0
  139.6720  136.9997  154.0688 H   0  0  0  0  0  0  0  0  0  0  0  0
  142.6329  138.6243  154.8781 H   0  0  0  0  0  0  0  0  0  0  0  0
  146.6661  134.0710  153.4807 H   0  0  0  0  0  0  0  0  0  0  0  0
  144.9594  133.6313  153.2790 H   0  0  0  0  0  0  0  0  0  0  0  0
  147.8538  131.8377  151.1592 H   0  0  0  0  0  0  0  0  0  0  0  0
  144.0102  139.0255  152.8854 H   0  0  0  0  0  0  0  0  0  0  0  0
  1  2  1  0  0  0  0
  1 24  1  0  0  0  0
  2  3  1  0  0  0  0
  2 25  1  0  0  0  0
  2 26  1  0  0  0  0
  3 20  1  0  0  0  0
  3 18  1  0  0  0  0
  3  4  1  0  0  0  0
  4  5  1  0  0  0  0
  5 21  1  0  0  0  0
  5  6  1  0  0  0  0
  5 17  1  0  0  0  0
  6 10  1  0  0  0  0
  6  7  1  0  0  0  0
  7  8  2  0  0  0  0
  7 27  1  0  0  0  0
  8  9  1  0  0  0  0
  8 36  1  0  0  0  0
  9 15  1  0  0  0  0
  9 10  2  0  0  0  0
 10 11  1  0  0  0  0
 11 12  2  0  0  0  0
 12 13  1  0  0  0  0
 12 28  1  0  0  0  0
 13 14  1  0  0  0  0
 13 29  1  0  0  0  0
 14 15  1  0  0  0  0
 14 30  1  0  0  0  0
 14 31  1  0  0  0  0
 15 22  1  0  0  0  0
 15 16  1  0  0  0  0
 16 32  1  0  0  0  0
 17 18  1  0  0  0  0
 17 33  1  0  0  0  0
 17 34  1  0  0  0  0
 18 23  1  0  0  0  0
 18 19  1  0  0  0  0
 19 35  1  0  0  0  0
M  CHG  1   8   1
M  END
> <s_m_source_file>
AV-unprocessed.smi

> <i_m_source_file_index>
157

> <i_lp_mmshare_version>
43012

> <i_f3d_flags>
0

> <s_epik_input>
W09IXVtDSDJdW0NASF0xT1tDQEhdKFtDSDJdW0NAQEhdMVtPSF0pbihbY0hdbjIpYyhjMjMpTj1bQ0hdW05IXVtDSDJdW0NASF0zW09IXQ==

> <s_epik_cmdline>
J2VwaWtfcHl0aG9uJywgJy1waCcsICc3LjAnLCAnLXRuJywgJzgnLCAnLW1hJywgJzIwMCcsICctbWV0YWxfYmluZGluZycsICctaW1hZScsICc8aW5maWxlLm1hZT4nLCAnLW9tYWUnLCAnPG91dGZpbGUubWFlPic=

> <r_epik_Ionization_Penalty>
1.68594

> <r_epik_Ionization_Penalty_Charging>
0

> <r_epik_Ionization_Penalty_Neutral>
1.68594

> <r_epik_State_Penalty>
1.79006

> <r_epik_Charging_Adjusted_Penalty>
1.79006

> <i_epik_Tot_Q>
1

> <i_epik_Tot_abs_Q>
1

> <r_epik_Metal_State_Penalty>
5.85324

> <b_epik_Metal_Only>
0

> <s_epik_Chemistry_Notes>
This compound has an imine and may undergo hydrolysis. This compound contains an acetal/aminal-like group ( X-CH(R)-Y where X, Y are N, S, or O) that may be acid/base labile, releasing an aldehyde.

> <s_lp_Force_Field>
OPLS_2005

> <r_lp_Energy>
53.8219

> <b_lp_Chiralities_Consistent>
1

> <s_lp_Variant>
AV-unprocessed.smi:157-17

> <Gold.Version>
5.8.1

> <Gold.Id.Protein>
6NUR|6NUR_protein|mol2

> <Gold.PLP.Fitness>
49.7070

> <Gold.PLP.PLP>
-33.3967

> <Gold.PLP.part.hbond>
-5.7868

> <Gold.PLP.part.metal>
0.0000

> <Gold.PLP.part.buried>
-5.6324

> <Gold.PLP.part.nonpolar>
-23.3539

> <Gold.PLP.part.repulsive>
0.5114

> <Gold.PLP.ligand.clash>
0.0000

> <Gold.PLP.ligand.torsion>
0.0726

> <Gold.PLP.Chemscore.Hbond>
4.7176

> <Gold.PLP.Chemscore.CHOScore>
0.7604

> <Gold.PLP.Chemscore.Metal>
0.0000

> <Gold.Chemscore.Hbonds>
donor molecule, donor type, donor heavy atom, donor atom, acceptor molecule, acceptor atom, score
      L1  H     1    24       P1  7921  1.00
      L1  H     8    36       P1 10175  1.95
      L1  H    13    29       P1 11000  0.63
      L1  H    19    35       P1 10747  1.00
      L1  C    12    28       P1 10957  0.76

> <Gold.PLP.Chemscore.Internal.Correction>
0.0214

> <Gold.Rescore>
     Score         DG    S(hbond)    S(metal)    S(lipo)     H(rot)  DE(clash)    DE(int)     intcor
     12.06     -12.21       3.35        0.00      42.19       3.67       0.07       0.07       ----

> <Gold.Chemscore.Fitness>
12.0629

> <Gold.Chemscore.DG>
-12.2055

> <Gold.Chemscore.ZeroCoef>
-5.4800

> <Gold.Chemscore.Hbond>
3.3454

> <Gold.Chemscore.Metal>
0.0000

> <Gold.Chemscore.Lipo>
42.1943

> <Gold.Chemscore.Internal_Hbond>
0.0000

> <Gold.Chemscore.DEClash>
0.0707

> <Gold.Chemscore.DEInternal>
0.0719

> <Gold.Chemscore.Rot>
3.6659

> <Gold.Chemscore.Internal.Correction>
   9.000000E+99

> <Gold.Chemscore.Hbonds>
donor molecule, donor type, donor heavy atom, donor atom, acceptor molecule, acceptor atom, score
      L1  H     1    24       P1  7921  0.55
      L1  H     8    36       P1 10175  0.88
      L1  H    13    29       P1 11000  0.58
      L1  H    19    35       P1 10747  0.95

> <Gold.Chemscore.Hbond.Weighted>
-11.1736

> <Gold.Chemscore.Metal.Weighted>
-0.0000

> <Gold.Chemscore.Lipo.Weighted>
-4.9367

> <Gold.Chemscore.Internal_Hbond.Weighted>
0.0000

> <Gold.Chemscore.DEClash.Weighted>
0.0707

> <Gold.Chemscore.DEInternal.Weighted>
0.0719

> <Gold.Chemscore.Rot.Weighted>
9.3848

> <Gold.Chemscore.Internal.Correction.Weighted>
   9.000000E+99

> <Gold.Protein.RotatedTorsions>
[ 6907 6896 6895 6894 ] final  112.38 input  -60.11 | X-H torsion
[ 7974 7965 7964 7962 ] final -152.08 input  175.53 | X-H torsion
[ 8008 7997 7996 7995 ] final   -1.56 input   59.86 | X-H torsion
[ 10167 10162 10161 10158 ] final    6.17 input  -65.29 | X-H torsion
[ 10718 10713 10712 10709 ] final   77.32 input   66.30 | X-H torsion
[ 10763 10752 10751 10750 ] final  -44.16 input  -60.55 | X-H torsion
[ 11005 11000 10999 10996 ] final -115.19 input  -57.11 | X-H torsion

> <Gold.Protein.ActiveResidues>
 VAL166  LYS551  ARG553  GLY616  TRP617  ASP618  TYR619  PRO620  LYS621  CYS622 
 ASP623  PHE694  ASN695  SER759  ASP760  ASP761  ALA762  ILE779  LEU786  VAL792 
 PHE793  MET794  SER795  GLU796  ALA797  LYS798  CYS799  TRP800  GLU811  SER814 

> <Gold.Protein.RotatedAtoms>
  152.4919  133.8524  159.7208 H   0  0  0  0  0  0  0  0  0  0  0  0  # atno 6907 bound_to 6896
  150.9058  133.7051  159.2874 H   0  0  0  0  0  0  0  0  0  0  0  0  # atno 6908 bound_to 6896
  151.4477  135.1031  159.9741 H   0  0  0  0  0  0  0  0  0  0  0  0  # atno 6909 bound_to 6896
  144.7814  140.4711  143.5836 H   0  0  0  0  0  0  0  0  0  0  0  0  # atno 7974 bound_to 7965
  154.6454  140.2556  155.7274 H   0  0  0  0  0  0  0  0  0  0  0  0  # atno 8008 bound_to 7997
  156.2549  140.2879  156.0786 H   0  0  0  0  0  0  0  0  0  0  0  0  # atno 8009 bound_to 7997
  155.1532  140.0382  157.2816 H   0  0  0  0  0  0  0  0  0  0  0  0  # atno 8010 bound_to 7997
  140.6442  143.7702  150.7474 H   0  0  0  0  0  0  0  0  0  0  0  0  # atno 10167 bound_to 10162
  157.6706  130.9816  150.1625 H   0  0  0  0  0  0  0  0  0  0  0  0  # atno 10718 bound_to 10713
  154.0074  135.6686  153.4763 H   0  0  0  0  0  0  0  0  0  0  0  0  # atno 10763 bound_to 10752
  153.0636  135.5014  154.8145 H   0  0  0  0  0  0  0  0  0  0  0  0  # atno 10764 bound_to 10752
  154.7016  135.3080  154.9296 H   0  0  0  0  0  0  0  0  0  0  0  0  # atno 10765 bound_to 10752
  141.0504  133.9696  157.2846 H   0  0  0  0  0  0  0  0  0  0  0  0  # atno 11005 bound_to 11000
  145.6040  139.1506  143.3113 LP  0  0  0  0  0  0  0  0  0  0  0  0  # atno 17320 bound_to 7965
  146.2024  140.6160  142.9096 LP  0  0  0  0  0  0  0  0  0  0  0  0  # atno 17321 bound_to 7965
  140.1339  143.4501  152.2237 LP  0  0  0  0  0  0  0  0  0  0  0  0  # atno 17342 bound_to 10162
  139.5652  144.7431  151.4042 LP  0  0  0  0  0  0  0  0  0  0  0  0  # atno 17343 bound_to 10162
  156.2398  130.3690  149.8350 LP  0  0  0  0  0  0  0  0  0  0  0  0  # atno 17370 bound_to 10713
  156.6153  130.8604  151.3463 LP  0  0  0  0  0  0  0  0  0  0  0  0  # atno 17371 bound_to 10713
  139.9346  135.0197  156.8512 LP  0  0  0  0  0  0  0  0  0  0  0  0  # atno 17394 bound_to 11000
  140.6066  134.0121  155.7559 LP  0  0  0  0  0  0  0  0  0  0  0  0  # atno 17395 bound_to 11000

$$$$
