AV-unprocessed.smi:3149|AV-procd|sdf|12003|dock10
  -GOLD-   2272017413D 1   1.00000     0.00000
 Structure written by MMmdl.
 37 38  0  0  0  0  0  0  0  0  1 V2000
  147.4666  141.4380  156.7126 C   0  0  0  0  0  0  0  0  0  0  0  0
  149.0048  141.3416  156.7020 C   0  0  2  0  0  0  0  0  0  0  0  0
  149.5418  142.5201  157.3793 N   0  0  0  0  0  0  0  0  0  0  0  0
  150.8651  142.2724  157.9674 C   0  0  0  0  0  0  0  0  0  0  0  0
  151.2454  143.3243  159.0171 C   0  0  0  0  0  0  0  0  0  0  0  0
  150.6218  144.3826  159.1113 O   0  0  0  0  0  0  0  0  0  0  0  0
  152.3818  143.0714  159.7888 N   0  0  0  0  0  0  0  0  0  0  0  0
  152.4494  143.4534  161.1913 C   0  0  0  0  0  0  0  0  0  0  0  0
  153.3861  142.2525  161.3598 C   0  0  0  0  0  0  0  0  0  0  0  0
  152.8387  141.7120  160.0344 C   0  0  0  0  0  0  0  0  0  0  0  0
  149.5986  141.2813  155.2687 C   0  0  2  0  0  0  0  0  0  0  0  0
  148.5461  141.4927  154.1655 C   0  0  0  0  0  0  0  0  0  0  0  0
  150.2909  140.0174  155.0356 N   0  0  0  0  0  0  0  0  0  0  0  0
  149.7664  138.7408  154.9862 C   0  0  0  0  0  0  0  0  0  0  0  0
  150.8005  137.8828  154.7445 C   0  0  0  0  0  0  0  0  0  0  0  0
  151.9342  138.7378  154.6553 C   0  0  0  0  0  0  0  0  0  0  0  0
  151.6260  140.0126  154.8276 N   0  0  0  0  0  0  0  0  0  0  0  0
  147.0075  140.5470  156.2856 H   0  0  0  0  0  0  0  0  0  0  0  0
  147.1200  142.2985  156.1392 H   0  0  0  0  0  0  0  0  0  0  0  0
  147.0716  141.5354  157.7237 H   0  0  0  0  0  0  0  0  0  0  0  0
  149.3080  140.4379  157.2336 H   0  0  0  0  0  0  0  0  0  0  0  0
  149.5858  143.2817  156.7161 H   0  0  0  0  0  0  0  0  0  0  0  0
  150.8869  141.2853  158.4302 H   0  0  0  0  0  0  0  0  0  0  0  0
  151.6199  142.2839  157.1799 H   0  0  0  0  0  0  0  0  0  0  0  0
  152.9161  144.4230  161.3675 H   0  0  0  0  0  0  0  0  0  0  0  0
  151.5032  143.3356  161.7236 H   0  0  0  0  0  0  0  0  0  0  0  0
  154.4436  142.5193  161.3144 H   0  0  0  0  0  0  0  0  0  0  0  0
  153.1625  141.6275  162.2249 H   0  0  0  0  0  0  0  0  0  0  0  0
  152.0274  140.9928  160.1647 H   0  0  0  0  0  0  0  0  0  0  0  0
  153.6001  141.3669  159.3344 H   0  0  0  0  0  0  0  0  0  0  0  0
  150.3329  142.0840  155.1719 H   0  0  0  0  0  0  0  0  0  0  0  0
  148.1168  142.4931  154.2044 H   0  0  0  0  0  0  0  0  0  0  0  0
  147.7304  140.7738  154.2489 H   0  0  0  0  0  0  0  0  0  0  0  0
  148.9902  141.3765  153.1763 H   0  0  0  0  0  0  0  0  0  0  0  0
  148.7127  138.5513  155.1281 H   0  0  0  0  0  0  0  0  0  0  0  0
  150.7543  136.8085  154.6458 H   0  0  0  0  0  0  0  0  0  0  0  0
  152.9646  138.4719  154.4709 H   0  0  0  0  0  0  0  0  0  0  0  0
  1  2  1  0  0  0  0
  1 18  1  0  0  0  0
  1 19  1  0  0  0  0
  1 20  1  0  0  0  0
  2  3  1  0  0  0  0
  2 11  1  0  0  0  0
  2 21  1  0  0  0  0
  3  4  1  0  0  0  0
  3 22  1  0  0  0  0
  4  5  1  0  0  0  0
  4 23  1  0  0  0  0
  4 24  1  0  0  0  0
  5  6  2  0  0  0  0
  5  7  1  0  0  0  0
  7 10  1  0  0  0  0
  7  8  1  0  0  0  0
  8  9  1  0  0  0  0
  8 25  1  0  0  0  0
  8 26  1  0  0  0  0
  9 10  1  0  0  0  0
  9 27  1  0  0  0  0
  9 28  1  0  0  0  0
 10 29  1  0  0  0  0
 10 30  1  0  0  0  0
 11 12  1  0  0  0  0
 11 13  1  0  0  0  0
 11 31  1  0  0  0  0
 12 32  1  0  0  0  0
 12 33  1  0  0  0  0
 12 34  1  0  0  0  0
 13 17  1  0  0  0  0
 13 14  1  0  0  0  0
 14 15  2  0  0  0  0
 14 35  1  0  0  0  0
 15 16  1  0  0  0  0
 15 36  1  0  0  0  0
 16 17  2  0  0  0  0
 16 37  1  0  0  0  0
M  END
> <s_m_source_file>
AV-unprocessed.smi

> <i_m_source_file_index>
3149

> <i_lp_mmshare_version>
43012

> <i_f3d_flags>
0

> <s_epik_input>
bjFbY0hdW2NIXVtjSF1uMVtDQEBIXShbQ0gzXSlbQ0BIXShbQ0gzXSlbTkhdW0NIMl1DKD1PKU4yW0NIMl1bQ0gyXVtDSDJdMg==

> <s_epik_cmdline>
J2VwaWtfcHl0aG9uJywgJy1waCcsICc3LjAnLCAnLXRuJywgJzgnLCAnLW1hJywgJzIwMCcsICctbWV0YWxfYmluZGluZycsICctaW1hZScsICc8aW5maWxlLm1hZT4nLCAnLW9tYWUnLCAnPG91dGZpbGUubWFlPic=

> <r_lp_tautomer_probability>
1

> <r_epik_Ionization_Penalty>
0.918674

> <r_epik_Ionization_Penalty_Charging>
0

> <r_epik_Ionization_Penalty_Neutral>
0.918674

> <r_epik_State_Penalty>
0.958258

> <r_epik_Charging_Adjusted_Penalty>
0.958258

> <i_epik_Tot_Q>
0

> <i_epik_Tot_abs_Q>
0

> <r_epik_Metal_State_Penalty>
0.956881

> <b_epik_Metal_Only>
0

> <s_lp_Force_Field>
OPLS_2005

> <r_lp_Energy>
24.7968

> <b_lp_Chiralities_Consistent>
1

> <s_lp_Variant>
AV-unprocessed.smi:3149-5

> <Gold.Version>
5.8.1

> <Gold.Id.Protein>
6NUR|6NUR_protein|mol2

> <Gold.PLP.Fitness>
42.6051

> <Gold.PLP.PLP>
-40.5072

> <Gold.PLP.part.hbond>
-2.0000

> <Gold.PLP.part.metal>
0.0000

> <Gold.PLP.part.buried>
-5.0512

> <Gold.PLP.part.nonpolar>
-34.0026

> <Gold.PLP.part.repulsive>
0.2082

> <Gold.PLP.ligand.clash>
0.0000

> <Gold.PLP.ligand.torsion>
2.3947

> <Gold.PLP.Chemscore.Hbond>
2.0000

> <Gold.PLP.Chemscore.CHOScore>
0.0000

> <Gold.PLP.Chemscore.Metal>
0.0000

> <Gold.Chemscore.Hbonds>
donor molecule, donor type, donor heavy atom, donor atom, acceptor molecule, acceptor atom, score
      L1  H     3    22       P1  8028  1.00
      P1  H  7989  7998       L1    17  0.95

> <Gold.PLP.Chemscore.Internal.Correction>
0.8874

> <Gold.Rescore>
     Score         DG    S(hbond)    S(metal)    S(lipo)     H(rot)  DE(clash)    DE(int)     intcor
     14.29     -16.55       1.91        0.00      79.09       1.79       0.01       2.26       ----

> <Gold.Chemscore.Fitness>
14.2904

> <Gold.Chemscore.DG>
-16.5529

> <Gold.Chemscore.ZeroCoef>
-5.4800

> <Gold.Chemscore.Hbond>
1.9148

> <Gold.Chemscore.Metal>
0.0000

> <Gold.Chemscore.Lipo>
79.0881

> <Gold.Chemscore.Internal_Hbond>
0.0000

> <Gold.Chemscore.DEClash>
0.0064

> <Gold.Chemscore.DEInternal>
2.2562

> <Gold.Chemscore.Rot>
1.7874

> <Gold.Chemscore.Internal.Correction>
   9.000000E+99

> <Gold.Chemscore.Hbonds>
donor molecule, donor type, donor heavy atom, donor atom, acceptor molecule, acceptor atom, score
      L1  H     3    22       P1  8028  0.98
      P1  H  7989  7998       L1    17  0.18

> <Gold.Chemscore.Hbond.Weighted>
-6.3955

> <Gold.Chemscore.Metal.Weighted>
-0.0000

> <Gold.Chemscore.Lipo.Weighted>
-9.2533

> <Gold.Chemscore.Internal_Hbond.Weighted>
0.0000

> <Gold.Chemscore.DEClash.Weighted>
0.0064

> <Gold.Chemscore.DEInternal.Weighted>
2.2562

> <Gold.Chemscore.Rot.Weighted>
4.5758

> <Gold.Chemscore.Internal.Correction.Weighted>
   9.000000E+99

> <Gold.Protein.RotatedTorsions>
[ 6907 6896 6895 6894 ] final   66.92 input  -60.11 | X-H torsion
[ 7974 7965 7964 7962 ] final  -71.06 input  175.53 | X-H torsion
[ 8008 7997 7996 7995 ] final  171.72 input   59.86 | X-H torsion
[ 10167 10162 10161 10158 ] final -130.55 input  -65.29 | X-H torsion
[ 10718 10713 10712 10709 ] final  174.55 input   66.30 | X-H torsion
[ 10763 10752 10751 10750 ] final  -82.00 input  -60.55 | X-H torsion
[ 11005 11000 10999 10996 ] final  -39.17 input  -57.11 | X-H torsion

> <Gold.Protein.ActiveResidues>
 VAL166  LYS551  ARG553  GLY616  TRP617  ASP618  TYR619  PRO620  LYS621  CYS622 
 ASP623  PHE694  ASN695  SER759  ASP760  ASP761  ALA762  ILE779  LEU786  VAL792 
 PHE793  MET794  SER795  GLU796  ALA797  LYS798  CYS799  TRP800  GLU811  SER814 

> <Gold.Protein.RotatedAtoms>
  152.4515  134.5383  159.9831 H   0  0  0  0  0  0  0  0  0  0  0  0  # atno 6907 bound_to 6896
  151.5454  133.3420  159.2951 H   0  0  0  0  0  0  0  0  0  0  0  0  # atno 6908 bound_to 6896
  150.8446  134.7781  159.7023 H   0  0  0  0  0  0  0  0  0  0  0  0  # atno 6909 bound_to 6896
  145.6830  140.9181  143.0822 H   0  0  0  0  0  0  0  0  0  0  0  0  # atno 7974 bound_to 7965
  156.1243  140.1504  156.9158 H   0  0  0  0  0  0  0  0  0  0  0  0  # atno 8008 bound_to 7997
  154.4860  140.0865  156.7528 H   0  0  0  0  0  0  0  0  0  0  0  0  # atno 8009 bound_to 7997
  155.4371  140.3429  155.4288 H   0  0  0  0  0  0  0  0  0  0  0  0  # atno 8010 bound_to 7997
  139.9282  143.6303  152.2536 H   0  0  0  0  0  0  0  0  0  0  0  0  # atno 10167 bound_to 10162
  156.9480  131.0022  151.2954 H   0  0  0  0  0  0  0  0  0  0  0  0  # atno 10718 bound_to 10713
  154.5704  135.5606  153.7090 H   0  0  0  0  0  0  0  0  0  0  0  0  # atno 10763 bound_to 10752
  153.0047  135.6295  154.2122 H   0  0  0  0  0  0  0  0  0  0  0  0  # atno 10764 bound_to 10752
  154.2061  135.2875  155.2954 H   0  0  0  0  0  0  0  0  0  0  0  0  # atno 10765 bound_to 10752
  141.0082  133.6921  156.2150 H   0  0  0  0  0  0  0  0  0  0  0  0  # atno 11005 bound_to 11000
  144.7020  139.8721  143.7441 LP  0  0  0  0  0  0  0  0  0  0  0  0  # atno 17320 bound_to 7965
  146.0948  139.3940  143.0383 LP  0  0  0  0  0  0  0  0  0  0  0  0  # atno 17321 bound_to 7965
  139.6804  144.7656  151.1618 LP  0  0  0  0  0  0  0  0  0  0  0  0  # atno 17342 bound_to 10162
  140.7644  143.5733  150.8973 LP  0  0  0  0  0  0  0  0  0  0  0  0  # atno 17343 bound_to 10162
  157.5741  130.8331  149.8431 LP  0  0  0  0  0  0  0  0  0  0  0  0  # atno 17370 bound_to 10713
  156.0375  130.3747  150.1521 LP  0  0  0  0  0  0  0  0  0  0  0  0  # atno 17371 bound_to 10713
  140.6778  134.4800  157.5588 LP  0  0  0  0  0  0  0  0  0  0  0  0  # atno 17394 bound_to 11000
  139.9075  134.8417  156.1651 LP  0  0  0  0  0  0  0  0  0  0  0  0  # atno 17395 bound_to 11000

$$$$
