AV-unprocessed.smi:2245|AV-procd|sdf|9079|dock2
  -GOLD-   2272012283D 1   1.00000     0.00000
 Structure written by MMmdl.
 45 46  0  0  0  0  0  0  0  0  2 V2000
  151.9642  145.7376  160.1289 C   0  0  0  0  0  0  0  0  0  0  0  0
  151.9510  144.3946  159.4296 C   0  0  0  0  0  0  0  0  0  0  0  0
  152.7460  143.3313  159.8980 C   0  0  0  0  0  0  0  0  0  0  0  0
  152.6885  142.1043  159.2084 C   0  0  0  0  0  0  0  0  0  0  0  0
  153.5169  140.9189  159.6570 C   0  0  0  0  0  0  0  0  0  0  0  0
  151.9066  141.9032  158.1261 N   0  0  0  0  0  0  0  0  0  0  0  0
  151.1355  142.9198  157.6670 C   0  0  0  0  0  0  0  0  0  0  0  0
  150.2779  142.8104  156.5404 N   0  0  0  0  0  0  0  0  0  0  0  0
  150.0752  141.7403  155.7519 C   0  0  0  0  0  0  0  0  0  0  0  0
  150.6310  140.6480  155.8727 O   0  0  0  0  0  0  0  0  0  0  0  0
  149.1681  142.0031  154.7999 N   0  0  0  0  0  0  0  0  0  0  0  0
  148.7036  141.0462  153.8010 C   0  0  0  0  0  0  0  0  0  0  0  0
  148.0727  139.7963  154.4452 C   0  0  1  0  0  0  0  0  0  0  0  0
  147.0161  139.0979  153.5933 C   0  0  0  0  0  0  0  0  0  0  0  0
  146.9500  137.7113  154.2259 C   0  0  0  0  0  0  0  0  0  0  0  0
  148.3375  137.3941  154.6336 N   0  3  2  0  0  0  0  0  0  0  0  0
  148.4607  136.5108  155.8197 C   0  0  0  0  0  0  0  0  0  0  0  0
  149.7063  135.6079  155.7694 C   0  0  0  0  0  0  0  0  0  0  0  0
  149.5068  134.6448  154.8709 F   0  0  0  0  0  0  0  0  0  0  0  0
  150.7900  136.2964  155.4128 F   0  0  0  0  0  0  0  0  0  0  0  0
  149.9138  135.0453  156.9598 F   0  0  0  0  0  0  0  0  0  0  0  0
  149.0755  138.6757  154.7500 C   0  0  0  0  0  0  0  0  0  0  0  0
  151.1358  144.1835  158.2994 C   0  0  0  0  0  0  0  0  0  0  0  0
  152.8808  145.8710  160.7046 H   0  0  0  0  0  0  0  0  0  0  0  0
  151.1164  145.8144  160.8101 H   0  0  0  0  0  0  0  0  0  0  0  0
  151.8986  146.5497  159.4043 H   0  0  0  0  0  0  0  0  0  0  0  0
  153.3815  143.4533  160.7631 H   0  0  0  0  0  0  0  0  0  0  0  0
  154.2000  141.1952  160.4607 H   0  0  0  0  0  0  0  0  0  0  0  0
  154.1089  140.5321  158.8269 H   0  0  0  0  0  0  0  0  0  0  0  0
  152.8686  140.1206  160.0190 H   0  0  0  0  0  0  0  0  0  0  0  0
  149.7471  143.6396  156.3184 H   0  0  0  0  0  0  0  0  0  0  0  0
  148.7652  142.9284  154.7675 H   0  0  0  0  0  0  0  0  0  0  0  0
  147.9746  141.5507  153.1664 H   0  0  0  0  0  0  0  0  0  0  0  0
  149.5321  140.7595  153.1511 H   0  0  0  0  0  0  0  0  0  0  0  0
  147.6026  140.0807  155.3884 H   0  0  0  0  0  0  0  0  0  0  0  0
  146.0539  139.6114  153.6029 H   0  0  0  0  0  0  0  0  0  0  0  0
  147.3507  139.0221  152.5577 H   0  0  0  0  0  0  0  0  0  0  0  0
  146.3021  137.7475  155.1032 H   0  0  0  0  0  0  0  0  0  0  0  0
  146.5503  136.9629  153.5416 H   0  0  0  0  0  0  0  0  0  0  0  0
  148.5368  137.1440  156.7052 H   0  0  0  0  0  0  0  0  0  0  0  0
  147.5549  135.9147  155.9413 H   0  0  0  0  0  0  0  0  0  0  0  0
  149.8823  138.6638  154.0162 H   0  0  0  0  0  0  0  0  0  0  0  0
  149.5300  138.8160  155.7322 H   0  0  0  0  0  0  0  0  0  0  0  0
  150.5153  144.9847  157.9241 H   0  0  0  0  0  0  0  0  0  0  0  0
  148.7617  136.9037  153.8591 H   0  0  0  0  0  0  0  0  0  0  0  0
  1  2  1  0  0  0  0
  1 24  1  0  0  0  0
  1 25  1  0  0  0  0
  1 26  1  0  0  0  0
  2 23  1  0  0  0  0
  2  3  2  0  0  0  0
  3  4  1  0  0  0  0
  3 27  1  0  0  0  0
  4  5  1  0  0  0  0
  4  6  2  0  0  0  0
  5 28  1  0  0  0  0
  5 29  1  0  0  0  0
  5 30  1  0  0  0  0
  6  7  1  0  0  0  0
  7  8  1  0  0  0  0
  7 23  2  0  0  0  0
  8  9  1  0  0  0  0
  8 31  1  0  0  0  0
  9 10  2  0  0  0  0
  9 11  1  0  0  0  0
 11 12  1  0  0  0  0
 11 32  1  0  0  0  0
 12 13  1  0  0  0  0
 12 33  1  0  0  0  0
 12 34  1  0  0  0  0
 13 22  1  0  0  0  0
 13 14  1  0  0  0  0
 13 35  1  0  0  0  0
 14 15  1  0  0  0  0
 14 36  1  0  0  0  0
 14 37  1  0  0  0  0
 15 16  1  0  0  0  0
 15 38  1  0  0  0  0
 15 39  1  0  0  0  0
 16 17  1  0  0  0  0
 16 22  1  0  0  0  0
 16 45  1  0  0  0  0
 17 18  1  0  0  0  0
 17 40  1  0  0  0  0
 17 41  1  0  0  0  0
 18 19  1  0  0  0  0
 18 20  1  0  0  0  0
 18 21  1  0  0  0  0
 22 42  1  0  0  0  0
 22 43  1  0  0  0  0
 23 44  1  0  0  0  0
M  CHG  1  16   1
M  END
> <s_m_source_file>
AV-unprocessed.smi

> <i_m_source_file_index>
2245

> <i_lp_mmshare_version>
43012

> <i_f3d_flags>
0

> <s_epik_input>
W0NIM11jMVtjSF1jKFtDSDNdKW5jKFtjSF0xKVtOSF1DKD1PKVtOSF1bQ0gyXVtDQEBIXTJbQ0gyXVtDSDJdTihbQ0gyXTIpW0NIMl1DKEYpKEYpRg==

> <s_epik_cmdline>
J2VwaWtfcHl0aG9uJywgJy1waCcsICc3LjAnLCAnLXRuJywgJzgnLCAnLW1hJywgJzIwMCcsICctbWV0YWxfYmluZGluZycsICctaW1hZScsICc8aW5maWxlLm1hZT4nLCAnLW9tYWUnLCAnPG91dGZpbGUubWFlPic=

> <r_epik_Ionization_Penalty>
0.628315

> <r_epik_Ionization_Penalty_Charging>
0.628113

> <r_epik_Ionization_Penalty_Neutral>
0.000202271

> <r_epik_State_Penalty>
0.644725

> <r_epik_Charging_Adjusted_Penalty>
1.27284

> <i_epik_Tot_Q>
1

> <i_epik_Tot_abs_Q>
1

> <r_epik_Metal_State_Penalty>
0.644752

> <b_epik_Metal_Only>
0

> <s_lp_Force_Field>
OPLS_2005

> <r_lp_Energy>
28.7916

> <b_lp_Chiralities_Consistent>
1

> <s_lp_Variant>
AV-unprocessed.smi:2245-4

> <Gold.Version>
5.8.1

> <Gold.Id.Protein>
6NUR|6NUR_protein|mol2

> <Gold.PLP.Fitness>
53.8561

> <Gold.PLP.PLP>
-43.4505

> <Gold.PLP.part.hbond>
-3.0000

> <Gold.PLP.part.metal>
0.0000

> <Gold.PLP.part.buried>
-2.4686

> <Gold.PLP.part.nonpolar>
-38.5641

> <Gold.PLP.part.repulsive>
0.4522

> <Gold.PLP.ligand.clash>
0.0000

> <Gold.PLP.ligand.torsion>
0.8333

> <Gold.PLP.Chemscore.Hbond>
3.8640

> <Gold.PLP.Chemscore.CHOScore>
0.0000

> <Gold.PLP.Chemscore.Metal>
0.0000

> <Gold.Chemscore.Hbonds>
donor molecule, donor type, donor heavy atom, donor atom, acceptor molecule, acceptor atom, score
      L1  H     8    31       P1  8028  0.99
      L1  H    11    32       P1  8028  0.85
      L1  H    16    45       P1  7948  1.62

> <Gold.PLP.Chemscore.Internal.Correction>
0.4802

> <Gold.Rescore>
     Score         DG    S(hbond)    S(metal)    S(lipo)     H(rot)  DE(clash)    DE(int)     intcor
     17.86     -22.05       2.84        0.00      95.80       1.61       0.77       3.42       ----

> <Gold.Chemscore.Fitness>
17.8606

> <Gold.Chemscore.DG>
-22.0522

> <Gold.Chemscore.ZeroCoef>
-5.4800

> <Gold.Chemscore.Hbond>
2.8433

> <Gold.Chemscore.Metal>
0.0000

> <Gold.Chemscore.Lipo>
95.7957

> <Gold.Chemscore.Internal_Hbond>
0.0000

> <Gold.Chemscore.DEClash>
0.7694

> <Gold.Chemscore.DEInternal>
3.4222

> <Gold.Chemscore.Rot>
1.6143

> <Gold.Chemscore.Internal.Correction>
   9.000000E+99

> <Gold.Chemscore.Hbonds>
donor molecule, donor type, donor heavy atom, donor atom, acceptor molecule, acceptor atom, score
      L1  H     8    31       P1  8028  0.92
      L1  H    11    32       P1  8028  0.83
      L1  H    16    45       P1  7948  0.80

> <Gold.Chemscore.Hbond.Weighted>
-9.4966

> <Gold.Chemscore.Metal.Weighted>
-0.0000

> <Gold.Chemscore.Lipo.Weighted>
-11.2081

> <Gold.Chemscore.Internal_Hbond.Weighted>
0.0000

> <Gold.Chemscore.DEClash.Weighted>
0.7694

> <Gold.Chemscore.DEInternal.Weighted>
3.4222

> <Gold.Chemscore.Rot.Weighted>
4.1325

> <Gold.Chemscore.Internal.Correction.Weighted>
   9.000000E+99

> <Gold.Protein.RotatedTorsions>
[ 6907 6896 6895 6894 ] final  173.48 input  -60.11 | X-H torsion
[ 7974 7965 7964 7962 ] final  -64.40 input  175.53 | X-H torsion
[ 8008 7997 7996 7995 ] final   99.72 input   59.86 | X-H torsion
[ 10167 10162 10161 10158 ] final   76.88 input  -65.29 | X-H torsion
[ 10718 10713 10712 10709 ] final   33.51 input   66.30 | X-H torsion
[ 10763 10752 10751 10750 ] final   75.97 input  -60.55 | X-H torsion
[ 11005 11000 10999 10996 ] final -119.12 input  -57.11 | X-H torsion

> <Gold.Protein.ActiveResidues>
 VAL166  LYS551  ARG553  GLY616  TRP617  ASP618  TYR619  PRO620  LYS621  CYS622 
 ASP623  PHE694  ASN695  SER759  ASP760  ASP761  ALA762  ILE779  LEU786  VAL792 
 PHE793  MET794  SER795  GLU796  ALA797  LYS798  CYS799  TRP800  GLU811  SER814 

> <Gold.Protein.RotatedAtoms>
  151.7676  133.3338  159.3435 H   0  0  0  0  0  0  0  0  0  0  0  0  # atno 6907 bound_to 6896
  150.7474  134.6048  159.6064 H   0  0  0  0  0  0  0  0  0  0  0  0  # atno 6908 bound_to 6896
  152.3363  134.7196  160.0327 H   0  0  0  0  0  0  0  0  0  0  0  0  # atno 6909 bound_to 6896
  145.7671  140.8832  143.0399 H   0  0  0  0  0  0  0  0  0  0  0  0  # atno 7974 bound_to 7965
  156.1133  140.3224  155.8103 H   0  0  0  0  0  0  0  0  0  0  0  0  # atno 8008 bound_to 7997
  155.4635  140.0541  157.3005 H   0  0  0  0  0  0  0  0  0  0  0  0  # atno 8009 bound_to 7997
  154.4775  140.2038  155.9857 H   0  0  0  0  0  0  0  0  0  0  0  0  # atno 8010 bound_to 7997
  139.9875  144.5781  150.7846 H   0  0  0  0  0  0  0  0  0  0  0  0  # atno 10167 bound_to 10162
  157.2987  130.7339  149.6654 H   0  0  0  0  0  0  0  0  0  0  0  0  # atno 10718 bound_to 10713
  153.0692  135.4968  154.8268 H   0  0  0  0  0  0  0  0  0  0  0  0  # atno 10763 bound_to 10752
  154.6998  135.2999  154.9359 H   0  0  0  0  0  0  0  0  0  0  0  0  # atno 10764 bound_to 10752
  154.0087  135.6757  153.4816 H   0  0  0  0  0  0  0  0  0  0  0  0  # atno 10765 bound_to 10752
  141.0238  134.0084  157.3244 H   0  0  0  0  0  0  0  0  0  0  0  0  # atno 11005 bound_to 11000
  144.6819  139.9804  143.7483 LP  0  0  0  0  0  0  0  0  0  0  0  0  # atno 17320 bound_to 7965
  146.0206  139.3248  143.0815 LP  0  0  0  0  0  0  0  0  0  0  0  0  # atno 17321 bound_to 7965
  140.7467  143.2894  151.3372 LP  0  0  0  0  0  0  0  0  0  0  0  0  # atno 17342 bound_to 10162
  139.6364  144.0622  152.2519 LP  0  0  0  0  0  0  0  0  0  0  0  0  # atno 17343 bound_to 10162
  155.9670  130.4286  150.4798 LP  0  0  0  0  0  0  0  0  0  0  0  0  # atno 17370 bound_to 10713
  157.2774  131.0600  151.2220 LP  0  0  0  0  0  0  0  0  0  0  0  0  # atno 17371 bound_to 10713
  139.9163  135.0197  156.7893 LP  0  0  0  0  0  0  0  0  0  0  0  0  # atno 17394 bound_to 11000
  140.6527  133.9717  155.7763 LP  0  0  0  0  0  0  0  0  0  0  0  0  # atno 17395 bound_to 11000

$$$$
