AV-unprocessed.smi:35|AV-procd|sdf|261|dock3
  -GOLD-   2262016 23D 1   1.00000     0.00000
 Structure written by MMmdl.
 29 30  0  0  0  0  0  0  0  0  1 V2000
  151.0546  136.8817  159.6112 O   0  0  0  0  0  0  0  0  0  0  0  0
  150.6448  137.8337  158.9505 C   0  0  0  0  0  0  0  0  0  0  0  0
  151.4558  138.9543  158.7491 N   0  0  0  0  0  0  0  0  0  0  0  0
  151.1034  140.0908  158.0180 C   0  0  0  0  0  0  0  0  0  0  0  0
  151.9075  141.0131  157.8919 O   0  0  0  0  0  0  0  0  0  0  0  0
  149.8140  140.1111  157.4399 N   0  0  0  0  0  0  0  0  0  0  0  0
  149.3780  141.3111  156.6256 C   0  0  2  0  0  0  0  0  0  0  0  0
  147.9990  141.2328  156.4245 O   0  0  0  0  0  0  0  0  0  0  0  0
  147.6883  141.6222  155.0909 C   0  0  2  0  0  0  0  0  0  0  0  0
  146.3179  141.0743  154.6547 C   0  0  0  0  0  0  0  0  0  0  0  0
  146.2054  141.1104  153.2480 O   0  0  0  0  0  0  0  0  0  0  0  0
  148.8911  141.1138  154.2841 C   0  0  2  0  0  0  0  0  0  0  0  0
  148.7452  139.7399  153.9628 O   0  0  0  0  0  0  0  0  0  0  0  0
  150.0532  141.3730  155.2379 C   0  0  2  0  0  0  0  0  0  0  0  0
  151.1450  140.4900  155.0409 O   0  0  0  0  0  0  0  0  0  0  0  0
  148.9751  139.0175  157.6078 C   0  0  0  0  0  0  0  0  0  0  0  0
  149.3336  137.9220  158.3173 C   0  0  0  0  0  0  0  0  0  0  0  0
  147.9939  136.4677  158.4359 Br  0  0  0  0  0  0  0  0  0  0  0  0
  152.3761  138.9385  159.1640 H   0  0  0  0  0  0  0  0  0  0  0  0
  149.5765  142.1977  157.2302 H   0  0  0  0  0  0  0  0  0  0  0  0
  147.6887  142.7132  155.0437 H   0  0  0  0  0  0  0  0  0  0  0  0
  146.2144  140.0334  154.9624 H   0  0  0  0  0  0  0  0  0  0  0  0
  145.5016  141.6324  155.1142 H   0  0  0  0  0  0  0  0  0  0  0  0
  145.3833  140.7141  153.0023 H   0  0  0  0  0  0  0  0  0  0  0  0
  149.0096  141.6662  153.3514 H   0  0  0  0  0  0  0  0  0  0  0  0
  148.9909  139.6179  153.0583 H   0  0  0  0  0  0  0  0  0  0  0  0
  150.4065  142.3953  155.0971 H   0  0  0  0  0  0  0  0  0  0  0  0
  150.8002  139.6184  154.9182 H   0  0  0  0  0  0  0  0  0  0  0  0
  147.9943  139.0285  157.1560 H   0  0  0  0  0  0  0  0  0  0  0  0
  1  2  2  0  0  0  0
  2 17  1  0  0  0  0
  2  3  1  0  0  0  0
  3 19  1  0  0  0  0
  3  4  1  0  0  0  0
  4  5  2  0  0  0  0
  4  6  1  0  0  0  0
  6  7  1  0  0  0  0
  6 16  1  0  0  0  0
  7 14  1  0  0  0  0
  7  8  1  0  0  0  0
  7 20  1  0  0  0  0
  8  9  1  0  0  0  0
  9 10  1  0  0  0  0
  9 12  1  0  0  0  0
  9 21  1  0  0  0  0
 10 11  1  0  0  0  0
 10 22  1  0  0  0  0
 10 23  1  0  0  0  0
 11 24  1  0  0  0  0
 12 13  1  0  0  0  0
 12 14  1  0  0  0  0
 12 25  1  0  0  0  0
 13 26  1  0  0  0  0
 14 15  1  0  0  0  0
 14 27  1  0  0  0  0
 15 28  1  0  0  0  0
 16 17  2  0  0  0  0
 16 29  1  0  0  0  0
 17 18  1  0  0  0  0
M  END
> <s_m_source_file>
AV-unprocessed.smi

> <i_m_source_file_index>
35

> <i_lp_mmshare_version>
43012

> <i_f3d_flags>
0

> <s_epik_input>
Tz1jMVtuSF1jKD1PKW4oW2NIXWMxQnIpW0NAQEhdMk9bQ0BASF0oW0NIMl1bT0hdKVtDQEBIXShbT0hdKVtDQEhdMltPSF0=

> <s_epik_cmdline>
J2VwaWtfcHl0aG9uJywgJy1waCcsICc3LjAnLCAnLXRuJywgJzgnLCAnLW1hJywgJzIwMCcsICctbWV0YWxfYmluZGluZycsICctaW1hZScsICc8aW5maWxlLm1hZT4nLCAnLW9tYWUnLCAnPG91dGZpbGUubWFlPic=

> <r_lp_tautomer_probability>
0.999537

> <r_epik_Ionization_Penalty>
0.10812

> <r_epik_Ionization_Penalty_Charging>
0.108119

> <r_epik_Ionization_Penalty_Neutral>
4.93006e-07

> <r_epik_State_Penalty>
0.0979238

> <r_epik_Charging_Adjusted_Penalty>
0.206043

> <i_epik_Tot_Q>
0

> <i_epik_Tot_abs_Q>
0

> <r_epik_Metal_State_Penalty>
3.07911

> <b_epik_Metal_Only>
0

> <s_epik_Chemistry_Notes>
This compound contains an acetal/aminal-like group ( X-CH(R)-Y where X, Y are N, S, or O) that may be acid/base labile, releasing an aldehyde.

> <s_lp_Force_Field>
OPLS_2005

> <r_lp_Energy>
38.5572

> <b_lp_Chiralities_Consistent>
1

> <s_lp_Variant>
AV-unprocessed.smi:35-15

> <Gold.Version>
5.8.1

> <Gold.Id.Protein>
6NUR|6NUR_protein|mol2

> <Gold.PLP.Fitness>
32.9624

> <Gold.PLP.PLP>
-21.9854

> <Gold.PLP.part.hbond>
-4.0000

> <Gold.PLP.part.metal>
0.0000

> <Gold.PLP.part.buried>
-3.5360

> <Gold.PLP.part.nonpolar>
-14.5594

> <Gold.PLP.part.repulsive>
0.1815

> <Gold.PLP.ligand.clash>
0.0000

> <Gold.PLP.ligand.torsion>
0.4722

> <Gold.PLP.Chemscore.Hbond>
3.9673

> <Gold.PLP.Chemscore.CHOScore>
0.0000

> <Gold.PLP.Chemscore.Metal>
0.0000

> <Gold.Chemscore.Hbonds>
donor molecule, donor type, donor heavy atom, donor atom, acceptor molecule, acceptor atom, score
      L1  H    11    24       P1 10175  1.00
      L1  H    13    26       P1  7957  0.98
      P1  H  6896  6907       L1     1  1.00
      P1  H  7989  7998       L1    15  0.99

> <Gold.PLP.Chemscore.Internal.Correction>
0.0196

> <Gold.Rescore>
     Score         DG    S(hbond)    S(metal)    S(lipo)     H(rot)  DE(clash)    DE(int)     intcor
      8.94      -9.85       3.04        0.00      30.72       3.67       0.19       0.72       ----

> <Gold.Chemscore.Fitness>
8.9402

> <Gold.Chemscore.DG>
-9.8492

> <Gold.Chemscore.ZeroCoef>
-5.4800

> <Gold.Chemscore.Hbond>
3.0450

> <Gold.Chemscore.Metal>
0.0000

> <Gold.Chemscore.Lipo>
30.7214

> <Gold.Chemscore.Internal_Hbond>
0.0000

> <Gold.Chemscore.DEClash>
0.1853

> <Gold.Chemscore.DEInternal>
0.7237

> <Gold.Chemscore.Rot>
3.6701

> <Gold.Chemscore.Internal.Correction>
   9.000000E+99

> <Gold.Chemscore.Hbonds>
donor molecule, donor type, donor heavy atom, donor atom, acceptor molecule, acceptor atom, score
      L1  H    11    24       P1 10175  0.65
      L1  H    13    26       P1  7957  0.92
      P1  H  6896  6907       L1     1  0.99
      P1  H  7989  7998       L1    15  0.11

> <Gold.Chemscore.Hbond.Weighted>
-10.1703

> <Gold.Chemscore.Metal.Weighted>
-0.0000

> <Gold.Chemscore.Lipo.Weighted>
-3.5944

> <Gold.Chemscore.Internal_Hbond.Weighted>
0.0000

> <Gold.Chemscore.DEClash.Weighted>
0.1853

> <Gold.Chemscore.DEInternal.Weighted>
0.7237

> <Gold.Chemscore.Rot.Weighted>
9.3955

> <Gold.Chemscore.Internal.Correction.Weighted>
   9.000000E+99

> <Gold.Protein.RotatedTorsions>
[ 6907 6896 6895 6894 ] final   -1.40 input  -60.11 | X-H torsion
[ 7974 7965 7964 7962 ] final -110.35 input  175.53 | X-H torsion
[ 8008 7997 7996 7995 ] final  -33.44 input   59.86 | X-H torsion
[ 10167 10162 10161 10158 ] final   83.53 input  -65.29 | X-H torsion
[ 10718 10713 10712 10709 ] final -163.58 input   66.30 | X-H torsion
[ 10763 10752 10751 10750 ] final   61.21 input  -60.55 | X-H torsion
[ 11005 11000 10999 10996 ] final  142.09 input  -57.11 | X-H torsion

> <Gold.Protein.ActiveResidues>
 VAL166  LYS551  ARG553  GLY616  TRP617  ASP618  TYR619  PRO620  LYS621  CYS622 
 ASP623  PHE694  ASN695  SER759  ASP760  ASP761  ALA762  ILE779  LEU786  VAL792 
 PHE793  MET794  SER795  GLU796  ALA797  LYS798  CYS799  TRP800  GLU811  SER814 

> <Gold.Protein.RotatedAtoms>
  151.5466  135.1068  159.9939 H   0  0  0  0  0  0  0  0  0  0  0  0  # atno 6907 bound_to 6896
  152.4511  133.7626  159.6766 H   0  0  0  0  0  0  0  0  0  0  0  0  # atno 6908 bound_to 6896
  150.8439  133.7825  159.3074 H   0  0  0  0  0  0  0  0  0  0  0  0  # atno 6909 bound_to 6896
  145.1693  140.8918  143.3544 H   0  0  0  0  0  0  0  0  0  0  0  0  # atno 7974 bound_to 7965
  154.4149  140.1710  156.1889 H   0  0  0  0  0  0  0  0  0  0  0  0  # atno 8008 bound_to 7997
  155.9620  140.3392  155.6475 H   0  0  0  0  0  0  0  0  0  0  0  0  # atno 8009 bound_to 7997
  155.6736  140.0714  157.2501 H   0  0  0  0  0  0  0  0  0  0  0  0  # atno 8010 bound_to 7997
  139.9174  144.6234  150.8474 H   0  0  0  0  0  0  0  0  0  0  0  0  # atno 10167 bound_to 10162
  156.6267  130.8913  151.2969 H   0  0  0  0  0  0  0  0  0  0  0  0  # atno 10718 bound_to 10713
  152.9943  135.5509  154.5997 H   0  0  0  0  0  0  0  0  0  0  0  0  # atno 10763 bound_to 10752
  154.5341  135.2815  155.1156 H   0  0  0  0  0  0  0  0  0  0  0  0  # atno 10764 bound_to 10752
  154.2460  135.6407  153.5276 H   0  0  0  0  0  0  0  0  0  0  0  0  # atno 10765 bound_to 10752
  140.0451  134.9285  157.0914 H   0  0  0  0  0  0  0  0  0  0  0  0  # atno 11005 bound_to 11000
  145.0249  139.3391  143.6054 LP  0  0  0  0  0  0  0  0  0  0  0  0  # atno 17320 bound_to 7965
  146.3471  139.9564  142.8722 LP  0  0  0  0  0  0  0  0  0  0  0  0  # atno 17321 bound_to 7965
  140.7670  143.3321  151.2387 LP  0  0  0  0  0  0  0  0  0  0  0  0  # atno 17342 bound_to 10162
  139.6890  143.9724  152.2849 LP  0  0  0  0  0  0  0  0  0  0  0  0  # atno 17343 bound_to 10162
  157.7212  130.9561  150.1446 LP  0  0  0  0  0  0  0  0  0  0  0  0  # atno 17370 bound_to 10713
  156.2268  130.3678  149.8492 LP  0  0  0  0  0  0  0  0  0  0  0  0  # atno 17371 bound_to 10713
  140.4007  134.2086  155.7163 LP  0  0  0  0  0  0  0  0  0  0  0  0  # atno 17394 bound_to 11000
  141.1903  133.8221  157.0925 LP  0  0  0  0  0  0  0  0  0  0  0  0  # atno 17395 bound_to 11000

$$$$
