AV-unprocessed.smi:118|AV-procd|sdf|1131|dock3
  -GOLD-   2262018263D 1   1.00000     0.00000
 Structure written by MMmdl.
 41 44  0  0  0  0  0  0  0  0  1 V2000
  148.2804  133.9181  154.6817 O   0  0  0  0  0  0  0  0  0  0  0  0
  149.2998  133.2388  154.8101 C   0  0  0  0  0  0  0  0  0  0  0  0
  150.5242  133.7982  155.5522 C   0  0  0  0  0  0  0  0  0  0  0  0
  150.2759  135.0991  156.2122 N   0  0  0  0  0  0  0  0  0  0  0  0
  149.7624  135.1042  157.5330 C   0  0  0  0  0  0  0  0  0  0  0  0
  149.5038  134.0538  158.1223 O   0  0  0  0  0  0  0  0  0  0  0  0
  149.5803  136.4212  158.1324 C   0  0  0  0  0  0  0  0  0  0  0  0
  149.1131  136.5226  159.3883 F   0  0  0  0  0  0  0  0  0  0  0  0
  149.8792  137.5434  157.4465 C   0  0  0  0  0  0  0  0  0  0  0  0
  150.3584  137.5262  156.1514 N   0  0  0  0  0  0  0  0  0  0  0  0
  150.7165  138.8317  155.4795 C   0  0  2  0  0  0  0  0  0  0  0  0
  151.8621  139.5910  156.1754 C   0  0  0  0  0  0  0  0  0  0  0  0
  151.2245  140.9269  156.5204 C   0  0  0  0  0  0  0  0  0  0  0  0
  150.0471  141.0008  155.5546 C   0  0  0  0  0  0  0  0  0  0  0  0
  149.5935  139.6580  155.4875 O   0  0  0  0  0  0  0  0  0  0  0  0
  150.5984  136.2872  155.5130 C   0  0  0  0  0  0  0  0  0  0  0  0
  151.0833  136.2391  154.3814 O   0  0  0  0  0  0  0  0  0  0  0  0
  149.4545  131.9994  154.3118 N   0  0  0  0  0  0  0  0  0  0  0  0
  148.5175  131.2132  153.5855 C   0  0  0  0  0  0  0  0  0  0  0  0
  147.3276  131.7407  153.0211 C   0  0  0  0  0  0  0  0  0  0  0  0
  146.4239  130.9061  152.3261 C   0  0  0  0  0  0  0  0  0  0  0  0
  146.6798  129.5269  152.1871 C   0  0  0  0  0  0  0  0  0  0  0  0
  147.8492  128.9958  152.7600 C   0  0  0  0  0  0  0  0  0  0  0  0
  148.7567  129.8272  153.4569 C   0  0  0  0  0  0  0  0  0  0  0  0
  149.8591  129.1405  153.9631 N   0  0  0  0  0  0  0  0  0  0  0  0
  149.5419  127.7216  153.4904 S   0  0  0  0  0  0  0  0  0  0  0  0
  148.2285  127.6584  152.7108 N   0  0  0  0  0  0  0  0  0  0  0  0
  150.8605  133.0555  156.2775 H   0  0  0  0  0  0  0  0  0  0  0  0
  151.3523  133.8681  154.8452 H   0  0  0  0  0  0  0  0  0  0  0  0
  149.7322  138.4934  157.9392 H   0  0  0  0  0  0  0  0  0  0  0  0
  150.9690  138.5805  154.4484 H   0  0  0  0  0  0  0  0  0  0  0  0
  152.2460  139.0633  157.0490 H   0  0  0  0  0  0  0  0  0  0  0  0
  152.6774  139.7176  155.4627 H   0  0  0  0  0  0  0  0  0  0  0  0
  150.8616  140.9162  157.5484 H   0  0  0  0  0  0  0  0  0  0  0  0
  151.9122  141.7663  156.4153 H   0  0  0  0  0  0  0  0  0  0  0  0
  149.2614  141.6743  155.8975 H   0  0  0  0  0  0  0  0  0  0  0  0
  150.3740  141.3256  154.5655 H   0  0  0  0  0  0  0  0  0  0  0  0
  150.3771  131.5989  154.4013 H   0  0  0  0  0  0  0  0  0  0  0  0
  147.0785  132.7859  153.1212 H   0  0  0  0  0  0  0  0  0  0  0  0
  145.5254  131.3289  151.9016 H   0  0  0  0  0  0  0  0  0  0  0  0
  145.9870  128.8907  151.6561 H   0  0  0  0  0  0  0  0  0  0  0  0
  1  2  2  0  0  0  0
  2  3  1  0  0  0  0
  2 18  1  0  0  0  0
  3  4  1  0  0  0  0
  3 28  1  0  0  0  0
  3 29  1  0  0  0  0
  4 16  1  0  0  0  0
  4  5  1  0  0  0  0
  5  6  2  0  0  0  0
  5  7  1  0  0  0  0
  7  8  1  0  0  0  0
  7  9  2  0  0  0  0
  9 10  1  0  0  0  0
  9 30  1  0  0  0  0
 10 11  1  0  0  0  0
 10 16  1  0  0  0  0
 11 15  1  0  0  0  0
 11 12  1  0  0  0  0
 11 31  1  0  0  0  0
 12 13  1  0  0  0  0
 12 32  1  0  0  0  0
 12 33  1  0  0  0  0
 13 14  1  0  0  0  0
 13 34  1  0  0  0  0
 13 35  1  0  0  0  0
 14 15  1  0  0  0  0
 14 36  1  0  0  0  0
 14 37  1  0  0  0  0
 16 17  2  0  0  0  0
 18 19  1  0  0  0  0
 18 38  1  0  0  0  0
 19 24  1  0  0  0  0
 19 20  2  0  0  0  0
 20 21  1  0  0  0  0
 20 39  1  0  0  0  0
 21 22  2  0  0  0  0
 21 40  1  0  0  0  0
 22 23  1  0  0  0  0
 22 41  1  0  0  0  0
 23 27  1  0  0  0  0
 23 24  2  0  0  0  0
 24 25  1  0  0  0  0
 25 26  2  0  0  0  0
 26 27  2  0  0  0  0
M  END
> <s_m_source_file>
AV-unprocessed.smi

> <i_m_source_file_index>
118

> <i_lp_mmshare_version>
43012

> <i_f3d_flags>
0

> <s_epik_input>
TjE9Uz1OYyhjMTIpYyhbY0hdW2NIXVtjSF0yKVtOSF1DKD1PKVtDSDJdbjNjKD1PKWMoRilbY0hdbihjMz1PKVtDQEBIXTRbQ0gyXVtDSDJdW0NIMl1PNA==

> <s_epik_cmdline>
J2VwaWtfcHl0aG9uJywgJy1waCcsICc3LjAnLCAnLXRuJywgJzgnLCAnLW1hJywgJzIwMCcsICctbWV0YWxfYmluZGluZycsICctaW1hZScsICc8aW5maWxlLm1hZT4nLCAnLW9tYWUnLCAnPG91dGZpbGUubWFlPic=

> <r_lp_tautomer_probability>
1

> <r_epik_Ionization_Penalty>
1.81156e-06

> <r_epik_Ionization_Penalty_Charging>
3.88729e-08

> <r_epik_Ionization_Penalty_Neutral>
1.77269e-06

> <r_epik_State_Penalty>
-0

> <r_epik_Charging_Adjusted_Penalty>
3.88729e-08

> <i_epik_Tot_Q>
0

> <i_epik_Tot_abs_Q>
0

> <r_epik_Metal_State_Penalty>
-0

> <b_epik_Metal_Only>
0

> <s_epik_Chemistry_Notes>
This compound contains an acetal/aminal-like group ( X-CH(R)-Y where X, Y are N, S, or O) that may be acid/base labile, releasing an aldehyde.

> <s_lp_Force_Field>
OPLS_2005

> <r_lp_Energy>
47.7675

> <b_lp_Chiralities_Consistent>
1

> <s_lp_Variant>
AV-unprocessed.smi:118-1

> <Gold.Version>
5.8.1

> <Gold.Id.Protein>
6NUR|6NUR_protein|mol2

> <Gold.PLP.Fitness>
40.9940

> <Gold.PLP.PLP>
-36.0106

> <Gold.PLP.part.hbond>
-2.0000

> <Gold.PLP.part.metal>
0.0000

> <Gold.PLP.part.buried>
-5.2121

> <Gold.PLP.part.nonpolar>
-30.4513

> <Gold.PLP.part.repulsive>
1.8090

> <Gold.PLP.ligand.clash>
0.0000

> <Gold.PLP.ligand.torsion>
0.5226

> <Gold.PLP.Chemscore.Hbond>
2.0000

> <Gold.PLP.Chemscore.CHOScore>
0.0000

> <Gold.PLP.Chemscore.Metal>
0.0000

> <Gold.Chemscore.Hbonds>
donor molecule, donor type, donor heavy atom, donor atom, acceptor molecule, acceptor atom, score
      P1  H  6896  6907       L1     6  1.00
      P1  H 10752 10765       L1    17  1.00

> <Gold.PLP.Chemscore.Internal.Correction>
0.0286

> <Gold.Rescore>
     Score         DG    S(hbond)    S(metal)    S(lipo)     H(rot)  DE(clash)    DE(int)     intcor
     12.17     -14.09       1.69        0.00      64.72       1.80       0.17       1.75       ----

> <Gold.Chemscore.Fitness>
12.1723

> <Gold.Chemscore.DG>
-14.0933

> <Gold.Chemscore.ZeroCoef>
-5.4800

> <Gold.Chemscore.Hbond>
1.6895

> <Gold.Chemscore.Metal>
0.0000

> <Gold.Chemscore.Lipo>
64.7240

> <Gold.Chemscore.Internal_Hbond>
0.0000

> <Gold.Chemscore.DEClash>
0.1725

> <Gold.Chemscore.DEInternal>
1.7485

> <Gold.Chemscore.Rot>
1.7977

> <Gold.Chemscore.Internal.Correction>
   9.000000E+99

> <Gold.Chemscore.Hbonds>
donor molecule, donor type, donor heavy atom, donor atom, acceptor molecule, acceptor atom, score
      P1  H  6896  6907       L1     6  0.45
      P1  H 10752 10765       L1    17  0.92

> <Gold.Chemscore.Hbond.Weighted>
-5.6428

> <Gold.Chemscore.Metal.Weighted>
-0.0000

> <Gold.Chemscore.Lipo.Weighted>
-7.5727

> <Gold.Chemscore.Internal_Hbond.Weighted>
0.0000

> <Gold.Chemscore.DEClash.Weighted>
0.1725

> <Gold.Chemscore.DEInternal.Weighted>
1.7485

> <Gold.Chemscore.Rot.Weighted>
4.6022

> <Gold.Chemscore.Internal.Correction.Weighted>
   9.000000E+99

> <Gold.Protein.RotatedTorsions>
[ 6907 6896 6895 6894 ] final -109.47 input  -60.11 | X-H torsion
[ 7974 7965 7964 7962 ] final  178.59 input  175.53 | X-H torsion
[ 8008 7997 7996 7995 ] final   29.85 input   59.86 | X-H torsion
[ 10167 10162 10161 10158 ] final    8.36 input  -65.29 | X-H torsion
[ 10718 10713 10712 10709 ] final  106.90 input   66.30 | X-H torsion
[ 10763 10752 10751 10750 ] final  159.72 input  -60.55 | X-H torsion
[ 11005 11000 10999 10996 ] final   22.50 input  -57.11 | X-H torsion

> <Gold.Protein.ActiveResidues>
 VAL166  LYS551  ARG553  GLY616  TRP617  ASP618  TYR619  PRO620  LYS621  CYS622 
 ASP623  PHE694  ASN695  SER759  ASP760  ASP761  ALA762  ILE779  LEU786  VAL792 
 PHE793  MET794  SER795  GLU796  ALA797  LYS798  CYS799  TRP800  GLU811  SER814 

> <Gold.Protein.RotatedAtoms>
  150.7564  133.9524  159.3489 H   0  0  0  0  0  0  0  0  0  0  0  0  # atno 6907 bound_to 6896
  151.7443  135.0845  160.0330 H   0  0  0  0  0  0  0  0  0  0  0  0  # atno 6908 bound_to 6896
  152.3508  133.6140  159.5979 H   0  0  0  0  0  0  0  0  0  0  0  0  # atno 6909 bound_to 6896
  144.7154  140.0420  143.6437 H   0  0  0  0  0  0  0  0  0  0  0  0  # atno 7974 bound_to 7965
  155.0811  140.3210  155.4601 H   0  0  0  0  0  0  0  0  0  0  0  0  # atno 8008 bound_to 7997
  156.2767  140.2095  156.5884 H   0  0  0  0  0  0  0  0  0  0  0  0  # atno 8009 bound_to 7997
  154.6978  140.0510  157.0415 H   0  0  0  0  0  0  0  0  0  0  0  0  # atno 8010 bound_to 7997
  140.6318  143.7975  150.7306 H   0  0  0  0  0  0  0  0  0  0  0  0  # atno 10167 bound_to 10162
  157.6650  131.0861  150.6075 H   0  0  0  0  0  0  0  0  0  0  0  0  # atno 10718 bound_to 10713
  154.2362  135.2776  155.2871 H   0  0  0  0  0  0  0  0  0  0  0  0  # atno 10763 bound_to 10752
  154.5583  135.5654  153.6987 H   0  0  0  0  0  0  0  0  0  0  0  0  # atno 10764 bound_to 10752
  153.0009  135.6291  154.2505 H   0  0  0  0  0  0  0  0  0  0  0  0  # atno 10765 bound_to 10752
  140.3799  134.1931  155.7664 H   0  0  0  0  0  0  0  0  0  0  0  0  # atno 11005 bound_to 11000
  146.0016  139.3096  143.0924 LP  0  0  0  0  0  0  0  0  0  0  0  0  # atno 17320 bound_to 7965
  145.8787  140.9376  143.0613 LP  0  0  0  0  0  0  0  0  0  0  0  0  # atno 17321 bound_to 7965
  140.1588  143.4293  152.2081 LP  0  0  0  0  0  0  0  0  0  0  0  0  # atno 17342 bound_to 10162
  139.5532  144.7353  151.4372 LP  0  0  0  0  0  0  0  0  0  0  0  0  # atno 17343 bound_to 10162
  156.6376  130.4449  149.5764 LP  0  0  0  0  0  0  0  0  0  0  0  0  # atno 17370 bound_to 10713
  156.2233  130.6750  151.1391 LP  0  0  0  0  0  0  0  0  0  0  0  0  # atno 17371 bound_to 10713
  141.1927  133.8168  157.0830 LP  0  0  0  0  0  0  0  0  0  0  0  0  # atno 17394 bound_to 11000
  140.0486  134.9817  157.1095 LP  0  0  0  0  0  0  0  0  0  0  0  0  # atno 17395 bound_to 11000

$$$$
