AV-unprocessed.smi:189|AV-procd|sdf|1477|dock3
  -GOLD-   2262019293D 1   1.00000     0.00000
 Structure written by MMmdl.
 53 57  0  0  0  0  0  0  0  0  1 V2000
  152.0641  139.1592  159.4863 C   0  0  0  0  0  0  0  0  0  0  0  0
  152.9585  140.3982  159.2703 C   0  0  2  0  0  0  0  0  0  0  0  0
  153.0164  141.2671  160.5509 C   0  0  0  0  0  0  0  0  0  0  0  0
  152.8652  142.6914  160.0259 C   0  0  2  0  0  0  0  0  0  0  0  0
  152.3049  143.7685  160.9626 C   0  0  0  0  0  0  0  0  0  0  0  0
  152.1755  145.0937  160.1821 C   0  0  0  0  0  0  0  0  0  0  0  0
  151.3690  144.9299  158.8735 C   0  0  0  0  0  0  0  0  0  0  0  0
  151.8963  143.7763  157.9938 C   0  0  0  0  0  0  0  0  0  0  0  0
  151.9437  142.4862  158.8330 C   0  0  1  0  0  0  0  0  0  0  0  0
  152.5003  141.2991  158.2020 N   0  0  0  0  0  0  0  0  0  0  0  0
  151.9767  140.7669  157.0691 C   0  0  0  0  0  0  0  0  0  0  0  0
  152.6886  139.8571  156.3534 N   0  0  0  0  0  0  0  0  0  0  0  0
  152.1887  139.3496  155.2228 C   0  0  0  0  0  0  0  0  0  0  0  0
  151.0203  139.6133  154.6343 N   0  0  0  0  0  0  0  0  0  0  0  0
  150.3021  140.5265  155.3489 C   0  0  0  0  0  0  0  0  0  0  0  0
  150.7008  141.1452  156.5668 C   0  0  0  0  0  0  0  0  0  0  0  0
  149.7086  142.0143  157.0041 N   0  0  0  0  0  0  0  0  0  0  0  0
  148.7797  141.9204  156.0923 C   0  0  0  0  0  0  0  0  0  0  0  0
  149.0583  141.0580  155.0558 N   0  0  0  0  0  0  0  0  0  0  0  0
  148.2097  140.7658  153.9104 C   0  0  0  0  0  0  0  0  0  0  0  0
  147.9108  139.2573  153.7164 C   0  0  1  0  0  0  0  0  0  0  0  0
  149.1095  138.5884  153.3684 O   0  0  0  0  0  0  0  0  0  0  0  0
  147.2957  138.5787  154.9409 C   0  0  0  0  0  0  0  0  0  0  0  0
  145.8052  138.6522  154.6479 C   0  0  0  0  0  0  0  0  0  0  0  0
  145.7549  138.3642  153.2615 O   0  0  0  0  0  0  0  0  0  0  0  0
  146.8437  139.0262  152.6265 C   0  0  0  0  0  0  0  0  0  0  0  0
  152.4084  138.5796  160.3430 H   0  0  0  0  0  0  0  0  0  0  0  0
  152.0766  138.4911  158.6251 H   0  0  0  0  0  0  0  0  0  0  0  0
  151.0281  139.4442  159.6727 H   0  0  0  0  0  0  0  0  0  0  0  0
  153.9694  140.0768  159.0180 H   0  0  0  0  0  0  0  0  0  0  0  0
  152.1847  141.0326  161.2171 H   0  0  0  0  0  0  0  0  0  0  0  0
  153.9406  141.1250  161.1115 H   0  0  0  0  0  0  0  0  0  0  0  0
  153.8449  143.0167  159.6686 H   0  0  0  0  0  0  0  0  0  0  0  0
  151.3304  143.4643  161.3470 H   0  0  0  0  0  0  0  0  0  0  0  0
  152.9590  143.9000  161.8250 H   0  0  0  0  0  0  0  0  0  0  0  0
  151.7114  145.8527  160.8126 H   0  0  0  0  0  0  0  0  0  0  0  0
  153.1723  145.4653  159.9411 H   0  0  0  0  0  0  0  0  0  0  0  0
  150.3237  144.7402  159.1206 H   0  0  0  0  0  0  0  0  0  0  0  0
  151.3845  145.8630  158.3098 H   0  0  0  0  0  0  0  0  0  0  0  0
  151.2534  143.6599  157.1222 H   0  0  0  0  0  0  0  0  0  0  0  0
  152.8914  144.0182  157.6184 H   0  0  0  0  0  0  0  0  0  0  0  0
  150.9376  142.2445  159.1813 H   0  0  0  0  0  0  0  0  0  0  0  0
  152.8168  138.6323  154.7155 H   0  0  0  0  0  0  0  0  0  0  0  0
  147.8609  142.4862  156.1477 H   0  0  0  0  0  0  0  0  0  0  0  0
  147.2776  141.3198  154.0288 H   0  0  0  0  0  0  0  0  0  0  0  0
  148.6914  141.1719  153.0198 H   0  0  0  0  0  0  0  0  0  0  0  0
  148.8999  137.6926  153.1521 H   0  0  0  0  0  0  0  0  0  0  0  0
  147.5890  137.5285  154.9875 H   0  0  0  0  0  0  0  0  0  0  0  0
  147.5620  139.0306  155.8953 H   0  0  0  0  0  0  0  0  0  0  0  0
  145.2233  137.9377  155.2303 H   0  0  0  0  0  0  0  0  0  0  0  0
  145.4162  139.6543  154.8352 H   0  0  0  0  0  0  0  0  0  0  0  0
  146.4881  139.9690  152.2086 H   0  0  0  0  0  0  0  0  0  0  0  0
  147.2058  138.4192  151.7958 H   0  0  0  0  0  0  0  0  0  0  0  0
  1  2  1  0  0  0  0
  1 27  1  0  0  0  0
  1 28  1  0  0  0  0
  1 29  1  0  0  0  0
  2 10  1  0  0  0  0
  2  3  1  0  0  0  0
  2 30  1  0  0  0  0
  3  4  1  0  0  0  0
  3 31  1  0  0  0  0
  3 32  1  0  0  0  0
  4  9  1  0  0  0  0
  4  5  1  0  0  0  0
  4 33  1  0  0  0  0
  5  6  1  0  0  0  0
  5 34  1  0  0  0  0
  5 35  1  0  0  0  0
  6  7  1  0  0  0  0
  6 36  1  0  0  0  0
  6 37  1  0  0  0  0
  7  8  1  0  0  0  0
  7 38  1  0  0  0  0
  7 39  1  0  0  0  0
  8  9  1  0  0  0  0
  8 40  1  0  0  0  0
  8 41  1  0  0  0  0
  9 10  1  0  0  0  0
  9 42  1  0  0  0  0
 10 11  1  0  0  0  0
 11 16  1  0  0  0  0
 11 12  2  0  0  0  0
 12 13  1  0  0  0  0
 13 14  2  0  0  0  0
 13 43  1  0  0  0  0
 14 15  1  0  0  0  0
 15 19  1  0  0  0  0
 15 16  2  0  0  0  0
 16 17  1  0  0  0  0
 17 18  2  0  0  0  0
 18 19  1  0  0  0  0
 18 44  1  0  0  0  0
 19 20  1  0  0  0  0
 20 21  1  0  0  0  0
 20 45  1  0  0  0  0
 20 46  1  0  0  0  0
 21 26  1  0  0  0  0
 21 22  1  0  0  0  0
 21 23  1  0  0  0  0
 22 47  1  0  0  0  0
 23 24  1  0  0  0  0
 23 48  1  0  0  0  0
 23 49  1  0  0  0  0
 24 25  1  0  0  0  0
 24 50  1  0  0  0  0
 24 51  1  0  0  0  0
 25 26  1  0  0  0  0
 26 52  1  0  0  0  0
 26 53  1  0  0  0  0
M  END
> <s_m_source_file>
AV-unprocessed.smi

> <i_m_source_file_index>
189

> <i_lp_mmshare_version>
43012

> <i_f3d_flags>
0

> <s_epik_input>
W0NIMl0xW0NIMl1bQ0gyXVtDSDJdW0NASF0oW0NASF0xMilOKFtDQEhdKFtDSDNdKVtDSDJdMiljKG5bY0hdbjMpYyhjMzQpbltjSF1uNFtDSDJdW0NAQF01KFtPSF0pW0NIMl1bQ0gyXU9bQ0gyXTU=

> <s_epik_cmdline>
J2VwaWtfcHl0aG9uJywgJy1waCcsICc3LjAnLCAnLXRuJywgJzgnLCAnLW1hJywgJzIwMCcsICctbWV0YWxfYmluZGluZycsICctaW1hZScsICc8aW5maWxlLm1hZT4nLCAnLW9tYWUnLCAnPG91dGZpbGUubWFlPic=

> <r_lp_tautomer_probability>
1

> <r_epik_Ionization_Penalty>
0.00594261

> <r_epik_Ionization_Penalty_Charging>
0

> <r_epik_Ionization_Penalty_Neutral>
0.00594261

> <r_epik_State_Penalty>
0.00429776

> <r_epik_Charging_Adjusted_Penalty>
0.00429776

> <i_epik_Tot_Q>
0

> <i_epik_Tot_abs_Q>
0

> <r_epik_Metal_State_Penalty>
-0

> <b_epik_Metal_Only>
0

> <s_lp_Force_Field>
OPLS_2005

> <r_lp_Energy>
58.8903

> <b_lp_Chiralities_Consistent>
1

> <s_lp_Variant>
AV-unprocessed.smi:189-3

> <Gold.Version>
5.8.1

> <Gold.Id.Protein>
6NUR|6NUR_protein|mol2

> <Gold.PLP.Fitness>
57.9059

> <Gold.PLP.PLP>
-49.6183

> <Gold.PLP.part.hbond>
-4.0000

> <Gold.PLP.part.metal>
0.0000

> <Gold.PLP.part.buried>
-0.4819

> <Gold.PLP.part.nonpolar>
-44.1396

> <Gold.PLP.part.repulsive>
0.4562

> <Gold.PLP.ligand.clash>
0.0000

> <Gold.PLP.ligand.torsion>
0.2698

> <Gold.PLP.Chemscore.Hbond>
2.6000

> <Gold.PLP.Chemscore.CHOScore>
0.2157

> <Gold.PLP.Chemscore.Metal>
0.0000

> <Gold.Chemscore.Hbonds>
donor molecule, donor type, donor heavy atom, donor atom, acceptor molecule, acceptor atom, score
      L1  H    22    47       P1  7948  0.94
      P1  H  7989  7998       L1    14  0.55
      P1  H  7997  8010       L1    12  1.00
      L1  C    18    44       P1  8028  0.35

> <Gold.PLP.Chemscore.Internal.Correction>
0.3801

> <Gold.Rescore>
     Score         DG    S(hbond)    S(metal)    S(lipo)     H(rot)  DE(clash)    DE(int)     intcor
     18.64     -20.46       1.83        0.00     120.34       2.03       0.14       1.68       ----

> <Gold.Chemscore.Fitness>
18.6421

> <Gold.Chemscore.DG>
-20.4610

> <Gold.Chemscore.ZeroCoef>
-5.4800

> <Gold.Chemscore.Hbond>
1.8256

> <Gold.Chemscore.Metal>
0.0000

> <Gold.Chemscore.Lipo>
120.3377

> <Gold.Chemscore.Internal_Hbond>
0.0000

> <Gold.Chemscore.DEClash>
0.1411

> <Gold.Chemscore.DEInternal>
1.6777

> <Gold.Chemscore.Rot>
2.0297

> <Gold.Chemscore.Internal.Correction>
   9.000000E+99

> <Gold.Chemscore.Hbonds>
donor molecule, donor type, donor heavy atom, donor atom, acceptor molecule, acceptor atom, score
      L1  H    22    47       P1  7948  0.92
      P1  H  7989  7998       L1    14  0.01
      P1  H  7997  8010       L1    12  0.64

> <Gold.Chemscore.Hbond.Weighted>
-6.0974

> <Gold.Chemscore.Metal.Weighted>
-0.0000

> <Gold.Chemscore.Lipo.Weighted>
-14.0795

> <Gold.Chemscore.Internal_Hbond.Weighted>
0.0000

> <Gold.Chemscore.DEClash.Weighted>
0.1411

> <Gold.Chemscore.DEInternal.Weighted>
1.6777

> <Gold.Chemscore.Rot.Weighted>
5.1960

> <Gold.Chemscore.Internal.Correction.Weighted>
   9.000000E+99

> <Gold.Protein.RotatedTorsions>
[ 6907 6896 6895 6894 ] final  140.45 input  -60.11 | X-H torsion
[ 7974 7965 7964 7962 ] final  -17.45 input  175.53 | X-H torsion
[ 8008 7997 7996 7995 ] final   90.92 input   59.86 | X-H torsion
[ 10167 10162 10161 10158 ] final -164.01 input  -65.29 | X-H torsion
[ 10718 10713 10712 10709 ] final  165.84 input   66.30 | X-H torsion
[ 10763 10752 10751 10750 ] final    1.51 input  -60.55 | X-H torsion
[ 11005 11000 10999 10996 ] final   68.21 input  -57.11 | X-H torsion

> <Gold.Protein.ActiveResidues>
 VAL166  LYS551  ARG553  GLY616  TRP617  ASP618  TYR619  PRO620  LYS621  CYS622 
 ASP623  PHE694  ASN695  SER759  ASP760  ASP761  ALA762  ILE779  LEU786  VAL792 
 PHE793  MET794  SER795  GLU796  ALA797  LYS798  CYS799  TRP800  GLU811  SER814 

> <Gold.Protein.RotatedAtoms>
  152.2429  133.5150  159.5280 H   0  0  0  0  0  0  0  0  0  0  0  0  # atno 6907 bound_to 6896
  150.7070  134.1064  159.3993 H   0  0  0  0  0  0  0  0  0  0  0  0  # atno 6908 bound_to 6896
  151.8985  135.0388  160.0555 H   0  0  0  0  0  0  0  0  0  0  0  0  # atno 6909 bound_to 6896
  146.1940  140.3781  142.8447 H   0  0  0  0  0  0  0  0  0  0  0  0  # atno 7974 bound_to 7965
  156.0177  140.3343  155.7006 H   0  0  0  0  0  0  0  0  0  0  0  0  # atno 8008 bound_to 7997
  155.6067  140.0661  157.2735 H   0  0  0  0  0  0  0  0  0  0  0  0  # atno 8009 bound_to 7997
  154.4304  140.1801  156.1217 H   0  0  0  0  0  0  0  0  0  0  0  0  # atno 8010 bound_to 7997
  139.6280  144.0494  152.1991 H   0  0  0  0  0  0  0  0  0  0  0  0  # atno 10167 bound_to 10162
  157.0743  131.0375  151.2599 H   0  0  0  0  0  0  0  0  0  0  0  0  # atno 10718 bound_to 10713
  153.3072  135.6960  153.7149 H   0  0  0  0  0  0  0  0  0  0  0  0  # atno 10763 bound_to 10752
  153.6040  135.3456  155.2956 H   0  0  0  0  0  0  0  0  0  0  0  0  # atno 10764 bound_to 10752
  154.8566  135.4347  154.2199 H   0  0  0  0  0  0  0  0  0  0  0  0  # atno 10765 bound_to 10752
  139.9725  134.6877  156.0419 H   0  0  0  0  0  0  0  0  0  0  0  0  # atno 11005 bound_to 11000
  144.8543  140.7047  143.6148 LP  0  0  0  0  0  0  0  0  0  0  0  0  # atno 17320 bound_to 7965
  145.3702  139.1660  143.4336 LP  0  0  0  0  0  0  0  0  0  0  0  0  # atno 17321 bound_to 7965
  140.0153  144.6194  150.7613 LP  0  0  0  0  0  0  0  0  0  0  0  0  # atno 17342 bound_to 10162
  140.7422  143.2829  151.3546 LP  0  0  0  0  0  0  0  0  0  0  0  0  # atno 17343 bound_to 10162
  157.4852  130.7789  149.7453 LP  0  0  0  0  0  0  0  0  0  0  0  0  # atno 17370 bound_to 10713
  155.9941  130.3920  150.2872 LP  0  0  0  0  0  0  0  0  0  0  0  0  # atno 17371 bound_to 10713
  141.1404  133.6566  156.3713 LP  0  0  0  0  0  0  0  0  0  0  0  0  # atno 17394 bound_to 11000
  140.5264  134.6255  157.5335 LP  0  0  0  0  0  0  0  0  0  0  0  0  # atno 17395 bound_to 11000

$$$$
