AV-unprocessed.smi:1970|AV-procd|sdf|7961|dock3
  -GOLD-   2272010133D 1   1.00000     0.00000
 Structure written by MMmdl.
 34 35  0  0  0  0  0  0  0  0  2 V2000
  152.6218  139.9349  155.3266 O   0  0  0  0  0  0  0  0  0  0  0  0
  151.7179  139.1241  155.5336 C   0  0  0  0  0  0  0  0  0  0  0  0
  151.4893  137.9467  154.5772 C   0  0  0  0  0  0  0  0  0  0  0  0
  150.2996  137.1615  154.9167 N   0  0  0  0  0  0  0  0  0  0  0  0
  148.9872  137.6925  154.5647 C   0  0  0  0  0  0  0  0  0  0  0  0
  147.7939  136.3537  154.8164 S   0  0  0  0  0  0  0  0  0  0  0  0
  148.9574  135.3666  155.7730 C   0  0  0  0  0  0  0  0  0  0  0  0
  150.3308  135.9772  155.5531 C   0  0  0  0  0  0  0  0  0  0  0  0
  151.3537  135.4084  155.9340 O   0  0  0  0  0  0  0  0  0  0  0  0
  150.8771  139.2134  156.5751 N   0  0  0  0  0  0  0  0  0  0  0  0
  150.9366  140.2415  157.6071 C   0  0  0  0  0  0  0  0  0  0  0  0
  150.6846  141.6414  157.0214 C   0  0  0  0  0  0  0  0  0  0  0  0
  151.3002  142.7388  157.8670 C   0  0  0  0  0  0  0  0  0  0  0  0
  152.1414  142.4556  158.9650 C   0  0  0  0  0  0  0  0  0  0  0  0
  152.6869  143.5229  159.7084 C   0  0  0  0  0  0  0  0  0  0  0  0
  152.3814  144.8491  159.3379 C   0  0  0  0  0  0  0  0  0  0  0  0
  151.5371  145.0745  158.2315 C   0  0  0  0  0  0  0  0  0  0  0  0
  151.0335  144.0253  157.5447 N   0  3  0  0  0  0  0  0  0  0  0  0
  151.4042  138.3106  153.5514 H   0  0  0  0  0  0  0  0  0  0  0  0
  152.3721  137.3067  154.6021 H   0  0  0  0  0  0  0  0  0  0  0  0
  148.7421  138.5341  155.2132 H   0  0  0  0  0  0  0  0  0  0  0  0
  148.9599  138.0314  153.5285 H   0  0  0  0  0  0  0  0  0  0  0  0
  148.7003  135.4090  156.8316 H   0  0  0  0  0  0  0  0  0  0  0  0
  148.9331  134.3263  155.4481 H   0  0  0  0  0  0  0  0  0  0  0  0
  150.1561  138.5120  156.6656 H   0  0  0  0  0  0  0  0  0  0  0  0
  150.2136  140.0205  158.3943 H   0  0  0  0  0  0  0  0  0  0  0  0
  151.9225  140.2009  158.0709 H   0  0  0  0  0  0  0  0  0  0  0  0
  151.0901  141.7028  156.0105 H   0  0  0  0  0  0  0  0  0  0  0  0
  149.6132  141.8273  156.9328 H   0  0  0  0  0  0  0  0  0  0  0  0
  152.3680  141.4341  159.2348 H   0  0  0  0  0  0  0  0  0  0  0  0
  153.3323  143.3263  160.5520 H   0  0  0  0  0  0  0  0  0  0  0  0
  152.7892  145.6806  159.8943 H   0  0  0  0  0  0  0  0  0  0  0  0
  151.2514  146.0544  157.8779 H   0  0  0  0  0  0  0  0  0  0  0  0
  150.4246  144.2121  156.7477 H   0  0  0  0  0  0  0  0  0  0  0  0
  1  2  2  0  0  0  0
  2  3  1  0  0  0  0
  2 10  1  0  0  0  0
  3  4  1  0  0  0  0
  3 19  1  0  0  0  0
  3 20  1  0  0  0  0
  4  8  1  0  0  0  0
  4  5  1  0  0  0  0
  5  6  1  0  0  0  0
  5 21  1  0  0  0  0
  5 22  1  0  0  0  0
  6  7  1  0  0  0  0
  7  8  1  0  0  0  0
  7 23  1  0  0  0  0
  7 24  1  0  0  0  0
  8  9  2  0  0  0  0
 10 11  1  0  0  0  0
 10 25  1  0  0  0  0
 11 12  1  0  0  0  0
 11 26  1  0  0  0  0
 11 27  1  0  0  0  0
 12 13  1  0  0  0  0
 12 28  1  0  0  0  0
 12 29  1  0  0  0  0
 13 18  1  0  0  0  0
 13 14  2  0  0  0  0
 14 15  1  0  0  0  0
 14 30  1  0  0  0  0
 15 16  2  0  0  0  0
 15 31  1  0  0  0  0
 16 17  1  0  0  0  0
 16 32  1  0  0  0  0
 17 18  2  0  0  0  0
 17 33  1  0  0  0  0
 18 34  1  0  0  0  0
M  CHG  1  18   1
M  END
> <s_m_source_file>
AV-unprocessed.smi

> <i_m_source_file_index>
1970

> <i_lp_mmshare_version>
43012

> <i_f3d_flags>
0

> <s_epik_input>
Tz1DMVtDSDJdU1tDSDJdTjFbQ0gyXUMoPU8pW05IXVtDSDJdW0NIMl1jMltjSF1bY0hdW2NIXVtjSF1uMg==

> <s_epik_cmdline>
J2VwaWtfcHl0aG9uJywgJy1waCcsICc3LjAnLCAnLXRuJywgJzgnLCAnLW1hJywgJzIwMCcsICctbWV0YWxfYmluZGluZycsICctaW1hZScsICc8aW5maWxlLm1hZT4nLCAnLW9tYWUnLCAnPG91dGZpbGUubWFlPic=

> <r_epik_Ionization_Penalty>
1.87519

> <r_epik_Ionization_Penalty_Charging>
1.87519

> <r_epik_Ionization_Penalty_Neutral>
8.746e-08

> <r_epik_State_Penalty>
1.99452

> <r_epik_Charging_Adjusted_Penalty>
3.86972

> <i_epik_Tot_Q>
1

> <i_epik_Tot_abs_Q>
1

> <r_epik_Metal_State_Penalty>
2.01927

> <b_epik_Metal_Only>
0

> <s_epik_Chemistry_Notes>
This compound contains an acetal/aminal-like group ( X-CH(R)-Y where X, Y are N, S, or O) that may be acid/base labile, releasing an aldehyde.

> <s_lp_Force_Field>
OPLS_2005

> <r_lp_Energy>
10.5607

> <b_lp_Chiralities_Consistent>
1

> <s_lp_Variant>
AV-unprocessed.smi:1970-2

> <Gold.Version>
5.8.1

> <Gold.Id.Protein>
6NUR|6NUR_protein|mol2

> <Gold.PLP.Fitness>
47.2191

> <Gold.PLP.PLP>
-34.6115

> <Gold.PLP.part.hbond>
-4.0000

> <Gold.PLP.part.metal>
0.0000

> <Gold.PLP.part.buried>
-2.8908

> <Gold.PLP.part.nonpolar>
-28.1026

> <Gold.PLP.part.repulsive>
0.1092

> <Gold.PLP.ligand.clash>
0.0000

> <Gold.PLP.ligand.torsion>
0.4489

> <Gold.PLP.Chemscore.Hbond>
4.4867

> <Gold.PLP.Chemscore.CHOScore>
0.0000

> <Gold.PLP.Chemscore.Metal>
0.0000

> <Gold.Chemscore.Hbonds>
donor molecule, donor type, donor heavy atom, donor atom, acceptor molecule, acceptor atom, score
      L1  H    18    34       P1  8028  2.00
      P1  H  7989  7998       L1     1  0.20
      P1  H  7997  8008       L1     1  1.00
      P1  H 10752 10765       L1     9  1.00

> <Gold.PLP.Chemscore.Internal.Correction>
0.0454

> <Gold.Rescore>
     Score         DG    S(hbond)    S(metal)    S(lipo)     H(rot)  DE(clash)    DE(int)     intcor
     19.37     -19.86       3.00        0.00      81.74       2.03       0.06       0.43       ----

> <Gold.Chemscore.Fitness>
19.3685

> <Gold.Chemscore.DG>
-19.8600

> <Gold.Chemscore.ZeroCoef>
-5.4800

> <Gold.Chemscore.Hbond>
2.9978

> <Gold.Chemscore.Metal>
0.0000

> <Gold.Chemscore.Lipo>
81.7448

> <Gold.Chemscore.Internal_Hbond>
0.0000

> <Gold.Chemscore.DEClash>
0.0579

> <Gold.Chemscore.DEInternal>
0.4335

> <Gold.Chemscore.Rot>
2.0300

> <Gold.Chemscore.Internal.Correction>
   9.000000E+99

> <Gold.Chemscore.Hbonds>
donor molecule, donor type, donor heavy atom, donor atom, acceptor molecule, acceptor atom, score
      L1  H    18    34       P1  8028  0.98
      P1  H  7989  7998       L1     1  0.03
      P1  H  7997  8008       L1     1  1.00
      P1  H 10752 10765       L1     9  0.97

> <Gold.Chemscore.Hbond.Weighted>
-10.0126

> <Gold.Chemscore.Metal.Weighted>
-0.0000

> <Gold.Chemscore.Lipo.Weighted>
-9.5641

> <Gold.Chemscore.Internal_Hbond.Weighted>
0.0000

> <Gold.Chemscore.DEClash.Weighted>
0.0579

> <Gold.Chemscore.DEInternal.Weighted>
0.4335

> <Gold.Chemscore.Rot.Weighted>
5.1967

> <Gold.Chemscore.Internal.Correction.Weighted>
   9.000000E+99

> <Gold.Protein.RotatedTorsions>
[ 6907 6896 6895 6894 ] final -120.08 input  -60.11 | X-H torsion
[ 7974 7965 7964 7962 ] final  -26.27 input  175.53 | X-H torsion
[ 8008 7997 7996 7995 ] final  -20.48 input   59.86 | X-H torsion
[ 10167 10162 10161 10158 ] final   68.59 input  -65.29 | X-H torsion
[ 10718 10713 10712 10709 ] final  -52.15 input   66.30 | X-H torsion
[ 10763 10752 10751 10750 ] final -155.15 input  -60.55 | X-H torsion
[ 11005 11000 10999 10996 ] final   57.85 input  -57.11 | X-H torsion

> <Gold.Protein.ActiveResidues>
 VAL166  LYS551  ARG553  GLY616  TRP617  ASP618  TYR619  PRO620  LYS621  CYS622 
 ASP623  PHE694  ASN695  SER759  ASP760  ASP761  ALA762  ILE779  LEU786  VAL792 
 PHE793  MET794  SER795  GLU796  ALA797  LYS798  CYS799  TRP800  GLU811  SER814 

> <Gold.Protein.RotatedAtoms>
  150.8362  133.8010  159.3078 H   0  0  0  0  0  0  0  0  0  0  0  0  # atno 6907 bound_to 6896
  151.5725  135.1060  160.0008 H   0  0  0  0  0  0  0  0  0  0  0  0  # atno 6908 bound_to 6896
  152.4434  133.7448  159.6717 H   0  0  0  0  0  0  0  0  0  0  0  0  # atno 6909 bound_to 6896
  146.1436  140.4997  142.8641 H   0  0  0  0  0  0  0  0  0  0  0  0  # atno 7974 bound_to 7965
  154.4767  140.2061  155.9861 H   0  0  0  0  0  0  0  0  0  0  0  0  # atno 8008 bound_to 7997
  156.1101  140.3230  155.8030 H   0  0  0  0  0  0  0  0  0  0  0  0  # atno 8009 bound_to 7997
  155.4650  140.0527  157.2977 H   0  0  0  0  0  0  0  0  0  0  0  0  # atno 8010 bound_to 7997
  140.0771  144.5103  150.7187 H   0  0  0  0  0  0  0  0  0  0  0  0  # atno 10167 bound_to 10162
  156.1647  130.4149  149.9739 H   0  0  0  0  0  0  0  0  0  0  0  0  # atno 10718 bound_to 10713
  154.7808  135.3174  154.7994 H   0  0  0  0  0  0  0  0  0  0  0  0  # atno 10763 bound_to 10752
  153.8706  135.6844  153.4779 H   0  0  0  0  0  0  0  0  0  0  0  0  # atno 10764 bound_to 10752
  153.1444  135.4725  154.9481 H   0  0  0  0  0  0  0  0  0  0  0  0  # atno 10765 bound_to 10752
  140.0421  134.5858  155.9368 H   0  0  0  0  0  0  0  0  0  0  0  0  # atno 11005 bound_to 11000
  144.7821  140.5861  143.6598 LP  0  0  0  0  0  0  0  0  0  0  0  0  # atno 17320 bound_to 7965
  145.4989  139.1484  143.3668 LP  0  0  0  0  0  0  0  0  0  0  0  0  # atno 17321 bound_to 7965
  140.7097  143.2495  151.4620 LP  0  0  0  0  0  0  0  0  0  0  0  0  # atno 17342 bound_to 10162
  139.5802  144.1728  152.1957 LP  0  0  0  0  0  0  0  0  0  0  0  0  # atno 17343 bound_to 10162
  156.7558  130.9132  151.3639 LP  0  0  0  0  0  0  0  0  0  0  0  0  # atno 17370 bound_to 10713
  157.6759  130.9093  150.0148 LP  0  0  0  0  0  0  0  0  0  0  0  0  # atno 17371 bound_to 10713
  141.1888  133.6563  156.5341 LP  0  0  0  0  0  0  0  0  0  0  0  0  # atno 17394 bound_to 11000
  140.4052  134.7321  157.4803 LP  0  0  0  0  0  0  0  0  0  0  0  0  # atno 17395 bound_to 11000

$$$$
