AV-unprocessed.smi:657|AV-procd|sdf|3221|dock7
  -GOLD-   22720 0163D 1   1.00000     0.00000
 Structure written by MMmdl.
 47 48  0  0  0  0  0  0  0  0  2 V2000
  149.3376  133.2887  153.6470 C   0  0  0  0  0  0  0  0  0  0  0  0
  148.2637  132.1819  153.7253 C   0  0  0  0  0  0  0  0  0  0  0  0
  148.9612  130.8613  154.1132 C   0  0  0  0  0  0  0  0  0  0  0  0
  147.4651  132.0504  152.4578 N   0  3  1  0  0  0  0  0  0  0  0  0
  146.3698  131.0325  152.5326 C   0  0  0  0  0  0  0  0  0  0  0  0
  145.6957  130.7966  151.1707 C   0  0  0  0  0  0  0  0  0  0  0  0
  145.1780  132.1032  150.5688 C   0  0  0  0  0  0  0  0  0  0  0  0
  146.3396  133.0960  150.4628 C   0  0  0  0  0  0  0  0  0  0  0  0
  147.0236  133.3449  151.8274 C   0  0  1  0  0  0  0  0  0  0  0  0
  146.1605  134.2635  152.7211 C   0  0  0  0  0  0  0  0  0  0  0  0
  145.0395  133.9250  153.0994 O   0  0  0  0  0  0  0  0  0  0  0  0
  146.7009  135.4534  153.0247 N   0  0  0  0  0  0  0  0  0  0  0  0
  146.0403  136.5215  153.7706 C   0  0  0  0  0  0  0  0  0  0  0  0
  145.9956  137.8606  153.0033 C   0  0  0  0  0  0  0  0  0  0  0  0
  146.8928  138.9136  153.6011 C   0  0  0  0  0  0  0  0  0  0  0  0
  146.5345  140.2010  154.0936 C   0  0  0  0  0  0  0  0  0  0  0  0
  147.5635  140.8633  154.5964 N   0  0  0  0  0  0  0  0  0  0  0  0
  148.6121  140.0313  154.4310 N   0  0  0  0  0  0  0  0  0  0  0  0
  149.9250  140.4369  154.8844 C   0  0  0  0  0  0  0  0  0  0  0  0
  148.2390  138.8519  153.8253 C   0  0  0  0  0  0  0  0  0  0  0  0
  149.9610  133.2938  154.5418 H   0  0  0  0  0  0  0  0  0  0  0  0
  148.9020  134.2853  153.5795 H   0  0  0  0  0  0  0  0  0  0  0  0
  149.9966  133.1448  152.7901 H   0  0  0  0  0  0  0  0  0  0  0  0
  147.5843  132.4397  154.5382 H   0  0  0  0  0  0  0  0  0  0  0  0
  149.6414  131.0088  154.9529 H   0  0  0  0  0  0  0  0  0  0  0  0
  149.5468  130.4614  153.2846 H   0  0  0  0  0  0  0  0  0  0  0  0
  148.2554  130.0962  154.4343 H   0  0  0  0  0  0  0  0  0  0  0  0
  146.7612  130.0701  152.8543 H   0  0  0  0  0  0  0  0  0  0  0  0
  145.6272  131.3207  153.2760 H   0  0  0  0  0  0  0  0  0  0  0  0
  146.4087  130.3359  150.4855 H   0  0  0  0  0  0  0  0  0  0  0  0
  144.8741  130.0880  151.2813 H   0  0  0  0  0  0  0  0  0  0  0  0
  144.7465  131.9217  149.5841 H   0  0  0  0  0  0  0  0  0  0  0  0
  144.3799  132.5114  151.1895 H   0  0  0  0  0  0  0  0  0  0  0  0
  147.0770  132.7090  149.7580 H   0  0  0  0  0  0  0  0  0  0  0  0
  145.9833  134.0329  150.0309 H   0  0  0  0  0  0  0  0  0  0  0  0
  147.9245  133.9091  151.5865 H   0  0  0  0  0  0  0  0  0  0  0  0
  147.6253  135.6567  152.6726 H   0  0  0  0  0  0  0  0  0  0  0  0
  145.0375  136.2152  154.0719 H   0  0  0  0  0  0  0  0  0  0  0  0
  146.6094  136.6579  154.6906 H   0  0  0  0  0  0  0  0  0  0  0  0
  146.2772  137.6771  151.9659 H   0  0  0  0  0  0  0  0  0  0  0  0
  144.9646  138.2119  152.9616 H   0  0  0  0  0  0  0  0  0  0  0  0
  145.5585  140.6632  154.1165 H   0  0  0  0  0  0  0  0  0  0  0  0
  150.6733  139.7163  154.5536 H   0  0  0  0  0  0  0  0  0  0  0  0
  149.9380  140.4874  155.9734 H   0  0  0  0  0  0  0  0  0  0  0  0
  150.1727  141.4171  154.4755 H   0  0  0  0  0  0  0  0  0  0  0  0
  148.9514  138.0664  153.6202 H   0  0  0  0  0  0  0  0  0  0  0  0
  148.1178  131.6655  151.7903 H   0  0  0  0  0  0  0  0  0  0  0  0
  1  2  1  0  0  0  0
  1 21  1  0  0  0  0
  1 22  1  0  0  0  0
  1 23  1  0  0  0  0
  2  3  1  0  0  0  0
  2  4  1  0  0  0  0
  2 24  1  0  0  0  0
  3 25  1  0  0  0  0
  3 26  1  0  0  0  0
  3 27  1  0  0  0  0
  4  9  1  0  0  0  0
  4  5  1  0  0  0  0
  4 47  1  0  0  0  0
  5  6  1  0  0  0  0
  5 28  1  0  0  0  0
  5 29  1  0  0  0  0
  6  7  1  0  0  0  0
  6 30  1  0  0  0  0
  6 31  1  0  0  0  0
  7  8  1  0  0  0  0
  7 32  1  0  0  0  0
  7 33  1  0  0  0  0
  8  9  1  0  0  0  0
  8 34  1  0  0  0  0
  8 35  1  0  0  0  0
  9 10  1  0  0  0  0
  9 36  1  0  0  0  0
 10 11  2  0  0  0  0
 10 12  1  0  0  0  0
 12 13  1  0  0  0  0
 12 37  1  0  0  0  0
 13 14  1  0  0  0  0
 13 38  1  0  0  0  0
 13 39  1  0  0  0  0
 14 15  1  0  0  0  0
 14 40  1  0  0  0  0
 14 41  1  0  0  0  0
 15 20  2  0  0  0  0
 15 16  1  0  0  0  0
 16 17  2  0  0  0  0
 16 42  1  0  0  0  0
 17 18  1  0  0  0  0
 18 19  1  0  0  0  0
 18 20  1  0  0  0  0
 19 43  1  0  0  0  0
 19 44  1  0  0  0  0
 19 45  1  0  0  0  0
 20 46  1  0  0  0  0
M  CHG  1   4   1
M  END
> <s_m_source_file>
AV-unprocessed.smi

> <i_m_source_file_index>
657

> <i_lp_mmshare_version>
43012

> <i_f3d_flags>
0

> <s_epik_input>
W0NIM11bQ0hdKFtDSDNdKU4xW0NIMl1bQ0gyXVtDSDJdW0NIMl1bQ0BIXTFDKD1PKVtOSF1bQ0gyXVtDSDJdYzJbY0hdbm4oW0NIM10pW2NIXTI=

> <s_epik_cmdline>
J2VwaWtfcHl0aG9uJywgJy1waCcsICc3LjAnLCAnLXRuJywgJzgnLCAnLW1hJywgJzIwMCcsICctbWV0YWxfYmluZGluZycsICctaW1hZScsICc8aW5maWxlLm1hZT4nLCAnLW9tYWUnLCAnPG91dGZpbGUubWFlPic=

> <r_lp_tautomer_probability>
1

> <r_epik_Ionization_Penalty>
0.0244317

> <r_epik_Ionization_Penalty_Charging>
0.0240236

> <r_epik_Ionization_Penalty_Neutral>
0.00040815

> <r_epik_State_Penalty>
0.0194773

> <r_epik_Charging_Adjusted_Penalty>
0.0435009

> <i_epik_Tot_Q>
1

> <i_epik_Tot_abs_Q>
1

> <r_epik_Metal_State_Penalty>
0.0361957

> <b_epik_Metal_Only>
0

> <s_lp_Force_Field>
OPLS_2005

> <r_lp_Energy>
18.2294

> <b_lp_Chiralities_Consistent>
1

> <s_lp_Variant>
AV-unprocessed.smi:657-2

> <Gold.Version>
5.8.1

> <Gold.Id.Protein>
6NUR|6NUR_protein|mol2

> <Gold.PLP.Fitness>
44.4876

> <Gold.PLP.PLP>
-33.3181

> <Gold.PLP.part.hbond>
-2.0000

> <Gold.PLP.part.metal>
0.0000

> <Gold.PLP.part.buried>
-3.9073

> <Gold.PLP.part.nonpolar>
-29.2434

> <Gold.PLP.part.repulsive>
0.2049

> <Gold.PLP.ligand.clash>
0.0000

> <Gold.PLP.ligand.torsion>
0.5126

> <Gold.PLP.Chemscore.Hbond>
2.0000

> <Gold.PLP.Chemscore.CHOScore>
1.9998

> <Gold.PLP.Chemscore.Metal>
0.0000

> <Gold.Chemscore.Hbonds>
donor molecule, donor type, donor heavy atom, donor atom, acceptor molecule, acceptor atom, score
      L1  H     4    47       P1 10747  1.00
      L1  H    12    37       P1  7948  1.00
      L1  C    16    42       P1 10175  1.00
      L1  C    20    46       P1  7948  1.00

> <Gold.PLP.Chemscore.Internal.Correction>
0.1953

> <Gold.Rescore>
     Score         DG    S(hbond)    S(metal)    S(lipo)     H(rot)  DE(clash)    DE(int)     intcor
     18.15     -18.71       2.00        0.00      91.64       1.63       0.08       0.48       ----

> <Gold.Chemscore.Fitness>
18.1535

> <Gold.Chemscore.DG>
-18.7130

> <Gold.Chemscore.ZeroCoef>
-5.4800

> <Gold.Chemscore.Hbond>
1.9995

> <Gold.Chemscore.Metal>
0.0000

> <Gold.Chemscore.Lipo>
91.6418

> <Gold.Chemscore.Internal_Hbond>
0.0000

> <Gold.Chemscore.DEClash>
0.0844

> <Gold.Chemscore.DEInternal>
0.4751

> <Gold.Chemscore.Rot>
1.6279

> <Gold.Chemscore.Internal.Correction>
   9.000000E+99

> <Gold.Chemscore.Hbonds>
donor molecule, donor type, donor heavy atom, donor atom, acceptor molecule, acceptor atom, score
      L1  H     4    47       P1 10747  1.00
      L1  H    12    37       P1  7948  1.00

> <Gold.Chemscore.Hbond.Weighted>
-6.6783

> <Gold.Chemscore.Metal.Weighted>
-0.0000

> <Gold.Chemscore.Lipo.Weighted>
-10.7221

> <Gold.Chemscore.Internal_Hbond.Weighted>
0.0000

> <Gold.Chemscore.DEClash.Weighted>
0.0844

> <Gold.Chemscore.DEInternal.Weighted>
0.4751

> <Gold.Chemscore.Rot.Weighted>
4.1673

> <Gold.Chemscore.Internal.Correction.Weighted>
   9.000000E+99

> <Gold.Protein.RotatedTorsions>
[ 6907 6896 6895 6894 ] final    2.10 input  -60.11 | X-H torsion
[ 7974 7965 7964 7962 ] final -160.06 input  175.53 | X-H torsion
[ 8008 7997 7996 7995 ] final  -11.72 input   59.86 | X-H torsion
[ 10167 10162 10161 10158 ] final  170.78 input  -65.29 | X-H torsion
[ 10718 10713 10712 10709 ] final  -16.70 input   66.30 | X-H torsion
[ 10763 10752 10751 10750 ] final   64.56 input  -60.55 | X-H torsion
[ 11005 11000 10999 10996 ] final   -4.90 input  -57.11 | X-H torsion

> <Gold.Protein.ActiveResidues>
 VAL166  LYS551  ARG553  GLY616  TRP617  ASP618  TYR619  PRO620  LYS621  CYS622 
 ASP623  PHE694  ASN695  SER759  ASP760  ASP761  ALA762  ILE779  LEU786  VAL792 
 PHE793  MET794  SER795  GLU796  ALA797  LYS798  CYS799  TRP800  GLU811  SER814 

> <Gold.Protein.RotatedAtoms>
  151.6033  135.1045  160.0064 H   0  0  0  0  0  0  0  0  0  0  0  0  # atno 6907 bound_to 6896
  152.4246  133.7169  159.6522 H   0  0  0  0  0  0  0  0  0  0  0  0  # atno 6908 bound_to 6896
  150.8135  133.8307  159.3193 H   0  0  0  0  0  0  0  0  0  0  0  0  # atno 6909 bound_to 6896
  144.7441  140.3596  143.6099 H   0  0  0  0  0  0  0  0  0  0  0  0  # atno 7974 bound_to 7965
  154.5439  140.2295  155.8594 H   0  0  0  0  0  0  0  0  0  0  0  0  # atno 8008 bound_to 7997
  156.1885  140.3083  155.9247 H   0  0  0  0  0  0  0  0  0  0  0  0  # atno 8009 bound_to 7997
  155.3202  140.0440  157.3029 H   0  0  0  0  0  0  0  0  0  0  0  0  # atno 8010 bound_to 7997
  139.5028  144.3558  151.9875 H   0  0  0  0  0  0  0  0  0  0  0  0  # atno 10167 bound_to 10162
  156.5839  130.4781  149.6308 H   0  0  0  0  0  0  0  0  0  0  0  0  # atno 10718 bound_to 10713
  153.0061  135.5388  154.6529 H   0  0  0  0  0  0  0  0  0  0  0  0  # atno 10763 bound_to 10752
  154.5757  135.2845  155.0785 H   0  0  0  0  0  0  0  0  0  0  0  0  # atno 10764 bound_to 10752
  154.1934  135.6496  153.5119 H   0  0  0  0  0  0  0  0  0  0  0  0  # atno 10765 bound_to 10752
  140.6853  133.9118  155.8582 H   0  0  0  0  0  0  0  0  0  0  0  0  # atno 11005 bound_to 11000
  145.7191  139.1705  143.2495 LP  0  0  0  0  0  0  0  0  0  0  0  0  # atno 17320 bound_to 7965
  146.1290  140.7210  142.9421 LP  0  0  0  0  0  0  0  0  0  0  0  0  # atno 17321 bound_to 7965
  140.2995  144.3663  150.6064 LP  0  0  0  0  0  0  0  0  0  0  0  0  # atno 17342 bound_to 10162
  140.5884  143.2169  151.7298 LP  0  0  0  0  0  0  0  0  0  0  0  0  # atno 17343 bound_to 10162
  156.2608  130.6961  151.1729 LP  0  0  0  0  0  0  0  0  0  0  0  0  # atno 17370 bound_to 10713
  157.7320  131.0603  150.5650 LP  0  0  0  0  0  0  0  0  0  0  0  0  # atno 17371 bound_to 10713
  141.0285  134.0790  157.4042 LP  0  0  0  0  0  0  0  0  0  0  0  0  # atno 17394 bound_to 11000
  139.8939  135.0133  156.6924 LP  0  0  0  0  0  0  0  0  0  0  0  0  # atno 17395 bound_to 11000

$$$$
