AV-unprocessed.smi:1451|AV-procd|sdf|5901|dock8
  -GOLD-   22720 5583D 1   1.00000     0.00000
 Structure written by MMmdl.
 47 48  0  0  0  0  0  0  0  0  2 V2000
  146.8070  133.2228  150.9955 C   0  0  0  0  0  0  0  0  0  0  0  0
  145.6897  133.4559  152.0277 C   0  0  2  0  0  0  0  0  0  0  0  0
  144.6258  134.4569  151.5413 C   0  0  0  0  0  0  0  0  0  0  0  0
  145.1583  135.8963  151.5759 C   0  0  0  0  0  0  0  0  0  0  0  0
  145.7186  136.2443  152.9639 C   0  0  0  0  0  0  0  0  0  0  0  0
  146.7682  135.2771  153.3769 N   0  3  1  0  0  0  0  0  0  0  0  0
  147.4331  135.6780  154.6425 C   0  0  0  0  0  0  0  0  0  0  0  0
  146.4675  136.3661  155.6216 C   0  0  0  0  0  0  0  0  0  0  0  0
  147.1456  136.6726  156.8738 N   0  0  0  0  0  0  0  0  0  0  0  0
  146.8548  136.1080  158.0546 C   0  0  0  0  0  0  0  0  0  0  0  0
  145.9870  135.2453  158.1928 O   0  0  0  0  0  0  0  0  0  0  0  0
  147.6884  136.5782  159.2545 C   0  0  0  0  0  0  0  0  0  0  0  0
  147.5488  135.6998  160.4281 N   0  0  0  0  0  0  0  0  0  0  0  0
  147.6830  134.3134  160.2161 C   0  0  0  0  0  0  0  0  0  0  0  0
  147.5604  133.4059  161.2038 C   0  0  0  0  0  0  0  0  0  0  0  0
  147.7611  131.9193  160.9537 C   0  0  0  0  0  0  0  0  0  0  0  0
  147.9899  131.6759  159.6629 F   0  0  0  0  0  0  0  0  0  0  0  0
  148.8077  131.4800  161.6510 F   0  0  0  0  0  0  0  0  0  0  0  0
  146.6893  131.2194  161.3279 F   0  0  0  0  0  0  0  0  0  0  0  0
  147.3111  133.9284  162.5332 C   0  0  0  0  0  0  0  0  0  0  0  0
  147.1870  135.2516  162.7544 C   0  0  0  0  0  0  0  0  0  0  0  0
  147.2990  136.2245  161.6654 C   0  0  0  0  0  0  0  0  0  0  0  0
  147.1762  137.4354  161.8523 O   0  0  0  0  0  0  0  0  0  0  0  0
  146.2457  133.8832  153.4019 C   0  0  0  0  0  0  0  0  0  0  0  0
  147.3846  134.1278  150.8073 H   0  0  0  0  0  0  0  0  0  0  0  0
  146.3964  132.8880  150.0426 H   0  0  0  0  0  0  0  0  0  0  0  0
  147.5018  132.4556  151.3387 H   0  0  0  0  0  0  0  0  0  0  0  0
  145.1920  132.4944  152.1615 H   0  0  0  0  0  0  0  0  0  0  0  0
  144.2880  134.2009  150.5363 H   0  0  0  0  0  0  0  0  0  0  0  0
  143.7476  134.3879  152.1849 H   0  0  0  0  0  0  0  0  0  0  0  0
  145.9352  136.0257  150.8217 H   0  0  0  0  0  0  0  0  0  0  0  0
  144.3606  136.5920  151.3136 H   0  0  0  0  0  0  0  0  0  0  0  0
  146.1335  137.2527  152.9350 H   0  0  0  0  0  0  0  0  0  0  0  0
  144.9171  136.2518  153.7044 H   0  0  0  0  0  0  0  0  0  0  0  0
  147.8335  134.7903  155.1347 H   0  0  0  0  0  0  0  0  0  0  0  0
  148.2875  136.3207  154.4232 H   0  0  0  0  0  0  0  0  0  0  0  0
  146.0744  137.2876  155.1913 H   0  0  0  0  0  0  0  0  0  0  0  0
  145.6146  135.7188  155.8304 H   0  0  0  0  0  0  0  0  0  0  0  0
  147.8796  137.3657  156.8457 H   0  0  0  0  0  0  0  0  0  0  0  0
  148.7305  136.6391  158.9383 H   0  0  0  0  0  0  0  0  0  0  0  0
  147.4114  137.6005  159.5198 H   0  0  0  0  0  0  0  0  0  0  0  0
  147.8884  134.0322  159.1934 H   0  0  0  0  0  0  0  0  0  0  0  0
  147.2166  133.2474  163.3660 H   0  0  0  0  0  0  0  0  0  0  0  0
  146.9985  135.6052  163.7575 H   0  0  0  0  0  0  0  0  0  0  0  0
  145.4587  133.8132  154.1546 H   0  0  0  0  0  0  0  0  0  0  0  0
  147.0228  133.1828  153.7051 H   0  0  0  0  0  0  0  0  0  0  0  0
  147.4780  135.3116  152.6590 H   0  0  0  0  0  0  0  0  0  0  0  0
  1  2  1  0  0  0  0
  1 25  1  0  0  0  0
  1 26  1  0  0  0  0
  1 27  1  0  0  0  0
  2 24  1  0  0  0  0
  2  3  1  0  0  0  0
  2 28  1  0  0  0  0
  3  4  1  0  0  0  0
  3 29  1  0  0  0  0
  3 30  1  0  0  0  0
  4  5  1  0  0  0  0
  4 31  1  0  0  0  0
  4 32  1  0  0  0  0
  5  6  1  0  0  0  0
  5 33  1  0  0  0  0
  5 34  1  0  0  0  0
  6  7  1  0  0  0  0
  6 24  1  0  0  0  0
  6 47  1  0  0  0  0
  7  8  1  0  0  0  0
  7 35  1  0  0  0  0
  7 36  1  0  0  0  0
  8  9  1  0  0  0  0
  8 37  1  0  0  0  0
  8 38  1  0  0  0  0
  9 10  1  0  0  0  0
  9 39  1  0  0  0  0
 10 11  2  0  0  0  0
 10 12  1  0  0  0  0
 12 13  1  0  0  0  0
 12 40  1  0  0  0  0
 12 41  1  0  0  0  0
 13 22  1  0  0  0  0
 13 14  1  0  0  0  0
 14 15  2  0  0  0  0
 14 42  1  0  0  0  0
 15 16  1  0  0  0  0
 15 20  1  0  0  0  0
 16 17  1  0  0  0  0
 16 18  1  0  0  0  0
 16 19  1  0  0  0  0
 20 21  2  0  0  0  0
 20 43  1  0  0  0  0
 21 22  1  0  0  0  0
 21 44  1  0  0  0  0
 22 23  2  0  0  0  0
 24 45  1  0  0  0  0
 24 46  1  0  0  0  0
M  CHG  1   6   1
M  END
> <s_m_source_file>
AV-unprocessed.smi

> <i_m_source_file_index>
1451

> <i_lp_mmshare_version>
43012

> <i_f3d_flags>
0

> <s_epik_input>
W0NIM11bQ0BASF0xW0NIMl1bQ0gyXVtDSDJdTihbQ0gyXTEpW0NIMl1bQ0gyXVtOSF1DKD1PKVtDSDJdbjJbY0hdYyhDKEYpKEYpRilbY0hdW2NIXWMyPU8=

> <s_epik_cmdline>
J2VwaWtfcHl0aG9uJywgJy1waCcsICc3LjAnLCAnLXRuJywgJzgnLCAnLW1hJywgJzIwMCcsICctbWV0YWxfYmluZGluZycsICctaW1hZScsICc8aW5maWxlLm1hZT4nLCAnLW9tYWUnLCAnPG91dGZpbGUubWFlPic=

> <r_lp_tautomer_probability>
1

> <r_epik_Ionization_Penalty>
0.00192452

> <r_epik_Ionization_Penalty_Charging>
0.00192444

> <r_epik_Ionization_Penalty_Neutral>
8.16761e-08

> <r_epik_State_Penalty>
0.00131115

> <r_epik_Charging_Adjusted_Penalty>
0.00323559

> <i_epik_Tot_Q>
1

> <i_epik_Tot_abs_Q>
1

> <r_epik_Metal_State_Penalty>
-0

> <b_epik_Metal_Only>
0

> <s_lp_Force_Field>
OPLS_2005

> <r_lp_Energy>
31.5843

> <b_lp_Chiralities_Consistent>
1

> <s_lp_Variant>
AV-unprocessed.smi:1451-3

> <Gold.Version>
5.8.1

> <Gold.Id.Protein>
6NUR|6NUR_protein|mol2

> <Gold.PLP.Fitness>
45.8434

> <Gold.PLP.PLP>
-37.8993

> <Gold.PLP.part.hbond>
-3.0000

> <Gold.PLP.part.metal>
0.0000

> <Gold.PLP.part.buried>
-3.8387

> <Gold.PLP.part.nonpolar>
-30.4154

> <Gold.PLP.part.repulsive>
0.0000

> <Gold.PLP.ligand.clash>
1.3615

> <Gold.PLP.ligand.torsion>
0.6781

> <Gold.PLP.Chemscore.Hbond>
3.5200

> <Gold.PLP.Chemscore.CHOScore>
0.0000

> <Gold.PLP.Chemscore.Metal>
0.0000

> <Gold.Chemscore.Hbonds>
donor molecule, donor type, donor heavy atom, donor atom, acceptor molecule, acceptor atom, score
      L1  H     6    47       P1  7948  2.00
      P1  H  6931  6943       L1    23  0.74
      P1  H  6934  6947       L1    23  0.78

> <Gold.PLP.Chemscore.Internal.Correction>
0.1017

> <Gold.Rescore>
     Score         DG    S(hbond)    S(metal)    S(lipo)     H(rot)  DE(clash)    DE(int)     intcor
     14.40     -16.57       2.54        0.00      67.67       2.08       0.02       2.15       ----

> <Gold.Chemscore.Fitness>
14.3994

> <Gold.Chemscore.DG>
-16.5681

> <Gold.Chemscore.ZeroCoef>
-5.4800

> <Gold.Chemscore.Hbond>
2.5406

> <Gold.Chemscore.Metal>
0.0000

> <Gold.Chemscore.Lipo>
67.6720

> <Gold.Chemscore.Internal_Hbond>
0.0000

> <Gold.Chemscore.DEClash>
0.0202

> <Gold.Chemscore.DEInternal>
2.1485

> <Gold.Chemscore.Rot>
2.0762

> <Gold.Chemscore.Internal.Correction>
   9.000000E+99

> <Gold.Chemscore.Hbonds>
donor molecule, donor type, donor heavy atom, donor atom, acceptor molecule, acceptor atom, score
      L1  H     6    47       P1  7948  0.94
      P1  H  6931  6943       L1    23  0.49
      P1  H  6934  6947       L1    23  0.78

> <Gold.Chemscore.Hbond.Weighted>
-8.4855

> <Gold.Chemscore.Metal.Weighted>
-0.0000

> <Gold.Chemscore.Lipo.Weighted>
-7.9176

> <Gold.Chemscore.Internal_Hbond.Weighted>
0.0000

> <Gold.Chemscore.DEClash.Weighted>
0.0202

> <Gold.Chemscore.DEInternal.Weighted>
2.1485

> <Gold.Chemscore.Rot.Weighted>
5.3150

> <Gold.Chemscore.Internal.Correction.Weighted>
   9.000000E+99

> <Gold.Protein.RotatedTorsions>
[ 6907 6896 6895 6894 ] final   51.79 input  -60.11 | X-H torsion
[ 7974 7965 7964 7962 ] final -178.71 input  175.53 | X-H torsion
[ 8008 7997 7996 7995 ] final   70.36 input   59.86 | X-H torsion
[ 10167 10162 10161 10158 ] final   57.52 input  -65.29 | X-H torsion
[ 10718 10713 10712 10709 ] final   71.40 input   66.30 | X-H torsion
[ 10763 10752 10751 10750 ] final  -53.62 input  -60.55 | X-H torsion
[ 11005 11000 10999 10996 ] final  -88.14 input  -57.11 | X-H torsion

> <Gold.Protein.ActiveResidues>
 VAL166  LYS551  ARG553  GLY616  TRP617  ASP618  TYR619  PRO620  LYS621  CYS622 
 ASP623  PHE694  ASN695  SER759  ASP760  ASP761  ALA762  ILE779  LEU786  VAL792 
 PHE793  MET794  SER795  GLU796  ALA797  LYS798  CYS799  TRP800  GLU811  SER814 

> <Gold.Protein.RotatedAtoms>
  152.3164  134.7434  160.0324 H   0  0  0  0  0  0  0  0  0  0  0  0  # atno 6907 bound_to 6896
  151.7898  133.3353  159.3504 H   0  0  0  0  0  0  0  0  0  0  0  0  # atno 6908 bound_to 6896
  150.7347  134.5784  159.5970 H   0  0  0  0  0  0  0  0  0  0  0  0  # atno 6909 bound_to 6896
  144.7132  140.0828  143.6425 H   0  0  0  0  0  0  0  0  0  0  0  0  # atno 7974 bound_to 7965
  155.7376  140.3491  155.5089 H   0  0  0  0  0  0  0  0  0  0  0  0  # atno 8008 bound_to 7997
  155.9124  140.1053  157.1290 H   0  0  0  0  0  0  0  0  0  0  0  0  # atno 8009 bound_to 7997
  154.4058  140.1265  156.4562 H   0  0  0  0  0  0  0  0  0  0  0  0  # atno 8010 bound_to 7997
  140.1971  144.4026  150.6545 H   0  0  0  0  0  0  0  0  0  0  0  0  # atno 10167 bound_to 10162
  157.6449  130.9526  150.0784 H   0  0  0  0  0  0  0  0  0  0  0  0  # atno 10718 bound_to 10713
  154.1617  135.6473  153.4987 H   0  0  0  0  0  0  0  0  0  0  0  0  # atno 10763 bound_to 10752
  153.0109  135.5362  154.6704 H   0  0  0  0  0  0  0  0  0  0  0  0  # atno 10764 bound_to 10752
  154.6019  135.2944  155.0497 H   0  0  0  0  0  0  0  0  0  0  0  0  # atno 10765 bound_to 10752
  141.1606  133.7552  156.9408 H   0  0  0  0  0  0  0  0  0  0  0  0  # atno 11005 bound_to 11000
  145.9687  139.2854  143.1112 LP  0  0  0  0  0  0  0  0  0  0  0  0  # atno 17320 bound_to 7965
  145.9140  140.9161  143.0439 LP  0  0  0  0  0  0  0  0  0  0  0  0  # atno 17321 bound_to 7965
  140.6416  143.2204  151.6278 LP  0  0  0  0  0  0  0  0  0  0  0  0  # atno 17342 bound_to 10162
  139.5232  144.3140  152.0968 LP  0  0  0  0  0  0  0  0  0  0  0  0  # atno 17343 bound_to 10162
  156.1767  130.3648  149.9090 LP  0  0  0  0  0  0  0  0  0  0  0  0  # atno 17370 bound_to 10713
  156.7052  130.8949  151.3604 LP  0  0  0  0  0  0  0  0  0  0  0  0  # atno 17371 bound_to 10713
  140.1323  134.9348  157.2354 LP  0  0  0  0  0  0  0  0  0  0  0  0  # atno 17394 bound_to 11000
  140.2938  134.3210  155.7308 LP  0  0  0  0  0  0  0  0  0  0  0  0  # atno 17395 bound_to 11000

$$$$
