AV-unprocessed.smi:1137|AV-procd|sdf|4865|dock1
  -GOLD-   22720 3433D 1   1.00000     0.00000
 Structure written by MMmdl.
 18 18  0  0  0  0  0  0  0  0  3 V2000
  151.1662  140.3314  155.3633 O   0  0  0  0  0  0  0  0  0  0  0  0
  151.9464  139.8477  156.2126 C   0  0  0  0  0  0  0  0  0  0  0  0
  152.9441  139.1367  155.9562 O   0  5  0  0  0  0  0  0  0  0  0  0
  151.6168  140.1254  157.6861 C   0  0  2  0  0  0  0  0  0  0  0  0
  150.3436  139.6050  158.0242 O   0  0  0  0  0  0  0  0  0  0  0  0
  151.7171  141.6311  157.8849 C   0  0  0  0  0  0  0  0  0  0  0  0
  152.6244  142.1670  158.8265 C   0  0  0  0  0  0  0  0  0  0  0  0
  152.7132  143.5654  158.9873 C   0  0  0  0  0  0  0  0  0  0  0  0
  151.8950  144.4003  158.1994 C   0  0  0  0  0  0  0  0  0  0  0  0
  151.0411  143.8550  157.3059 N   0  3  0  0  0  0  0  0  0  0  0  0
  150.9250  142.5215  157.1238 C   0  0  0  0  0  0  0  0  0  0  0  0
  152.3539  139.6244  158.3156 H   0  0  0  0  0  0  0  0  0  0  0  0
  150.0875  139.9575  158.8621 H   0  0  0  0  0  0  0  0  0  0  0  0
  153.2507  141.5134  159.4163 H   0  0  0  0  0  0  0  0  0  0  0  0
  153.4028  143.9903  159.7019 H   0  0  0  0  0  0  0  0  0  0  0  0
  151.9002  145.4791  158.2536 H   0  0  0  0  0  0  0  0  0  0  0  0
  150.2143  142.2077  156.3728 H   0  0  0  0  0  0  0  0  0  0  0  0
  150.4614  144.4756  156.7407 H   0  0  0  0  0  0  0  0  0  0  0  0
  1  2  2  0  0  0  0
  2  3  1  0  0  0  0
  2  4  1  0  0  0  0
  4  5  1  0  0  0  0
  4  6  1  0  0  0  0
  4 12  1  0  0  0  0
  5 13  1  0  0  0  0
  6 11  1  0  0  0  0
  6  7  2  0  0  0  0
  7  8  1  0  0  0  0
  7 14  1  0  0  0  0
  8  9  2  0  0  0  0
  8 15  1  0  0  0  0
  9 10  1  0  0  0  0
  9 16  1  0  0  0  0
 10 11  2  0  0  0  0
 10 18  1  0  0  0  0
 11 17  1  0  0  0  0
M  CHG  1   3  -1
M  CHG  1  10   1
M  END
> <s_m_source_file>
AV-unprocessed.smi

> <i_m_source_file_index>
1137

> <i_lp_mmshare_version>
43012

> <i_f3d_flags>
0

> <s_epik_input>
Tz1DKFtPSF0pW0NASF0oW09IXSljMVtjSF1bY0hdW2NIXW5bY0hdMQ==

> <s_epik_cmdline>
J2VwaWtfcHl0aG9uJywgJy1waCcsICc3LjAnLCAnLXRuJywgJzgnLCAnLW1hJywgJzIwMCcsICctbWV0YWxfYmluZGluZycsICctaW1hZScsICc8aW5maWxlLm1hZT4nLCAnLW9tYWUnLCAnPG91dGZpbGUubWFlPic=

> <r_epik_Ionization_Penalty>
2.03958

> <r_epik_Ionization_Penalty_Charging>
2.03958

> <r_epik_Ionization_Penalty_Neutral>
5.11681e-08

> <r_epik_State_Penalty>
2.1712

> <r_epik_Charging_Adjusted_Penalty>
4.21078

> <i_epik_Tot_Q>
0

> <i_epik_Tot_abs_Q>
2

> <r_epik_Metal_State_Penalty>
6.24859

> <b_epik_Metal_Only>
0

> <s_lp_Force_Field>
OPLS_2005

> <r_lp_Energy>
7.29674

> <b_lp_Chiralities_Consistent>
1

> <s_lp_Variant>
AV-unprocessed.smi:1137-3

> <Gold.Version>
5.8.1

> <Gold.Id.Protein>
6NUR|6NUR_protein|mol2

> <Gold.PLP.Fitness>
40.1441

> <Gold.PLP.PLP>
-25.2192

> <Gold.PLP.part.hbond>
-3.0000

> <Gold.PLP.part.metal>
0.0000

> <Gold.PLP.part.buried>
-4.3250

> <Gold.PLP.part.nonpolar>
-18.7737

> <Gold.PLP.part.repulsive>
0.0351

> <Gold.PLP.ligand.clash>
0.0000

> <Gold.PLP.ligand.torsion>
0.0247

> <Gold.PLP.Chemscore.Hbond>
4.9840

> <Gold.PLP.Chemscore.CHOScore>
0.0000

> <Gold.PLP.Chemscore.Metal>
0.0000

> <Gold.Chemscore.Hbonds>
donor molecule, donor type, donor heavy atom, donor atom, acceptor molecule, acceptor atom, score
      L1  H    10    18       P1  8028  2.00
      P1  H  7989  7998       L1     1  1.00
      P1  H  7997  8009       L1     3  2.00

> <Gold.PLP.Chemscore.Internal.Correction>
0.0222

> <Gold.Rescore>
     Score         DG    S(hbond)    S(metal)    S(lipo)     H(rot)  DE(clash)    DE(int)     intcor
     14.90     -16.25       2.88        0.00      57.00       2.16       0.00       1.34       ----

> <Gold.Chemscore.Fitness>
14.9043

> <Gold.Chemscore.DG>
-16.2468

> <Gold.Chemscore.ZeroCoef>
-5.4800

> <Gold.Chemscore.Hbond>
2.8813

> <Gold.Chemscore.Metal>
0.0000

> <Gold.Chemscore.Lipo>
56.9999

> <Gold.Chemscore.Internal_Hbond>
0.0000

> <Gold.Chemscore.DEClash>
0.0004

> <Gold.Chemscore.DEInternal>
1.3421

> <Gold.Chemscore.Rot>
2.1584

> <Gold.Chemscore.Internal.Correction>
   9.000000E+99

> <Gold.Chemscore.Hbonds>
donor molecule, donor type, donor heavy atom, donor atom, acceptor molecule, acceptor atom, score
      L1  H    10    18       P1  8028  0.89
      P1  H  7989  7998       L1     1  0.91
      P1  H  7997  8009       L1     3  0.68

> <Gold.Chemscore.Hbond.Weighted>
-9.6234

> <Gold.Chemscore.Metal.Weighted>
-0.0000

> <Gold.Chemscore.Lipo.Weighted>
-6.6690

> <Gold.Chemscore.Internal_Hbond.Weighted>
0.0000

> <Gold.Chemscore.DEClash.Weighted>
0.0004

> <Gold.Chemscore.DEInternal.Weighted>
1.3421

> <Gold.Chemscore.Rot.Weighted>
5.5256

> <Gold.Chemscore.Internal.Correction.Weighted>
   9.000000E+99

> <Gold.Protein.RotatedTorsions>
[ 6907 6896 6895 6894 ] final -130.21 input  -60.11 | X-H torsion
[ 7974 7965 7964 7962 ] final  -63.98 input  175.53 | X-H torsion
[ 8008 7997 7996 7995 ] final -141.35 input   59.86 | X-H torsion
[ 10167 10162 10161 10158 ] final  -51.04 input  -65.29 | X-H torsion
[ 10718 10713 10712 10709 ] final   71.33 input   66.30 | X-H torsion
[ 10763 10752 10751 10750 ] final  -39.20 input  -60.55 | X-H torsion
[ 11005 11000 10999 10996 ] final  115.42 input  -57.11 | X-H torsion

> <Gold.Protein.ActiveResidues>
 VAL166  LYS551  ARG553  GLY616  TRP617  ASP618  TYR619  PRO620  LYS621  CYS622 
 ASP623  PHE694  ASN695  SER759  ASP760  ASP761  ALA762  ILE779  LEU786  VAL792 
 PHE793  MET794  SER795  GLU796  ALA797  LYS798  CYS799  TRP800  GLU811  SER814 

> <Gold.Protein.RotatedAtoms>
  150.9373  133.6697  159.2797 H   0  0  0  0  0  0  0  0  0  0  0  0  # atno 6907 bound_to 6896
  151.4099  135.0982  159.9591 H   0  0  0  0  0  0  0  0  0  0  0  0  # atno 6908 bound_to 6896
  152.5053  133.8848  159.7419 H   0  0  0  0  0  0  0  0  0  0  0  0  # atno 6909 bound_to 6896
  145.7723  140.8806  143.0373 H   0  0  0  0  0  0  0  0  0  0  0  0  # atno 7974 bound_to 7965
  155.4764  140.0557  157.2973 H   0  0  0  0  0  0  0  0  0  0  0  0  # atno 8008 bound_to 7997
  154.4678  140.2026  156.0026 H   0  0  0  0  0  0  0  0  0  0  0  0  # atno 8009 bound_to 7997
  156.1004  140.3220  155.7939 H   0  0  0  0  0  0  0  0  0  0  0  0  # atno 8010 bound_to 7997
  140.6608  143.2635  151.4446 H   0  0  0  0  0  0  0  0  0  0  0  0  # atno 10167 bound_to 10162
  157.6446  130.9523  150.0774 H   0  0  0  0  0  0  0  0  0  0  0  0  # atno 10718 bound_to 10713
  153.9254  135.6777  153.4746 H   0  0  0  0  0  0  0  0  0  0  0  0  # atno 10763 bound_to 10752
  153.1007  135.4829  154.8858 H   0  0  0  0  0  0  0  0  0  0  0  0  # atno 10764 bound_to 10752
  154.7456  135.3171  154.8608 H   0  0  0  0  0  0  0  0  0  0  0  0  # atno 10765 bound_to 10752
  139.9009  134.9583  156.7043 H   0  0  0  0  0  0  0  0  0  0  0  0  # atno 11005 bound_to 11000
  144.6810  139.9873  143.7484 LP  0  0  0  0  0  0  0  0  0  0  0  0  # atno 17320 bound_to 7965
  146.0157  139.3208  143.0843 LP  0  0  0  0  0  0  0  0  0  0  0  0  # atno 17321 bound_to 7965
  139.5842  144.1642  152.2007 LP  0  0  0  0  0  0  0  0  0  0  0  0  # atno 17342 bound_to 10162
  140.0977  144.5566  150.7010 LP  0  0  0  0  0  0  0  0  0  0  0  0  # atno 17343 bound_to 10162
  156.1760  130.3648  149.9099 LP  0  0  0  0  0  0  0  0  0  0  0  0  # atno 17370 bound_to 10713
  156.7063  130.8953  151.3605 LP  0  0  0  0  0  0  0  0  0  0  0  0  # atno 17371 bound_to 10713
  140.7126  133.9210  155.8094 LP  0  0  0  0  0  0  0  0  0  0  0  0  # atno 17394 bound_to 11000
  141.0289  134.0784  157.4037 LP  0  0  0  0  0  0  0  0  0  0  0  0  # atno 17395 bound_to 11000

$$$$
