AV-unprocessed.smi:1244|AV-procd|sdf|5231|dock4
  -GOLD-   22720 4333D 1   1.00000     0.00000
 Structure written by MMmdl.
 56 58  0  0  0  0  0  0  0  0  3 V2000
  152.9594  138.7734  154.8101 C   0  0  0  0  0  0  0  0  0  0  0  0
  152.0013  138.7199  156.0138 C   0  0  2  0  0  0  0  0  0  0  0  0
  150.6824  137.9778  155.7200 C   0  0  0  0  0  0  0  0  0  0  0  0
  149.7861  138.7922  154.8652 N   0  3  1  0  0  0  0  0  0  0  0  0
  148.5358  138.0750  154.5105 C   0  0  0  0  0  0  0  0  0  0  0  0
  147.6941  138.8420  153.4726 C   0  0  0  0  0  0  0  0  0  0  0  0
  146.7422  137.9682  152.7965 N   0  0  0  0  0  0  0  0  0  0  0  0
  145.5829  137.5461  153.3209 C   0  0  0  0  0  0  0  0  0  0  0  0
  145.1768  137.8869  154.4318 O   0  0  0  0  0  0  0  0  0  0  0  0
  144.9492  136.7004  152.4911 N   0  0  0  0  0  0  0  0  0  0  0  0
  143.7396  135.9869  152.7272 C   0  0  0  0  0  0  0  0  0  0  0  0
  142.7109  136.5328  153.5375 C   0  0  0  0  0  0  0  0  0  0  0  0
  141.5349  135.7960  153.7727 C   0  0  0  0  0  0  0  0  0  0  0  0
  141.4020  134.5241  153.1906 C   0  0  0  0  0  0  0  0  0  0  0  0
  142.3889  134.0404  152.4086 N   0  3  0  0  0  0  0  0  0  0  0  0
  143.5375  134.7072  152.1319 C   0  0  0  0  0  0  0  0  0  0  0  0
  144.4770  134.0773  151.2841 N   0  0  0  0  0  0  0  0  0  0  0  0
  145.8723  133.9539  151.6899 C   0  0  0  0  0  0  0  0  0  0  0  0
  146.4785  132.9441  150.7192 C   0  0  0  0  0  0  0  0  0  0  0  0
  145.3178  131.9830  150.4802 C   0  0  0  0  0  0  0  0  0  0  0  0
  144.0795  132.8837  150.5444 C   0  0  0  0  0  0  0  0  0  0  0  0
  149.5560  140.1197  155.4839 C   0  0  0  0  0  0  0  0  0  0  0  0
  150.8956  140.8358  155.7316 C   0  0  1  0  0  0  0  0  0  0  0  0
  150.7065  142.1772  156.4488 C   0  0  0  0  0  0  0  0  0  0  0  0
  151.7294  140.0162  156.5466 O   0  0  0  0  0  0  0  0  0  0  0  0
  153.2569  137.7689  154.5078 H   0  0  0  0  0  0  0  0  0  0  0  0
  153.8672  139.3228  155.0602 H   0  0  0  0  0  0  0  0  0  0  0  0
  152.5076  139.2512  153.9413 H   0  0  0  0  0  0  0  0  0  0  0  0
  152.5197  138.1736  156.8025 H   0  0  0  0  0  0  0  0  0  0  0  0
  150.8948  137.0207  155.2415 H   0  0  0  0  0  0  0  0  0  0  0  0
  150.1705  137.7545  156.6577 H   0  0  0  0  0  0  0  0  0  0  0  0
  148.7975  137.1027  154.0906 H   0  0  0  0  0  0  0  0  0  0  0  0
  147.9538  137.8750  155.4117 H   0  0  0  0  0  0  0  0  0  0  0  0
  147.1179  139.6343  153.9489 H   0  0  0  0  0  0  0  0  0  0  0  0
  148.3413  139.3270  152.7396 H   0  0  0  0  0  0  0  0  0  0  0  0
  146.9990  137.6409  151.8761 H   0  0  0  0  0  0  0  0  0  0  0  0
  145.4499  136.4425  151.6533 H   0  0  0  0  0  0  0  0  0  0  0  0
  142.8043  137.5124  153.9810 H   0  0  0  0  0  0  0  0  0  0  0  0
  140.7482  136.2006  154.3924 H   0  0  0  0  0  0  0  0  0  0  0  0
  140.5398  133.8855  153.3184 H   0  0  0  0  0  0  0  0  0  0  0  0
  146.3862  134.9145  151.6487 H   0  0  0  0  0  0  0  0  0  0  0  0
  145.9412  133.5685  152.7080 H   0  0  0  0  0  0  0  0  0  0  0  0
  146.7507  133.4387  149.7858 H   0  0  0  0  0  0  0  0  0  0  0  0
  147.3673  132.4529  151.1156 H   0  0  0  0  0  0  0  0  0  0  0  0
  145.3993  131.4419  149.5372 H   0  0  0  0  0  0  0  0  0  0  0  0
  145.2793  131.2490  151.2860 H   0  0  0  0  0  0  0  0  0  0  0  0
  143.2394  132.3692  151.0129 H   0  0  0  0  0  0  0  0  0  0  0  0
  143.7813  133.1776  149.5376 H   0  0  0  0  0  0  0  0  0  0  0  0
  148.9357  140.7394  154.8374 H   0  0  0  0  0  0  0  0  0  0  0  0
  149.0135  139.9952  156.4226 H   0  0  0  0  0  0  0  0  0  0  0  0
  151.3876  141.0308  154.7785 H   0  0  0  0  0  0  0  0  0  0  0  0
  150.0800  142.8512  155.8640 H   0  0  0  0  0  0  0  0  0  0  0  0
  151.6649  142.6714  156.6093 H   0  0  0  0  0  0  0  0  0  0  0  0
  150.2347  142.0423  157.4225 H   0  0  0  0  0  0  0  0  0  0  0  0
  150.2850  138.9485  154.0009 H   0  0  0  0  0  0  0  0  0  0  0  0
  142.2583  133.1179  151.9933 H   0  0  0  0  0  0  0  0  0  0  0  0
  1  2  1  0  0  0  0
  1 26  1  0  0  0  0
  1 27  1  0  0  0  0
  1 28  1  0  0  0  0
  2 25  1  0  0  0  0
  2  3  1  0  0  0  0
  2 29  1  0  0  0  0
  3  4  1  0  0  0  0
  3 30  1  0  0  0  0
  3 31  1  0  0  0  0
  4  5  1  0  0  0  0
  4 22  1  0  0  0  0
  4 55  1  0  0  0  0
  5  6  1  0  0  0  0
  5 32  1  0  0  0  0
  5 33  1  0  0  0  0
  6  7  1  0  0  0  0
  6 34  1  0  0  0  0
  6 35  1  0  0  0  0
  7  8  1  0  0  0  0
  7 36  1  0  0  0  0
  8  9  2  0  0  0  0
  8 10  1  0  0  0  0
 10 11  1  0  0  0  0
 10 37  1  0  0  0  0
 11 16  1  0  0  0  0
 11 12  2  0  0  0  0
 12 13  1  0  0  0  0
 12 38  1  0  0  0  0
 13 14  2  0  0  0  0
 13 39  1  0  0  0  0
 14 15  1  0  0  0  0
 14 40  1  0  0  0  0
 15 16  2  0  0  0  0
 15 56  1  0  0  0  0
 16 17  1  0  0  0  0
 17 21  1  0  0  0  0
 17 18  1  0  0  0  0
 18 19  1  0  0  0  0
 18 41  1  0  0  0  0
 18 42  1  0  0  0  0
 19 20  1  0  0  0  0
 19 43  1  0  0  0  0
 19 44  1  0  0  0  0
 20 21  1  0  0  0  0
 20 45  1  0  0  0  0
 20 46  1  0  0  0  0
 21 47  1  0  0  0  0
 21 48  1  0  0  0  0
 22 23  1  0  0  0  0
 22 49  1  0  0  0  0
 22 50  1  0  0  0  0
 23 24  1  0  0  0  0
 23 25  1  0  0  0  0
 23 51  1  0  0  0  0
 24 52  1  0  0  0  0
 24 53  1  0  0  0  0
 24 54  1  0  0  0  0
M  CHG  1   4   1
M  CHG  1  15   1
M  END
> <s_m_source_file>
AV-unprocessed.smi

> <i_m_source_file_index>
1244

> <i_lp_mmshare_version>
43012

> <i_f3d_flags>
0

> <s_epik_input>
W0NIM11bQ0BASF0xW0NIMl1OKFtDSDJdW0NASF0oTzEpW0NIM10pW0NIMl1bQ0gyXVtOSF1DKD1PKVtOSF1jMltjSF1bY0hdW2NIXW5jMk4zW0NIMl1bQ0gyXVtDSDJdW0NIMl0z

> <s_epik_cmdline>
J2VwaWtfcHl0aG9uJywgJy1waCcsICc3LjAnLCAnLXRuJywgJzgnLCAnLW1hJywgJzIwMCcsICctbWV0YWxfYmluZGluZycsICctaW1hZScsICc8aW5maWxlLm1hZT4nLCAnLW9tYWUnLCAnPG91dGZpbGUubWFlPic=

> <r_lp_tautomer_probability>
0.999994

> <r_epik_Ionization_Penalty>
1.81601

> <r_epik_Ionization_Penalty_Charging>
1.81599

> <r_epik_Ionization_Penalty_Neutral>
2.01972e-05

> <r_epik_State_Penalty>
1.85672

> <r_epik_Charging_Adjusted_Penalty>
3.6727

> <i_epik_Tot_Q>
2

> <i_epik_Tot_abs_Q>
2

> <r_epik_Metal_State_Penalty>
1.93796

> <b_epik_Metal_Only>
0

> <s_lp_Force_Field>
OPLS_2005

> <r_lp_Energy>
54.4997

> <b_lp_Chiralities_Consistent>
1

> <s_lp_Variant>
AV-unprocessed.smi:1244-11

> <Gold.Version>
5.8.1

> <Gold.Id.Protein>
6NUR|6NUR_protein|mol2

> <Gold.PLP.Fitness>
40.8012

> <Gold.PLP.PLP>
-41.5967

> <Gold.PLP.part.hbond>
-1.6986

> <Gold.PLP.part.metal>
0.0000

> <Gold.PLP.part.buried>
-7.0560

> <Gold.PLP.part.nonpolar>
-34.4853

> <Gold.PLP.part.repulsive>
0.3373

> <Gold.PLP.ligand.clash>
0.0000

> <Gold.PLP.ligand.torsion>
0.6324

> <Gold.PLP.Chemscore.Hbond>
0.0083

> <Gold.PLP.Chemscore.CHOScore>
0.0000

> <Gold.PLP.Chemscore.Metal>
0.0000

> <Gold.Chemscore.Hbonds>
donor molecule, donor type, donor heavy atom, donor atom, acceptor molecule, acceptor atom, score
      L1  H     7    36       P1  7948  0.03

> <Gold.PLP.Chemscore.Internal.Correction>
0.4444

> <Gold.Rescore>
     Score         DG    S(hbond)    S(metal)    S(lipo)     H(rot)  DE(clash)    DE(int)     intcor
     11.79     -14.14       0.09        0.00     107.18       1.63       0.39       1.95       ----

> <Gold.Chemscore.Fitness>
11.7945

> <Gold.Chemscore.DG>
-14.1376

> <Gold.Chemscore.ZeroCoef>
-5.4800

> <Gold.Chemscore.Hbond>
0.0864

> <Gold.Chemscore.Metal>
0.0000

> <Gold.Chemscore.Lipo>
107.1787

> <Gold.Chemscore.Internal_Hbond>
0.0000

> <Gold.Chemscore.DEClash>
0.3921

> <Gold.Chemscore.DEInternal>
1.9510

> <Gold.Chemscore.Rot>
1.6293

> <Gold.Chemscore.Internal.Correction>
   9.000000E+99

> <Gold.Chemscore.Hbonds>
donor molecule, donor type, donor heavy atom, donor atom, acceptor molecule, acceptor atom, score
      L1  H     7    36       P1  7948  0.04

> <Gold.Chemscore.Hbond.Weighted>
-0.2885

> <Gold.Chemscore.Metal.Weighted>
-0.0000

> <Gold.Chemscore.Lipo.Weighted>
-12.5399

> <Gold.Chemscore.Internal_Hbond.Weighted>
0.0000

> <Gold.Chemscore.DEClash.Weighted>
0.3921

> <Gold.Chemscore.DEInternal.Weighted>
1.9510

> <Gold.Chemscore.Rot.Weighted>
4.1709

> <Gold.Chemscore.Internal.Correction.Weighted>
   9.000000E+99

> <Gold.Protein.RotatedTorsions>
[ 6907 6896 6895 6894 ] final   13.17 input  -60.11 | X-H torsion
[ 7974 7965 7964 7962 ] final -114.19 input  175.53 | X-H torsion
[ 8008 7997 7996 7995 ] final   39.31 input   59.86 | X-H torsion
[ 10167 10162 10161 10158 ] final -149.57 input  -65.29 | X-H torsion
[ 10718 10713 10712 10709 ] final -179.82 input   66.30 | X-H torsion
[ 10763 10752 10751 10750 ] final -102.28 input  -60.55 | X-H torsion
[ 11005 11000 10999 10996 ] final -136.03 input  -57.11 | X-H torsion

> <Gold.Protein.ActiveResidues>
 VAL166  LYS551  ARG553  GLY616  TRP617  ASP618  TYR619  PRO620  LYS621  CYS622 
 ASP623  PHE694  ASN695  SER759  ASP760  ASP761  ALA762  ILE779  LEU786  VAL792 
 PHE793  MET794  SER795  GLU796  ALA797  LYS798  CYS799  TRP800  GLU811  SER814 

> <Gold.Protein.RotatedAtoms>
  151.7820  135.0759  160.0374 H   0  0  0  0  0  0  0  0  0  0  0  0  # atno 6907 bound_to 6896
  152.3216  133.5856  159.5757 H   0  0  0  0  0  0  0  0  0  0  0  0  # atno 6908 bound_to 6896
  150.7373  133.9918  159.3651 H   0  0  0  0  0  0  0  0  0  0  0  0  # atno 6909 bound_to 6896
  145.1231  140.8680  143.3802 H   0  0  0  0  0  0  0  0  0  0  0  0  # atno 7974 bound_to 7965
  155.2344  140.3341  155.4299 H   0  0  0  0  0  0  0  0  0  0  0  0  # atno 8008 bound_to 7997
  156.2281  140.1838  156.7357 H   0  0  0  0  0  0  0  0  0  0  0  0  # atno 8009 bound_to 7997
  154.5933  140.0634  156.9253 H   0  0  0  0  0  0  0  0  0  0  0  0  # atno 8010 bound_to 7997
  139.7431  143.8632  152.2567 H   0  0  0  0  0  0  0  0  0  0  0  0  # atno 10167 bound_to 10162
  156.8647  130.9763  151.3080 H   0  0  0  0  0  0  0  0  0  0  0  0  # atno 10718 bound_to 10713
  154.7722  135.4866  153.9671 H   0  0  0  0  0  0  0  0  0  0  0  0  # atno 10763 bound_to 10752
  153.1382  135.6767  153.9077 H   0  0  0  0  0  0  0  0  0  0  0  0  # atno 10764 bound_to 10752
  153.8759  135.3138  155.3422 H   0  0  0  0  0  0  0  0  0  0  0  0  # atno 10765 bound_to 10752
  140.8843  134.1892  157.4570 H   0  0  0  0  0  0  0  0  0  0  0  0  # atno 11005 bound_to 11000
  145.0719  139.3025  143.5828 LP  0  0  0  0  0  0  0  0  0  0  0  0  # atno 17320 bound_to 7965
  146.3519  140.0196  142.8660 LP  0  0  0  0  0  0  0  0  0  0  0  0  # atno 17321 bound_to 7965
  139.8588  144.7127  150.9125 LP  0  0  0  0  0  0  0  0  0  0  0  0  # atno 17342 bound_to 10162
  140.7788  143.3835  151.1434 LP  0  0  0  0  0  0  0  0  0  0  0  0  # atno 17343 bound_to 10162
  157.6230  130.8669  149.9141 LP  0  0  0  0  0  0  0  0  0  0  0  0  # atno 17370 bound_to 10713
  156.0758  130.3679  150.0681 LP  0  0  0  0  0  0  0  0  0  0  0  0  # atno 17371 bound_to 10713
  139.8723  134.9831  156.5184 LP  0  0  0  0  0  0  0  0  0  0  0  0  # atno 17394 bound_to 11000
  140.8423  133.8195  155.9087 LP  0  0  0  0  0  0  0  0  0  0  0  0  # atno 17395 bound_to 11000

$$$$
