AV-unprocessed.smi:334|AV-procd|sdf|2367|dock9
  -GOLD-   2262022283D 1   1.00000     0.00000
 Structure written by MMmdl.
 44 46  0  0  0  0  0  0  0  0  3 V2000
  154.3901  142.3027  160.4740 C   0  0  0  0  0  0  0  0  0  0  0  0
  153.3110  141.7261  159.5430 C   0  0  1  0  0  0  0  0  0  0  0  0
  153.1174  140.3085  159.8285 N   0  0  0  0  0  0  0  0  0  0  0  0
  153.9967  139.3220  159.5846 C   0  0  0  0  0  0  0  0  0  0  0  0
  155.1267  139.5277  159.1435 O   0  0  0  0  0  0  0  0  0  0  0  0
  153.5507  137.8748  159.8574 C   0  0  0  0  0  0  0  0  0  0  0  0
  154.3157  137.1803  160.9105 N   0  0  0  0  0  0  0  0  0  0  0  0
  154.6757  137.9366  162.0432 C   0  0  0  0  0  0  0  0  0  0  0  0
  155.3605  137.4019  163.0730 C   0  0  0  0  0  0  0  0  0  0  0  0
  155.7155  138.1918  164.2314 N   0  3  0  0  0  0  0  0  0  0  0  0
  155.9977  137.6117  165.2747 O   0  0  0  0  0  0  0  0  0  0  0  0
  155.7235  139.4156  164.1378 O   0  5  0  0  0  0  0  0  0  0  0  0
  155.7261  136.0014  162.9850 C   0  0  0  0  0  0  0  0  0  0  0  0
  155.3825  135.2716  161.9057 C   0  0  0  0  0  0  0  0  0  0  0  0
  154.6341  135.8548  160.7878 C   0  0  0  0  0  0  0  0  0  0  0  0
  154.3039  135.1900  159.8060 O   0  0  0  0  0  0  0  0  0  0  0  0
  151.9526  142.4503  159.6913 C   0  0  2  0  0  0  0  0  0  0  0  0
  150.9342  142.1596  158.5640 C   0  0  0  0  0  0  0  0  0  0  0  0
  150.4519  143.5660  158.1631 C   0  0  2  0  0  0  0  0  0  0  0  0
  151.5625  144.2658  157.3590 C   0  0  0  0  0  0  0  0  0  0  0  0
  152.6086  144.5905  158.4409 C   0  0  0  0  0  0  0  0  0  0  0  0
  151.9774  143.9986  159.7184 C   0  0  1  0  0  0  0  0  0  0  0  0
  150.5026  144.3164  159.4893 C   0  0  0  0  0  0  0  0  0  0  0  0
  154.5919  143.3492  160.2446 H   0  0  0  0  0  0  0  0  0  0  0  0
  155.3313  141.7624  160.3697 H   0  0  0  0  0  0  0  0  0  0  0  0
  154.0862  142.2430  161.5194 H   0  0  0  0  0  0  0  0  0  0  0  0
  153.6525  141.8190  158.5118 H   0  0  0  0  0  0  0  0  0  0  0  0
  152.2154  140.0476  160.1995 H   0  0  0  0  0  0  0  0  0  0  0  0
  152.4890  137.8824  160.1101 H   0  0  0  0  0  0  0  0  0  0  0  0
  153.6103  137.3225  158.9185 H   0  0  0  0  0  0  0  0  0  0  0  0
  154.3512  138.9669  162.0158 H   0  0  0  0  0  0  0  0  0  0  0  0
  156.2767  135.5273  163.7841 H   0  0  0  0  0  0  0  0  0  0  0  0
  155.6642  134.2298  161.8612 H   0  0  0  0  0  0  0  0  0  0  0  0
  151.5074  142.1185  160.6315 H   0  0  0  0  0  0  0  0  0  0  0  0
  151.3715  141.6284  157.7174 H   0  0  0  0  0  0  0  0  0  0  0  0
  150.1100  141.5528  158.9412 H   0  0  0  0  0  0  0  0  0  0  0  0
  149.4820  143.5707  157.6651 H   0  0  0  0  0  0  0  0  0  0  0  0
  151.9647  143.6311  156.5686 H   0  0  0  0  0  0  0  0  0  0  0  0
  151.1915  145.1814  156.8968 H   0  0  0  0  0  0  0  0  0  0  0  0
  153.5939  144.1867  158.2129 H   0  0  0  0  0  0  0  0  0  0  0  0
  152.7213  145.6708  158.5411 H   0  0  0  0  0  0  0  0  0  0  0  0
  152.3877  144.4133  160.6396 H   0  0  0  0  0  0  0  0  0  0  0  0
  150.2985  145.3841  159.3901 H   0  0  0  0  0  0  0  0  0  0  0  0
  149.8425  143.8962  160.2504 H   0  0  0  0  0  0  0  0  0  0  0  0
  1  2  1  0  0  0  0
  1 24  1  0  0  0  0
  1 25  1  0  0  0  0
  1 26  1  0  0  0  0
  2  3  1  0  0  0  0
  2 17  1  0  0  0  0
  2 27  1  0  0  0  0
  3  4  1  0  0  0  0
  3 28  1  0  0  0  0
  4  5  2  0  0  0  0
  4  6  1  0  0  0  0
  6  7  1  0  0  0  0
  6 29  1  0  0  0  0
  6 30  1  0  0  0  0
  7 15  1  0  0  0  0
  7  8  1  0  0  0  0
  8  9  2  0  0  0  0
  8 31  1  0  0  0  0
  9 10  1  0  0  0  0
  9 13  1  0  0  0  0
 10 11  2  0  0  0  0
 10 12  1  0  0  0  0
 13 14  2  0  0  0  0
 13 32  1  0  0  0  0
 14 15  1  0  0  0  0
 14 33  1  0  0  0  0
 15 16  2  0  0  0  0
 17 22  1  0  0  0  0
 17 18  1  0  0  0  0
 17 34  1  0  0  0  0
 18 19  1  0  0  0  0
 18 35  1  0  0  0  0
 18 36  1  0  0  0  0
 19 23  1  0  0  0  0
 19 20  1  0  0  0  0
 19 37  1  0  0  0  0
 20 21  1  0  0  0  0
 20 38  1  0  0  0  0
 20 39  1  0  0  0  0
 21 22  1  0  0  0  0
 21 40  1  0  0  0  0
 21 41  1  0  0  0  0
 22 23  1  0  0  0  0
 22 42  1  0  0  0  0
 23 43  1  0  0  0  0
 23 44  1  0  0  0  0
M  CHG  1  10   1
M  CHG  1  12  -1
M  END
> <s_m_source_file>
AV-unprocessed.smi

> <i_m_source_file_index>
334

> <i_lp_mmshare_version>
43012

> <i_f3d_flags>
0

> <s_epik_input>
W0NIMl0xW0NIMl1bQ0BIXShbQ0gyXTIpW0NAQEhdKFtDSDJdW0NAQEhdMTIpW0NASF0oW0NIM10pW05IXUMoPU8pW0NIMl1uM1tjSF1jKFtOK10oPU8pW08tXSlbY0hdW2NIXWMzPU8=

> <s_epik_cmdline>
J2VwaWtfcHl0aG9uJywgJy1waCcsICc3LjAnLCAnLXRuJywgJzgnLCAnLW1hJywgJzIwMCcsICctbWV0YWxfYmluZGluZycsICctaW1hZScsICc8aW5maWxlLm1hZT4nLCAnLW9tYWUnLCAnPG91dGZpbGUubWFlPic=

> <r_lp_tautomer_probability>
1

> <r_epik_Ionization_Penalty>
2.17081e-08

> <r_epik_Ionization_Penalty_Charging>
8.1195e-11

> <r_epik_Ionization_Penalty_Neutral>
2.16269e-08

> <r_epik_State_Penalty>
-0

> <r_epik_Charging_Adjusted_Penalty>
8.1195e-11

> <i_epik_Tot_Q>
0

> <i_epik_Tot_abs_Q>
2

> <r_epik_Metal_State_Penalty>
-0

> <b_epik_Metal_Only>
0

> <s_lp_Force_Field>
OPLS_2005

> <r_lp_Energy>
62.3621

> <b_lp_Chiralities_Consistent>
1

> <s_lp_Variant>
AV-unprocessed.smi:334-6

> <Gold.Version>
5.8.1

> <Gold.Id.Protein>
6NUR|6NUR_protein|mol2

> <Gold.PLP.Fitness>
41.3092

> <Gold.PLP.PLP>
-36.7912

> <Gold.PLP.part.hbond>
-2.0000

> <Gold.PLP.part.metal>
0.0000

> <Gold.PLP.part.buried>
-3.0179

> <Gold.PLP.part.nonpolar>
-31.9185

> <Gold.PLP.part.repulsive>
0.2044

> <Gold.PLP.ligand.clash>
0.0000

> <Gold.PLP.ligand.torsion>
0.7613

> <Gold.PLP.Chemscore.Hbond>
2.0000

> <Gold.PLP.Chemscore.CHOScore>
0.0000

> <Gold.PLP.Chemscore.Metal>
0.0000

> <Gold.Chemscore.Hbonds>
donor molecule, donor type, donor heavy atom, donor atom, acceptor molecule, acceptor atom, score
      P1  H  6896  6907       L1    16  1.00
      P1  H  7997  8009       L1     5  1.00

> <Gold.PLP.Chemscore.Internal.Correction>
0.0406

> <Gold.Rescore>
     Score         DG    S(hbond)    S(metal)    S(lipo)     H(rot)  DE(clash)    DE(int)     intcor
     20.17     -21.35       1.88        0.00     120.26       1.75       0.48       0.71       ----

> <Gold.Chemscore.Fitness>
20.1658

> <Gold.Chemscore.DG>
-21.3477

> <Gold.Chemscore.ZeroCoef>
-5.4800

> <Gold.Chemscore.Hbond>
1.8775

> <Gold.Chemscore.Metal>
0.0000

> <Gold.Chemscore.Lipo>
120.2591

> <Gold.Chemscore.Internal_Hbond>
0.0000

> <Gold.Chemscore.DEClash>
0.4764

> <Gold.Chemscore.DEInternal>
0.7055

> <Gold.Chemscore.Rot>
1.7474

> <Gold.Chemscore.Internal.Correction>
   9.000000E+99

> <Gold.Chemscore.Hbonds>
donor molecule, donor type, donor heavy atom, donor atom, acceptor molecule, acceptor atom, score
      P1  H  6896  6907       L1    16  0.92
      P1  H  7997  8009       L1     5  0.98

> <Gold.Chemscore.Hbond.Weighted>
-6.2707

> <Gold.Chemscore.Metal.Weighted>
-0.0000

> <Gold.Chemscore.Lipo.Weighted>
-14.0703

> <Gold.Chemscore.Internal_Hbond.Weighted>
0.0000

> <Gold.Chemscore.DEClash.Weighted>
0.4764

> <Gold.Chemscore.DEInternal.Weighted>
0.7055

> <Gold.Chemscore.Rot.Weighted>
4.4733

> <Gold.Chemscore.Internal.Correction.Weighted>
   9.000000E+99

> <Gold.Protein.RotatedTorsions>
[ 6907 6896 6895 6894 ] final   82.42 input  -60.11 | X-H torsion
[ 7974 7965 7964 7962 ] final   87.21 input  175.53 | X-H torsion
[ 8008 7997 7996 7995 ] final  105.52 input   59.86 | X-H torsion
[ 10167 10162 10161 10158 ] final   71.70 input  -65.29 | X-H torsion
[ 10718 10713 10712 10709 ] final  103.73 input   66.30 | X-H torsion
[ 10763 10752 10751 10750 ] final   66.45 input  -60.55 | X-H torsion
[ 11005 11000 10999 10996 ] final   80.01 input  -57.11 | X-H torsion

> <Gold.Protein.ActiveResidues>
 VAL166  LYS551  ARG553  GLY616  TRP617  ASP618  TYR619  PRO620  LYS621  CYS622 
 ASP623  PHE694  ASN695  SER759  ASP760  ASP761  ALA762  ILE779  LEU786  VAL792 
 PHE793  MET794  SER795  GLU796  ALA797  LYS798  CYS799  TRP800  GLU811  SER814 

> <Gold.Protein.RotatedAtoms>
  152.5298  134.3052  159.9093 H   0  0  0  0  0  0  0  0  0  0  0  0  # atno 6907 bound_to 6896
  151.3002  133.4119  159.2647 H   0  0  0  0  0  0  0  0  0  0  0  0  # atno 6908 bound_to 6896
  151.0125  134.9424  159.8072 H   0  0  0  0  0  0  0  0  0  0  0  0  # atno 6909 bound_to 6896
  145.5620  139.2305  143.2454 H   0  0  0  0  0  0  0  0  0  0  0  0  # atno 7974 bound_to 7965
  156.1666  140.3129  155.8900 H   0  0  0  0  0  0  0  0  0  0  0  0  # atno 8008 bound_to 7997
  155.3673  140.0480  157.3063 H   0  0  0  0  0  0  0  0  0  0  0  0  # atno 8009 bound_to 7997
  154.5199  140.2194  155.9007 H   0  0  0  0  0  0  0  0  0  0  0  0  # atno 8010 bound_to 7997
  140.0432  144.5372  150.7418 H   0  0  0  0  0  0  0  0  0  0  0  0  # atno 10167 bound_to 10162
  157.6763  131.0786  150.5599 H   0  0  0  0  0  0  0  0  0  0  0  0  # atno 10718 bound_to 10713
  153.0141  135.5320  154.6826 H   0  0  0  0  0  0  0  0  0  0  0  0  # atno 10763 bound_to 10752
  154.5982  135.2865  155.0566 H   0  0  0  0  0  0  0  0  0  0  0  0  # atno 10764 bound_to 10752
  154.1633  135.6544  153.5043 H   0  0  0  0  0  0  0  0  0  0  0  0  # atno 10765 bound_to 10752
  139.9151  134.7887  156.1853 H   0  0  0  0  0  0  0  0  0  0  0  0  # atno 11005 bound_to 11000
  146.1845  140.6445  142.9174 LP  0  0  0  0  0  0  0  0  0  0  0  0  # atno 17320 bound_to 7965
  144.7478  140.5114  143.6823 LP  0  0  0  0  0  0  0  0  0  0  0  0  # atno 17321 bound_to 7965
  140.7250  143.2627  151.4150 LP  0  0  0  0  0  0  0  0  0  0  0  0  # atno 17342 bound_to 10162
  139.6000  144.1316  152.2187 LP  0  0  0  0  0  0  0  0  0  0  0  0  # atno 17343 bound_to 10162
  156.5902  130.4327  149.5940 LP  0  0  0  0  0  0  0  0  0  0  0  0  # atno 17370 bound_to 10713
  156.2589  130.6951  151.1713 LP  0  0  0  0  0  0  0  0  0  0  0  0  # atno 17371 bound_to 10713
  141.0617  133.6838  156.1965 LP  0  0  0  0  0  0  0  0  0  0  0  0  # atno 17394 bound_to 11000
  140.6650  134.4928  157.5585 LP  0  0  0  0  0  0  0  0  0  0  0  0  # atno 17395 bound_to 11000

$$$$
