AV-unprocessed.smi:115|AV-procd|sdf|1124|dock1
  -GOLD-   2262018243D 1   1.00000     0.00000
 Structure written by MMmdl.
 55 57  0  0  0  0  0  0  0  0  1 V2000
  145.1720  137.3276  161.8264 C   0  0  0  0  0  0  0  0  0  0  0  0
  145.3952  138.2845  160.8053 O   0  0  0  0  0  0  0  0  0  0  0  0
  144.6440  138.0155  159.6320 C   0  0  0  0  0  0  0  0  0  0  0  0
  145.4370  137.0402  158.7380 C   0  0  1  0  0  0  0  0  0  0  0  0
  144.6608  136.5594  157.4998 C   0  0  0  0  0  0  0  0  0  0  0  0
  146.7830  137.5245  158.3897 N   0  0  0  0  0  0  0  0  0  0  0  0
  147.0316  138.4989  157.4238 C   0  0  0  0  0  0  0  0  0  0  0  0
  145.9550  139.1726  156.6320 C   0  0  0  0  0  0  0  0  0  0  0  0
  148.3787  138.6873  157.3538 C   0  0  0  0  0  0  0  0  0  0  0  0
  149.0053  137.8364  158.3023 C   0  0  0  0  0  0  0  0  0  0  0  0
  150.4600  137.6745  158.5575 C   0  0  0  0  0  0  0  0  0  0  0  0
  150.9193  136.8668  159.3664 O   0  0  0  0  0  0  0  0  0  0  0  0
  151.3897  138.5796  157.7274 C   0  0  0  0  0  0  0  0  0  0  0  0
  151.8606  139.7445  158.4676 N   0  0  0  0  0  0  0  0  0  0  0  0
  152.8887  139.5462  159.4222 C   0  0  0  0  0  0  0  0  0  0  0  0
  153.3926  138.4396  159.6229 O   0  0  0  0  0  0  0  0  0  0  0  0
  153.2919  140.7526  160.1345 C   0  0  0  0  0  0  0  0  0  0  0  0
  154.2153  140.6723  161.1078 F   0  0  0  0  0  0  0  0  0  0  0  0
  152.7403  141.9506  159.8453 C   0  0  0  0  0  0  0  0  0  0  0  0
  151.7887  142.1314  158.8543 N   0  0  0  0  0  0  0  0  0  0  0  0
  151.1316  143.4770  158.6229 C   0  0  2  0  0  0  0  0  0  0  0  0
  152.0715  144.5421  158.0306 C   0  0  0  0  0  0  0  0  0  0  0  0
  152.3391  145.4393  159.2236 C   0  0  0  0  0  0  0  0  0  0  0  0
  151.0383  145.3082  160.0064 C   0  0  0  0  0  0  0  0  0  0  0  0
  150.6787  143.9407  159.8598 O   0  0  0  0  0  0  0  0  0  0  0  0
  151.2826  141.0028  158.1689 C   0  0  0  0  0  0  0  0  0  0  0  0
  150.3822  141.1179  157.3340 O   0  0  0  0  0  0  0  0  0  0  0  0
  148.0093  137.1507  158.9620 C   0  0  0  0  0  0  0  0  0  0  0  0
  148.1088  136.1615  160.0905 C   0  0  0  0  0  0  0  0  0  0  0  0
  145.7754  137.5763  162.6994 H   0  0  0  0  0  0  0  0  0  0  0  0
  145.4520  136.3259  161.4977 H   0  0  0  0  0  0  0  0  0  0  0  0
  144.1253  137.3159  162.1336 H   0  0  0  0  0  0  0  0  0  0  0  0
  143.6741  137.6096  159.9156 H   0  0  0  0  0  0  0  0  0  0  0  0
  144.4693  138.9509  159.0973 H   0  0  0  0  0  0  0  0  0  0  0  0
  145.5691  136.1589  159.3632 H   0  0  0  0  0  0  0  0  0  0  0  0
  143.7146  136.1016  157.7896 H   0  0  0  0  0  0  0  0  0  0  0  0
  145.2311  135.8083  156.9528 H   0  0  0  0  0  0  0  0  0  0  0  0
  144.4315  137.3659  156.8064 H   0  0  0  0  0  0  0  0  0  0  0  0
  146.3704  139.9648  156.0087 H   0  0  0  0  0  0  0  0  0  0  0  0
  145.2106  139.6258  157.2873 H   0  0  0  0  0  0  0  0  0  0  0  0
  145.4518  138.4642  155.9735 H   0  0  0  0  0  0  0  0  0  0  0  0
  148.8669  139.3718  156.6756 H   0  0  0  0  0  0  0  0  0  0  0  0
  152.2591  138.0251  157.3716 H   0  0  0  0  0  0  0  0  0  0  0  0
  150.8869  138.9351  156.8266 H   0  0  0  0  0  0  0  0  0  0  0  0
  153.0683  142.7947  160.4305 H   0  0  0  0  0  0  0  0  0  0  0  0
  150.2948  143.2981  157.9465 H   0  0  0  0  0  0  0  0  0  0  0  0
  152.9612  144.1233  157.5602 H   0  0  0  0  0  0  0  0  0  0  0  0
  151.5192  145.0951  157.2697 H   0  0  0  0  0  0  0  0  0  0  0  0
  153.1721  145.0596  159.8154 H   0  0  0  0  0  0  0  0  0  0  0  0
  152.5638  146.4682  158.9414 H   0  0  0  0  0  0  0  0  0  0  0  0
  151.1465  145.5851  161.0552 H   0  0  0  0  0  0  0  0  0  0  0  0
  150.2597  145.9326  159.5655 H   0  0  0  0  0  0  0  0  0  0  0  0
  148.9699  136.3628  160.7258 H   0  0  0  0  0  0  0  0  0  0  0  0
  148.2039  135.1452  159.7080 H   0  0  0  0  0  0  0  0  0  0  0  0
  147.2508  136.1997  160.7551 H   0  0  0  0  0  0  0  0  0  0  0  0
  1  2  1  0  0  0  0
  1 30  1  0  0  0  0
  1 31  1  0  0  0  0
  1 32  1  0  0  0  0
  2  3  1  0  0  0  0
  3  4  1  0  0  0  0
  3 33  1  0  0  0  0
  3 34  1  0  0  0  0
  4  5  1  0  0  0  0
  4  6  1  0  0  0  0
  4 35  1  0  0  0  0
  5 36  1  0  0  0  0
  5 37  1  0  0  0  0
  5 38  1  0  0  0  0
  6 28  1  0  0  0  0
  6  7  1  0  0  0  0
  7  8  1  0  0  0  0
  7  9  2  0  0  0  0
  8 39  1  0  0  0  0
  8 40  1  0  0  0  0
  8 41  1  0  0  0  0
  9 10  1  0  0  0  0
  9 42  1  0  0  0  0
 10 11  1  0  0  0  0
 10 28  2  0  0  0  0
 11 12  2  0  0  0  0
 11 13  1  0  0  0  0
 13 14  1  0  0  0  0
 13 43  1  0  0  0  0
 13 44  1  0  0  0  0
 14 26  1  0  0  0  0
 14 15  1  0  0  0  0
 15 16  2  0  0  0  0
 15 17  1  0  0  0  0
 17 18  1  0  0  0  0
 17 19  2  0  0  0  0
 19 20  1  0  0  0  0
 19 45  1  0  0  0  0
 20 21  1  0  0  0  0
 20 26  1  0  0  0  0
 21 25  1  0  0  0  0
 21 22  1  0  0  0  0
 21 46  1  0  0  0  0
 22 23  1  0  0  0  0
 22 47  1  0  0  0  0
 22 48  1  0  0  0  0
 23 24  1  0  0  0  0
 23 49  1  0  0  0  0
 23 50  1  0  0  0  0
 24 25  1  0  0  0  0
 24 51  1  0  0  0  0
 24 52  1  0  0  0  0
 26 27  2  0  0  0  0
 28 29  1  0  0  0  0
 29 53  1  0  0  0  0
 29 54  1  0  0  0  0
 29 55  1  0  0  0  0
M  END
> <s_m_source_file>
AV-unprocessed.smi

> <i_m_source_file_index>
115

> <i_lp_mmshare_version>
43012

> <i_f3d_flags>
0

> <s_epik_input>
W0NIM11PW0NIMl1bQ0BIXShbQ0gzXSluMWMoW0NIM10pW2NIXWMoYzFbQ0gzXSlDKD1PKVtDSDJdbjJjKD1PKWMoRilbY0hdbihjMj1PKVtDQEBIXTNbQ0gyXVtDSDJdW0NIMl1PMw==

> <s_epik_cmdline>
J2VwaWtfcHl0aG9uJywgJy1waCcsICc3LjAnLCAnLXRuJywgJzgnLCAnLW1hJywgJzIwMCcsICctbWV0YWxfYmluZGluZycsICctaW1hZScsICc8aW5maWxlLm1hZT4nLCAnLW9tYWUnLCAnPG91dGZpbGUubWFlPic=

> <r_lp_tautomer_probability>
1

> <r_epik_Ionization_Penalty>
5.02611e-09

> <r_epik_Ionization_Penalty_Charging>
5.01743e-09

> <r_epik_Ionization_Penalty_Neutral>
8.68114e-12

> <r_epik_State_Penalty>
-0

> <r_epik_Charging_Adjusted_Penalty>
5.01743e-09

> <i_epik_Tot_Q>
0

> <i_epik_Tot_abs_Q>
0

> <r_epik_Metal_State_Penalty>
-0

> <b_epik_Metal_Only>
0

> <s_epik_Chemistry_Notes>
This compound contains an acetal/aminal-like group ( X-CH(R)-Y where X, Y are N, S, or O) that may be acid/base labile, releasing an aldehyde.

> <s_lp_Force_Field>
OPLS_2005

> <r_lp_Energy>
46.8154

> <b_lp_Chiralities_Consistent>
1

> <s_lp_Variant>
AV-unprocessed.smi:115-2

> <Gold.Version>
5.8.1

> <Gold.Id.Protein>
6NUR|6NUR_protein|mol2

> <Gold.PLP.Fitness>
52.4896

> <Gold.PLP.PLP>
-48.4955

> <Gold.PLP.part.hbond>
-2.0937

> <Gold.PLP.part.metal>
0.0000

> <Gold.PLP.part.buried>
-8.5656

> <Gold.PLP.part.nonpolar>
-37.5198

> <Gold.PLP.part.repulsive>
0.1423

> <Gold.PLP.ligand.clash>
0.0000

> <Gold.PLP.ligand.torsion>
1.0540

> <Gold.PLP.Chemscore.Hbond>
1.8960

> <Gold.PLP.Chemscore.CHOScore>
0.0000

> <Gold.PLP.Chemscore.Metal>
0.0000

> <Gold.Chemscore.Hbonds>
donor molecule, donor type, donor heavy atom, donor atom, acceptor molecule, acceptor atom, score
      P1  H  6896  6907       L1    12  1.00
      P1  H  6934  6947       L1     2  0.67

> <Gold.PLP.Chemscore.Internal.Correction>
0.4142

> <Gold.Rescore>
     Score         DG    S(hbond)    S(metal)    S(lipo)     H(rot)  DE(clash)    DE(int)     intcor
     12.91     -16.23       1.95        0.00      84.17       2.19       0.03       3.28       ----

> <Gold.Chemscore.Fitness>
12.9142

> <Gold.Chemscore.DG>
-16.2257

> <Gold.Chemscore.ZeroCoef>
-5.4800

> <Gold.Chemscore.Hbond>
1.9503

> <Gold.Chemscore.Metal>
0.0000

> <Gold.Chemscore.Lipo>
84.1692

> <Gold.Chemscore.Internal_Hbond>
0.0000

> <Gold.Chemscore.DEClash>
0.0339

> <Gold.Chemscore.DEInternal>
3.2775

> <Gold.Chemscore.Rot>
2.1938

> <Gold.Chemscore.Internal.Correction>
   9.000000E+99

> <Gold.Chemscore.Hbonds>
donor molecule, donor type, donor heavy atom, donor atom, acceptor molecule, acceptor atom, score
      P1  H  6896  6907       L1    12  1.00
      P1  H  6934  6947       L1     2  0.54

> <Gold.Chemscore.Hbond.Weighted>
-6.5139

> <Gold.Chemscore.Metal.Weighted>
-0.0000

> <Gold.Chemscore.Lipo.Weighted>
-9.8478

> <Gold.Chemscore.Internal_Hbond.Weighted>
0.0000

> <Gold.Chemscore.DEClash.Weighted>
0.0339

> <Gold.Chemscore.DEInternal.Weighted>
3.2775

> <Gold.Chemscore.Rot.Weighted>
5.6160

> <Gold.Chemscore.Internal.Correction.Weighted>
   9.000000E+99

> <Gold.Protein.RotatedTorsions>
[ 6907 6896 6895 6894 ] final  -19.63 input  -60.11 | X-H torsion
[ 7974 7965 7964 7962 ] final  131.09 input  175.53 | X-H torsion
[ 8008 7997 7996 7995 ] final  -92.91 input   59.86 | X-H torsion
[ 10167 10162 10161 10158 ] final  146.46 input  -65.29 | X-H torsion
[ 10718 10713 10712 10709 ] final   87.30 input   66.30 | X-H torsion
[ 10763 10752 10751 10750 ] final   -5.19 input  -60.55 | X-H torsion
[ 11005 11000 10999 10996 ] final -112.95 input  -57.11 | X-H torsion

> <Gold.Protein.ActiveResidues>
 VAL166  LYS551  ARG553  GLY616  TRP617  ASP618  TYR619  PRO620  LYS621  CYS622 
 ASP623  PHE694  ASN695  SER759  ASP760  ASP761  ALA762  ILE779  LEU786  VAL792 
 PHE793  MET794  SER795  GLU796  ALA797  LYS798  CYS799  TRP800  GLU811  SER814 

> <Gold.Protein.RotatedAtoms>
  151.2602  135.0651  159.9095 H   0  0  0  0  0  0  0  0  0  0  0  0  # atno 6907 bound_to 6896
  152.5367  134.0239  159.8004 H   0  0  0  0  0  0  0  0  0  0  0  0  # atno 6908 bound_to 6896
  151.0461  133.5615  159.2677 H   0  0  0  0  0  0  0  0  0  0  0  0  # atno 6909 bound_to 6896
  145.0110  139.4220  143.5245 H   0  0  0  0  0  0  0  0  0  0  0  0  # atno 7974 bound_to 7965
  154.7291  140.0504  157.0710 H   0  0  0  0  0  0  0  0  0  0  0  0  # atno 8008 bound_to 7997
  155.0326  140.3159  155.4734 H   0  0  0  0  0  0  0  0  0  0  0  0  # atno 8009 bound_to 7997
  156.2837  140.2147  156.5447 H   0  0  0  0  0  0  0  0  0  0  0  0  # atno 8010 bound_to 7997
  139.4907  144.5828  151.6838 H   0  0  0  0  0  0  0  0  0  0  0  0  # atno 10167 bound_to 10162
  157.6938  131.0250  150.3103 H   0  0  0  0  0  0  0  0  0  0  0  0  # atno 10718 bound_to 10713
  153.3952  135.7003  153.6466 H   0  0  0  0  0  0  0  0  0  0  0  0  # atno 10763 bound_to 10752
  153.5022  135.3650  155.2546 H   0  0  0  0  0  0  0  0  0  0  0  0  # atno 10764 bound_to 10752
  154.8706  135.4114  154.3276 H   0  0  0  0  0  0  0  0  0  0  0  0  # atno 10765 bound_to 10752
  141.0644  133.9483  157.2606 H   0  0  0  0  0  0  0  0  0  0  0  0  # atno 11005 bound_to 11000
  146.3470  139.9554  142.8724 LP  0  0  0  0  0  0  0  0  0  0  0  0  # atno 17320 bound_to 7965
  145.2023  140.9860  143.4148 LP  0  0  0  0  0  0  0  0  0  0  0  0  # atno 17321 bound_to 7965
  140.5437  144.0537  150.6098 LP  0  0  0  0  0  0  0  0  0  0  0  0  # atno 17342 bound_to 10162
  140.3568  143.2931  152.0427 LP  0  0  0  0  0  0  0  0  0  0  0  0  # atno 17343 bound_to 10162
  156.3606  130.3846  149.7255 LP  0  0  0  0  0  0  0  0  0  0  0  0  # atno 17370 bound_to 10713
  156.4702  130.7993  151.3011 LP  0  0  0  0  0  0  0  0  0  0  0  0  # atno 17371 bound_to 10713
  139.9462  135.0183  156.8860 LP  0  0  0  0  0  0  0  0  0  0  0  0  # atno 17394 bound_to 11000
  140.5803  134.0358  155.7461 LP  0  0  0  0  0  0  0  0  0  0  0  0  # atno 17395 bound_to 11000

$$$$
