AV-unprocessed.smi:1830|AV-procd|sdf|7451|dock6
  -GOLD-   22720 9143D 1   1.00000     0.00000
 Structure written by MMmdl.
 54 57  0  0  0  0  0  0  0  0  3 V2000
  149.7054  139.8635  155.5276 O   0  0  0  0  0  0  0  0  0  0  0  0
  149.5825  141.0581  155.7957 C   0  0  0  0  0  0  0  0  0  0  0  0
  148.8457  141.9068  155.0655 N   0  0  0  0  0  0  0  0  0  0  0  0
  148.1467  141.5565  153.8327 C   0  0  0  0  0  0  0  0  0  0  0  0
  146.6312  141.8242  153.9019 C   0  0  1  0  0  0  0  0  0  0  0  0
  145.9295  141.0522  155.0478 C   0  0  0  0  0  0  0  0  0  0  0  0
  144.5251  141.4967  155.1171 N   0  3  1  0  0  0  0  0  0  0  0  0
  143.6494  140.8917  156.1355 C   0  0  0  0  0  0  0  0  0  0  0  0
  142.5260  141.9253  156.3531 C   0  0  0  0  0  0  0  0  0  0  0  0
  142.9427  143.1715  155.5504 C   0  0  0  0  0  0  0  0  0  0  0  0
  144.4321  142.9453  155.3107 C   0  0  2  0  0  0  0  0  0  0  0  0
  145.0900  143.6503  154.1185 C   0  0  0  0  0  0  0  0  0  0  0  0
  146.4561  143.2345  154.0765 O   0  0  0  0  0  0  0  0  0  0  0  0
  150.1722  141.6854  156.8275 N   0  0  0  0  0  0  0  0  0  0  0  0
  151.0916  141.1470  157.7729 C   0  0  0  0  0  0  0  0  0  0  0  0
  151.3443  139.7525  157.8427 C   0  0  0  0  0  0  0  0  0  0  0  0
  152.2768  139.2513  158.7700 C   0  0  0  0  0  0  0  0  0  0  0  0
  152.9420  140.1516  159.6192 C   0  0  0  0  0  0  0  0  0  0  0  0
  152.6651  141.4695  159.5436 N   0  3  0  0  0  0  0  0  0  0  0  0
  151.7672  142.0120  158.6833 C   0  0  0  0  0  0  0  0  0  0  0  0
  151.5744  143.4120  158.7309 N   0  0  0  0  0  0  0  0  0  0  0  0
  152.5275  144.2662  159.4307 C   0  0  0  0  0  0  0  0  0  0  0  0
  151.8227  145.6122  159.5750 C   0  0  0  0  0  0  0  0  0  0  0  0
  150.3671  145.2004  159.7726 C   0  0  0  0  0  0  0  0  0  0  0  0
  150.2258  143.9396  158.9131 C   0  0  0  0  0  0  0  0  0  0  0  0
  148.7982  142.8726  155.3559 H   0  0  0  0  0  0  0  0  0  0  0  0
  148.5870  142.1333  153.0186 H   0  0  0  0  0  0  0  0  0  0  0  0
  148.3310  140.5070  153.5965 H   0  0  0  0  0  0  0  0  0  0  0  0
  146.1754  141.5453  152.9501 H   0  0  0  0  0  0  0  0  0  0  0  0
  145.9607  139.9769  154.8690 H   0  0  0  0  0  0  0  0  0  0  0  0
  146.4266  141.2401  156.0008 H   0  0  0  0  0  0  0  0  0  0  0  0
  143.2713  139.9245  155.8038 H   0  0  0  0  0  0  0  0  0  0  0  0
  144.2045  140.7413  157.0628 H   0  0  0  0  0  0  0  0  0  0  0  0
  141.5606  141.5492  156.0130 H   0  0  0  0  0  0  0  0  0  0  0  0
  142.4314  142.1596  157.4139 H   0  0  0  0  0  0  0  0  0  0  0  0
  142.4073  143.1974  154.6002 H   0  0  0  0  0  0  0  0  0  0  0  0
  142.7376  144.1033  156.0783 H   0  0  0  0  0  0  0  0  0  0  0  0
  144.9703  143.2122  156.2230 H   0  0  0  0  0  0  0  0  0  0  0  0
  144.5880  143.4075  153.1806 H   0  0  0  0  0  0  0  0  0  0  0  0
  145.0479  144.7326  154.2416 H   0  0  0  0  0  0  0  0  0  0  0  0
  150.0486  142.6865  156.8640 H   0  0  0  0  0  0  0  0  0  0  0  0
  150.8318  139.0535  157.1994 H   0  0  0  0  0  0  0  0  0  0  0  0
  152.4799  138.1918  158.8266 H   0  0  0  0  0  0  0  0  0  0  0  0
  153.6752  139.8602  160.3573 H   0  0  0  0  0  0  0  0  0  0  0  0
  152.7488  143.8619  160.4192 H   0  0  0  0  0  0  0  0  0  0  0  0
  153.4630  144.3572  158.8777 H   0  0  0  0  0  0  0  0  0  0  0  0
  152.2142  146.2115  160.3972 H   0  0  0  0  0  0  0  0  0  0  0  0
  151.9248  146.1892  158.6546 H   0  0  0  0  0  0  0  0  0  0  0  0
  150.1970  144.9517  160.8210 H   0  0  0  0  0  0  0  0  0  0  0  0
  149.6609  145.9836  159.4956 H   0  0  0  0  0  0  0  0  0  0  0  0
  149.8169  144.1998  157.9365 H   0  0  0  0  0  0  0  0  0  0  0  0
  149.5589  143.2140  159.3810 H   0  0  0  0  0  0  0  0  0  0  0  0
  144.1010  141.3010  154.2215 H   0  0  0  0  0  0  0  0  0  0  0  0
  153.1575  142.0961  160.1804 H   0  0  0  0  0  0  0  0  0  0  0  0
  1  2  2  0  0  0  0
  2  3  1  0  0  0  0
  2 14  1  0  0  0  0
  3  4  1  0  0  0  0
  3 26  1  0  0  0  0
  4  5  1  0  0  0  0
  4 27  1  0  0  0  0
  4 28  1  0  0  0  0
  5 13  1  0  0  0  0
  5  6  1  0  0  0  0
  5 29  1  0  0  0  0
  6  7  1  0  0  0  0
  6 30  1  0  0  0  0
  6 31  1  0  0  0  0
  7 11  1  0  0  0  0
  7  8  1  0  0  0  0
  7 53  1  0  0  0  0
  8  9  1  0  0  0  0
  8 32  1  0  0  0  0
  8 33  1  0  0  0  0
  9 10  1  0  0  0  0
  9 34  1  0  0  0  0
  9 35  1  0  0  0  0
 10 11  1  0  0  0  0
 10 36  1  0  0  0  0
 10 37  1  0  0  0  0
 11 12  1  0  0  0  0
 11 38  1  0  0  0  0
 12 13  1  0  0  0  0
 12 39  1  0  0  0  0
 12 40  1  0  0  0  0
 14 15  1  0  0  0  0
 14 41  1  0  0  0  0
 15 20  1  0  0  0  0
 15 16  2  0  0  0  0
 16 17  1  0  0  0  0
 16 42  1  0  0  0  0
 17 18  2  0  0  0  0
 17 43  1  0  0  0  0
 18 19  1  0  0  0  0
 18 44  1  0  0  0  0
 19 20  2  0  0  0  0
 19 54  1  0  0  0  0
 20 21  1  0  0  0  0
 21 25  1  0  0  0  0
 21 22  1  0  0  0  0
 22 23  1  0  0  0  0
 22 45  1  0  0  0  0
 22 46  1  0  0  0  0
 23 24  1  0  0  0  0
 23 47  1  0  0  0  0
 23 48  1  0  0  0  0
 24 25  1  0  0  0  0
 24 49  1  0  0  0  0
 24 50  1  0  0  0  0
 25 51  1  0  0  0  0
 25 52  1  0  0  0  0
M  CHG  1   7   1
M  CHG  1  19   1
M  END
> <s_m_source_file>
AV-unprocessed.smi

> <i_m_source_file_index>
1830

> <i_lp_mmshare_version>
43012

> <i_f3d_flags>
0

> <s_epik_input>
W0NIMl0xW0NIMl1bQ0gyXVtDQEhdKE4xMilbQ0gyXU9bQ0BASF0oW0NIMl0yKVtDSDJdW05IXUMoPU8pW05IXWMzW2NIXVtjSF1bY0hdbmMzTjRbQ0gyXVtDSDJdW0NIMl1bQ0gyXTQ=

> <s_epik_cmdline>
J2VwaWtfcHl0aG9uJywgJy1waCcsICc3LjAnLCAnLXRuJywgJzgnLCAnLW1hJywgJzIwMCcsICctbWV0YWxfYmluZGluZycsICctaW1hZScsICc8aW5maWxlLm1hZT4nLCAnLW9tYWUnLCAnPG91dGZpbGUubWFlPic=

> <r_lp_tautomer_probability>
0.999994

> <r_epik_Ionization_Penalty>
1.29113

> <r_epik_Ionization_Penalty_Charging>
1.29111

> <r_epik_Ionization_Penalty_Neutral>
1.88144e-05

> <r_epik_State_Penalty>
1.32676

> <r_epik_Charging_Adjusted_Penalty>
2.61787

> <i_epik_Tot_Q>
2

> <i_epik_Tot_abs_Q>
2

> <r_epik_Metal_State_Penalty>
1.40425

> <b_epik_Metal_Only>
0

> <s_lp_Force_Field>
OPLS_2005

> <r_lp_Energy>
72.9797

> <b_lp_Chiralities_Consistent>
1

> <s_lp_Variant>
AV-unprocessed.smi:1830-20

> <Gold.Version>
5.8.1

> <Gold.Id.Protein>
6NUR|6NUR_protein|mol2

> <Gold.PLP.Fitness>
50.8422

> <Gold.PLP.PLP>
-41.9395

> <Gold.PLP.part.hbond>
-2.8952

> <Gold.PLP.part.metal>
0.0000

> <Gold.PLP.part.buried>
-7.0588

> <Gold.PLP.part.nonpolar>
-33.1273

> <Gold.PLP.part.repulsive>
0.7433

> <Gold.PLP.ligand.clash>
0.0000

> <Gold.PLP.ligand.torsion>
0.2462

> <Gold.PLP.Chemscore.Hbond>
3.0000

> <Gold.PLP.Chemscore.CHOScore>
0.0000

> <Gold.PLP.Chemscore.Metal>
0.0000

> <Gold.Chemscore.Hbonds>
donor molecule, donor type, donor heavy atom, donor atom, acceptor molecule, acceptor atom, score
      L1  H     3    26       P1  8028  1.00
      L1  H     7    53       P1 10175  2.00

> <Gold.PLP.Chemscore.Internal.Correction>
0.3951

> <Gold.Rescore>
     Score         DG    S(hbond)    S(metal)    S(lipo)     H(rot)  DE(clash)    DE(int)     intcor
     17.65     -19.29       1.96        0.00      93.46       1.43       0.03       1.62       ----

> <Gold.Chemscore.Fitness>
17.6462

> <Gold.Chemscore.DG>
-19.2904

> <Gold.Chemscore.ZeroCoef>
-5.4800

> <Gold.Chemscore.Hbond>
1.9554

> <Gold.Chemscore.Metal>
0.0000

> <Gold.Chemscore.Lipo>
93.4562

> <Gold.Chemscore.Internal_Hbond>
0.0000

> <Gold.Chemscore.DEClash>
0.0251

> <Gold.Chemscore.DEInternal>
1.6191

> <Gold.Chemscore.Rot>
1.4278

> <Gold.Chemscore.Internal.Correction>
   9.000000E+99

> <Gold.Chemscore.Hbonds>
donor molecule, donor type, donor heavy atom, donor atom, acceptor molecule, acceptor atom, score
      L1  H     3    26       P1  8028  1.00
      L1  H     7    53       P1 10175  0.50

> <Gold.Chemscore.Hbond.Weighted>
-6.5311

> <Gold.Chemscore.Metal.Weighted>
-0.0000

> <Gold.Chemscore.Lipo.Weighted>
-10.9344

> <Gold.Chemscore.Internal_Hbond.Weighted>
0.0000

> <Gold.Chemscore.DEClash.Weighted>
0.0251

> <Gold.Chemscore.DEInternal.Weighted>
1.6191

> <Gold.Chemscore.Rot.Weighted>
3.6551

> <Gold.Chemscore.Internal.Correction.Weighted>
   9.000000E+99

> <Gold.Protein.RotatedTorsions>
[ 6907 6896 6895 6894 ] final   89.60 input  -60.11 | X-H torsion
[ 7974 7965 7964 7962 ] final  157.36 input  175.53 | X-H torsion
[ 8008 7997 7996 7995 ] final -109.55 input   59.86 | X-H torsion
[ 10167 10162 10161 10158 ] final  146.04 input  -65.29 | X-H torsion
[ 10718 10713 10712 10709 ] final -103.02 input   66.30 | X-H torsion
[ 10763 10752 10751 10750 ] final  168.63 input  -60.55 | X-H torsion
[ 11005 11000 10999 10996 ] final  157.92 input  -57.11 | X-H torsion

> <Gold.Protein.ActiveResidues>
 VAL166  LYS551  ARG553  GLY616  TRP617  ASP618  TYR619  PRO620  LYS621  CYS622 
 ASP623  PHE694  ASN695  SER759  ASP760  ASP761  ALA762  ILE779  LEU786  VAL792 
 PHE793  MET794  SER795  GLU796  ALA797  LYS798  CYS799  TRP800  GLU811  SER814 

> <Gold.Protein.RotatedAtoms>
  152.5437  134.1941  159.8685 H   0  0  0  0  0  0  0  0  0  0  0  0  # atno 6907 bound_to 6896
  151.1934  133.4647  159.2602 H   0  0  0  0  0  0  0  0  0  0  0  0  # atno 6908 bound_to 6896
  151.1061  135.0012  159.8527 H   0  0  0  0  0  0  0  0  0  0  0  0  # atno 6909 bound_to 6896
  144.7908  139.7330  143.6222 H   0  0  0  0  0  0  0  0  0  0  0  0  # atno 7974 bound_to 7965
  154.9611  140.0399  157.2190 H   0  0  0  0  0  0  0  0  0  0  0  0  # atno 8008 bound_to 7997
  154.7888  140.2832  155.5985 H   0  0  0  0  0  0  0  0  0  0  0  0  # atno 8009 bound_to 7997
  156.2947  140.2577  156.2731 H   0  0  0  0  0  0  0  0  0  0  0  0  # atno 8010 bound_to 7997
  139.4914  144.5858  151.6781 H   0  0  0  0  0  0  0  0  0  0  0  0  # atno 10167 bound_to 10162
  156.0250  130.5447  150.7192 H   0  0  0  0  0  0  0  0  0  0  0  0  # atno 10718 bound_to 10713
  154.3714  135.2753  155.2264 H   0  0  0  0  0  0  0  0  0  0  0  0  # atno 10763 bound_to 10752
  154.4410  135.5954  153.6133 H   0  0  0  0  0  0  0  0  0  0  0  0  # atno 10764 bound_to 10752
  152.9838  135.6018  154.3945 H   0  0  0  0  0  0  0  0  0  0  0  0  # atno 10765 bound_to 10752
  140.1815  134.8472  157.2808 H   0  0  0  0  0  0  0  0  0  0  0  0  # atno 11005 bound_to 11000
  146.2159  139.5548  142.9650 LP  0  0  0  0  0  0  0  0  0  0  0  0  # atno 17320 bound_to 7965
  145.5800  141.0384  143.2127 LP  0  0  0  0  0  0  0  0  0  0  0  0  # atno 17321 bound_to 7965
  140.5474  144.0481  150.6112 LP  0  0  0  0  0  0  0  0  0  0  0  0  # atno 17342 bound_to 10162
  140.3524  143.2955  152.0473 LP  0  0  0  0  0  0  0  0  0  0  0  0  # atno 17343 bound_to 10162
  157.4812  131.0902  151.0534 LP  0  0  0  0  0  0  0  0  0  0  0  0  # atno 17370 bound_to 10713
  157.0967  130.5965  149.5451 LP  0  0  0  0  0  0  0  0  0  0  0  0  # atno 17371 bound_to 10713
  140.2262  134.3964  155.7543 LP  0  0  0  0  0  0  0  0  0  0  0  0  # atno 17394 bound_to 11000
  141.2223  133.7191  156.8568 LP  0  0  0  0  0  0  0  0  0  0  0  0  # atno 17395 bound_to 11000

$$$$
