AV-unprocessed.smi:101|AV-procd|sdf|936|dock5
  -GOLD-   2262017453D 1   1.00000     0.00000
 Structure written by MMmdl.
 43 45  0  0  0  0  0  0  0  0  2 V2000
  144.9611  142.7864  158.2642 C   0  0  0  0  0  0  0  0  0  0  0  0
  145.1722  143.0166  156.7777 C   0  0  0  0  0  0  0  0  0  0  0  0
  146.0843  142.3207  156.0637 C   0  0  0  0  0  0  0  0  0  0  0  0
  146.2764  142.5343  154.7084 N   0  0  0  0  0  0  0  0  0  0  0  0
  147.3146  141.7577  153.9162 C   0  0  1  0  0  0  0  0  0  0  0  0
  148.5214  141.7381  154.6219 O   0  0  0  0  0  0  0  0  0  0  0  0
  148.7182  140.4540  155.2024 C   0  0  2  0  0  0  0  0  0  0  0  0
  150.1897  140.2338  155.5761 C   0  0  0  0  0  0  0  0  0  0  0  0
  150.5451  141.1922  156.5591 O   0  0  0  0  0  0  0  0  0  0  0  0
  151.5988  140.9789  157.3683 C   0  0  0  0  0  0  0  0  0  0  0  0
  152.3890  140.0432  157.2285 O   0  0  0  0  0  0  0  0  0  0  0  0
  151.7088  141.9973  158.4528 C   0  0  0  0  0  0  0  0  0  0  0  0
  152.7087  141.8514  159.4426 C   0  0  0  0  0  0  0  0  0  0  0  0
  152.8351  142.7964  160.4795 C   0  0  0  0  0  0  0  0  0  0  0  0
  151.9626  143.8987  160.5398 C   0  0  0  0  0  0  0  0  0  0  0  0
  150.9645  144.0560  159.5605 C   0  0  0  0  0  0  0  0  0  0  0  0
  150.8371  143.1126  158.5222 C   0  0  0  0  0  0  0  0  0  0  0  0
  148.1408  139.5140  154.1428 C   0  0  2  0  0  0  0  0  0  0  0  0
  149.0653  139.3192  153.0884 O   0  0  0  0  0  0  0  0  0  0  0  0
  146.9168  140.2807  153.6538 C   0  0  1  0  0  0  0  0  0  0  0  0
  145.7742  139.8543  154.3763 O   0  0  0  0  0  0  0  0  0  0  0  0
  145.5059  143.5222  154.0404 C   0  0  0  0  0  0  0  0  0  0  0  0
  145.7069  143.6948  152.8379 O   0  0  0  0  0  0  0  0  0  0  0  0
  144.5816  144.2277  154.7525 N   0  5  0  0  0  0  0  0  0  0  0  0
  144.3671  144.0294  156.0848 C   0  0  0  0  0  0  0  0  0  0  0  0
  143.5272  144.6709  156.7150 O   0  0  0  0  0  0  0  0  0  0  0  0
  145.6313  142.0156  158.6461 H   0  0  0  0  0  0  0  0  0  0  0  0
  143.9361  142.4690  158.4580 H   0  0  0  0  0  0  0  0  0  0  0  0
  145.1497  143.7042  158.8221 H   0  0  0  0  0  0  0  0  0  0  0  0
  146.6765  141.5837  156.5828 H   0  0  0  0  0  0  0  0  0  0  0  0
  147.4737  142.3330  153.0027 H   0  0  0  0  0  0  0  0  0  0  0  0
  148.1023  140.3683  156.0994 H   0  0  0  0  0  0  0  0  0  0  0  0
  150.3269  139.2346  155.9915 H   0  0  0  0  0  0  0  0  0  0  0  0
  150.8286  140.3208  154.6959 H   0  0  0  0  0  0  0  0  0  0  0  0
  153.3901  141.0132  159.4177 H   0  0  0  0  0  0  0  0  0  0  0  0
  153.6028  142.6747  161.2294 H   0  0  0  0  0  0  0  0  0  0  0  0
  152.0593  144.6227  161.3354 H   0  0  0  0  0  0  0  0  0  0  0  0
  150.2946  144.9020  159.6051 H   0  0  0  0  0  0  0  0  0  0  0  0
  150.0600  143.2645  157.7871 H   0  0  0  0  0  0  0  0  0  0  0  0
  147.8905  138.5362  154.5572 H   0  0  0  0  0  0  0  0  0  0  0  0
  148.9474  140.0132  152.4575 H   0  0  0  0  0  0  0  0  0  0  0  0
  146.7289  140.1291  152.5900 H   0  0  0  0  0  0  0  0  0  0  0  0
  145.0406  139.8189  153.7818 H   0  0  0  0  0  0  0  0  0  0  0  0
  1  2  1  0  0  0  0
  1 27  1  0  0  0  0
  1 28  1  0  0  0  0
  1 29  1  0  0  0  0
  2 25  1  0  0  0  0
  2  3  2  0  0  0  0
  3  4  1  0  0  0  0
  3 30  1  0  0  0  0
  4  5  1  0  0  0  0
  4 22  1  0  0  0  0
  5 20  1  0  0  0  0
  5  6  1  0  0  0  0
  5 31  1  0  0  0  0
  6  7  1  0  0  0  0
  7  8  1  0  0  0  0
  7 18  1  0  0  0  0
  7 32  1  0  0  0  0
  8  9  1  0  0  0  0
  8 33  1  0  0  0  0
  8 34  1  0  0  0  0
  9 10  1  0  0  0  0
 10 11  2  0  0  0  0
 10 12  1  0  0  0  0
 12 17  1  0  0  0  0
 12 13  2  0  0  0  0
 13 14  1  0  0  0  0
 13 35  1  0  0  0  0
 14 15  2  0  0  0  0
 14 36  1  0  0  0  0
 15 16  1  0  0  0  0
 15 37  1  0  0  0  0
 16 17  2  0  0  0  0
 16 38  1  0  0  0  0
 17 39  1  0  0  0  0
 18 19  1  0  0  0  0
 18 20  1  0  0  0  0
 18 40  1  0  0  0  0
 19 41  1  0  0  0  0
 20 21  1  0  0  0  0
 20 42  1  0  0  0  0
 21 43  1  0  0  0  0
 22 23  2  0  0  0  0
 22 24  1  0  0  0  0
 24 25  1  0  0  0  0
 25 26  2  0  0  0  0
M  CHG  1  24  -1
M  END
> <s_m_source_file>
AV-unprocessed.smi

> <i_m_source_file_index>
101

> <i_lp_mmshare_version>
43012

> <i_f3d_flags>
0

> <s_epik_input>
Tz1jMVtuSF1jKD1PKW4oW2NIXWMxW0NIM10pW0NAQEhdMk9bQ0BIXShbQ0BASF0oW09IXSlbQ0BIXTJbT0hdKVtDSDJdT0MoPU8pYzNbY0hdW2NIXVtjSF1bY0hdW2NIXTM=

> <s_epik_cmdline>
J2VwaWtfcHl0aG9uJywgJy1waCcsICc3LjAnLCAnLXRuJywgJzgnLCAnLW1hJywgJzIwMCcsICctbWV0YWxfYmluZGluZycsICctaW1hZScsICc8aW5maWxlLm1hZT4nLCAnLW9tYWUnLCAnPG91dGZpbGUubWFlPic=

> <r_lp_tautomer_probability>
0.999537

> <r_epik_Ionization_Penalty>
3.21006

> <r_epik_Ionization_Penalty_Charging>
5.75142e-08

> <r_epik_Ionization_Penalty_Neutral>
3.21006

> <r_epik_State_Penalty>
3.20925

> <r_epik_Charging_Adjusted_Penalty>
3.20925

> <i_epik_Tot_Q>
-1

> <i_epik_Tot_abs_Q>
1

> <r_epik_Metal_State_Penalty>
0.119957

> <b_epik_Metal_Only>
1

> <s_epik_Chemistry_Notes>
This compound has an ester and may undergo hydrolysis at high or low pH. This compound contains an acetal/aminal-like group ( X-CH(R)-Y where X, Y are N, S, or O) that may be acid/base labile, releasing an aldehyde.

> <s_lp_Force_Field>
OPLS_2005

> <r_lp_Energy>
44.1701

> <b_lp_Chiralities_Consistent>
1

> <s_lp_Variant>
AV-unprocessed.smi:101-24

> <Gold.Version>
5.8.1

> <Gold.Id.Protein>
6NUR|6NUR_protein|mol2

> <Gold.PLP.Fitness>
49.8009

> <Gold.PLP.PLP>
-42.4836

> <Gold.PLP.part.hbond>
-3.3174

> <Gold.PLP.part.metal>
0.0000

> <Gold.PLP.part.buried>
-4.6317

> <Gold.PLP.part.nonpolar>
-35.3006

> <Gold.PLP.part.repulsive>
0.6429

> <Gold.PLP.ligand.clash>
0.0000

> <Gold.PLP.ligand.torsion>
0.4642

> <Gold.PLP.Chemscore.Hbond>
2.6793

> <Gold.PLP.Chemscore.CHOScore>
0.0000

> <Gold.PLP.Chemscore.Metal>
0.0000

> <Gold.Chemscore.Hbonds>
donor molecule, donor type, donor heavy atom, donor atom, acceptor molecule, acceptor atom, score
      L1  H    19    41       P1  7957  0.39
      L1  H    21    43       P1 10175  1.00
      P1  H  7997  8009       L1    11  0.91

> <Gold.PLP.Chemscore.Internal.Correction>
0.2080

> <Gold.Rescore>
     Score         DG    S(hbond)    S(metal)    S(lipo)     H(rot)  DE(clash)    DE(int)     intcor
     13.57     -15.65       2.32        0.00      92.25       3.27       0.62       1.47       ----

> <Gold.Chemscore.Fitness>
13.5678

> <Gold.Chemscore.DG>
-15.6510

> <Gold.Chemscore.ZeroCoef>
-5.4800

> <Gold.Chemscore.Hbond>
2.3166

> <Gold.Chemscore.Metal>
0.0000

> <Gold.Chemscore.Lipo>
92.2498

> <Gold.Chemscore.Internal_Hbond>
0.0000

> <Gold.Chemscore.DEClash>
0.6163

> <Gold.Chemscore.DEInternal>
1.4669

> <Gold.Chemscore.Rot>
3.2656

> <Gold.Chemscore.Internal.Correction>
   9.000000E+99

> <Gold.Chemscore.Hbonds>
donor molecule, donor type, donor heavy atom, donor atom, acceptor molecule, acceptor atom, score
      L1  H    19    41       P1  7957  0.39
      L1  H    21    43       P1 10175  0.96
      P1  H  7997  8009       L1    11  0.86

> <Gold.Chemscore.Hbond.Weighted>
-7.7376

> <Gold.Chemscore.Metal.Weighted>
-0.0000

> <Gold.Chemscore.Lipo.Weighted>
-10.7932

> <Gold.Chemscore.Internal_Hbond.Weighted>
0.0000

> <Gold.Chemscore.DEClash.Weighted>
0.6163

> <Gold.Chemscore.DEInternal.Weighted>
1.4669

> <Gold.Chemscore.Rot.Weighted>
8.3598

> <Gold.Chemscore.Internal.Correction.Weighted>
   9.000000E+99

> <Gold.Protein.RotatedTorsions>
[ 6907 6896 6895 6894 ] final -120.75 input  -60.11 | X-H torsion
[ 7974 7965 7964 7962 ] final -145.01 input  175.53 | X-H torsion
[ 8008 7997 7996 7995 ] final -178.30 input   59.86 | X-H torsion
[ 10167 10162 10161 10158 ] final  152.29 input  -65.29 | X-H torsion
[ 10718 10713 10712 10709 ] final    0.88 input   66.30 | X-H torsion
[ 10763 10752 10751 10750 ] final -158.23 input  -60.55 | X-H torsion
[ 11005 11000 10999 10996 ] final  154.03 input  -57.11 | X-H torsion

> <Gold.Protein.ActiveResidues>
 VAL166  LYS551  ARG553  GLY616  TRP617  ASP618  TYR619  PRO620  LYS621  CYS622 
 ASP623  PHE694  ASN695  SER759  ASP760  ASP761  ALA762  ILE779  LEU786  VAL792 
 PHE793  MET794  SER795  GLU796  ALA797  LYS798  CYS799  TRP800  GLU811  SER814 

> <Gold.Protein.RotatedAtoms>
  150.8421  133.7920  159.3056 H   0  0  0  0  0  0  0  0  0  0  0  0  # atno 6907 bound_to 6896
  151.5618  135.1063  159.9984 H   0  0  0  0  0  0  0  0  0  0  0  0  # atno 6908 bound_to 6896
  152.4482  133.7536  159.6763 H   0  0  0  0  0  0  0  0  0  0  0  0  # atno 6909 bound_to 6896
  144.8257  140.5637  143.5549 H   0  0  0  0  0  0  0  0  0  0  0  0  # atno 7974 bound_to 7965
  156.0172  140.1253  157.0394 H   0  0  0  0  0  0  0  0  0  0  0  0  # atno 8008 bound_to 7997
  154.4297  140.1076  156.5982 H   0  0  0  0  0  0  0  0  0  0  0  0  # atno 8009 bound_to 7997
  155.5997  140.3470  155.4592 H   0  0  0  0  0  0  0  0  0  0  0  0  # atno 8010 bound_to 7997
  139.4834  144.5370  151.7628 H   0  0  0  0  0  0  0  0  0  0  0  0  # atno 10167 bound_to 10162
  156.8399  130.5517  149.5678 H   0  0  0  0  0  0  0  0  0  0  0  0  # atno 10718 bound_to 10713
  154.7573  135.3108  154.8445 H   0  0  0  0  0  0  0  0  0  0  0  0  # atno 10763 bound_to 10752
  153.9216  135.6795  153.4752 H   0  0  0  0  0  0  0  0  0  0  0  0  # atno 10764 bound_to 10752
  153.1171  135.4839  154.9064 H   0  0  0  0  0  0  0  0  0  0  0  0  # atno 10765 bound_to 10752
  140.1452  134.8712  157.2383 H   0  0  0  0  0  0  0  0  0  0  0  0  # atno 11005 bound_to 11000
  145.5006  139.1483  143.3659 LP  0  0  0  0  0  0  0  0  0  0  0  0  # atno 17320 bound_to 7965
  146.2562  140.5146  142.8872 LP  0  0  0  0  0  0  0  0  0  0  0  0  # atno 17321 bound_to 7965
  140.4904  144.1318  150.5949 LP  0  0  0  0  0  0  0  0  0  0  0  0  # atno 17342 bound_to 10162
  140.4177  143.2626  151.9754 LP  0  0  0  0  0  0  0  0  0  0  0  0  # atno 17343 bound_to 10162
  156.0886  130.5878  150.9693 LP  0  0  0  0  0  0  0  0  0  0  0  0  # atno 17370 bound_to 10713
  157.6361  131.0916  150.8345 LP  0  0  0  0  0  0  0  0  0  0  0  0  # atno 17371 bound_to 10713
  140.2672  134.3502  155.7386 LP  0  0  0  0  0  0  0  0  0  0  0  0  # atno 17394 bound_to 11000
  141.2191  133.7403  156.9169 LP  0  0  0  0  0  0  0  0  0  0  0  0  # atno 17395 bound_to 11000

$$$$
