AV-unprocessed.smi:1830|AV-procd|sdf|7452|dock1
  -GOLD-   22720 9143D 1   1.00000     0.00000
 Structure written by MMmdl.
 53 56  0  0  0  0  0  0  0  0  2 V2000
  151.6786  135.9651  155.6497 O   0  0  0  0  0  0  0  0  0  0  0  0
  150.7905  136.0841  154.8060 C   0  0  0  0  0  0  0  0  0  0  0  0
  150.5227  137.2328  154.1699 N   0  0  0  0  0  0  0  0  0  0  0  0
  151.2528  138.4821  154.3570 C   0  0  0  0  0  0  0  0  0  0  0  0
  151.1885  138.9690  155.8152 C   0  0  2  0  0  0  0  0  0  0  0  0
  151.3236  140.5049  155.9189 C   0  0  0  0  0  0  0  0  0  0  0  0
  151.3663  140.8999  157.3134 N   0  0  0  0  0  0  0  0  0  0  0  0
  151.5654  142.3030  157.5915 C   0  0  0  0  0  0  0  0  0  0  0  0
  151.9736  142.3413  159.0748 C   0  0  0  0  0  0  0  0  0  0  0  0
  152.4661  140.9081  159.3763 C   0  0  0  0  0  0  0  0  0  0  0  0
  152.4522  140.2496  157.9959 C   0  0  1  0  0  0  0  0  0  0  0  0
  152.2971  138.7231  157.9348 C   0  0  0  0  0  0  0  0  0  0  0  0
  152.2417  138.3404  156.5579 O   0  0  0  0  0  0  0  0  0  0  0  0
  149.9830  135.0964  154.3850 N   0  0  0  0  0  0  0  0  0  0  0  0
  150.0107  133.7185  154.7447 C   0  0  0  0  0  0  0  0  0  0  0  0
  150.9576  133.2149  155.6742 C   0  0  0  0  0  0  0  0  0  0  0  0
  150.9784  131.8424  155.9847 C   0  0  0  0  0  0  0  0  0  0  0  0
  150.0478  130.9913  155.3653 C   0  0  0  0  0  0  0  0  0  0  0  0
  149.1448  131.5032  154.5042 N   0  3  0  0  0  0  0  0  0  0  0  0
  149.0634  132.8170  154.1759 C   0  0  0  0  0  0  0  0  0  0  0  0
  148.0506  133.2056  153.2684 N   0  0  0  0  0  0  0  0  0  0  0  0
  147.3017  132.1994  152.5240 C   0  0  0  0  0  0  0  0  0  0  0  0
  146.1006  132.9439  151.9479 C   0  0  0  0  0  0  0  0  0  0  0  0
  145.7857  133.9561  153.0448 C   0  0  0  0  0  0  0  0  0  0  0  0
  147.1611  134.3080  153.6212 C   0  0  0  0  0  0  0  0  0  0  0  0
  149.7788  137.2421  153.4877 H   0  0  0  0  0  0  0  0  0  0  0  0
  152.2903  138.3212  154.0626 H   0  0  0  0  0  0  0  0  0  0  0  0
  150.8541  139.2435  153.6845 H   0  0  0  0  0  0  0  0  0  0  0  0
  150.2339  138.6738  156.2542 H   0  0  0  0  0  0  0  0  0  0  0  0
  152.2316  140.8329  155.4103 H   0  0  0  0  0  0  0  0  0  0  0  0
  150.4853  140.9920  155.4200 H   0  0  0  0  0  0  0  0  0  0  0  0
  152.3738  142.6984  156.9742 H   0  0  0  0  0  0  0  0  0  0  0  0
  150.6668  142.8859  157.3871 H   0  0  0  0  0  0  0  0  0  0  0  0
  152.7506  143.0863  159.2481 H   0  0  0  0  0  0  0  0  0  0  0  0
  151.1220  142.5912  159.7086 H   0  0  0  0  0  0  0  0  0  0  0  0
  153.4565  140.8896  159.8318 H   0  0  0  0  0  0  0  0  0  0  0  0
  151.7714  140.4063  160.0511 H   0  0  0  0  0  0  0  0  0  0  0  0
  153.3880  140.5107  157.4968 H   0  0  0  0  0  0  0  0  0  0  0  0
  153.1423  138.2293  158.4141 H   0  0  0  0  0  0  0  0  0  0  0  0
  151.3917  138.3970  158.4492 H   0  0  0  0  0  0  0  0  0  0  0  0
  149.3573  135.3346  153.6298 H   0  0  0  0  0  0  0  0  0  0  0  0
  151.6709  133.8616  156.1619 H   0  0  0  0  0  0  0  0  0  0  0  0
  151.7004  131.4496  156.6857 H   0  0  0  0  0  0  0  0  0  0  0  0
  149.9915  129.9261  155.5374 H   0  0  0  0  0  0  0  0  0  0  0  0
  147.9104  131.7456  151.7415 H   0  0  0  0  0  0  0  0  0  0  0  0
  146.9551  131.4103  153.1926 H   0  0  0  0  0  0  0  0  0  0  0  0
  146.3861  133.4635  151.0321 H   0  0  0  0  0  0  0  0  0  0  0  0
  145.2622  132.2858  151.7184 H   0  0  0  0  0  0  0  0  0  0  0  0
  145.2447  134.8284  152.6771 H   0  0  0  0  0  0  0  0  0  0  0  0
  145.1753  133.4825  153.8148 H   0  0  0  0  0  0  0  0  0  0  0  0
  147.1093  134.4679  154.6992 H   0  0  0  0  0  0  0  0  0  0  0  0
  147.5349  135.2218  153.1580 H   0  0  0  0  0  0  0  0  0  0  0  0
  148.4754  130.8614  154.0790 H   0  0  0  0  0  0  0  0  0  0  0  0
  1  2  2  0  0  0  0
  2  3  1  0  0  0  0
  2 14  1  0  0  0  0
  3  4  1  0  0  0  0
  3 26  1  0  0  0  0
  4  5  1  0  0  0  0
  4 27  1  0  0  0  0
  4 28  1  0  0  0  0
  5 13  1  0  0  0  0
  5  6  1  0  0  0  0
  5 29  1  0  0  0  0
  6  7  1  0  0  0  0
  6 30  1  0  0  0  0
  6 31  1  0  0  0  0
  7 11  1  0  0  0  0
  7  8  1  0  0  0  0
  8  9  1  0  0  0  0
  8 32  1  0  0  0  0
  8 33  1  0  0  0  0
  9 10  1  0  0  0  0
  9 34  1  0  0  0  0
  9 35  1  0  0  0  0
 10 11  1  0  0  0  0
 10 36  1  0  0  0  0
 10 37  1  0  0  0  0
 11 12  1  0  0  0  0
 11 38  1  0  0  0  0
 12 13  1  0  0  0  0
 12 39  1  0  0  0  0
 12 40  1  0  0  0  0
 14 15  1  0  0  0  0
 14 41  1  0  0  0  0
 15 20  1  0  0  0  0
 15 16  2  0  0  0  0
 16 17  1  0  0  0  0
 16 42  1  0  0  0  0
 17 18  2  0  0  0  0
 17 43  1  0  0  0  0
 18 19  1  0  0  0  0
 18 44  1  0  0  0  0
 19 20  2  0  0  0  0
 19 53  1  0  0  0  0
 20 21  1  0  0  0  0
 21 25  1  0  0  0  0
 21 22  1  0  0  0  0
 22 23  1  0  0  0  0
 22 45  1  0  0  0  0
 22 46  1  0  0  0  0
 23 24  1  0  0  0  0
 23 47  1  0  0  0  0
 23 48  1  0  0  0  0
 24 25  1  0  0  0  0
 24 49  1  0  0  0  0
 24 50  1  0  0  0  0
 25 51  1  0  0  0  0
 25 52  1  0  0  0  0
M  CHG  1  19   1
M  END
> <s_m_source_file>
AV-unprocessed.smi

> <i_m_source_file_index>
1830

> <i_lp_mmshare_version>
43012

> <i_f3d_flags>
0

> <s_epik_input>
W0NIMl0xW0NIMl1bQ0gyXVtDQEhdKE4xMilbQ0gyXU9bQ0BASF0oW0NIMl0yKVtDSDJdW05IXUMoPU8pW05IXWMzW2NIXVtjSF1bY0hdbmMzTjRbQ0gyXVtDSDJdW0NIMl1bQ0gyXTQ=

> <s_epik_cmdline>
J2VwaWtfcHl0aG9uJywgJy1waCcsICc3LjAnLCAnLXRuJywgJzgnLCAnLW1hJywgJzIwMCcsICctbWV0YWxfYmluZGluZycsICctaW1hZScsICc8aW5maWxlLm1hZT4nLCAnLW9tYWUnLCAnPG91dGZpbGUubWFlPic=

> <r_epik_Ionization_Penalty>
2.19264

> <r_epik_Ionization_Penalty_Charging>
1.12452

> <r_epik_Ionization_Penalty_Neutral>
1.06812

> <r_epik_State_Penalty>
2.334

> <r_epik_Charging_Adjusted_Penalty>
3.45852

> <i_epik_Tot_Q>
1

> <i_epik_Tot_abs_Q>
1

> <r_epik_Metal_State_Penalty>
2.41144

> <b_epik_Metal_Only>
0

> <s_lp_Force_Field>
OPLS_2005

> <r_lp_Energy>
81.6261

> <b_lp_Chiralities_Consistent>
1

> <s_lp_Variant>
AV-unprocessed.smi:1830-21

> <Gold.Version>
5.8.1

> <Gold.Id.Protein>
6NUR|6NUR_protein|mol2

> <Gold.PLP.Fitness>
47.0841

> <Gold.PLP.PLP>
-39.0569

> <Gold.PLP.part.hbond>
-4.1768

> <Gold.PLP.part.metal>
0.0000

> <Gold.PLP.part.buried>
-3.9521

> <Gold.PLP.part.nonpolar>
-30.7816

> <Gold.PLP.part.repulsive>
0.3626

> <Gold.PLP.ligand.clash>
0.0000

> <Gold.PLP.ligand.torsion>
0.5066

> <Gold.PLP.Chemscore.Hbond>
2.8800

> <Gold.PLP.Chemscore.CHOScore>
0.0000

> <Gold.PLP.Chemscore.Metal>
0.0000

> <Gold.Chemscore.Hbonds>
donor molecule, donor type, donor heavy atom, donor atom, acceptor molecule, acceptor atom, score
      L1  H     3    26       P1  7948  0.83
      L1  H    14    41       P1  7948  1.00
      P1  H 10752 10763       L1     1  1.00

> <Gold.PLP.Chemscore.Internal.Correction>
0.4005

> <Gold.Rescore>
     Score         DG    S(hbond)    S(metal)    S(lipo)     H(rot)  DE(clash)    DE(int)     intcor
     16.55     -20.01       2.06        0.00      95.87       1.40       0.04       3.43       ----

> <Gold.Chemscore.Fitness>
16.5467

> <Gold.Chemscore.DG>
-20.0099

> <Gold.Chemscore.ZeroCoef>
-5.4800

> <Gold.Chemscore.Hbond>
2.0620

> <Gold.Chemscore.Metal>
0.0000

> <Gold.Chemscore.Lipo>
95.8668

> <Gold.Chemscore.Internal_Hbond>
0.0000

> <Gold.Chemscore.DEClash>
0.0373

> <Gold.Chemscore.DEInternal>
3.4259

> <Gold.Chemscore.Rot>
1.3959

> <Gold.Chemscore.Internal.Correction>
   9.000000E+99

> <Gold.Chemscore.Hbonds>
donor molecule, donor type, donor heavy atom, donor atom, acceptor molecule, acceptor atom, score
      L1  H     3    26       P1  7948  0.51
      L1  H    14    41       P1  7948  0.24
      P1  H 10752 10763       L1     1  0.35

> <Gold.Chemscore.Hbond.Weighted>
-6.8871

> <Gold.Chemscore.Metal.Weighted>
-0.0000

> <Gold.Chemscore.Lipo.Weighted>
-11.2164

> <Gold.Chemscore.Internal_Hbond.Weighted>
0.0000

> <Gold.Chemscore.DEClash.Weighted>
0.0373

> <Gold.Chemscore.DEInternal.Weighted>
3.4259

> <Gold.Chemscore.Rot.Weighted>
3.5736

> <Gold.Chemscore.Internal.Correction.Weighted>
   9.000000E+99

> <Gold.Protein.RotatedTorsions>
[ 6907 6896 6895 6894 ] final   64.84 input  -60.11 | X-H torsion
[ 7974 7965 7964 7962 ] final -102.68 input  175.53 | X-H torsion
[ 8008 7997 7996 7995 ] final  -92.68 input   59.86 | X-H torsion
[ 10167 10162 10161 10158 ] final  -54.92 input  -65.29 | X-H torsion
[ 10718 10713 10712 10709 ] final -147.33 input   66.30 | X-H torsion
[ 10763 10752 10751 10750 ] final   66.59 input  -60.55 | X-H torsion
[ 11005 11000 10999 10996 ] final   77.99 input  -57.11 | X-H torsion

> <Gold.Protein.ActiveResidues>
 VAL166  LYS551  ARG553  GLY616  TRP617  ASP618  TYR619  PRO620  LYS621  CYS622 
 ASP623  PHE694  ASN695  SER759  ASP760  ASP761  ALA762  ILE779  LEU786  VAL792 
 PHE793  MET794  SER795  GLU796  ALA797  LYS798  CYS799  TRP800  GLU811  SER814 

> <Gold.Protein.RotatedAtoms>
  152.4362  134.5681  159.9913 H   0  0  0  0  0  0  0  0  0  0  0  0  # atno 6907 bound_to 6896
  151.5791  133.3374  159.3013 H   0  0  0  0  0  0  0  0  0  0  0  0  # atno 6908 bound_to 6896
  150.8261  134.7527  159.6878 H   0  0  0  0  0  0  0  0  0  0  0  0  # atno 6909 bound_to 6896
  145.2656  140.9283  143.3015 H   0  0  0  0  0  0  0  0  0  0  0  0  # atno 7974 bound_to 7965
  154.7262  140.0506  157.0684 H   0  0  0  0  0  0  0  0  0  0  0  0  # atno 8008 bound_to 7997
  155.0362  140.3163  155.4721 H   0  0  0  0  0  0  0  0  0  0  0  0  # atno 8009 bound_to 7997
  156.2829  140.2141  156.5485 H   0  0  0  0  0  0  0  0  0  0  0  0  # atno 8010 bound_to 7997
  140.6403  143.2504  151.5006 H   0  0  0  0  0  0  0  0  0  0  0  0  # atno 10167 bound_to 10162
  156.4062  130.7958  151.2173 H   0  0  0  0  0  0  0  0  0  0  0  0  # atno 10718 bound_to 10713
  153.0147  135.5315  154.6848 H   0  0  0  0  0  0  0  0  0  0  0  0  # atno 10763 bound_to 10752
  154.5998  135.2867  155.0549 H   0  0  0  0  0  0  0  0  0  0  0  0  # atno 10764 bound_to 10752
  154.1610  135.6547  153.5038 H   0  0  0  0  0  0  0  0  0  0  0  0  # atno 10765 bound_to 10752
  139.9231  134.7727  156.1592 H   0  0  0  0  0  0  0  0  0  0  0  0  # atno 11005 bound_to 11000
  144.9380  139.4222  143.6463 LP  0  0  0  0  0  0  0  0  0  0  0  0  # atno 17320 bound_to 7965
  146.3262  139.8325  142.8905 LP  0  0  0  0  0  0  0  0  0  0  0  0  # atno 17321 bound_to 7965
  139.5613  144.2150  152.1695 LP  0  0  0  0  0  0  0  0  0  0  0  0  # atno 17342 bound_to 10162
  140.1419  144.5194  150.6739 LP  0  0  0  0  0  0  0  0  0  0  0  0  # atno 17343 bound_to 10162
  157.7505  131.0271  150.3993 LP  0  0  0  0  0  0  0  0  0  0  0  0  # atno 17370 bound_to 10713
  156.4282  130.3967  149.6778 LP  0  0  0  0  0  0  0  0  0  0  0  0  # atno 17371 bound_to 10713
  141.0768  133.6772  156.2253 LP  0  0  0  0  0  0  0  0  0  0  0  0  # atno 17394 bound_to 11000
  140.6415  134.5161  157.5570 LP  0  0  0  0  0  0  0  0  0  0  0  0  # atno 17395 bound_to 11000

$$$$
