AV-unprocessed.smi:2061|AV-procd|sdf|8375|dock5
  -GOLD-   2272011 53D 1   1.00000     0.00000
 Structure written by MMmdl.
 44 45  0  0  0  0  0  0  0  0  2 V2000
  144.3106  143.4126  162.8326 C   0  0  0  0  0  0  0  0  0  0  0  0
  144.9719  142.9450  161.5814 C   0  0  0  0  0  0  0  0  0  0  0  0
  145.4077  143.5974  160.4634 C   0  0  0  0  0  0  0  0  0  0  0  0
  145.9440  142.5504  159.6649 C   0  0  0  0  0  0  0  0  0  0  0  0
  146.4885  142.6872  158.4461 N   0  5  0  0  0  0  0  0  0  0  0  0
  147.4396  141.8225  158.0232 C   0  0  0  0  0  0  0  0  0  0  0  0
  147.5409  140.6360  158.3427 O   0  0  0  0  0  0  0  0  0  0  0  0
  148.3311  142.3736  157.1861 N   0  0  0  0  0  0  0  0  0  0  0  0
  149.4734  141.7053  156.5643 C   0  0  0  0  0  0  0  0  0  0  0  0
  150.3974  140.9963  157.5955 C   0  0  1  0  0  0  0  0  0  0  0  0
  150.9840  139.7132  156.9530 C   0  0  0  0  0  0  0  0  0  0  0  0
  151.4441  141.8866  158.1530 N   0  0  0  0  0  0  0  0  0  0  0  0
  152.2303  141.2385  159.2086 C   0  0  0  0  0  0  0  0  0  0  0  0
  153.3083  142.1612  159.8086 C   0  0  2  0  0  0  0  0  0  0  0  0
  154.0665  141.4934  160.9608 C   0  0  0  0  0  0  0  0  0  0  0  0
  152.6885  143.3392  160.3082 O   0  0  0  0  0  0  0  0  0  0  0  0
  151.9773  144.0509  159.3036 C   0  0  2  0  0  0  0  0  0  0  0  0
  151.3768  145.3086  159.9407 C   0  0  0  0  0  0  0  0  0  0  0  0
  150.8971  143.1332  158.6996 C   0  0  0  0  0  0  0  0  0  0  0  0
  145.8277  141.3651  160.2401 N   0  0  0  0  0  0  0  0  0  0  0  0
  145.2106  141.6103  161.4726 O   0  0  0  0  0  0  0  0  0  0  0  0
  143.2840  143.7199  162.6333 H   0  0  0  0  0  0  0  0  0  0  0  0
  144.8433  144.2647  163.2548 H   0  0  0  0  0  0  0  0  0  0  0  0
  144.2879  142.6230  163.5841 H   0  0  0  0  0  0  0  0  0  0  0  0
  145.3561  144.6547  160.2506 H   0  0  0  0  0  0  0  0  0  0  0  0
  148.2027  143.3487  156.9598 H   0  0  0  0  0  0  0  0  0  0  0  0
  149.1599  140.9991  155.7939 H   0  0  0  0  0  0  0  0  0  0  0  0
  150.0001  142.5052  156.0480 H   0  0  0  0  0  0  0  0  0  0  0  0
  149.7598  140.6728  158.4199 H   0  0  0  0  0  0  0  0  0  0  0  0
  150.2133  139.0744  156.5241 H   0  0  0  0  0  0  0  0  0  0  0  0
  151.4968  139.0812  157.6762 H   0  0  0  0  0  0  0  0  0  0  0  0
  151.6874  139.9578  156.1565 H   0  0  0  0  0  0  0  0  0  0  0  0
  151.5658  140.8898  160.0009 H   0  0  0  0  0  0  0  0  0  0  0  0
  152.7445  140.3623  158.8184 H   0  0  0  0  0  0  0  0  0  0  0  0
  154.0251  142.4378  159.0334 H   0  0  0  0  0  0  0  0  0  0  0  0
  154.5707  140.5867  160.6256 H   0  0  0  0  0  0  0  0  0  0  0  0
  153.3907  141.2210  161.7721 H   0  0  0  0  0  0  0  0  0  0  0  0
  154.8240  142.1631  161.3688 H   0  0  0  0  0  0  0  0  0  0  0  0
  152.6761  144.3550  158.5223 H   0  0  0  0  0  0  0  0  0  0  0  0
  150.8315  145.8993  159.2042 H   0  0  0  0  0  0  0  0  0  0  0  0
  152.1570  145.9420  160.3634 H   0  0  0  0  0  0  0  0  0  0  0  0
  150.6845  145.0520  160.7430 H   0  0  0  0  0  0  0  0  0  0  0  0
  150.3994  143.7067  157.9203 H   0  0  0  0  0  0  0  0  0  0  0  0
  150.1450  142.9040  159.4564 H   0  0  0  0  0  0  0  0  0  0  0  0
  1  2  1  0  0  0  0
  1 22  1  0  0  0  0
  1 23  1  0  0  0  0
  1 24  1  0  0  0  0
  2 21  1  0  0  0  0
  2  3  2  0  0  0  0
  3  4  1  0  0  0  0
  3 25  1  0  0  0  0
  4  5  1  0  0  0  0
  4 20  2  0  0  0  0
  5  6  1  0  0  0  0
  6  7  2  0  0  0  0
  6  8  1  0  0  0  0
  8  9  1  0  0  0  0
  8 26  1  0  0  0  0
  9 10  1  0  0  0  0
  9 27  1  0  0  0  0
  9 28  1  0  0  0  0
 10 11  1  0  0  0  0
 10 12  1  0  0  0  0
 10 29  1  0  0  0  0
 11 30  1  0  0  0  0
 11 31  1  0  0  0  0
 11 32  1  0  0  0  0
 12 19  1  0  0  0  0
 12 13  1  0  0  0  0
 13 14  1  0  0  0  0
 13 33  1  0  0  0  0
 13 34  1  0  0  0  0
 14 15  1  0  0  0  0
 14 16  1  0  0  0  0
 14 35  1  0  0  0  0
 15 36  1  0  0  0  0
 15 37  1  0  0  0  0
 15 38  1  0  0  0  0
 16 17  1  0  0  0  0
 17 18  1  0  0  0  0
 17 19  1  0  0  0  0
 17 39  1  0  0  0  0
 18 40  1  0  0  0  0
 18 41  1  0  0  0  0
 18 42  1  0  0  0  0
 19 43  1  0  0  0  0
 19 44  1  0  0  0  0
 20 21  1  0  0  0  0
M  CHG  1   5  -1
M  END
> <s_m_source_file>
AV-unprocessed.smi

> <i_m_source_file_index>
2061

> <i_lp_mmshare_version>
43012

> <i_f3d_flags>
0

> <s_epik_input>
W0NIM11jMVtjSF1jKG5vMSlbTkhdQyg9TylbTkhdW0NIMl1bQ0BIXShbQ0gzXSlOMltDSDJdW0NAQEhdKFtDSDNdKU9bQ0BASF0oW0NIM10pW0NIMl0y

> <s_epik_cmdline>
J2VwaWtfcHl0aG9uJywgJy1waCcsICc3LjAnLCAnLXRuJywgJzgnLCAnLW1hJywgJzIwMCcsICctbWV0YWxfYmluZGluZycsICctaW1hZScsICc8aW5maWxlLm1hZT4nLCAnLW9tYWUnLCAnPG91dGZpbGUubWFlPic=

> <r_epik_Ionization_Penalty>
6.88367

> <r_epik_Ionization_Penalty_Charging>
6.57198

> <r_epik_Ionization_Penalty_Neutral>
0.311681

> <r_epik_State_Penalty>
6.77619

> <r_epik_Charging_Adjusted_Penalty>
13.3482

> <i_epik_Tot_Q>
-1

> <i_epik_Tot_abs_Q>
1

> <r_epik_Metal_State_Penalty>
2.70524

> <b_epik_Metal_Only>
1

> <s_lp_Force_Field>
OPLS_2005

> <r_lp_Energy>
21.0449

> <b_lp_Chiralities_Consistent>
1

> <s_lp_Variant>
AV-unprocessed.smi:2061-16

> <Gold.Version>
5.8.1

> <Gold.Id.Protein>
6NUR|6NUR_protein|mol2

> <Gold.PLP.Fitness>
43.6399

> <Gold.PLP.PLP>
-40.0995

> <Gold.PLP.part.hbond>
-3.9055

> <Gold.PLP.part.metal>
0.0000

> <Gold.PLP.part.buried>
-7.0687

> <Gold.PLP.part.nonpolar>
-29.4935

> <Gold.PLP.part.repulsive>
0.1868

> <Gold.PLP.ligand.clash>
0.0000

> <Gold.PLP.ligand.torsion>
0.8089

> <Gold.PLP.Chemscore.Hbond>
1.6920

> <Gold.PLP.Chemscore.CHOScore>
0.0000

> <Gold.PLP.Chemscore.Metal>
0.0000

> <Gold.Chemscore.Hbonds>
donor molecule, donor type, donor heavy atom, donor atom, acceptor molecule, acceptor atom, score
      L1  H     8    26       P1  8028  0.61
      P1  H  6934  6946       L1    20  0.29

> <Gold.PLP.Chemscore.Internal.Correction>
0.0822

> <Gold.Rescore>
     Score         DG    S(hbond)    S(metal)    S(lipo)     H(rot)  DE(clash)    DE(int)     intcor
     12.79     -16.44       1.33        0.00      88.93       1.52       0.05       3.60       ----

> <Gold.Chemscore.Fitness>
12.7919

> <Gold.Chemscore.DG>
-16.4386

> <Gold.Chemscore.ZeroCoef>
-5.4800

> <Gold.Chemscore.Hbond>
1.3301

> <Gold.Chemscore.Metal>
0.0000

> <Gold.Chemscore.Lipo>
88.9290

> <Gold.Chemscore.Internal_Hbond>
0.0000

> <Gold.Chemscore.DEClash>
0.0497

> <Gold.Chemscore.DEInternal>
3.5970

> <Gold.Chemscore.Rot>
1.5190

> <Gold.Chemscore.Internal.Correction>
   9.000000E+99

> <Gold.Chemscore.Hbonds>
donor molecule, donor type, donor heavy atom, donor atom, acceptor molecule, acceptor atom, score
      L1  H     8    26       P1  8028  0.07
      P1  H  6934  6946       L1    20  0.04

> <Gold.Chemscore.Hbond.Weighted>
-4.4425

> <Gold.Chemscore.Metal.Weighted>
-0.0000

> <Gold.Chemscore.Lipo.Weighted>
-10.4047

> <Gold.Chemscore.Internal_Hbond.Weighted>
0.0000

> <Gold.Chemscore.DEClash.Weighted>
0.0497

> <Gold.Chemscore.DEInternal.Weighted>
3.5970

> <Gold.Chemscore.Rot.Weighted>
3.8886

> <Gold.Chemscore.Internal.Correction.Weighted>
   9.000000E+99

> <Gold.Protein.RotatedTorsions>
[ 6907 6896 6895 6894 ] final   -9.90 input  -60.11 | X-H torsion
[ 7974 7965 7964 7962 ] final   11.74 input  175.53 | X-H torsion
[ 8008 7997 7996 7995 ] final   28.70 input   59.86 | X-H torsion
[ 10167 10162 10161 10158 ] final  -35.01 input  -65.29 | X-H torsion
[ 10718 10713 10712 10709 ] final  -70.82 input   66.30 | X-H torsion
[ 10763 10752 10751 10750 ] final  111.71 input  -60.55 | X-H torsion
[ 11005 11000 10999 10996 ] final  -92.11 input  -57.11 | X-H torsion

> <Gold.Protein.ActiveResidues>
 VAL166  LYS551  ARG553  GLY616  TRP617  ASP618  TYR619  PRO620  LYS621  CYS622 
 ASP623  PHE694  ASN695  SER759  ASP760  ASP761  ALA762  ILE779  LEU786  VAL792 
 PHE793  MET794  SER795  GLU796  ALA797  LYS798  CYS799  TRP800  GLU811  SER814 

> <Gold.Protein.RotatedAtoms>
  151.4105  135.0984  159.9583 H   0  0  0  0  0  0  0  0  0  0  0  0  # atno 6907 bound_to 6896
  152.5021  133.8802  159.7353 H   0  0  0  0  0  0  0  0  0  0  0  0  # atno 6908 bound_to 6896
  150.9296  133.6726  159.2842 H   0  0  0  0  0  0  0  0  0  0  0  0  # atno 6909 bound_to 6896
  146.2365  139.9440  142.8479 H   0  0  0  0  0  0  0  0  0  0  0  0  # atno 7974 bound_to 7965
  155.0629  140.3192  155.4655 H   0  0  0  0  0  0  0  0  0  0  0  0  # atno 8008 bound_to 7997
  156.2809  140.2125  156.5700 H   0  0  0  0  0  0  0  0  0  0  0  0  # atno 8009 bound_to 7997
  154.7118  140.0497  157.0544 H   0  0  0  0  0  0  0  0  0  0  0  0  # atno 8010 bound_to 7997
  140.7174  143.3507  151.2161 H   0  0  0  0  0  0  0  0  0  0  0  0  # atno 10167 bound_to 10162
  156.0390  130.4339  150.2352 H   0  0  0  0  0  0  0  0  0  0  0  0  # atno 10718 bound_to 10713
  153.4673  135.3708  155.2371 H   0  0  0  0  0  0  0  0  0  0  0  0  # atno 10763 bound_to 10752
  154.8757  135.3923  154.3853 H   0  0  0  0  0  0  0  0  0  0  0  0  # atno 10764 bound_to 10752
  153.4436  135.7084  153.6218 H   0  0  0  0  0  0  0  0  0  0  0  0  # atno 10765 bound_to 10752
  141.1529  133.7799  156.9974 H   0  0  0  0  0  0  0  0  0  0  0  0  # atno 11005 bound_to 11000
  145.1925  140.9818  143.4202 LP  0  0  0  0  0  0  0  0  0  0  0  0  # atno 17320 bound_to 7965
  144.9844  139.3751  143.6246 LP  0  0  0  0  0  0  0  0  0  0  0  0  # atno 17321 bound_to 7965
  139.7037  143.9490  152.2917 LP  0  0  0  0  0  0  0  0  0  0  0  0  # atno 17342 bound_to 10162
  139.9192  144.6810  150.8480 LP  0  0  0  0  0  0  0  0  0  0  0  0  # atno 17343 bound_to 10162
  157.0449  131.0046  151.3272 LP  0  0  0  0  0  0  0  0  0  0  0  0  # atno 17370 bound_to 10713
  157.5182  130.7981  149.7780 LP  0  0  0  0  0  0  0  0  0  0  0  0  # atno 17371 bound_to 10713
  140.0963  134.9562  157.1854 LP  0  0  0  0  0  0  0  0  0  0  0  0  # atno 17394 bound_to 11000
  140.3378  134.2737  155.7217 LP  0  0  0  0  0  0  0  0  0  0  0  0  # atno 17395 bound_to 11000

$$$$
