AV-unprocessed.smi:3245|AV-procd|sdf|12404|dock10
  -GOLD-   2272018283D 1   1.00000     0.00000
 Structure written by MMmdl.
 35 36  0  0  0  0  0  0  0  0  1 V2000
  154.3697  140.2439  161.1991 C   0  0  0  0  0  0  0  0  0  0  0  0
  153.5665  141.2658  160.3768 C   0  0  2  0  0  0  0  0  0  0  0  0
  152.9761  142.4032  161.2432 C   0  0  0  0  0  0  0  0  0  0  0  0
  152.5056  143.5267  160.4541 N   0  0  0  0  0  0  0  0  0  0  0  0
  151.8079  144.6394  160.8756 C   0  0  0  0  0  0  0  0  0  0  0  0
  151.5829  145.4177  159.7763 C   0  0  0  0  0  0  0  0  0  0  0  0
  152.1848  144.6855  158.7150 C   0  0  0  0  0  0  0  0  0  0  0  0
  152.7353  143.5536  159.1236 N   0  0  0  0  0  0  0  0  0  0  0  0
  152.4916  140.5430  159.7093 N   0  0  0  0  0  0  0  0  0  0  0  0
  152.8826  140.0846  158.3833 C   0  0  0  0  0  0  0  0  0  0  0  0
  151.6833  139.4307  157.6742 C   0  0  0  0  0  0  0  0  0  0  0  0
  150.8156  140.4272  157.0353 N   0  0  0  0  0  0  0  0  0  0  0  0
  150.5563  140.4751  155.7215 C   0  0  0  0  0  0  0  0  0  0  0  0
  150.9949  139.7346  154.8420 O   0  0  0  0  0  0  0  0  0  0  0  0
  149.5983  141.6175  155.4632 C   0  0  0  0  0  0  0  0  0  0  0  0
  149.4382  142.1007  156.8176 N   0  0  0  0  0  0  0  0  0  0  0  0
  150.1526  141.3911  157.7005 C   0  0  0  0  0  0  0  0  0  0  0  0
  150.1839  141.5957  158.9132 O   0  0  0  0  0  0  0  0  0  0  0  0
  155.2366  140.7059  161.6722 H   0  0  0  0  0  0  0  0  0  0  0  0
  154.7428  139.4366  160.5679 H   0  0  0  0  0  0  0  0  0  0  0  0
  153.7600  139.7978  161.9858 H   0  0  0  0  0  0  0  0  0  0  0  0
  154.2357  141.6852  159.6239 H   0  0  0  0  0  0  0  0  0  0  0  0
  152.1409  142.0479  161.8470 H   0  0  0  0  0  0  0  0  0  0  0  0
  153.7276  142.7705  161.9438 H   0  0  0  0  0  0  0  0  0  0  0  0
  151.5358  144.7838  161.9109 H   0  0  0  0  0  0  0  0  0  0  0  0
  151.0660  146.3649  159.7364 H   0  0  0  0  0  0  0  0  0  0  0  0
  152.2377  144.9408  157.6668 H   0  0  0  0  0  0  0  0  0  0  0  0
  152.2248  139.7425  160.2645 H   0  0  0  0  0  0  0  0  0  0  0  0
  153.2731  140.9031  157.7794 H   0  0  0  0  0  0  0  0  0  0  0  0
  153.6873  139.3560  158.4895 H   0  0  0  0  0  0  0  0  0  0  0  0
  152.0514  138.7453  156.9092 H   0  0  0  0  0  0  0  0  0  0  0  0
  151.1197  138.8092  158.3724 H   0  0  0  0  0  0  0  0  0  0  0  0
  150.0385  142.3752  154.8144 H   0  0  0  0  0  0  0  0  0  0  0  0
  148.6542  141.2648  155.0473 H   0  0  0  0  0  0  0  0  0  0  0  0
  148.8461  142.8828  157.0569 H   0  0  0  0  0  0  0  0  0  0  0  0
  1  2  1  0  0  0  0
  1 19  1  0  0  0  0
  1 20  1  0  0  0  0
  1 21  1  0  0  0  0
  2  3  1  0  0  0  0
  2  9  1  0  0  0  0
  2 22  1  0  0  0  0
  3  4  1  0  0  0  0
  3 23  1  0  0  0  0
  3 24  1  0  0  0  0
  4  8  1  0  0  0  0
  4  5  1  0  0  0  0
  5  6  2  0  0  0  0
  5 25  1  0  0  0  0
  6  7  1  0  0  0  0
  6 26  1  0  0  0  0
  7  8  2  0  0  0  0
  7 27  1  0  0  0  0
  9 10  1  0  0  0  0
  9 28  1  0  0  0  0
 10 11  1  0  0  0  0
 10 29  1  0  0  0  0
 10 30  1  0  0  0  0
 11 12  1  0  0  0  0
 11 31  1  0  0  0  0
 11 32  1  0  0  0  0
 12 17  1  0  0  0  0
 12 13  1  0  0  0  0
 13 14  2  0  0  0  0
 13 15  1  0  0  0  0
 15 16  1  0  0  0  0
 15 33  1  0  0  0  0
 15 34  1  0  0  0  0
 16 17  1  0  0  0  0
 16 35  1  0  0  0  0
 17 18  2  0  0  0  0
M  END
> <s_m_source_file>
AV-unprocessed.smi

> <i_m_source_file_index>
3245

> <i_lp_mmshare_version>
43012

> <i_f3d_flags>
0

> <s_epik_input>
bjFbY0hdW2NIXVtjSF1uMVtDSDJdW0NAQEhdKFtDSDNdKVtOSF1bQ0gyXVtDSDJdTjJDKD1PKVtDSDJdW05IXUMyPU8=

> <s_epik_cmdline>
J2VwaWtfcHl0aG9uJywgJy1waCcsICc3LjAnLCAnLXRuJywgJzgnLCAnLW1hJywgJzIwMCcsICctbWV0YWxfYmluZGluZycsICctaW1hZScsICc8aW5maWxlLm1hZT4nLCAnLW9tYWUnLCAnPG91dGZpbGUubWFlPic=

> <r_lp_tautomer_probability>
1

> <r_epik_Ionization_Penalty>
2.14948

> <r_epik_Ionization_Penalty_Charging>
0

> <r_epik_Ionization_Penalty_Neutral>
2.14948

> <r_epik_State_Penalty>
2.28912

> <r_epik_Charging_Adjusted_Penalty>
2.28912

> <i_epik_Tot_Q>
0

> <i_epik_Tot_abs_Q>
0

> <r_epik_Metal_State_Penalty>
2.36471

> <b_epik_Metal_Only>
0

> <s_lp_Force_Field>
OPLS_2005

> <r_lp_Energy>
24.3933

> <b_lp_Chiralities_Consistent>
1

> <s_lp_Variant>
AV-unprocessed.smi:3245-3

> <Gold.Version>
5.8.1

> <Gold.Id.Protein>
6NUR|6NUR_protein|mol2

> <Gold.PLP.Fitness>
46.5521

> <Gold.PLP.PLP>
-43.1870

> <Gold.PLP.part.hbond>
-2.4361

> <Gold.PLP.part.metal>
0.0000

> <Gold.PLP.part.buried>
-4.5908

> <Gold.PLP.part.nonpolar>
-36.1728

> <Gold.PLP.part.repulsive>
0.1296

> <Gold.PLP.ligand.clash>
0.0000

> <Gold.PLP.ligand.torsion>
0.7117

> <Gold.PLP.Chemscore.Hbond>
1.5760

> <Gold.PLP.Chemscore.CHOScore>
0.0000

> <Gold.PLP.Chemscore.Metal>
0.0000

> <Gold.Chemscore.Hbonds>
donor molecule, donor type, donor heavy atom, donor atom, acceptor molecule, acceptor atom, score
      L1  H    16    35       P1  8028  0.12
      P1  H  7989  7998       L1    14  1.00

> <Gold.PLP.Chemscore.Internal.Correction>
0.0605

> <Gold.Rescore>
     Score         DG    S(hbond)    S(metal)    S(lipo)     H(rot)  DE(clash)    DE(int)     intcor
      9.96     -12.30       0.98        0.00      88.65       2.66       0.13       2.20       ----

> <Gold.Chemscore.Fitness>
9.9630

> <Gold.Chemscore.DG>
-12.2972

> <Gold.Chemscore.ZeroCoef>
-5.4800

> <Gold.Chemscore.Hbond>
0.9752

> <Gold.Chemscore.Metal>
0.0000

> <Gold.Chemscore.Lipo>
88.6483

> <Gold.Chemscore.Internal_Hbond>
0.0000

> <Gold.Chemscore.DEClash>
0.1326

> <Gold.Chemscore.DEInternal>
2.2016

> <Gold.Chemscore.Rot>
2.6609

> <Gold.Chemscore.Internal.Correction>
   9.000000E+99

> <Gold.Chemscore.Hbonds>
donor molecule, donor type, donor heavy atom, donor atom, acceptor molecule, acceptor atom, score
      L1  H    16    35       P1  8028  0.10
      P1  H  7989  7998       L1    14  0.55

> <Gold.Chemscore.Hbond.Weighted>
-3.2572

> <Gold.Chemscore.Metal.Weighted>
-0.0000

> <Gold.Chemscore.Lipo.Weighted>
-10.3718

> <Gold.Chemscore.Internal_Hbond.Weighted>
0.0000

> <Gold.Chemscore.DEClash.Weighted>
0.1326

> <Gold.Chemscore.DEInternal.Weighted>
2.2016

> <Gold.Chemscore.Rot.Weighted>
6.8118

> <Gold.Chemscore.Internal.Correction.Weighted>
   9.000000E+99

> <Gold.Protein.RotatedTorsions>
[ 6907 6896 6895 6894 ] final  -73.26 input  -60.11 | X-H torsion
[ 7974 7965 7964 7962 ] final -177.70 input  175.53 | X-H torsion
[ 8008 7997 7996 7995 ] final  164.32 input   59.86 | X-H torsion
[ 10167 10162 10161 10158 ] final  -27.25 input  -65.29 | X-H torsion
[ 10718 10713 10712 10709 ] final    5.79 input   66.30 | X-H torsion
[ 10763 10752 10751 10750 ] final   14.42 input  -60.55 | X-H torsion
[ 11005 11000 10999 10996 ] final   -3.79 input  -57.11 | X-H torsion

> <Gold.Protein.ActiveResidues>
 VAL166  LYS551  ARG553  GLY616  TRP617  ASP618  TYR619  PRO620  LYS621  CYS622 
 ASP623  PHE694  ASN695  SER759  ASP760  ASP761  ALA762  ILE779  LEU786  VAL792 
 PHE793  MET794  SER795  GLU796  ALA797  LYS798  CYS799  TRP800  GLU811  SER814 

> <Gold.Protein.RotatedAtoms>
  150.7137  134.5042  159.5575 H   0  0  0  0  0  0  0  0  0  0  0  0  # atno 6907 bound_to 6896
  152.2633  134.8008  160.0436 H   0  0  0  0  0  0  0  0  0  0  0  0  # atno 6908 bound_to 6896
  151.8714  133.3441  159.3773 H   0  0  0  0  0  0  0  0  0  0  0  0  # atno 6909 bound_to 6896
  144.7128  140.0979  143.6418 H   0  0  0  0  0  0  0  0  0  0  0  0  # atno 7974 bound_to 7965
  156.1889  140.1700  156.8131 H   0  0  0  0  0  0  0  0  0  0  0  0  # atno 8008 bound_to 7997
  154.5447  140.0729  156.8601 H   0  0  0  0  0  0  0  0  0  0  0  0  # atno 8009 bound_to 7997
  155.3145  140.3369  155.4245 H   0  0  0  0  0  0  0  0  0  0  0  0  # atno 8010 bound_to 7997
  140.7278  143.4109  151.1107 H   0  0  0  0  0  0  0  0  0  0  0  0  # atno 10167 bound_to 10162
  156.9125  130.5761  149.5647 H   0  0  0  0  0  0  0  0  0  0  0  0  # atno 10718 bound_to 10713
  153.1624  135.6798  153.8724 H   0  0  0  0  0  0  0  0  0  0  0  0  # atno 10763 bound_to 10752
  153.8115  135.3142  155.3402 H   0  0  0  0  0  0  0  0  0  0  0  0  # atno 10764 bound_to 10752
  154.7941  135.4817  154.0210 H   0  0  0  0  0  0  0  0  0  0  0  0  # atno 10765 bound_to 10752
  140.6732  133.9218  155.8508 H   0  0  0  0  0  0  0  0  0  0  0  0  # atno 11005 bound_to 11000
  145.9563  139.2769  143.1182 LP  0  0  0  0  0  0  0  0  0  0  0  0  # atno 17320 bound_to 7965
  145.9269  140.9076  143.0376 LP  0  0  0  0  0  0  0  0  0  0  0  0  # atno 17321 bound_to 7965
  139.7742  143.8450  152.3126 LP  0  0  0  0  0  0  0  0  0  0  0  0  # atno 17342 bound_to 10162
  139.8378  144.7224  150.9368 LP  0  0  0  0  0  0  0  0  0  0  0  0  # atno 17343 bound_to 10162
  156.0529  130.5595  150.9028 LP  0  0  0  0  0  0  0  0  0  0  0  0  # atno 17370 bound_to 10713
  157.5958  131.0943  150.9043 LP  0  0  0  0  0  0  0  0  0  0  0  0  # atno 17371 bound_to 10713
  141.0375  134.0668  157.3941 LP  0  0  0  0  0  0  0  0  0  0  0  0  # atno 17394 bound_to 11000
  139.8975  135.0150  156.7102 LP  0  0  0  0  0  0  0  0  0  0  0  0  # atno 17395 bound_to 11000

$$$$
