AV-unprocessed.smi:1385|AV-procd|sdf|5629|dock3
  -GOLD-   22720 5243D 1   1.00000     0.00000
 Structure written by MMmdl.
 39 40  0  0  0  0  0  0  0  0  2 V2000
  148.8089  124.0183  152.2203 C   0  0  0  0  0  0  0  0  0  0  0  0
  148.2967  125.4179  152.2276 C   0  0  0  0  0  0  0  0  0  0  0  0
  147.5000  125.8917  153.1931 N   0  0  0  0  0  0  0  0  0  0  0  0
  147.1545  127.2199  152.9854 N   0  0  0  0  0  0  0  0  0  0  0  0
  147.7057  127.7107  151.8668 C   0  0  0  0  0  0  0  0  0  0  0  0
  147.5191  129.0438  151.4142 N   0  0  0  0  0  0  0  0  0  0  0  0
  146.4956  129.8761  151.6754 C   0  0  0  0  0  0  0  0  0  0  0  0
  145.5163  129.6053  152.3711 O   0  0  0  0  0  0  0  0  0  0  0  0
  146.6684  131.0637  151.0764 N   0  0  0  0  0  0  0  0  0  0  0  0
  145.7474  132.1926  151.1731 C   0  0  2  0  0  0  0  0  0  0  0  0
  145.7875  132.8178  152.5794 C   0  0  0  0  0  0  0  0  0  0  0  0
  144.7529  133.9471  152.7111 C   0  0  0  0  0  0  0  0  0  0  0  0
  143.3831  133.4582  152.3990 N   0  3  1  0  0  0  0  0  0  0  0  0
  142.3305  134.4786  152.6418 C   0  0  0  0  0  0  0  0  0  0  0  0
  142.4410  135.1386  154.0203 C   0  0  0  0  0  0  0  0  0  0  0  0
  142.8778  134.3715  155.0216 N   0  0  0  0  0  0  0  0  0  0  0  0
  142.1525  136.3234  154.1797 O   0  0  0  0  0  0  0  0  0  0  0  0
  143.3087  132.8811  151.0322 C   0  0  0  0  0  0  0  0  0  0  0  0
  144.3156  131.7311  150.8572 C   0  0  0  0  0  0  0  0  0  0  0  0
  148.7012  126.5782  150.9682 S   0  0  0  0  0  0  0  0  0  0  0  0
  148.1083  123.3530  152.7260 H   0  0  0  0  0  0  0  0  0  0  0  0
  149.7702  123.9717  152.7322 H   0  0  0  0  0  0  0  0  0  0  0  0
  148.9396  123.6709  151.1954 H   0  0  0  0  0  0  0  0  0  0  0  0
  148.2531  129.4053  150.8233 H   0  0  0  0  0  0  0  0  0  0  0  0
  147.5006  131.1986  150.5208 H   0  0  0  0  0  0  0  0  0  0  0  0
  146.0323  132.9487  150.4385 H   0  0  0  0  0  0  0  0  0  0  0  0
  145.5889  132.0541  153.3331 H   0  0  0  0  0  0  0  0  0  0  0  0
  146.7832  133.2091  152.7914 H   0  0  0  0  0  0  0  0  0  0  0  0
  144.7893  134.3470  153.7247 H   0  0  0  0  0  0  0  0  0  0  0  0
  145.0090  134.7685  152.0399 H   0  0  0  0  0  0  0  0  0  0  0  0
  142.3501  135.2323  151.8526 H   0  0  0  0  0  0  0  0  0  0  0  0
  141.3470  134.0082  152.6014 H   0  0  0  0  0  0  0  0  0  0  0  0
  142.9679  134.7526  155.9524 H   0  0  0  0  0  0  0  0  0  0  0  0
  143.1159  133.4055  154.8452 H   0  0  0  0  0  0  0  0  0  0  0  0
  142.3022  132.5048  150.8454 H   0  0  0  0  0  0  0  0  0  0  0  0
  143.4975  133.6633  150.2949 H   0  0  0  0  0  0  0  0  0  0  0  0
  144.2624  131.3484  149.8372 H   0  0  0  0  0  0  0  0  0  0  0  0
  144.0377  130.9041  151.5127 H   0  0  0  0  0  0  0  0  0  0  0  0
  143.1881  132.7004  153.0383 H   0  0  0  0  0  0  0  0  0  0  0  0
  1  2  1  0  0  0  0
  1 21  1  0  0  0  0
  1 22  1  0  0  0  0
  1 23  1  0  0  0  0
  2 20  1  0  0  0  0
  2  3  2  0  0  0  0
  3  4  1  0  0  0  0
  4  5  2  0  0  0  0
  5  6  1  0  0  0  0
  5 20  1  0  0  0  0
  6  7  1  0  0  0  0
  6 24  1  0  0  0  0
  7  8  2  0  0  0  0
  7  9  1  0  0  0  0
  9 10  1  0  0  0  0
  9 25  1  0  0  0  0
 10 19  1  0  0  0  0
 10 11  1  0  0  0  0
 10 26  1  0  0  0  0
 11 12  1  0  0  0  0
 11 27  1  0  0  0  0
 11 28  1  0  0  0  0
 12 13  1  0  0  0  0
 12 29  1  0  0  0  0
 12 30  1  0  0  0  0
 13 14  1  0  0  0  0
 13 18  1  0  0  0  0
 13 39  1  0  0  0  0
 14 15  1  0  0  0  0
 14 31  1  0  0  0  0
 14 32  1  0  0  0  0
 15 16  1  0  0  0  0
 15 17  2  0  0  0  0
 16 33  1  0  0  0  0
 16 34  1  0  0  0  0
 18 19  1  0  0  0  0
 18 35  1  0  0  0  0
 18 36  1  0  0  0  0
 19 37  1  0  0  0  0
 19 38  1  0  0  0  0
M  CHG  1  13   1
M  END
> <s_m_source_file>
AV-unprocessed.smi

> <i_m_source_file_index>
1385

> <i_lp_mmshare_version>
43012

> <i_f3d_flags>
0

> <s_epik_input>
W0NIM11jMW5uYyhzMSlbTkhdQyg9TylbTkhdW0NIXTJbQ0gyXVtDSDJdTihbQ0gyXVtDSDJdMilbQ0gyXUMoPU8pW05IMl0=

> <s_epik_cmdline>
J2VwaWtfcHl0aG9uJywgJy1waCcsICc3LjAnLCAnLXRuJywgJzgnLCAnLW1hJywgJzIwMCcsICctbWV0YWxfYmluZGluZycsICctaW1hZScsICc8aW5maWxlLm1hZT4nLCAnLW9tYWUnLCAnPG91dGZpbGUubWFlPic=

> <r_lp_tautomer_probability>
1

> <r_epik_Ionization_Penalty>
0.866317

> <r_epik_Ionization_Penalty_Charging>
0.862349

> <r_epik_Ionization_Penalty_Neutral>
0.00396799

> <r_epik_State_Penalty>
0.898939

> <r_epik_Charging_Adjusted_Penalty>
1.76129

> <i_epik_Tot_Q>
1

> <i_epik_Tot_abs_Q>
1

> <r_epik_Metal_State_Penalty>
1.25402

> <b_epik_Metal_Only>
0

> <s_lp_Force_Field>
OPLS_2005

> <r_lp_Energy>
10.5623

> <b_lp_Chiralities_Consistent>
1

> <s_lp_Variant>
AV-unprocessed.smi:1385-2

> <Gold.Version>
5.8.1

> <Gold.Id.Protein>
6NUR|6NUR_protein|mol2

> <Gold.PLP.Fitness>
47.6215

> <Gold.PLP.PLP>
-34.1911

> <Gold.PLP.part.hbond>
-5.7993

> <Gold.PLP.part.metal>
0.0000

> <Gold.PLP.part.buried>
-4.8395

> <Gold.PLP.part.nonpolar>
-24.6122

> <Gold.PLP.part.repulsive>
0.3879

> <Gold.PLP.ligand.clash>
0.0000

> <Gold.PLP.ligand.torsion>
0.6140

> <Gold.PLP.Chemscore.Hbond>
4.8800

> <Gold.PLP.Chemscore.CHOScore>
0.0000

> <Gold.PLP.Chemscore.Metal>
0.0000

> <Gold.Chemscore.Hbonds>
donor molecule, donor type, donor heavy atom, donor atom, acceptor molecule, acceptor atom, score
      L1  H     6    24       P1 10747  0.91
      L1  H     9    25       P1 10747  0.98
      L1  H    13    39       P1 10957  2.00
      L1  H    16    34       P1 10957  0.99

> <Gold.PLP.Chemscore.Internal.Correction>
0.0184

> <Gold.Rescore>
     Score         DG    S(hbond)    S(metal)    S(lipo)     H(rot)  DE(clash)    DE(int)     intcor
     14.88     -18.08       3.67        0.00      48.16       2.07       0.30       2.91       ----

> <Gold.Chemscore.Fitness>
14.8755

> <Gold.Chemscore.DG>
-18.0802

> <Gold.Chemscore.ZeroCoef>
-5.4800

> <Gold.Chemscore.Hbond>
3.6681

> <Gold.Chemscore.Metal>
0.0000

> <Gold.Chemscore.Lipo>
48.1637

> <Gold.Chemscore.Internal_Hbond>
0.0000

> <Gold.Chemscore.DEClash>
0.2987

> <Gold.Chemscore.DEInternal>
2.9061

> <Gold.Chemscore.Rot>
2.0650

> <Gold.Chemscore.Internal.Correction>
   9.000000E+99

> <Gold.Chemscore.Hbonds>
donor molecule, donor type, donor heavy atom, donor atom, acceptor molecule, acceptor atom, score
      L1  H     6    24       P1 10747  0.22
      L1  H     9    25       P1 10747  0.87
      L1  H    13    39       P1 10957  0.24
      L1  H    16    34       P1 10957  0.93

> <Gold.Chemscore.Hbond.Weighted>
-12.2515

> <Gold.Chemscore.Metal.Weighted>
-0.0000

> <Gold.Chemscore.Lipo.Weighted>
-5.6351

> <Gold.Chemscore.Internal_Hbond.Weighted>
0.0000

> <Gold.Chemscore.DEClash.Weighted>
0.2987

> <Gold.Chemscore.DEInternal.Weighted>
2.9061

> <Gold.Chemscore.Rot.Weighted>
5.2864

> <Gold.Chemscore.Internal.Correction.Weighted>
   9.000000E+99

> <Gold.Protein.RotatedTorsions>
[ 6907 6896 6895 6894 ] final  144.18 input  -60.11 | X-H torsion
[ 7974 7965 7964 7962 ] final  109.00 input  175.53 | X-H torsion
[ 8008 7997 7996 7995 ] final   22.14 input   59.86 | X-H torsion
[ 10167 10162 10161 10158 ] final   -6.09 input  -65.29 | X-H torsion
[ 10718 10713 10712 10709 ] final  -59.28 input   66.30 | X-H torsion
[ 10763 10752 10751 10750 ] final -102.68 input  -60.55 | X-H torsion
[ 11005 11000 10999 10996 ] final  -45.93 input  -57.11 | X-H torsion

> <Gold.Protein.ActiveResidues>
 VAL166  LYS551  ARG553  GLY616  TRP617  ASP618  TYR619  PRO620  LYS621  CYS622 
 ASP623  PHE694  ASN695  SER759  ASP760  ASP761  ALA762  ILE779  LEU786  VAL792 
 PHE793  MET794  SER795  GLU796  ALA797  LYS798  CYS799  TRP800  GLU811  SER814 

> <Gold.Protein.RotatedAtoms>
  152.1970  133.4813  159.5037 H   0  0  0  0  0  0  0  0  0  0  0  0  # atno 6907 bound_to 6896
  150.6962  134.1640  159.4196 H   0  0  0  0  0  0  0  0  0  0  0  0  # atno 6908 bound_to 6896
  151.9556  135.0148  160.0595 H   0  0  0  0  0  0  0  0  0  0  0  0  # atno 6909 bound_to 6896
  145.2734  139.2658  143.3954 H   0  0  0  0  0  0  0  0  0  0  0  0  # atno 7974 bound_to 7965
  154.9612  140.3078  155.5030 H   0  0  0  0  0  0  0  0  0  0  0  0  # atno 8008 bound_to 7997
  156.2977  140.2301  156.4636 H   0  0  0  0  0  0  0  0  0  0  0  0  # atno 8009 bound_to 7997
  154.7963  140.0436  157.1228 H   0  0  0  0  0  0  0  0  0  0  0  0  # atno 8010 bound_to 7997
  140.6985  143.6233  150.8591 H   0  0  0  0  0  0  0  0  0  0  0  0  # atno 10167 bound_to 10162
  156.1073  130.4179  150.0693 H   0  0  0  0  0  0  0  0  0  0  0  0  # atno 10718 bound_to 10713
  154.7752  135.4851  153.9729 H   0  0  0  0  0  0  0  0  0  0  0  0  # atno 10763 bound_to 10752
  153.1419  135.6774  153.9021 H   0  0  0  0  0  0  0  0  0  0  0  0  # atno 10764 bound_to 10752
  153.8693  135.3145  155.3420 H   0  0  0  0  0  0  0  0  0  0  0  0  # atno 10765 bound_to 10752
  141.0547  133.6730  156.3083 H   0  0  0  0  0  0  0  0  0  0  0  0  # atno 11005 bound_to 11000
  146.3239  140.3183  142.8631 LP  0  0  0  0  0  0  0  0  0  0  0  0  # atno 17320 bound_to 7965
  144.9315  140.7980  143.5686 LP  0  0  0  0  0  0  0  0  0  0  0  0  # atno 17321 bound_to 7965
  139.9953  143.5802  152.2895 LP  0  0  0  0  0  0  0  0  0  0  0  0  # atno 17342 bound_to 10162
  139.6472  144.7659  151.2219 LP  0  0  0  0  0  0  0  0  0  0  0  0  # atno 17343 bound_to 10162
  156.8666  130.9510  151.3613 LP  0  0  0  0  0  0  0  0  0  0  0  0  # atno 17370 bound_to 10713
  157.6251  130.8685  149.9175 LP  0  0  0  0  0  0  0  0  0  0  0  0  # atno 17371 bound_to 10713
  140.5987  134.5576  157.5513 LP  0  0  0  0  0  0  0  0  0  0  0  0  # atno 17394 bound_to 11000
  139.9380  134.7840  156.0753 LP  0  0  0  0  0  0  0  0  0  0  0  0  # atno 17395 bound_to 11000

$$$$
