AV-unprocessed.smi:244|AV-procd|sdf|1872|dock3
  -GOLD-   2262020513D 1   1.00000     0.00000
 Structure written by MMmdl.
 56 60  0  0  0  0  0  0  0  0  1 V2000
  151.1808  144.7043  159.6027 C   0  0  0  0  0  0  0  0  0  0  0  0
  152.0475  143.6095  159.1898 N   0  0  0  0  0  0  0  0  0  0  0  0
  152.8608  143.1828  160.3304 C   0  0  0  0  0  0  0  0  0  0  0  0
  153.8095  142.0439  159.9173 C   0  0  0  0  0  0  0  0  0  0  0  0
  153.0035  140.8661  159.3619 C   0  0  2  0  0  0  0  0  0  0  0  0
  153.8768  139.8330  158.9217 O   0  0  0  0  0  0  0  0  0  0  0  0
  153.1463  138.6960  158.4748 C   0  0  0  0  0  0  0  0  0  0  0  0
  152.2563  139.0903  157.2848 C   0  0  0  0  0  0  0  0  0  0  0  0
  151.3941  140.2188  157.6285 N   0  0  0  0  0  0  0  0  0  0  0  0
  150.5135  140.4600  156.6269 C   0  0  0  0  0  0  0  0  0  0  0  0
  150.8031  140.0978  155.3485 N   0  0  0  0  0  0  0  0  0  0  0  0
  149.9167  140.3169  154.3723 C   0  0  0  0  0  0  0  0  0  0  0  0
  148.7018  140.8641  154.4549 N   0  0  0  0  0  0  0  0  0  0  0  0
  148.4040  141.2166  155.7386 C   0  0  0  0  0  0  0  0  0  0  0  0
  149.2449  141.0494  156.8738 C   0  0  0  0  0  0  0  0  0  0  0  0
  148.6074  141.5207  158.0143 N   0  0  0  0  0  0  0  0  0  0  0  0
  147.4521  141.9432  157.5779 C   0  0  0  0  0  0  0  0  0  0  0  0
  147.2482  141.8036  156.2232 N   0  0  0  0  0  0  0  0  0  0  0  0
  146.0586  142.1868  155.4786 C   0  0  0  0  0  0  0  0  0  0  0  0
  144.7819  141.4160  155.8952 C   0  0  0  0  0  0  0  0  0  0  0  0
  143.7322  141.8256  155.0349 O   0  0  0  0  0  0  0  0  0  0  0  0
  144.9453  139.8850  155.7738 C   0  0  0  0  0  0  0  0  0  0  0  0
  143.7521  139.1261  156.3810 C   0  0  0  0  0  0  0  0  0  0  0  0
  143.5558  139.5234  157.7327 O   0  0  0  0  0  0  0  0  0  0  0  0
  143.2271  140.9016  157.8588 C   0  0  0  0  0  0  0  0  0  0  0  0
  144.3890  141.7696  157.3439 C   0  0  0  0  0  0  0  0  0  0  0  0
  152.1367  141.3554  158.1840 C   0  0  1  0  0  0  0  0  0  0  0  0
  151.2277  142.5025  158.6910 C   0  0  0  0  0  0  0  0  0  0  0  0
  151.7721  145.5454  159.9660 H   0  0  0  0  0  0  0  0  0  0  0  0
  150.5008  144.3952  160.3982 H   0  0  0  0  0  0  0  0  0  0  0  0
  150.5840  145.0585  158.7618 H   0  0  0  0  0  0  0  0  0  0  0  0
  153.4449  144.0271  160.6988 H   0  0  0  0  0  0  0  0  0  0  0  0
  152.2168  142.8567  161.1487 H   0  0  0  0  0  0  0  0  0  0  0  0
  154.5164  142.4012  159.1673 H   0  0  0  0  0  0  0  0  0  0  0  0
  154.3998  141.7212  160.7752 H   0  0  0  0  0  0  0  0  0  0  0  0
  152.3657  140.4760  160.1583 H   0  0  0  0  0  0  0  0  0  0  0  0
  153.8482  137.9171  158.1768 H   0  0  0  0  0  0  0  0  0  0  0  0
  152.5466  138.2882  159.2903 H   0  0  0  0  0  0  0  0  0  0  0  0
  152.8805  139.3632  156.4326 H   0  0  0  0  0  0  0  0  0  0  0  0
  151.6574  138.2312  156.9795 H   0  0  0  0  0  0  0  0  0  0  0  0
  150.2242  140.0064  153.3847 H   0  0  0  0  0  0  0  0  0  0  0  0
  146.7120  142.3750  158.2358 H   0  0  0  0  0  0  0  0  0  0  0  0
  145.9078  143.2588  155.6113 H   0  0  0  0  0  0  0  0  0  0  0  0
  146.2605  142.0396  154.4166 H   0  0  0  0  0  0  0  0  0  0  0  0
  143.5956  141.1521  154.3860 H   0  0  0  0  0  0  0  0  0  0  0  0
  145.0765  139.5878  154.7327 H   0  0  0  0  0  0  0  0  0  0  0  0
  145.8523  139.5786  156.2964 H   0  0  0  0  0  0  0  0  0  0  0  0
  142.8421  139.2972  155.8038 H   0  0  0  0  0  0  0  0  0  0  0  0
  143.9428  138.0530  156.3557 H   0  0  0  0  0  0  0  0  0  0  0  0
  142.3034  141.1187  157.3202 H   0  0  0  0  0  0  0  0  0  0  0  0
  143.0373  141.1207  158.9096 H   0  0  0  0  0  0  0  0  0  0  0  0
  145.2484  141.6158  157.9978 H   0  0  0  0  0  0  0  0  0  0  0  0
  144.1303  142.8264  157.4242 H   0  0  0  0  0  0  0  0  0  0  0  0
  152.7950  141.7430  157.4042 H   0  0  0  0  0  0  0  0  0  0  0  0
  150.5603  142.1419  159.4759 H   0  0  0  0  0  0  0  0  0  0  0  0
  150.5970  142.8777  157.8853 H   0  0  0  0  0  0  0  0  0  0  0  0
  1  2  1  0  0  0  0
  1 29  1  0  0  0  0
  1 30  1  0  0  0  0
  1 31  1  0  0  0  0
  2 28  1  0  0  0  0
  2  3  1  0  0  0  0
  3  4  1  0  0  0  0
  3 32  1  0  0  0  0
  3 33  1  0  0  0  0
  4  5  1  0  0  0  0
  4 34  1  0  0  0  0
  4 35  1  0  0  0  0
  5 27  1  0  0  0  0
  5  6  1  0  0  0  0
  5 36  1  0  0  0  0
  6  7  1  0  0  0  0
  7  8  1  0  0  0  0
  7 37  1  0  0  0  0
  7 38  1  0  0  0  0
  8  9  1  0  0  0  0
  8 39  1  0  0  0  0
  8 40  1  0  0  0  0
  9 10  1  0  0  0  0
  9 27  1  0  0  0  0
 10 15  1  0  0  0  0
 10 11  2  0  0  0  0
 11 12  1  0  0  0  0
 12 13  2  0  0  0  0
 12 41  1  0  0  0  0
 13 14  1  0  0  0  0
 14 18  1  0  0  0  0
 14 15  2  0  0  0  0
 15 16  1  0  0  0  0
 16 17  2  0  0  0  0
 17 18  1  0  0  0  0
 17 42  1  0  0  0  0
 18 19  1  0  0  0  0
 19 20  1  0  0  0  0
 19 43  1  0  0  0  0
 19 44  1  0  0  0  0
 20 26  1  0  0  0  0
 20 21  1  0  0  0  0
 20 22  1  0  0  0  0
 21 45  1  0  0  0  0
 22 23  1  0  0  0  0
 22 46  1  0  0  0  0
 22 47  1  0  0  0  0
 23 24  1  0  0  0  0
 23 48  1  0  0  0  0
 23 49  1  0  0  0  0
 24 25  1  0  0  0  0
 25 26  1  0  0  0  0
 25 50  1  0  0  0  0
 25 51  1  0  0  0  0
 26 52  1  0  0  0  0
 26 53  1  0  0  0  0
 27 28  1  0  0  0  0
 27 54  1  0  0  0  0
 28 55  1  0  0  0  0
 28 56  1  0  0  0  0
M  END
> <s_m_source_file>
AV-unprocessed.smi

> <i_m_source_file_index>
244

> <i_lp_mmshare_version>
43012

> <i_f3d_flags>
0

> <s_epik_input>
W0NIMl0xW0NIMl1OKFtDSDNdKVtDSDJdW0NAQEhdKFtDQEhdMTIpTihbQ0gyXVtDSDJdTzIpYyhuW2NIXW4zKWMoYzM0KW5bY0hdbjRbQ0gyXUM1KFtPSF0pW0NIMl1bQ0gyXU9bQ0gyXVtDSDJdNQ==

> <s_epik_cmdline>
J2VwaWtfcHl0aG9uJywgJy1waCcsICc3LjAnLCAnLXRuJywgJzgnLCAnLW1hJywgJzIwMCcsICctbWV0YWxfYmluZGluZycsICctaW1hZScsICc8aW5maWxlLm1hZT4nLCAnLW9tYWUnLCAnPG91dGZpbGUubWFlPic=

> <r_lp_tautomer_probability>
1

> <r_epik_Ionization_Penalty>
2.27765

> <r_epik_Ionization_Penalty_Charging>
0

> <r_epik_Ionization_Penalty_Neutral>
2.27765

> <r_epik_State_Penalty>
2.4114

> <r_epik_Charging_Adjusted_Penalty>
2.4114

> <i_epik_Tot_Q>
0

> <i_epik_Tot_abs_Q>
0

> <r_epik_Metal_State_Penalty>
2.39769

> <b_epik_Metal_Only>
0

> <s_lp_Force_Field>
OPLS_2005

> <r_lp_Energy>
38.8348

> <b_lp_Chiralities_Consistent>
1

> <s_lp_Variant>
AV-unprocessed.smi:244-9

> <Gold.Version>
5.8.1

> <Gold.Id.Protein>
6NUR|6NUR_protein|mol2

> <Gold.PLP.Fitness>
42.9993

> <Gold.PLP.PLP>
-34.9821

> <Gold.PLP.part.hbond>
-3.4867

> <Gold.PLP.part.metal>
0.0000

> <Gold.PLP.part.buried>
-4.5649

> <Gold.PLP.part.nonpolar>
-27.5227

> <Gold.PLP.part.repulsive>
0.2574

> <Gold.PLP.ligand.clash>
0.0000

> <Gold.PLP.ligand.torsion>
0.5684

> <Gold.PLP.Chemscore.Hbond>
2.0000

> <Gold.PLP.Chemscore.CHOScore>
1.0000

> <Gold.PLP.Chemscore.Metal>
0.0000

> <Gold.Chemscore.Hbonds>
donor molecule, donor type, donor heavy atom, donor atom, acceptor molecule, acceptor atom, score
      L1  H    21    45       P1 10175  1.00
      P1  H  7997  8010       L1     6  0.85
      L1  C    12    41       P1  7957  1.00

> <Gold.PLP.Chemscore.Internal.Correction>
0.1539

> <Gold.Rescore>
     Score         DG    S(hbond)    S(metal)    S(lipo)     H(rot)  DE(clash)    DE(int)     intcor
     12.34     -14.19       1.32        0.00      81.79       2.06       0.15       1.70       ----

> <Gold.Chemscore.Fitness>
12.3357

> <Gold.Chemscore.DG>
-14.1933

> <Gold.Chemscore.ZeroCoef>
-5.4800

> <Gold.Chemscore.Hbond>
1.3234

> <Gold.Chemscore.Metal>
0.0000

> <Gold.Chemscore.Lipo>
81.7909

> <Gold.Chemscore.Internal_Hbond>
0.0000

> <Gold.Chemscore.DEClash>
0.1542

> <Gold.Chemscore.DEInternal>
1.7033

> <Gold.Chemscore.Rot>
2.0611

> <Gold.Chemscore.Internal.Correction>
   9.000000E+99

> <Gold.Chemscore.Hbonds>
donor molecule, donor type, donor heavy atom, donor atom, acceptor molecule, acceptor atom, score
      L1  H    21    45       P1 10175  0.56
      P1  H  7997  8010       L1     6  0.13

> <Gold.Chemscore.Hbond.Weighted>
-4.4203

> <Gold.Chemscore.Metal.Weighted>
-0.0000

> <Gold.Chemscore.Lipo.Weighted>
-9.5695

> <Gold.Chemscore.Internal_Hbond.Weighted>
0.0000

> <Gold.Chemscore.DEClash.Weighted>
0.1542

> <Gold.Chemscore.DEInternal.Weighted>
1.7033

> <Gold.Chemscore.Rot.Weighted>
5.2765

> <Gold.Chemscore.Internal.Correction.Weighted>
   9.000000E+99

> <Gold.Protein.RotatedTorsions>
[ 6907 6896 6895 6894 ] final  170.17 input  -60.11 | X-H torsion
[ 7974 7965 7964 7962 ] final   65.70 input  175.53 | X-H torsion
[ 8008 7997 7996 7995 ] final    2.88 input   59.86 | X-H torsion
[ 10167 10162 10161 10158 ] final  -67.04 input  -65.29 | X-H torsion
[ 10718 10713 10712 10709 ] final  -57.05 input   66.30 | X-H torsion
[ 10763 10752 10751 10750 ] final    7.50 input  -60.55 | X-H torsion
[ 11005 11000 10999 10996 ] final   44.08 input  -57.11 | X-H torsion

> <Gold.Protein.ActiveResidues>
 VAL166  LYS551  ARG553  GLY616  TRP617  ASP618  TYR619  PRO620  LYS621  CYS622 
 ASP623  PHE694  ASN695  SER759  ASP760  ASP761  ALA762  ILE779  LEU786  VAL792 
 PHE793  MET794  SER795  GLU796  ALA797  LYS798  CYS799  TRP800  GLU811  SER814 

> <Gold.Protein.RotatedAtoms>
  151.8203  133.3393  159.3581 H   0  0  0  0  0  0  0  0  0  0  0  0  # atno 6907 bound_to 6896
  150.7297  134.5580  159.5837 H   0  0  0  0  0  0  0  0  0  0  0  0  # atno 6908 bound_to 6896
  152.3011  134.7611  160.0409 H   0  0  0  0  0  0  0  0  0  0  0  0  # atno 6909 bound_to 6896
  145.8354  139.3164  143.0963 H   0  0  0  0  0  0  0  0  0  0  0  0  # atno 7974 bound_to 7965
  154.6969  140.2665  155.6758 H   0  0  0  0  0  0  0  0  0  0  0  0  # atno 8008 bound_to 7997
  156.2751  140.2780  156.1490 H   0  0  0  0  0  0  0  0  0  0  0  0  # atno 8009 bound_to 7997
  155.0819  140.0372  157.2632 H   0  0  0  0  0  0  0  0  0  0  0  0  # atno 8010 bound_to 7997
  140.5613  143.2313  151.6723 H   0  0  0  0  0  0  0  0  0  0  0  0  # atno 10167 bound_to 10162
  156.1241  130.4164  150.0388 H   0  0  0  0  0  0  0  0  0  0  0  0  # atno 10718 bound_to 10713
  153.2356  135.6897  153.7840 H   0  0  0  0  0  0  0  0  0  0  0  0  # atno 10763 bound_to 10752
  153.6988  135.3301  155.3221 H   0  0  0  0  0  0  0  0  0  0  0  0  # atno 10764 bound_to 10752
  154.8333  135.4563  154.1259 H   0  0  0  0  0  0  0  0  0  0  0  0  # atno 10765 bound_to 10752
  140.1585  134.4371  155.8333 H   0  0  0  0  0  0  0  0  0  0  0  0  # atno 11005 bound_to 11000
  145.9524  140.8898  143.0252 LP  0  0  0  0  0  0  0  0  0  0  0  0  # atno 17320 bound_to 7965
  144.6737  140.1699  143.7415 LP  0  0  0  0  0  0  0  0  0  0  0  0  # atno 17321 bound_to 7965
  139.5071  144.3657  152.0519 LP  0  0  0  0  0  0  0  0  0  0  0  0  # atno 17342 bound_to 10162
  140.2784  144.3887  150.6127 LP  0  0  0  0  0  0  0  0  0  0  0  0  # atno 17343 bound_to 10162
  156.8318  130.9395  151.3636 LP  0  0  0  0  0  0  0  0  0  0  0  0  # atno 17370 bound_to 10713
  157.6423  130.8816  149.9472 LP  0  0  0  0  0  0  0  0  0  0  0  0  # atno 17371 bound_to 10713
  141.2207  133.6903  156.7551 LP  0  0  0  0  0  0  0  0  0  0  0  0  # atno 17394 bound_to 11000
  140.2518  134.8535  157.3674 LP  0  0  0  0  0  0  0  0  0  0  0  0  # atno 17395 bound_to 11000

$$$$
