AV-unprocessed.smi:2521|AV-procd|sdf|9915|dock5
  -GOLD-   2272013553D 1   1.00000     0.00000
 Structure written by MMmdl.
 36 37  0  0  0  0  0  0  0  0  1 V2000
  152.0407  140.3894  156.7493 C   0  0  0  0  0  0  0  0  0  0  0  0
  151.0019  141.3978  156.2374 C   0  0  0  0  0  0  0  0  0  0  0  0
  150.3384  142.2036  157.3635 C   0  0  0  0  0  0  0  0  0  0  0  0
  149.9958  140.7597  155.3309 C   0  0  0  0  0  0  0  0  0  0  0  0
  148.9392  141.4181  154.8353 N   0  0  0  0  0  0  0  0  0  0  0  0
  148.1486  140.6155  154.0254 N   0  0  0  0  0  0  0  0  0  0  0  0
  148.6316  139.3691  153.9334 C   0  0  0  0  0  0  0  0  0  0  0  0
  148.0151  138.3375  153.1770 N   0  0  0  0  0  0  0  0  0  0  0  0
  146.7114  138.0144  153.1157 C   0  0  0  0  0  0  0  0  0  0  0  0
  145.8036  138.6042  153.7022 O   0  0  0  0  0  0  0  0  0  0  0  0
  146.5127  136.9507  152.3235 N   0  0  0  0  0  0  0  0  0  0  0  0
  145.2202  136.3330  152.0421 C   0  0  0  0  0  0  0  0  0  0  0  0
  145.3279  135.2387  150.9630 C   0  0  2  0  0  0  0  0  0  0  0  0
  144.0872  134.3782  150.8384 C   0  0  0  0  0  0  0  0  0  0  0  0
  144.6176  133.1576  150.0913 C   0  0  0  0  0  0  0  0  0  0  0  0
  145.9864  133.0324  150.4661 O   0  0  0  0  0  0  0  0  0  0  0  0
  146.3920  134.1700  151.2206 C   0  0  0  0  0  0  0  0  0  0  0  0
  150.1071  139.0736  154.8363 S   0  0  0  0  0  0  0  0  0  0  0  0
  152.5509  139.8975  155.9206 H   0  0  0  0  0  0  0  0  0  0  0  0
  151.5752  139.6158  157.3607 H   0  0  0  0  0  0  0  0  0  0  0  0
  152.7992  140.8819  157.3582 H   0  0  0  0  0  0  0  0  0  0  0  0
  151.5497  142.1183  155.6288 H   0  0  0  0  0  0  0  0  0  0  0  0
  149.6709  142.9656  156.9601 H   0  0  0  0  0  0  0  0  0  0  0  0
  151.0845  142.7093  157.9768 H   0  0  0  0  0  0  0  0  0  0  0  0
  149.7513  141.5598  158.0193 H   0  0  0  0  0  0  0  0  0  0  0  0
  148.6432  137.7711  152.6263 H   0  0  0  0  0  0  0  0  0  0  0  0
  147.3184  136.5319  151.8825 H   0  0  0  0  0  0  0  0  0  0  0  0
  144.7725  135.9340  152.9540 H   0  0  0  0  0  0  0  0  0  0  0  0
  144.5496  137.1193  151.6945 H   0  0  0  0  0  0  0  0  0  0  0  0
  145.5236  135.7021  149.9943 H   0  0  0  0  0  0  0  0  0  0  0  0
  143.7272  134.0836  151.8253 H   0  0  0  0  0  0  0  0  0  0  0  0
  143.2714  134.8747  150.3121 H   0  0  0  0  0  0  0  0  0  0  0  0
  144.0561  132.2527  150.3243 H   0  0  0  0  0  0  0  0  0  0  0  0
  144.5681  133.3190  149.0139 H   0  0  0  0  0  0  0  0  0  0  0  0
  147.3928  134.4975  150.9377 H   0  0  0  0  0  0  0  0  0  0  0  0
  146.4126  133.8924  152.2754 H   0  0  0  0  0  0  0  0  0  0  0  0
  1  2  1  0  0  0  0
  1 19  1  0  0  0  0
  1 20  1  0  0  0  0
  1 21  1  0  0  0  0
  2  3  1  0  0  0  0
  2  4  1  0  0  0  0
  2 22  1  0  0  0  0
  3 23  1  0  0  0  0
  3 24  1  0  0  0  0
  3 25  1  0  0  0  0
  4 18  1  0  0  0  0
  4  5  2  0  0  0  0
  5  6  1  0  0  0  0
  6  7  2  0  0  0  0
  7  8  1  0  0  0  0
  7 18  1  0  0  0  0
  8  9  1  0  0  0  0
  8 26  1  0  0  0  0
  9 10  2  0  0  0  0
  9 11  1  0  0  0  0
 11 12  1  0  0  0  0
 11 27  1  0  0  0  0
 12 13  1  0  0  0  0
 12 28  1  0  0  0  0
 12 29  1  0  0  0  0
 13 17  1  0  0  0  0
 13 14  1  0  0  0  0
 13 30  1  0  0  0  0
 14 15  1  0  0  0  0
 14 31  1  0  0  0  0
 14 32  1  0  0  0  0
 15 16  1  0  0  0  0
 15 33  1  0  0  0  0
 15 34  1  0  0  0  0
 16 17  1  0  0  0  0
 17 35  1  0  0  0  0
 17 36  1  0  0  0  0
M  END
> <s_m_source_file>
AV-unprocessed.smi

> <i_m_source_file_index>
2521

> <i_lp_mmshare_version>
43012

> <i_f3d_flags>
0

> <s_epik_input>
W0NIM11bQ0hdKFtDSDNdKWMxbm5jKHMxKVtOSF1DKD1PKVtOSF1bQ0gyXVtDQEBIXTJbQ0gyXVtDSDJdT1tDSDJdMg==

> <s_epik_cmdline>
J2VwaWtfcHl0aG9uJywgJy1waCcsICc3LjAnLCAnLXRuJywgJzgnLCAnLW1hJywgJzIwMCcsICctbWV0YWxfYmluZGluZycsICctaW1hZScsICc8aW5maWxlLm1hZT4nLCAnLW9tYWUnLCAnPG91dGZpbGUubWFlPic=

> <r_lp_tautomer_probability>
1

> <r_epik_Ionization_Penalty>
0.000452582

> <r_epik_Ionization_Penalty_Charging>
0

> <r_epik_Ionization_Penalty_Neutral>
0.000452582

> <r_epik_State_Penalty>
-0

> <r_epik_Charging_Adjusted_Penalty>
0

> <i_epik_Tot_Q>
0

> <i_epik_Tot_abs_Q>
0

> <r_epik_Metal_State_Penalty>
0.207746

> <b_epik_Metal_Only>
0

> <s_lp_Force_Field>
OPLS_2005

> <r_lp_Energy>
11.692

> <b_lp_Chiralities_Consistent>
1

> <s_lp_Variant>
AV-unprocessed.smi:2521-1

> <Gold.Version>
5.8.1

> <Gold.Id.Protein>
6NUR|6NUR_protein|mol2

> <Gold.PLP.Fitness>
32.9792

> <Gold.PLP.PLP>
-28.1432

> <Gold.PLP.part.hbond>
-3.0000

> <Gold.PLP.part.metal>
0.0000

> <Gold.PLP.part.buried>
-3.0472

> <Gold.PLP.part.nonpolar>
-23.7049

> <Gold.PLP.part.repulsive>
1.4623

> <Gold.PLP.ligand.clash>
0.0000

> <Gold.PLP.ligand.torsion>
0.6109

> <Gold.PLP.Chemscore.Hbond>
1.9920

> <Gold.PLP.Chemscore.CHOScore>
0.0000

> <Gold.PLP.Chemscore.Metal>
0.0000

> <Gold.Chemscore.Hbonds>
donor molecule, donor type, donor heavy atom, donor atom, acceptor molecule, acceptor atom, score
      L1  H     8    26       P1  7948  0.98
      L1  H    11    27       P1  7948  1.00

> <Gold.PLP.Chemscore.Internal.Correction>
0.0818

> <Gold.Rescore>
     Score         DG    S(hbond)    S(metal)    S(lipo)     H(rot)  DE(clash)    DE(int)     intcor
     14.76     -15.28       1.95        0.00      59.75       1.45       0.05       0.47       ----

> <Gold.Chemscore.Fitness>
14.7579

> <Gold.Chemscore.DG>
-15.2800

> <Gold.Chemscore.ZeroCoef>
-5.4800

> <Gold.Chemscore.Hbond>
1.9495

> <Gold.Chemscore.Metal>
0.0000

> <Gold.Chemscore.Lipo>
59.7490

> <Gold.Chemscore.Internal_Hbond>
0.0000

> <Gold.Chemscore.DEClash>
0.0480

> <Gold.Chemscore.DEInternal>
0.4742

> <Gold.Chemscore.Rot>
1.4461

> <Gold.Chemscore.Internal.Correction>
   9.000000E+99

> <Gold.Chemscore.Hbonds>
donor molecule, donor type, donor heavy atom, donor atom, acceptor molecule, acceptor atom, score
      L1  H     8    26       P1  7948  0.93
      L1  H    11    27       P1  7948  0.96

> <Gold.Chemscore.Hbond.Weighted>
-6.5113

> <Gold.Chemscore.Metal.Weighted>
-0.0000

> <Gold.Chemscore.Lipo.Weighted>
-6.9906

> <Gold.Chemscore.Internal_Hbond.Weighted>
0.0000

> <Gold.Chemscore.DEClash.Weighted>
0.0480

> <Gold.Chemscore.DEInternal.Weighted>
0.4742

> <Gold.Chemscore.Rot.Weighted>
3.7019

> <Gold.Chemscore.Internal.Correction.Weighted>
   9.000000E+99

> <Gold.Protein.RotatedTorsions>
[ 6907 6896 6895 6894 ] final   56.50 input  -60.11 | X-H torsion
[ 7974 7965 7964 7962 ] final  136.47 input  175.53 | X-H torsion
[ 8008 7997 7996 7995 ] final   32.86 input   59.86 | X-H torsion
[ 10167 10162 10161 10158 ] final   79.48 input  -65.29 | X-H torsion
[ 10718 10713 10712 10709 ] final -132.42 input   66.30 | X-H torsion
[ 10763 10752 10751 10750 ] final   44.36 input  -60.55 | X-H torsion
[ 11005 11000 10999 10996 ] final  151.30 input  -57.11 | X-H torsion

> <Gold.Protein.ActiveResidues>
 VAL166  LYS551  ARG553  GLY616  TRP617  ASP618  TYR619  PRO620  LYS621  CYS622 
 ASP623  PHE694  ASN695  SER759  ASP760  ASP761  ALA762  ILE779  LEU786  VAL792 
 PHE793  MET794  SER795  GLU796  ALA797  LYS798  CYS799  TRP800  GLU811  SER814 

> <Gold.Protein.RotatedAtoms>
  152.3642  134.6828  160.0197 H   0  0  0  0  0  0  0  0  0  0  0  0  # atno 6907 bound_to 6896
  151.7142  133.3307  159.3306 H   0  0  0  0  0  0  0  0  0  0  0  0  # atno 6908 bound_to 6896
  150.7626  134.6440  159.6297 H   0  0  0  0  0  0  0  0  0  0  0  0  # atno 6909 bound_to 6896
  144.9562  139.4762  143.5502 H   0  0  0  0  0  0  0  0  0  0  0  0  # atno 7974 bound_to 7965
  155.1292  140.3255  155.4478 H   0  0  0  0  0  0  0  0  0  0  0  0  # atno 8008 bound_to 7997
  156.2639  140.2013  156.6361 H   0  0  0  0  0  0  0  0  0  0  0  0  # atno 8009 bound_to 7997
  154.6625  140.0545  157.0064 H   0  0  0  0  0  0  0  0  0  0  0  0  # atno 8010 bound_to 7997
  139.9599  144.5968  150.8082 H   0  0  0  0  0  0  0  0  0  0  0  0  # atno 10167 bound_to 10162
  156.2343  130.7057  151.0891 H   0  0  0  0  0  0  0  0  0  0  0  0  # atno 10718 bound_to 10713
  152.9842  135.6073  154.3262 H   0  0  0  0  0  0  0  0  0  0  0  0  # atno 10763 bound_to 10752
  154.2968  135.2773  155.2631 H   0  0  0  0  0  0  0  0  0  0  0  0  # atno 10764 bound_to 10752
  154.4901  135.5894  153.6509 H   0  0  0  0  0  0  0  0  0  0  0  0  # atno 10765 bound_to 10752
  140.1207  134.8865  157.2068 H   0  0  0  0  0  0  0  0  0  0  0  0  # atno 11005 bound_to 11000
  146.3338  139.8681  142.8845 LP  0  0  0  0  0  0  0  0  0  0  0  0  # atno 17320 bound_to 7965
  145.2769  141.0126  143.3740 LP  0  0  0  0  0  0  0  0  0  0  0  0  # atno 17321 bound_to 7965
  140.7556  143.3050  151.2984 LP  0  0  0  0  0  0  0  0  0  0  0  0  # atno 17342 bound_to 10162
  139.6562  144.0271  152.2661 LP  0  0  0  0  0  0  0  0  0  0  0  0  # atno 17343 bound_to 10162
  157.7147  131.0716  150.6370 LP  0  0  0  0  0  0  0  0  0  0  0  0  # atno 17370 bound_to 10713
  156.6439  130.4466  149.5742 LP  0  0  0  0  0  0  0  0  0  0  0  0  # atno 17371 bound_to 10713
  140.2969  134.3176  155.7300 LP  0  0  0  0  0  0  0  0  0  0  0  0  # atno 17394 bound_to 11000
  141.2151  133.7568  156.9584 LP  0  0  0  0  0  0  0  0  0  0  0  0  # atno 17395 bound_to 11000

$$$$
