AV-unprocessed.smi:1239|AV-procd|sdf|5191|dock2
  -GOLD-   22720 4273D 1   1.00000     0.00000
 Structure written by MMmdl.
 48 49  0  0  0  0  0  0  0  0  2 V2000
  146.6649  138.5350  152.3856 C   0  0  0  0  0  0  0  0  0  0  0  0
  146.3166  137.3723  153.3464 C   0  0  2  0  0  0  0  0  0  0  0  0
  147.3483  137.2898  154.5071 C   0  0  0  0  0  0  0  0  0  0  0  0
  148.0172  138.5596  154.7837 N   0  0  0  0  0  0  0  0  0  0  0  0
  148.8004  138.8114  155.8431 C   0  0  0  0  0  0  0  0  0  0  0  0
  149.0780  137.9677  156.6947 O   0  0  0  0  0  0  0  0  0  0  0  0
  149.2429  140.0803  155.8256 N   0  0  0  0  0  0  0  0  0  0  0  0
  150.0734  140.7535  156.7632 C   0  0  0  0  0  0  0  0  0  0  0  0
  150.5170  140.0269  157.8845 C   0  0  0  0  0  0  0  0  0  0  0  0
  151.3543  140.6513  158.8278 C   0  0  0  0  0  0  0  0  0  0  0  0
  151.7393  141.9995  158.6252 C   0  0  0  0  0  0  0  0  0  0  0  0
  152.5794  142.6728  159.5416 N   0  0  0  0  0  0  0  0  0  0  0  0
  153.2291  141.9267  160.6145 C   0  0  0  0  0  0  0  0  0  0  0  0
  152.8360  144.0998  159.3905 C   0  0  0  0  0  0  0  0  0  0  0  0
  151.3187  142.6938  157.5397 N   0  0  0  0  0  0  0  0  0  0  0  0
  150.5152  142.0919  156.6375 C   0  0  0  0  0  0  0  0  0  0  0  0
  146.1848  136.0761  152.5980 N   0  3  0  0  0  0  0  0  0  0  0  0
  146.0687  134.8680  153.4635 C   0  0  0  0  0  0  0  0  0  0  0  0
  145.9419  133.5823  152.6283 C   0  0  0  0  0  0  0  0  0  0  0  0
  144.8320  133.6832  151.7504 O   0  0  0  0  0  0  0  0  0  0  0  0
  144.9997  134.7528  150.8343 C   0  0  0  0  0  0  0  0  0  0  0  0
  145.0750  136.0820  151.6031 C   0  0  0  0  0  0  0  0  0  0  0  0
  146.7637  139.4830  152.9128 H   0  0  0  0  0  0  0  0  0  0  0  0
  145.8947  138.7116  151.6378 H   0  0  0  0  0  0  0  0  0  0  0  0
  147.6048  138.3494  151.8648 H   0  0  0  0  0  0  0  0  0  0  0  0
  145.3458  137.5896  153.7952 H   0  0  0  0  0  0  0  0  0  0  0  0
  146.8531  137.0332  155.4428 H   0  0  0  0  0  0  0  0  0  0  0  0
  148.0738  136.4976  154.3130 H   0  0  0  0  0  0  0  0  0  0  0  0
  147.8519  139.3106  154.1293 H   0  0  0  0  0  0  0  0  0  0  0  0
  148.9745  140.6292  155.0220 H   0  0  0  0  0  0  0  0  0  0  0  0
  150.2188  138.9984  158.0259 H   0  0  0  0  0  0  0  0  0  0  0  0
  151.6844  140.0832  159.6842 H   0  0  0  0  0  0  0  0  0  0  0  0
  153.8840  141.1578  160.2033 H   0  0  0  0  0  0  0  0  0  0  0  0
  152.4858  141.4457  161.2510 H   0  0  0  0  0  0  0  0  0  0  0  0
  153.8342  142.5793  161.2438 H   0  0  0  0  0  0  0  0  0  0  0  0
  151.9065  144.6661  159.4565 H   0  0  0  0  0  0  0  0  0  0  0  0
  153.3038  144.3047  158.4270 H   0  0  0  0  0  0  0  0  0  0  0  0
  153.5042  144.4677  160.1689 H   0  0  0  0  0  0  0  0  0  0  0  0
  150.2484  142.7121  155.7972 H   0  0  0  0  0  0  0  0  0  0  0  0
  146.9505  134.7499  154.0914 H   0  0  0  0  0  0  0  0  0  0  0  0
  145.2060  134.9731  154.1234 H   0  0  0  0  0  0  0  0  0  0  0  0
  146.8555  133.3936  152.0619 H   0  0  0  0  0  0  0  0  0  0  0  0
  145.7937  132.7242  153.2842 H   0  0  0  0  0  0  0  0  0  0  0  0
  145.8949  134.5987  150.2295 H   0  0  0  0  0  0  0  0  0  0  0  0
  144.1523  134.7649  150.1486 H   0  0  0  0  0  0  0  0  0  0  0  0
  144.1284  136.2691  152.1122 H   0  0  0  0  0  0  0  0  0  0  0  0
  145.2052  136.8732  150.8683 H   0  0  0  0  0  0  0  0  0  0  0  0
  147.0419  135.9622  152.0753 H   0  0  0  0  0  0  0  0  0  0  0  0
  1  2  1  0  0  0  0
  1 23  1  0  0  0  0
  1 24  1  0  0  0  0
  1 25  1  0  0  0  0
  2  3  1  0  0  0  0
  2 17  1  0  0  0  0
  2 26  1  0  0  0  0
  3  4  1  0  0  0  0
  3 27  1  0  0  0  0
  3 28  1  0  0  0  0
  4  5  1  0  0  0  0
  4 29  1  0  0  0  0
  5  6  2  0  0  0  0
  5  7  1  0  0  0  0
  7  8  1  0  0  0  0
  7 30  1  0  0  0  0
  8 16  1  0  0  0  0
  8  9  2  0  0  0  0
  9 10  1  0  0  0  0
  9 31  1  0  0  0  0
 10 11  2  0  0  0  0
 10 32  1  0  0  0  0
 11 12  1  0  0  0  0
 11 15  1  0  0  0  0
 12 13  1  0  0  0  0
 12 14  1  0  0  0  0
 13 33  1  0  0  0  0
 13 34  1  0  0  0  0
 13 35  1  0  0  0  0
 14 36  1  0  0  0  0
 14 37  1  0  0  0  0
 14 38  1  0  0  0  0
 15 16  2  0  0  0  0
 16 39  1  0  0  0  0
 17 22  1  0  0  0  0
 17 18  1  0  0  0  0
 17 48  1  0  0  0  0
 18 19  1  0  0  0  0
 18 40  1  0  0  0  0
 18 41  1  0  0  0  0
 19 20  1  0  0  0  0
 19 42  1  0  0  0  0
 19 43  1  0  0  0  0
 20 21  1  0  0  0  0
 21 22  1  0  0  0  0
 21 44  1  0  0  0  0
 21 45  1  0  0  0  0
 22 46  1  0  0  0  0
 22 47  1  0  0  0  0
M  CHG  1  17   1
M  END
> <s_m_source_file>
AV-unprocessed.smi

> <i_m_source_file_index>
1239

> <i_lp_mmshare_version>
43012

> <i_f3d_flags>
0

> <s_epik_input>
W0NIMl0xW0NIMl1PW0NIMl1bQ0gyXU4xW0NASF0oW0NIM10pW0NIMl1bTkhdQyg9TylbTkhdYzJbY0hdW2NIXWMoTihbQ0gzXSlbQ0gzXSluW2NIXTI=

> <s_epik_cmdline>
J2VwaWtfcHl0aG9uJywgJy1waCcsICc3LjAnLCAnLXRuJywgJzgnLCAnLW1hJywgJzIwMCcsICctbWV0YWxfYmluZGluZycsICctaW1hZScsICc8aW5maWxlLm1hZT4nLCAnLW9tYWUnLCAnPG91dGZpbGUubWFlPic=

> <r_epik_Ionization_Penalty>
1.1428

> <r_epik_Ionization_Penalty_Charging>
0.602531

> <r_epik_Ionization_Penalty_Neutral>
0.540271

> <r_epik_State_Penalty>
1.1888

> <r_epik_Charging_Adjusted_Penalty>
1.79133

> <i_epik_Tot_Q>
1

> <i_epik_Tot_abs_Q>
1

> <r_epik_Metal_State_Penalty>
0.936295

> <b_epik_Metal_Only>
0

> <s_lp_Force_Field>
OPLS_2005

> <r_lp_Energy>
25.054

> <b_lp_Chiralities_Consistent>
1

> <s_lp_Variant>
AV-unprocessed.smi:1239-7

> <Gold.Version>
5.8.1

> <Gold.Id.Protein>
6NUR|6NUR_protein|mol2

> <Gold.PLP.Fitness>
40.7305

> <Gold.PLP.PLP>
-32.8488

> <Gold.PLP.part.hbond>
-1.0000

> <Gold.PLP.part.metal>
0.0000

> <Gold.PLP.part.buried>
-3.8622

> <Gold.PLP.part.nonpolar>
-29.2915

> <Gold.PLP.part.repulsive>
0.2364

> <Gold.PLP.ligand.clash>
0.0000

> <Gold.PLP.ligand.torsion>
0.5959

> <Gold.PLP.Chemscore.Hbond>
2.0000

> <Gold.PLP.Chemscore.CHOScore>
1.0000

> <Gold.PLP.Chemscore.Metal>
0.0000

> <Gold.Chemscore.Hbonds>
donor molecule, donor type, donor heavy atom, donor atom, acceptor molecule, acceptor atom, score
      L1  H    17    48       P1  7948  2.00
      L1  C    16    39       P1  8028  1.00

> <Gold.PLP.Chemscore.Internal.Correction>
0.0734

> <Gold.Rescore>
     Score         DG    S(hbond)    S(metal)    S(lipo)     H(rot)  DE(clash)    DE(int)     intcor
     12.03     -14.00       0.98        0.00      77.21       1.48       0.05       1.93       ----

> <Gold.Chemscore.Fitness>
12.0250

> <Gold.Chemscore.DG>
-14.0044

> <Gold.Chemscore.ZeroCoef>
-5.4800

> <Gold.Chemscore.Hbond>
0.9843

> <Gold.Chemscore.Metal>
0.0000

> <Gold.Chemscore.Lipo>
77.2070

> <Gold.Chemscore.Internal_Hbond>
0.0000

> <Gold.Chemscore.DEClash>
0.0532

> <Gold.Chemscore.DEInternal>
1.9261

> <Gold.Chemscore.Rot>
1.4830

> <Gold.Chemscore.Internal.Correction>
   9.000000E+99

> <Gold.Chemscore.Hbonds>
donor molecule, donor type, donor heavy atom, donor atom, acceptor molecule, acceptor atom, score
      L1  H    17    48       P1  7948  0.97

> <Gold.Chemscore.Hbond.Weighted>
-3.2875

> <Gold.Chemscore.Metal.Weighted>
-0.0000

> <Gold.Chemscore.Lipo.Weighted>
-9.0332

> <Gold.Chemscore.Internal_Hbond.Weighted>
0.0000

> <Gold.Chemscore.DEClash.Weighted>
0.0532

> <Gold.Chemscore.DEInternal.Weighted>
1.9261

> <Gold.Chemscore.Rot.Weighted>
3.7964

> <Gold.Chemscore.Internal.Correction.Weighted>
   9.000000E+99

> <Gold.Protein.RotatedTorsions>
[ 6907 6896 6895 6894 ] final   42.75 input  -60.11 | X-H torsion
[ 7974 7965 7964 7962 ] final  -27.40 input  175.53 | X-H torsion
[ 8008 7997 7996 7995 ] final  -47.15 input   59.86 | X-H torsion
[ 10167 10162 10161 10158 ] final  124.43 input  -65.29 | X-H torsion
[ 10718 10713 10712 10709 ] final   19.00 input   66.30 | X-H torsion
[ 10763 10752 10751 10750 ] final -131.04 input  -60.55 | X-H torsion
[ 11005 11000 10999 10996 ] final  169.51 input  -57.11 | X-H torsion

> <Gold.Protein.ActiveResidues>
 VAL166  LYS551  ARG553  GLY616  TRP617  ASP618  TYR619  PRO620  LYS621  CYS622 
 ASP623  PHE694  ASN695  SER759  ASP760  ASP761  ALA762  ILE779  LEU786  VAL792 
 PHE793  MET794  SER795  GLU796  ALA797  LYS798  CYS799  TRP800  GLU811  SER814 

> <Gold.Protein.RotatedAtoms>
  152.2117  134.8495  160.0496 H   0  0  0  0  0  0  0  0  0  0  0  0  # atno 6907 bound_to 6896
  151.9311  133.3606  159.3939 H   0  0  0  0  0  0  0  0  0  0  0  0  # atno 6908 bound_to 6896
  150.6978  134.4461  159.5358 H   0  0  0  0  0  0  0  0  0  0  0  0  # atno 6909 bound_to 6896
  146.1360  140.5146  142.8672 H   0  0  0  0  0  0  0  0  0  0  0  0  # atno 7974 bound_to 7965
  154.4014  140.1353  156.4128 H   0  0  0  0  0  0  0  0  0  0  0  0  # atno 8008 bound_to 7997
  155.7717  140.3483  155.5230 H   0  0  0  0  0  0  0  0  0  0  0  0  # atno 8009 bound_to 7997
  155.8761  140.0979  157.1508 H   0  0  0  0  0  0  0  0  0  0  0  0  # atno 8010 bound_to 7997
  139.5742  144.6955  151.3697 H   0  0  0  0  0  0  0  0  0  0  0  0  # atno 10167 bound_to 10162
  157.1043  130.6481  149.5880 H   0  0  0  0  0  0  0  0  0  0  0  0  # atno 10718 bound_to 10713
  154.8753  135.3843  154.4181 H   0  0  0  0  0  0  0  0  0  0  0  0  # atno 10763 bound_to 10752
  153.4887  135.7030  153.5901 H   0  0  0  0  0  0  0  0  0  0  0  0  # atno 10764 bound_to 10752
  153.4284  135.3884  155.2122 H   0  0  0  0  0  0  0  0  0  0  0  0  # atno 10765 bound_to 10752
  140.2985  134.7615  157.3897 H   0  0  0  0  0  0  0  0  0  0  0  0  # atno 11005 bound_to 11000
  144.7741  140.5701  143.6650 LP  0  0  0  0  0  0  0  0  0  0  0  0  # atno 17320 bound_to 7965
  145.5154  139.1478  143.3582 LP  0  0  0  0  0  0  0  0  0  0  0  0  # atno 17321 bound_to 7965
  140.7026  143.7595  150.7427 LP  0  0  0  0  0  0  0  0  0  0  0  0  # atno 17342 bound_to 10162
  140.1110  143.4699  152.2370 LP  0  0  0  0  0  0  0  0  0  0  0  0  # atno 17343 bound_to 10162
  155.9866  130.4901  150.7085 LP  0  0  0  0  0  0  0  0  0  0  0  0  # atno 17370 bound_to 10713
  157.4614  131.0883  151.0742 LP  0  0  0  0  0  0  0  0  0  0  0  0  # atno 17371 bound_to 10713
  140.1130  134.5320  155.8249 LP  0  0  0  0  0  0  0  0  0  0  0  0  # atno 17394 bound_to 11000
  141.2132  133.6731  156.6725 LP  0  0  0  0  0  0  0  0  0  0  0  0  # atno 17395 bound_to 11000

$$$$
