AV-unprocessed.smi:2452|AV-procd|sdf|9686|dock4
  -GOLD-   2272013323D 1   1.00000     0.00000
 Structure written by MMmdl.
 34 35  0  0  0  0  0  0  0  0  1 V2000
  147.3059  141.3361  153.7910 C   0  0  0  0  0  0  0  0  0  0  0  0
  148.6119  140.6741  154.1244 C   0  0  0  0  0  0  0  0  0  0  0  0
  149.5912  141.3786  154.6675 N   0  0  0  0  0  0  0  0  0  0  0  0
  150.6639  140.4909  154.8428 O   0  0  0  0  0  0  0  0  0  0  0  0
  150.3026  139.2564  154.3986 C   0  0  0  0  0  0  0  0  0  0  0  0
  151.3572  138.2010  154.4617 C   0  0  0  0  0  0  0  0  0  0  0  0
  149.0063  139.3203  153.9610 C   0  0  0  0  0  0  0  0  0  0  0  0
  148.1942  138.3103  153.3842 N   0  0  0  0  0  0  0  0  0  0  0  0
  146.8797  138.1161  153.5720 C   0  0  0  0  0  0  0  0  0  0  0  0
  146.1525  138.8266  154.2654 O   0  0  0  0  0  0  0  0  0  0  0  0
  146.4411  137.0526  152.8854 N   0  0  0  0  0  0  0  0  0  0  0  0
  145.0637  136.5727  152.8766 C   0  0  0  0  0  0  0  0  0  0  0  0
  144.9765  135.1111  152.4068 C   0  0  1  0  0  0  0  0  0  0  0  0
  143.5666  134.5264  152.4632 C   0  0  0  0  0  0  0  0  0  0  0  0
  143.5872  133.4376  151.4003 C   0  0  0  0  0  0  0  0  0  0  0  0
  144.8607  133.7199  150.5977 C   0  0  0  0  0  0  0  0  0  0  0  0
  145.2917  135.0032  151.0277 O   0  0  0  0  0  0  0  0  0  0  0  0
  146.7701  140.7872  153.0165 H   0  0  0  0  0  0  0  0  0  0  0  0
  147.4577  142.3530  153.4275 H   0  0  0  0  0  0  0  0  0  0  0  0
  146.6604  141.3878  154.6680 H   0  0  0  0  0  0  0  0  0  0  0  0
  151.2939  137.5341  153.6019 H   0  0  0  0  0  0  0  0  0  0  0  0
  151.2536  137.6042  155.3678 H   0  0  0  0  0  0  0  0  0  0  0  0
  152.3529  138.6447  154.4650 H   0  0  0  0  0  0  0  0  0  0  0  0
  148.6438  137.7223  152.6979 H   0  0  0  0  0  0  0  0  0  0  0  0
  147.1081  136.5276  152.3393 H   0  0  0  0  0  0  0  0  0  0  0  0
  144.6314  136.6752  153.8733 H   0  0  0  0  0  0  0  0  0  0  0  0
  144.4792  137.2156  152.2177 H   0  0  0  0  0  0  0  0  0  0  0  0
  145.6573  134.4780  152.9794 H   0  0  0  0  0  0  0  0  0  0  0  0
  143.3095  134.1494  153.4536 H   0  0  0  0  0  0  0  0  0  0  0  0
  142.8311  135.2851  152.1914 H   0  0  0  0  0  0  0  0  0  0  0  0
  143.6243  132.4421  151.8444 H   0  0  0  0  0  0  0  0  0  0  0  0
  142.6966  133.4926  150.7733 H   0  0  0  0  0  0  0  0  0  0  0  0
  145.6327  132.9858  150.8331 H   0  0  0  0  0  0  0  0  0  0  0  0
  144.6913  133.7015  149.5207 H   0  0  0  0  0  0  0  0  0  0  0  0
  1  2  1  0  0  0  0
  1 18  1  0  0  0  0
  1 19  1  0  0  0  0
  1 20  1  0  0  0  0
  2  7  1  0  0  0  0
  2  3  2  0  0  0  0
  3  4  1  0  0  0  0
  4  5  1  0  0  0  0
  5  6  1  0  0  0  0
  5  7  2  0  0  0  0
  6 21  1  0  0  0  0
  6 22  1  0  0  0  0
  6 23  1  0  0  0  0
  7  8  1  0  0  0  0
  8  9  1  0  0  0  0
  8 24  1  0  0  0  0
  9 10  2  0  0  0  0
  9 11  1  0  0  0  0
 11 12  1  0  0  0  0
 11 25  1  0  0  0  0
 12 13  1  0  0  0  0
 12 26  1  0  0  0  0
 12 27  1  0  0  0  0
 13 17  1  0  0  0  0
 13 14  1  0  0  0  0
 13 28  1  0  0  0  0
 14 15  1  0  0  0  0
 14 29  1  0  0  0  0
 14 30  1  0  0  0  0
 15 16  1  0  0  0  0
 15 31  1  0  0  0  0
 15 32  1  0  0  0  0
 16 17  1  0  0  0  0
 16 33  1  0  0  0  0
 16 34  1  0  0  0  0
M  END
> <s_m_source_file>
AV-unprocessed.smi

> <i_m_source_file_index>
2452

> <i_lp_mmshare_version>
43012

> <i_f3d_flags>
0

> <s_epik_input>
W0NIM11jMW5vYyhbQ0gzXSljMVtOSF1DKD1PKVtOSF1bQ0gyXVtDQEBIXTJbQ0gyXVtDSDJdW0NIMl1PMg==

> <s_epik_cmdline>
J2VwaWtfcHl0aG9uJywgJy1waCcsICc3LjAnLCAnLXRuJywgJzgnLCAnLW1hJywgJzIwMCcsICctbWV0YWxfYmluZGluZycsICctaW1hZScsICc8aW5maWxlLm1hZT4nLCAnLW9tYWUnLCAnPG91dGZpbGUubWFlPic=

> <r_lp_tautomer_probability>
1

> <r_epik_Ionization_Penalty>
3.28451e-05

> <r_epik_Ionization_Penalty_Charging>
0

> <r_epik_Ionization_Penalty_Neutral>
3.28451e-05

> <r_epik_State_Penalty>
-0

> <r_epik_Charging_Adjusted_Penalty>
0

> <i_epik_Tot_Q>
0

> <i_epik_Tot_abs_Q>
0

> <r_epik_Metal_State_Penalty>
-0

> <b_epik_Metal_Only>
0

> <s_lp_Force_Field>
OPLS_2005

> <r_lp_Energy>
18.1661

> <b_lp_Chiralities_Consistent>
1

> <s_lp_Variant>
AV-unprocessed.smi:2452-2

> <Gold.Version>
5.8.1

> <Gold.Id.Protein>
6NUR|6NUR_protein|mol2

> <Gold.PLP.Fitness>
35.9902

> <Gold.PLP.PLP>
-28.2810

> <Gold.PLP.part.hbond>
-4.8934

> <Gold.PLP.part.metal>
0.0000

> <Gold.PLP.part.buried>
-2.2889

> <Gold.PLP.part.nonpolar>
-21.5023

> <Gold.PLP.part.repulsive>
0.6139

> <Gold.PLP.ligand.clash>
0.0000

> <Gold.PLP.ligand.torsion>
0.4559

> <Gold.PLP.Chemscore.Hbond>
2.8260

> <Gold.PLP.Chemscore.CHOScore>
0.0000

> <Gold.PLP.Chemscore.Metal>
0.0000

> <Gold.Chemscore.Hbonds>
donor molecule, donor type, donor heavy atom, donor atom, acceptor molecule, acceptor atom, score
      L1  H     8    24       P1  7948  1.00
      L1  H    11    25       P1  7948  0.98
      P1  H  7989  7998       L1     4  0.80

> <Gold.PLP.Chemscore.Internal.Correction>
0.1429

> <Gold.Rescore>
     Score         DG    S(hbond)    S(metal)    S(lipo)     H(rot)  DE(clash)    DE(int)     intcor
     15.09     -15.76       1.96        0.00      58.97       1.23       0.11       0.56       ----

> <Gold.Chemscore.Fitness>
15.0890

> <Gold.Chemscore.DG>
-15.7605

> <Gold.Chemscore.ZeroCoef>
-5.4800

> <Gold.Chemscore.Hbond>
1.9579

> <Gold.Chemscore.Metal>
0.0000

> <Gold.Chemscore.Lipo>
58.9681

> <Gold.Chemscore.Internal_Hbond>
0.0000

> <Gold.Chemscore.DEClash>
0.1139

> <Gold.Chemscore.DEInternal>
0.5576

> <Gold.Chemscore.Rot>
1.2337

> <Gold.Chemscore.Internal.Correction>
   9.000000E+99

> <Gold.Chemscore.Hbonds>
donor molecule, donor type, donor heavy atom, donor atom, acceptor molecule, acceptor atom, score
      L1  H     8    24       P1  7948  0.99
      L1  H    11    25       P1  7948  0.93
      P1  H  7989  7998       L1     4  0.03

> <Gold.Chemscore.Hbond.Weighted>
-6.5394

> <Gold.Chemscore.Metal.Weighted>
-0.0000

> <Gold.Chemscore.Lipo.Weighted>
-6.8993

> <Gold.Chemscore.Internal_Hbond.Weighted>
0.0000

> <Gold.Chemscore.DEClash.Weighted>
0.1139

> <Gold.Chemscore.DEInternal.Weighted>
0.5576

> <Gold.Chemscore.Rot.Weighted>
3.1582

> <Gold.Chemscore.Internal.Correction.Weighted>
   9.000000E+99

> <Gold.Protein.RotatedTorsions>
[ 6907 6896 6895 6894 ] final   -2.13 input  -60.11 | X-H torsion
[ 7974 7965 7964 7962 ] final  -64.89 input  175.53 | X-H torsion
[ 8008 7997 7996 7995 ] final   -4.29 input   59.86 | X-H torsion
[ 10167 10162 10161 10158 ] final  -95.88 input  -65.29 | X-H torsion
[ 10718 10713 10712 10709 ] final   70.61 input   66.30 | X-H torsion
[ 10763 10752 10751 10750 ] final  -43.50 input  -60.55 | X-H torsion
[ 11005 11000 10999 10996 ] final   74.91 input  -57.11 | X-H torsion

> <Gold.Protein.ActiveResidues>
 VAL166  LYS551  ARG553  GLY616  TRP617  ASP618  TYR619  PRO620  LYS621  CYS622 
 ASP623  PHE694  ASN695  SER759  ASP760  ASP761  ALA762  ILE779  LEU786  VAL792 
 PHE793  MET794  SER795  GLU796  ALA797  LYS798  CYS799  TRP800  GLU811  SER814 

> <Gold.Protein.RotatedAtoms>
  151.5349  135.1068  159.9911 H   0  0  0  0  0  0  0  0  0  0  0  0  # atno 6907 bound_to 6896
  152.4561  133.7723  159.6816 H   0  0  0  0  0  0  0  0  0  0  0  0  # atno 6908 bound_to 6896
  150.8506  133.7727  159.3052 H   0  0  0  0  0  0  0  0  0  0  0  0  # atno 6909 bound_to 6896
  145.7611  140.8861  143.0429 H   0  0  0  0  0  0  0  0  0  0  0  0  # atno 7974 bound_to 7965
  154.6159  140.2488  155.7610 H   0  0  0  0  0  0  0  0  0  0  0  0  # atno 8008 bound_to 7997
  156.2398  140.2937  156.0362 H   0  0  0  0  0  0  0  0  0  0  0  0  # atno 8009 bound_to 7997
  155.1976  140.0393  157.2902 H   0  0  0  0  0  0  0  0  0  0  0  0  # atno 8010 bound_to 7997
  140.2996  143.3170  152.0262 H   0  0  0  0  0  0  0  0  0  0  0  0  # atno 10167 bound_to 10162
  157.6409  130.9486  150.0674 H   0  0  0  0  0  0  0  0  0  0  0  0  # atno 10718 bound_to 10713
  153.9966  135.6698  153.4757 H   0  0  0  0  0  0  0  0  0  0  0  0  # atno 10763 bound_to 10752
  153.0681  135.4989  154.8240 H   0  0  0  0  0  0  0  0  0  0  0  0  # atno 10764 bound_to 10752
  154.7077  135.3091  154.9207 H   0  0  0  0  0  0  0  0  0  0  0  0  # atno 10765 bound_to 10752
  139.9368  134.7473  156.1205 H   0  0  0  0  0  0  0  0  0  0  0  0  # atno 11005 bound_to 11000
  144.6830  139.9724  143.7482 LP  0  0  0  0  0  0  0  0  0  0  0  0  # atno 17320 bound_to 7965
  146.0263  139.3295  143.0782 LP  0  0  0  0  0  0  0  0  0  0  0  0  # atno 17321 bound_to 7965
  139.4918  144.6465  151.6766 LP  0  0  0  0  0  0  0  0  0  0  0  0  # atno 17342 bound_to 10162
  140.5662  144.0185  150.6194 LP  0  0  0  0  0  0  0  0  0  0  0  0  # atno 17343 bound_to 10162
  156.1689  130.3646  149.9194 LP  0  0  0  0  0  0  0  0  0  0  0  0  # atno 17370 bound_to 10713
  156.7174  130.8993  151.3615 LP  0  0  0  0  0  0  0  0  0  0  0  0  # atno 17371 bound_to 10713
  141.0986  133.6686  156.2702 LP  0  0  0  0  0  0  0  0  0  0  0  0  # atno 17394 bound_to 11000
  140.6054  134.5513  157.5524 LP  0  0  0  0  0  0  0  0  0  0  0  0  # atno 17395 bound_to 11000

$$$$
