AV-unprocessed.smi:1830|AV-procd|sdf|7451|dock10
  -GOLD-   22720 9143D 1   1.00000     0.00000
 Structure written by MMmdl.
 54 57  0  0  0  0  0  0  0  0  3 V2000
  151.2823  135.1210  155.7920 O   0  0  0  0  0  0  0  0  0  0  0  0
  150.5903  135.4398  154.8259 C   0  0  0  0  0  0  0  0  0  0  0  0
  150.4628  136.7018  154.3932 N   0  0  0  0  0  0  0  0  0  0  0  0
  151.0649  137.8677  155.0329 C   0  0  0  0  0  0  0  0  0  0  0  0
  150.3864  139.1920  154.6339 C   0  0  1  0  0  0  0  0  0  0  0  0
  148.9533  138.9969  154.0773 C   0  0  0  0  0  0  0  0  0  0  0  0
  148.3477  140.3259  153.8738 N   0  3  1  0  0  0  0  0  0  0  0  0
  146.9767  140.3955  153.3395 C   0  0  0  0  0  0  0  0  0  0  0  0
  146.4438  141.7673  153.8001 C   0  0  0  0  0  0  0  0  0  0  0  0
  147.5150  142.3353  154.7491 C   0  0  0  0  0  0  0  0  0  0  0  0
  148.3401  141.1051  155.1138 C   0  0  2  0  0  0  0  0  0  0  0  0
  149.7859  141.3136  155.5799 C   0  0  0  0  0  0  0  0  0  0  0  0
  150.3546  140.0218  155.8003 O   0  0  0  0  0  0  0  0  0  0  0  0
  149.8557  134.5924  154.0854 N   0  0  0  0  0  0  0  0  0  0  0  0
  149.6649  133.1944  154.2813 C   0  0  0  0  0  0  0  0  0  0  0  0
  150.5802  132.4261  155.0463 C   0  0  0  0  0  0  0  0  0  0  0  0
  150.3526  131.0514  155.2440 C   0  0  0  0  0  0  0  0  0  0  0  0
  149.2140  130.4615  154.6700 C   0  0  0  0  0  0  0  0  0  0  0  0
  148.3734  131.2134  153.9304 N   0  3  0  0  0  0  0  0  0  0  0  0
  148.5453  132.5376  153.6906 C   0  0  0  0  0  0  0  0  0  0  0  0
  147.5849  133.1895  152.8831 N   0  0  0  0  0  0  0  0  0  0  0  0
  146.1904  133.2615  153.3052 C   0  0  0  0  0  0  0  0  0  0  0  0
  145.4211  133.6965  152.0609 C   0  0  0  0  0  0  0  0  0  0  0  0
  146.1944  133.0084  150.9402 C   0  0  0  0  0  0  0  0  0  0  0  0
  147.6450  133.0283  151.4338 C   0  0  0  0  0  0  0  0  0  0  0  0
  149.8742  136.8768  153.5918 H   0  0  0  0  0  0  0  0  0  0  0  0
  151.0020  137.7312  156.1130 H   0  0  0  0  0  0  0  0  0  0  0  0
  152.1288  137.9049  154.7922 H   0  0  0  0  0  0  0  0  0  0  0  0
  150.9977  139.6942  153.8819 H   0  0  0  0  0  0  0  0  0  0  0  0
  148.9739  138.4592  153.1287 H   0  0  0  0  0  0  0  0  0  0  0  0
  148.3458  138.4135  154.7710 H   0  0  0  0  0  0  0  0  0  0  0  0
  146.9720  140.2862  152.2548 H   0  0  0  0  0  0  0  0  0  0  0  0
  146.3694  139.5956  153.7658 H   0  0  0  0  0  0  0  0  0  0  0  0
  146.2764  142.4386  152.9572 H   0  0  0  0  0  0  0  0  0  0  0  0
  145.4912  141.6459  154.3168 H   0  0  0  0  0  0  0  0  0  0  0  0
  148.1337  143.0608  154.2191 H   0  0  0  0  0  0  0  0  0  0  0  0
  147.0880  142.8302  155.6219 H   0  0  0  0  0  0  0  0  0  0  0  0
  147.7978  140.5430  155.8775 H   0  0  0  0  0  0  0  0  0  0  0  0
  150.3701  141.8674  154.8432 H   0  0  0  0  0  0  0  0  0  0  0  0
  149.8111  141.8805  156.5106 H   0  0  0  0  0  0  0  0  0  0  0  0
  149.2690  135.0160  153.3819 H   0  0  0  0  0  0  0  0  0  0  0  0
  151.4614  132.8700  155.4840 H   0  0  0  0  0  0  0  0  0  0  0  0
  151.0410  130.4595  155.8296 H   0  0  0  0  0  0  0  0  0  0  0  0
  148.9555  129.4172  154.7712 H   0  0  0  0  0  0  0  0  0  0  0  0
  145.8380  132.2813  153.6284 H   0  0  0  0  0  0  0  0  0  0  0  0
  146.0582  133.9645  154.1283 H   0  0  0  0  0  0  0  0  0  0  0  0
  144.3684  133.4146  152.0913 H   0  0  0  0  0  0  0  0  0  0  0  0
  145.4801  134.7796  151.9434 H   0  0  0  0  0  0  0  0  0  0  0  0
  145.8537  131.9768  150.8414 H   0  0  0  0  0  0  0  0  0  0  0  0
  146.0689  133.4965  149.9734 H   0  0  0  0  0  0  0  0  0  0  0  0
  148.1706  133.8834  151.0080 H   0  0  0  0  0  0  0  0  0  0  0  0
  148.1753  132.1207  151.1416 H   0  0  0  0  0  0  0  0  0  0  0  0
  148.9345  140.8299  153.2242 H   0  0  0  0  0  0  0  0  0  0  0  0
  147.5610  130.7535  153.5190 H   0  0  0  0  0  0  0  0  0  0  0  0
  1  2  2  0  0  0  0
  2  3  1  0  0  0  0
  2 14  1  0  0  0  0
  3  4  1  0  0  0  0
  3 26  1  0  0  0  0
  4  5  1  0  0  0  0
  4 27  1  0  0  0  0
  4 28  1  0  0  0  0
  5 13  1  0  0  0  0
  5  6  1  0  0  0  0
  5 29  1  0  0  0  0
  6  7  1  0  0  0  0
  6 30  1  0  0  0  0
  6 31  1  0  0  0  0
  7 11  1  0  0  0  0
  7  8  1  0  0  0  0
  7 53  1  0  0  0  0
  8  9  1  0  0  0  0
  8 32  1  0  0  0  0
  8 33  1  0  0  0  0
  9 10  1  0  0  0  0
  9 34  1  0  0  0  0
  9 35  1  0  0  0  0
 10 11  1  0  0  0  0
 10 36  1  0  0  0  0
 10 37  1  0  0  0  0
 11 12  1  0  0  0  0
 11 38  1  0  0  0  0
 12 13  1  0  0  0  0
 12 39  1  0  0  0  0
 12 40  1  0  0  0  0
 14 15  1  0  0  0  0
 14 41  1  0  0  0  0
 15 20  1  0  0  0  0
 15 16  2  0  0  0  0
 16 17  1  0  0  0  0
 16 42  1  0  0  0  0
 17 18  2  0  0  0  0
 17 43  1  0  0  0  0
 18 19  1  0  0  0  0
 18 44  1  0  0  0  0
 19 20  2  0  0  0  0
 19 54  1  0  0  0  0
 20 21  1  0  0  0  0
 21 25  1  0  0  0  0
 21 22  1  0  0  0  0
 22 23  1  0  0  0  0
 22 45  1  0  0  0  0
 22 46  1  0  0  0  0
 23 24  1  0  0  0  0
 23 47  1  0  0  0  0
 23 48  1  0  0  0  0
 24 25  1  0  0  0  0
 24 49  1  0  0  0  0
 24 50  1  0  0  0  0
 25 51  1  0  0  0  0
 25 52  1  0  0  0  0
M  CHG  1   7   1
M  CHG  1  19   1
M  END
> <s_m_source_file>
AV-unprocessed.smi

> <i_m_source_file_index>
1830

> <i_lp_mmshare_version>
43012

> <i_f3d_flags>
0

> <s_epik_input>
W0NIMl0xW0NIMl1bQ0gyXVtDQEhdKE4xMilbQ0gyXU9bQ0BASF0oW0NIMl0yKVtDSDJdW05IXUMoPU8pW05IXWMzW2NIXVtjSF1bY0hdbmMzTjRbQ0gyXVtDSDJdW0NIMl1bQ0gyXTQ=

> <s_epik_cmdline>
J2VwaWtfcHl0aG9uJywgJy1waCcsICc3LjAnLCAnLXRuJywgJzgnLCAnLW1hJywgJzIwMCcsICctbWV0YWxfYmluZGluZycsICctaW1hZScsICc8aW5maWxlLm1hZT4nLCAnLW9tYWUnLCAnPG91dGZpbGUubWFlPic=

> <r_lp_tautomer_probability>
0.999994

> <r_epik_Ionization_Penalty>
1.29113

> <r_epik_Ionization_Penalty_Charging>
1.29111

> <r_epik_Ionization_Penalty_Neutral>
1.88144e-05

> <r_epik_State_Penalty>
1.32676

> <r_epik_Charging_Adjusted_Penalty>
2.61787

> <i_epik_Tot_Q>
2

> <i_epik_Tot_abs_Q>
2

> <r_epik_Metal_State_Penalty>
1.40425

> <b_epik_Metal_Only>
0

> <s_lp_Force_Field>
OPLS_2005

> <r_lp_Energy>
72.9797

> <b_lp_Chiralities_Consistent>
1

> <s_lp_Variant>
AV-unprocessed.smi:1830-20

> <Gold.Version>
5.8.1

> <Gold.Id.Protein>
6NUR|6NUR_protein|mol2

> <Gold.PLP.Fitness>
49.5630

> <Gold.PLP.PLP>
-40.9720

> <Gold.PLP.part.hbond>
-5.0425

> <Gold.PLP.part.metal>
0.0000

> <Gold.PLP.part.buried>
1.2531

> <Gold.PLP.part.nonpolar>
-36.9222

> <Gold.PLP.part.repulsive>
0.4383

> <Gold.PLP.ligand.clash>
0.0000

> <Gold.PLP.ligand.torsion>
1.0207

> <Gold.PLP.Chemscore.Hbond>
3.4125

> <Gold.PLP.Chemscore.CHOScore>
0.0000

> <Gold.PLP.Chemscore.Metal>
0.0000

> <Gold.Chemscore.Hbonds>
donor molecule, donor type, donor heavy atom, donor atom, acceptor molecule, acceptor atom, score
      L1  H     3    26       P1  7948  0.99
      L1  H     7    53       P1  7957  0.16
      L1  H    14    41       P1  7948  0.75
      P1  H 10752 10765       L1     1  0.88

> <Gold.PLP.Chemscore.Internal.Correction>
0.3950

> <Gold.Rescore>
     Score         DG    S(hbond)    S(metal)    S(lipo)     H(rot)  DE(clash)    DE(int)     intcor
     14.63     -19.39       1.75        0.00     100.05       1.43       2.48       2.27       ----

> <Gold.Chemscore.Fitness>
14.6332

> <Gold.Chemscore.DG>
-19.3867

> <Gold.Chemscore.ZeroCoef>
-5.4800

> <Gold.Chemscore.Hbond>
1.7532

> <Gold.Chemscore.Metal>
0.0000

> <Gold.Chemscore.Lipo>
100.0507

> <Gold.Chemscore.Internal_Hbond>
0.0000

> <Gold.Chemscore.DEClash>
2.4829

> <Gold.Chemscore.DEInternal>
2.2706

> <Gold.Chemscore.Rot>
1.4278

> <Gold.Chemscore.Internal.Correction>
   9.000000E+99

> <Gold.Chemscore.Hbonds>
donor molecule, donor type, donor heavy atom, donor atom, acceptor molecule, acceptor atom, score
      L1  H     3    26       P1  7948  0.35
      L1  H     7    53       P1  7957  0.15
      L1  H    14    41       P1  7948  0.09
      P1  H 10752 10765       L1     1  0.16

> <Gold.Chemscore.Hbond.Weighted>
-5.8558

> <Gold.Chemscore.Metal.Weighted>
-0.0000

> <Gold.Chemscore.Lipo.Weighted>
-11.7059

> <Gold.Chemscore.Internal_Hbond.Weighted>
0.0000

> <Gold.Chemscore.DEClash.Weighted>
2.4829

> <Gold.Chemscore.DEInternal.Weighted>
2.2706

> <Gold.Chemscore.Rot.Weighted>
3.6551

> <Gold.Chemscore.Internal.Correction.Weighted>
   9.000000E+99

> <Gold.Protein.RotatedTorsions>
[ 6907 6896 6895 6894 ] final   14.57 input  -60.11 | X-H torsion
[ 7974 7965 7964 7962 ] final  -72.57 input  175.53 | X-H torsion
[ 8008 7997 7996 7995 ] final  121.64 input   59.86 | X-H torsion
[ 10167 10162 10161 10158 ] final   -2.22 input  -65.29 | X-H torsion
[ 10718 10713 10712 10709 ] final   48.68 input   66.30 | X-H torsion
[ 10763 10752 10751 10750 ] final -155.58 input  -60.55 | X-H torsion
[ 11005 11000 10999 10996 ] final   18.42 input  -57.11 | X-H torsion

> <Gold.Protein.ActiveResidues>
 VAL166  LYS551  ARG553  GLY616  TRP617  ASP618  TYR619  PRO620  LYS621  CYS622 
 ASP623  PHE694  ASN695  SER759  ASP760  ASP761  ALA762  ILE779  LEU786  VAL792 
 PHE793  MET794  SER795  GLU796  ALA797  LYS798  CYS799  TRP800  GLU811  SER814 

> <Gold.Protein.RotatedAtoms>
  151.8043  135.0699  160.0404 H   0  0  0  0  0  0  0  0  0  0  0  0  # atno 6907 bound_to 6896
  152.3066  133.5705  159.5662 H   0  0  0  0  0  0  0  0  0  0  0  0  # atno 6908 bound_to 6896
  150.7299  134.0129  159.3718 H   0  0  0  0  0  0  0  0  0  0  0  0  # atno 6909 bound_to 6896
  145.6634  140.9245  143.0921 H   0  0  0  0  0  0  0  0  0  0  0  0  # atno 7974 bound_to 7965
  156.2695  140.2804  156.1341 H   0  0  0  0  0  0  0  0  0  0  0  0  # atno 8008 bound_to 7997
  155.1023  140.0390  157.2718 H   0  0  0  0  0  0  0  0  0  0  0  0  # atno 8009 bound_to 7997
  154.6806  140.2608  155.6918 H   0  0  0  0  0  0  0  0  0  0  0  0  # atno 8010 bound_to 7997
  140.6842  143.6683  150.8207 H   0  0  0  0  0  0  0  0  0  0  0  0  # atno 10167 bound_to 10162
  157.4710  130.8255  149.7988 H   0  0  0  0  0  0  0  0  0  0  0  0  # atno 10718 bound_to 10713
  154.7777  135.3164  154.8057 H   0  0  0  0  0  0  0  0  0  0  0  0  # atno 10763 bound_to 10752
  153.8777  135.6838  153.4773 H   0  0  0  0  0  0  0  0  0  0  0  0  # atno 10764 bound_to 10752
  153.1405  135.4741  154.9424 H   0  0  0  0  0  0  0  0  0  0  0  0  # atno 10765 bound_to 10752
  140.4250  134.1479  155.7676 H   0  0  0  0  0  0  0  0  0  0  0  0  # atno 11005 bound_to 11000
  144.7081  139.8479  143.7423 LP  0  0  0  0  0  0  0  0  0  0  0  0  # atno 17320 bound_to 7965
  146.1106  139.4110  143.0290 LP  0  0  0  0  0  0  0  0  0  0  0  0  # atno 17321 bound_to 7965
  140.0387  143.5368  152.2727 LP  0  0  0  0  0  0  0  0  0  0  0  0  # atno 17342 bound_to 10162
  139.6187  144.7625  151.2788 LP  0  0  0  0  0  0  0  0  0  0  0  0  # atno 17343 bound_to 10162
  156.0073  130.3849  150.2384 LP  0  0  0  0  0  0  0  0  0  0  0  0  # atno 17370 bound_to 10713
  157.0567  131.0078  151.3236 LP  0  0  0  0  0  0  0  0  0  0  0  0  # atno 17371 bound_to 10713
  141.1768  133.8496  157.1392 LP  0  0  0  0  0  0  0  0  0  0  0  0  # atno 17394 bound_to 11000
  140.0173  134.9961  157.0520 LP  0  0  0  0  0  0  0  0  0  0  0  0  # atno 17395 bound_to 11000

$$$$
