AV-unprocessed.smi:1762|AV-procd|sdf|7112|dock5
  -GOLD-   22720 8333D 1   1.00000     0.00000
 Structure written by MMmdl.
 53 54  0  0  0  0  0  0  0  0  2 V2000
  144.4151  132.8718  150.1403 C   0  0  0  0  0  0  0  0  0  0  0  0
  144.9033  133.6471  151.3689 C   0  0  1  0  0  0  0  0  0  0  0  0
  146.3779  134.0781  151.2336 C   0  0  0  0  0  0  0  0  0  0  0  0
  146.8192  134.8713  152.4139 N   0  3  2  0  0  0  0  0  0  0  0  0
  147.0622  134.1043  153.6873 C   0  0  2  0  0  0  0  0  0  0  0  0
  147.6671  135.0141  154.7777 C   0  0  0  0  0  0  0  0  0  0  0  0
  147.3635  134.8508  155.9599 O   0  0  0  0  0  0  0  0  0  0  0  0
  148.5185  135.9659  154.3639 N   0  0  0  0  0  0  0  0  0  0  0  0
  149.1898  136.9237  155.2340 C   0  0  0  0  0  0  0  0  0  0  0  0
  150.0017  137.9507  154.4277 C   0  0  0  0  0  0  0  0  0  0  0  0
  149.2208  139.2280  154.1838 C   0  0  0  0  0  0  0  0  0  0  0  0
  149.7432  140.4781  154.5783 C   0  0  0  0  0  0  0  0  0  0  0  0
  148.9717  141.6325  154.3414 C   0  0  0  0  0  0  0  0  0  0  0  0
  147.7138  141.4924  153.7239 C   0  0  0  0  0  0  0  0  0  0  0  0
  147.2811  140.1988  153.3700 C   0  0  0  0  0  0  0  0  0  0  0  0
  148.0126  139.0856  153.5940 N   0  0  0  0  0  0  0  0  0  0  0  0
  147.9315  132.8152  153.5005 C   0  0  0  0  0  0  0  0  0  0  0  0
  147.4620  131.6313  154.3696 C   0  0  0  0  0  0  0  0  0  0  0  0
  149.4452  133.0434  153.6925 C   0  0  0  0  0  0  0  0  0  0  0  0
  145.9025  136.0399  152.5528 C   0  0  0  0  0  0  0  0  0  0  0  0
  144.4257  135.5966  152.6437 C   0  0  1  0  0  0  0  0  0  0  0  0
  143.4700  136.7937  152.6891 C   0  0  0  0  0  0  0  0  0  0  0  0
  144.0980  134.8143  151.4999 O   0  0  0  0  0  0  0  0  0  0  0  0
  144.9933  131.9587  149.9971 H   0  0  0  0  0  0  0  0  0  0  0  0
  144.5043  133.4706  149.2334 H   0  0  0  0  0  0  0  0  0  0  0  0
  143.3683  132.5876  150.2493 H   0  0  0  0  0  0  0  0  0  0  0  0
  144.7724  133.0142  152.2477 H   0  0  0  0  0  0  0  0  0  0  0  0
  147.0239  133.2265  151.0331 H   0  0  0  0  0  0  0  0  0  0  0  0
  146.4801  134.7119  150.3514 H   0  0  0  0  0  0  0  0  0  0  0  0
  146.0911  133.7696  154.0522 H   0  0  0  0  0  0  0  0  0  0  0  0
  148.7114  136.0369  153.3751 H   0  0  0  0  0  0  0  0  0  0  0  0
  148.4602  137.4253  155.8723 H   0  0  0  0  0  0  0  0  0  0  0  0
  149.8529  136.3684  155.8981 H   0  0  0  0  0  0  0  0  0  0  0  0
  150.9277  138.1906  154.9520 H   0  0  0  0  0  0  0  0  0  0  0  0
  150.2967  137.5293  153.4653 H   0  0  0  0  0  0  0  0  0  0  0  0
  150.7101  140.5528  155.0541 H   0  0  0  0  0  0  0  0  0  0  0  0
  149.3373  142.6069  154.6294 H   0  0  0  0  0  0  0  0  0  0  0  0
  147.0947  142.3553  153.5267 H   0  0  0  0  0  0  0  0  0  0  0  0
  146.3217  140.0543  152.8958 H   0  0  0  0  0  0  0  0  0  0  0  0
  147.7823  132.4615  152.4814 H   0  0  0  0  0  0  0  0  0  0  0  0
  147.6589  131.7963  155.4295 H   0  0  0  0  0  0  0  0  0  0  0  0
  147.9784  130.7136  154.0864 H   0  0  0  0  0  0  0  0  0  0  0  0
  146.3931  131.4527  154.2503 H   0  0  0  0  0  0  0  0  0  0  0  0
  149.6887  133.2895  154.7261 H   0  0  0  0  0  0  0  0  0  0  0  0
  149.8214  133.8502  153.0643 H   0  0  0  0  0  0  0  0  0  0  0  0
  150.0068  132.1454  153.4337 H   0  0  0  0  0  0  0  0  0  0  0  0
  146.1627  136.6720  153.4010 H   0  0  0  0  0  0  0  0  0  0  0  0
  146.0324  136.6732  151.6738 H   0  0  0  0  0  0  0  0  0  0  0  0
  144.2622  135.0010  153.5424 H   0  0  0  0  0  0  0  0  0  0  0  0
  143.6675  137.4193  153.5600 H   0  0  0  0  0  0  0  0  0  0  0  0
  142.4326  136.4634  152.7466 H   0  0  0  0  0  0  0  0  0  0  0  0
  143.5720  137.4162  151.7997 H   0  0  0  0  0  0  0  0  0  0  0  0
  147.7234  135.2512  152.1703 H   0  0  0  0  0  0  0  0  0  0  0  0
  1  2  1  0  0  0  0
  1 24  1  0  0  0  0
  1 25  1  0  0  0  0
  1 26  1  0  0  0  0
  2 23  1  0  0  0  0
  2  3  1  0  0  0  0
  2 27  1  0  0  0  0
  3  4  1  0  0  0  0
  3 28  1  0  0  0  0
  3 29  1  0  0  0  0
  4  5  1  0  0  0  0
  4 20  1  0  0  0  0
  4 53  1  0  0  0  0
  5  6  1  0  0  0  0
  5 17  1  0  0  0  0
  5 30  1  0  0  0  0
  6  7  2  0  0  0  0
  6  8  1  0  0  0  0
  8  9  1  0  0  0  0
  8 31  1  0  0  0  0
  9 10  1  0  0  0  0
  9 32  1  0  0  0  0
  9 33  1  0  0  0  0
 10 11  1  0  0  0  0
 10 34  1  0  0  0  0
 10 35  1  0  0  0  0
 11 16  1  0  0  0  0
 11 12  2  0  0  0  0
 12 13  1  0  0  0  0
 12 36  1  0  0  0  0
 13 14  2  0  0  0  0
 13 37  1  0  0  0  0
 14 15  1  0  0  0  0
 14 38  1  0  0  0  0
 15 16  2  0  0  0  0
 15 39  1  0  0  0  0
 17 18  1  0  0  0  0
 17 19  1  0  0  0  0
 17 40  1  0  0  0  0
 18 41  1  0  0  0  0
 18 42  1  0  0  0  0
 18 43  1  0  0  0  0
 19 44  1  0  0  0  0
 19 45  1  0  0  0  0
 19 46  1  0  0  0  0
 20 21  1  0  0  0  0
 20 47  1  0  0  0  0
 20 48  1  0  0  0  0
 21 22  1  0  0  0  0
 21 23  1  0  0  0  0
 21 49  1  0  0  0  0
 22 50  1  0  0  0  0
 22 51  1  0  0  0  0
 22 52  1  0  0  0  0
M  CHG  1   4   1
M  END
> <s_m_source_file>
AV-unprocessed.smi

> <i_m_source_file_index>
1762

> <i_lp_mmshare_version>
43012

> <i_f3d_flags>
0

> <s_epik_input>
W0NIM11bQ0BASF0xW0NIMl1OKFtDSDJdW0NASF0oTzEpW0NIM10pW0NAQEhdKFtDSF0oW0NIM10pW0NIM10pQyg9TylbTkhdW0NIMl1bQ0gyXWMyW2NIXVtjSF1bY0hdW2NIXW4y

> <s_epik_cmdline>
J2VwaWtfcHl0aG9uJywgJy1waCcsICc3LjAnLCAnLXRuJywgJzgnLCAnLW1hJywgJzIwMCcsICctbWV0YWxfYmluZGluZycsICctaW1hZScsICc8aW5maWxlLm1hZT4nLCAnLW9tYWUnLCAnPG91dGZpbGUubWFlPic=

> <r_epik_Ionization_Penalty>
2.27005

> <r_epik_Ionization_Penalty_Charging>
2.24983

> <r_epik_Ionization_Penalty_Neutral>
0.0202209

> <r_epik_State_Penalty>
2.40228

> <r_epik_Charging_Adjusted_Penalty>
4.65211

> <i_epik_Tot_Q>
1

> <i_epik_Tot_abs_Q>
1

> <r_epik_Metal_State_Penalty>
2.40762

> <b_epik_Metal_Only>
0

> <s_lp_Force_Field>
OPLS_2005

> <r_lp_Energy>
22.1735

> <b_lp_Chiralities_Consistent>
1

> <s_lp_Variant>
AV-unprocessed.smi:1762-14

> <Gold.Version>
5.8.1

> <Gold.Id.Protein>
6NUR|6NUR_protein|mol2

> <Gold.PLP.Fitness>
45.6330

> <Gold.PLP.PLP>
-37.1744

> <Gold.PLP.part.hbond>
-2.0000

> <Gold.PLP.part.metal>
0.0000

> <Gold.PLP.part.buried>
-4.2355

> <Gold.PLP.part.nonpolar>
-30.8165

> <Gold.PLP.part.repulsive>
0.3879

> <Gold.PLP.ligand.clash>
0.0000

> <Gold.PLP.ligand.torsion>
1.8629

> <Gold.PLP.Chemscore.Hbond>
3.0000

> <Gold.PLP.Chemscore.CHOScore>
1.0000

> <Gold.PLP.Chemscore.Metal>
0.0000

> <Gold.Chemscore.Hbonds>
donor molecule, donor type, donor heavy atom, donor atom, acceptor molecule, acceptor atom, score
      L1  H     4    53       P1  7948  2.00
      L1  H     8    31       P1  7948  1.00
      L1  C    15    39       P1 10175  0.57

> <Gold.PLP.Chemscore.Internal.Correction>
0.1844

> <Gold.Rescore>
     Score         DG    S(hbond)    S(metal)    S(lipo)     H(rot)  DE(clash)    DE(int)     intcor
     17.48     -19.03       1.97        0.00      96.04       1.66       0.08       1.48       ----

> <Gold.Chemscore.Fitness>
17.4763

> <Gold.Chemscore.DG>
-19.0346

> <Gold.Chemscore.ZeroCoef>
-5.4800

> <Gold.Chemscore.Hbond>
1.9690

> <Gold.Chemscore.Metal>
0.0000

> <Gold.Chemscore.Lipo>
96.0393

> <Gold.Chemscore.Internal_Hbond>
0.0000

> <Gold.Chemscore.DEClash>
0.0802

> <Gold.Chemscore.DEInternal>
1.4781

> <Gold.Chemscore.Rot>
1.6635

> <Gold.Chemscore.Internal.Correction>
   9.000000E+99

> <Gold.Chemscore.Hbonds>
donor molecule, donor type, donor heavy atom, donor atom, acceptor molecule, acceptor atom, score
      L1  H     4    53       P1  7948  0.95
      L1  H     8    31       P1  7948  0.93

> <Gold.Chemscore.Hbond.Weighted>
-6.5766

> <Gold.Chemscore.Metal.Weighted>
-0.0000

> <Gold.Chemscore.Lipo.Weighted>
-11.2366

> <Gold.Chemscore.Internal_Hbond.Weighted>
0.0000

> <Gold.Chemscore.DEClash.Weighted>
0.0802

> <Gold.Chemscore.DEInternal.Weighted>
1.4781

> <Gold.Chemscore.Rot.Weighted>
4.2586

> <Gold.Chemscore.Internal.Correction.Weighted>
   9.000000E+99

> <Gold.Protein.RotatedTorsions>
[ 6907 6896 6895 6894 ] final    8.34 input  -60.11 | X-H torsion
[ 7974 7965 7964 7962 ] final  164.28 input  175.53 | X-H torsion
[ 8008 7997 7996 7995 ] final  -32.30 input   59.86 | X-H torsion
[ 10167 10162 10161 10158 ] final    4.04 input  -65.29 | X-H torsion
[ 10718 10713 10712 10709 ] final   22.46 input   66.30 | X-H torsion
[ 10763 10752 10751 10750 ] final  -98.66 input  -60.55 | X-H torsion
[ 11005 11000 10999 10996 ] final  -13.91 input  -57.11 | X-H torsion

> <Gold.Protein.ActiveResidues>
 VAL166  LYS551  ARG553  GLY616  TRP617  ASP618  TYR619  PRO620  LYS621  CYS622 
 ASP623  PHE694  ASN695  SER759  ASP760  ASP761  ALA762  ILE779  LEU786  VAL792 
 PHE793  MET794  SER795  GLU796  ALA797  LYS798  CYS799  TRP800  GLU811  SER814 

> <Gold.Protein.RotatedAtoms>
  151.7044  135.0924  160.0256 H   0  0  0  0  0  0  0  0  0  0  0  0  # atno 6907 bound_to 6896
  152.3701  133.6403  159.6089 H   0  0  0  0  0  0  0  0  0  0  0  0  # atno 6908 bound_to 6896
  150.7667  133.9201  159.3437 H   0  0  0  0  0  0  0  0  0  0  0  0  # atno 6909 bound_to 6896
  144.7552  139.8304  143.6352 H   0  0  0  0  0  0  0  0  0  0  0  0  # atno 7974 bound_to 7965
  154.4184  140.1741  156.1705 H   0  0  0  0  0  0  0  0  0  0  0  0  # atno 8008 bound_to 7997
  155.9764  140.3381  155.6599 H   0  0  0  0  0  0  0  0  0  0  0  0  # atno 8009 bound_to 7997
  155.6558  140.0695  157.2562 H   0  0  0  0  0  0  0  0  0  0  0  0  # atno 8010 bound_to 7997
  140.6555  143.7438  150.7646 H   0  0  0  0  0  0  0  0  0  0  0  0  # atno 10167 bound_to 10162
  157.1527  130.6681  149.6017 H   0  0  0  0  0  0  0  0  0  0  0  0  # atno 10718 bound_to 10713
  154.7433  135.5001  153.9160 H   0  0  0  0  0  0  0  0  0  0  0  0  # atno 10763 bound_to 10752
  153.1065  135.6698  153.9585 H   0  0  0  0  0  0  0  0  0  0  0  0  # atno 10764 bound_to 10752
  153.9356  135.3073  155.3423 H   0  0  0  0  0  0  0  0  0  0  0  0  # atno 10765 bound_to 10752
  140.7809  133.8363  155.9291 H   0  0  0  0  0  0  0  0  0  0  0  0  # atno 11005 bound_to 11000
  146.1553  139.4649  143.0023 LP  0  0  0  0  0  0  0  0  0  0  0  0  # atno 17320 bound_to 7965
  145.6805  141.0192  143.1609 LP  0  0  0  0  0  0  0  0  0  0  0  0  # atno 17321 bound_to 7965
  140.1097  143.4711  152.2377 LP  0  0  0  0  0  0  0  0  0  0  0  0  # atno 17342 bound_to 10162
  139.5777  144.7495  151.3722 LP  0  0  0  0  0  0  0  0  0  0  0  0  # atno 17343 bound_to 10162
  155.9768  130.4739  150.6549 LP  0  0  0  0  0  0  0  0  0  0  0  0  # atno 17370 bound_to 10713
  157.4206  131.0836  151.1135 LP  0  0  0  0  0  0  0  0  0  0  0  0  # atno 17371 bound_to 10713
  140.9483  134.1812  157.4747 LP  0  0  0  0  0  0  0  0  0  0  0  0  # atno 17394 bound_to 11000
  139.8742  134.9899  156.5478 LP  0  0  0  0  0  0  0  0  0  0  0  0  # atno 17395 bound_to 11000

$$$$
