AV-unprocessed.smi:1763|AV-procd|sdf|7131|dock8
  -GOLD-   22720 8363D 1   1.00000     0.00000
 Structure written by MMmdl.
 42 43  0  0  0  0  0  0  0  0  3 V2000
  143.8323  146.3149  154.9318 C   0  0  0  0  0  0  0  0  0  0  0  0
  143.6201  144.8836  154.7493 N   0  5  0  0  0  0  0  0  0  0  0  0
  144.2033  143.9327  155.5304 C   0  0  0  0  0  0  0  0  0  0  0  0
  144.8974  144.0390  156.5463 O   0  0  0  0  0  0  0  0  0  0  0  0
  143.9075  142.5248  154.9983 C   0  0  0  0  0  0  0  0  0  0  0  0
  145.1469  141.8769  154.4971 N   0  3  2  0  0  0  0  0  0  0  0  0
  145.8706  141.1374  155.5613 C   0  0  0  0  0  0  0  0  0  0  0  0
  147.0594  140.3488  154.9826 C   0  0  0  0  0  0  0  0  0  0  0  0
  148.0216  141.2489  154.1878 C   0  0  2  0  0  0  0  0  0  0  0  0
  148.7754  142.1189  155.0905 N   0  0  0  0  0  0  0  0  0  0  0  0
  149.6341  141.7000  156.0322 C   0  0  0  0  0  0  0  0  0  0  0  0
  149.8890  140.5128  156.2364 O   0  0  0  0  0  0  0  0  0  0  0  0
  150.1654  142.7370  156.7037 N   0  0  0  0  0  0  0  0  0  0  0  0
  151.1111  142.7042  157.7633 C   0  0  0  0  0  0  0  0  0  0  0  0
  151.5971  143.9670  158.1717 C   0  0  0  0  0  0  0  0  0  0  0  0
  152.5395  144.0417  159.2157 C   0  0  0  0  0  0  0  0  0  0  0  0
  152.9722  142.8505  159.8253 C   0  0  0  0  0  0  0  0  0  0  0  0
  152.4388  141.6350  159.3583 C   0  0  0  0  0  0  0  0  0  0  0  0
  151.5358  141.5610  158.3579 N   0  0  0  0  0  0  0  0  0  0  0  0
  147.2317  142.0576  153.1394 C   0  0  0  0  0  0  0  0  0  0  0  0
  146.0447  142.8098  153.7657 C   0  0  0  0  0  0  0  0  0  0  0  0
  143.2511  146.9037  154.2223 H   0  0  0  0  0  0  0  0  0  0  0  0
  144.8747  146.6008  154.7883 H   0  0  0  0  0  0  0  0  0  0  0  0
  143.5443  146.6563  155.9265 H   0  0  0  0  0  0  0  0  0  0  0  0
  143.4422  141.9092  155.7699 H   0  0  0  0  0  0  0  0  0  0  0  0
  143.1760  142.6200  154.1938 H   0  0  0  0  0  0  0  0  0  0  0  0
  146.2112  141.8382  156.3250 H   0  0  0  0  0  0  0  0  0  0  0  0
  145.1889  140.4417  156.0520 H   0  0  0  0  0  0  0  0  0  0  0  0
  147.5943  139.8349  155.7824 H   0  0  0  0  0  0  0  0  0  0  0  0
  146.6774  139.5674  154.3241 H   0  0  0  0  0  0  0  0  0  0  0  0
  148.7337  140.6038  153.6699 H   0  0  0  0  0  0  0  0  0  0  0  0
  148.6242  143.1126  154.9966 H   0  0  0  0  0  0  0  0  0  0  0  0
  149.8585  143.6572  156.4256 H   0  0  0  0  0  0  0  0  0  0  0  0
  151.2541  144.8729  157.6929 H   0  0  0  0  0  0  0  0  0  0  0  0
  152.9232  144.9970  159.5425 H   0  0  0  0  0  0  0  0  0  0  0  0
  153.6938  142.8675  160.6286 H   0  0  0  0  0  0  0  0  0  0  0  0
  152.7446  140.6975  159.7990 H   0  0  0  0  0  0  0  0  0  0  0  0
  147.8863  142.7578  152.6192 H   0  0  0  0  0  0  0  0  0  0  0  0
  146.8540  141.3769  152.3752 H   0  0  0  0  0  0  0  0  0  0  0  0
  145.4934  143.3204  152.9756 H   0  0  0  0  0  0  0  0  0  0  0  0
  146.4027  143.5832  154.4470 H   0  0  0  0  0  0  0  0  0  0  0  0
  144.8322  141.1854  153.8305 H   0  0  0  0  0  0  0  0  0  0  0  0
  1  2  1  0  0  0  0
  1 22  1  0  0  0  0
  1 23  1  0  0  0  0
  1 24  1  0  0  0  0
  2  3  1  0  0  0  0
  3  4  2  0  0  0  0
  3  5  1  0  0  0  0
  5  6  1  0  0  0  0
  5 25  1  0  0  0  0
  5 26  1  0  0  0  0
  6 21  1  0  0  0  0
  6  7  1  0  0  0  0
  6 42  1  0  0  0  0
  7  8  1  0  0  0  0
  7 27  1  0  0  0  0
  7 28  1  0  0  0  0
  8  9  1  0  0  0  0
  8 29  1  0  0  0  0
  8 30  1  0  0  0  0
  9 10  1  0  0  0  0
  9 20  1  0  0  0  0
  9 31  1  0  0  0  0
 10 11  1  0  0  0  0
 10 32  1  0  0  0  0
 11 12  2  0  0  0  0
 11 13  1  0  0  0  0
 13 14  1  0  0  0  0
 13 33  1  0  0  0  0
 14 19  1  0  0  0  0
 14 15  2  0  0  0  0
 15 16  1  0  0  0  0
 15 34  1  0  0  0  0
 16 17  2  0  0  0  0
 16 35  1  0  0  0  0
 17 18  1  0  0  0  0
 17 36  1  0  0  0  0
 18 19  2  0  0  0  0
 18 37  1  0  0  0  0
 20 21  1  0  0  0  0
 20 38  1  0  0  0  0
 20 39  1  0  0  0  0
 21 40  1  0  0  0  0
 21 41  1  0  0  0  0
M  CHG  1   2  -1
M  CHG  1   6   1
M  END
> <s_m_source_file>
AV-unprocessed.smi

> <i_m_source_file_index>
1763

> <i_lp_mmshare_version>
43012

> <i_f3d_flags>
0

> <s_epik_input>
W0NIM11bTkhdQyg9TylbQ0gyXU4xW0NIMl1bQ0gyXVtDSF0oW0NIMl1bQ0gyXTEpW05IXUMoPU8pW05IXWMyW2NIXVtjSF1bY0hdW2NIXW4y

> <s_epik_cmdline>
J2VwaWtfcHl0aG9uJywgJy1waCcsICc3LjAnLCAnLXRuJywgJzgnLCAnLW1hJywgJzIwMCcsICctbWV0YWxfYmluZGluZycsICctaW1hZScsICc8aW5maWxlLm1hZT4nLCAnLW9tYWUnLCAnPG91dGZpbGUubWFlPic=

> <r_epik_Ionization_Penalty>
6.1395

> <r_epik_Ionization_Penalty_Charging>
6.13946

> <r_epik_Ionization_Penalty_Neutral>
3.77655e-05

> <r_epik_State_Penalty>
6.9595

> <r_epik_Charging_Adjusted_Penalty>
13.099

> <i_epik_Tot_Q>
0

> <i_epik_Tot_abs_Q>
2

> <r_epik_Metal_State_Penalty>
2.8914

> <b_epik_Metal_Only>
1

> <s_lp_Force_Field>
OPLS_2005

> <r_lp_Energy>
12.7162

> <b_lp_Chiralities_Consistent>
1

> <s_lp_Variant>
AV-unprocessed.smi:1763-5

> <Gold.Version>
5.8.1

> <Gold.Id.Protein>
6NUR|6NUR_protein|mol2

> <Gold.PLP.Fitness>
48.2617

> <Gold.PLP.PLP>
-36.9493

> <Gold.PLP.part.hbond>
-3.0000

> <Gold.PLP.part.metal>
0.0000

> <Gold.PLP.part.buried>
-6.5972

> <Gold.PLP.part.nonpolar>
-28.4976

> <Gold.PLP.part.repulsive>
0.4747

> <Gold.PLP.ligand.clash>
0.0000

> <Gold.PLP.ligand.torsion>
0.3587

> <Gold.PLP.Chemscore.Hbond>
3.9920

> <Gold.PLP.Chemscore.CHOScore>
0.0000

> <Gold.PLP.Chemscore.Metal>
0.0000

> <Gold.Chemscore.Hbonds>
donor molecule, donor type, donor heavy atom, donor atom, acceptor molecule, acceptor atom, score
      L1  H     6    42       P1 10175  2.00
      L1  H    10    32       P1  8028  0.98
      L1  H    13    33       P1  8028  1.00

> <Gold.PLP.Chemscore.Internal.Correction>
0.0538

> <Gold.Rescore>
     Score         DG    S(hbond)    S(metal)    S(lipo)     H(rot)  DE(clash)    DE(int)     intcor
     17.41     -20.49       2.74        0.00      86.74       1.67       1.47       1.61       ----

> <Gold.Chemscore.Fitness>
17.4092

> <Gold.Chemscore.DG>
-20.4936

> <Gold.Chemscore.ZeroCoef>
-5.4800

> <Gold.Chemscore.Hbond>
2.7388

> <Gold.Chemscore.Metal>
0.0000

> <Gold.Chemscore.Lipo>
86.7440

> <Gold.Chemscore.Internal_Hbond>
0.0000

> <Gold.Chemscore.DEClash>
1.4723

> <Gold.Chemscore.DEInternal>
1.6120

> <Gold.Chemscore.Rot>
1.6730

> <Gold.Chemscore.Internal.Correction>
   9.000000E+99

> <Gold.Chemscore.Hbonds>
donor molecule, donor type, donor heavy atom, donor atom, acceptor molecule, acceptor atom, score
      L1  H     6    42       P1 10175  0.59
      L1  H    10    32       P1  8028  0.93
      L1  H    13    33       P1  8028  0.98

> <Gold.Chemscore.Hbond.Weighted>
-9.1475

> <Gold.Chemscore.Metal.Weighted>
-0.0000

> <Gold.Chemscore.Lipo.Weighted>
-10.1491

> <Gold.Chemscore.Internal_Hbond.Weighted>
0.0000

> <Gold.Chemscore.DEClash.Weighted>
1.4723

> <Gold.Chemscore.DEInternal.Weighted>
1.6120

> <Gold.Chemscore.Rot.Weighted>
4.2830

> <Gold.Chemscore.Internal.Correction.Weighted>
   9.000000E+99

> <Gold.Protein.RotatedTorsions>
[ 6907 6896 6895 6894 ] final   58.02 input  -60.11 | X-H torsion
[ 7974 7965 7964 7962 ] final -172.56 input  175.53 | X-H torsion
[ 8008 7997 7996 7995 ] final  -92.90 input   59.86 | X-H torsion
[ 10167 10162 10161 10158 ] final  129.84 input  -65.29 | X-H torsion
[ 10718 10713 10712 10709 ] final  137.34 input   66.30 | X-H torsion
[ 10763 10752 10751 10750 ] final   34.05 input  -60.55 | X-H torsion
[ 11005 11000 10999 10996 ] final -174.81 input  -57.11 | X-H torsion

> <Gold.Protein.ActiveResidues>
 VAL166  LYS551  ARG553  GLY616  TRP617  ASP618  TYR619  PRO620  LYS621  CYS622 
 ASP623  PHE694  ASN695  SER759  ASP760  ASP761  ALA762  ILE779  LEU786  VAL792 
 PHE793  MET794  SER795  GLU796  ALA797  LYS798  CYS799  TRP800  GLU811  SER814 

> <Gold.Protein.RotatedAtoms>
  152.3786  134.6625  160.0150 H   0  0  0  0  0  0  0  0  0  0  0  0  # atno 6907 bound_to 6896
  151.6896  133.3305  159.3247 H   0  0  0  0  0  0  0  0  0  0  0  0  # atno 6908 bound_to 6896
  150.7729  134.6646  159.6403 H   0  0  0  0  0  0  0  0  0  0  0  0  # atno 6909 bound_to 6896
  144.7145  140.1754  143.6363 H   0  0  0  0  0  0  0  0  0  0  0  0  # atno 7974 bound_to 7965
  154.7289  140.0504  157.0708 H   0  0  0  0  0  0  0  0  0  0  0  0  # atno 8008 bound_to 7997
  155.0328  140.3160  155.4733 H   0  0  0  0  0  0  0  0  0  0  0  0  # atno 8009 bound_to 7997
  156.2836  140.2147  156.5450 H   0  0  0  0  0  0  0  0  0  0  0  0  # atno 8010 bound_to 7997
  139.5458  144.6772  151.4476 H   0  0  0  0  0  0  0  0  0  0  0  0  # atno 10167 bound_to 10162
  157.4371  131.1054  151.0185 H   0  0  0  0  0  0  0  0  0  0  0  0  # atno 10718 bound_to 10713
  153.0182  135.6370  154.1608 H   0  0  0  0  0  0  0  0  0  0  0  0  # atno 10763 bound_to 10752
  154.1345  135.2838  155.3178 H   0  0  0  0  0  0  0  0  0  0  0  0  # atno 10764 bound_to 10752
  154.6170  135.5537  153.7595 H   0  0  0  0  0  0  0  0  0  0  0  0  # atno 10765 bound_to 10752
  140.4704  134.6171  157.4879 H   0  0  0  0  0  0  0  0  0  0  0  0  # atno 11005 bound_to 11000
  145.8905  139.2373  143.1552 LP  0  0  0  0  0  0  0  0  0  0  0  0  # atno 17320 bound_to 7965
  145.9908  140.8604  143.0067 LP  0  0  0  0  0  0  0  0  0  0  0  0  # atno 17321 bound_to 7965
  140.6706  143.8302  150.6995 LP  0  0  0  0  0  0  0  0  0  0  0  0  # atno 17342 bound_to 10162
  140.1725  143.4183  152.1991 LP  0  0  0  0  0  0  0  0  0  0  0  0  # atno 17343 bound_to 10162
  157.1061  130.6002  149.5471 LP  0  0  0  0  0  0  0  0  0  0  0  0  # atno 17370 bound_to 10713
  155.9935  130.4996  150.7381 LP  0  0  0  0  0  0  0  0  0  0  0  0  # atno 17371 bound_to 10713
  139.9889  134.7017  155.9725 LP  0  0  0  0  0  0  0  0  0  0  0  0  # atno 17394 bound_to 11000
  141.1580  133.6541  156.4224 LP  0  0  0  0  0  0  0  0  0  0  0  0  # atno 17395 bound_to 11000

$$$$
