AV-unprocessed.smi:367|AV-procd|sdf|2433|dock9
  -GOLD-   2262022373D 1   1.00000     0.00000
 Structure written by MMmdl.
 21 21  0  0  0  0  0  0  0  0  3 V2000
  148.7639  140.5761  154.3959 C   0  0  0  0  0  0  0  0  0  0  0  0
  149.8954  139.9580  155.1891 C   0  0  0  0  0  0  0  0  0  0  0  0
  149.6615  139.5000  156.3593 N   0  0  0  0  0  0  0  0  0  0  0  0
  150.7108  138.9308  157.1015 C   0  0  0  0  0  0  0  0  0  0  0  0
  150.3455  138.4285  158.4874 C   0  0  0  0  0  0  0  0  0  0  0  0
  151.9742  138.8514  156.5934 C   0  0  0  0  0  0  0  0  0  0  0  0
  153.1543  138.2618  157.3718 C   0  0  0  0  0  0  0  0  0  0  0  0
  153.0415  136.7666  157.6935 C   0  0  0  0  0  0  0  0  0  0  0  0
  153.1211  135.9818  156.7230 O   0  0  0  0  0  0  0  0  0  0  0  0
  152.8767  136.4220  158.8850 O   0  5  0  0  0  0  0  0  0  0  0  0
  152.1990  139.3830  155.2365 C   0  0  0  0  0  0  0  0  0  0  0  0
  153.3159  139.3272  154.7230 O   0  0  0  0  0  0  0  0  0  0  0  0
  151.1324  139.9317  154.5858 N   0  5  0  0  0  0  0  0  0  0  0  0
  147.8152  140.4840  154.9263 H   0  0  0  0  0  0  0  0  0  0  0  0
  148.6639  140.0818  153.4292 H   0  0  0  0  0  0  0  0  0  0  0  0
  148.9590  141.6351  154.2249 H   0  0  0  0  0  0  0  0  0  0  0  0
  150.8732  138.9994  159.2516 H   0  0  0  0  0  0  0  0  0  0  0  0
  150.6083  137.3762  158.5959 H   0  0  0  0  0  0  0  0  0  0  0  0
  149.2754  138.5255  158.6738 H   0  0  0  0  0  0  0  0  0  0  0  0
  154.0937  138.4329  156.8457 H   0  0  0  0  0  0  0  0  0  0  0  0
  153.2562  138.8042  158.3118 H   0  0  0  0  0  0  0  0  0  0  0  0
  1  2  1  0  0  0  0
  1 14  1  0  0  0  0
  1 15  1  0  0  0  0
  1 16  1  0  0  0  0
  2 13  1  0  0  0  0
  2  3  2  0  0  0  0
  3  4  1  0  0  0  0
  4  5  1  0  0  0  0
  4  6  2  0  0  0  0
  5 17  1  0  0  0  0
  5 18  1  0  0  0  0
  5 19  1  0  0  0  0
  6  7  1  0  0  0  0
  6 11  1  0  0  0  0
  7  8  1  0  0  0  0
  7 20  1  0  0  0  0
  7 21  1  0  0  0  0
  8  9  2  0  0  0  0
  8 10  1  0  0  0  0
 11 12  2  0  0  0  0
 11 13  1  0  0  0  0
M  CHG  1  10  -1
M  CHG  1  13  -1
M  END
> <s_m_source_file>
AV-unprocessed.smi

> <i_m_source_file_index>
367

> <i_lp_mmshare_version>
43012

> <i_f3d_flags>
0

> <s_epik_input>
W0NIM11jMW5jKFtDSDNdKWMoYyg9TylbbkhdMSlbQ0gyXUMoPU8pW09IXQ==

> <s_epik_cmdline>
J2VwaWtfcHl0aG9uJywgJy1waCcsICc3LjAnLCAnLXRuJywgJzgnLCAnLW1hJywgJzIwMCcsICctbWV0YWxfYmluZGluZycsICctaW1hZScsICc8aW5maWxlLm1hZT4nLCAnLW9tYWUnLCAnPG91dGZpbGUubWFlPic=

> <r_lp_tautomer_probability>
0.839158

> <r_epik_Ionization_Penalty>
8.1762

> <r_epik_Ionization_Penalty_Charging>
0.00175347

> <r_epik_Ionization_Penalty_Neutral>
8.17445

> <r_epik_State_Penalty>
5.46366

> <r_epik_Charging_Adjusted_Penalty>
5.46542

> <i_epik_Tot_Q>
-2

> <i_epik_Tot_abs_Q>
2

> <r_epik_Metal_State_Penalty>
1.48615

> <b_epik_Metal_Only>
1

> <s_lp_Force_Field>
OPLS_2005

> <r_lp_Energy>
12.8552

> <b_lp_Chiralities_Consistent>
1

> <s_lp_Variant>
AV-unprocessed.smi:367-3

> <Gold.Version>
5.8.1

> <Gold.Id.Protein>
6NUR|6NUR_protein|mol2

> <Gold.PLP.Fitness>
36.1619

> <Gold.PLP.PLP>
-18.4220

> <Gold.PLP.part.hbond>
-4.0777

> <Gold.PLP.part.metal>
0.0000

> <Gold.PLP.part.buried>
-3.4781

> <Gold.PLP.part.nonpolar>
-11.7005

> <Gold.PLP.part.repulsive>
0.0924

> <Gold.PLP.ligand.clash>
0.0000

> <Gold.PLP.ligand.torsion>
0.0933

> <Gold.PLP.Chemscore.Hbond>
5.9753

> <Gold.PLP.Chemscore.CHOScore>
0.0000

> <Gold.PLP.Chemscore.Metal>
0.0000

> <Gold.Chemscore.Hbonds>
donor molecule, donor type, donor heavy atom, donor atom, acceptor molecule, acceptor atom, score
      P1  H  6896  6907       L1    10  1.47
      P1  H  7989  7998       L1    13  0.98
      P1  H  7997  8008       L1    12  1.00
      P1  H 10752 10765       L1     9  2.00

> <Gold.PLP.Chemscore.Internal.Correction>
0.0007

> <Gold.Rescore>
     Score         DG    S(hbond)    S(metal)    S(lipo)     H(rot)  DE(clash)    DE(int)     intcor
     16.46     -16.86       3.74        0.00      23.82       1.53       0.01       0.39       ----

> <Gold.Chemscore.Fitness>
16.4573

> <Gold.Chemscore.DG>
-16.8557

> <Gold.Chemscore.ZeroCoef>
-5.4800

> <Gold.Chemscore.Hbond>
3.7426

> <Gold.Chemscore.Metal>
0.0000

> <Gold.Chemscore.Lipo>
23.8164

> <Gold.Chemscore.Internal_Hbond>
0.0000

> <Gold.Chemscore.DEClash>
0.0073

> <Gold.Chemscore.DEInternal>
0.3911

> <Gold.Chemscore.Rot>
1.5278

> <Gold.Chemscore.Internal.Correction>
   9.000000E+99

> <Gold.Chemscore.Hbonds>
donor molecule, donor type, donor heavy atom, donor atom, acceptor molecule, acceptor atom, score
      P1  H  6896  6907       L1    10  0.71
      P1  H  7989  7998       L1    13  0.64
      P1  H  7997  8008       L1    12  0.90
      P1  H 10752 10765       L1     9  0.97

> <Gold.Chemscore.Hbond.Weighted>
-12.5003

> <Gold.Chemscore.Metal.Weighted>
-0.0000

> <Gold.Chemscore.Lipo.Weighted>
-2.7865

> <Gold.Chemscore.Internal_Hbond.Weighted>
0.0000

> <Gold.Chemscore.DEClash.Weighted>
0.0073

> <Gold.Chemscore.DEInternal.Weighted>
0.3911

> <Gold.Chemscore.Rot.Weighted>
3.9111

> <Gold.Chemscore.Internal.Correction.Weighted>
   9.000000E+99

> <Gold.Protein.RotatedTorsions>
[ 6907 6896 6895 6894 ] final   16.79 input  -60.11 | X-H torsion
[ 7974 7965 7964 7962 ] final -159.64 input  175.53 | X-H torsion
[ 8008 7997 7996 7995 ] final    1.83 input   59.86 | X-H torsion
[ 10167 10162 10161 10158 ] final  134.92 input  -65.29 | X-H torsion
[ 10718 10713 10712 10709 ] final   30.77 input   66.30 | X-H torsion
[ 10763 10752 10751 10750 ] final -118.94 input  -60.55 | X-H torsion
[ 11005 11000 10999 10996 ] final -177.91 input  -57.11 | X-H torsion

> <Gold.Protein.ActiveResidues>
 VAL166  LYS551  ARG553  GLY616  TRP617  ASP618  TYR619  PRO620  LYS621  CYS622 
 ASP623  PHE694  ASN695  SER759  ASP760  ASP761  ALA762  ILE779  LEU786  VAL792 
 PHE793  MET794  SER795  GLU796  ALA797  LYS798  CYS799  TRP800  GLU811  SER814 

> <Gold.Protein.RotatedAtoms>
  151.8395  135.0595  160.0446 H   0  0  0  0  0  0  0  0  0  0  0  0  # atno 6907 bound_to 6896
  152.2820  133.5474  159.5512 H   0  0  0  0  0  0  0  0  0  0  0  0  # atno 6908 bound_to 6896
  150.7193  134.0467  159.3826 H   0  0  0  0  0  0  0  0  0  0  0  0  # atno 6909 bound_to 6896
  144.7457  140.3656  143.6087 H   0  0  0  0  0  0  0  0  0  0  0  0  # atno 7974 bound_to 7965
  154.6844  140.2640  155.6875 H   0  0  0  0  0  0  0  0  0  0  0  0  # atno 8008 bound_to 7997
  156.2709  140.2803  156.1323 H   0  0  0  0  0  0  0  0  0  0  0  0  # atno 8009 bound_to 7997
  155.0985  140.0374  157.2680 H   0  0  0  0  0  0  0  0  0  0  0  0  # atno 8010 bound_to 7997
  139.5237  144.6543  151.5209 H   0  0  0  0  0  0  0  0  0  0  0  0  # atno 10167 bound_to 10162
  157.2639  130.7175  149.6468 H   0  0  0  0  0  0  0  0  0  0  0  0  # atno 10718 bound_to 10713
  154.8603  135.4256  154.2220 H   0  0  0  0  0  0  0  0  0  0  0  0  # atno 10763 bound_to 10752
  153.3223  135.6983  153.7025 H   0  0  0  0  0  0  0  0  0  0  0  0  # atno 10764 bound_to 10752
  153.6075  135.3525  155.2941 H   0  0  0  0  0  0  0  0  0  0  0  0  # atno 10765 bound_to 10752
  140.4356  134.6478  157.4733 H   0  0  0  0  0  0  0  0  0  0  0  0  # atno 11005 bound_to 11000
  145.7132  139.1690  143.2527 LP  0  0  0  0  0  0  0  0  0  0  0  0  # atno 17320 bound_to 7965
  146.1332  140.7158  142.9402 LP  0  0  0  0  0  0  0  0  0  0  0  0  # atno 17321 bound_to 7965
  140.6362  143.8980  150.6649 LP  0  0  0  0  0  0  0  0  0  0  0  0  # atno 17342 bound_to 10162
  140.2300  143.3743  152.1574 LP  0  0  0  0  0  0  0  0  0  0  0  0  # atno 17343 bound_to 10162
  155.9663  130.4389  150.5235 LP  0  0  0  0  0  0  0  0  0  0  0  0  # atno 17370 bound_to 10713
  157.3145  131.0670  151.1977 LP  0  0  0  0  0  0  0  0  0  0  0  0  # atno 17371 bound_to 10713
  140.0104  134.6699  155.9389 LP  0  0  0  0  0  0  0  0  0  0  0  0  # atno 17394 bound_to 11000
  141.1727  133.6538  156.4712 LP  0  0  0  0  0  0  0  0  0  0  0  0  # atno 17395 bound_to 11000

$$$$
