AV-unprocessed.smi:1509|AV-procd|sdf|6092|dock1
  -GOLD-   22720 6223D 1   1.00000     0.00000
 Structure written by MMmdl.
 42 43  0  0  0  0  0  0  0  0  2 V2000
  147.3628  133.2020  152.2513 C   0  0  0  0  0  0  0  0  0  0  0  0
  145.9222  133.5765  152.6418 C   0  0  2  0  0  0  0  0  0  0  0  0
  145.0134  133.8087  151.4206 C   0  0  0  0  0  0  0  0  0  0  0  0
  145.3313  135.1457  150.7369 C   0  0  0  0  0  0  0  0  0  0  0  0
  145.2868  136.3052  151.7447 C   0  0  0  0  0  0  0  0  0  0  0  0
  146.2049  136.0597  152.8869 N   0  3  1  0  0  0  0  0  0  0  0  0
  146.2934  137.2301  153.7965 C   0  0  0  0  0  0  0  0  0  0  0  0
  146.5059  138.5515  153.0380 C   0  0  0  0  0  0  0  0  0  0  0  0
  147.6686  139.3745  153.6181 C   0  0  0  0  0  0  0  0  0  0  0  0
  148.8924  138.5875  153.7185 N   0  0  0  0  0  0  0  0  0  0  0  0
  150.0703  139.0516  154.1648 C   0  0  0  0  0  0  0  0  0  0  0  0
  150.2474  140.2158  154.5226 O   0  0  0  0  0  0  0  0  0  0  0  0
  151.2252  138.0513  154.2193 C   0  0  0  0  0  0  0  0  0  0  0  0
  151.9678  138.1837  155.4582 N   0  0  0  0  0  0  0  0  0  0  0  0
  152.0068  139.1700  156.3566 C   0  0  0  0  0  0  0  0  0  0  0  0
  152.8311  138.8903  157.3547 N   0  0  0  0  0  0  0  0  0  0  0  0
  153.3189  137.6386  157.0183 N   0  0  0  0  0  0  0  0  0  0  0  0
  152.8102  137.2141  155.8940 N   0  0  0  0  0  0  0  0  0  0  0  0
  145.8730  134.7913  153.5918 C   0  0  0  0  0  0  0  0  0  0  0  0
  147.8661  134.0108  151.7217 H   0  0  0  0  0  0  0  0  0  0  0  0
  147.3774  132.3233  151.6059 H   0  0  0  0  0  0  0  0  0  0  0  0
  147.9583  132.9676  153.1343 H   0  0  0  0  0  0  0  0  0  0  0  0
  145.5204  132.7204  153.1854 H   0  0  0  0  0  0  0  0  0  0  0  0
  145.1076  132.9871  150.7100 H   0  0  0  0  0  0  0  0  0  0  0  0
  143.9717  133.8141  151.7444 H   0  0  0  0  0  0  0  0  0  0  0  0
  146.3154  135.1015  150.2693 H   0  0  0  0  0  0  0  0  0  0  0  0
  144.6193  135.3276  149.9314 H   0  0  0  0  0  0  0  0  0  0  0  0
  145.5675  137.2277  151.2348 H   0  0  0  0  0  0  0  0  0  0  0  0
  144.2703  136.4446  152.1163 H   0  0  0  0  0  0  0  0  0  0  0  0
  145.3619  137.3151  154.3584 H   0  0  0  0  0  0  0  0  0  0  0  0
  147.0830  137.0716  154.5327 H   0  0  0  0  0  0  0  0  0  0  0  0
  146.7037  138.3593  151.9838 H   0  0  0  0  0  0  0  0  0  0  0  0
  145.5867  139.1373  153.0782 H   0  0  0  0  0  0  0  0  0  0  0  0
  147.8492  140.2643  153.0123 H   0  0  0  0  0  0  0  0  0  0  0  0
  147.4116  139.7273  154.6172 H   0  0  0  0  0  0  0  0  0  0  0  0
  148.8356  137.6171  153.4443 H   0  0  0  0  0  0  0  0  0  0  0  0
  150.8502  137.0301  154.1404 H   0  0  0  0  0  0  0  0  0  0  0  0
  151.8978  138.2130  153.3754 H   0  0  0  0  0  0  0  0  0  0  0  0
  151.4383  140.0853  156.2791 H   0  0  0  0  0  0  0  0  0  0  0  0
  144.8757  134.8778  154.0264 H   0  0  0  0  0  0  0  0  0  0  0  0
  146.5565  134.6223  154.4232 H   0  0  0  0  0  0  0  0  0  0  0  0
  147.1239  135.9412  152.4849 H   0  0  0  0  0  0  0  0  0  0  0  0
  1  2  1  0  0  0  0
  1 20  1  0  0  0  0
  1 21  1  0  0  0  0
  1 22  1  0  0  0  0
  2 19  1  0  0  0  0
  2  3  1  0  0  0  0
  2 23  1  0  0  0  0
  3  4  1  0  0  0  0
  3 24  1  0  0  0  0
  3 25  1  0  0  0  0
  4  5  1  0  0  0  0
  4 26  1  0  0  0  0
  4 27  1  0  0  0  0
  5  6  1  0  0  0  0
  5 28  1  0  0  0  0
  5 29  1  0  0  0  0
  6  7  1  0  0  0  0
  6 19  1  0  0  0  0
  6 42  1  0  0  0  0
  7  8  1  0  0  0  0
  7 30  1  0  0  0  0
  7 31  1  0  0  0  0
  8  9  1  0  0  0  0
  8 32  1  0  0  0  0
  8 33  1  0  0  0  0
  9 10  1  0  0  0  0
  9 34  1  0  0  0  0
  9 35  1  0  0  0  0
 10 11  1  0  0  0  0
 10 36  1  0  0  0  0
 11 12  2  0  0  0  0
 11 13  1  0  0  0  0
 13 14  1  0  0  0  0
 13 37  1  0  0  0  0
 13 38  1  0  0  0  0
 14 18  1  0  0  0  0
 14 15  1  0  0  0  0
 15 16  2  0  0  0  0
 15 39  1  0  0  0  0
 16 17  1  0  0  0  0
 17 18  2  0  0  0  0
 19 40  1  0  0  0  0
 19 41  1  0  0  0  0
M  CHG  1   6   1
M  END
> <s_m_source_file>
AV-unprocessed.smi

> <i_m_source_file_index>
1509

> <i_lp_mmshare_version>
43012

> <i_f3d_flags>
0

> <s_epik_input>
W0NIM11bQ0BASF0xW0NIMl1bQ0gyXVtDSDJdTihbQ0gyXTEpW0NIMl1bQ0gyXVtDSDJdW05IXUMoPU8pW0NIMl1uMltjSF1ubm4y

> <s_epik_cmdline>
J2VwaWtfcHl0aG9uJywgJy1waCcsICc3LjAnLCAnLXRuJywgJzgnLCAnLW1hJywgJzIwMCcsICctbWV0YWxfYmluZGluZycsICctaW1hZScsICc8aW5maWxlLm1hZT4nLCAnLW9tYWUnLCAnPG91dGZpbGUubWFlPic=

> <r_lp_tautomer_probability>
1

> <r_epik_Ionization_Penalty>
0.00044216

> <r_epik_Ionization_Penalty_Charging>
0.000440775

> <r_epik_Ionization_Penalty_Neutral>
1.38512e-06

> <r_epik_State_Penalty>
0.000271914

> <r_epik_Charging_Adjusted_Penalty>
0.000712689

> <i_epik_Tot_Q>
1

> <i_epik_Tot_abs_Q>
1

> <r_epik_Metal_State_Penalty>
-0

> <b_epik_Metal_Only>
0

> <s_lp_Force_Field>
OPLS_2005

> <r_lp_Energy>
22.816

> <b_lp_Chiralities_Consistent>
1

> <s_lp_Variant>
AV-unprocessed.smi:1509-3

> <Gold.Version>
5.8.1

> <Gold.Id.Protein>
6NUR|6NUR_protein|mol2

> <Gold.PLP.Fitness>
46.0978

> <Gold.PLP.PLP>
-31.6423

> <Gold.PLP.part.hbond>
-6.5745

> <Gold.PLP.part.metal>
0.0000

> <Gold.PLP.part.buried>
-2.9099

> <Gold.PLP.part.nonpolar>
-23.0674

> <Gold.PLP.part.repulsive>
0.1981

> <Gold.PLP.ligand.clash>
0.0633

> <Gold.PLP.ligand.torsion>
0.8556

> <Gold.PLP.Chemscore.Hbond>
5.3760

> <Gold.PLP.Chemscore.CHOScore>
0.0000

> <Gold.PLP.Chemscore.Metal>
0.0000

> <Gold.Chemscore.Hbonds>
donor molecule, donor type, donor heavy atom, donor atom, acceptor molecule, acceptor atom, score
      L1  H     6    42       P1  7948  2.00
      L1  H    10    36       P1  7948  0.77
      P1  H  7989  7998       L1    12  1.00
      P1  H  7997  8008       L1    16  0.27
      P1  H 10752 10764       L1    18  0.56

> <Gold.PLP.Chemscore.Internal.Correction>
0.1020

> <Gold.Rescore>
     Score         DG    S(hbond)    S(metal)    S(lipo)     H(rot)  DE(clash)    DE(int)     intcor
     14.55     -16.91       3.79        0.00      54.47       2.97       0.58       1.79       ----

> <Gold.Chemscore.Fitness>
14.5502

> <Gold.Chemscore.DG>
-16.9125

> <Gold.Chemscore.ZeroCoef>
-5.4800

> <Gold.Chemscore.Hbond>
3.7898

> <Gold.Chemscore.Metal>
0.0000

> <Gold.Chemscore.Lipo>
54.4653

> <Gold.Chemscore.Internal_Hbond>
0.0000

> <Gold.Chemscore.DEClash>
0.5765

> <Gold.Chemscore.DEInternal>
1.7858

> <Gold.Chemscore.Rot>
2.9680

> <Gold.Chemscore.Internal.Correction>
   9.000000E+99

> <Gold.Chemscore.Hbonds>
donor molecule, donor type, donor heavy atom, donor atom, acceptor molecule, acceptor atom, score
      L1  H     6    42       P1  7948  0.99
      L1  H    10    36       P1  7948  0.75
      P1  H  7989  7998       L1    12  0.59
      P1  H 10752 10764       L1    18  0.53

> <Gold.Chemscore.Hbond.Weighted>
-12.6581

> <Gold.Chemscore.Metal.Weighted>
-0.0000

> <Gold.Chemscore.Lipo.Weighted>
-6.3724

> <Gold.Chemscore.Internal_Hbond.Weighted>
0.0000

> <Gold.Chemscore.DEClash.Weighted>
0.5765

> <Gold.Chemscore.DEInternal.Weighted>
1.7858

> <Gold.Chemscore.Rot.Weighted>
7.5980

> <Gold.Chemscore.Internal.Correction.Weighted>
   9.000000E+99

> <Gold.Protein.RotatedTorsions>
[ 6907 6896 6895 6894 ] final   86.18 input  -60.11 | X-H torsion
[ 7974 7965 7964 7962 ] final -173.83 input  175.53 | X-H torsion
[ 8008 7997 7996 7995 ] final  -44.86 input   59.86 | X-H torsion
[ 10167 10162 10161 10158 ] final   51.20 input  -65.29 | X-H torsion
[ 10718 10713 10712 10709 ] final   32.91 input   66.30 | X-H torsion
[ 10763 10752 10751 10750 ] final  -47.35 input  -60.55 | X-H torsion
[ 11005 11000 10999 10996 ] final -163.64 input  -57.11 | X-H torsion

> <Gold.Protein.ActiveResidues>
 VAL166  LYS551  ARG553  GLY616  TRP617  ASP618  TYR619  PRO620  LYS621  CYS622 
 ASP623  PHE694  ASN695  SER759  ASP760  ASP761  ALA762  ILE779  LEU786  VAL792 
 PHE793  MET794  SER795  GLU796  ALA797  LYS798  CYS799  TRP800  GLU811  SER814 

> <Gold.Protein.RotatedAtoms>
  152.5389  134.2471  159.8884 H   0  0  0  0  0  0  0  0  0  0  0  0  # atno 6907 bound_to 6896
  151.2436  133.4380  159.2616 H   0  0  0  0  0  0  0  0  0  0  0  0  # atno 6908 bound_to 6896
  151.0603  134.9746  159.8313 H   0  0  0  0  0  0  0  0  0  0  0  0  # atno 6909 bound_to 6896
  144.7135  140.1562  143.6380 H   0  0  0  0  0  0  0  0  0  0  0  0  # atno 7974 bound_to 7965
  154.3998  140.1411  156.3752 H   0  0  0  0  0  0  0  0  0  0  0  0  # atno 8008 bound_to 7997
  155.8055  140.3474  155.5406 H   0  0  0  0  0  0  0  0  0  0  0  0  # atno 8009 bound_to 7997
  155.8440  140.0931  157.1707 H   0  0  0  0  0  0  0  0  0  0  0  0  # atno 8010 bound_to 7997
  140.2644  144.3336  150.6308 H   0  0  0  0  0  0  0  0  0  0  0  0  # atno 10167 bound_to 10162
  157.2913  130.7304  149.6612 H   0  0  0  0  0  0  0  0  0  0  0  0  # atno 10718 bound_to 10713
  154.0599  135.6619  153.4810 H   0  0  0  0  0  0  0  0  0  0  0  0  # atno 10763 bound_to 10752
  153.0431  135.5132  154.7669 H   0  0  0  0  0  0  0  0  0  0  0  0  # atno 10764 bound_to 10752
  154.6702  135.3028  154.9719 H   0  0  0  0  0  0  0  0  0  0  0  0  # atno 10765 bound_to 10752
  140.5958  134.4998  157.5199 H   0  0  0  0  0  0  0  0  0  0  0  0  # atno 11005 bound_to 11000
  145.9071  139.2465  143.1459 LP  0  0  0  0  0  0  0  0  0  0  0  0  # atno 17320 bound_to 7965
  145.9753  140.8727  143.0142 LP  0  0  0  0  0  0  0  0  0  0  0  0  # atno 17321 bound_to 7965
  140.5940  143.2167  151.7200 LP  0  0  0  0  0  0  0  0  0  0  0  0  # atno 17342 bound_to 10162
  139.5007  144.3896  152.0293 LP  0  0  0  0  0  0  0  0  0  0  0  0  # atno 17343 bound_to 10162
  155.9667  130.4308  150.4892 LP  0  0  0  0  0  0  0  0  0  0  0  0  # atno 17370 bound_to 10713
  157.2855  131.0615  151.2169 LP  0  0  0  0  0  0  0  0  0  0  0  0  # atno 17371 bound_to 10713
  139.9254  134.8066  156.1085 LP  0  0  0  0  0  0  0  0  0  0  0  0  # atno 17394 bound_to 11000
  141.0905  133.6716  156.2530 LP  0  0  0  0  0  0  0  0  0  0  0  0  # atno 17395 bound_to 11000

$$$$
