AV-unprocessed.smi:266|AV-procd|sdf|2033|dock9
  -GOLD-   2262021243D 1   1.00000     0.00000
 Structure written by MMmdl.
 52 55  0  0  0  0  0  0  0  0  1 V2000
  145.5059  130.3078  151.4954 C   0  0  0  0  0  0  0  0  0  0  0  0
  144.5957  131.5466  151.4296 C   0  0  2  0  0  0  0  0  0  0  0  0
  143.8930  131.4739  150.1874 O   0  0  0  0  0  0  0  0  0  0  0  0
  144.0332  132.6876  149.4630 C   0  0  0  0  0  0  0  0  0  0  0  0
  145.3590  133.2512  149.9494 C   0  0  0  0  0  0  0  0  0  0  0  0
  145.3217  132.9161  151.4361 C   0  0  2  0  0  0  0  0  0  0  0  0
  146.6505  132.8302  151.9203 O   0  0  0  0  0  0  0  0  0  0  0  0
  144.5503  133.9497  152.3008 C   0  0  0  0  0  0  0  0  0  0  0  0
  145.2047  135.2446  152.4125 N   0  0  0  0  0  0  0  0  0  0  0  0
  145.2401  136.2316  151.4551 C   0  0  0  0  0  0  0  0  0  0  0  0
  145.8948  137.3078  151.7925 N   0  0  0  0  0  0  0  0  0  0  0  0
  146.3435  137.0522  153.0839 C   0  0  0  0  0  0  0  0  0  0  0  0
  147.1172  137.7796  154.0379 C   0  0  0  0  0  0  0  0  0  0  0  0
  147.6707  139.0026  153.8045 N   0  0  0  0  0  0  0  0  0  0  0  0
  146.9491  139.9313  152.9378 C   0  0  0  0  0  0  0  0  0  0  0  0
  148.5540  139.5832  154.8175 C   0  0  0  0  0  0  0  0  0  0  0  0
  150.0479  139.2612  154.5967 C   0  0  2  0  0  0  0  0  0  0  0  0
  150.3118  137.7431  154.6337 C   0  0  0  0  0  0  0  0  0  0  0  0
  151.8237  137.5061  154.6873 C   0  0  0  0  0  0  0  0  0  0  0  0
  152.4951  138.8759  155.6976 S   0  0  0  0  0  0  0  0  0  0  0  0
  152.6906  138.4151  157.0806 O   0  0  0  0  0  0  0  0  0  0  0  0
  153.5824  139.5327  154.9564 O   0  0  0  0  0  0  0  0  0  0  0  0
  150.9876  139.9147  155.6280 C   0  0  0  0  0  0  0  0  0  0  0  0
  147.3199  137.1871  155.2461 N   0  0  0  0  0  0  0  0  0  0  0  0
  146.8300  135.9714  155.5019 C   0  0  0  0  0  0  0  0  0  0  0  0
  146.1183  135.1760  154.7038 N   0  0  0  0  0  0  0  0  0  0  0  0
  145.8957  135.7627  153.4941 C   0  0  0  0  0  0  0  0  0  0  0  0
  146.0547  130.2673  152.4366 H   0  0  0  0  0  0  0  0  0  0  0  0
  146.2305  130.3023  150.6806 H   0  0  0  0  0  0  0  0  0  0  0  0
  144.9188  129.3921  151.4214 H   0  0  0  0  0  0  0  0  0  0  0  0
  143.8745  131.4908  152.2462 H   0  0  0  0  0  0  0  0  0  0  0  0
  144.0183  132.5149  148.3869 H   0  0  0  0  0  0  0  0  0  0  0  0
  143.2094  133.3571  149.7132 H   0  0  0  0  0  0  0  0  0  0  0  0
  146.1715  132.7119  149.4591 H   0  0  0  0  0  0  0  0  0  0  0  0
  145.4880  134.3080  149.7200 H   0  0  0  0  0  0  0  0  0  0  0  0
  147.1196  132.1947  151.4014 H   0  0  0  0  0  0  0  0  0  0  0  0
  143.5524  134.1156  151.8930 H   0  0  0  0  0  0  0  0  0  0  0  0
  144.3983  133.5566  153.3071 H   0  0  0  0  0  0  0  0  0  0  0  0
  144.7689  136.1237  150.4888 H   0  0  0  0  0  0  0  0  0  0  0  0
  146.6765  139.4516  151.9969 H   0  0  0  0  0  0  0  0  0  0  0  0
  147.5668  140.7972  152.6989 H   0  0  0  0  0  0  0  0  0  0  0  0
  146.0398  140.2890  153.4223 H   0  0  0  0  0  0  0  0  0  0  0  0
  148.4085  140.6559  154.9177 H   0  0  0  0  0  0  0  0  0  0  0  0
  148.2495  139.1731  155.7811 H   0  0  0  0  0  0  0  0  0  0  0  0
  150.3443  139.6094  153.6063 H   0  0  0  0  0  0  0  0  0  0  0  0
  149.8579  137.3220  155.5317 H   0  0  0  0  0  0  0  0  0  0  0  0
  149.8611  137.2338  153.7813 H   0  0  0  0  0  0  0  0  0  0  0  0
  152.0927  136.5444  155.1244 H   0  0  0  0  0  0  0  0  0  0  0  0
  152.2613  137.5746  153.6913 H   0  0  0  0  0  0  0  0  0  0  0  0
  151.2549  140.9397  155.3707 H   0  0  0  0  0  0  0  0  0  0  0  0
  150.5435  139.9115  156.6233 H   0  0  0  0  0  0  0  0  0  0  0  0
  147.0445  135.5773  156.4846 H   0  0  0  0  0  0  0  0  0  0  0  0
  1  2  1  0  0  0  0
  1 28  1  0  0  0  0
  1 29  1  0  0  0  0
  1 30  1  0  0  0  0
  2  6  1  0  0  0  0
  2  3  1  0  0  0  0
  2 31  1  0  0  0  0
  3  4  1  0  0  0  0
  4  5  1  0  0  0  0
  4 32  1  0  0  0  0
  4 33  1  0  0  0  0
  5  6  1  0  0  0  0
  5 34  1  0  0  0  0
  5 35  1  0  0  0  0
  6  7  1  0  0  0  0
  6  8  1  0  0  0  0
  7 36  1  0  0  0  0
  8  9  1  0  0  0  0
  8 37  1  0  0  0  0
  8 38  1  0  0  0  0
  9 27  1  0  0  0  0
  9 10  1  0  0  0  0
 10 11  2  0  0  0  0
 10 39  1  0  0  0  0
 11 12  1  0  0  0  0
 12 27  2  0  0  0  0
 12 13  1  0  0  0  0
 13 14  1  0  0  0  0
 13 24  2  0  0  0  0
 14 15  1  0  0  0  0
 14 16  1  0  0  0  0
 15 40  1  0  0  0  0
 15 41  1  0  0  0  0
 15 42  1  0  0  0  0
 16 17  1  0  0  0  0
 16 43  1  0  0  0  0
 16 44  1  0  0  0  0
 17 23  1  0  0  0  0
 17 18  1  0  0  0  0
 17 45  1  0  0  0  0
 18 19  1  0  0  0  0
 18 46  1  0  0  0  0
 18 47  1  0  0  0  0
 19 20  1  0  0  0  0
 19 48  1  0  0  0  0
 19 49  1  0  0  0  0
 20 21  2  0  0  0  0
 20 22  2  0  0  0  0
 20 23  1  0  0  0  0
 23 50  1  0  0  0  0
 23 51  1  0  0  0  0
 24 25  1  0  0  0  0
 25 26  2  0  0  0  0
 25 52  1  0  0  0  0
 26 27  1  0  0  0  0
M  END
> <s_m_source_file>
AV-unprocessed.smi

> <i_m_source_file_index>
266

> <i_lp_mmshare_version>
43012

> <i_f3d_flags>
0

> <s_epik_input>
W0NIMl0xW0NIMl1PW0NAQEhdKFtDSDNdKVtDQEBdMShbT0hdKVtDSDJdbihbY0hdbjIpYyhjMjMpbltjSF1uYzNOKFtDSDNdKVtDSDJdW0NAQEhdKFtDSDJdNClbQ0gyXVtDSDJdUzQoPU8pPU8=

> <s_epik_cmdline>
J2VwaWtfcHl0aG9uJywgJy1waCcsICc3LjAnLCAnLXRuJywgJzgnLCAnLW1hJywgJzIwMCcsICctbWV0YWxfYmluZGluZycsICctaW1hZScsICc8aW5maWxlLm1hZT4nLCAnLW9tYWUnLCAnPG91dGZpbGUubWFlPic=

> <r_lp_tautomer_probability>
1

> <r_epik_Ionization_Penalty>
0.00155497

> <r_epik_Ionization_Penalty_Charging>
0

> <r_epik_Ionization_Penalty_Neutral>
0.00155497

> <r_epik_State_Penalty>
-0

> <r_epik_Charging_Adjusted_Penalty>
0

> <i_epik_Tot_Q>
0

> <i_epik_Tot_abs_Q>
0

> <r_epik_Metal_State_Penalty>
-0

> <b_epik_Metal_Only>
0

> <s_lp_Force_Field>
OPLS_2005

> <r_lp_Energy>
29.9122

> <b_lp_Chiralities_Consistent>
1

> <s_lp_Variant>
AV-unprocessed.smi:266-3

> <Gold.Version>
5.8.1

> <Gold.Id.Protein>
6NUR|6NUR_protein|mol2

> <Gold.PLP.Fitness>
42.1686

> <Gold.PLP.PLP>
-36.6192

> <Gold.PLP.part.hbond>
-3.4794

> <Gold.PLP.part.metal>
0.0000

> <Gold.PLP.part.buried>
1.8793

> <Gold.PLP.part.nonpolar>
-36.1004

> <Gold.PLP.part.repulsive>
0.9968

> <Gold.PLP.ligand.clash>
0.0000

> <Gold.PLP.ligand.torsion>
0.6748

> <Gold.PLP.Chemscore.Hbond>
1.7134

> <Gold.PLP.Chemscore.CHOScore>
0.4034

> <Gold.PLP.Chemscore.Metal>
0.0000

> <Gold.Chemscore.Hbonds>
donor molecule, donor type, donor heavy atom, donor atom, acceptor molecule, acceptor atom, score
      P1  H  7997  8008       L1    22  0.73
      P1  H 10785 10796       L1     3  0.66
      L1  C    10    39       P1 10171  0.32

> <Gold.PLP.Chemscore.Internal.Correction>
0.5483

> <Gold.Rescore>
     Score         DG    S(hbond)    S(metal)    S(lipo)     H(rot)  DE(clash)    DE(int)     intcor
     12.53     -16.65       1.85        0.00      96.19       2.45       2.87       1.26       ----

> <Gold.Chemscore.Fitness>
12.5256

> <Gold.Chemscore.DG>
-16.6536

> <Gold.Chemscore.ZeroCoef>
-5.4800

> <Gold.Chemscore.Hbond>
1.8515

> <Gold.Chemscore.Metal>
0.0000

> <Gold.Chemscore.Lipo>
96.1887

> <Gold.Chemscore.Internal_Hbond>
0.0000

> <Gold.Chemscore.DEClash>
2.8702

> <Gold.Chemscore.DEInternal>
1.2578

> <Gold.Chemscore.Rot>
2.4471

> <Gold.Chemscore.Internal.Correction>
   9.000000E+99

> <Gold.Chemscore.Hbonds>
donor molecule, donor type, donor heavy atom, donor atom, acceptor molecule, acceptor atom, score
      P1  H  7997  8008       L1    22  0.64
      P1  H 10785 10796       L1     3  0.28

> <Gold.Chemscore.Hbond.Weighted>
-6.1841

> <Gold.Chemscore.Metal.Weighted>
-0.0000

> <Gold.Chemscore.Lipo.Weighted>
-11.2541

> <Gold.Chemscore.Internal_Hbond.Weighted>
0.0000

> <Gold.Chemscore.DEClash.Weighted>
2.8702

> <Gold.Chemscore.DEInternal.Weighted>
1.2578

> <Gold.Chemscore.Rot.Weighted>
6.2645

> <Gold.Chemscore.Internal.Correction.Weighted>
   9.000000E+99

> <Gold.Protein.RotatedTorsions>
[ 6907 6896 6895 6894 ] final  136.25 input  -60.11 | X-H torsion
[ 7974 7965 7964 7962 ] final -172.10 input  175.53 | X-H torsion
[ 8008 7997 7996 7995 ] final   -8.75 input   59.86 | X-H torsion
[ 10167 10162 10161 10158 ] final  -42.46 input  -65.29 | X-H torsion
[ 10718 10713 10712 10709 ] final  131.73 input   66.30 | X-H torsion
[ 10763 10752 10751 10750 ] final  -20.07 input  -60.55 | X-H torsion
[ 11005 11000 10999 10996 ] final   31.68 input  -57.11 | X-H torsion

> <Gold.Protein.ActiveResidues>
 VAL166  LYS551  ARG553  GLY616  TRP617  ASP618  TYR619  PRO620  LYS621  CYS622 
 ASP623  PHE694  ASN695  SER759  ASP760  ASP761  ALA762  ILE779  LEU786  VAL792 
 PHE793  MET794  SER795  GLU796  ALA797  LYS798  CYS799  TRP800  GLU811  SER814 

> <Gold.Protein.RotatedAtoms>
  152.2914  133.5565  159.5559 H   0  0  0  0  0  0  0  0  0  0  0  0  # atno 6907 bound_to 6896
  150.7237  134.0423  159.3779 H   0  0  0  0  0  0  0  0  0  0  0  0  # atno 6908 bound_to 6896
  151.8328  135.0616  160.0490 H   0  0  0  0  0  0  0  0  0  0  0  0  # atno 6909 bound_to 6896
  144.7150  140.1823  143.6357 H   0  0  0  0  0  0  0  0  0  0  0  0  # atno 7974 bound_to 7965
  154.5711  140.2373  155.8190 H   0  0  0  0  0  0  0  0  0  0  0  0  # atno 8008 bound_to 7997
  156.2108  140.3026  155.9685 H   0  0  0  0  0  0  0  0  0  0  0  0  # atno 8009 bound_to 7997
  155.2710  140.0418  157.2997 H   0  0  0  0  0  0  0  0  0  0  0  0  # atno 8010 bound_to 7997
  140.6968  143.3037  151.3212 H   0  0  0  0  0  0  0  0  0  0  0  0  # atno 10167 bound_to 10162
  157.4939  131.1091  150.9519 H   0  0  0  0  0  0  0  0  0  0  0  0  # atno 10718 bound_to 10713
  153.6147  135.6995  153.5333 H   0  0  0  0  0  0  0  0  0  0  0  0  # atno 10763 bound_to 10752
  153.2987  135.4135  155.1233 H   0  0  0  0  0  0  0  0  0  0  0  0  # atno 10764 bound_to 10752
  154.8556  135.3643  154.5686 H   0  0  0  0  0  0  0  0  0  0  0  0  # atno 10765 bound_to 10752
  140.2813  134.2969  155.7800 H   0  0  0  0  0  0  0  0  0  0  0  0  # atno 11005 bound_to 11000
  145.8845  139.2341  143.1586 LP  0  0  0  0  0  0  0  0  0  0  0  0  # atno 17320 bound_to 7965
  145.9963  140.8559  143.0041 LP  0  0  0  0  0  0  0  0  0  0  0  0  # atno 17321 bound_to 7965
  139.6434  144.0496  152.2572 LP  0  0  0  0  0  0  0  0  0  0  0  0  # atno 17342 bound_to 10162
  140.0009  144.6294  150.7731 LP  0  0  0  0  0  0  0  0  0  0  0  0  # atno 17343 bound_to 10162
  157.0211  130.5674  149.5331 LP  0  0  0  0  0  0  0  0  0  0  0  0  # atno 17370 bound_to 10713
  156.0189  130.5284  150.8218 LP  0  0  0  0  0  0  0  0  0  0  0  0  # atno 17371 bound_to 10713
  141.2162  133.7527  156.9485 LP  0  0  0  0  0  0  0  0  0  0  0  0  # atno 17394 bound_to 11000
  140.1280  134.9374  157.2298 LP  0  0  0  0  0  0  0  0  0  0  0  0  # atno 17395 bound_to 11000

$$$$
