AV-unprocessed.smi:2387|AV-procd|sdf|9470|dock1
  -GOLD-   2272013 93D 1   1.00000     0.00000
 Structure written by MMmdl.
 48 50  0  0  0  0  0  0  0  0  2 V2000
  146.0737  132.6716  151.9644 C   0  0  0  0  0  0  0  0  0  0  0  0
  145.9609  134.1751  152.1032 C   0  0  0  0  0  0  0  0  0  0  0  0
  145.5786  135.0061  151.0296 C   0  0  0  0  0  0  0  0  0  0  0  0
  145.4959  136.3998  151.2296 C   0  0  0  0  0  0  0  0  0  0  0  0
  145.8076  136.9419  152.5026 C   0  0  0  0  0  0  0  0  0  0  0  0
  145.7428  138.3278  152.8122 N   0  0  0  0  0  0  0  0  0  0  0  0
  146.5158  139.0284  153.6599 C   0  0  0  0  0  0  0  0  0  0  0  0
  147.4290  138.5579  154.3375 O   0  0  0  0  0  0  0  0  0  0  0  0
  146.1567  140.3241  153.6884 N   0  0  0  0  0  0  0  0  0  0  0  0
  146.7375  141.3998  154.5131 C   0  0  0  0  0  0  0  0  0  0  0  0
  148.2816  141.2876  154.6497 C   0  0  0  0  0  0  0  0  0  0  0  0
  148.9774  141.1269  153.6463 O   0  0  0  0  0  0  0  0  0  0  0  0
  148.8111  141.3514  155.8836 N   0  0  0  0  0  0  0  0  0  0  0  0
  150.2305  141.2584  156.1966 C   0  0  0  0  0  0  0  0  0  0  0  0
  150.5551  141.1550  157.6747 C   0  0  0  0  0  0  0  0  0  0  0  0
  151.3832  142.2115  158.3671 C   0  0  0  0  0  0  0  0  0  0  0  0
  151.9602  140.8367  158.1283 C   0  0  0  0  0  0  0  0  0  0  0  0
  146.3800  142.7673  153.8638 C   0  0  0  0  0  0  0  0  0  0  0  0
  145.4653  143.5171  154.8373 C   0  0  0  0  0  0  0  0  0  0  0  0
  145.7926  142.9337  156.2040 C   0  0  0  0  0  0  0  0  0  0  0  0
  146.0489  141.4578  155.9075 C   0  0  0  0  0  0  0  0  0  0  0  0
  146.1673  136.0545  153.5396 C   0  0  0  0  0  0  0  0  0  0  0  0
  146.2349  134.7255  153.3062 N   0  3  0  0  0  0  0  0  0  0  0  0
  145.8153  132.3495  150.9552 H   0  0  0  0  0  0  0  0  0  0  0  0
  145.4011  132.1732  152.6632 H   0  0  0  0  0  0  0  0  0  0  0  0
  147.0930  132.3463  152.1745 H   0  0  0  0  0  0  0  0  0  0  0  0
  145.3466  134.5844  150.0623 H   0  0  0  0  0  0  0  0  0  0  0  0
  145.1832  137.0222  150.4053 H   0  0  0  0  0  0  0  0  0  0  0  0
  144.9786  138.8334  152.3886 H   0  0  0  0  0  0  0  0  0  0  0  0
  145.3922  140.6017  153.0905 H   0  0  0  0  0  0  0  0  0  0  0  0
  148.1801  141.4756  156.6614 H   0  0  0  0  0  0  0  0  0  0  0  0
  150.6612  140.3974  155.6833 H   0  0  0  0  0  0  0  0  0  0  0  0
  150.7247  142.1374  155.7820 H   0  0  0  0  0  0  0  0  0  0  0  0
  149.7623  140.7032  158.2676 H   0  0  0  0  0  0  0  0  0  0  0  0
  151.7691  143.0305  157.7636 H   0  0  0  0  0  0  0  0  0  0  0  0
  151.1110  142.4728  159.3876 H   0  0  0  0  0  0  0  0  0  0  0  0
  152.0735  140.1820  158.9900 H   0  0  0  0  0  0  0  0  0  0  0  0
  152.7311  140.7422  157.3663 H   0  0  0  0  0  0  0  0  0  0  0  0
  147.2701  143.3739  153.6854 H   0  0  0  0  0  0  0  0  0  0  0  0
  145.8948  142.6593  152.8923 H   0  0  0  0  0  0  0  0  0  0  0  0
  145.6062  144.5974  154.7981 H   0  0  0  0  0  0  0  0  0  0  0  0
  144.4226  143.3093  154.5937 H   0  0  0  0  0  0  0  0  0  0  0  0
  146.6962  143.3981  156.6005 H   0  0  0  0  0  0  0  0  0  0  0  0
  144.9921  143.0841  156.9287 H   0  0  0  0  0  0  0  0  0  0  0  0
  145.0859  140.9451  155.8820 H   0  0  0  0  0  0  0  0  0  0  0  0
  146.6283  140.9825  156.7007 H   0  0  0  0  0  0  0  0  0  0  0  0
  146.4103  136.3654  154.5454 H   0  0  0  0  0  0  0  0  0  0  0  0
  146.5050  134.1091  154.0732 H   0  0  0  0  0  0  0  0  0  0  0  0
  1  2  1  0  0  0  0
  1 24  1  0  0  0  0
  1 25  1  0  0  0  0
  1 26  1  0  0  0  0
  2 23  1  0  0  0  0
  2  3  2  0  0  0  0
  3  4  1  0  0  0  0
  3 27  1  0  0  0  0
  4  5  2  0  0  0  0
  4 28  1  0  0  0  0
  5  6  1  0  0  0  0
  5 22  1  0  0  0  0
  6  7  1  0  0  0  0
  6 29  1  0  0  0  0
  7  8  2  0  0  0  0
  7  9  1  0  0  0  0
  9 10  1  0  0  0  0
  9 30  1  0  0  0  0
 10 21  1  0  0  0  0
 10 11  1  0  0  0  0
 10 18  1  0  0  0  0
 11 12  2  0  0  0  0
 11 13  1  0  0  0  0
 13 14  1  0  0  0  0
 13 31  1  0  0  0  0
 14 15  1  0  0  0  0
 14 32  1  0  0  0  0
 14 33  1  0  0  0  0
 15 17  1  0  0  0  0
 15 16  1  0  0  0  0
 15 34  1  0  0  0  0
 16 17  1  0  0  0  0
 16 35  1  0  0  0  0
 16 36  1  0  0  0  0
 17 37  1  0  0  0  0
 17 38  1  0  0  0  0
 18 19  1  0  0  0  0
 18 39  1  0  0  0  0
 18 40  1  0  0  0  0
 19 20  1  0  0  0  0
 19 41  1  0  0  0  0
 19 42  1  0  0  0  0
 20 21  1  0  0  0  0
 20 43  1  0  0  0  0
 20 44  1  0  0  0  0
 21 45  1  0  0  0  0
 21 46  1  0  0  0  0
 22 23  2  0  0  0  0
 22 47  1  0  0  0  0
 23 48  1  0  0  0  0
M  CHG  1  23   1
M  END
> <s_m_source_file>
AV-unprocessed.smi

> <i_m_source_file_index>
2387

> <i_lp_mmshare_version>
43012

> <i_f3d_flags>
0

> <s_epik_input>
W0NIM11jMVtjSF1bY0hdYyhbY0hdbjEpW05IXUMoPU8pW05IXUMyKFtDSDJdW0NIMl1bQ0gyXVtDSDJdMilDKD1PKVtOSF1bQ0gyXVtDSF0zW0NIMl1bQ0gyXTM=

> <s_epik_cmdline>
J2VwaWtfcHl0aG9uJywgJy1waCcsICc3LjAnLCAnLXRuJywgJzgnLCAnLW1hJywgJzIwMCcsICctbWV0YWxfYmluZGluZycsICctaW1hZScsICc8aW5maWxlLm1hZT4nLCAnLW9tYWUnLCAnPG91dGZpbGUubWFlPic=

> <r_epik_Ionization_Penalty>
2.1018

> <r_epik_Ionization_Penalty_Charging>
2.10178

> <r_epik_Ionization_Penalty_Neutral>
2.02976e-05

> <r_epik_State_Penalty>
2.23801

> <r_epik_Charging_Adjusted_Penalty>
4.33979

> <i_epik_Tot_Q>
1

> <i_epik_Tot_abs_Q>
1

> <r_epik_Metal_State_Penalty>
2.25493

> <b_epik_Metal_Only>
0

> <s_lp_Force_Field>
OPLS_2005

> <r_lp_Energy>
37.3987

> <b_lp_Chiralities_Consistent>
1

> <s_lp_Variant>
AV-unprocessed.smi:2387-2

> <Gold.Version>
5.8.1

> <Gold.Id.Protein>
6NUR|6NUR_protein|mol2

> <Gold.PLP.Fitness>
42.9615

> <Gold.PLP.PLP>
-36.7177

> <Gold.PLP.part.hbond>
-4.7872

> <Gold.PLP.part.metal>
0.0000

> <Gold.PLP.part.buried>
-5.2387

> <Gold.PLP.part.nonpolar>
-29.2915

> <Gold.PLP.part.repulsive>
1.9250

> <Gold.PLP.ligand.clash>
0.0000

> <Gold.PLP.ligand.torsion>
1.3806

> <Gold.PLP.Chemscore.Hbond>
2.7920

> <Gold.PLP.Chemscore.CHOScore>
0.0000

> <Gold.PLP.Chemscore.Metal>
0.0000

> <Gold.Chemscore.Hbonds>
donor molecule, donor type, donor heavy atom, donor atom, acceptor molecule, acceptor atom, score
      L1  H     6    29       P1 10175  0.86
      L1  H     9    30       P1 10175  1.00
      P1  H  8011  8017       L1    12  0.96

> <Gold.PLP.Chemscore.Internal.Correction>
0.6290

> <Gold.Rescore>
     Score         DG    S(hbond)    S(metal)    S(lipo)     H(rot)  DE(clash)    DE(int)     intcor
     14.85     -18.65       2.55        0.00      75.38       1.63       0.04       3.77       ----

> <Gold.Chemscore.Fitness>
14.8472

> <Gold.Chemscore.DG>
-18.6516

> <Gold.Chemscore.ZeroCoef>
-5.4800

> <Gold.Chemscore.Hbond>
2.5513

> <Gold.Chemscore.Metal>
0.0000

> <Gold.Chemscore.Lipo>
75.3800

> <Gold.Chemscore.Internal_Hbond>
0.0000

> <Gold.Chemscore.DEClash>
0.0356

> <Gold.Chemscore.DEInternal>
3.7688

> <Gold.Chemscore.Rot>
1.6286

> <Gold.Chemscore.Internal.Correction>
   9.000000E+99

> <Gold.Chemscore.Hbonds>
donor molecule, donor type, donor heavy atom, donor atom, acceptor molecule, acceptor atom, score
      L1  H     6    29       P1 10175  0.80
      L1  H     9    30       P1 10175  0.80
      P1  H  8011  8017       L1    12  0.88

> <Gold.Chemscore.Hbond.Weighted>
-8.5214

> <Gold.Chemscore.Metal.Weighted>
-0.0000

> <Gold.Chemscore.Lipo.Weighted>
-8.8195

> <Gold.Chemscore.Internal_Hbond.Weighted>
0.0000

> <Gold.Chemscore.DEClash.Weighted>
0.0356

> <Gold.Chemscore.DEInternal.Weighted>
3.7688

> <Gold.Chemscore.Rot.Weighted>
4.1692

> <Gold.Chemscore.Internal.Correction.Weighted>
   9.000000E+99

> <Gold.Protein.RotatedTorsions>
[ 6907 6896 6895 6894 ] final  -27.79 input  -60.11 | X-H torsion
[ 7974 7965 7964 7962 ] final   34.90 input  175.53 | X-H torsion
[ 8008 7997 7996 7995 ] final -157.22 input   59.86 | X-H torsion
[ 10167 10162 10161 10158 ] final   85.89 input  -65.29 | X-H torsion
[ 10718 10713 10712 10709 ] final   -0.74 input   66.30 | X-H torsion
[ 10763 10752 10751 10750 ] final  -88.09 input  -60.55 | X-H torsion
[ 11005 11000 10999 10996 ] final   50.92 input  -57.11 | X-H torsion

> <Gold.Protein.ActiveResidues>
 VAL166  LYS551  ARG553  GLY616  TRP617  ASP618  TYR619  PRO620  LYS621  CYS622 
 ASP623  PHE694  ASN695  SER759  ASP760  ASP761  ALA762  ILE779  LEU786  VAL792 
 PHE793  MET794  SER795  GLU796  ALA797  LYS798  CYS799  TRP800  GLU811  SER814 

> <Gold.Protein.RotatedAtoms>
  151.1419  135.0184  159.8629 H   0  0  0  0  0  0  0  0  0  0  0  0  # atno 6907 bound_to 6896
  152.5452  134.1489  159.8520 H   0  0  0  0  0  0  0  0  0  0  0  0  # atno 6908 bound_to 6896
  151.1565  133.4827  159.2627 H   0  0  0  0  0  0  0  0  0  0  0  0  # atno 6909 bound_to 6896
  146.1321  139.6210  142.9220 H   0  0  0  0  0  0  0  0  0  0  0  0  # atno 7974 bound_to 7965
  155.7292  140.0800  157.2296 H   0  0  0  0  0  0  0  0  0  0  0  0  # atno 8008 bound_to 7997
  154.4035  140.1598  156.2544 H   0  0  0  0  0  0  0  0  0  0  0  0  # atno 8009 bound_to 7997
  155.9125  140.3403  155.6112 H   0  0  0  0  0  0  0  0  0  0  0  0  # atno 8010 bound_to 7997
  139.8931  144.6374  150.8717 H   0  0  0  0  0  0  0  0  0  0  0  0  # atno 10167 bound_to 10162
  156.8159  130.5440  149.5703 H   0  0  0  0  0  0  0  0  0  0  0  0  # atno 10718 bound_to 10713
  154.6407  135.5390  153.7786 H   0  0  0  0  0  0  0  0  0  0  0  0  # atno 10763 bound_to 10752
  153.0332  135.6458  154.1163 H   0  0  0  0  0  0  0  0  0  0  0  0  # atno 10764 bound_to 10752
  154.1088  135.2928  155.3215 H   0  0  0  0  0  0  0  0  0  0  0  0  # atno 10765 bound_to 10752
  140.0976  134.5124  155.8792 H   0  0  0  0  0  0  0  0  0  0  0  0  # atno 11005 bound_to 11000
  145.5238  141.0430  143.2420 LP  0  0  0  0  0  0  0  0  0  0  0  0  # atno 17320 bound_to 7965
  144.7701  139.6755  143.7198 LP  0  0  0  0  0  0  0  0  0  0  0  0  # atno 17321 bound_to 7965
  140.7722  143.3494  151.2044 LP  0  0  0  0  0  0  0  0  0  0  0  0  # atno 17342 bound_to 10162
  139.7092  143.9405  152.2940 LP  0  0  0  0  0  0  0  0  0  0  0  0  # atno 17343 bound_to 10162
  156.1017  130.5974  150.9905 LP  0  0  0  0  0  0  0  0  0  0  0  0  # atno 17370 bound_to 10713
  157.6482  131.0901  150.8108 LP  0  0  0  0  0  0  0  0  0  0  0  0  # atno 17371 bound_to 10713
  141.2096  133.6686  156.6454 LP  0  0  0  0  0  0  0  0  0  0  0  0  # atno 17394 bound_to 11000
  140.3264  134.7965  157.4292 LP  0  0  0  0  0  0  0  0  0  0  0  0  # atno 17395 bound_to 11000

$$$$
