AV-unprocessed.smi:155|AV-procd|sdf|1267|dock6
  -GOLD-   2262018523D 1   1.00000     0.00000
 Structure written by MMmdl.
 63 66  0  0  0  0  0  0  0  0  2 V2000
  145.8737  132.1094  150.6555 C   0  0  0  0  0  0  0  0  0  0  0  0
  145.7140  132.9794  151.8157 N   0  0  0  0  0  0  0  0  0  0  0  0
  144.8864  134.1129  151.4244 C   0  0  0  0  0  0  0  0  0  0  0  0
  147.0002  133.4732  152.3071 C   0  0  0  0  0  0  0  0  0  0  0  0
  146.8921  134.3564  153.5754 C   0  0  0  0  0  0  0  0  0  0  0  0
  147.9402  134.1185  154.6040 N   0  3  2  0  0  0  0  0  0  0  0  0
  148.6553  132.8198  154.4609 C   0  0  0  0  0  0  0  0  0  0  0  0
  149.7455  132.5812  155.5270 C   0  0  0  0  0  0  0  0  0  0  0  0
  150.6995  133.7710  155.7528 C   0  0  0  0  0  0  0  0  0  0  0  0
  150.0012  134.9946  156.1562 N   0  0  0  0  0  0  0  0  0  0  0  0
  150.5348  136.2004  155.8289 C   0  0  0  0  0  0  0  0  0  0  0  0
  151.1084  136.3381  154.6045 N   0  0  0  0  0  0  0  0  0  0  0  0
  151.6546  137.5007  154.2371 C   0  0  0  0  0  0  0  0  0  0  0  0
  151.7309  138.6400  154.9261 N   0  0  0  0  0  0  0  0  0  0  0  0
  151.1450  138.5159  156.1506 C   0  0  0  0  0  0  0  0  0  0  0  0
  150.5263  137.3464  156.6786 C   0  0  0  0  0  0  0  0  0  0  0  0
  150.0227  137.6184  157.9466 N   0  0  0  0  0  0  0  0  0  0  0  0
  150.3447  138.8645  158.1630 C   0  0  0  0  0  0  0  0  0  0  0  0
  151.0227  139.4783  157.1358 N   0  0  0  0  0  0  0  0  0  0  0  0
  151.5043  140.8486  157.1019 C   0  0  0  0  0  0  0  0  0  0  0  0
  151.5219  141.5001  158.5039 C   0  0  2  0  0  0  0  0  0  0  0  0
  150.2128  141.9698  158.7682 O   0  0  0  0  0  0  0  0  0  0  0  0
  152.4733  142.7122  158.6311 C   0  0  2  0  0  0  0  0  0  0  0  0
  152.6250  143.2844  160.0533 C   0  0  0  0  0  0  0  0  0  0  0  0
  151.6565  144.4448  160.0789 C   0  0  0  0  0  0  0  0  0  0  0  0
  151.7872  144.9617  158.6570 C   0  0  0  0  0  0  0  0  0  0  0  0
  151.8954  143.7812  157.8739 O   0  0  0  0  0  0  0  0  0  0  0  0
  148.7299  134.9157  156.8793 C   0  0  0  0  0  0  0  0  0  0  0  0
  147.5380  134.4738  155.9927 C   0  0  0  0  0  0  0  0  0  0  0  0
  146.4187  131.2007  150.9071 H   0  0  0  0  0  0  0  0  0  0  0  0
  146.4041  132.6154  149.8475 H   0  0  0  0  0  0  0  0  0  0  0  0
  144.8987  131.7997  150.2768 H   0  0  0  0  0  0  0  0  0  0  0  0
  144.7152  134.7762  152.2729 H   0  0  0  0  0  0  0  0  0  0  0  0
  143.9114  133.7728  151.0726 H   0  0  0  0  0  0  0  0  0  0  0  0
  145.3541  134.6921  150.6265 H   0  0  0  0  0  0  0  0  0  0  0  0
  147.6399  132.6153  152.5210 H   0  0  0  0  0  0  0  0  0  0  0  0
  147.5084  134.0272  151.5175 H   0  0  0  0  0  0  0  0  0  0  0  0
  146.8431  135.4181  153.3376 H   0  0  0  0  0  0  0  0  0  0  0  0
  145.9366  134.1350  154.0524 H   0  0  0  0  0  0  0  0  0  0  0  0
  147.9491  131.9927  154.5109 H   0  0  0  0  0  0  0  0  0  0  0  0
  149.1066  132.7872  153.4685 H   0  0  0  0  0  0  0  0  0  0  0  0
  149.2801  132.2960  156.4707 H   0  0  0  0  0  0  0  0  0  0  0  0
  150.3342  131.7118  155.2327 H   0  0  0  0  0  0  0  0  0  0  0  0
  151.4325  133.5173  156.5193 H   0  0  0  0  0  0  0  0  0  0  0  0
  151.2557  133.9506  154.8315 H   0  0  0  0  0  0  0  0  0  0  0  0
  152.0941  137.5203  153.2506 H   0  0  0  0  0  0  0  0  0  0  0  0
  150.0987  139.3731  159.0839 H   0  0  0  0  0  0  0  0  0  0  0  0
  152.4993  140.8277  156.6607 H   0  0  0  0  0  0  0  0  0  0  0  0
  150.8737  141.4241  156.4227 H   0  0  0  0  0  0  0  0  0  0  0  0
  151.7813  140.7487  159.2510 H   0  0  0  0  0  0  0  0  0  0  0  0
  149.8627  141.4761  159.4945 H   0  0  0  0  0  0  0  0  0  0  0  0
  153.4579  142.4633  158.2317 H   0  0  0  0  0  0  0  0  0  0  0  0
  152.4453  142.5773  160.8600 H   0  0  0  0  0  0  0  0  0  0  0  0
  153.6396  143.6644  160.1819 H   0  0  0  0  0  0  0  0  0  0  0  0
  150.6420  144.0876  160.2618 H   0  0  0  0  0  0  0  0  0  0  0  0
  151.9018  145.1939  160.8320 H   0  0  0  0  0  0  0  0  0  0  0  0
  150.9384  145.5726  158.3484 H   0  0  0  0  0  0  0  0  0  0  0  0
  152.6973  145.5527  158.5434 H   0  0  0  0  0  0  0  0  0  0  0  0
  148.8561  134.2000  157.6922 H   0  0  0  0  0  0  0  0  0  0  0  0
  148.5054  135.8591  157.3776 H   0  0  0  0  0  0  0  0  0  0  0  0
  146.8295  135.3020  155.9540 H   0  0  0  0  0  0  0  0  0  0  0  0
  147.0049  133.6417  156.4545 H   0  0  0  0  0  0  0  0  0  0  0  0
  148.6455  134.8070  154.3827 H   0  0  0  0  0  0  0  0  0  0  0  0
  1  2  1  0  0  0  0
  1 30  1  0  0  0  0
  1 31  1  0  0  0  0
  1 32  1  0  0  0  0
  2  3  1  0  0  0  0
  2  4  1  0  0  0  0
  3 33  1  0  0  0  0
  3 34  1  0  0  0  0
  3 35  1  0  0  0  0
  4  5  1  0  0  0  0
  4 36  1  0  0  0  0
  4 37  1  0  0  0  0
  5  6  1  0  0  0  0
  5 38  1  0  0  0  0
  5 39  1  0  0  0  0
  6 29  1  0  0  0  0
  6  7  1  0  0  0  0
  6 63  1  0  0  0  0
  7  8  1  0  0  0  0
  7 40  1  0  0  0  0
  7 41  1  0  0  0  0
  8  9  1  0  0  0  0
  8 42  1  0  0  0  0
  8 43  1  0  0  0  0
  9 10  1  0  0  0  0
  9 44  1  0  0  0  0
  9 45  1  0  0  0  0
 10 11  1  0  0  0  0
 10 28  1  0  0  0  0
 11 16  1  0  0  0  0
 11 12  2  0  0  0  0
 12 13  1  0  0  0  0
 13 14  2  0  0  0  0
 13 46  1  0  0  0  0
 14 15  1  0  0  0  0
 15 19  1  0  0  0  0
 15 16  2  0  0  0  0
 16 17  1  0  0  0  0
 17 18  2  0  0  0  0
 18 19  1  0  0  0  0
 18 47  1  0  0  0  0
 19 20  1  0  0  0  0
 20 21  1  0  0  0  0
 20 48  1  0  0  0  0
 20 49  1  0  0  0  0
 21 22  1  0  0  0  0
 21 23  1  0  0  0  0
 21 50  1  0  0  0  0
 22 51  1  0  0  0  0
 23 27  1  0  0  0  0
 23 24  1  0  0  0  0
 23 52  1  0  0  0  0
 24 25  1  0  0  0  0
 24 53  1  0  0  0  0
 24 54  1  0  0  0  0
 25 26  1  0  0  0  0
 25 55  1  0  0  0  0
 25 56  1  0  0  0  0
 26 27  1  0  0  0  0
 26 57  1  0  0  0  0
 26 58  1  0  0  0  0
 28 29  1  0  0  0  0
 28 59  1  0  0  0  0
 28 60  1  0  0  0  0
 29 61  1  0  0  0  0
 29 62  1  0  0  0  0
M  CHG  1   6   1
M  END
> <s_m_source_file>
AV-unprocessed.smi

> <i_m_source_file_index>
155

> <i_lp_mmshare_version>
43012

> <i_f3d_flags>
0

> <s_epik_input>
W0NIM11OKFtDSDNdKVtDSDJdW0NIMl1OMVtDSDJdW0NIMl1bQ0gyXU4oW0NIMl1bQ0gyXTEpYyhuW2NIXW4yKWMoYzIzKW5bY0hdbjNbQ0gyXVtDQEhdKFtPSF0pW0NAQEhdNFtDSDJdW0NIMl1bQ0gyXU80

> <s_epik_cmdline>
J2VwaWtfcHl0aG9uJywgJy1waCcsICc3LjAnLCAnLXRuJywgJzgnLCAnLW1hJywgJzIwMCcsICctbWV0YWxfYmluZGluZycsICctaW1hZScsICc8aW5maWxlLm1hZT4nLCAnLW9tYWUnLCAnPG91dGZpbGUubWFlPic=

> <r_epik_Ionization_Penalty>
0.0619615

> <r_epik_Ionization_Penalty_Charging>
0.0161638

> <r_epik_Ionization_Penalty_Neutral>
0.0457976

> <r_epik_State_Penalty>
0.403408

> <r_epik_Charging_Adjusted_Penalty>
0.419572

> <i_epik_Tot_Q>
1

> <i_epik_Tot_abs_Q>
1

> <r_epik_Metal_State_Penalty>
0.404222

> <b_epik_Metal_Only>
0

> <s_lp_Force_Field>
OPLS_2005

> <r_lp_Energy>
58.592

> <b_lp_Chiralities_Consistent>
1

> <s_lp_Variant>
AV-unprocessed.smi:155-1

> <Gold.Version>
5.8.1

> <Gold.Id.Protein>
6NUR|6NUR_protein|mol2

> <Gold.PLP.Fitness>
44.4812

> <Gold.PLP.PLP>
-44.2581

> <Gold.PLP.part.hbond>
-1.8589

> <Gold.PLP.part.metal>
0.0000

> <Gold.PLP.part.buried>
-6.9544

> <Gold.PLP.part.nonpolar>
-36.9716

> <Gold.PLP.part.repulsive>
0.7672

> <Gold.PLP.ligand.clash>
0.0000

> <Gold.PLP.ligand.torsion>
1.8529

> <Gold.PLP.Chemscore.Hbond>
0.6443

> <Gold.PLP.Chemscore.CHOScore>
0.6072

> <Gold.PLP.Chemscore.Metal>
0.0000

> <Gold.Chemscore.Hbonds>
donor molecule, donor type, donor heavy atom, donor atom, acceptor molecule, acceptor atom, score
      P1  H 10752 10765       L1    12  0.40
      L1  C    13    46       P1  7949  0.79

> <Gold.PLP.Chemscore.Internal.Correction>
0.1744

> <Gold.Rescore>
     Score         DG    S(hbond)    S(metal)    S(lipo)     H(rot)  DE(clash)    DE(int)     intcor
      9.45     -11.56       0.05        0.00     108.19       2.63       0.04       2.07       ----

> <Gold.Chemscore.Fitness>
9.4500

> <Gold.Chemscore.DG>
-11.5590

> <Gold.Chemscore.ZeroCoef>
-5.4800

> <Gold.Chemscore.Hbond>
0.0476

> <Gold.Chemscore.Metal>
0.0000

> <Gold.Chemscore.Lipo>
108.1948

> <Gold.Chemscore.Internal_Hbond>
0.0000

> <Gold.Chemscore.DEClash>
0.0355

> <Gold.Chemscore.DEInternal>
2.0735

> <Gold.Chemscore.Rot>
2.6324

> <Gold.Chemscore.Internal.Correction>
   9.000000E+99

> <Gold.Chemscore.Hbonds>
donor molecule, donor type, donor heavy atom, donor atom, acceptor molecule, acceptor atom, score
      P1  H 10752 10765       L1    12  0.01

> <Gold.Chemscore.Hbond.Weighted>
-0.1591

> <Gold.Chemscore.Metal.Weighted>
-0.0000

> <Gold.Chemscore.Lipo.Weighted>
-12.6588

> <Gold.Chemscore.Internal_Hbond.Weighted>
0.0000

> <Gold.Chemscore.DEClash.Weighted>
0.0355

> <Gold.Chemscore.DEInternal.Weighted>
2.0735

> <Gold.Chemscore.Rot.Weighted>
6.7389

> <Gold.Chemscore.Internal.Correction.Weighted>
   9.000000E+99

> <Gold.Protein.RotatedTorsions>
[ 6907 6896 6895 6894 ] final  -13.24 input  -60.11 | X-H torsion
[ 7974 7965 7964 7962 ] final   83.48 input  175.53 | X-H torsion
[ 8008 7997 7996 7995 ] final  159.29 input   59.86 | X-H torsion
[ 10167 10162 10161 10158 ] final  108.01 input  -65.29 | X-H torsion
[ 10718 10713 10712 10709 ] final -124.45 input   66.30 | X-H torsion
[ 10763 10752 10751 10750 ] final -175.97 input  -60.55 | X-H torsion
[ 11005 11000 10999 10996 ] final  104.47 input  -57.11 | X-H torsion

> <Gold.Protein.ActiveResidues>
 VAL166  LYS551  ARG553  GLY616  TRP617  ASP618  TYR619  PRO620  LYS621  CYS622 
 ASP623  PHE694  ASN695  SER759  ASP760  ASP761  ALA762  ILE779  LEU786  VAL792 
 PHE793  MET794  SER795  GLU796  ALA797  LYS798  CYS799  TRP800  GLU811  SER814 

> <Gold.Protein.RotatedAtoms>
  151.3581  135.0898  159.9424 H   0  0  0  0  0  0  0  0  0  0  0  0  # atno 6907 bound_to 6896
  152.5169  133.9286  159.7580 H   0  0  0  0  0  0  0  0  0  0  0  0  # atno 6908 bound_to 6896
  150.9675  133.6325  159.2773 H   0  0  0  0  0  0  0  0  0  0  0  0  # atno 6909 bound_to 6896
  145.6113  139.2369  143.2190 H   0  0  0  0  0  0  0  0  0  0  0  0  # atno 7974 bound_to 7965
  156.2248  140.1835  156.7389 H   0  0  0  0  0  0  0  0  0  0  0  0  # atno 8008 bound_to 7997
  154.5924  140.0648  156.9285 H   0  0  0  0  0  0  0  0  0  0  0  0  # atno 8009 bound_to 7997
  155.2314  140.3315  155.4305 H   0  0  0  0  0  0  0  0  0  0  0  0  # atno 8010 bound_to 7997
  139.6881  144.7111  151.1397 H   0  0  0  0  0  0  0  0  0  0  0  0  # atno 10167 bound_to 10162
  156.1589  130.6587  151.0021 H   0  0  0  0  0  0  0  0  0  0  0  0  # atno 10718 bound_to 10713
  154.5780  135.2833  155.0761 H   0  0  0  0  0  0  0  0  0  0  0  0  # atno 10763 bound_to 10752
  154.2108  135.6408  153.5118 H   0  0  0  0  0  0  0  0  0  0  0  0  # atno 10764 bound_to 10752
  153.0079  135.5491  154.6425 H   0  0  0  0  0  0  0  0  0  0  0  0  # atno 10765 bound_to 10752
  139.8792  134.9301  156.5366 H   0  0  0  0  0  0  0  0  0  0  0  0  # atno 11005 bound_to 11000
  146.1502  140.6936  142.9326 LP  0  0  0  0  0  0  0  0  0  0  0  0  # atno 17320 bound_to 7965
  144.7268  140.4551  143.6967 LP  0  0  0  0  0  0  0  0  0  0  0  0  # atno 17321 bound_to 7965
  140.7674  143.5600  150.9110 LP  0  0  0  0  0  0  0  0  0  0  0  0  # atno 17342 bound_to 10162
  139.9276  143.6532  152.3083 LP  0  0  0  0  0  0  0  0  0  0  0  0  # atno 17343 bound_to 10162
  157.6717  131.0860  150.7596 LP  0  0  0  0  0  0  0  0  0  0  0  0  # atno 17370 bound_to 10713
  156.7660  130.4814  149.5427 LP  0  0  0  0  0  0  0  0  0  0  0  0  # atno 17371 bound_to 10713
  140.8341  133.8256  155.9012 LP  0  0  0  0  0  0  0  0  0  0  0  0  # atno 17394 bound_to 11000
  140.9300  134.2033  157.4870 LP  0  0  0  0  0  0  0  0  0  0  0  0  # atno 17395 bound_to 11000

$$$$
