AV-unprocessed.smi:1757|AV-procd|sdf|7076|dock8
  -GOLD-   22720 8293D 1   1.00000     0.00000
 Structure written by MMmdl.
 40 41  0  0  0  0  0  0  0  0  2 V2000
  147.0481  138.0115  154.3287 C   0  0  0  0  0  0  0  0  0  0  0  0
  148.4659  137.5922  154.3629 N   0  3  2  0  0  0  0  0  0  0  0  0
  148.7394  136.6091  155.4403 C   0  0  0  0  0  0  0  0  0  0  0  0
  150.1874  136.0917  155.3631 C   0  0  0  0  0  0  0  0  0  0  0  0
  151.2148  137.2382  155.3825 C   0  0  2  0  0  0  0  0  0  0  0  0
  151.2784  137.8529  156.7093 N   0  0  0  0  0  0  0  0  0  0  0  0
  151.8053  139.0517  156.9999 C   0  0  0  0  0  0  0  0  0  0  0  0
  152.3021  139.7972  156.1565 O   0  0  0  0  0  0  0  0  0  0  0  0
  151.7305  139.2976  158.3209 N   0  0  0  0  0  0  0  0  0  0  0  0
  152.1537  140.4282  159.0399 C   0  0  0  0  0  0  0  0  0  0  0  0
  151.8713  141.7139  158.7027 C   0  0  0  0  0  0  0  0  0  0  0  0
  152.3374  142.8385  159.4983 C   0  0  0  0  0  0  0  0  0  0  0  0
  152.0447  144.2821  159.1210 C   0  0  0  0  0  0  0  0  0  0  0  0
  152.9014  144.6956  158.1875 F   0  0  0  0  0  0  0  0  0  0  0  0
  150.8126  144.3876  158.6237 F   0  0  0  0  0  0  0  0  0  0  0  0
  152.1440  145.0972  160.1712 F   0  0  0  0  0  0  0  0  0  0  0  0
  153.0559  142.5411  160.5959 C   0  0  0  0  0  0  0  0  0  0  0  0
  153.3395  141.2220  160.9560 N   0  0  0  0  0  0  0  0  0  0  0  0
  152.9348  140.1398  160.2543 C   0  0  0  0  0  0  0  0  0  0  0  0
  153.2217  139.0065  160.6390 O   0  0  0  0  0  0  0  0  0  0  0  0
  150.8606  138.2860  154.3119 C   0  0  0  0  0  0  0  0  0  0  0  0
  149.3956  138.7478  154.4156 C   0  0  0  0  0  0  0  0  0  0  0  0
  153.8815  141.0817  161.7964 H   0  0  0  0  0  0  0  0  0  0  0  0
  146.7745  138.5439  155.2406 H   0  0  0  0  0  0  0  0  0  0  0  0
  146.3922  137.1462  154.2273 H   0  0  0  0  0  0  0  0  0  0  0  0
  146.8620  138.6693  153.4790 H   0  0  0  0  0  0  0  0  0  0  0  0
  148.5506  137.0679  156.4123 H   0  0  0  0  0  0  0  0  0  0  0  0
  148.0505  135.7683  155.3500 H   0  0  0  0  0  0  0  0  0  0  0  0
  150.3816  135.3949  156.1794 H   0  0  0  0  0  0  0  0  0  0  0  0
  150.3099  135.5191  154.4428 H   0  0  0  0  0  0  0  0  0  0  0  0
  152.1888  136.8173  155.1277 H   0  0  0  0  0  0  0  0  0  0  0  0
  150.8977  137.3155  157.4742 H   0  0  0  0  0  0  0  0  0  0  0  0
  151.3592  138.5550  158.8954 H   0  0  0  0  0  0  0  0  0  0  0  0
  151.2723  141.9367  157.8352 H   0  0  0  0  0  0  0  0  0  0  0  0
  153.4631  143.2800  161.2706 H   0  0  0  0  0  0  0  0  0  0  0  0
  151.5313  139.1431  154.3842 H   0  0  0  0  0  0  0  0  0  0  0  0
  151.0267  137.8552  153.3236 H   0  0  0  0  0  0  0  0  0  0  0  0
  149.1736  139.4321  153.5959 H   0  0  0  0  0  0  0  0  0  0  0  0
  149.2374  139.3033  155.3414 H   0  0  0  0  0  0  0  0  0  0  0  0
  148.6444  137.1181  153.4888 H   0  0  0  0  0  0  0  0  0  0  0  0
  1  2  1  0  0  0  0
  1 24  1  0  0  0  0
  1 25  1  0  0  0  0
  1 26  1  0  0  0  0
  2 22  1  0  0  0  0
  2  3  1  0  0  0  0
  2 40  1  0  0  0  0
  3  4  1  0  0  0  0
  3 27  1  0  0  0  0
  3 28  1  0  0  0  0
  4  5  1  0  0  0  0
  4 29  1  0  0  0  0
  4 30  1  0  0  0  0
  5  6  1  0  0  0  0
  5 21  1  0  0  0  0
  5 31  1  0  0  0  0
  6  7  1  0  0  0  0
  6 32  1  0  0  0  0
  7  8  2  0  0  0  0
  7  9  1  0  0  0  0
  9 10  1  0  0  0  0
  9 33  1  0  0  0  0
 10 19  1  0  0  0  0
 10 11  2  0  0  0  0
 11 12  1  0  0  0  0
 11 34  1  0  0  0  0
 12 13  1  0  0  0  0
 12 17  2  0  0  0  0
 13 14  1  0  0  0  0
 13 15  1  0  0  0  0
 13 16  1  0  0  0  0
 17 18  1  0  0  0  0
 17 35  1  0  0  0  0
 18 23  1  0  0  0  0
 18 19  1  0  0  0  0
 19 20  2  0  0  0  0
 21 22  1  0  0  0  0
 21 36  1  0  0  0  0
 21 37  1  0  0  0  0
 22 38  1  0  0  0  0
 22 39  1  0  0  0  0
M  CHG  1   2   1
M  END
> <s_m_source_file>
AV-unprocessed.smi

> <i_m_source_file_index>
1757

> <i_lp_mmshare_version>
43012

> <i_f3d_flags>
0

> <s_epik_input>
W0NIM11OMVtDSDJdW0NIMl1bQ0hdKFtDSDJdW0NIMl0xKVtOSF1DKD1PKVtOSF1jMltjSF1jKEMoRikoRilGKVtjSF1bbkhdYzI9Tw==

> <s_epik_cmdline>
J2VwaWtfcHl0aG9uJywgJy1waCcsICc3LjAnLCAnLXRuJywgJzgnLCAnLW1hJywgJzIwMCcsICctbWV0YWxfYmluZGluZycsICctaW1hZScsICc8aW5maWxlLm1hZT4nLCAnLW9tYWUnLCAnPG91dGZpbGUubWFlPic=

> <r_lp_tautomer_probability>
1

> <r_epik_Ionization_Penalty>
0.00859077

> <r_epik_Ionization_Penalty_Charging>
0.00857233

> <r_epik_Ionization_Penalty_Neutral>
1.84472e-05

> <r_epik_State_Penalty>
-0

> <r_epik_Charging_Adjusted_Penalty>
0.00857233

> <i_epik_Tot_Q>
1

> <i_epik_Tot_abs_Q>
1

> <r_epik_Metal_State_Penalty>
0.377538

> <b_epik_Metal_Only>
0

> <s_lp_Force_Field>
OPLS_2005

> <r_lp_Energy>
26.4268

> <b_lp_Chiralities_Consistent>
1

> <s_lp_Variant>
AV-unprocessed.smi:1757-2

> <Gold.Version>
5.8.1

> <Gold.Id.Protein>
6NUR|6NUR_protein|mol2

> <Gold.PLP.Fitness>
49.6169

> <Gold.PLP.PLP>
-43.9175

> <Gold.PLP.part.hbond>
-2.0000

> <Gold.PLP.part.metal>
0.0000

> <Gold.PLP.part.buried>
-6.3367

> <Gold.PLP.part.nonpolar>
-35.8831

> <Gold.PLP.part.repulsive>
0.1955

> <Gold.PLP.ligand.clash>
0.1118

> <Gold.PLP.ligand.torsion>
1.5985

> <Gold.PLP.Chemscore.Hbond>
3.0000

> <Gold.PLP.Chemscore.CHOScore>
0.0000

> <Gold.PLP.Chemscore.Metal>
0.0000

> <Gold.Chemscore.Hbonds>
donor molecule, donor type, donor heavy atom, donor atom, acceptor molecule, acceptor atom, score
      L1  H     2    40       P1  7948  2.00
      P1  H  7997  8010       L1     8  0.66

> <Gold.PLP.Chemscore.Internal.Correction>
0.0082

> <Gold.Rescore>
     Score         DG    S(hbond)    S(metal)    S(lipo)     H(rot)  DE(clash)    DE(int)     intcor
     15.74     -17.90       1.65        0.00      81.00       1.00       0.53       1.63       ----

> <Gold.Chemscore.Fitness>
15.7367

> <Gold.Chemscore.DG>
-17.9005

> <Gold.Chemscore.ZeroCoef>
-5.4800

> <Gold.Chemscore.Hbond>
1.6479

> <Gold.Chemscore.Metal>
0.0000

> <Gold.Chemscore.Lipo>
80.9972

> <Gold.Chemscore.Internal_Hbond>
0.0000

> <Gold.Chemscore.DEClash>
0.5325

> <Gold.Chemscore.DEInternal>
1.6313

> <Gold.Chemscore.Rot>
1.0000

> <Gold.Chemscore.Internal.Correction>
   9.000000E+99

> <Gold.Chemscore.Hbonds>
donor molecule, donor type, donor heavy atom, donor atom, acceptor molecule, acceptor atom, score
      L1  H     2    40       P1  7948  1.00
      P1  H  7997  8010       L1     8  0.63

> <Gold.Chemscore.Hbond.Weighted>
-5.5039

> <Gold.Chemscore.Metal.Weighted>
-0.0000

> <Gold.Chemscore.Lipo.Weighted>
-9.4767

> <Gold.Chemscore.Internal_Hbond.Weighted>
0.0000

> <Gold.Chemscore.DEClash.Weighted>
0.5325

> <Gold.Chemscore.DEInternal.Weighted>
1.6313

> <Gold.Chemscore.Rot.Weighted>
2.5600

> <Gold.Chemscore.Internal.Correction.Weighted>
   9.000000E+99

> <Gold.Protein.RotatedTorsions>
[ 6907 6896 6895 6894 ] final   95.57 input  -60.11 | X-H torsion
[ 7974 7965 7964 7962 ] final  124.95 input  175.53 | X-H torsion
[ 8008 7997 7996 7995 ] final  100.28 input   59.86 | X-H torsion
[ 10167 10162 10161 10158 ] final -139.06 input  -65.29 | X-H torsion
[ 10718 10713 10712 10709 ] final  100.95 input   66.30 | X-H torsion
[ 10763 10752 10751 10750 ] final -166.27 input  -60.55 | X-H torsion
[ 11005 11000 10999 10996 ] final -101.93 input  -57.11 | X-H torsion

> <Gold.Protein.ActiveResidues>
 VAL166  LYS551  ARG553  GLY616  TRP617  ASP618  TYR619  PRO620  LYS621  CYS622 
 ASP623  PHE694  ASN695  SER759  ASP760  ASP761  ALA762  ILE779  LEU786  VAL792 
 PHE793  MET794  SER795  GLU796  ALA797  LYS798  CYS799  TRP800  GLU811  SER814 

> <Gold.Protein.RotatedAtoms>
  152.5442  134.1019  159.8321 H   0  0  0  0  0  0  0  0  0  0  0  0  # atno 6907 bound_to 6896
  151.1096  133.5175  159.2613 H   0  0  0  0  0  0  0  0  0  0  0  0  # atno 6908 bound_to 6896
  151.1899  135.0407  159.8883 H   0  0  0  0  0  0  0  0  0  0  0  0  # atno 6909 bound_to 6896
  145.0785  139.3675  143.4921 H   0  0  0  0  0  0  0  0  0  0  0  0  # atno 7974 bound_to 7965
  156.1187  140.3216  155.8177 H   0  0  0  0  0  0  0  0  0  0  0  0  # atno 8008 bound_to 7997
  155.4543  140.0534  157.3015 H   0  0  0  0  0  0  0  0  0  0  0  0  # atno 8009 bound_to 7997
  154.4812  140.2053  155.9774 H   0  0  0  0  0  0  0  0  0  0  0  0  # atno 8010 bound_to 7997
  139.8417  143.7313  152.2663 H   0  0  0  0  0  0  0  0  0  0  0  0  # atno 10167 bound_to 10162
  157.6841  131.0713  150.5178 H   0  0  0  0  0  0  0  0  0  0  0  0  # atno 10718 bound_to 10713
  154.6850  135.2961  154.9560 H   0  0  0  0  0  0  0  0  0  0  0  0  # atno 10763 bound_to 10752
  154.0543  135.6640  153.4808 H   0  0  0  0  0  0  0  0  0  0  0  0  # atno 10764 bound_to 10752
  153.0572  135.5137  154.7912 H   0  0  0  0  0  0  0  0  0  0  0  0  # atno 10765 bound_to 10752
  141.1210  133.8517  157.1294 H   0  0  0  0  0  0  0  0  0  0  0  0  # atno 11005 bound_to 11000
  146.3530  140.0564  142.8632 LP  0  0  0  0  0  0  0  0  0  0  0  0  # atno 17320 bound_to 7965
  145.1206  140.9460  143.4602 LP  0  0  0  0  0  0  0  0  0  0  0  0  # atno 17321 bound_to 7965
  139.7552  144.7522  151.0446 LP  0  0  0  0  0  0  0  0  0  0  0  0  # atno 17342 bound_to 10162
  140.7797  143.4813  151.0014 LP  0  0  0  0  0  0  0  0  0  0  0  0  # atno 17343 bound_to 10162
  156.5493  130.4227  149.6115 LP  0  0  0  0  0  0  0  0  0  0  0  0  # atno 17370 bound_to 10713
  156.2917  130.7127  151.1978 LP  0  0  0  0  0  0  0  0  0  0  0  0  # atno 17371 bound_to 10713
  140.0168  134.9964  157.0510 LP  0  0  0  0  0  0  0  0  0  0  0  0  # atno 17394 bound_to 11000
  140.4506  134.1586  155.7181 LP  0  0  0  0  0  0  0  0  0  0  0  0  # atno 17395 bound_to 11000

$$$$
