AV-unprocessed.smi:103|AV-procd|sdf|981|dock9
  -GOLD-   2262017543D 1   1.00000     0.00000
 Structure written by MMmdl.
 53 55  0  0  0  0  0  0  0  0  1 V2000
  146.6592  137.4292  163.0571 C   0  0  0  0  0  0  0  0  0  0  0  0
  147.3257  136.6575  161.9260 C   0  0  0  0  0  0  0  0  0  0  0  0
  148.5326  136.7608  161.7066 O   0  0  0  0  0  0  0  0  0  0  0  0
  146.4567  135.8864  161.2493 O   0  0  0  0  0  0  0  0  0  0  0  0
  146.9093  135.0119  160.2253 C   0  0  0  0  0  0  0  0  0  0  0  0
  146.3446  135.4539  158.8659 C   0  0  2  0  0  0  0  0  0  0  0  0
  146.7382  134.5460  157.8422 O   0  0  0  0  0  0  0  0  0  0  0  0
  147.8815  135.0251  157.2251 C   0  0  1  0  0  0  0  0  0  0  0  0
  148.0566  134.3060  155.9066 N   0  0  0  0  0  0  0  0  0  0  0  0
  149.0908  133.4667  155.5150 C   0  0  0  0  0  0  0  0  0  0  0  0
  150.5356  132.9794  156.4642 S   0  0  0  0  0  0  0  0  0  0  0  0
  151.5119  134.5361  156.5483 C   0  0  0  0  0  0  0  0  0  0  0  0
  150.0798  132.6058  157.8103 O   0  0  0  0  0  0  0  0  0  0  0  0
  151.2760  132.0088  155.6421 O   0  0  0  0  0  0  0  0  0  0  0  0
  149.0499  133.0090  154.2945 N   0  0  0  0  0  0  0  0  0  0  0  0
  147.8954  133.5692  153.7808 C   0  0  0  0  0  0  0  0  0  0  0  0
  147.2552  133.4961  152.5178 C   0  0  0  0  0  0  0  0  0  0  0  0
  147.7306  132.7670  151.4988 N   0  0  0  0  0  0  0  0  0  0  0  0
  146.1148  134.1968  152.3273 N   0  0  0  0  0  0  0  0  0  0  0  0
  145.6272  134.9360  153.3259 C   0  0  0  0  0  0  0  0  0  0  0  0
  146.1173  135.0986  154.5564 N   0  0  0  0  0  0  0  0  0  0  0  0
  147.2662  134.3879  154.7640 C   0  0  0  0  0  0  0  0  0  0  0  0
  147.6552  136.5346  157.1343 C   0  0  2  0  0  0  0  0  0  0  0  0
  148.9026  137.2172  157.0973 O   0  0  0  0  0  0  0  0  0  0  0  0
  149.7714  137.0935  158.1157 C   0  0  0  0  0  0  0  0  0  0  0  0
  150.7656  138.2453  158.1726 C   0  0  0  0  0  0  0  0  0  0  0  0
  149.8003  136.1774  158.9373 O   0  0  0  0  0  0  0  0  0  0  0  0
  146.9110  136.8175  158.4338 C   0  0  1  0  0  0  0  0  0  0  0  0
  145.8755  137.7594  158.1848 O   0  0  0  0  0  0  0  0  0  0  0  0
  145.2534  138.3681  159.2078 C   0  0  0  0  0  0  0  0  0  0  0  0
  144.1856  139.3458  158.7368 C   0  0  0  0  0  0  0  0  0  0  0  0
  145.4807  138.1889  160.4044 O   0  0  0  0  0  0  0  0  0  0  0  0
  146.6924  136.8464  163.9778 H   0  0  0  0  0  0  0  0  0  0  0  0
  145.6169  137.6419  162.8182 H   0  0  0  0  0  0  0  0  0  0  0  0
  147.1737  138.3750  163.2273 H   0  0  0  0  0  0  0  0  0  0  0  0
  147.9974  135.0778  160.2027 H   0  0  0  0  0  0  0  0  0  0  0  0
  146.6686  133.9658  160.4192 H   0  0  0  0  0  0  0  0  0  0  0  0
  145.2549  135.4774  158.9121 H   0  0  0  0  0  0  0  0  0  0  0  0
  148.7663  134.7696  157.8072 H   0  0  0  0  0  0  0  0  0  0  0  0
  152.4566  134.3389  157.0542 H   0  0  0  0  0  0  0  0  0  0  0  0
  150.9651  135.2940  157.1045 H   0  0  0  0  0  0  0  0  0  0  0  0
  151.7102  134.8950  155.5389 H   0  0  0  0  0  0  0  0  0  0  0  0
  148.5829  132.2374  151.6140 H   0  0  0  0  0  0  0  0  0  0  0  0
  147.2343  132.7453  150.6198 H   0  0  0  0  0  0  0  0  0  0  0  0
  144.7154  135.4732  153.1104 H   0  0  0  0  0  0  0  0  0  0  0  0
  147.0078  136.7502  156.2840 H   0  0  0  0  0  0  0  0  0  0  0  0
  150.2564  139.1690  158.4477 H   0  0  0  0  0  0  0  0  0  0  0  0
  151.2408  138.3856  157.2016 H   0  0  0  0  0  0  0  0  0  0  0  0
  151.5419  138.0448  158.9111 H   0  0  0  0  0  0  0  0  0  0  0  0
  147.6124  137.1916  159.1822 H   0  0  0  0  0  0  0  0  0  0  0  0
  144.6472  140.1911  158.2259 H   0  0  0  0  0  0  0  0  0  0  0  0
  143.6116  139.7238  159.5830 H   0  0  0  0  0  0  0  0  0  0  0  0
  143.4996  138.8554  158.0459 H   0  0  0  0  0  0  0  0  0  0  0  0
  1  2  1  0  0  0  0
  1 33  1  0  0  0  0
  1 34  1  0  0  0  0
  1 35  1  0  0  0  0
  2  3  2  0  0  0  0
  2  4  1  0  0  0  0
  4  5  1  0  0  0  0
  5  6  1  0  0  0  0
  5 36  1  0  0  0  0
  5 37  1  0  0  0  0
  6 28  1  0  0  0  0
  6  7  1  0  0  0  0
  6 38  1  0  0  0  0
  7  8  1  0  0  0  0
  8  9  1  0  0  0  0
  8 23  1  0  0  0  0
  8 39  1  0  0  0  0
  9 22  1  0  0  0  0
  9 10  1  0  0  0  0
 10 11  1  0  0  0  0
 10 15  2  0  0  0  0
 11 12  1  0  0  0  0
 11 13  2  0  0  0  0
 11 14  2  0  0  0  0
 12 40  1  0  0  0  0
 12 41  1  0  0  0  0
 12 42  1  0  0  0  0
 15 16  1  0  0  0  0
 16 22  2  0  0  0  0
 16 17  1  0  0  0  0
 17 18  1  0  0  0  0
 17 19  2  0  0  0  0
 18 43  1  0  0  0  0
 18 44  1  0  0  0  0
 19 20  1  0  0  0  0
 20 21  2  0  0  0  0
 20 45  1  0  0  0  0
 21 22  1  0  0  0  0
 23 24  1  0  0  0  0
 23 28  1  0  0  0  0
 23 46  1  0  0  0  0
 24 25  1  0  0  0  0
 25 26  1  0  0  0  0
 25 27  2  0  0  0  0
 26 47  1  0  0  0  0
 26 48  1  0  0  0  0
 26 49  1  0  0  0  0
 28 29  1  0  0  0  0
 28 50  1  0  0  0  0
 29 30  1  0  0  0  0
 30 31  1  0  0  0  0
 30 32  2  0  0  0  0
 31 51  1  0  0  0  0
 31 52  1  0  0  0  0
 31 53  1  0  0  0  0
M  END
> <s_m_source_file>
AV-unprocessed.smi

> <i_m_source_file_index>
103

> <i_lp_mmshare_version>
43012

> <i_f3d_flags>
0

> <s_epik_input>
W0NIM11DKD1PKU9bQ0gyXVtDQEBIXTFPW0NASF0oW0NAQEhdKE9DKD1PKVtDSDNdKVtDQEhdMU9DKD1PKVtDSDNdKW4oYyhuMilTKD1PKSg9TylbQ0gzXSljKGMyMyluW2NIXW5jM1tOSDJd

> <s_epik_cmdline>
J2VwaWtfcHl0aG9uJywgJy1waCcsICc3LjAnLCAnLXRuJywgJzgnLCAnLW1hJywgJzIwMCcsICctbWV0YWxfYmluZGluZycsICctaW1hZScsICc8aW5maWxlLm1hZT4nLCAnLW9tYWUnLCAnPG91dGZpbGUubWFlPic=

> <r_lp_tautomer_probability>
1

> <r_epik_Ionization_Penalty>
1.51338e-05

> <r_epik_Ionization_Penalty_Charging>
0

> <r_epik_Ionization_Penalty_Neutral>
1.51338e-05

> <r_epik_State_Penalty>
-0

> <r_epik_Charging_Adjusted_Penalty>
0

> <i_epik_Tot_Q>
0

> <i_epik_Tot_abs_Q>
0

> <r_epik_Metal_State_Penalty>
-0

> <b_epik_Metal_Only>
0

> <s_epik_Chemistry_Notes>
This compound has an ester and may undergo hydrolysis at high or low pH. This compound contains an acetal/aminal-like group ( X-CH(R)-Y where X, Y are N, S, or O) that may be acid/base labile, releasing an aldehyde.

> <s_lp_Force_Field>
OPLS_2005

> <r_lp_Energy>
16.7775

> <b_lp_Chiralities_Consistent>
1

> <s_lp_Variant>
AV-unprocessed.smi:103-5

> <Gold.Version>
5.8.1

> <Gold.Id.Protein>
6NUR|6NUR_protein|mol2

> <Gold.PLP.Fitness>
35.6409

> <Gold.PLP.PLP>
-25.0228

> <Gold.PLP.part.hbond>
-5.0000

> <Gold.PLP.part.metal>
0.0000

> <Gold.PLP.part.buried>
-3.3904

> <Gold.PLP.part.nonpolar>
-16.2237

> <Gold.PLP.part.repulsive>
0.3101

> <Gold.PLP.ligand.clash>
0.0000

> <Gold.PLP.ligand.torsion>
2.0006

> <Gold.PLP.Chemscore.Hbond>
4.1520

> <Gold.PLP.Chemscore.CHOScore>
0.0000

> <Gold.PLP.Chemscore.Metal>
0.0000

> <Gold.Chemscore.Hbonds>
donor molecule, donor type, donor heavy atom, donor atom, acceptor molecule, acceptor atom, score
      L1  H    18    43       P1 10747  0.37
      P1  H  6896  6908       L1    13  1.00
      P1  H  6896  6909       L1    27  1.00
      P1  H  6931  6943       L1     3  1.00
      P1  H  6934  6947       L1    32  0.75

> <Gold.PLP.Chemscore.Internal.Correction>
2.1634

> <Gold.Rescore>
     Score         DG    S(hbond)    S(metal)    S(lipo)     H(rot)  DE(clash)    DE(int)     intcor
      4.05     -10.83       3.84        0.00      28.98       4.25       0.31       6.47       ----

> <Gold.Chemscore.Fitness>
4.0478

> <Gold.Chemscore.DG>
-10.8332

> <Gold.Chemscore.ZeroCoef>
-5.4800

> <Gold.Chemscore.Hbond>
3.8418

> <Gold.Chemscore.Metal>
0.0000

> <Gold.Chemscore.Lipo>
28.9751

> <Gold.Chemscore.Internal_Hbond>
0.0000

> <Gold.Chemscore.DEClash>
0.3105

> <Gold.Chemscore.DEInternal>
6.4748

> <Gold.Chemscore.Rot>
4.2456

> <Gold.Chemscore.Internal.Correction>
   9.000000E+99

> <Gold.Chemscore.Hbonds>
donor molecule, donor type, donor heavy atom, donor atom, acceptor molecule, acceptor atom, score
      L1  H    18    43       P1 10747  0.36
      P1  H  6896  6908       L1    13  0.73
      P1  H  6896  6909       L1    27  1.00
      P1  H  6931  6943       L1     3  0.80
      P1  H  6934  6947       L1    32  0.55

> <Gold.Chemscore.Hbond.Weighted>
-12.8317

> <Gold.Chemscore.Metal.Weighted>
-0.0000

> <Gold.Chemscore.Lipo.Weighted>
-3.3901

> <Gold.Chemscore.Internal_Hbond.Weighted>
0.0000

> <Gold.Chemscore.DEClash.Weighted>
0.3105

> <Gold.Chemscore.DEInternal.Weighted>
6.4748

> <Gold.Chemscore.Rot.Weighted>
10.8687

> <Gold.Chemscore.Internal.Correction.Weighted>
   9.000000E+99

> <Gold.Protein.RotatedTorsions>
[ 6907 6896 6895 6894 ] final   81.63 input  -60.11 | X-H torsion
[ 7974 7965 7964 7962 ] final    9.43 input  175.53 | X-H torsion
[ 8008 7997 7996 7995 ] final -168.51 input   59.86 | X-H torsion
[ 10167 10162 10161 10158 ] final   88.09 input  -65.29 | X-H torsion
[ 10718 10713 10712 10709 ] final    9.36 input   66.30 | X-H torsion
[ 10763 10752 10751 10750 ] final   47.89 input  -60.55 | X-H torsion
[ 11005 11000 10999 10996 ] final  -85.72 input  -57.11 | X-H torsion

> <Gold.Protein.ActiveResidues>
 VAL166  LYS551  ARG553  GLY616  TRP617  ASP618  TYR619  PRO620  LYS621  CYS622 
 ASP623  PHE694  ASN695  SER759  ASP760  ASP761  ALA762  ILE779  LEU786  VAL792 
 PHE793  MET794  SER795  GLU796  ALA797  LYS798  CYS799  TRP800  GLU811  SER814 

> <Gold.Protein.RotatedAtoms>
  152.5274  134.3175  159.9135 H   0  0  0  0  0  0  0  0  0  0  0  0  # atno 6907 bound_to 6896
  151.3124  133.4068  159.2655 H   0  0  0  0  0  0  0  0  0  0  0  0  # atno 6908 bound_to 6896
  151.0027  134.9352  159.8020 H   0  0  0  0  0  0  0  0  0  0  0  0  # atno 6909 bound_to 6896
  146.2403  139.9785  142.8439 H   0  0  0  0  0  0  0  0  0  0  0  0  # atno 7974 bound_to 7965
  155.8923  140.1027  157.1409 H   0  0  0  0  0  0  0  0  0  0  0  0  # atno 8008 bound_to 7997
  154.4016  140.1308  156.4395 H   0  0  0  0  0  0  0  0  0  0  0  0  # atno 8009 bound_to 7997
  155.7519  140.3465  155.5157 H   0  0  0  0  0  0  0  0  0  0  0  0  # atno 8010 bound_to 7997
  139.8707  144.6494  150.8952 H   0  0  0  0  0  0  0  0  0  0  0  0  # atno 10167 bound_to 10162
  156.9652  130.5948  149.5665 H   0  0  0  0  0  0  0  0  0  0  0  0  # atno 10718 bound_to 10713
  152.9796  135.5962  154.3836 H   0  0  0  0  0  0  0  0  0  0  0  0  # atno 10763 bound_to 10752
  154.3498  135.2767  155.2380 H   0  0  0  0  0  0  0  0  0  0  0  0  # atno 10764 bound_to 10752
  154.4424  135.6010  153.6193 H   0  0  0  0  0  0  0  0  0  0  0  0  # atno 10765 bound_to 10752
  141.1638  133.7415  156.9057 H   0  0  0  0  0  0  0  0  0  0  0  0  # atno 11005 bound_to 11000
  145.1614  140.9675  143.4375 LP  0  0  0  0  0  0  0  0  0  0  0  0  # atno 17320 bound_to 7965
  145.0112  139.3508  143.6119 LP  0  0  0  0  0  0  0  0  0  0  0  0  # atno 17321 bound_to 7965
  140.7761  143.3666  151.1727 LP  0  0  0  0  0  0  0  0  0  0  0  0  # atno 17342 bound_to 10162
  139.7286  143.9108  152.3011 LP  0  0  0  0  0  0  0  0  0  0  0  0  # atno 17343 bound_to 10162
  156.0305  130.5397  150.8522 LP  0  0  0  0  0  0  0  0  0  0  0  0  # atno 17370 bound_to 10713
  157.5630  131.0946  150.9531 LP  0  0  0  0  0  0  0  0  0  0  0  0  # atno 17371 bound_to 10713
  140.1552  134.9203  157.2644 LP  0  0  0  0  0  0  0  0  0  0  0  0  # atno 17394 bound_to 11000
  140.2676  134.3498  155.7384 LP  0  0  0  0  0  0  0  0  0  0  0  0  # atno 17395 bound_to 11000

$$$$
