AV-unprocessed.smi:694|AV-procd|sdf|3380|dock8
  -GOLD-   22720 0363D 1   1.00000     0.00000
 Structure written by MMmdl.
 42 43  0  0  0  0  0  0  0  0  1 V2000
  152.7976  140.9335  158.8655 C   0  0  0  0  0  0  0  0  0  0  0  0
  151.9093  141.7212  158.0166 N   0  0  0  0  0  0  0  0  0  0  0  0
  151.8255  143.1647  158.1974 C   0  0  0  0  0  0  0  0  0  0  0  0
  151.2177  141.0965  156.9534 C   0  0  0  0  0  0  0  0  0  0  0  0
  150.2835  141.8068  156.1598 C   0  0  0  0  0  0  0  0  0  0  0  0
  149.6261  141.1391  155.1093 C   0  0  0  0  0  0  0  0  0  0  0  0
  149.9134  139.7829  154.8640 C   0  0  0  0  0  0  0  0  0  0  0  0
  149.2223  139.1394  153.8011 N   0  0  0  0  0  0  0  0  0  0  0  0
  147.9746  139.3580  153.3511 C   0  0  0  0  0  0  0  0  0  0  0  0
  147.1848  140.1850  153.8051 O   0  0  0  0  0  0  0  0  0  0  0  0
  147.6774  138.5363  152.3346 N   0  0  0  0  0  0  0  0  0  0  0  0
  146.4009  138.5045  151.6281 C   0  0  0  0  0  0  0  0  0  0  0  0
  145.6076  137.2127  151.9122 C   0  0  2  0  0  0  0  0  0  0  0  0
  145.9727  136.5304  153.2406 C   0  0  0  0  0  0  0  0  0  0  0  0
  145.7230  135.0269  153.0404 C   0  0  0  0  0  0  0  0  0  0  0  0
  145.3349  134.8445  151.5684 C   0  0  0  0  0  0  0  0  0  0  0  0
  145.8264  136.1124  150.8692 C   0  0  1  0  0  0  0  0  0  0  0  0
  145.1087  136.3525  149.6763 O   0  0  0  0  0  0  0  0  0  0  0  0
  150.8490  139.1500  155.7159 C   0  0  0  0  0  0  0  0  0  0  0  0
  151.4807  139.7868  156.7243 N   0  0  0  0  0  0  0  0  0  0  0  0
  153.6029  140.4961  158.2744 H   0  0  0  0  0  0  0  0  0  0  0  0
  152.2481  140.1277  159.3535 H   0  0  0  0  0  0  0  0  0  0  0  0
  153.2503  141.5461  159.6452 H   0  0  0  0  0  0  0  0  0  0  0  0
  150.7980  143.4660  158.4022 H   0  0  0  0  0  0  0  0  0  0  0  0
  152.1715  143.6847  157.3037 H   0  0  0  0  0  0  0  0  0  0  0  0
  152.4412  143.4962  159.0335 H   0  0  0  0  0  0  0  0  0  0  0  0
  150.0577  142.8477  156.3344 H   0  0  0  0  0  0  0  0  0  0  0  0
  148.9106  141.6688  154.4974 H   0  0  0  0  0  0  0  0  0  0  0  0
  149.7231  138.3821  153.3599 H   0  0  0  0  0  0  0  0  0  0  0  0
  148.3838  137.8837  152.0276 H   0  0  0  0  0  0  0  0  0  0  0  0
  145.8089  139.3804  151.8987 H   0  0  0  0  0  0  0  0  0  0  0  0
  146.6052  138.5909  150.5606 H   0  0  0  0  0  0  0  0  0  0  0  0
  144.5408  137.4436  151.9401 H   0  0  0  0  0  0  0  0  0  0  0  0
  147.0261  136.6916  153.4738 H   0  0  0  0  0  0  0  0  0  0  0  0
  145.3926  136.9343  154.0712 H   0  0  0  0  0  0  0  0  0  0  0  0
  146.6299  134.4654  153.2682 H   0  0  0  0  0  0  0  0  0  0  0  0
  144.9373  134.6569  153.6998 H   0  0  0  0  0  0  0  0  0  0  0  0
  145.7533  133.9370  151.1321 H   0  0  0  0  0  0  0  0  0  0  0  0
  144.2485  134.7747  151.4929 H   0  0  0  0  0  0  0  0  0  0  0  0
  146.8890  136.0167  150.6408 H   0  0  0  0  0  0  0  0  0  0  0  0
  144.5366  137.0921  149.8128 H   0  0  0  0  0  0  0  0  0  0  0  0
  151.1017  138.1063  155.6203 H   0  0  0  0  0  0  0  0  0  0  0  0
  1  2  1  0  0  0  0
  1 21  1  0  0  0  0
  1 22  1  0  0  0  0
  1 23  1  0  0  0  0
  2  3  1  0  0  0  0
  2  4  1  0  0  0  0
  3 24  1  0  0  0  0
  3 25  1  0  0  0  0
  3 26  1  0  0  0  0
  4 20  1  0  0  0  0
  4  5  2  0  0  0  0
  5  6  1  0  0  0  0
  5 27  1  0  0  0  0
  6  7  2  0  0  0  0
  6 28  1  0  0  0  0
  7  8  1  0  0  0  0
  7 19  1  0  0  0  0
  8  9  1  0  0  0  0
  8 29  1  0  0  0  0
  9 10  2  0  0  0  0
  9 11  1  0  0  0  0
 11 12  1  0  0  0  0
 11 30  1  0  0  0  0
 12 13  1  0  0  0  0
 12 31  1  0  0  0  0
 12 32  1  0  0  0  0
 13 17  1  0  0  0  0
 13 14  1  0  0  0  0
 13 33  1  0  0  0  0
 14 15  1  0  0  0  0
 14 34  1  0  0  0  0
 14 35  1  0  0  0  0
 15 16  1  0  0  0  0
 15 36  1  0  0  0  0
 15 37  1  0  0  0  0
 16 17  1  0  0  0  0
 16 38  1  0  0  0  0
 16 39  1  0  0  0  0
 17 18  1  0  0  0  0
 17 40  1  0  0  0  0
 18 41  1  0  0  0  0
 19 20  2  0  0  0  0
 19 42  1  0  0  0  0
M  END
> <s_m_source_file>
AV-unprocessed.smi

> <i_m_source_file_index>
694

> <i_lp_mmshare_version>
43012

> <i_f3d_flags>
0

> <s_epik_input>
W0NIM11OKFtDSDNdKWMxW2NIXVtjSF1jKFtjSF1uMSlbTkhdQyg9TylbTkhdW0NIMl1bQ0BASF0yW0NIMl1bQ0gyXVtDSDJdW0NASF0yW09IXQ==

> <s_epik_cmdline>
J2VwaWtfcHl0aG9uJywgJy1waCcsICc3LjAnLCAnLXRuJywgJzgnLCAnLW1hJywgJzIwMCcsICctbWV0YWxfYmluZGluZycsICctaW1hZScsICc8aW5maWxlLm1hZT4nLCAnLW9tYWUnLCAnPG91dGZpbGUubWFlPic=

> <r_lp_tautomer_probability>
1

> <r_epik_Ionization_Penalty>
0.60335

> <r_epik_Ionization_Penalty_Charging>
0

> <r_epik_Ionization_Penalty_Neutral>
0.60335

> <r_epik_State_Penalty>
0.616805

> <r_epik_Charging_Adjusted_Penalty>
0.616805

> <i_epik_Tot_Q>
0

> <i_epik_Tot_abs_Q>
0

> <r_epik_Metal_State_Penalty>
0.301709

> <b_epik_Metal_Only>
0

> <s_lp_Force_Field>
OPLS_2005

> <r_lp_Energy>
26.6001

> <b_lp_Chiralities_Consistent>
1

> <s_lp_Variant>
AV-unprocessed.smi:694-5

> <Gold.Version>
5.8.1

> <Gold.Id.Protein>
6NUR|6NUR_protein|mol2

> <Gold.PLP.Fitness>
40.0456

> <Gold.PLP.PLP>
-35.5605

> <Gold.PLP.part.hbond>
-5.0000

> <Gold.PLP.part.metal>
0.0000

> <Gold.PLP.part.buried>
-0.4199

> <Gold.PLP.part.nonpolar>
-31.2632

> <Gold.PLP.part.repulsive>
0.3254

> <Gold.PLP.ligand.clash>
0.0000

> <Gold.PLP.ligand.torsion>
0.7640

> <Gold.PLP.Chemscore.Hbond>
2.0000

> <Gold.PLP.Chemscore.CHOScore>
0.0000

> <Gold.PLP.Chemscore.Metal>
0.0000

> <Gold.Chemscore.Hbonds>
donor molecule, donor type, donor heavy atom, donor atom, acceptor molecule, acceptor atom, score
      L1  H    11    30       P1  7948  1.00
      L1  H    18    41       P1 10171  1.00

> <Gold.PLP.Chemscore.Internal.Correction>
0.0131

> <Gold.Rescore>
     Score         DG    S(hbond)    S(metal)    S(lipo)     H(rot)  DE(clash)    DE(int)     intcor
     14.29     -16.27       1.97        0.00      73.84       1.73       0.08       1.91       ----

> <Gold.Chemscore.Fitness>
14.2879

> <Gold.Chemscore.DG>
-16.2698

> <Gold.Chemscore.ZeroCoef>
-5.4800

> <Gold.Chemscore.Hbond>
1.9668

> <Gold.Chemscore.Metal>
0.0000

> <Gold.Chemscore.Lipo>
73.8381

> <Gold.Chemscore.Internal_Hbond>
0.0000

> <Gold.Chemscore.DEClash>
0.0756

> <Gold.Chemscore.DEInternal>
1.9063

> <Gold.Chemscore.Rot>
1.7259

> <Gold.Chemscore.Internal.Correction>
   9.000000E+99

> <Gold.Chemscore.Hbonds>
donor molecule, donor type, donor heavy atom, donor atom, acceptor molecule, acceptor atom, score
      L1  H    11    30       P1  7948  0.95
      L1  H    18    41       P1 10171  0.99

> <Gold.Chemscore.Hbond.Weighted>
-6.5691

> <Gold.Chemscore.Metal.Weighted>
-0.0000

> <Gold.Chemscore.Lipo.Weighted>
-8.6391

> <Gold.Chemscore.Internal_Hbond.Weighted>
0.0000

> <Gold.Chemscore.DEClash.Weighted>
0.0756

> <Gold.Chemscore.DEInternal.Weighted>
1.9063

> <Gold.Chemscore.Rot.Weighted>
4.4184

> <Gold.Chemscore.Internal.Correction.Weighted>
   9.000000E+99

> <Gold.Protein.RotatedTorsions>
[ 6907 6896 6895 6894 ] final -148.22 input  -60.11 | X-H torsion
[ 7974 7965 7964 7962 ] final -100.82 input  175.53 | X-H torsion
[ 8008 7997 7996 7995 ] final  108.00 input   59.86 | X-H torsion
[ 10167 10162 10161 10158 ] final  150.53 input  -65.29 | X-H torsion
[ 10718 10713 10712 10709 ] final  -63.34 input   66.30 | X-H torsion
[ 10763 10752 10751 10750 ] final   20.37 input  -60.55 | X-H torsion
[ 11005 11000 10999 10996 ] final  148.71 input  -57.11 | X-H torsion

> <Gold.Protein.ActiveResidues>
 VAL166  LYS551  ARG553  GLY616  TRP617  ASP618  TYR619  PRO620  LYS621  CYS622 
 ASP623  PHE694  ASN695  SER759  ASP760  ASP761  ALA762  ILE779  LEU786  VAL792 
 PHE793  MET794  SER795  GLU796  ALA797  LYS798  CYS799  TRP800  GLU811  SER814 

> <Gold.Protein.RotatedAtoms>
  151.1667  133.4810  159.2593 H   0  0  0  0  0  0  0  0  0  0  0  0  # atno 6907 bound_to 6896
  151.1398  135.0173  159.8630 H   0  0  0  0  0  0  0  0  0  0  0  0  # atno 6908 bound_to 6896
  152.5462  134.1561  159.8592 H   0  0  0  0  0  0  0  0  0  0  0  0  # atno 6909 bound_to 6896
  145.2896  140.9349  143.2885 H   0  0  0  0  0  0  0  0  0  0  0  0  # atno 7974 bound_to 7965
  156.1868  140.3084  155.9255 H   0  0  0  0  0  0  0  0  0  0  0  0  # atno 8008 bound_to 7997
  155.3262  140.0458  157.3058 H   0  0  0  0  0  0  0  0  0  0  0  0  # atno 8009 bound_to 7997
  154.5405  140.2260  155.8658 H   0  0  0  0  0  0  0  0  0  0  0  0  # atno 8010 bound_to 7997
  139.4849  144.5514  151.7394 H   0  0  0  0  0  0  0  0  0  0  0  0  # atno 10167 bound_to 10162
  156.0797  130.4219  150.1263 H   0  0  0  0  0  0  0  0  0  0  0  0  # atno 10718 bound_to 10713
  153.1083  135.6690  153.9546 H   0  0  0  0  0  0  0  0  0  0  0  0  # atno 10763 bound_to 10752
  153.9096  135.3026  155.3450 H   0  0  0  0  0  0  0  0  0  0  0  0  # atno 10764 bound_to 10752
  154.7504  135.5037  153.9355 H   0  0  0  0  0  0  0  0  0  0  0  0  # atno 10765 bound_to 10752
  140.0983  134.8999  157.1756 H   0  0  0  0  0  0  0  0  0  0  0  0  # atno 11005 bound_to 11000
  144.9184  139.4442  143.6553 LP  0  0  0  0  0  0  0  0  0  0  0  0  # atno 17320 bound_to 7965
  146.3189  139.8030  142.8961 LP  0  0  0  0  0  0  0  0  0  0  0  0  # atno 17321 bound_to 7965
  140.5069  144.1084  150.5985 LP  0  0  0  0  0  0  0  0  0  0  0  0  # atno 17342 bound_to 10162
  140.3997  143.2710  151.9963 LP  0  0  0  0  0  0  0  0  0  0  0  0  # atno 17343 bound_to 10162
  156.9297  130.9710  151.3535 LP  0  0  0  0  0  0  0  0  0  0  0  0  # atno 17370 bound_to 10713
  157.5909  130.8443  149.8657 LP  0  0  0  0  0  0  0  0  0  0  0  0  # atno 17371 bound_to 10713
  140.3256  134.2867  155.7237 LP  0  0  0  0  0  0  0  0  0  0  0  0  # atno 17394 bound_to 11000
  141.2098  133.7737  156.9972 LP  0  0  0  0  0  0  0  0  0  0  0  0  # atno 17395 bound_to 11000

$$$$
