AV-unprocessed.smi:1220|AV-procd|sdf|5116|dock1
  -GOLD-   22720 4173D 1   1.00000     0.00000
 Structure written by MMmdl.
 35 36  0  0  0  0  0  0  0  0  1 V2000
  149.0379  141.0113  157.4518 C   0  0  0  0  0  0  0  0  0  0  0  0
  150.5659  141.1069  157.5562 C   0  0  2  0  0  0  0  0  0  0  0  0
  151.0853  142.4496  156.9976 C   0  0  0  0  0  0  0  0  0  0  0  0
  151.5447  143.3507  158.0409 N   0  0  0  0  0  0  0  0  0  0  0  0
  151.0804  144.6120  158.3495 C   0  0  0  0  0  0  0  0  0  0  0  0
  151.7970  145.0574  159.4231 C   0  0  0  0  0  0  0  0  0  0  0  0
  152.6927  143.9870  159.6995 C   0  0  0  0  0  0  0  0  0  0  0  0
  152.5428  142.9690  158.8677 N   0  0  0  0  0  0  0  0  0  0  0  0
  151.1640  139.9793  156.8419 N   0  0  0  0  0  0  0  0  0  0  0  0
  151.0217  139.7199  155.5319 C   0  0  0  0  0  0  0  0  0  0  0  0
  150.4037  140.4557  154.7616 O   0  0  0  0  0  0  0  0  0  0  0  0
  151.6601  138.4195  155.0198 C   0  0  1  0  0  0  0  0  0  0  0  0
  153.1670  138.3639  155.3620 C   0  0  0  0  0  0  0  0  0  0  0  0
  153.3510  137.8488  156.7930 C   0  0  0  0  0  0  0  0  0  0  0  0
  152.0127  136.6264  157.0398 S   0  0  0  0  0  0  0  0  0  0  0  0
  152.5286  135.2797  156.7502 O   0  0  0  0  0  0  0  0  0  0  0  0
  151.3205  136.9146  158.3050 O   0  0  0  0  0  0  0  0  0  0  0  0
  150.9769  137.1752  155.6258 C   0  0  0  0  0  0  0  0  0  0  0  0
  148.5565  141.8213  158.0005 H   0  0  0  0  0  0  0  0  0  0  0  0
  148.6735  140.0713  157.8676 H   0  0  0  0  0  0  0  0  0  0  0  0
  148.7051  141.0684  156.4148 H   0  0  0  0  0  0  0  0  0  0  0  0
  150.8191  141.0499  158.6164 H   0  0  0  0  0  0  0  0  0  0  0  0
  151.8959  142.2807  156.2865 H   0  0  0  0  0  0  0  0  0  0  0  0
  150.2912  142.9562  156.4476 H   0  0  0  0  0  0  0  0  0  0  0  0
  150.2811  145.0771  157.7917 H   0  0  0  0  0  0  0  0  0  0  0  0
  151.6950  146.0027  159.9351 H   0  0  0  0  0  0  0  0  0  0  0  0
  153.4419  143.9195  160.4744 H   0  0  0  0  0  0  0  0  0  0  0  0
  151.6898  139.3202  157.3974 H   0  0  0  0  0  0  0  0  0  0  0  0
  151.5388  138.3957  153.9355 H   0  0  0  0  0  0  0  0  0  0  0  0
  153.6536  137.6712  154.6743 H   0  0  0  0  0  0  0  0  0  0  0  0
  153.6589  139.3279  155.2257 H   0  0  0  0  0  0  0  0  0  0  0  0
  154.3236  137.3869  156.9633 H   0  0  0  0  0  0  0  0  0  0  0  0
  153.2151  138.6533  157.5163 H   0  0  0  0  0  0  0  0  0  0  0  0
  149.9580  137.3574  155.9708 H   0  0  0  0  0  0  0  0  0  0  0  0
  150.9420  136.3632  154.8996 H   0  0  0  0  0  0  0  0  0  0  0  0
  1  2  1  0  0  0  0
  1 19  1  0  0  0  0
  1 20  1  0  0  0  0
  1 21  1  0  0  0  0
  2  3  1  0  0  0  0
  2  9  1  0  0  0  0
  2 22  1  0  0  0  0
  3  4  1  0  0  0  0
  3 23  1  0  0  0  0
  3 24  1  0  0  0  0
  4  8  1  0  0  0  0
  4  5  1  0  0  0  0
  5  6  2  0  0  0  0
  5 25  1  0  0  0  0
  6  7  1  0  0  0  0
  6 26  1  0  0  0  0
  7  8  2  0  0  0  0
  7 27  1  0  0  0  0
  9 10  1  0  0  0  0
  9 28  1  0  0  0  0
 10 11  2  0  0  0  0
 10 12  1  0  0  0  0
 12 18  1  0  0  0  0
 12 13  1  0  0  0  0
 12 29  1  0  0  0  0
 13 14  1  0  0  0  0
 13 30  1  0  0  0  0
 13 31  1  0  0  0  0
 14 15  1  0  0  0  0
 14 32  1  0  0  0  0
 14 33  1  0  0  0  0
 15 16  2  0  0  0  0
 15 17  2  0  0  0  0
 15 18  1  0  0  0  0
 18 34  1  0  0  0  0
 18 35  1  0  0  0  0
M  END
> <s_m_source_file>
AV-unprocessed.smi

> <i_m_source_file_index>
1220

> <i_lp_mmshare_version>
43012

> <i_f3d_flags>
0

> <s_epik_input>
bjFbY0hdW2NIXVtjSF1uMVtDSDJdW0NAQEhdKFtDSDNdKVtOSF1DKD1PKVtDQEBIXShbQ0gyXTIpW0NIMl1bQ0gyXVMyKD1PKT1P

> <s_epik_cmdline>
J2VwaWtfcHl0aG9uJywgJy1waCcsICc3LjAnLCAnLXRuJywgJzgnLCAnLW1hJywgJzIwMCcsICctbWV0YWxfYmluZGluZycsICctaW1hZScsICc8aW5maWxlLm1hZT4nLCAnLW9tYWUnLCAnPG91dGZpbGUubWFlPic=

> <r_lp_tautomer_probability>
1

> <r_epik_Ionization_Penalty>
0.000293905

> <r_epik_Ionization_Penalty_Charging>
0

> <r_epik_Ionization_Penalty_Neutral>
0.000293905

> <r_epik_State_Penalty>
-0

> <r_epik_Charging_Adjusted_Penalty>
0

> <i_epik_Tot_Q>
0

> <i_epik_Tot_abs_Q>
0

> <r_epik_Metal_State_Penalty>
-0

> <b_epik_Metal_Only>
0

> <s_lp_Force_Field>
OPLS_2005

> <r_lp_Energy>
1.9569

> <b_lp_Chiralities_Consistent>
1

> <s_lp_Variant>
AV-unprocessed.smi:1220-3

> <Gold.Version>
5.8.1

> <Gold.Id.Protein>
6NUR|6NUR_protein|mol2

> <Gold.PLP.Fitness>
42.6528

> <Gold.PLP.PLP>
-35.0152

> <Gold.PLP.part.hbond>
-2.4371

> <Gold.PLP.part.metal>
0.0000

> <Gold.PLP.part.buried>
-6.4487

> <Gold.PLP.part.nonpolar>
-27.6191

> <Gold.PLP.part.repulsive>
0.1594

> <Gold.PLP.ligand.clash>
0.0000

> <Gold.PLP.ligand.torsion>
0.7473

> <Gold.PLP.Chemscore.Hbond>
2.1274

> <Gold.PLP.Chemscore.CHOScore>
0.9063

> <Gold.PLP.Chemscore.Metal>
0.0000

> <Gold.Chemscore.Hbonds>
donor molecule, donor type, donor heavy atom, donor atom, acceptor molecule, acceptor atom, score
      P1  H  6896  6907       L1    17  0.06
      P1  H  7989  7998       L1    11  1.00
      P1  H 10752 10764       L1    16  1.00
      L1  C     5    25       P1  8028  0.54
      L1  C     5    25       P1  8029  0.40

> <Gold.PLP.Chemscore.Internal.Correction>
0.0313

> <Gold.Rescore>
     Score         DG    S(hbond)    S(metal)    S(lipo)     H(rot)  DE(clash)    DE(int)     intcor
     13.31     -15.04       1.32        0.00      82.14       1.75       0.10       1.63       ----

> <Gold.Chemscore.Fitness>
13.3080

> <Gold.Chemscore.DG>
-15.0393

> <Gold.Chemscore.ZeroCoef>
-5.4800

> <Gold.Chemscore.Hbond>
1.3228

> <Gold.Chemscore.Metal>
0.0000

> <Gold.Chemscore.Lipo>
82.1433

> <Gold.Chemscore.Internal_Hbond>
0.0000

> <Gold.Chemscore.DEClash>
0.0973

> <Gold.Chemscore.DEInternal>
1.6339

> <Gold.Chemscore.Rot>
1.7460

> <Gold.Chemscore.Internal.Correction>
   9.000000E+99

> <Gold.Chemscore.Hbonds>
donor molecule, donor type, donor heavy atom, donor atom, acceptor molecule, acceptor atom, score
      P1  H  6896  6907       L1    17  0.09
      P1  H  7989  7998       L1    11  0.43
      P1  H 10752 10764       L1    16  0.55

> <Gold.Chemscore.Hbond.Weighted>
-4.4182

> <Gold.Chemscore.Metal.Weighted>
-0.0000

> <Gold.Chemscore.Lipo.Weighted>
-9.6108

> <Gold.Chemscore.Internal_Hbond.Weighted>
0.0000

> <Gold.Chemscore.DEClash.Weighted>
0.0973

> <Gold.Chemscore.DEInternal.Weighted>
1.6339

> <Gold.Chemscore.Rot.Weighted>
4.4697

> <Gold.Chemscore.Internal.Correction.Weighted>
   9.000000E+99

> <Gold.Protein.RotatedTorsions>
[ 6907 6896 6895 6894 ] final  -29.47 input  -60.11 | X-H torsion
[ 7974 7965 7964 7962 ] final  125.37 input  175.53 | X-H torsion
[ 8008 7997 7996 7995 ] final -122.79 input   59.86 | X-H torsion
[ 10167 10162 10161 10158 ] final  155.90 input  -65.29 | X-H torsion
[ 10718 10713 10712 10709 ] final -110.97 input   66.30 | X-H torsion
[ 10763 10752 10751 10750 ] final  -16.55 input  -60.55 | X-H torsion
[ 11005 11000 10999 10996 ] final  -35.53 input  -57.11 | X-H torsion

> <Gold.Protein.ActiveResidues>
 VAL166  LYS551  ARG553  GLY616  TRP617  ASP618  TYR619  PRO620  LYS621  CYS622 
 ASP623  PHE694  ASN695  SER759  ASP760  ASP761  ALA762  ILE779  LEU786  VAL792 
 PHE793  MET794  SER795  GLU796  ALA797  LYS798  CYS799  TRP800  GLU811  SER814 

> <Gold.Protein.RotatedAtoms>
  151.1187  135.0067  159.8528 H   0  0  0  0  0  0  0  0  0  0  0  0  # atno 6907 bound_to 6896
  152.5447  134.1748  159.8622 H   0  0  0  0  0  0  0  0  0  0  0  0  # atno 6908 bound_to 6896
  151.1805  133.4683  159.2627 H   0  0  0  0  0  0  0  0  0  0  0  0  # atno 6909 bound_to 6896
  145.0738  139.3709  143.4944 H   0  0  0  0  0  0  0  0  0  0  0  0  # atno 7974 bound_to 7965
  155.1700  140.0408  157.2861 H   0  0  0  0  0  0  0  0  0  0  0  0  # atno 8008 bound_to 7997
  154.6276  140.2516  155.7446 H   0  0  0  0  0  0  0  0  0  0  0  0  # atno 8009 bound_to 7997
  156.2467  140.2882  156.0613 H   0  0  0  0  0  0  0  0  0  0  0  0  # atno 8010 bound_to 7997
  139.4821  144.5057  151.8101 H   0  0  0  0  0  0  0  0  0  0  0  0  # atno 10167 bound_to 10162
  156.0620  130.5843  150.8310 H   0  0  0  0  0  0  0  0  0  0  0  0  # atno 10718 bound_to 10713
  153.5602  135.7010  153.5551 H   0  0  0  0  0  0  0  0  0  0  0  0  # atno 10763 bound_to 10752
  153.3436  135.4014  155.1591 H   0  0  0  0  0  0  0  0  0  0  0  0  # atno 10764 bound_to 10752
  154.8649  135.3748  154.5119 H   0  0  0  0  0  0  0  0  0  0  0  0  # atno 10765 bound_to 10752
  140.9803  133.7060  156.1673 H   0  0  0  0  0  0  0  0  0  0  0  0  # atno 11005 bound_to 11000
  146.3529  140.0495  142.8637 LP  0  0  0  0  0  0  0  0  0  0  0  0  # atno 17320 bound_to 7965
  145.1260  140.9490  143.4572 LP  0  0  0  0  0  0  0  0  0  0  0  0  # atno 17321 bound_to 7965
  140.4555  144.1795  150.5901 LP  0  0  0  0  0  0  0  0  0  0  0  0  # atno 17342 bound_to 10162
  140.4540  143.2475  151.9310 LP  0  0  0  0  0  0  0  0  0  0  0  0  # atno 17343 bound_to 10162
  157.5636  131.0946  150.9522 LP  0  0  0  0  0  0  0  0  0  0  0  0  # atno 17370 bound_to 10713
  156.9754  130.5507  149.5293 LP  0  0  0  0  0  0  0  0  0  0  0  0  # atno 17371 bound_to 10713
  140.7196  134.4373  157.5576 LP  0  0  0  0  0  0  0  0  0  0  0  0  # atno 17394 bound_to 11000
  139.8947  134.8699  156.2163 LP  0  0  0  0  0  0  0  0  0  0  0  0  # atno 17395 bound_to 11000

$$$$
