AV-unprocessed.smi:1552|AV-procd|sdf|6234|dock2
  -GOLD-   22720 6413D 1   1.00000     0.00000
 Structure written by MMmdl.
 50 51  0  0  0  0  0  0  0  0  2 V2000
  146.6347  138.7211  152.3981 C   0  0  0  0  0  0  0  0  0  0  0  0
  146.4262  137.3947  151.7699 N   0  3  0  0  0  0  0  0  0  0  0  0
  146.0869  137.5091  150.3321 C   0  0  0  0  0  0  0  0  0  0  0  0
  145.5467  136.4464  152.5228 C   0  0  2  0  0  0  0  0  0  0  0  0
  146.1490  136.0166  153.8901 C   0  0  0  0  0  0  0  0  0  0  0  0
  147.5563  136.3805  154.0349 N   0  0  0  0  0  0  0  0  0  0  0  0
  148.1009  137.1081  155.0224 C   0  0  0  0  0  0  0  0  0  0  0  0
  147.4039  137.5323  155.9428 O   0  0  0  0  0  0  0  0  0  0  0  0
  149.6165  137.3864  154.9982 C   0  0  0  0  0  0  0  0  0  0  0  0
  150.0482  138.3349  156.0358 N   0  0  0  0  0  0  0  0  0  0  0  0
  149.8395  138.0482  157.3777 C   0  0  0  0  0  0  0  0  0  0  0  0
  150.2022  138.8796  158.3832 C   0  0  0  0  0  0  0  0  0  0  0  0
  150.8484  140.1546  158.0908 C   0  0  0  0  0  0  0  0  0  0  0  0
  151.2144  140.9733  158.9311 O   0  0  0  0  0  0  0  0  0  0  0  0
  151.0383  140.4082  156.7296 N   0  0  0  0  0  0  0  0  0  0  0  0
  150.6652  139.5569  155.6885 C   0  0  0  0  0  0  0  0  0  0  0  0
  150.8746  139.8799  154.5197 O   0  0  0  0  0  0  0  0  0  0  0  0
  145.0625  135.2694  151.6225 C   0  0  0  0  0  0  0  0  0  0  0  0
  143.8988  134.4834  152.2765 C   0  0  0  0  0  0  0  0  0  0  0  0
  143.4170  133.3204  151.3947 C   0  0  0  0  0  0  0  0  0  0  0  0
  144.5677  132.3629  151.0595 C   0  0  0  0  0  0  0  0  0  0  0  0
  145.7297  133.1184  150.4018 C   0  0  0  0  0  0  0  0  0  0  0  0
  146.2081  134.2843  151.2821 C   0  0  0  0  0  0  0  0  0  0  0  0
  151.4800  141.2809  156.4789 H   0  0  0  0  0  0  0  0  0  0  0  0
  145.7344  139.3339  152.3461 H   0  0  0  0  0  0  0  0  0  0  0  0
  147.4300  139.2595  151.8820 H   0  0  0  0  0  0  0  0  0  0  0  0
  146.9318  138.6284  153.4423 H   0  0  0  0  0  0  0  0  0  0  0  0
  145.1297  138.0087  150.1829 H   0  0  0  0  0  0  0  0  0  0  0  0
  146.0402  136.5271  149.8607 H   0  0  0  0  0  0  0  0  0  0  0  0
  146.8499  138.0851  149.8079 H   0  0  0  0  0  0  0  0  0  0  0  0
  144.6455  137.0135  152.7616 H   0  0  0  0  0  0  0  0  0  0  0  0
  145.5643  136.4273  154.7131 H   0  0  0  0  0  0  0  0  0  0  0  0
  146.0759  134.9329  153.9883 H   0  0  0  0  0  0  0  0  0  0  0  0
  148.1833  136.0409  153.3198 H   0  0  0  0  0  0  0  0  0  0  0  0
  150.1419  136.4380  155.1208 H   0  0  0  0  0  0  0  0  0  0  0  0
  149.9142  137.7588  154.0163 H   0  0  0  0  0  0  0  0  0  0  0  0
  149.3598  137.1166  157.6419 H   0  0  0  0  0  0  0  0  0  0  0  0
  150.0121  138.6006  159.4097 H   0  0  0  0  0  0  0  0  0  0  0  0
  144.6930  135.6753  150.6804 H   0  0  0  0  0  0  0  0  0  0  0  0
  144.2144  134.0955  153.2460 H   0  0  0  0  0  0  0  0  0  0  0  0
  143.0502  135.1395  152.4698 H   0  0  0  0  0  0  0  0  0  0  0  0
  142.6183  132.7768  151.9003 H   0  0  0  0  0  0  0  0  0  0  0  0
  142.9870  133.7138  150.4727 H   0  0  0  0  0  0  0  0  0  0  0  0
  144.9162  131.8740  151.9702 H   0  0  0  0  0  0  0  0  0  0  0  0
  144.2142  131.5712  150.3982 H   0  0  0  0  0  0  0  0  0  0  0  0
  146.5566  132.4331  150.2123 H   0  0  0  0  0  0  0  0  0  0  0  0
  145.4159  133.4994  149.4289 H   0  0  0  0  0  0  0  0  0  0  0  0
  147.0159  134.7952  150.7589 H   0  0  0  0  0  0  0  0  0  0  0  0
  146.6407  133.8895  152.2023 H   0  0  0  0  0  0  0  0  0  0  0  0
  147.3345  136.9529  151.7804 H   0  0  0  0  0  0  0  0  0  0  0  0
  1  2  1  0  0  0  0
  1 25  1  0  0  0  0
  1 26  1  0  0  0  0
  1 27  1  0  0  0  0
  2  3  1  0  0  0  0
  2  4  1  0  0  0  0
  2 50  1  0  0  0  0
  3 28  1  0  0  0  0
  3 29  1  0  0  0  0
  3 30  1  0  0  0  0
  4  5  1  0  0  0  0
  4 18  1  0  0  0  0
  4 31  1  0  0  0  0
  5  6  1  0  0  0  0
  5 32  1  0  0  0  0
  5 33  1  0  0  0  0
  6  7  1  0  0  0  0
  6 34  1  0  0  0  0
  7  8  2  0  0  0  0
  7  9  1  0  0  0  0
  9 10  1  0  0  0  0
  9 35  1  0  0  0  0
  9 36  1  0  0  0  0
 10 16  1  0  0  0  0
 10 11  1  0  0  0  0
 11 12  2  0  0  0  0
 11 37  1  0  0  0  0
 12 13  1  0  0  0  0
 12 38  1  0  0  0  0
 13 14  2  0  0  0  0
 13 15  1  0  0  0  0
 15 24  1  0  0  0  0
 15 16  1  0  0  0  0
 16 17  2  0  0  0  0
 18 23  1  0  0  0  0
 18 19  1  0  0  0  0
 18 39  1  0  0  0  0
 19 20  1  0  0  0  0
 19 40  1  0  0  0  0
 19 41  1  0  0  0  0
 20 21  1  0  0  0  0
 20 42  1  0  0  0  0
 20 43  1  0  0  0  0
 21 22  1  0  0  0  0
 21 44  1  0  0  0  0
 21 45  1  0  0  0  0
 22 23  1  0  0  0  0
 22 46  1  0  0  0  0
 22 47  1  0  0  0  0
 23 48  1  0  0  0  0
 23 49  1  0  0  0  0
M  CHG  1   2   1
M  END
> <s_m_source_file>
AV-unprocessed.smi

> <i_m_source_file_index>
1552

> <i_lp_mmshare_version>
43012

> <i_f3d_flags>
0

> <s_epik_input>
W0NIMl0xW0NIMl1bQ0gyXVtDSDJdW0NIMl1bQ0hdMVtDQEhdKE4oW0NIM10pW0NIM10pW0NIMl1bTkhdQyg9TylbQ0gyXW4yW2NIXVtjSF1jKD1PKVtuSF1jMj1P

> <s_epik_cmdline>
J2VwaWtfcHl0aG9uJywgJy1waCcsICc3LjAnLCAnLXRuJywgJzgnLCAnLW1hJywgJzIwMCcsICctbWV0YWxfYmluZGluZycsICctaW1hZScsICc8aW5maWxlLm1hZT4nLCAnLW9tYWUnLCAnPG91dGZpbGUubWFlPic=

> <r_lp_tautomer_probability>
1

> <r_epik_Ionization_Penalty>
0.00705217

> <r_epik_Ionization_Penalty_Charging>
0.00705209

> <r_epik_Ionization_Penalty_Neutral>
7.66101e-08

> <r_epik_State_Penalty>
-0

> <r_epik_Charging_Adjusted_Penalty>
0.00705209

> <i_epik_Tot_Q>
1

> <i_epik_Tot_abs_Q>
1

> <r_epik_Metal_State_Penalty>
0.375122

> <b_epik_Metal_Only>
0

> <s_lp_Force_Field>
OPLS_2005

> <r_lp_Energy>
35.9588

> <b_lp_Chiralities_Consistent>
1

> <s_lp_Variant>
AV-unprocessed.smi:1552-1

> <Gold.Version>
5.8.1

> <Gold.Id.Protein>
6NUR|6NUR_protein|mol2

> <Gold.PLP.Fitness>
40.6371

> <Gold.PLP.PLP>
-30.4390

> <Gold.PLP.part.hbond>
-3.0000

> <Gold.PLP.part.metal>
0.0000

> <Gold.PLP.part.buried>
-1.0628

> <Gold.PLP.part.nonpolar>
-27.7043

> <Gold.PLP.part.repulsive>
0.2978

> <Gold.PLP.ligand.clash>
0.0000

> <Gold.PLP.ligand.torsion>
1.1667

> <Gold.PLP.Chemscore.Hbond>
4.0000

> <Gold.PLP.Chemscore.CHOScore>
0.0000

> <Gold.PLP.Chemscore.Metal>
0.0000

> <Gold.Chemscore.Hbonds>
donor molecule, donor type, donor heavy atom, donor atom, acceptor molecule, acceptor atom, score
      L1  H     2    50       P1  7948  2.00
      L1  H     6    34       P1  7948  1.00
      P1  H  7989  7998       L1    17  1.00

> <Gold.PLP.Chemscore.Internal.Correction>
0.5315

> <Gold.Rescore>
     Score         DG    S(hbond)    S(metal)    S(lipo)     H(rot)  DE(clash)    DE(int)     intcor
     14.56     -17.46       2.95        0.00      72.81       2.50       1.62       1.28       ----

> <Gold.Chemscore.Fitness>
14.5565

> <Gold.Chemscore.DG>
-17.4617

> <Gold.Chemscore.ZeroCoef>
-5.4800

> <Gold.Chemscore.Hbond>
2.9506

> <Gold.Chemscore.Metal>
0.0000

> <Gold.Chemscore.Lipo>
72.8078

> <Gold.Chemscore.Internal_Hbond>
0.0000

> <Gold.Chemscore.DEClash>
1.6205

> <Gold.Chemscore.DEInternal>
1.2848

> <Gold.Chemscore.Rot>
2.4968

> <Gold.Chemscore.Internal.Correction>
   9.000000E+99

> <Gold.Chemscore.Hbonds>
donor molecule, donor type, donor heavy atom, donor atom, acceptor molecule, acceptor atom, score
      L1  H     2    50       P1  7948  1.00
      L1  H     6    34       P1  7948  0.96
      P1  H  7989  7998       L1    17  0.99

> <Gold.Chemscore.Hbond.Weighted>
-9.8549

> <Gold.Chemscore.Metal.Weighted>
-0.0000

> <Gold.Chemscore.Lipo.Weighted>
-8.5185

> <Gold.Chemscore.Internal_Hbond.Weighted>
0.0000

> <Gold.Chemscore.DEClash.Weighted>
1.6205

> <Gold.Chemscore.DEInternal.Weighted>
1.2848

> <Gold.Chemscore.Rot.Weighted>
6.3917

> <Gold.Chemscore.Internal.Correction.Weighted>
   9.000000E+99

> <Gold.Protein.RotatedTorsions>
[ 6907 6896 6895 6894 ] final    7.39 input  -60.11 | X-H torsion
[ 7974 7965 7964 7962 ] final   65.85 input  175.53 | X-H torsion
[ 8008 7997 7996 7995 ] final  169.97 input   59.86 | X-H torsion
[ 10167 10162 10161 10158 ] final    6.12 input  -65.29 | X-H torsion
[ 10718 10713 10712 10709 ] final   99.79 input   66.30 | X-H torsion
[ 10763 10752 10751 10750 ] final   87.60 input  -60.55 | X-H torsion
[ 11005 11000 10999 10996 ] final  122.73 input  -57.11 | X-H torsion

> <Gold.Protein.ActiveResidues>
 VAL166  LYS551  ARG553  GLY616  TRP617  ASP618  TYR619  PRO620  LYS621  CYS622 
 ASP623  PHE694  ASN695  SER759  ASP760  ASP761  ALA762  ILE779  LEU786  VAL792 
 PHE793  MET794  SER795  GLU796  ALA797  LYS798  CYS799  TRP800  GLU811  SER814 

> <Gold.Protein.RotatedAtoms>
  151.6891  135.0949  160.0230 H   0  0  0  0  0  0  0  0  0  0  0  0  # atno 6907 bound_to 6896
  152.3789  133.6515  159.6154 H   0  0  0  0  0  0  0  0  0  0  0  0  # atno 6908 bound_to 6896
  150.7731  133.9063  159.3397 H   0  0  0  0  0  0  0  0  0  0  0  0  # atno 6909 bound_to 6896
  145.8336  139.3153  143.0973 H   0  0  0  0  0  0  0  0  0  0  0  0  # atno 7974 bound_to 7965
  156.1408  140.1550  156.8923 H   0  0  0  0  0  0  0  0  0  0  0  0  # atno 8008 bound_to 7997
  154.4986  140.0831  156.7788 H   0  0  0  0  0  0  0  0  0  0  0  0  # atno 8009 bound_to 7997
  155.4082  140.3417  155.4264 H   0  0  0  0  0  0  0  0  0  0  0  0  # atno 8010 bound_to 7997
  140.6445  143.7695  150.7478 H   0  0  0  0  0  0  0  0  0  0  0  0  # atno 10167 bound_to 10162
  157.6868  131.0680  150.5002 H   0  0  0  0  0  0  0  0  0  0  0  0  # atno 10718 bound_to 10713
  153.1685  135.4537  154.9869 H   0  0  0  0  0  0  0  0  0  0  0  0  # atno 10763 bound_to 10752
  154.7949  135.3234  154.7694 H   0  0  0  0  0  0  0  0  0  0  0  0  # atno 10764 bound_to 10752
  153.8173  135.6950  153.4887 H   0  0  0  0  0  0  0  0  0  0  0  0  # atno 10765 bound_to 10752
  139.9281  134.9641  156.8152 H   0  0  0  0  0  0  0  0  0  0  0  0  # atno 11005 bound_to 11000
  145.9544  140.8884  143.0243 LP  0  0  0  0  0  0  0  0  0  0  0  0  # atno 17320 bound_to 7965
  144.6738  140.1725  143.7413 LP  0  0  0  0  0  0  0  0  0  0  0  0  # atno 17321 bound_to 7965
  140.1333  143.4506  152.2240 LP  0  0  0  0  0  0  0  0  0  0  0  0  # atno 17342 bound_to 10162
  139.5655  144.7432  151.4034 LP  0  0  0  0  0  0  0  0  0  0  0  0  # atno 17343 bound_to 10162
  156.5324  130.4188  149.6194 LP  0  0  0  0  0  0  0  0  0  0  0  0  # atno 17370 bound_to 10713
  156.3057  130.7201  151.2083 LP  0  0  0  0  0  0  0  0  0  0  0  0  # atno 17371 bound_to 10713
  140.6279  133.9933  155.7648 LP  0  0  0  0  0  0  0  0  0  0  0  0  # atno 17394 bound_to 11000
  141.0852  134.0002  157.3324 LP  0  0  0  0  0  0  0  0  0  0  0  0  # atno 17395 bound_to 11000

$$$$
