AV-unprocessed.smi:1535|AV-procd|sdf|6171|dock2
  -GOLD-   22720 6323D 1   1.00000     0.00000
 Structure written by MMmdl.
 46 47  0  0  0  0  0  0  0  0  1 V2000
  152.7554  143.5309  161.7152 C   0  0  0  0  0  0  0  0  0  0  0  0
  152.2801  143.0533  160.3542 C   0  0  0  0  0  0  0  0  0  0  0  0
  152.6438  141.7605  159.9146 C   0  0  0  0  0  0  0  0  0  0  0  0
  152.2234  141.2785  158.6557 C   0  0  0  0  0  0  0  0  0  0  0  0
  152.4584  140.0642  158.0341 N   0  0  0  0  0  0  0  0  0  0  0  0
  151.8039  140.2197  156.8868 C   0  0  0  0  0  0  0  0  0  0  0  0
  151.1725  141.3933  156.6908 N   0  0  0  0  0  0  0  0  0  0  0  0
  150.3960  141.7895  155.5291 C   0  0  0  0  0  0  0  0  0  0  0  0
  149.0374  141.0669  155.4494 C   0  0  1  0  0  0  0  0  0  0  0  0
  148.3444  141.2452  156.6701 O   0  0  0  0  0  0  0  0  0  0  0  0
  148.1681  141.6262  154.3039 C   0  0  0  0  0  0  0  0  0  0  0  0
  146.7817  141.9530  154.6582 N   0  0  0  0  0  0  0  0  0  0  0  0
  145.9900  140.7453  154.8770 C   0  0  0  0  0  0  0  0  0  0  0  0
  146.1377  142.7833  153.6375 C   0  0  0  0  0  0  0  0  0  0  0  0
  145.1557  143.8500  154.1627 C   0  0  2  0  0  0  0  0  0  0  0  0
  143.9281  143.2257  154.8417 C   0  0  0  0  0  0  0  0  0  0  0  0
  144.7375  144.7416  153.0693 C   0  0  0  0  0  0  0  0  0  0  0  0
  144.4085  145.4426  152.2098 N   0  0  0  0  0  0  0  0  0  0  0  0
  151.4210  142.1315  157.8427 C   0  0  0  0  0  0  0  0  0  0  0  0
  151.0518  143.4194  158.2694 C   0  0  0  0  0  0  0  0  0  0  0  0
  151.4831  143.8866  159.5286 C   0  0  0  0  0  0  0  0  0  0  0  0
  151.0829  145.2806  159.9783 C   0  0  0  0  0  0  0  0  0  0  0  0
  153.3124  142.7530  162.2381 H   0  0  0  0  0  0  0  0  0  0  0  0
  151.9078  143.8115  162.3406 H   0  0  0  0  0  0  0  0  0  0  0  0
  153.4092  144.3967  161.6079 H   0  0  0  0  0  0  0  0  0  0  0  0
  153.2516  141.1258  160.5423 H   0  0  0  0  0  0  0  0  0  0  0  0
  151.7834  139.4351  156.1445 H   0  0  0  0  0  0  0  0  0  0  0  0
  150.2540  142.8711  155.5546 H   0  0  0  0  0  0  0  0  0  0  0  0
  150.9884  141.5738  154.6390 H   0  0  0  0  0  0  0  0  0  0  0  0
  149.2246  140.0029  155.3155 H   0  0  0  0  0  0  0  0  0  0  0  0
  147.7026  140.5571  156.7551 H   0  0  0  0  0  0  0  0  0  0  0  0
  148.6764  142.5071  153.9157 H   0  0  0  0  0  0  0  0  0  0  0  0
  148.1597  140.9109  153.4800 H   0  0  0  0  0  0  0  0  0  0  0  0
  144.9580  140.9987  155.1225 H   0  0  0  0  0  0  0  0  0  0  0  0
  146.3725  140.1572  155.7095 H   0  0  0  0  0  0  0  0  0  0  0  0
  145.9787  140.1137  153.9877 H   0  0  0  0  0  0  0  0  0  0  0  0
  146.9045  143.2676  153.0309 H   0  0  0  0  0  0  0  0  0  0  0  0
  145.5818  142.1423  152.9515 H   0  0  0  0  0  0  0  0  0  0  0  0
  145.6538  144.5032  154.8770 H   0  0  0  0  0  0  0  0  0  0  0  0
  143.2445  143.9977  155.1959 H   0  0  0  0  0  0  0  0  0  0  0  0
  144.2148  142.6212  155.7025 H   0  0  0  0  0  0  0  0  0  0  0  0
  143.3780  142.5856  154.1512 H   0  0  0  0  0  0  0  0  0  0  0  0
  150.4436  144.0430  157.6310 H   0  0  0  0  0  0  0  0  0  0  0  0
  150.5282  145.8055  159.2000 H   0  0  0  0  0  0  0  0  0  0  0  0
  151.9653  145.8746  160.2169 H   0  0  0  0  0  0  0  0  0  0  0  0
  150.4499  145.2279  160.8642 H   0  0  0  0  0  0  0  0  0  0  0  0
  1  2  1  0  0  0  0
  1 23  1  0  0  0  0
  1 24  1  0  0  0  0
  1 25  1  0  0  0  0
  2 21  1  0  0  0  0
  2  3  2  0  0  0  0
  3  4  1  0  0  0  0
  3 26  1  0  0  0  0
  4 19  2  0  0  0  0
  4  5  1  0  0  0  0
  5  6  2  0  0  0  0
  6  7  1  0  0  0  0
  6 27  1  0  0  0  0
  7  8  1  0  0  0  0
  7 19  1  0  0  0  0
  8  9  1  0  0  0  0
  8 28  1  0  0  0  0
  8 29  1  0  0  0  0
  9 10  1  0  0  0  0
  9 11  1  0  0  0  0
  9 30  1  0  0  0  0
 10 31  1  0  0  0  0
 11 12  1  0  0  0  0
 11 32  1  0  0  0  0
 11 33  1  0  0  0  0
 12 13  1  0  0  0  0
 12 14  1  0  0  0  0
 13 34  1  0  0  0  0
 13 35  1  0  0  0  0
 13 36  1  0  0  0  0
 14 15  1  0  0  0  0
 14 37  1  0  0  0  0
 14 38  1  0  0  0  0
 15 16  1  0  0  0  0
 15 17  1  0  0  0  0
 15 39  1  0  0  0  0
 16 40  1  0  0  0  0
 16 41  1  0  0  0  0
 16 42  1  0  0  0  0
 17 18  3  0  0  0  0
 19 20  1  0  0  0  0
 20 21  2  0  0  0  0
 20 43  1  0  0  0  0
 21 22  1  0  0  0  0
 22 44  1  0  0  0  0
 22 45  1  0  0  0  0
 22 46  1  0  0  0  0
M  END
> <s_m_source_file>
AV-unprocessed.smi

> <i_m_source_file_index>
1535

> <i_lp_mmshare_version>
43012

> <i_f3d_flags>
0

> <s_epik_input>
W0NIM11jKFtjSF0xKWMoW0NIM10pW2NIXWMoYzEyKW4oW2NIXW4yKVtDSDJdW0NASF0oW09IXSlbQ0gyXU4oW0NIM10pW0NIMl1bQ0BIXShbQ0gzXSlDI04=

> <s_epik_cmdline>
J2VwaWtfcHl0aG9uJywgJy1waCcsICc3LjAnLCAnLXRuJywgJzgnLCAnLW1hJywgJzIwMCcsICctbWV0YWxfYmluZGluZycsICctaW1hZScsICc8aW5maWxlLm1hZT4nLCAnLW9tYWUnLCAnPG91dGZpbGUubWFlPic=

> <r_epik_Ionization_Penalty>
0.098511

> <r_epik_Ionization_Penalty_Charging>
0

> <r_epik_Ionization_Penalty_Neutral>
0.098511

> <r_epik_State_Penalty>
0.0881608

> <r_epik_Charging_Adjusted_Penalty>
0.0881608

> <i_epik_Tot_Q>
0

> <i_epik_Tot_abs_Q>
0

> <r_epik_Metal_State_Penalty>
0.0128087

> <b_epik_Metal_Only>
0

> <s_lp_Force_Field>
OPLS_2005

> <r_lp_Energy>
24.761

> <b_lp_Chiralities_Consistent>
1

> <s_lp_Variant>
AV-unprocessed.smi:1535-2

> <Gold.Version>
5.8.1

> <Gold.Id.Protein>
6NUR|6NUR_protein|mol2

> <Gold.PLP.Fitness>
47.8311

> <Gold.PLP.PLP>
-47.6407

> <Gold.PLP.part.hbond>
-2.2514

> <Gold.PLP.part.metal>
0.0000

> <Gold.PLP.part.buried>
-7.5749

> <Gold.PLP.part.nonpolar>
-37.6710

> <Gold.PLP.part.repulsive>
0.2643

> <Gold.PLP.ligand.clash>
0.0000

> <Gold.PLP.ligand.torsion>
1.4159

> <Gold.PLP.Chemscore.Hbond>
0.9913

> <Gold.PLP.Chemscore.CHOScore>
0.0000

> <Gold.PLP.Chemscore.Metal>
0.0000

> <Gold.Chemscore.Hbonds>
donor molecule, donor type, donor heavy atom, donor atom, acceptor molecule, acceptor atom, score
      P1  H  7997  8010       L1     5  0.13

> <Gold.PLP.Chemscore.Internal.Correction>
0.0484

> <Gold.Rescore>
     Score         DG    S(hbond)    S(metal)    S(lipo)     H(rot)  DE(clash)    DE(int)     intcor
     12.18     -14.18       0.59        0.00     112.39       2.51       0.55       1.45       ----

> <Gold.Chemscore.Fitness>
12.1847

> <Gold.Chemscore.DG>
-14.1841

> <Gold.Chemscore.ZeroCoef>
-5.4800

> <Gold.Chemscore.Hbond>
0.5939

> <Gold.Chemscore.Metal>
0.0000

> <Gold.Chemscore.Lipo>
112.3875

> <Gold.Chemscore.Internal_Hbond>
0.0000

> <Gold.Chemscore.DEClash>
0.5503

> <Gold.Chemscore.DEInternal>
1.4491

> <Gold.Chemscore.Rot>
2.5113

> <Gold.Chemscore.Internal.Correction>
   9.000000E+99

> <Gold.Chemscore.Hbonds>
donor molecule, donor type, donor heavy atom, donor atom, acceptor molecule, acceptor atom, score
      P1  H  7997  8010       L1     5  0.01

> <Gold.Chemscore.Hbond.Weighted>
-1.9836

> <Gold.Chemscore.Metal.Weighted>
-0.0000

> <Gold.Chemscore.Lipo.Weighted>
-13.1493

> <Gold.Chemscore.Internal_Hbond.Weighted>
0.0000

> <Gold.Chemscore.DEClash.Weighted>
0.5503

> <Gold.Chemscore.DEInternal.Weighted>
1.4491

> <Gold.Chemscore.Rot.Weighted>
6.4289

> <Gold.Chemscore.Internal.Correction.Weighted>
   9.000000E+99

> <Gold.Protein.RotatedTorsions>
[ 6907 6896 6895 6894 ] final  -58.81 input  -60.11 | X-H torsion
[ 7974 7965 7964 7962 ] final -124.53 input  175.53 | X-H torsion
[ 8008 7997 7996 7995 ] final   41.65 input   59.86 | X-H torsion
[ 10167 10162 10161 10158 ] final -118.80 input  -65.29 | X-H torsion
[ 10718 10713 10712 10709 ] final  -64.51 input   66.30 | X-H torsion
[ 10763 10752 10751 10750 ] final   41.07 input  -60.55 | X-H torsion
[ 11005 11000 10999 10996 ] final  -34.44 input  -57.11 | X-H torsion

> <Gold.Protein.ActiveResidues>
 VAL166  LYS551  ARG553  GLY616  TRP617  ASP618  TYR619  PRO620  LYS621  CYS622 
 ASP623  PHE694  ASN695  SER759  ASP760  ASP761  ALA762  ILE779  LEU786  VAL792 
 PHE793  MET794  SER795  GLU796  ALA797  LYS798  CYS799  TRP800  GLU811  SER814 

> <Gold.Protein.RotatedAtoms>
  150.7978  134.7050  159.6571 H   0  0  0  0  0  0  0  0  0  0  0  0  # atno 6907 bound_to 6896
  152.4092  134.6150  160.0045 H   0  0  0  0  0  0  0  0  0  0  0  0  # atno 6908 bound_to 6896
  151.6398  133.3290  159.3164 H   0  0  0  0  0  0  0  0  0  0  0  0  # atno 6909 bound_to 6896
  145.0070  140.7872  143.4461 H   0  0  0  0  0  0  0  0  0  0  0  0  # atno 7974 bound_to 7965
  155.2731  140.3367  155.4263 H   0  0  0  0  0  0  0  0  0  0  0  0  # atno 8008 bound_to 7997
  156.2124  140.1775  156.7708 H   0  0  0  0  0  0  0  0  0  0  0  0  # atno 8009 bound_to 7997
  154.5704  140.0671  156.8941 H   0  0  0  0  0  0  0  0  0  0  0  0  # atno 8010 bound_to 7997
  140.0536  143.5036  152.2069 H   0  0  0  0  0  0  0  0  0  0  0  0  # atno 10167 bound_to 10162
  156.0724  130.4234  150.1431 H   0  0  0  0  0  0  0  0  0  0  0  0  # atno 10718 bound_to 10713
  152.9918  135.6173  154.2727 H   0  0  0  0  0  0  0  0  0  0  0  0  # atno 10763 bound_to 10752
  154.2460  135.2787  155.2837 H   0  0  0  0  0  0  0  0  0  0  0  0  # atno 10764 bound_to 10752
  154.5329  135.5783  153.6832 H   0  0  0  0  0  0  0  0  0  0  0  0  # atno 10765 bound_to 10752
  140.9716  133.7106  156.1533 H   0  0  0  0  0  0  0  0  0  0  0  0  # atno 11005 bound_to 11000
  145.2074  139.2221  143.5161 LP  0  0  0  0  0  0  0  0  0  0  0  0  # atno 17320 bound_to 7965
  146.3463  140.1905  142.8589 LP  0  0  0  0  0  0  0  0  0  0  0  0  # atno 17321 bound_to 7965
  139.5937  144.7559  151.3337 LP  0  0  0  0  0  0  0  0  0  0  0  0  # atno 17342 bound_to 10162
  140.7205  143.7148  150.7741 LP  0  0  0  0  0  0  0  0  0  0  0  0  # atno 17343 bound_to 10162
  156.9479  130.9765  151.3504 LP  0  0  0  0  0  0  0  0  0  0  0  0  # atno 17370 bound_to 10713
  157.5803  130.8371  149.8513 LP  0  0  0  0  0  0  0  0  0  0  0  0  # atno 17371 bound_to 10713
  140.7321  134.4243  157.5565 LP  0  0  0  0  0  0  0  0  0  0  0  0  # atno 17394 bound_to 11000
  139.8914  134.8780  156.2320 LP  0  0  0  0  0  0  0  0  0  0  0  0  # atno 17395 bound_to 11000

$$$$
