AV-unprocessed.smi:3354|AV-procd|sdf|12959|dock5
  -GOLD-   2272019393D 1   1.00000     0.00000
 Structure written by MMmdl.
 38 40  0  0  0  0  0  0  0  0  1 V2000
  145.1950  132.1047  149.3039 C   0  0  0  0  0  0  0  0  0  0  0  0
  145.1724  133.0092  150.5167 C   0  0  2  0  0  0  0  0  0  0  0  0
  144.1053  132.8287  151.5719 C   0  0  0  0  0  0  0  0  0  0  0  0
  144.0853  134.0545  150.6899 C   0  0  1  0  0  0  0  0  0  0  0  0
  144.3659  135.3208  151.2963 N   0  0  0  0  0  0  0  0  0  0  0  0
  145.6045  136.0012  150.9577 C   0  0  0  0  0  0  0  0  0  0  0  0
  145.6062  137.2932  151.7927 C   0  0  2  0  0  0  0  0  0  0  0  0
  146.9181  137.5257  152.3903 N   0  0  0  0  0  0  0  0  0  0  0  0
  147.2378  138.5851  153.1462 C   0  0  0  0  0  0  0  0  0  0  0  0
  146.4418  139.4809  153.4272 O   0  0  0  0  0  0  0  0  0  0  0  0
  148.5147  138.5184  153.5605 N   0  0  0  0  0  0  0  0  0  0  0  0
  149.2394  139.4495  154.3529 C   0  0  0  0  0  0  0  0  0  0  0  0
  148.6656  140.5853  154.9744 C   0  0  0  0  0  0  0  0  0  0  0  0
  149.4964  141.4454  155.7179 C   0  0  0  0  0  0  0  0  0  0  0  0
  150.8688  141.1430  155.8089 C   0  0  0  0  0  0  0  0  0  0  0  0
  151.4314  140.0713  155.2118 N   0  0  0  0  0  0  0  0  0  0  0  0
  150.6289  139.2520  154.4994 C   0  0  0  0  0  0  0  0  0  0  0  0
  144.5043  137.0972  152.8462 C   0  0  0  0  0  0  0  0  0  0  0  0
  143.7973  135.8294  152.3982 C   0  0  0  0  0  0  0  0  0  0  0  0
  142.8426  135.3563  153.0129 O   0  0  0  0  0  0  0  0  0  0  0  0
  144.1825  131.8877  148.9621 H   0  0  0  0  0  0  0  0  0  0  0  0
  145.6888  131.1640  149.5481 H   0  0  0  0  0  0  0  0  0  0  0  0
  145.7408  132.5844  148.4917 H   0  0  0  0  0  0  0  0  0  0  0  0
  146.1634  133.2474  150.8980 H   0  0  0  0  0  0  0  0  0  0  0  0
  143.3393  132.0756  151.3977 H   0  0  0  0  0  0  0  0  0  0  0  0
  144.4056  132.9535  152.6106 H   0  0  0  0  0  0  0  0  0  0  0  0
  143.3165  134.0722  149.9194 H   0  0  0  0  0  0  0  0  0  0  0  0
  146.4445  135.3511  151.2091 H   0  0  0  0  0  0  0  0  0  0  0  0
  145.6535  136.2154  149.8892 H   0  0  0  0  0  0  0  0  0  0  0  0
  145.3413  138.1321  151.1459 H   0  0  0  0  0  0  0  0  0  0  0  0
  147.6302  136.8319  152.2145 H   0  0  0  0  0  0  0  0  0  0  0  0
  149.0166  137.6770  153.3169 H   0  0  0  0  0  0  0  0  0  0  0  0
  147.6173  140.8231  154.8855 H   0  0  0  0  0  0  0  0  0  0  0  0
  149.0909  142.3205  156.2037 H   0  0  0  0  0  0  0  0  0  0  0  0
  151.5330  141.7830  156.3708 H   0  0  0  0  0  0  0  0  0  0  0  0
  151.1144  138.4072  154.0332 H   0  0  0  0  0  0  0  0  0  0  0  0
  144.9073  136.9475  153.8488 H   0  0  0  0  0  0  0  0  0  0  0  0
  143.8135  137.9406  152.8736 H   0  0  0  0  0  0  0  0  0  0  0  0
  1  2  1  0  0  0  0
  1 21  1  0  0  0  0
  1 22  1  0  0  0  0
  1 23  1  0  0  0  0
  2  4  1  0  0  0  0
  2  3  1  0  0  0  0
  2 24  1  0  0  0  0
  3  4  1  0  0  0  0
  3 25  1  0  0  0  0
  3 26  1  0  0  0  0
  4  5  1  0  0  0  0
  4 27  1  0  0  0  0
  5 19  1  0  0  0  0
  5  6  1  0  0  0  0
  6  7  1  0  0  0  0
  6 28  1  0  0  0  0
  6 29  1  0  0  0  0
  7  8  1  0  0  0  0
  7 18  1  0  0  0  0
  7 30  1  0  0  0  0
  8  9  1  0  0  0  0
  8 31  1  0  0  0  0
  9 10  2  0  0  0  0
  9 11  1  0  0  0  0
 11 12  1  0  0  0  0
 11 32  1  0  0  0  0
 12 17  1  0  0  0  0
 12 13  2  0  0  0  0
 13 14  1  0  0  0  0
 13 33  1  0  0  0  0
 14 15  2  0  0  0  0
 14 34  1  0  0  0  0
 15 16  1  0  0  0  0
 15 35  1  0  0  0  0
 16 17  2  0  0  0  0
 17 36  1  0  0  0  0
 18 19  1  0  0  0  0
 18 37  1  0  0  0  0
 18 38  1  0  0  0  0
 19 20  2  0  0  0  0
M  END
> <s_m_source_file>
AV-unprocessed.smi

> <i_m_source_file_index>
3354

> <i_lp_mmshare_version>
43012

> <i_f3d_flags>
0

> <s_epik_input>
W0NIM11bQ0BASF0xW0NIMl1bQ0BIXTFOMltDSDJdW0NASF0oW0NIMl1DMj1PKVtOSF1DKD1PKVtOSF1jM1tjSF1bY0hdW2NIXW5bY0hdMw==

> <s_epik_cmdline>
J2VwaWtfcHl0aG9uJywgJy1waCcsICc3LjAnLCAnLXRuJywgJzgnLCAnLW1hJywgJzIwMCcsICctbWV0YWxfYmluZGluZycsICctaW1hZScsICc8aW5maWxlLm1hZT4nLCAnLW9tYWUnLCAnPG91dGZpbGUubWFlPic=

> <r_epik_Ionization_Penalty>
0.00456191

> <r_epik_Ionization_Penalty_Charging>
0

> <r_epik_Ionization_Penalty_Neutral>
0.00456191

> <r_epik_State_Penalty>
0.00327094

> <r_epik_Charging_Adjusted_Penalty>
0.00327094

> <i_epik_Tot_Q>
0

> <i_epik_Tot_abs_Q>
0

> <r_epik_Metal_State_Penalty>
-0

> <b_epik_Metal_Only>
0

> <s_lp_Force_Field>
OPLS_2005

> <r_lp_Energy>
40.1113

> <b_lp_Chiralities_Consistent>
1

> <s_lp_Variant>
AV-unprocessed.smi:3354-5

> <Gold.Version>
5.8.1

> <Gold.Id.Protein>
6NUR|6NUR_protein|mol2

> <Gold.PLP.Fitness>
42.2777

> <Gold.PLP.PLP>
-37.1594

> <Gold.PLP.part.hbond>
-3.6897

> <Gold.PLP.part.metal>
0.0000

> <Gold.PLP.part.buried>
-3.6279

> <Gold.PLP.part.nonpolar>
-32.6970

> <Gold.PLP.part.repulsive>
0.7809

> <Gold.PLP.ligand.clash>
0.0000

> <Gold.PLP.ligand.torsion>
0.2317

> <Gold.PLP.Chemscore.Hbond>
1.7350

> <Gold.PLP.Chemscore.CHOScore>
0.0000

> <Gold.PLP.Chemscore.Metal>
0.0000

> <Gold.Chemscore.Hbonds>
donor molecule, donor type, donor heavy atom, donor atom, acceptor molecule, acceptor atom, score
      L1  H     8    31       P1  7948  0.88
      L1  H    11    32       P1  7948  0.77
      P1  H  7989  7998       L1    16  0.08

> <Gold.PLP.Chemscore.Internal.Correction>
0.3766

> <Gold.Rescore>
     Score         DG    S(hbond)    S(metal)    S(lipo)     H(rot)  DE(clash)    DE(int)     intcor
     15.44     -18.89       1.83        0.00      89.43       1.24       2.03       1.43       ----

> <Gold.Chemscore.Fitness>
15.4350

> <Gold.Chemscore.DG>
-18.8885

> <Gold.Chemscore.ZeroCoef>
-5.4800

> <Gold.Chemscore.Hbond>
1.8293

> <Gold.Chemscore.Metal>
0.0000

> <Gold.Chemscore.Lipo>
89.4261

> <Gold.Chemscore.Internal_Hbond>
0.0000

> <Gold.Chemscore.DEClash>
2.0284

> <Gold.Chemscore.DEInternal>
1.4250

> <Gold.Chemscore.Rot>
1.2361

> <Gold.Chemscore.Internal.Correction>
   9.000000E+99

> <Gold.Chemscore.Hbonds>
donor molecule, donor type, donor heavy atom, donor atom, acceptor molecule, acceptor atom, score
      L1  H     8    31       P1  7948  0.85
      L1  H    11    32       P1  7948  0.71

> <Gold.Chemscore.Hbond.Weighted>
-6.1099

> <Gold.Chemscore.Metal.Weighted>
-0.0000

> <Gold.Chemscore.Lipo.Weighted>
-10.4629

> <Gold.Chemscore.Internal_Hbond.Weighted>
0.0000

> <Gold.Chemscore.DEClash.Weighted>
2.0284

> <Gold.Chemscore.DEInternal.Weighted>
1.4250

> <Gold.Chemscore.Rot.Weighted>
3.1643

> <Gold.Chemscore.Internal.Correction.Weighted>
   9.000000E+99

> <Gold.Protein.RotatedTorsions>
[ 6907 6896 6895 6894 ] final   16.77 input  -60.11 | X-H torsion
[ 7974 7965 7964 7962 ] final  -40.63 input  175.53 | X-H torsion
[ 8008 7997 7996 7995 ] final  -70.61 input   59.86 | X-H torsion
[ 10167 10162 10161 10158 ] final   27.53 input  -65.29 | X-H torsion
[ 10718 10713 10712 10709 ] final   99.81 input   66.30 | X-H torsion
[ 10763 10752 10751 10750 ] final  -29.88 input  -60.55 | X-H torsion
[ 11005 11000 10999 10996 ] final   -7.01 input  -57.11 | X-H torsion

> <Gold.Protein.ActiveResidues>
 VAL166  LYS551  ARG553  GLY616  TRP617  ASP618  TYR619  PRO620  LYS621  CYS622 
 ASP623  PHE694  ASN695  SER759  ASP760  ASP761  ALA762  ILE779  LEU786  VAL792 
 PHE793  MET794  SER795  GLU796  ALA797  LYS798  CYS799  TRP800  GLU811  SER814 

> <Gold.Protein.RotatedAtoms>
  151.8392  135.0596  160.0445 H   0  0  0  0  0  0  0  0  0  0  0  0  # atno 6907 bound_to 6896
  152.2822  133.5476  159.5513 H   0  0  0  0  0  0  0  0  0  0  0  0  # atno 6908 bound_to 6896
  150.7194  134.0464  159.3825 H   0  0  0  0  0  0  0  0  0  0  0  0  # atno 6909 bound_to 6896
  146.0287  140.6759  142.9143 H   0  0  0  0  0  0  0  0  0  0  0  0  # atno 7974 bound_to 7965
  154.5025  140.0831  156.7826 H   0  0  0  0  0  0  0  0  0  0  0  0  # atno 8008 bound_to 7997
  155.3971  140.3435  155.4236 H   0  0  0  0  0  0  0  0  0  0  0  0  # atno 8009 bound_to 7997
  156.1474  140.1548  156.8813 H   0  0  0  0  0  0  0  0  0  0  0  0  # atno 8010 bound_to 7997
  140.4930  144.0436  150.6304 H   0  0  0  0  0  0  0  0  0  0  0  0  # atno 10167 bound_to 10162
  157.6868  131.0680  150.5005 H   0  0  0  0  0  0  0  0  0  0  0  0  # atno 10718 bound_to 10713
  153.7718  135.6912  153.4905 H   0  0  0  0  0  0  0  0  0  0  0  0  # atno 10763 bound_to 10752
  153.1869  135.4485  155.0099 H   0  0  0  0  0  0  0  0  0  0  0  0  # atno 10764 bound_to 10752
  154.8115  135.3379  154.7227 H   0  0  0  0  0  0  0  0  0  0  0  0  # atno 10765 bound_to 10752
  140.7081  133.8932  155.8731 H   0  0  0  0  0  0  0  0  0  0  0  0  # atno 11005 bound_to 11000
  144.7021  140.3696  143.7148 LP  0  0  0  0  0  0  0  0  0  0  0  0  # atno 17320 bound_to 7965
  145.7076  139.1676  143.2557 LP  0  0  0  0  0  0  0  0  0  0  0  0  # atno 17321 bound_to 7965
  140.3711  143.2854  152.0277 LP  0  0  0  0  0  0  0  0  0  0  0  0  # atno 17342 bound_to 10162
  139.4855  144.6229  151.7220 LP  0  0  0  0  0  0  0  0  0  0  0  0  # atno 17343 bound_to 10162
  156.5327  130.4188  149.6193 LP  0  0  0  0  0  0  0  0  0  0  0  0  # atno 17370 bound_to 10713
  156.3055  130.7200  151.2082 LP  0  0  0  0  0  0  0  0  0  0  0  0  # atno 17371 bound_to 10713
  141.0107  134.1024  157.4224 LP  0  0  0  0  0  0  0  0  0  0  0  0  # atno 17394 bound_to 11000
  139.8879  135.0093  156.6586 LP  0  0  0  0  0  0  0  0  0  0  0  0  # atno 17395 bound_to 11000

$$$$
