AV-unprocessed.smi:594|AV-procd|sdf|3015|dock8
  -GOLD-   2262023523D 1   1.00000     0.00000
 Structure written by MMmdl.
 40 41  0  0  0  0  0  0  0  0  3 V2000
  151.4645  142.7171  157.0089 C   0  0  0  0  0  0  0  0  0  0  0  0
  152.0200  143.1646  158.3719 C   0  0  1  0  0  0  0  0  0  0  0  0
  150.8926  143.6269  159.3189 C   0  0  0  0  0  0  0  0  0  0  0  0
  151.4482  144.1206  160.6643 C   0  0  0  0  0  0  0  0  0  0  0  0
  152.3211  143.0500  161.3354 C   0  0  0  0  0  0  0  0  0  0  0  0
  153.4513  142.5889  160.3996 C   0  0  0  0  0  0  0  0  0  0  0  0
  152.9129  142.0894  159.0404 C   0  0  1  0  0  0  0  0  0  0  0  0
  152.1902  140.8268  159.1976 N   0  0  0  0  0  0  0  0  0  0  0  0
  152.7217  139.6677  159.6134 C   0  0  0  0  0  0  0  0  0  0  0  0
  153.9148  139.5287  159.8855 O   0  0  0  0  0  0  0  0  0  0  0  0
  151.7507  138.4843  159.7224 C   0  0  0  0  0  0  0  0  0  0  0  0
  151.4900  137.8335  158.4275 N   0  0  0  0  0  0  0  0  0  0  0  0
  152.3084  138.2078  157.3434 C   0  0  0  0  0  0  0  0  0  0  0  0
  152.1582  137.6742  156.1153 C   0  0  0  0  0  0  0  0  0  0  0  0
  153.0085  138.0694  155.0137 N   0  3  0  0  0  0  0  0  0  0  0  0
  153.3206  137.2260  154.1793 O   0  0  0  0  0  0  0  0  0  0  0  0
  153.3911  139.2337  154.9445 O   0  5  0  0  0  0  0  0  0  0  0  0
  151.1131  136.6856  155.9329 C   0  0  0  0  0  0  0  0  0  0  0  0
  150.3286  136.3212  156.9662 C   0  0  0  0  0  0  0  0  0  0  0  0
  150.4953  136.9019  158.3024 C   0  0  0  0  0  0  0  0  0  0  0  0
  149.7838  136.5715  159.2516 O   0  0  0  0  0  0  0  0  0  0  0  0
  150.7675  141.8848  157.1094 H   0  0  0  0  0  0  0  0  0  0  0  0
  152.2678  142.4012  156.3427 H   0  0  0  0  0  0  0  0  0  0  0  0
  150.9328  143.5325  156.5181 H   0  0  0  0  0  0  0  0  0  0  0  0
  152.6543  144.0315  158.1807 H   0  0  0  0  0  0  0  0  0  0  0  0
  150.3173  144.4259  158.8496 H   0  0  0  0  0  0  0  0  0  0  0  0
  150.1927  142.8084  159.4930 H   0  0  0  0  0  0  0  0  0  0  0  0
  152.0371  145.0250  160.5063 H   0  0  0  0  0  0  0  0  0  0  0  0
  150.6273  144.3985  161.3259 H   0  0  0  0  0  0  0  0  0  0  0  0
  152.7431  143.4423  162.2609 H   0  0  0  0  0  0  0  0  0  0  0  0
  151.7035  142.1963  161.6174 H   0  0  0  0  0  0  0  0  0  0  0  0
  154.1330  143.4229  160.2284 H   0  0  0  0  0  0  0  0  0  0  0  0
  154.0439  141.8134  160.8862 H   0  0  0  0  0  0  0  0  0  0  0  0
  153.7649  141.9094  158.3821 H   0  0  0  0  0  0  0  0  0  0  0  0
  151.2024  140.8443  158.9894 H   0  0  0  0  0  0  0  0  0  0  0  0
  152.1410  137.7532  160.4334 H   0  0  0  0  0  0  0  0  0  0  0  0
  150.8237  138.8474  160.1679 H   0  0  0  0  0  0  0  0  0  0  0  0
  153.0607  138.9455  157.5828 H   0  0  0  0  0  0  0  0  0  0  0  0
  150.9526  136.2297  154.9669 H   0  0  0  0  0  0  0  0  0  0  0  0
  149.5568  135.5824  156.8081 H   0  0  0  0  0  0  0  0  0  0  0  0
  1  2  1  0  0  0  0
  1 22  1  0  0  0  0
  1 23  1  0  0  0  0
  1 24  1  0  0  0  0
  2  7  1  0  0  0  0
  2  3  1  0  0  0  0
  2 25  1  0  0  0  0
  3  4  1  0  0  0  0
  3 26  1  0  0  0  0
  3 27  1  0  0  0  0
  4  5  1  0  0  0  0
  4 28  1  0  0  0  0
  4 29  1  0  0  0  0
  5  6  1  0  0  0  0
  5 30  1  0  0  0  0
  5 31  1  0  0  0  0
  6  7  1  0  0  0  0
  6 32  1  0  0  0  0
  6 33  1  0  0  0  0
  7  8  1  0  0  0  0
  7 34  1  0  0  0  0
  8  9  1  0  0  0  0
  8 35  1  0  0  0  0
  9 10  2  0  0  0  0
  9 11  1  0  0  0  0
 11 12  1  0  0  0  0
 11 36  1  0  0  0  0
 11 37  1  0  0  0  0
 12 20  1  0  0  0  0
 12 13  1  0  0  0  0
 13 14  2  0  0  0  0
 13 38  1  0  0  0  0
 14 15  1  0  0  0  0
 14 18  1  0  0  0  0
 15 16  2  0  0  0  0
 15 17  1  0  0  0  0
 18 19  2  0  0  0  0
 18 39  1  0  0  0  0
 19 20  1  0  0  0  0
 19 40  1  0  0  0  0
 20 21  2  0  0  0  0
M  CHG  1  15   1
M  CHG  1  17  -1
M  END
> <s_m_source_file>
AV-unprocessed.smi

> <i_m_source_file_index>
594

> <i_lp_mmshare_version>
43012

> <i_f3d_flags>
0

> <s_epik_input>
W0NIM11bQ0BASF0xW0NIMl1bQ0gyXVtDSDJdW0NIMl1bQ0BIXTFbTkhdQyg9TylbQ0gyXW4yW2NIXWMoW04rXSg9TylbTy1dKVtjSF1bY0hdYzI9Tw==

> <s_epik_cmdline>
J2VwaWtfcHl0aG9uJywgJy1waCcsICc3LjAnLCAnLXRuJywgJzgnLCAnLW1hJywgJzIwMCcsICctbWV0YWxfYmluZGluZycsICctaW1hZScsICc8aW5maWxlLm1hZT4nLCAnLW9tYWUnLCAnPG91dGZpbGUubWFlPic=

> <r_lp_tautomer_probability>
1

> <r_epik_Ionization_Penalty>
1.91305e-08

> <r_epik_Ionization_Penalty_Charging>
8.35811e-11

> <r_epik_Ionization_Penalty_Neutral>
1.90469e-08

> <r_epik_State_Penalty>
-0

> <r_epik_Charging_Adjusted_Penalty>
8.35811e-11

> <i_epik_Tot_Q>
0

> <i_epik_Tot_abs_Q>
2

> <r_epik_Metal_State_Penalty>
-0

> <b_epik_Metal_Only>
0

> <s_lp_Force_Field>
OPLS_2005

> <r_lp_Energy>
20.421

> <b_lp_Chiralities_Consistent>
1

> <s_lp_Variant>
AV-unprocessed.smi:594-2

> <Gold.Version>
5.8.1

> <Gold.Id.Protein>
6NUR|6NUR_protein|mol2

> <Gold.PLP.Fitness>
41.6085

> <Gold.PLP.PLP>
-35.2482

> <Gold.PLP.part.hbond>
-3.9783

> <Gold.PLP.part.metal>
0.0000

> <Gold.PLP.part.buried>
-4.6247

> <Gold.PLP.part.nonpolar>
-26.6696

> <Gold.PLP.part.repulsive>
0.2943

> <Gold.PLP.ligand.clash>
0.7103

> <Gold.PLP.ligand.torsion>
0.9229

> <Gold.PLP.Chemscore.Hbond>
2.9676

> <Gold.PLP.Chemscore.CHOScore>
0.0000

> <Gold.PLP.Chemscore.Metal>
0.0000

> <Gold.Chemscore.Hbonds>
donor molecule, donor type, donor heavy atom, donor atom, acceptor molecule, acceptor atom, score
      P1  H  6896  6907       L1    21  0.73
      P1  H  7997  8010       L1    17  1.00
      P1  H 10752 10765       L1    16  0.20

> <Gold.PLP.Chemscore.Internal.Correction>
0.0135

> <Gold.Rescore>
     Score         DG    S(hbond)    S(metal)    S(lipo)     H(rot)  DE(clash)    DE(int)     intcor
     20.66     -21.61       2.58        0.00      98.23       1.55       0.04       0.91       ----

> <Gold.Chemscore.Fitness>
20.6581

> <Gold.Chemscore.DG>
-21.6078

> <Gold.Chemscore.ZeroCoef>
-5.4800

> <Gold.Chemscore.Hbond>
2.5760

> <Gold.Chemscore.Metal>
0.0000

> <Gold.Chemscore.Lipo>
98.2305

> <Gold.Chemscore.Internal_Hbond>
0.0000

> <Gold.Chemscore.DEClash>
0.0400

> <Gold.Chemscore.DEInternal>
0.9097

> <Gold.Chemscore.Rot>
1.5505

> <Gold.Chemscore.Internal.Correction>
   9.000000E+99

> <Gold.Chemscore.Hbonds>
donor molecule, donor type, donor heavy atom, donor atom, acceptor molecule, acceptor atom, score
      P1  H  6896  6907       L1    21  0.09
      P1  H  7997  8010       L1    17  1.00
      P1  H 10752 10765       L1    16  0.18

> <Gold.Chemscore.Hbond.Weighted>
-8.6040

> <Gold.Chemscore.Metal.Weighted>
-0.0000

> <Gold.Chemscore.Lipo.Weighted>
-11.4930

> <Gold.Chemscore.Internal_Hbond.Weighted>
0.0000

> <Gold.Chemscore.DEClash.Weighted>
0.0400

> <Gold.Chemscore.DEInternal.Weighted>
0.9097

> <Gold.Chemscore.Rot.Weighted>
3.9692

> <Gold.Chemscore.Internal.Correction.Weighted>
   9.000000E+99

> <Gold.Protein.RotatedTorsions>
[ 6907 6896 6895 6894 ] final  -44.33 input  -60.11 | X-H torsion
[ 7974 7965 7964 7962 ] final   44.29 input  175.53 | X-H torsion
[ 8008 7997 7996 7995 ] final  108.03 input   59.86 | X-H torsion
[ 10167 10162 10161 10158 ] final  -34.23 input  -65.29 | X-H torsion
[ 10718 10713 10712 10709 ] final   77.11 input   66.30 | X-H torsion
[ 10763 10752 10751 10750 ] final  139.98 input  -60.55 | X-H torsion
[ 11005 11000 10999 10996 ] final   82.11 input  -57.11 | X-H torsion

> <Gold.Protein.ActiveResidues>
 VAL166  LYS551  ARG553  GLY616  TRP617  ASP618  TYR619  PRO620  LYS621  CYS622 
 ASP623  PHE694  ASN695  SER759  ASP760  ASP761  ALA762  ILE779  LEU786  VAL792 
 PHE793  MET794  SER795  GLU796  ALA797  LYS798  CYS799  TRP800  GLU811  SER814 

> <Gold.Protein.RotatedAtoms>
  150.9340  134.8754  159.7569 H   0  0  0  0  0  0  0  0  0  0  0  0  # atno 6907 bound_to 6896
  152.5051  134.4037  159.9435 H   0  0  0  0  0  0  0  0  0  0  0  0  # atno 6908 bound_to 6896
  151.4063  133.3701  159.2773 H   0  0  0  0  0  0  0  0  0  0  0  0  # atno 6909 bound_to 6896
  146.0581  139.5091  142.9676 H   0  0  0  0  0  0  0  0  0  0  0  0  # atno 7974 bound_to 7965
  156.1871  140.3084  155.9259 H   0  0  0  0  0  0  0  0  0  0  0  0  # atno 8008 bound_to 7997
  155.3257  140.0458  157.3058 H   0  0  0  0  0  0  0  0  0  0  0  0  # atno 8009 bound_to 7997
  154.5408  140.2261  155.8654 H   0  0  0  0  0  0  0  0  0  0  0  0  # atno 8010 bound_to 7997
  140.7189  143.3563  151.2053 H   0  0  0  0  0  0  0  0  0  0  0  0  # atno 10167 bound_to 10162
  157.6698  130.9806  150.1594 H   0  0  0  0  0  0  0  0  0  0  0  0  # atno 10718 bound_to 10713
  153.9151  135.3007  155.3448 H   0  0  0  0  0  0  0  0  0  0  0  0  # atno 10763 bound_to 10752
  154.7604  135.4937  153.9456 H   0  0  0  0  0  0  0  0  0  0  0  0  # atno 10764 bound_to 10752
  153.1172  135.6773  153.9500 H   0  0  0  0  0  0  0  0  0  0  0  0  # atno 10765 bound_to 10752
  139.9075  134.8047  156.2131 H   0  0  0  0  0  0  0  0  0  0  0  0  # atno 11005 bound_to 11000
  145.6608  141.0241  143.1710 LP  0  0  0  0  0  0  0  0  0  0  0  0  # atno 17320 bound_to 7965
  144.7159  139.8198  143.7399 LP  0  0  0  0  0  0  0  0  0  0  0  0  # atno 17321 bound_to 7965
  139.7105  143.9385  152.2945 LP  0  0  0  0  0  0  0  0  0  0  0  0  # atno 17342 bound_to 10162
  139.9108  144.6857  150.8564 LP  0  0  0  0  0  0  0  0  0  0  0  0  # atno 17343 bound_to 10162
  156.2374  130.3687  149.8376 LP  0  0  0  0  0  0  0  0  0  0  0  0  # atno 17370 bound_to 10713
  156.6186  130.8616  151.3470 LP  0  0  0  0  0  0  0  0  0  0  0  0  # atno 17371 bound_to 10713
  141.0453  133.6916  156.1672 LP  0  0  0  0  0  0  0  0  0  0  0  0  # atno 17394 bound_to 11000
  140.6893  134.4683  157.5589 LP  0  0  0  0  0  0  0  0  0  0  0  0  # atno 17395 bound_to 11000

$$$$
