AV-unprocessed.smi:281|AV-procd|sdf|2105|dock6
  -GOLD-   2262021393D 1   1.00000     0.00000
 Structure written by MMmdl.
 55 59  0  0  0  0  0  0  0  0  1 V2000
  152.3717  140.3351  159.2472 C   0  0  0  0  0  0  0  0  0  0  0  0
  151.0637  139.8655  158.6029 C   0  0  2  0  0  0  0  0  0  0  0  0
  150.7936  138.3760  158.8658 C   0  0  0  0  0  0  0  0  0  0  0  0
  149.5853  137.9465  158.1661 N   0  0  0  0  0  0  0  0  0  0  0  0
  149.0830  136.7210  158.4752 C   0  0  0  0  0  0  0  0  0  0  0  0
  149.1930  135.6994  157.5826 N   0  0  0  0  0  0  0  0  0  0  0  0
  148.6972  134.4919  157.8664 C   0  0  0  0  0  0  0  0  0  0  0  0
  148.0658  134.0883  158.9695 N   0  0  0  0  0  0  0  0  0  0  0  0
  147.9584  135.1015  159.8755 C   0  0  0  0  0  0  0  0  0  0  0  0
  148.4313  136.4352  159.7101 C   0  0  0  0  0  0  0  0  0  0  0  0
  148.1429  137.1774  160.8489 N   0  0  0  0  0  0  0  0  0  0  0  0
  147.5282  136.3378  161.6352 C   0  0  0  0  0  0  0  0  0  0  0  0
  147.3837  135.0641  161.1345 N   0  0  0  0  0  0  0  0  0  0  0  0
  146.7456  133.9353  161.7959 C   0  0  0  0  0  0  0  0  0  0  0  0
  145.2111  134.0829  161.9358 C   0  0  1  0  0  0  0  0  0  0  0  0
  144.6798  132.8704  162.4393 O   0  0  0  0  0  0  0  0  0  0  0  0
  144.8182  135.2265  162.8738 C   0  0  0  0  0  0  0  0  0  0  0  0
  144.2524  136.2834  161.9328 C   0  0  0  0  0  0  0  0  0  0  0  0
  143.6145  135.5021  160.9390 O   0  0  0  0  0  0  0  0  0  0  0  0
  144.4987  134.4389  160.6151 C   0  0  0  0  0  0  0  0  0  0  0  0
  149.6025  138.2584  156.7386 C   0  0  0  0  0  0  0  0  0  0  0  0
  149.9765  139.7424  156.4709 C   0  0  1  0  0  0  0  0  0  0  0  0
  150.3000  139.9446  154.9954 C   0  0  0  0  0  0  0  0  0  0  0  0
  148.9570  140.3362  154.4023 C   0  0  0  0  0  0  0  0  0  0  0  0
  148.4171  141.2075  155.3794 O   0  0  0  0  0  0  0  0  0  0  0  0
  148.8528  140.8012  156.6752 C   0  0  1  0  0  0  0  0  0  0  0  0
  147.6262  140.3931  157.5056 C   0  0  0  0  0  0  0  0  0  0  0  0
  151.1624  140.0736  157.1968 O   0  0  0  0  0  0  0  0  0  0  0  0
  152.3441  140.2073  160.3295 H   0  0  0  0  0  0  0  0  0  0  0  0
  152.5487  141.3911  159.0422 H   0  0  0  0  0  0  0  0  0  0  0  0
  153.2247  139.7739  158.8646 H   0  0  0  0  0  0  0  0  0  0  0  0
  150.2488  140.4649  159.0097 H   0  0  0  0  0  0  0  0  0  0  0  0
  151.6415  137.7773  158.5292 H   0  0  0  0  0  0  0  0  0  0  0  0
  150.6816  138.2107  159.9382 H   0  0  0  0  0  0  0  0  0  0  0  0
  148.8247  133.7422  157.0993 H   0  0  0  0  0  0  0  0  0  0  0  0
  147.1672  136.6254  162.6120 H   0  0  0  0  0  0  0  0  0  0  0  0
  146.9898  133.0307  161.2370 H   0  0  0  0  0  0  0  0  0  0  0  0
  147.1985  133.8146  162.7809 H   0  0  0  0  0  0  0  0  0  0  0  0
  145.3968  132.2778  162.6071 H   0  0  0  0  0  0  0  0  0  0  0  0
  144.0350  134.9144  163.5671 H   0  0  0  0  0  0  0  0  0  0  0  0
  145.6488  135.6060  163.4702 H   0  0  0  0  0  0  0  0  0  0  0  0
  143.5539  136.9588  162.4271 H   0  0  0  0  0  0  0  0  0  0  0  0
  145.0496  136.8764  161.4817 H   0  0  0  0  0  0  0  0  0  0  0  0
  145.2048  134.8154  159.8747 H   0  0  0  0  0  0  0  0  0  0  0  0
  143.9661  133.6002  160.1645 H   0  0  0  0  0  0  0  0  0  0  0  0
  150.3464  137.6073  156.2775 H   0  0  0  0  0  0  0  0  0  0  0  0
  148.6547  138.0207  156.2588 H   0  0  0  0  0  0  0  0  0  0  0  0
  150.9980  140.7742  154.8715 H   0  0  0  0  0  0  0  0  0  0  0  0
  150.7396  139.0699  154.5152 H   0  0  0  0  0  0  0  0  0  0  0  0
  149.0480  140.8270  153.4332 H   0  0  0  0  0  0  0  0  0  0  0  0
  148.3088  139.4661  154.2901 H   0  0  0  0  0  0  0  0  0  0  0  0
  149.2880  141.6919  157.1302 H   0  0  0  0  0  0  0  0  0  0  0  0
  147.9030  140.0773  158.5109 H   0  0  0  0  0  0  0  0  0  0  0  0
  147.0755  139.5835  157.0296 H   0  0  0  0  0  0  0  0  0  0  0  0
  146.9385  141.2325  157.6077 H   0  0  0  0  0  0  0  0  0  0  0  0
  1  2  1  0  0  0  0
  1 29  1  0  0  0  0
  1 30  1  0  0  0  0
  1 31  1  0  0  0  0
  2 28  1  0  0  0  0
  2  3  1  0  0  0  0
  2 32  1  0  0  0  0
  3  4  1  0  0  0  0
  3 33  1  0  0  0  0
  3 34  1  0  0  0  0
  4  5  1  0  0  0  0
  4 21  1  0  0  0  0
  5 10  1  0  0  0  0
  5  6  2  0  0  0  0
  6  7  1  0  0  0  0
  7  8  2  0  0  0  0
  7 35  1  0  0  0  0
  8  9  1  0  0  0  0
  9 13  1  0  0  0  0
  9 10  2  0  0  0  0
 10 11  1  0  0  0  0
 11 12  2  0  0  0  0
 12 13  1  0  0  0  0
 12 36  1  0  0  0  0
 13 14  1  0  0  0  0
 14 15  1  0  0  0  0
 14 37  1  0  0  0  0
 14 38  1  0  0  0  0
 15 20  1  0  0  0  0
 15 16  1  0  0  0  0
 15 17  1  0  0  0  0
 16 39  1  0  0  0  0
 17 18  1  0  0  0  0
 17 40  1  0  0  0  0
 17 41  1  0  0  0  0
 18 19  1  0  0  0  0
 18 42  1  0  0  0  0
 18 43  1  0  0  0  0
 19 20  1  0  0  0  0
 20 44  1  0  0  0  0
 20 45  1  0  0  0  0
 21 22  1  0  0  0  0
 21 46  1  0  0  0  0
 21 47  1  0  0  0  0
 22 26  1  0  0  0  0
 22 23  1  0  0  0  0
 22 28  1  0  0  0  0
 23 24  1  0  0  0  0
 23 48  1  0  0  0  0
 23 49  1  0  0  0  0
 24 25  1  0  0  0  0
 24 50  1  0  0  0  0
 24 51  1  0  0  0  0
 25 26  1  0  0  0  0
 26 27  1  0  0  0  0
 26 52  1  0  0  0  0
 27 53  1  0  0  0  0
 27 54  1  0  0  0  0
 27 55  1  0  0  0  0
M  END
> <s_m_source_file>
AV-unprocessed.smi

> <i_m_source_file_index>
281

> <i_lp_mmshare_version>
43012

> <i_f3d_flags>
0

> <s_epik_input>
W0NIM11bQ0BASF0xT1tDSDJdW0NIMl1bQ0BAXTEyW0NIMl1OKFtDSDJdW0NASF0oTzIpW0NIM10pYyhuW2NIXW4zKWMoYzM0KW5bY0hdbjRbQ0gyXVtDQEBdNShbT0hdKVtDSDJdW0NIMl1PW0NIMl01

> <s_epik_cmdline>
J2VwaWtfcHl0aG9uJywgJy1waCcsICc3LjAnLCAnLXRuJywgJzgnLCAnLW1hJywgJzIwMCcsICctbWV0YWxfYmluZGluZycsICctaW1hZScsICc8aW5maWxlLm1hZT4nLCAnLW9tYWUnLCAnPG91dGZpbGUubWFlPic=

> <r_lp_tautomer_probability>
1

> <r_epik_Ionization_Penalty>
0.00571331

> <r_epik_Ionization_Penalty_Charging>
0

> <r_epik_Ionization_Penalty_Neutral>
0.00571331

> <r_epik_State_Penalty>
0.00399586

> <r_epik_Charging_Adjusted_Penalty>
0.00399586

> <i_epik_Tot_Q>
0

> <i_epik_Tot_abs_Q>
0

> <r_epik_Metal_State_Penalty>
-0

> <b_epik_Metal_Only>
0

> <s_lp_Force_Field>
OPLS_2005

> <r_lp_Energy>
53.3416

> <b_lp_Chiralities_Consistent>
1

> <s_lp_Variant>
AV-unprocessed.smi:281-5

> <Gold.Version>
5.8.1

> <Gold.Id.Protein>
6NUR|6NUR_protein|mol2

> <Gold.PLP.Fitness>
38.9883

> <Gold.PLP.PLP>
-35.3446

> <Gold.PLP.part.hbond>
-2.9517

> <Gold.PLP.part.metal>
0.0000

> <Gold.PLP.part.buried>
-4.8816

> <Gold.PLP.part.nonpolar>
-26.7712

> <Gold.PLP.part.repulsive>
0.1007

> <Gold.PLP.ligand.clash>
0.0000

> <Gold.PLP.ligand.torsion>
0.6375

> <Gold.PLP.Chemscore.Hbond>
1.5444

> <Gold.PLP.Chemscore.CHOScore>
0.0000

> <Gold.PLP.Chemscore.Metal>
0.0000

> <Gold.Chemscore.Hbonds>
donor molecule, donor type, donor heavy atom, donor atom, acceptor molecule, acceptor atom, score
      P1  H  6931  6943       L1    11  0.90
      P1  H  6934  6947       L1    11  0.61

> <Gold.PLP.Chemscore.Internal.Correction>
0.2854

> <Gold.Rescore>
     Score         DG    S(hbond)    S(metal)    S(lipo)     H(rot)  DE(clash)    DE(int)     intcor
     12.24     -12.91       1.54        0.00      65.30       2.09       0.04       0.63       ----

> <Gold.Chemscore.Fitness>
12.2389

> <Gold.Chemscore.DG>
-12.9146

> <Gold.Chemscore.ZeroCoef>
-5.4800

> <Gold.Chemscore.Hbond>
1.5424

> <Gold.Chemscore.Metal>
0.0000

> <Gold.Chemscore.Lipo>
65.3014

> <Gold.Chemscore.Internal_Hbond>
0.0000

> <Gold.Chemscore.DEClash>
0.0438

> <Gold.Chemscore.DEInternal>
0.6320

> <Gold.Chemscore.Rot>
2.0927

> <Gold.Chemscore.Internal.Correction>
   9.000000E+99

> <Gold.Chemscore.Hbonds>
donor molecule, donor type, donor heavy atom, donor atom, acceptor molecule, acceptor atom, score
      P1  H  6931  6943       L1    11  0.49
      P1  H  6934  6947       L1    11  0.43

> <Gold.Chemscore.Hbond.Weighted>
-5.1517

> <Gold.Chemscore.Metal.Weighted>
-0.0000

> <Gold.Chemscore.Lipo.Weighted>
-7.6403

> <Gold.Chemscore.Internal_Hbond.Weighted>
0.0000

> <Gold.Chemscore.DEClash.Weighted>
0.0438

> <Gold.Chemscore.DEInternal.Weighted>
0.6320

> <Gold.Chemscore.Rot.Weighted>
5.3573

> <Gold.Chemscore.Internal.Correction.Weighted>
   9.000000E+99

> <Gold.Protein.RotatedTorsions>
[ 6907 6896 6895 6894 ] final  123.81 input  -60.11 | X-H torsion
[ 7974 7965 7964 7962 ] final -136.88 input  175.53 | X-H torsion
[ 8008 7997 7996 7995 ] final -150.87 input   59.86 | X-H torsion
[ 10167 10162 10161 10158 ] final -148.50 input  -65.29 | X-H torsion
[ 10718 10713 10712 10709 ] final  -93.12 input   66.30 | X-H torsion
[ 10763 10752 10751 10750 ] final  -86.31 input  -60.55 | X-H torsion
[ 11005 11000 10999 10996 ] final  -83.82 input  -57.11 | X-H torsion

> <Gold.Protein.ActiveResidues>
 VAL166  LYS551  ARG553  GLY616  TRP617  ASP618  TYR619  PRO620  LYS621  CYS622 
 ASP623  PHE694  ASN695  SER759  ASP760  ASP761  ALA762  ILE779  LEU786  VAL792 
 PHE793  MET794  SER795  GLU796  ALA797  LYS798  CYS799  TRP800  GLU811  SER814 

> <Gold.Protein.RotatedAtoms>
  152.4131  133.6994  159.6414 H   0  0  0  0  0  0  0  0  0  0  0  0  # atno 6907 bound_to 6896
  150.8009  133.8589  159.3235 H   0  0  0  0  0  0  0  0  0  0  0  0  # atno 6908 bound_to 6896
  151.6326  135.1023  160.0176 H   0  0  0  0  0  0  0  0  0  0  0  0  # atno 6909 bound_to 6896
  144.8889  140.6614  143.5158 H   0  0  0  0  0  0  0  0  0  0  0  0  # atno 7974 bound_to 7965
  155.6304  140.0691  157.2650 H   0  0  0  0  0  0  0  0  0  0  0  0  # atno 8008 bound_to 7997
  154.4207  140.1768  156.1515 H   0  0  0  0  0  0  0  0  0  0  0  0  # atno 8009 bound_to 7997
  155.9937  140.3342  155.6781 H   0  0  0  0  0  0  0  0  0  0  0  0  # atno 8010 bound_to 7997
  139.7526  143.8496  152.2590 H   0  0  0  0  0  0  0  0  0  0  0  0  # atno 10167 bound_to 10162
  156.0010  130.5014  150.5729 H   0  0  0  0  0  0  0  0  0  0  0  0  # atno 10718 bound_to 10713
  154.6210  135.5454  153.7575 H   0  0  0  0  0  0  0  0  0  0  0  0  # atno 10763 bound_to 10752
  153.0238  135.6412  154.1440 H   0  0  0  0  0  0  0  0  0  0  0  0  # atno 10764 bound_to 10752
  154.1375  135.2910  155.3149 H   0  0  0  0  0  0  0  0  0  0  0  0  # atno 10765 bound_to 10752
  141.1655  133.7314  156.8776 H   0  0  0  0  0  0  0  0  0  0  0  0  # atno 11005 bound_to 11000
  145.3818  139.1635  143.4276 LP  0  0  0  0  0  0  0  0  0  0  0  0  # atno 17320 bound_to 7965
  146.3042  140.3900  142.8693 LP  0  0  0  0  0  0  0  0  0  0  0  0  # atno 17321 bound_to 7965
  139.8479  144.7179  150.9251 LP  0  0  0  0  0  0  0  0  0  0  0  0  # atno 17342 bound_to 10162
  140.7799  143.3925  151.1285 LP  0  0  0  0  0  0  0  0  0  0  0  0  # atno 17343 bound_to 10162
  157.3621  131.0751  151.1628 LP  0  0  0  0  0  0  0  0  0  0  0  0  # atno 17370 bound_to 10713
  157.2409  130.6569  149.5889 LP  0  0  0  0  0  0  0  0  0  0  0  0  # atno 17371 bound_to 10713
  140.1737  134.9082  157.2865 LP  0  0  0  0  0  0  0  0  0  0  0  0  # atno 17394 bound_to 11000
  140.2473  134.3725  155.7456 LP  0  0  0  0  0  0  0  0  0  0  0  0  # atno 17395 bound_to 11000

$$$$
