AV-unprocessed.smi:273|AV-procd|sdf|2056|dock8
  -GOLD-   2262021293D 1   1.00000     0.00000
 Structure written by MMmdl.
 59 62  0  0  0  0  0  0  0  0  1 V2000
  151.2233  145.0126  159.0075 C   0  0  0  0  0  0  0  0  0  0  0  0
  152.2230  144.0984  158.2927 C   0  0  0  0  0  0  0  0  0  0  0  0
  151.5471  142.9282  157.7511 N   0  0  0  0  0  0  0  0  0  0  0  0
  151.8216  141.6596  158.0935 C   0  0  0  0  0  0  0  0  0  0  0  0
  152.6888  141.3736  158.9194 O   0  0  0  0  0  0  0  0  0  0  0  0
  150.9977  140.5363  157.4326 C   0  0  0  0  0  0  0  0  0  0  0  0
  151.0768  139.2282  158.2499 C   0  0  0  0  0  0  0  0  0  0  0  0
  150.2380  138.1119  157.6072 C   0  0  0  0  0  0  0  0  0  0  0  0
  150.6155  137.9100  156.2094 N   0  0  0  0  0  0  0  0  0  0  0  0
  150.1744  136.7431  155.6747 C   0  0  0  0  0  0  0  0  0  0  0  0
  151.0382  135.7075  155.4949 N   0  0  0  0  0  0  0  0  0  0  0  0
  150.6159  134.5616  154.9526 C   0  0  0  0  0  0  0  0  0  0  0  0
  149.3930  134.2415  154.5257 N   0  0  0  0  0  0  0  0  0  0  0  0
  148.5202  135.2722  154.7121 C   0  0  0  0  0  0  0  0  0  0  0  0
  148.8225  136.5438  155.2757 C   0  0  0  0  0  0  0  0  0  0  0  0
  147.6745  137.3274  155.3155 N   0  0  0  0  0  0  0  0  0  0  0  0
  146.7500  136.5668  154.7957 C   0  0  0  0  0  0  0  0  0  0  0  0
  147.1742  135.3189  154.3987 N   0  0  0  0  0  0  0  0  0  0  0  0
  146.3694  134.2769  153.7866 C   0  0  0  0  0  0  0  0  0  0  0  0
  145.9414  134.6138  152.3366 C   0  0  2  0  0  0  0  0  0  0  0  0
  145.2749  136.0062  152.2195 C   0  0  0  0  0  0  0  0  0  0  0  0
  145.4758  136.5700  150.9396 O   0  0  0  0  0  0  0  0  0  0  0  0
  145.0713  133.4878  151.7237 C   0  0  1  0  0  0  0  0  0  0  0  0
  144.5537  133.7684  150.3236 C   0  0  0  0  0  0  0  0  0  0  0  0
  144.1856  132.3748  149.8244 C   0  0  0  0  0  0  0  0  0  0  0  0
  145.0778  131.4788  150.4778 O   0  0  0  0  0  0  0  0  0  0  0  0
  145.8148  132.1707  151.4800 C   0  0  0  0  0  0  0  0  0  0  0  0
  150.5394  139.1087  155.3738 C   0  0  0  0  0  0  0  0  0  0  0  0
  151.3894  140.2450  155.9637 C   0  0  0  0  0  0  0  0  0  0  0  0
  151.7260  145.8851  159.4251 H   0  0  0  0  0  0  0  0  0  0  0  0
  150.7268  144.4911  159.8265 H   0  0  0  0  0  0  0  0  0  0  0  0
  150.4553  145.3690  158.3202 H   0  0  0  0  0  0  0  0  0  0  0  0
  152.7160  144.6463  157.4881 H   0  0  0  0  0  0  0  0  0  0  0  0
  152.9991  143.7771  158.9892 H   0  0  0  0  0  0  0  0  0  0  0  0
  150.8207  143.0910  157.0690 H   0  0  0  0  0  0  0  0  0  0  0  0
  149.9613  140.8769  157.4406 H   0  0  0  0  0  0  0  0  0  0  0  0
  152.1149  138.9002  158.3247 H   0  0  0  0  0  0  0  0  0  0  0  0
  150.7290  139.3895  159.2712 H   0  0  0  0  0  0  0  0  0  0  0  0
  150.3550  137.1975  158.1879 H   0  0  0  0  0  0  0  0  0  0  0  0
  149.1798  138.3731  157.6491 H   0  0  0  0  0  0  0  0  0  0  0  0
  151.3660  133.7921  154.8422 H   0  0  0  0  0  0  0  0  0  0  0  0
  145.7287  136.8995  154.6788 H   0  0  0  0  0  0  0  0  0  0  0  0
  146.9502  133.3548  153.8129 H   0  0  0  0  0  0  0  0  0  0  0  0
  145.4917  134.1054  154.4109 H   0  0  0  0  0  0  0  0  0  0  0  0
  146.8559  134.6660  151.7437 H   0  0  0  0  0  0  0  0  0  0  0  0
  144.2035  135.9445  152.4106 H   0  0  0  0  0  0  0  0  0  0  0  0
  145.6702  136.6909  152.9693 H   0  0  0  0  0  0  0  0  0  0  0  0
  144.7077  137.0692  150.7070 H   0  0  0  0  0  0  0  0  0  0  0  0
  144.2185  133.2874  152.3745 H   0  0  0  0  0  0  0  0  0  0  0  0
  143.7048  134.4524  150.3062 H   0  0  0  0  0  0  0  0  0  0  0  0
  145.3451  134.1898  149.7019 H   0  0  0  0  0  0  0  0  0  0  0  0
  143.1656  132.1224  150.1167 H   0  0  0  0  0  0  0  0  0  0  0  0
  144.2584  132.2898  148.7400 H   0  0  0  0  0  0  0  0  0  0  0  0
  146.8191  132.3586  151.0973 H   0  0  0  0  0  0  0  0  0  0  0  0
  145.9061  131.5671  152.3833 H   0  0  0  0  0  0  0  0  0  0  0  0
  150.8875  138.8841  154.3645 H   0  0  0  0  0  0  0  0  0  0  0  0
  149.4988  139.4270  155.2931 H   0  0  0  0  0  0  0  0  0  0  0  0
  151.2628  141.1355  155.3466 H   0  0  0  0  0  0  0  0  0  0  0  0
  152.4438  139.9690  155.9056 H   0  0  0  0  0  0  0  0  0  0  0  0
  1  2  1  0  0  0  0
  1 30  1  0  0  0  0
  1 31  1  0  0  0  0
  1 32  1  0  0  0  0
  2  3  1  0  0  0  0
  2 33  1  0  0  0  0
  2 34  1  0  0  0  0
  3  4  1  0  0  0  0
  3 35  1  0  0  0  0
  4  5  2  0  0  0  0
  4  6  1  0  0  0  0
  6 29  1  0  0  0  0
  6  7  1  0  0  0  0
  6 36  1  0  0  0  0
  7  8  1  0  0  0  0
  7 37  1  0  0  0  0
  7 38  1  0  0  0  0
  8  9  1  0  0  0  0
  8 39  1  0  0  0  0
  8 40  1  0  0  0  0
  9 10  1  0  0  0  0
  9 28  1  0  0  0  0
 10 15  1  0  0  0  0
 10 11  2  0  0  0  0
 11 12  1  0  0  0  0
 12 13  2  0  0  0  0
 12 41  1  0  0  0  0
 13 14  1  0  0  0  0
 14 18  1  0  0  0  0
 14 15  2  0  0  0  0
 15 16  1  0  0  0  0
 16 17  2  0  0  0  0
 17 18  1  0  0  0  0
 17 42  1  0  0  0  0
 18 19  1  0  0  0  0
 19 20  1  0  0  0  0
 19 43  1  0  0  0  0
 19 44  1  0  0  0  0
 20 21  1  0  0  0  0
 20 23  1  0  0  0  0
 20 45  1  0  0  0  0
 21 22  1  0  0  0  0
 21 46  1  0  0  0  0
 21 47  1  0  0  0  0
 22 48  1  0  0  0  0
 23 27  1  0  0  0  0
 23 24  1  0  0  0  0
 23 49  1  0  0  0  0
 24 25  1  0  0  0  0
 24 50  1  0  0  0  0
 24 51  1  0  0  0  0
 25 26  1  0  0  0  0
 25 52  1  0  0  0  0
 25 53  1  0  0  0  0
 26 27  1  0  0  0  0
 27 54  1  0  0  0  0
 27 55  1  0  0  0  0
 28 29  1  0  0  0  0
 28 56  1  0  0  0  0
 28 57  1  0  0  0  0
 29 58  1  0  0  0  0
 29 59  1  0  0  0  0
M  END
> <s_m_source_file>
AV-unprocessed.smi

> <i_m_source_file_index>
273

> <i_lp_mmshare_version>
43012

> <i_f3d_flags>
0

> <s_epik_input>
W0NIM11bQ0gyXVtOSF1DKD1PKVtDSF0xW0NIMl1bQ0gyXU4oW0NIMl1bQ0gyXTEpYyhuW2NIXW4yKWMoYzIzKW5bY0hdbjNbQ0gyXVtDQEhdKFtDSDJdW09IXSlbQ0BASF00W0NIMl1bQ0gyXU9bQ0gyXTQ=

> <s_epik_cmdline>
J2VwaWtfcHl0aG9uJywgJy1waCcsICc3LjAnLCAnLXRuJywgJzgnLCAnLW1hJywgJzIwMCcsICctbWV0YWxfYmluZGluZycsICctaW1hZScsICc8aW5maWxlLm1hZT4nLCAnLW9tYWUnLCAnPG91dGZpbGUubWFlPic=

> <r_lp_tautomer_probability>
1

> <r_epik_Ionization_Penalty>
0.00226556

> <r_epik_Ionization_Penalty_Charging>
0

> <r_epik_Ionization_Penalty_Neutral>
0.00226556

> <r_epik_State_Penalty>
0.00139883

> <r_epik_Charging_Adjusted_Penalty>
0.00139883

> <i_epik_Tot_Q>
0

> <i_epik_Tot_abs_Q>
0

> <r_epik_Metal_State_Penalty>
-0

> <b_epik_Metal_Only>
0

> <s_lp_Force_Field>
OPLS_2005

> <r_lp_Energy>
43.2491

> <b_lp_Chiralities_Consistent>
1

> <s_lp_Variant>
AV-unprocessed.smi:273-3

> <Gold.Version>
5.8.1

> <Gold.Id.Protein>
6NUR|6NUR_protein|mol2

> <Gold.PLP.Fitness>
43.4082

> <Gold.PLP.PLP>
-40.3022

> <Gold.PLP.part.hbond>
-1.7369

> <Gold.PLP.part.metal>
0.0000

> <Gold.PLP.part.buried>
-6.8043

> <Gold.PLP.part.nonpolar>
-31.4703

> <Gold.PLP.part.repulsive>
0.4218

> <Gold.PLP.ligand.clash>
0.0000

> <Gold.PLP.ligand.torsion>
1.1660

> <Gold.PLP.Chemscore.Hbond>
1.6077

> <Gold.PLP.Chemscore.CHOScore>
0.0000

> <Gold.PLP.Chemscore.Metal>
0.0000

> <Gold.Chemscore.Hbonds>
donor molecule, donor type, donor heavy atom, donor atom, acceptor molecule, acceptor atom, score
      L1  H    22    48       P1 10171  1.00
      P1  H 10752 10765       L1    11  0.68

> <Gold.PLP.Chemscore.Internal.Correction>
0.6148

> <Gold.Rescore>
     Score         DG    S(hbond)    S(metal)    S(lipo)     H(rot)  DE(clash)    DE(int)     intcor
     10.70     -11.91       1.13        0.00      93.31       3.22       0.15       1.07       ----

> <Gold.Chemscore.Fitness>
10.6952

> <Gold.Chemscore.DG>
-11.9146

> <Gold.Chemscore.ZeroCoef>
-5.4800

> <Gold.Chemscore.Hbond>
1.1295

> <Gold.Chemscore.Metal>
0.0000

> <Gold.Chemscore.Lipo>
93.3055

> <Gold.Chemscore.Internal_Hbond>
0.0000

> <Gold.Chemscore.DEClash>
0.1460

> <Gold.Chemscore.DEInternal>
1.0734

> <Gold.Chemscore.Rot>
3.2244

> <Gold.Chemscore.Internal.Correction>
   9.000000E+99

> <Gold.Chemscore.Hbonds>
donor molecule, donor type, donor heavy atom, donor atom, acceptor molecule, acceptor atom, score
      L1  H    22    48       P1 10171  0.94
      P1  H 10752 10765       L1    11  0.10

> <Gold.Chemscore.Hbond.Weighted>
-3.7724

> <Gold.Chemscore.Metal.Weighted>
-0.0000

> <Gold.Chemscore.Lipo.Weighted>
-10.9167

> <Gold.Chemscore.Internal_Hbond.Weighted>
0.0000

> <Gold.Chemscore.DEClash.Weighted>
0.1460

> <Gold.Chemscore.DEInternal.Weighted>
1.0734

> <Gold.Chemscore.Rot.Weighted>
8.2545

> <Gold.Chemscore.Internal.Correction.Weighted>
   9.000000E+99

> <Gold.Protein.RotatedTorsions>
[ 6907 6896 6895 6894 ] final    3.51 input  -60.11 | X-H torsion
[ 7974 7965 7964 7962 ] final -176.79 input  175.53 | X-H torsion
[ 8008 7997 7996 7995 ] final  163.00 input   59.86 | X-H torsion
[ 10167 10162 10161 10158 ] final   41.34 input  -65.29 | X-H torsion
[ 10718 10713 10712 10709 ] final -121.46 input   66.30 | X-H torsion
[ 10763 10752 10751 10750 ] final -160.53 input  -60.55 | X-H torsion
[ 11005 11000 10999 10996 ] final  123.94 input  -57.11 | X-H torsion

> <Gold.Protein.ActiveResidues>
 VAL166  LYS551  ARG553  GLY616  TRP617  ASP618  TYR619  PRO620  LYS621  CYS622 
 ASP623  PHE694  ASN695  SER759  ASP760  ASP761  ALA762  ILE779  LEU786  VAL792 
 PHE793  MET794  SER795  GLU796  ALA797  LYS798  CYS799  TRP800  GLU811  SER814 

> <Gold.Protein.RotatedAtoms>
  151.6262  135.1027  160.0111 H   0  0  0  0  0  0  0  0  0  0  0  0  # atno 6907 bound_to 6896
  152.4131  133.6990  159.6423 H   0  0  0  0  0  0  0  0  0  0  0  0  # atno 6908 bound_to 6896
  150.8020  133.8506  159.3245 H   0  0  0  0  0  0  0  0  0  0  0  0  # atno 6909 bound_to 6896
  144.7127  140.1117  143.6410 H   0  0  0  0  0  0  0  0  0  0  0  0  # atno 7974 bound_to 7965
  156.1990  140.1735  156.7939 H   0  0  0  0  0  0  0  0  0  0  0  0  # atno 8008 bound_to 7997
  154.5566  140.0707  156.8784 H   0  0  0  0  0  0  0  0  0  0  0  0  # atno 8009 bound_to 7997
  155.2926  140.3356  155.4254 H   0  0  0  0  0  0  0  0  0  0  0  0  # atno 8010 bound_to 7997
  140.3653  144.2176  150.6136 H   0  0  0  0  0  0  0  0  0  0  0  0  # atno 10167 bound_to 10162
  156.1339  130.6416  150.9665 H   0  0  0  0  0  0  0  0  0  0  0  0  # atno 10718 bound_to 10713
  154.7383  135.3062  154.8774 H   0  0  0  0  0  0  0  0  0  0  0  0  # atno 10763 bound_to 10752
  153.9596  135.6754  153.4749 H   0  0  0  0  0  0  0  0  0  0  0  0  # atno 10764 bound_to 10752
  153.0983  135.4924  154.8744 H   0  0  0  0  0  0  0  0  0  0  0  0  # atno 10765 bound_to 10752
  139.9336  134.9640  156.8335 H   0  0  0  0  0  0  0  0  0  0  0  0  # atno 11005 bound_to 11000
  145.9449  139.2694  143.1247 LP  0  0  0  0  0  0  0  0  0  0  0  0  # atno 17320 bound_to 7965
  145.9385  140.8997  143.0320 LP  0  0  0  0  0  0  0  0  0  0  0  0  # atno 17321 bound_to 7965
  140.5087  143.2297  151.8568 LP  0  0  0  0  0  0  0  0  0  0  0  0  # atno 17342 bound_to 10162
  139.4809  144.4975  151.9104 LP  0  0  0  0  0  0  0  0  0  0  0  0  # atno 17343 bound_to 10162
  157.6514  131.0896  150.8042 LP  0  0  0  0  0  0  0  0  0  0  0  0  # atno 17370 bound_to 10713
  156.8124  130.4957  149.5354 LP  0  0  0  0  0  0  0  0  0  0  0  0  # atno 17371 bound_to 10713
  140.6136  134.0059  155.7587 LP  0  0  0  0  0  0  0  0  0  0  0  0  # atno 17394 bound_to 11000
  141.0938  133.9876  157.3194 LP  0  0  0  0  0  0  0  0  0  0  0  0  # atno 17395 bound_to 11000

$$$$
