AV-unprocessed.smi:3172|AV-procd|sdf|12113|dock4
  -GOLD-   2272017553D 1   1.00000     0.00000
 Structure written by MMmdl.
 44 45  0  0  0  0  0  0  0  0  3 V2000
  150.4555  135.4590  155.6345 C   0  0  0  0  0  0  0  0  0  0  0  0
  150.6400  136.9105  155.3424 C   0  0  0  0  0  0  0  0  0  0  0  0
  150.3292  137.4539  154.1243 N   0  3  0  0  0  0  0  0  0  0  0  0
  150.5838  138.7629  154.1164 C   0  0  0  0  0  0  0  0  0  0  0  0
  151.0693  139.0712  155.3246 N   0  0  0  0  0  0  0  0  0  0  0  0
  151.4640  140.4468  155.6692 C   0  0  0  0  0  0  0  0  0  0  0  0
  150.2569  141.3616  155.9576 C   0  0  2  0  0  0  0  0  0  0  0  0
  149.2937  141.3973  154.7620 C   0  0  0  0  0  0  0  0  0  0  0  0
  150.7136  142.7320  156.2882 N   0  3  0  0  0  0  0  0  0  0  0  0
  151.0466  142.9725  157.7100 C   0  0  0  0  0  0  0  0  0  0  0  0
  151.6876  144.3644  157.8669 C   0  0  0  0  0  0  0  0  0  0  0  0
  152.0855  144.6416  159.3258 C   0  0  0  0  0  0  0  0  0  0  0  0
  153.0249  143.5509  159.8626 C   0  0  0  0  0  0  0  0  0  0  0  0
  152.3993  142.1563  159.7076 C   0  0  0  0  0  0  0  0  0  0  0  0
  151.9992  141.8824  158.2489 C   0  0  0  0  0  0  0  0  0  0  0  0
  151.1093  137.9451  156.1191 C   0  0  0  0  0  0  0  0  0  0  0  0
  151.5904  137.9459  157.5348 C   0  0  0  0  0  0  0  0  0  0  0  0
  150.1555  135.3150  156.6726 H   0  0  0  0  0  0  0  0  0  0  0  0
  151.3882  134.9211  155.4641 H   0  0  0  0  0  0  0  0  0  0  0  0
  149.6843  135.0325  154.9923 H   0  0  0  0  0  0  0  0  0  0  0  0
  150.4280  139.4360  153.2919 H   0  0  0  0  0  0  0  0  0  0  0  0
  152.1354  140.4129  156.5291 H   0  0  0  0  0  0  0  0  0  0  0  0
  152.0507  140.8363  154.8367 H   0  0  0  0  0  0  0  0  0  0  0  0
  149.7152  140.9464  156.8062 H   0  0  0  0  0  0  0  0  0  0  0  0
  148.9373  140.3963  154.5169 H   0  0  0  0  0  0  0  0  0  0  0  0
  149.7777  141.8032  153.8729 H   0  0  0  0  0  0  0  0  0  0  0  0
  148.4178  142.0115  154.9731 H   0  0  0  0  0  0  0  0  0  0  0  0
  151.5400  142.9408  155.7469 H   0  0  0  0  0  0  0  0  0  0  0  0
  150.1230  142.9613  158.2910 H   0  0  0  0  0  0  0  0  0  0  0  0
  152.5710  144.4410  157.2311 H   0  0  0  0  0  0  0  0  0  0  0  0
  150.9950  145.1353  157.5265 H   0  0  0  0  0  0  0  0  0  0  0  0
  152.5679  145.6168  159.4016 H   0  0  0  0  0  0  0  0  0  0  0  0
  151.1901  144.6914  159.9467 H   0  0  0  0  0  0  0  0  0  0  0  0
  153.9742  143.5885  159.3264 H   0  0  0  0  0  0  0  0  0  0  0  0
  153.2552  143.7407  160.9116 H   0  0  0  0  0  0  0  0  0  0  0  0
  153.1007  141.3951  160.0506 H   0  0  0  0  0  0  0  0  0  0  0  0
  151.5201  142.0771  160.3485 H   0  0  0  0  0  0  0  0  0  0  0  0
  151.5363  140.8977  158.1885 H   0  0  0  0  0  0  0  0  0  0  0  0
  152.8967  141.8361  157.6302 H   0  0  0  0  0  0  0  0  0  0  0  0
  151.1681  137.1009  158.0786 H   0  0  0  0  0  0  0  0  0  0  0  0
  151.2935  138.8593  158.0500 H   0  0  0  0  0  0  0  0  0  0  0  0
  152.6765  137.8620  157.5640 H   0  0  0  0  0  0  0  0  0  0  0  0
  149.9830  143.3738  156.0141 H   0  0  0  0  0  0  0  0  0  0  0  0
  149.9514  136.9367  153.3399 H   0  0  0  0  0  0  0  0  0  0  0  0
  1  2  1  0  0  0  0
  1 18  1  0  0  0  0
  1 19  1  0  0  0  0
  1 20  1  0  0  0  0
  2 16  2  0  0  0  0
  2  3  1  0  0  0  0
  3  4  2  0  0  0  0
  3 44  1  0  0  0  0
  4  5  1  0  0  0  0
  4 21  1  0  0  0  0
  5  6  1  0  0  0  0
  5 16  1  0  0  0  0
  6  7  1  0  0  0  0
  6 22  1  0  0  0  0
  6 23  1  0  0  0  0
  7  8  1  0  0  0  0
  7  9  1  0  0  0  0
  7 24  1  0  0  0  0
  8 25  1  0  0  0  0
  8 26  1  0  0  0  0
  8 27  1  0  0  0  0
  9 10  1  0  0  0  0
  9 28  1  0  0  0  0
  9 43  1  0  0  0  0
 10 15  1  0  0  0  0
 10 11  1  0  0  0  0
 10 29  1  0  0  0  0
 11 12  1  0  0  0  0
 11 30  1  0  0  0  0
 11 31  1  0  0  0  0
 12 13  1  0  0  0  0
 12 32  1  0  0  0  0
 12 33  1  0  0  0  0
 13 14  1  0  0  0  0
 13 34  1  0  0  0  0
 13 35  1  0  0  0  0
 14 15  1  0  0  0  0
 14 36  1  0  0  0  0
 14 37  1  0  0  0  0
 15 38  1  0  0  0  0
 15 39  1  0  0  0  0
 16 17  1  0  0  0  0
 17 40  1  0  0  0  0
 17 41  1  0  0  0  0
 17 42  1  0  0  0  0
M  CHG  1   3   1
M  CHG  1   9   1
M  END
> <s_m_source_file>
AV-unprocessed.smi

> <i_m_source_file_index>
3172

> <i_lp_mmshare_version>
43012

> <i_f3d_flags>
0

> <s_epik_input>
W0NIM11jMW5bY0hdbihjMVtDSDNdKVtDSDJdW0NASF0oW0NIM10pW05IXVtDSF0yW0NIMl1bQ0gyXVtDSDJdW0NIMl1bQ0gyXTI=

> <s_epik_cmdline>
J2VwaWtfcHl0aG9uJywgJy1waCcsICc3LjAnLCAnLXRuJywgJzgnLCAnLW1hJywgJzIwMCcsICctbWV0YWxfYmluZGluZycsICctaW1hZScsICc8aW5maWxlLm1hZT4nLCAnLW9tYWUnLCAnPG91dGZpbGUubWFlPic=

> <r_lp_tautomer_probability>
1

> <r_epik_Ionization_Penalty>
0.509043

> <r_epik_Ionization_Penalty_Charging>
0.00159961

> <r_epik_Ionization_Penalty_Neutral>
0.507444

> <r_epik_State_Penalty>
0.272352

> <r_epik_Charging_Adjusted_Penalty>
0.273952

> <i_epik_Tot_Q>
2

> <i_epik_Tot_abs_Q>
2

> <r_epik_Metal_State_Penalty>
3.76994

> <b_epik_Metal_Only>
0

> <s_lp_Force_Field>
OPLS_2005

> <r_lp_Energy>
25.5447

> <b_lp_Chiralities_Consistent>
1

> <s_lp_Variant>
AV-unprocessed.smi:3172-1

> <Gold.Version>
5.8.1

> <Gold.Id.Protein>
6NUR|6NUR_protein|mol2

> <Gold.PLP.Fitness>
55.0714

> <Gold.PLP.PLP>
-41.2755

> <Gold.PLP.part.hbond>
-2.6677

> <Gold.PLP.part.metal>
0.0000

> <Gold.PLP.part.buried>
-4.3041

> <Gold.PLP.part.nonpolar>
-34.9279

> <Gold.PLP.part.repulsive>
0.1553

> <Gold.PLP.ligand.clash>
0.0000

> <Gold.PLP.ligand.torsion>
0.6091

> <Gold.PLP.Chemscore.Hbond>
4.0000

> <Gold.PLP.Chemscore.CHOScore>
1.0000

> <Gold.PLP.Chemscore.Metal>
0.0000

> <Gold.Chemscore.Hbonds>
donor molecule, donor type, donor heavy atom, donor atom, acceptor molecule, acceptor atom, score
      L1  H     3    44       P1  7948  1.90
      L1  H     9    43       P1  8028  2.00
      L1  C     4    21       P1  7957  1.00

> <Gold.PLP.Chemscore.Internal.Correction>
0.0141

> <Gold.Rescore>
     Score         DG    S(hbond)    S(metal)    S(lipo)     H(rot)  DE(clash)    DE(int)     intcor
     18.72     -20.45       1.98        0.00     105.58       1.56       0.02       1.71       ----

> <Gold.Chemscore.Fitness>
18.7187

> <Gold.Chemscore.DG>
-20.4489

> <Gold.Chemscore.ZeroCoef>
-5.4800

> <Gold.Chemscore.Hbond>
1.9766

> <Gold.Chemscore.Metal>
0.0000

> <Gold.Chemscore.Lipo>
105.5751

> <Gold.Chemscore.Internal_Hbond>
0.0000

> <Gold.Chemscore.DEClash>
0.0199

> <Gold.Chemscore.DEInternal>
1.7103

> <Gold.Chemscore.Rot>
1.5567

> <Gold.Chemscore.Internal.Correction>
   9.000000E+99

> <Gold.Chemscore.Hbonds>
donor molecule, donor type, donor heavy atom, donor atom, acceptor molecule, acceptor atom, score
      L1  H     3    44       P1  7948  0.22
      L1  H     9    43       P1  8028  1.00

> <Gold.Chemscore.Hbond.Weighted>
-6.6018

> <Gold.Chemscore.Metal.Weighted>
-0.0000

> <Gold.Chemscore.Lipo.Weighted>
-12.3523

> <Gold.Chemscore.Internal_Hbond.Weighted>
0.0000

> <Gold.Chemscore.DEClash.Weighted>
0.0199

> <Gold.Chemscore.DEInternal.Weighted>
1.7103

> <Gold.Chemscore.Rot.Weighted>
3.9852

> <Gold.Chemscore.Internal.Correction.Weighted>
   9.000000E+99

> <Gold.Protein.RotatedTorsions>
[ 6907 6896 6895 6894 ] final  -21.40 input  -60.11 | X-H torsion
[ 7974 7965 7964 7962 ] final  168.43 input  175.53 | X-H torsion
[ 8008 7997 7996 7995 ] final   91.65 input   59.86 | X-H torsion
[ 10167 10162 10161 10158 ] final   77.70 input  -65.29 | X-H torsion
[ 10718 10713 10712 10709 ] final  -14.18 input   66.30 | X-H torsion
[ 10763 10752 10751 10750 ] final -135.44 input  -60.55 | X-H torsion
[ 11005 11000 10999 10996 ] final  -45.98 input  -57.11 | X-H torsion

> <Gold.Protein.ActiveResidues>
 VAL166  LYS551  ARG553  GLY616  TRP617  ASP618  TYR619  PRO620  LYS621  CYS622 
 ASP623  PHE694  ASN695  SER759  ASP760  ASP761  ALA762  ILE779  LEU786  VAL792 
 PHE793  MET794  SER795  GLU796  ALA797  LYS798  CYS799  TRP800  GLU811  SER814 

> <Gold.Protein.RotatedAtoms>
  151.2339  135.0564  159.8998 H   0  0  0  0  0  0  0  0  0  0  0  0  # atno 6907 bound_to 6896
  152.5401  134.0507  159.8119 H   0  0  0  0  0  0  0  0  0  0  0  0  # atno 6908 bound_to 6896
  151.0691  133.5432  159.2660 H   0  0  0  0  0  0  0  0  0  0  0  0  # atno 6909 bound_to 6896
  144.7389  139.8906  143.6403 H   0  0  0  0  0  0  0  0  0  0  0  0  # atno 7974 bound_to 7965
  156.0263  140.3335  155.7092 H   0  0  0  0  0  0  0  0  0  0  0  0  # atno 8008 bound_to 7997
  155.5950  140.0650  157.2766 H   0  0  0  0  0  0  0  0  0  0  0  0  # atno 8009 bound_to 7997
  154.4335  140.1820  156.1102 H   0  0  0  0  0  0  0  0  0  0  0  0  # atno 8010 bound_to 7997
  139.9788  144.5841  150.7919 H   0  0  0  0  0  0  0  0  0  0  0  0  # atno 10167 bound_to 10162
  156.6197  130.4872  149.6169 H   0  0  0  0  0  0  0  0  0  0  0  0  # atno 10718 bound_to 10713
  154.8703  135.3703  154.4899 H   0  0  0  0  0  0  0  0  0  0  0  0  # atno 10763 bound_to 10752
  153.5546  135.7024  153.5580 H   0  0  0  0  0  0  0  0  0  0  0  0  # atno 10764 bound_to 10752
  153.3683  135.4028  155.1734 H   0  0  0  0  0  0  0  0  0  0  0  0  # atno 10765 bound_to 10752
  141.0550  133.6729  156.3090 H   0  0  0  0  0  0  0  0  0  0  0  0  # atno 11005 bound_to 11000
  146.1144  139.4153  143.0267 LP  0  0  0  0  0  0  0  0  0  0  0  0  # atno 17320 bound_to 7965
  145.7396  141.0013  143.1308 LP  0  0  0  0  0  0  0  0  0  0  0  0  # atno 17321 bound_to 7965
  140.7496  143.2942  151.3249 LP  0  0  0  0  0  0  0  0  0  0  0  0  # atno 17342 bound_to 10162
  139.6425  144.0512  152.2566 LP  0  0  0  0  0  0  0  0  0  0  0  0  # atno 17343 bound_to 10162
  156.2322  130.6801  151.1474 LP  0  0  0  0  0  0  0  0  0  0  0  0  # atno 17370 bound_to 10713
  157.7231  131.0668  150.6050 LP  0  0  0  0  0  0  0  0  0  0  0  0  # atno 17371 bound_to 10713
  140.5981  134.5582  157.5512 LP  0  0  0  0  0  0  0  0  0  0  0  0  # atno 17394 bound_to 11000
  139.9382  134.7835  156.0746 LP  0  0  0  0  0  0  0  0  0  0  0  0  # atno 17395 bound_to 11000

$$$$
