AV-unprocessed.smi:1976|AV-procd|sdf|7988|dock10
  -GOLD-   2272010173D 1   1.00000     0.00000
 Structure written by MMmdl.
 45 47  0  0  0  0  0  0  0  0  2 V2000
  153.6114  139.4449  157.8713 O   0  0  0  0  0  0  0  0  0  0  0  0
  153.2061  139.4199  159.0342 C   0  0  0  0  0  0  0  0  0  0  0  0
  154.0281  140.0446  160.1708 C   0  0  0  0  0  0  0  0  0  0  0  0
  153.4713  141.3146  160.6673 N   0  0  0  0  0  0  0  0  0  0  0  0
  152.5868  142.0039  159.8148 C   0  0  0  0  0  0  0  0  0  0  0  0
  152.0178  143.1794  160.1442 C   0  0  0  0  0  0  0  0  0  0  0  0
  151.0225  143.8715  159.2259 C   0  0  0  0  0  0  0  0  0  0  0  0
  150.5461  144.9839  159.7853 F   0  0  0  0  0  0  0  0  0  0  0  0
  151.6188  144.2047  158.0820 F   0  0  0  0  0  0  0  0  0  0  0  0
  149.9937  143.0725  158.9403 F   0  0  0  0  0  0  0  0  0  0  0  0
  152.3338  143.7031  161.4586 C   0  0  0  0  0  0  0  0  0  0  0  0
  153.1686  143.0507  162.2910 C   0  0  0  0  0  0  0  0  0  0  0  0
  153.7961  141.7835  161.9096 C   0  0  0  0  0  0  0  0  0  0  0  0
  154.5625  141.1780  162.6598 O   0  0  0  0  0  0  0  0  0  0  0  0
  152.0435  138.8556  159.3943 N   0  0  0  0  0  0  0  0  0  0  0  0
  151.0882  138.2377  158.4794 C   0  0  1  0  0  0  0  0  0  0  0  0
  149.8782  137.6245  159.1976 C   0  0  0  0  0  0  0  0  0  0  0  0
  148.6717  137.9070  158.2799 C   0  0  0  0  0  0  0  0  0  0  0  0
  149.1999  138.5913  157.0769 N   0  3  2  0  0  0  0  0  0  0  0  0
  149.3850  137.6525  155.9360 C   0  0  0  0  0  0  0  0  0  0  0  0
  150.1467  138.2986  154.7717 C   0  0  0  0  0  0  0  0  0  0  0  0
  151.5114  138.8016  155.2485 C   0  0  0  0  0  0  0  0  0  0  0  0
  151.3116  139.8105  156.3836 C   0  0  0  0  0  0  0  0  0  0  0  0
  150.4409  139.2608  157.5368 C   0  0  2  0  0  0  0  0  0  0  0  0
  154.1067  139.3306  160.9930 H   0  0  0  0  0  0  0  0  0  0  0  0
  155.0502  140.1834  159.8155 H   0  0  0  0  0  0  0  0  0  0  0  0
  152.3926  141.5098  158.8739 H   0  0  0  0  0  0  0  0  0  0  0  0
  151.8951  144.6358  161.7810 H   0  0  0  0  0  0  0  0  0  0  0  0
  153.3818  143.4708  163.2630 H   0  0  0  0  0  0  0  0  0  0  0  0
  151.7946  138.8717  160.3730 H   0  0  0  0  0  0  0  0  0  0  0  0
  151.5702  137.4511  157.8960 H   0  0  0  0  0  0  0  0  0  0  0  0
  150.0205  136.5558  159.3625 H   0  0  0  0  0  0  0  0  0  0  0  0
  149.7155  138.0872  160.1723 H   0  0  0  0  0  0  0  0  0  0  0  0
  148.1153  137.0009  158.0348 H   0  0  0  0  0  0  0  0  0  0  0  0
  147.9792  138.5823  158.7838 H   0  0  0  0  0  0  0  0  0  0  0  0
  149.9236  136.7636  156.2687 H   0  0  0  0  0  0  0  0  0  0  0  0
  148.4067  137.3129  155.5938 H   0  0  0  0  0  0  0  0  0  0  0  0
  150.2774  137.5758  153.9659 H   0  0  0  0  0  0  0  0  0  0  0  0
  149.5663  139.1248  154.3581 H   0  0  0  0  0  0  0  0  0  0  0  0
  152.1243  137.9662  155.5888 H   0  0  0  0  0  0  0  0  0  0  0  0
  152.0498  139.2684  154.4234 H   0  0  0  0  0  0  0  0  0  0  0  0
  152.2766  140.1511  156.7594 H   0  0  0  0  0  0  0  0  0  0  0  0
  150.8256  140.6968  155.9735 H   0  0  0  0  0  0  0  0  0  0  0  0
  150.1271  140.1150  158.1405 H   0  0  0  0  0  0  0  0  0  0  0  0
  148.5428  139.2982  156.7788 H   0  0  0  0  0  0  0  0  0  0  0  0
  1  2  2  0  0  0  0
  2  3  1  0  0  0  0
  2 15  1  0  0  0  0
  3  4  1  0  0  0  0
  3 25  1  0  0  0  0
  3 26  1  0  0  0  0
  4 13  1  0  0  0  0
  4  5  1  0  0  0  0
  5  6  2  0  0  0  0
  5 27  1  0  0  0  0
  6  7  1  0  0  0  0
  6 11  1  0  0  0  0
  7  8  1  0  0  0  0
  7  9  1  0  0  0  0
  7 10  1  0  0  0  0
 11 12  2  0  0  0  0
 11 28  1  0  0  0  0
 12 13  1  0  0  0  0
 12 29  1  0  0  0  0
 13 14  2  0  0  0  0
 15 16  1  0  0  0  0
 15 30  1  0  0  0  0
 16 24  1  0  0  0  0
 16 17  1  0  0  0  0
 16 31  1  0  0  0  0
 17 18  1  0  0  0  0
 17 32  1  0  0  0  0
 17 33  1  0  0  0  0
 18 19  1  0  0  0  0
 18 34  1  0  0  0  0
 18 35  1  0  0  0  0
 19 24  1  0  0  0  0
 19 20  1  0  0  0  0
 19 45  1  0  0  0  0
 20 21  1  0  0  0  0
 20 36  1  0  0  0  0
 20 37  1  0  0  0  0
 21 22  1  0  0  0  0
 21 38  1  0  0  0  0
 21 39  1  0  0  0  0
 22 23  1  0  0  0  0
 22 40  1  0  0  0  0
 22 41  1  0  0  0  0
 23 24  1  0  0  0  0
 23 42  1  0  0  0  0
 23 43  1  0  0  0  0
 24 44  1  0  0  0  0
M  CHG  1  19   1
M  END
> <s_m_source_file>
AV-unprocessed.smi

> <i_m_source_file_index>
1976

> <i_lp_mmshare_version>
43012

> <i_f3d_flags>
0

> <s_epik_input>
W0NIMl0xW0NIMl1bQ0gyXVtDSDJdW0NASF0oTjEyKVtDQEBIXShbQ0gyXVtDSDJdMilbTkhdQyg9TylbQ0gyXW4zW2NIXWMoQyhGKShGKUYpW2NIXVtjSF1jMz1P

> <s_epik_cmdline>
J2VwaWtfcHl0aG9uJywgJy1waCcsICc3LjAnLCAnLXRuJywgJzgnLCAnLW1hJywgJzIwMCcsICctbWV0YWxfYmluZGluZycsICctaW1hZScsICc8aW5maWxlLm1hZT4nLCAnLW9tYWUnLCAnPG91dGZpbGUubWFlPic=

> <r_lp_tautomer_probability>
1

> <r_epik_Ionization_Penalty>
0.00171506

> <r_epik_Ionization_Penalty_Charging>
0.00171498

> <r_epik_Ionization_Penalty_Neutral>
7.81737e-08

> <r_epik_State_Penalty>
0.00115937

> <r_epik_Charging_Adjusted_Penalty>
0.00287436

> <i_epik_Tot_Q>
1

> <i_epik_Tot_abs_Q>
1

> <r_epik_Metal_State_Penalty>
-0

> <b_epik_Metal_Only>
0

> <s_lp_Force_Field>
OPLS_2005

> <r_lp_Energy>
48.7142

> <b_lp_Chiralities_Consistent>
1

> <s_lp_Variant>
AV-unprocessed.smi:1976-6

> <Gold.Version>
5.8.1

> <Gold.Id.Protein>
6NUR|6NUR_protein|mol2

> <Gold.PLP.Fitness>
53.8931

> <Gold.PLP.PLP>
-52.0258

> <Gold.PLP.part.hbond>
-0.6732

> <Gold.PLP.part.metal>
0.0000

> <Gold.PLP.part.buried>
-5.3282

> <Gold.PLP.part.nonpolar>
-46.5981

> <Gold.PLP.part.repulsive>
0.1299

> <Gold.PLP.ligand.clash>
0.0000

> <Gold.PLP.ligand.torsion>
0.5018

> <Gold.PLP.Chemscore.Hbond>
0.9425

> <Gold.PLP.Chemscore.CHOScore>
0.0000

> <Gold.PLP.Chemscore.Metal>
0.0000

> <Gold.Chemscore.Hbonds>
donor molecule, donor type, donor heavy atom, donor atom, acceptor molecule, acceptor atom, score
      P1  H  7997  8010       L1     1  0.93

> <Gold.PLP.Chemscore.Internal.Correction>
0.0433

> <Gold.Rescore>
     Score         DG    S(hbond)    S(metal)    S(lipo)     H(rot)  DE(clash)    DE(int)     intcor
     15.06     -16.25       0.98        0.00      98.83       1.58       0.54       0.66       ----

> <Gold.Chemscore.Fitness>
15.0571

> <Gold.Chemscore.DG>
-16.2491

> <Gold.Chemscore.ZeroCoef>
-5.4800

> <Gold.Chemscore.Hbond>
0.9755

> <Gold.Chemscore.Metal>
0.0000

> <Gold.Chemscore.Lipo>
98.8329

> <Gold.Chemscore.Internal_Hbond>
0.0000

> <Gold.Chemscore.DEClash>
0.5358

> <Gold.Chemscore.DEInternal>
0.6562

> <Gold.Chemscore.Rot>
1.5830

> <Gold.Chemscore.Internal.Correction>
   9.000000E+99

> <Gold.Chemscore.Hbonds>
donor molecule, donor type, donor heavy atom, donor atom, acceptor molecule, acceptor atom, score
      P1  H  7997  8010       L1     1  0.84

> <Gold.Chemscore.Hbond.Weighted>
-3.2580

> <Gold.Chemscore.Metal.Weighted>
-0.0000

> <Gold.Chemscore.Lipo.Weighted>
-11.5634

> <Gold.Chemscore.Internal_Hbond.Weighted>
0.0000

> <Gold.Chemscore.DEClash.Weighted>
0.5358

> <Gold.Chemscore.DEInternal.Weighted>
0.6562

> <Gold.Chemscore.Rot.Weighted>
4.0524

> <Gold.Chemscore.Internal.Correction.Weighted>
   9.000000E+99

> <Gold.Protein.RotatedTorsions>
[ 6907 6896 6895 6894 ] final  162.39 input  -60.11 | X-H torsion
[ 7974 7965 7964 7962 ] final  108.06 input  175.53 | X-H torsion
[ 8008 7997 7996 7995 ] final   15.67 input   59.86 | X-H torsion
[ 10167 10162 10161 10158 ] final   52.85 input  -65.29 | X-H torsion
[ 10718 10713 10712 10709 ] final -145.21 input   66.30 | X-H torsion
[ 10763 10752 10751 10750 ] final  -20.29 input  -60.55 | X-H torsion
[ 11005 11000 10999 10996 ] final  103.80 input  -57.11 | X-H torsion

> <Gold.Protein.ActiveResidues>
 VAL166  LYS551  ARG553  GLY616  TRP617  ASP618  TYR619  PRO620  LYS621  CYS622 
 ASP623  PHE694  ASN695  SER759  ASP760  ASP761  ALA762  ILE779  LEU786  VAL792 
 PHE793  MET794  SER795  GLU796  ALA797  LYS798  CYS799  TRP800  GLU811  SER814 

> <Gold.Protein.RotatedAtoms>
  151.9412  133.3638  159.3965 H   0  0  0  0  0  0  0  0  0  0  0  0  # atno 6907 bound_to 6896
  150.6998  134.4438  159.5313 H   0  0  0  0  0  0  0  0  0  0  0  0  # atno 6908 bound_to 6896
  152.2095  134.8515  160.0550 H   0  0  0  0  0  0  0  0  0  0  0  0  # atno 6909 bound_to 6896
  145.2855  139.2618  143.3893 H   0  0  0  0  0  0  0  0  0  0  0  0  # atno 7974 bound_to 7965
  154.8659  140.2951  155.5510 H   0  0  0  0  0  0  0  0  0  0  0  0  # atno 8008 bound_to 7997
  156.3021  140.2469  156.3574 H   0  0  0  0  0  0  0  0  0  0  0  0  # atno 8009 bound_to 7997
  154.8868  140.0396  157.1804 H   0  0  0  0  0  0  0  0  0  0  0  0  # atno 8010 bound_to 7997
  140.2470  144.3521  150.6361 H   0  0  0  0  0  0  0  0  0  0  0  0  # atno 10167 bound_to 10162
  156.3796  130.7830  151.2021 H   0  0  0  0  0  0  0  0  0  0  0  0  # atno 10718 bound_to 10713
  153.6181  135.6994  153.5321 H   0  0  0  0  0  0  0  0  0  0  0  0  # atno 10763 bound_to 10752
  153.2960  135.4143  155.1210 H   0  0  0  0  0  0  0  0  0  0  0  0  # atno 10764 bound_to 10752
  154.8549  135.3637  154.5721 H   0  0  0  0  0  0  0  0  0  0  0  0  # atno 10765 bound_to 10752
  139.8786  134.9277  156.5265 H   0  0  0  0  0  0  0  0  0  0  0  0  # atno 11005 bound_to 11000
  146.3202  140.3333  142.8642 LP  0  0  0  0  0  0  0  0  0  0  0  0  # atno 17320 bound_to 7965
  144.9217  140.7875  143.5744 LP  0  0  0  0  0  0  0  0  0  0  0  0  # atno 17321 bound_to 7965
  140.6070  143.2168  151.6961 LP  0  0  0  0  0  0  0  0  0  0  0  0  # atno 17342 bound_to 10162
  139.5058  144.3703  152.0477 LP  0  0  0  0  0  0  0  0  0  0  0  0  # atno 17343 bound_to 10162
  157.7491  131.0348  150.4334 LP  0  0  0  0  0  0  0  0  0  0  0  0  # atno 17370 bound_to 10713
  156.4575  130.4025  149.6597 LP  0  0  0  0  0  0  0  0  0  0  0  0  # atno 17371 bound_to 10713
  140.8412  133.8204  155.9077 LP  0  0  0  0  0  0  0  0  0  0  0  0  # atno 17394 bound_to 11000
  140.9236  134.2111  157.4911 LP  0  0  0  0  0  0  0  0  0  0  0  0  # atno 17395 bound_to 11000

$$$$
