AV-unprocessed.smi:265|AV-procd|sdf|2016|dock3
  -GOLD-   2262021213D 1   1.00000     0.00000
 Structure written by MMmdl.
 52 56  0  0  0  0  0  0  0  0  1 V2000
  147.6698  133.3113  152.3100 C   0  0  0  0  0  0  0  0  0  0  0  0
  148.0783  132.7867  153.6953 C   0  0  1  0  0  0  0  0  0  0  0  0
  148.9497  131.6621  153.5856 O   0  0  0  0  0  0  0  0  0  0  0  0
  150.0527  131.7991  154.4743 C   0  0  0  0  0  0  0  0  0  0  0  0
  149.6246  132.8582  155.4847 C   0  0  0  0  0  0  0  0  0  0  0  0
  148.7732  133.7948  154.6384 C   0  0  1  0  0  0  0  0  0  0  0  0
  149.6351  134.6456  153.9004 O   0  0  0  0  0  0  0  0  0  0  0  0
  147.8254  134.7315  155.4308 C   0  0  0  0  0  0  0  0  0  0  0  0
  148.4859  135.8004  156.1635 N   0  0  0  0  0  0  0  0  0  0  0  0
  148.7057  135.8583  157.5222 C   0  0  0  0  0  0  0  0  0  0  0  0
  149.3129  136.9339  157.9443 N   0  0  0  0  0  0  0  0  0  0  0  0
  149.5087  137.6819  156.7909 C   0  0  0  0  0  0  0  0  0  0  0  0
  150.0894  138.9483  156.5238 C   0  0  0  0  0  0  0  0  0  0  0  0
  150.6175  139.7118  157.5029 N   0  0  0  0  0  0  0  0  0  0  0  0
  151.9416  139.2644  157.9347 C   0  0  0  0  0  0  0  0  0  0  0  0
  152.3984  140.0228  159.1957 C   0  0  0  0  0  0  0  0  0  0  0  0
  152.3148  141.5372  158.9559 C   0  0  2  0  0  0  0  0  0  0  0  0
  152.6141  142.2785  160.1289 O   0  0  0  0  0  0  0  0  0  0  0  0
  152.6963  143.6906  159.9060 C   0  0  0  0  0  0  0  0  0  0  0  0
  151.5208  144.2360  159.0662 C   0  0  0  0  0  0  0  0  0  0  0  0
  151.3299  145.4479  158.9957 O   0  0  0  0  0  0  0  0  0  0  0  0
  150.7579  143.3569  158.3959 N   0  0  0  0  0  0  0  0  0  0  0  0
  150.8798  141.9142  158.5538 C   0  0  1  0  0  0  0  0  0  0  0  0
  150.4774  141.1509  157.2824 C   0  0  0  0  0  0  0  0  0  0  0  0
  150.1068  139.3857  155.2374 N   0  0  0  0  0  0  0  0  0  0  0  0
  149.5815  138.6268  154.2703 C   0  0  0  0  0  0  0  0  0  0  0  0
  149.0033  137.4271  154.3708 N   0  0  0  0  0  0  0  0  0  0  0  0
  148.9906  136.9881  155.6627 C   0  0  0  0  0  0  0  0  0  0  0  0
  153.0199  141.8068  158.1662 H   0  0  0  0  0  0  0  0  0  0  0  0
  150.1992  141.6294  159.3584 H   0  0  0  0  0  0  0  0  0  0  0  0
  147.0075  134.1727  152.3974 H   0  0  0  0  0  0  0  0  0  0  0  0
  147.1404  132.5422  151.7476 H   0  0  0  0  0  0  0  0  0  0  0  0
  148.5363  133.6095  151.7192 H   0  0  0  0  0  0  0  0  0  0  0  0
  147.1873  132.3947  154.1829 H   0  0  0  0  0  0  0  0  0  0  0  0
  150.3069  130.8492  154.9447 H   0  0  0  0  0  0  0  0  0  0  0  0
  150.9204  132.1389  153.9074 H   0  0  0  0  0  0  0  0  0  0  0  0
  149.0255  132.3740  156.2554 H   0  0  0  0  0  0  0  0  0  0  0  0
  150.4653  133.3506  155.9748 H   0  0  0  0  0  0  0  0  0  0  0  0
  149.1177  135.1229  153.2701 H   0  0  0  0  0  0  0  0  0  0  0  0
  147.1054  135.1903  154.7514 H   0  0  0  0  0  0  0  0  0  0  0  0
  147.2382  134.1497  156.1427 H   0  0  0  0  0  0  0  0  0  0  0  0
  148.4033  135.0686  158.1949 H   0  0  0  0  0  0  0  0  0  0  0  0
  151.9235  138.1921  158.1349 H   0  0  0  0  0  0  0  0  0  0  0  0
  152.6572  139.4254  157.1269 H   0  0  0  0  0  0  0  0  0  0  0  0
  151.7655  139.7457  160.0399 H   0  0  0  0  0  0  0  0  0  0  0  0
  153.4165  139.7360  159.4597 H   0  0  0  0  0  0  0  0  0  0  0  0
  152.7281  144.1996  160.8695 H   0  0  0  0  0  0  0  0  0  0  0  0
  153.6299  143.9188  159.3901 H   0  0  0  0  0  0  0  0  0  0  0  0
  150.0073  143.7056  157.8175 H   0  0  0  0  0  0  0  0  0  0  0  0
  151.1039  141.4590  156.4439 H   0  0  0  0  0  0  0  0  0  0  0  0
  149.4446  141.3824  157.0175 H   0  0  0  0  0  0  0  0  0  0  0  0
  149.6304  139.0400  153.2734 H   0  0  0  0  0  0  0  0  0  0  0  0
  1  2  1  0  0  0  0
  1 31  1  0  0  0  0
  1 32  1  0  0  0  0
  1 33  1  0  0  0  0
  2  6  1  0  0  0  0
  2  3  1  0  0  0  0
  2 34  1  0  0  0  0
  3  4  1  0  0  0  0
  4  5  1  0  0  0  0
  4 35  1  0  0  0  0
  4 36  1  0  0  0  0
  5  6  1  0  0  0  0
  5 37  1  0  0  0  0
  5 38  1  0  0  0  0
  6  7  1  0  0  0  0
  6  8  1  0  0  0  0
  7 39  1  0  0  0  0
  8  9  1  0  0  0  0
  8 40  1  0  0  0  0
  8 41  1  0  0  0  0
  9 28  1  0  0  0  0
  9 10  1  0  0  0  0
 10 11  2  0  0  0  0
 10 42  1  0  0  0  0
 11 12  1  0  0  0  0
 12 28  2  0  0  0  0
 12 13  1  0  0  0  0
 13 14  1  0  0  0  0
 13 25  2  0  0  0  0
 14 24  1  0  0  0  0
 14 15  1  0  0  0  0
 15 16  1  0  0  0  0
 15 43  1  0  0  0  0
 15 44  1  0  0  0  0
 16 17  1  0  0  0  0
 16 45  1  0  0  0  0
 16 46  1  0  0  0  0
 17 29  1  0  0  0  0
 17 23  1  0  0  0  0
 17 18  1  0  0  0  0
 18 19  1  0  0  0  0
 19 20  1  0  0  0  0
 19 47  1  0  0  0  0
 19 48  1  0  0  0  0
 20 21  2  0  0  0  0
 20 22  1  0  0  0  0
 22 23  1  0  0  0  0
 22 49  1  0  0  0  0
 23 30  1  0  0  0  0
 23 24  1  0  0  0  0
 24 50  1  0  0  0  0
 24 51  1  0  0  0  0
 25 26  1  0  0  0  0
 26 27  2  0  0  0  0
 26 52  1  0  0  0  0
 27 28  1  0  0  0  0
M  END
> <s_m_source_file>
AV-unprocessed.smi

> <i_m_source_file_index>
265

> <i_lp_mmshare_version>
43012

> <i_f3d_flags>
0

> <s_epik_input>
W0NIMl0xW0NIMl1PW0NAQEhdKFtDSDNdKVtDQEBdMShbT0hdKVtDSDJdbihbY0hdbjIpYyhjMjMpbltjSF1uYzNOKFtDSDJdW0NIMl00KVtDSDJdW0NAQEhdKFtDQEhdNDUpW05IXUMoPU8pW0NIMl1PNQ==

> <s_epik_cmdline>
J2VwaWtfcHl0aG9uJywgJy1waCcsICc3LjAnLCAnLXRuJywgJzgnLCAnLW1hJywgJzIwMCcsICctbWV0YWxfYmluZGluZycsICctaW1hZScsICc8aW5maWxlLm1hZT4nLCAnLW9tYWUnLCAnPG91dGZpbGUubWFlPic=

> <r_lp_tautomer_probability>
1

> <r_epik_Ionization_Penalty>
0.00221504

> <r_epik_Ionization_Penalty_Charging>
0

> <r_epik_Ionization_Penalty_Neutral>
0.00221504

> <r_epik_State_Penalty>
-0

> <r_epik_Charging_Adjusted_Penalty>
0

> <i_epik_Tot_Q>
0

> <i_epik_Tot_abs_Q>
0

> <r_epik_Metal_State_Penalty>
-0

> <b_epik_Metal_Only>
0

> <s_lp_Force_Field>
OPLS_2005

> <r_lp_Energy>
49.8504

> <b_lp_Chiralities_Consistent>
1

> <s_lp_Variant>
AV-unprocessed.smi:265-2

> <Gold.Version>
5.8.1

> <Gold.Id.Protein>
6NUR|6NUR_protein|mol2

> <Gold.PLP.Fitness>
38.7108

> <Gold.PLP.PLP>
-34.2928

> <Gold.PLP.part.hbond>
-2.2827

> <Gold.PLP.part.metal>
0.0000

> <Gold.PLP.part.buried>
-5.8330

> <Gold.PLP.part.nonpolar>
-26.9632

> <Gold.PLP.part.repulsive>
1.8506

> <Gold.PLP.ligand.clash>
0.0000

> <Gold.PLP.ligand.torsion>
0.9108

> <Gold.PLP.Chemscore.Hbond>
1.0000

> <Gold.PLP.Chemscore.CHOScore>
1.0000

> <Gold.PLP.Chemscore.Metal>
0.0000

> <Gold.Chemscore.Hbonds>
donor molecule, donor type, donor heavy atom, donor atom, acceptor molecule, acceptor atom, score
      L1  H     7    39       P1  7948  0.90
      L1  C    26    52       P1  7957  1.00

> <Gold.PLP.Chemscore.Internal.Correction>
0.2395

> <Gold.Rescore>
     Score         DG    S(hbond)    S(metal)    S(lipo)     H(rot)  DE(clash)    DE(int)     intcor
      6.57     -10.16       0.67        0.00      69.90       2.25       0.39       3.21       ----

> <Gold.Chemscore.Fitness>
6.5703

> <Gold.Chemscore.DG>
-10.1636

> <Gold.Chemscore.ZeroCoef>
-5.4800

> <Gold.Chemscore.Hbond>
0.6747

> <Gold.Chemscore.Metal>
0.0000

> <Gold.Chemscore.Lipo>
69.8969

> <Gold.Chemscore.Internal_Hbond>
0.0000

> <Gold.Chemscore.DEClash>
0.3868

> <Gold.Chemscore.DEInternal>
3.2065

> <Gold.Chemscore.Rot>
2.2453

> <Gold.Chemscore.Internal.Correction>
   9.000000E+99

> <Gold.Chemscore.Hbonds>
donor molecule, donor type, donor heavy atom, donor atom, acceptor molecule, acceptor atom, score
      L1  H     7    39       P1  7948  0.17

> <Gold.Chemscore.Hbond.Weighted>
-2.2536

> <Gold.Chemscore.Metal.Weighted>
-0.0000

> <Gold.Chemscore.Lipo.Weighted>
-8.1779

> <Gold.Chemscore.Internal_Hbond.Weighted>
0.0000

> <Gold.Chemscore.DEClash.Weighted>
0.3868

> <Gold.Chemscore.DEInternal.Weighted>
3.2065

> <Gold.Chemscore.Rot.Weighted>
5.7479

> <Gold.Chemscore.Internal.Correction.Weighted>
   9.000000E+99

> <Gold.Protein.RotatedTorsions>
[ 6907 6896 6895 6894 ] final   53.50 input  -60.11 | X-H torsion
[ 7974 7965 7964 7962 ] final  149.44 input  175.53 | X-H torsion
[ 8008 7997 7996 7995 ] final  139.62 input   59.86 | X-H torsion
[ 10167 10162 10161 10158 ] final  102.02 input  -65.29 | X-H torsion
[ 10718 10713 10712 10709 ] final   63.43 input   66.30 | X-H torsion
[ 10763 10752 10751 10750 ] final   63.30 input  -60.55 | X-H torsion
[ 11005 11000 10999 10996 ] final -135.53 input  -57.11 | X-H torsion

> <Gold.Protein.ActiveResidues>
 VAL166  LYS551  ARG553  GLY616  TRP617  ASP618  TYR619  PRO620  LYS621  CYS622 
 ASP623  PHE694  ASN695  SER759  ASP760  ASP761  ALA762  ILE779  LEU786  VAL792 
 PHE793  MET794  SER795  GLU796  ALA797  LYS798  CYS799  TRP800  GLU811  SER814 

> <Gold.Protein.RotatedAtoms>
  152.3344  134.7218  160.0280 H   0  0  0  0  0  0  0  0  0  0  0  0  # atno 6907 bound_to 6896
  151.7624  133.3329  159.3429 H   0  0  0  0  0  0  0  0  0  0  0  0  # atno 6908 bound_to 6896
  150.7442  134.6026  159.6089 H   0  0  0  0  0  0  0  0  0  0  0  0  # atno 6909 bound_to 6896
  144.8438  139.6280  143.6004 H   0  0  0  0  0  0  0  0  0  0  0  0  # atno 7974 bound_to 7965
  156.2988  140.2363  156.4266 H   0  0  0  0  0  0  0  0  0  0  0  0  # atno 8008 bound_to 7997
  154.8307  140.0433  157.1495 H   0  0  0  0  0  0  0  0  0  0  0  0  # atno 8009 bound_to 7997
  154.9211  140.3004  155.5219 H   0  0  0  0  0  0  0  0  0  0  0  0  # atno 8010 bound_to 7997
  139.7387  144.7017  151.0609 H   0  0  0  0  0  0  0  0  0  0  0  0  # atno 10167 bound_to 10162
  157.5970  130.9104  149.9714 H   0  0  0  0  0  0  0  0  0  0  0  0  # atno 10718 bound_to 10713
  153.0013  135.5434  154.6330 H   0  0  0  0  0  0  0  0  0  0  0  0  # atno 10763 bound_to 10752
  154.5603  135.2833  155.0927 H   0  0  0  0  0  0  0  0  0  0  0  0  # atno 10764 bound_to 10752
  154.2132  135.6463  153.5174 H   0  0  0  0  0  0  0  0  0  0  0  0  # atno 10765 bound_to 10752
  140.8889  134.1836  157.4541 H   0  0  0  0  0  0  0  0  0  0  0  0  # atno 11005 bound_to 11000
  146.2726  139.6673  142.9285 LP  0  0  0  0  0  0  0  0  0  0  0  0  # atno 17320 bound_to 7965
  145.4639  141.0434  143.2736 LP  0  0  0  0  0  0  0  0  0  0  0  0  # atno 17321 bound_to 7965
  140.7782  143.4952  150.9842 LP  0  0  0  0  0  0  0  0  0  0  0  0  # atno 17342 bound_to 10162
  139.8640  143.7277  152.3171 LP  0  0  0  0  0  0  0  0  0  0  0  0  # atno 17343 bound_to 10162
  156.1035  130.3654  150.0175 LP  0  0  0  0  0  0  0  0  0  0  0  0  # atno 17370 bound_to 10713
  156.8287  130.9384  151.3638 LP  0  0  0  0  0  0  0  0  0  0  0  0  # atno 17371 bound_to 10713
  139.8727  134.9850  156.5263 LP  0  0  0  0  0  0  0  0  0  0  0  0  # atno 17394 bound_to 11000
  140.8370  133.8234  155.9039 LP  0  0  0  0  0  0  0  0  0  0  0  0  # atno 17395 bound_to 11000

$$$$
