AV-unprocessed.smi:932|AV-procd|sdf|4199|dock6
  -GOLD-   22720 2103D 1   1.00000     0.00000
 Structure written by MMmdl.
 44 45  0  0  0  0  0  0  0  0  2 V2000
  152.4154  139.9330  156.1495 O   0  0  0  0  0  0  0  0  0  0  0  0
  151.2650  140.1896  156.4999 C   0  0  0  0  0  0  0  0  0  0  0  0
  150.1867  139.5412  156.0269 N   0  0  0  0  0  0  0  0  0  0  0  0
  150.2103  138.4732  155.0322 C   0  0  0  0  0  0  0  0  0  0  0  0
  149.7528  138.9631  153.6452 C   0  0  0  0  0  0  0  0  0  0  0  0
  148.4860  139.6996  153.6877 N   0  0  0  0  0  0  0  0  0  0  0  0
  148.2735  140.9622  154.1793 C   0  0  0  0  0  0  0  0  0  0  0  0
  146.9422  141.2334  153.9959 C   0  0  0  0  0  0  0  0  0  0  0  0
  146.3979  140.1238  153.4063 N   0  3  0  0  0  0  0  0  0  0  0  0
  147.3376  139.1908  153.2232 C   0  0  0  0  0  0  0  0  0  0  0  0
  150.9967  141.1552  157.3973 N   0  0  0  0  0  0  0  0  0  0  0  0
  151.9295  142.0418  158.0999 C   0  0  0  0  0  0  0  0  0  0  0  0
  151.9783  141.5879  159.5782 C   0  0  0  0  0  0  0  0  0  0  0  0
  153.0865  142.2375  160.4315 C   0  0  0  0  0  0  0  0  0  0  0  0
  152.6246  143.3634  161.3769 C   0  0  0  0  0  0  0  0  0  0  0  0
  151.6257  144.3867  160.8070 C   0  0  0  0  0  0  0  0  0  0  0  0
  152.1369  145.2804  159.6631 C   0  0  0  0  0  0  0  0  0  0  0  0
  152.5063  144.5781  158.3422 C   0  0  0  0  0  0  0  0  0  0  0  0
  151.5045  143.5121  157.8542 C   0  0  0  0  0  0  0  0  0  0  0  0
  149.2812  139.8117  156.3828 H   0  0  0  0  0  0  0  0  0  0  0  0
  151.1972  138.0104  154.9760 H   0  0  0  0  0  0  0  0  0  0  0  0
  149.5315  137.6928  155.3769 H   0  0  0  0  0  0  0  0  0  0  0  0
  150.5039  139.6256  153.2134 H   0  0  0  0  0  0  0  0  0  0  0  0
  149.6377  138.1243  152.9573 H   0  0  0  0  0  0  0  0  0  0  0  0
  149.0661  141.5607  154.6043 H   0  0  0  0  0  0  0  0  0  0  0  0
  146.3571  142.1099  154.2339 H   0  0  0  0  0  0  0  0  0  0  0  0
  147.1984  138.2217  152.7781 H   0  0  0  0  0  0  0  0  0  0  0  0
  150.0249  141.2686  157.6481 H   0  0  0  0  0  0  0  0  0  0  0  0
  152.9308  141.8962  157.6913 H   0  0  0  0  0  0  0  0  0  0  0  0
  151.0032  141.6937  160.0541 H   0  0  0  0  0  0  0  0  0  0  0  0
  152.1715  140.5136  159.5790 H   0  0  0  0  0  0  0  0  0  0  0  0
  153.5312  141.4626  161.0572 H   0  0  0  0  0  0  0  0  0  0  0  0
  153.9100  142.5717  159.8031 H   0  0  0  0  0  0  0  0  0  0  0  0
  152.1538  142.8985  162.2442 H   0  0  0  0  0  0  0  0  0  0  0  0
  153.5002  143.8847  161.7652 H   0  0  0  0  0  0  0  0  0  0  0  0
  150.6991  143.8933  160.5181 H   0  0  0  0  0  0  0  0  0  0  0  0
  151.3357  145.0455  161.6263 H   0  0  0  0  0  0  0  0  0  0  0  0
  151.3560  146.0106  159.4469 H   0  0  0  0  0  0  0  0  0  0  0  0
  152.9923  145.8617  160.0094 H   0  0  0  0  0  0  0  0  0  0  0  0
  152.5727  145.3553  157.5798 H   0  0  0  0  0  0  0  0  0  0  0  0
  153.5133  144.1678  158.3883 H   0  0  0  0  0  0  0  0  0  0  0  0
  151.4023  143.6507  156.7769 H   0  0  0  0  0  0  0  0  0  0  0  0
  150.5068  143.7015  158.2510 H   0  0  0  0  0  0  0  0  0  0  0  0
  145.4256  140.0228  153.1430 H   0  0  0  0  0  0  0  0  0  0  0  0
  1  2  2  0  0  0  0
  2  3  1  0  0  0  0
  2 11  1  0  0  0  0
  3  4  1  0  0  0  0
  3 20  1  0  0  0  0
  4  5  1  0  0  0  0
  4 21  1  0  0  0  0
  4 22  1  0  0  0  0
  5  6  1  0  0  0  0
  5 23  1  0  0  0  0
  5 24  1  0  0  0  0
  6 10  1  0  0  0  0
  6  7  1  0  0  0  0
  7  8  2  0  0  0  0
  7 25  1  0  0  0  0
  8  9  1  0  0  0  0
  8 26  1  0  0  0  0
  9 10  2  0  0  0  0
  9 44  1  0  0  0  0
 10 27  1  0  0  0  0
 11 12  1  0  0  0  0
 11 28  1  0  0  0  0
 12 19  1  0  0  0  0
 12 13  1  0  0  0  0
 12 29  1  0  0  0  0
 13 14  1  0  0  0  0
 13 30  1  0  0  0  0
 13 31  1  0  0  0  0
 14 15  1  0  0  0  0
 14 32  1  0  0  0  0
 14 33  1  0  0  0  0
 15 16  1  0  0  0  0
 15 34  1  0  0  0  0
 15 35  1  0  0  0  0
 16 17  1  0  0  0  0
 16 36  1  0  0  0  0
 16 37  1  0  0  0  0
 17 18  1  0  0  0  0
 17 38  1  0  0  0  0
 17 39  1  0  0  0  0
 18 19  1  0  0  0  0
 18 40  1  0  0  0  0
 18 41  1  0  0  0  0
 19 42  1  0  0  0  0
 19 43  1  0  0  0  0
M  CHG  1   9   1
M  END
> <s_m_source_file>
AV-unprocessed.smi

> <i_m_source_file_index>
932

> <i_lp_mmshare_version>
43012

> <i_f3d_flags>
0

> <s_epik_input>
W2NIXTFuW2NIXVtjSF1uMVtDSDJdW0NIMl1bTkhdQyg9TylbTkhdW0NIXTJbQ0gyXVtDSDJdW0NIMl1bQ0gyXVtDSDJdW0NIMl1bQ0gyXTI=

> <s_epik_cmdline>
J2VwaWtfcHl0aG9uJywgJy1waCcsICc3LjAnLCAnLXRuJywgJzgnLCAnLW1hJywgJzIwMCcsICctbWV0YWxfYmluZGluZycsICctaW1hZScsICc8aW5maWxlLm1hZT4nLCAnLW9tYWUnLCAnPG91dGZpbGUubWFlPic=

> <r_lp_tautomer_probability>
1

> <r_epik_Ionization_Penalty>
0.254654

> <r_epik_Ionization_Penalty_Charging>
0

> <r_epik_Ionization_Penalty_Neutral>
0.254654

> <r_epik_State_Penalty>
0.246077

> <r_epik_Charging_Adjusted_Penalty>
0.246077

> <i_epik_Tot_Q>
1

> <i_epik_Tot_abs_Q>
1

> <r_epik_Metal_State_Penalty>
0.536041

> <b_epik_Metal_Only>
0

> <s_lp_Force_Field>
OPLS_2005

> <r_lp_Energy>
30.2565

> <b_lp_Chiralities_Consistent>
1

> <s_lp_Variant>
AV-unprocessed.smi:932-1

> <Gold.Version>
5.8.1

> <Gold.Id.Protein>
6NUR|6NUR_protein|mol2

> <Gold.PLP.Fitness>
52.7587

> <Gold.PLP.PLP>
-41.6686

> <Gold.PLP.part.hbond>
-2.0000

> <Gold.PLP.part.metal>
0.0000

> <Gold.PLP.part.buried>
2.1584

> <Gold.PLP.part.nonpolar>
-41.3085

> <Gold.PLP.part.repulsive>
0.0973

> <Gold.PLP.ligand.clash>
0.0000

> <Gold.PLP.ligand.torsion>
0.3390

> <Gold.PLP.Chemscore.Hbond>
3.0000

> <Gold.PLP.Chemscore.CHOScore>
0.9114

> <Gold.PLP.Chemscore.Metal>
0.0000

> <Gold.Chemscore.Hbonds>
donor molecule, donor type, donor heavy atom, donor atom, acceptor molecule, acceptor atom, score
      L1  H     9    44       P1 10175  2.00
      P1  H  7997  8008       L1     1  1.00
      L1  C    10    27       P1  7948  0.34

> <Gold.PLP.Chemscore.Internal.Correction>
0.0340

> <Gold.Rescore>
     Score         DG    S(hbond)    S(metal)    S(lipo)     H(rot)  DE(clash)    DE(int)     intcor
     18.65     -20.24       1.74        0.00     118.12       1.90       0.08       1.50       ----

> <Gold.Chemscore.Fitness>
18.6508

> <Gold.Chemscore.DG>
-20.2375

> <Gold.Chemscore.ZeroCoef>
-5.4800

> <Gold.Chemscore.Hbond>
1.7357

> <Gold.Chemscore.Metal>
0.0000

> <Gold.Chemscore.Lipo>
118.1168

> <Gold.Chemscore.Internal_Hbond>
0.0000

> <Gold.Chemscore.DEClash>
0.0838

> <Gold.Chemscore.DEInternal>
1.5029

> <Gold.Chemscore.Rot>
1.8982

> <Gold.Chemscore.Internal.Correction>
   9.000000E+99

> <Gold.Chemscore.Hbonds>
donor molecule, donor type, donor heavy atom, donor atom, acceptor molecule, acceptor atom, score
      L1  H     9    44       P1 10175  0.99
      P1  H  7997  8008       L1     1  0.98

> <Gold.Chemscore.Hbond.Weighted>
-5.7972

> <Gold.Chemscore.Metal.Weighted>
-0.0000

> <Gold.Chemscore.Lipo.Weighted>
-13.8197

> <Gold.Chemscore.Internal_Hbond.Weighted>
0.0000

> <Gold.Chemscore.DEClash.Weighted>
0.0838

> <Gold.Chemscore.DEInternal.Weighted>
1.5029

> <Gold.Chemscore.Rot.Weighted>
4.8594

> <Gold.Chemscore.Internal.Correction.Weighted>
   9.000000E+99

> <Gold.Protein.RotatedTorsions>
[ 6907 6896 6895 6894 ] final  106.36 input  -60.11 | X-H torsion
[ 7974 7965 7964 7962 ] final   -4.65 input  175.53 | X-H torsion
[ 8008 7997 7996 7995 ] final  -31.90 input   59.86 | X-H torsion
[ 10167 10162 10161 10158 ] final -171.89 input  -65.29 | X-H torsion
[ 10718 10713 10712 10709 ] final -107.22 input   66.30 | X-H torsion
[ 10763 10752 10751 10750 ] final  147.77 input  -60.55 | X-H torsion
[ 11005 11000 10999 10996 ] final  -94.53 input  -57.11 | X-H torsion

> <Gold.Protein.ActiveResidues>
 VAL166  LYS551  ARG553  GLY616  TRP617  ASP618  TYR619  PRO620  LYS621  CYS622 
 ASP623  PHE694  ASN695  SER759  ASP760  ASP761  ALA762  ILE779  LEU786  VAL792 
 PHE793  MET794  SER795  GLU796  ALA797  LYS798  CYS799  TRP800  GLU811  SER814 

> <Gold.Protein.RotatedAtoms>
  152.5197  133.9393  159.7618 H   0  0  0  0  0  0  0  0  0  0  0  0  # atno 6907 bound_to 6896
  150.9726  133.6319  159.2742 H   0  0  0  0  0  0  0  0  0  0  0  0  # atno 6908 bound_to 6896
  151.3525  135.0893  159.9460 H   0  0  0  0  0  0  0  0  0  0  0  0  # atno 6909 bound_to 6896
  146.2368  140.1903  142.8332 H   0  0  0  0  0  0  0  0  0  0  0  0  # atno 7974 bound_to 7965
  154.4198  140.1752  156.1641 H   0  0  0  0  0  0  0  0  0  0  0  0  # atno 8008 bound_to 7997
  155.9814  140.3377  155.6642 H   0  0  0  0  0  0  0  0  0  0  0  0  # atno 8009 bound_to 7997
  155.6495  140.0689  157.2582 H   0  0  0  0  0  0  0  0  0  0  0  0  # atno 8010 bound_to 7997
  139.5776  144.1497  152.1472 H   0  0  0  0  0  0  0  0  0  0  0  0  # atno 10167 bound_to 10162
  156.0426  130.5652  150.7791 H   0  0  0  0  0  0  0  0  0  0  0  0  # atno 10718 bound_to 10713
  154.0438  135.2887  155.3351 H   0  0  0  0  0  0  0  0  0  0  0  0  # atno 10763 bound_to 10752
  154.6912  135.5225  153.8399 H   0  0  0  0  0  0  0  0  0  0  0  0  # atno 10764 bound_to 10752
  153.0589  135.6606  154.0640 H   0  0  0  0  0  0  0  0  0  0  0  0  # atno 10765 bound_to 10752
  141.1468  133.7962  157.0310 H   0  0  0  0  0  0  0  0  0  0  0  0  # atno 11005 bound_to 11000
  144.9863  140.8506  143.5367 LP  0  0  0  0  0  0  0  0  0  0  0  0  # atno 17320 bound_to 7965
  145.1903  139.2304  143.5246 LP  0  0  0  0  0  0  0  0  0  0  0  0  # atno 17321 bound_to 7965
  140.1043  144.5512  150.6968 LP  0  0  0  0  0  0  0  0  0  0  0  0  # atno 17342 bound_to 10162
  140.7057  143.2466  151.4732 LP  0  0  0  0  0  0  0  0  0  0  0  0  # atno 17343 bound_to 10162
  157.5263  131.0934  151.0013 LP  0  0  0  0  0  0  0  0  0  0  0  0  # atno 17370 bound_to 10713
  157.0331  130.5719  149.5346 LP  0  0  0  0  0  0  0  0  0  0  0  0  # atno 17371 bound_to 10713
  140.0754  134.9679  157.1537 LP  0  0  0  0  0  0  0  0  0  0  0  0  # atno 17394 bound_to 11000
  140.3651  134.2451  155.7183 LP  0  0  0  0  0  0  0  0  0  0  0  0  # atno 17395 bound_to 11000

$$$$
