AV-unprocessed.smi:3012|AV-procd|sdf|11463|dock4
  -GOLD-   2272016403D 1   1.00000     0.00000
 Structure written by MMmdl.
 16 16  0  0  0  0  0  0  0  0  3 V2000
  152.7533  137.4211  153.9725 O   0  0  0  0  0  0  0  0  0  0  0  0
  152.4193  138.1387  154.9418 C   0  0  0  0  0  0  0  0  0  0  0  0
  153.2162  138.7030  155.7245 O   0  5  0  0  0  0  0  0  0  0  0  0
  150.9135  138.3490  155.1524 C   0  0  0  0  0  0  0  0  0  0  0  0
  150.4728  139.8061  155.2892 C   0  0  0  0  0  0  0  0  0  0  0  0
  151.0326  140.6181  156.2672 C   0  0  0  0  0  0  0  0  0  0  0  0
  150.5708  141.9955  156.3968 C   0  0  0  0  0  0  0  0  0  0  0  0
  151.0050  142.7984  157.2208 O   0  0  0  0  0  0  0  0  0  0  0  0
  149.5954  142.3331  155.5171 N   0  0  0  0  0  0  0  0  0  0  0  0
  149.0399  141.5278  154.5748 C   0  0  0  0  0  0  0  0  0  0  0  0
  148.1575  142.0105  153.8681 O   0  0  0  0  0  0  0  0  0  0  0  0
  149.4821  140.2417  154.4660 N   0  5  0  0  0  0  0  0  0  0  0  0
  149.2444  143.2777  155.5685 H   0  0  0  0  0  0  0  0  0  0  0  0
  150.3949  137.8697  154.3209 H   0  0  0  0  0  0  0  0  0  0  0  0
  150.6101  137.8012  156.0455 H   0  0  0  0  0  0  0  0  0  0  0  0
  151.8031  140.2432  156.9248 H   0  0  0  0  0  0  0  0  0  0  0  0
  1  2  2  0  0  0  0
  2  3  1  0  0  0  0
  2  4  1  0  0  0  0
  4  5  1  0  0  0  0
  4 14  1  0  0  0  0
  4 15  1  0  0  0  0
  5 12  1  0  0  0  0
  5  6  2  0  0  0  0
  6  7  1  0  0  0  0
  6 16  1  0  0  0  0
  7  8  2  0  0  0  0
  7  9  1  0  0  0  0
  9 13  1  0  0  0  0
  9 10  1  0  0  0  0
 10 11  2  0  0  0  0
 10 12  1  0  0  0  0
M  CHG  1   3  -1
M  CHG  1  12  -1
M  END
> <s_m_source_file>
AV-unprocessed.smi

> <i_m_source_file_index>
3012

> <i_lp_mmshare_version>
43012

> <i_f3d_flags>
0

> <s_epik_input>
Tz1DKFtPSF0pW0NIMl1jMVtjSF1jKD1PKVtuSF1jKD1PKVtuSF0x

> <s_epik_cmdline>
J2VwaWtfcHl0aG9uJywgJy1waCcsICc3LjAnLCAnLXRuJywgJzgnLCAnLW1hJywgJzIwMCcsICctbWV0YWxfYmluZGluZycsICctaW1hZScsICc8aW5maWxlLm1hZT4nLCAnLW9tYWUnLCAnPG91dGZpbGUubWFlPic=

> <r_lp_tautomer_probability>
1

> <r_epik_Ionization_Penalty>
4.12951

> <r_epik_Ionization_Penalty_Charging>
0.000885541

> <r_epik_Ionization_Penalty_Neutral>
4.12862

> <r_epik_State_Penalty>
4.12806

> <r_epik_Charging_Adjusted_Penalty>
4.12895

> <i_epik_Tot_Q>
-2

> <i_epik_Tot_abs_Q>
2

> <r_epik_Metal_State_Penalty>
0.707998

> <b_epik_Metal_Only>
1

> <s_lp_Force_Field>
OPLS_2005

> <r_lp_Energy>
11.7888

> <b_lp_Chiralities_Consistent>
1

> <s_lp_Variant>
AV-unprocessed.smi:3012-3

> <Gold.Version>
5.8.1

> <Gold.Id.Protein>
6NUR|6NUR_protein|mol2

> <Gold.PLP.Fitness>
32.9440

> <Gold.PLP.PLP>
-20.8168

> <Gold.PLP.part.hbond>
-4.3169

> <Gold.PLP.part.metal>
0.0000

> <Gold.PLP.part.buried>
-1.3262

> <Gold.PLP.part.nonpolar>
-16.4627

> <Gold.PLP.part.repulsive>
0.7156

> <Gold.PLP.ligand.clash>
0.0000

> <Gold.PLP.ligand.torsion>
0.1038

> <Gold.PLP.Chemscore.Hbond>
4.1099

> <Gold.PLP.Chemscore.CHOScore>
0.0000

> <Gold.PLP.Chemscore.Metal>
0.0000

> <Gold.Chemscore.Hbonds>
donor molecule, donor type, donor heavy atom, donor atom, acceptor molecule, acceptor atom, score
      L1  H     9    13       P1  8028  0.89
      P1  H  7997  8010       L1     3  1.98
      P1  H  8011  8017       L1    11  0.05
      P1  H 10752 10764       L1     1  1.12

> <Gold.PLP.Chemscore.Internal.Correction>
0.0051

> <Gold.Rescore>
     Score         DG    S(hbond)    S(metal)    S(lipo)     H(rot)  DE(clash)    DE(int)     intcor
     10.20     -11.36       2.40        0.00      18.52       1.68       0.00       1.16       ----

> <Gold.Chemscore.Fitness>
10.1985

> <Gold.Chemscore.DG>
-11.3616

> <Gold.Chemscore.ZeroCoef>
-5.4800

> <Gold.Chemscore.Hbond>
2.4032

> <Gold.Chemscore.Metal>
0.0000

> <Gold.Chemscore.Lipo>
18.5245

> <Gold.Chemscore.Internal_Hbond>
0.0000

> <Gold.Chemscore.DEClash>
0.0000

> <Gold.Chemscore.DEInternal>
1.1631

> <Gold.Chemscore.Rot>
1.6846

> <Gold.Chemscore.Internal.Correction>
   9.000000E+99

> <Gold.Chemscore.Hbonds>
donor molecule, donor type, donor heavy atom, donor atom, acceptor molecule, acceptor atom, score
      L1  H     9    13       P1  8028  0.86
      P1  H  7997  8010       L1     3  0.94
      P1  H 10752 10764       L1     1  0.56

> <Gold.Chemscore.Hbond.Weighted>
-8.0268

> <Gold.Chemscore.Metal.Weighted>
-0.0000

> <Gold.Chemscore.Lipo.Weighted>
-2.1674

> <Gold.Chemscore.Internal_Hbond.Weighted>
0.0000

> <Gold.Chemscore.DEClash.Weighted>
0.0000

> <Gold.Chemscore.DEInternal.Weighted>
1.1631

> <Gold.Chemscore.Rot.Weighted>
4.3126

> <Gold.Chemscore.Internal.Correction.Weighted>
   9.000000E+99

> <Gold.Protein.RotatedTorsions>
[ 6907 6896 6895 6894 ] final  -26.49 input  -60.11 | X-H torsion
[ 7974 7965 7964 7962 ] final  -85.58 input  175.53 | X-H torsion
[ 8008 7997 7996 7995 ] final   78.62 input   59.86 | X-H torsion
[ 10167 10162 10161 10158 ] final   28.05 input  -65.29 | X-H torsion
[ 10718 10713 10712 10709 ] final  155.22 input   66.30 | X-H torsion
[ 10763 10752 10751 10750 ] final -110.56 input  -60.55 | X-H torsion
[ 11005 11000 10999 10996 ] final  -20.23 input  -57.11 | X-H torsion

> <Gold.Protein.ActiveResidues>
 VAL166  LYS551  ARG553  GLY616  TRP617  ASP618  TYR619  PRO620  LYS621  CYS622 
 ASP623  PHE694  ASN695  SER759  ASP760  ASP761  ALA762  ILE779  LEU786  VAL792 
 PHE793  MET794  SER795  GLU796  ALA797  LYS798  CYS799  TRP800  GLU811  SER814 

> <Gold.Protein.RotatedAtoms>
  151.1602  135.0269  159.8706 H   0  0  0  0  0  0  0  0  0  0  0  0  # atno 6907 bound_to 6896
  152.5451  134.1288  159.8440 H   0  0  0  0  0  0  0  0  0  0  0  0  # atno 6908 bound_to 6896
  151.1383  133.4943  159.2630 H   0  0  0  0  0  0  0  0  0  0  0  0  # atno 6909 bound_to 6896
  145.4913  140.9552  143.1810 H   0  0  0  0  0  0  0  0  0  0  0  0  # atno 7974 bound_to 7965
  155.8583  140.3455  155.5739 H   0  0  0  0  0  0  0  0  0  0  0  0  # atno 8008 bound_to 7997
  155.7961  140.0878  157.2002 H   0  0  0  0  0  0  0  0  0  0  0  0  # atno 8009 bound_to 7997
  154.4010  140.1474  156.3207 H   0  0  0  0  0  0  0  0  0  0  0  0  # atno 8010 bound_to 7997
  140.4886  144.0503  150.6289 H   0  0  0  0  0  0  0  0  0  0  0  0  # atno 10167 bound_to 10162
  157.2212  131.0719  151.1911 H   0  0  0  0  0  0  0  0  0  0  0  0  # atno 10718 bound_to 10713
  154.8254  135.4559  154.0904 H   0  0  0  0  0  0  0  0  0  0  0  0  # atno 10763 bound_to 10752
  153.2222  135.6895  153.7993 H   0  0  0  0  0  0  0  0  0  0  0  0  # atno 10764 bound_to 10752
  153.7406  135.3313  155.3280 H   0  0  0  0  0  0  0  0  0  0  0  0  # atno 10765 bound_to 10752
  140.8444  133.7902  155.9896 H   0  0  0  0  0  0  0  0  0  0  0  0  # atno 11005 bound_to 11000
  144.7832  139.6482  143.7145 LP  0  0  0  0  0  0  0  0  0  0  0  0  # atno 17320 bound_to 7965
  146.2282  139.5763  142.9573 LP  0  0  0  0  0  0  0  0  0  0  0  0  # atno 17321 bound_to 7965
  140.3765  143.2826  152.0219 LP  0  0  0  0  0  0  0  0  0  0  0  0  # atno 17342 bound_to 10162
  139.4847  144.6188  151.7294 LP  0  0  0  0  0  0  0  0  0  0  0  0  # atno 17343 bound_to 10162
  157.3573  130.7113  149.6479 LP  0  0  0  0  0  0  0  0  0  0  0  0  # atno 17370 bound_to 10713
  155.9682  130.4235  150.4566 LP  0  0  0  0  0  0  0  0  0  0  0  0  # atno 17371 bound_to 10713
  140.8859  134.2554  157.5120 LP  0  0  0  0  0  0  0  0  0  0  0  0  # atno 17394 bound_to 11000
  139.8703  134.9638  156.4474 LP  0  0  0  0  0  0  0  0  0  0  0  0  # atno 17395 bound_to 11000

$$$$
