AV-unprocessed.smi:1288|AV-procd|sdf|5382|dock6
  -GOLD-   22720 4533D 1   1.00000     0.00000
 Structure written by MMmdl.
 42 44  0  0  0  0  0  0  0  0  1 V2000
  151.0827  139.3846  156.2540 C   0  0  0  0  0  0  0  0  0  0  0  0
  151.4208  140.2947  157.3922 C   0  0  0  0  0  0  0  0  0  0  0  0
  150.8392  141.4841  157.5483 N   0  0  0  0  0  0  0  0  0  0  0  0
  151.4323  141.9623  158.7008 C   0  0  0  0  0  0  0  0  0  0  0  0
  151.2426  143.1791  159.3945 C   0  0  0  0  0  0  0  0  0  0  0  0
  151.9744  143.4530  160.5686 C   0  0  0  0  0  0  0  0  0  0  0  0
  152.9043  142.5166  161.0649 C   0  0  0  0  0  0  0  0  0  0  0  0
  153.1083  141.2979  160.3896 C   0  0  0  0  0  0  0  0  0  0  0  0
  152.3754  141.0291  159.2179 C   0  0  0  0  0  0  0  0  0  0  0  0
  152.3379  139.9564  158.3317 N   0  0  0  0  0  0  0  0  0  0  0  0
  153.1245  138.7328  158.4151 C   0  0  0  0  0  0  0  0  0  0  0  0
  152.2726  137.4981  158.7731 C   0  0  1  0  0  0  0  0  0  0  0  0
  152.8156  136.8807  159.9238 O   0  0  0  0  0  0  0  0  0  0  0  0
  150.8115  137.8755  159.0649 C   0  0  0  0  0  0  0  0  0  0  0  0
  150.1185  136.7258  159.5225 O   0  0  0  0  0  0  0  0  0  0  0  0
  148.7735  136.9978  159.8779 C   0  0  0  0  0  0  0  0  0  0  0  0
  148.1001  135.7690  160.4565 C   0  0  0  0  0  0  0  0  0  0  0  0
  147.9938  134.5952  159.6808 C   0  0  0  0  0  0  0  0  0  0  0  0
  147.3764  133.4469  160.2138 C   0  0  0  0  0  0  0  0  0  0  0  0
  146.8626  133.4679  161.5246 C   0  0  0  0  0  0  0  0  0  0  0  0
  146.9681  134.6369  162.3026 C   0  0  0  0  0  0  0  0  0  0  0  0
  147.5872  135.7858  161.7722 C   0  0  0  0  0  0  0  0  0  0  0  0
  147.6884  136.9022  162.5328 F   0  0  0  0  0  0  0  0  0  0  0  0
  150.3381  139.8456  155.6044 H   0  0  0  0  0  0  0  0  0  0  0  0
  150.6745  138.4459  156.6289 H   0  0  0  0  0  0  0  0  0  0  0  0
  151.9707  139.1726  155.6591 H   0  0  0  0  0  0  0  0  0  0  0  0
  150.5331  143.9032  159.0222 H   0  0  0  0  0  0  0  0  0  0  0  0
  151.8219  144.3864  161.0905 H   0  0  0  0  0  0  0  0  0  0  0  0
  153.4617  142.7347  161.9641 H   0  0  0  0  0  0  0  0  0  0  0  0
  153.8218  140.5800  160.7662 H   0  0  0  0  0  0  0  0  0  0  0  0
  153.6313  138.5790  157.4613 H   0  0  0  0  0  0  0  0  0  0  0  0
  153.9139  138.8754  159.1533 H   0  0  0  0  0  0  0  0  0  0  0  0
  152.3053  136.7886  157.9458 H   0  0  0  0  0  0  0  0  0  0  0  0
  153.6751  137.2413  160.0801 H   0  0  0  0  0  0  0  0  0  0  0  0
  150.7508  138.6929  159.7859 H   0  0  0  0  0  0  0  0  0  0  0  0
  150.3309  138.2185  158.1473 H   0  0  0  0  0  0  0  0  0  0  0  0
  148.7338  137.8096  160.6060 H   0  0  0  0  0  0  0  0  0  0  0  0
  148.2170  137.3320  159.0007 H   0  0  0  0  0  0  0  0  0  0  0  0
  148.3877  134.5714  158.6753 H   0  0  0  0  0  0  0  0  0  0  0  0
  147.2981  132.5501  159.6170 H   0  0  0  0  0  0  0  0  0  0  0  0
  146.3892  132.5877  161.9339 H   0  0  0  0  0  0  0  0  0  0  0  0
  146.5752  134.6523  163.3086 H   0  0  0  0  0  0  0  0  0  0  0  0
  1  2  1  0  0  0  0
  1 24  1  0  0  0  0
  1 25  1  0  0  0  0
  1 26  1  0  0  0  0
  2 10  1  0  0  0  0
  2  3  2  0  0  0  0
  3  4  1  0  0  0  0
  4  9  2  0  0  0  0
  4  5  1  0  0  0  0
  5  6  2  0  0  0  0
  5 27  1  0  0  0  0
  6  7  1  0  0  0  0
  6 28  1  0  0  0  0
  7  8  2  0  0  0  0
  7 29  1  0  0  0  0
  8  9  1  0  0  0  0
  8 30  1  0  0  0  0
  9 10  1  0  0  0  0
 10 11  1  0  0  0  0
 11 12  1  0  0  0  0
 11 31  1  0  0  0  0
 11 32  1  0  0  0  0
 12 13  1  0  0  0  0
 12 14  1  0  0  0  0
 12 33  1  0  0  0  0
 13 34  1  0  0  0  0
 14 15  1  0  0  0  0
 14 35  1  0  0  0  0
 14 36  1  0  0  0  0
 15 16  1  0  0  0  0
 16 17  1  0  0  0  0
 16 37  1  0  0  0  0
 16 38  1  0  0  0  0
 17 22  1  0  0  0  0
 17 18  2  0  0  0  0
 18 19  1  0  0  0  0
 18 39  1  0  0  0  0
 19 20  2  0  0  0  0
 19 40  1  0  0  0  0
 20 21  1  0  0  0  0
 20 41  1  0  0  0  0
 21 22  2  0  0  0  0
 21 42  1  0  0  0  0
 22 23  1  0  0  0  0
M  END
> <s_m_source_file>
AV-unprocessed.smi

> <i_m_source_file_index>
1288

> <i_lp_mmshare_version>
43012

> <i_f3d_flags>
0

> <s_epik_input>
W2NIXTFbY0hdW2NIXVtjSF1jKGMxMiluKGMobjIpW0NIM10pW0NIMl1bQ0BIXShbT0hdKVtDSDJdT1tDSDJdYzNbY0hdW2NIXVtjSF1bY0hdYzNG

> <s_epik_cmdline>
J2VwaWtfcHl0aG9uJywgJy1waCcsICc3LjAnLCAnLXRuJywgJzgnLCAnLW1hJywgJzIwMCcsICctbWV0YWxfYmluZGluZycsICctaW1hZScsICc8aW5maWxlLm1hZT4nLCAnLW9tYWUnLCAnPG91dGZpbGUubWFlPic=

> <r_epik_Ionization_Penalty>
0.132603

> <r_epik_Ionization_Penalty_Charging>
0

> <r_epik_Ionization_Penalty_Neutral>
0.132603

> <r_epik_State_Penalty>
0.121982

> <r_epik_Charging_Adjusted_Penalty>
0.121982

> <i_epik_Tot_Q>
0

> <i_epik_Tot_abs_Q>
0

> <r_epik_Metal_State_Penalty>
0.000135431

> <b_epik_Metal_Only>
0

> <s_lp_Force_Field>
OPLS_2005

> <r_lp_Energy>
16.0492

> <b_lp_Chiralities_Consistent>
1

> <s_lp_Variant>
AV-unprocessed.smi:1288-2

> <Gold.Version>
5.8.1

> <Gold.Id.Protein>
6NUR|6NUR_protein|mol2

> <Gold.PLP.Fitness>
47.9221

> <Gold.PLP.PLP>
-46.5287

> <Gold.PLP.part.hbond>
-2.0000

> <Gold.PLP.part.metal>
0.0000

> <Gold.PLP.part.buried>
-1.7120

> <Gold.PLP.part.nonpolar>
-43.0333

> <Gold.PLP.part.repulsive>
0.0383

> <Gold.PLP.ligand.clash>
0.0000

> <Gold.PLP.ligand.torsion>
0.8569

> <Gold.PLP.Chemscore.Hbond>
1.0000

> <Gold.PLP.Chemscore.CHOScore>
0.0000

> <Gold.PLP.Chemscore.Metal>
0.0000

> <Gold.Chemscore.Hbonds>
donor molecule, donor type, donor heavy atom, donor atom, acceptor molecule, acceptor atom, score
      P1  H  6896  6908       L1    13  1.00

> <Gold.PLP.Chemscore.Internal.Correction>
0.1072

> <Gold.Rescore>
     Score         DG    S(hbond)    S(metal)    S(lipo)     H(rot)  DE(clash)    DE(int)     intcor
     14.83     -15.79       0.94        0.00     111.32       2.29       0.05       0.91       ----

> <Gold.Chemscore.Fitness>
14.8320

> <Gold.Chemscore.DG>
-15.7891

> <Gold.Chemscore.ZeroCoef>
-5.4800

> <Gold.Chemscore.Hbond>
0.9394

> <Gold.Chemscore.Metal>
0.0000

> <Gold.Chemscore.Lipo>
111.3201

> <Gold.Chemscore.Internal_Hbond>
0.0000

> <Gold.Chemscore.DEClash>
0.0456

> <Gold.Chemscore.DEInternal>
0.9115

> <Gold.Chemscore.Rot>
2.2863

> <Gold.Chemscore.Internal.Correction>
   9.000000E+99

> <Gold.Chemscore.Hbonds>
donor molecule, donor type, donor heavy atom, donor atom, acceptor molecule, acceptor atom, score
      P1  H  6896  6908       L1    13  0.48

> <Gold.Chemscore.Hbond.Weighted>
-3.1376

> <Gold.Chemscore.Metal.Weighted>
-0.0000

> <Gold.Chemscore.Lipo.Weighted>
-13.0245

> <Gold.Chemscore.Internal_Hbond.Weighted>
0.0000

> <Gold.Chemscore.DEClash.Weighted>
0.0456

> <Gold.Chemscore.DEInternal.Weighted>
0.9115

> <Gold.Chemscore.Rot.Weighted>
5.8530

> <Gold.Chemscore.Internal.Correction.Weighted>
   9.000000E+99

> <Gold.Protein.RotatedTorsions>
[ 6907 6896 6895 6894 ] final -102.48 input  -60.11 | X-H torsion
[ 7974 7965 7964 7962 ] final   41.38 input  175.53 | X-H torsion
[ 8008 7997 7996 7995 ] final   92.52 input   59.86 | X-H torsion
[ 10167 10162 10161 10158 ] final   42.95 input  -65.29 | X-H torsion
[ 10718 10713 10712 10709 ] final   24.85 input   66.30 | X-H torsion
[ 10763 10752 10751 10750 ] final  -57.01 input  -60.55 | X-H torsion
[ 11005 11000 10999 10996 ] final   14.43 input  -57.11 | X-H torsion

> <Gold.Protein.ActiveResidues>
 VAL166  LYS551  ARG553  GLY616  TRP617  ASP618  TYR619  PRO620  LYS621  CYS622 
 ASP623  PHE694  ASN695  SER759  ASP760  ASP761  ALA762  ILE779  LEU786  VAL792 
 PHE793  MET794  SER795  GLU796  ALA797  LYS798  CYS799  TRP800  GLU811  SER814 

> <Gold.Protein.RotatedAtoms>
  150.7198  134.0575  159.3819 H   0  0  0  0  0  0  0  0  0  0  0  0  # atno 6907 bound_to 6896
  151.8554  135.0541  160.0473 H   0  0  0  0  0  0  0  0  0  0  0  0  # atno 6908 bound_to 6896
  152.2758  133.5389  159.5504 H   0  0  0  0  0  0  0  0  0  0  0  0  # atno 6909 bound_to 6896
  146.0828  139.5423  142.9526 H   0  0  0  0  0  0  0  0  0  0  0  0  # atno 7974 bound_to 7965
  156.0363  140.3324  155.7195 H   0  0  0  0  0  0  0  0  0  0  0  0  # atno 8008 bound_to 7997
  155.5810  140.0637  157.2800 H   0  0  0  0  0  0  0  0  0  0  0  0  # atno 8009 bound_to 7997
  154.4374  140.1844  156.0965 H   0  0  0  0  0  0  0  0  0  0  0  0  # atno 8010 bound_to 7997
  140.3493  144.2371  150.6147 H   0  0  0  0  0  0  0  0  0  0  0  0  # atno 10167 bound_to 10162
  157.1854  130.6821  149.6129 H   0  0  0  0  0  0  0  0  0  0  0  0  # atno 10718 bound_to 10713
  154.2157  135.6386  153.5129 H   0  0  0  0  0  0  0  0  0  0  0  0  # atno 10763 bound_to 10752
  152.9980  135.5484  154.6168 H   0  0  0  0  0  0  0  0  0  0  0  0  # atno 10764 bound_to 10752
  154.5615  135.2909  155.0888 H   0  0  0  0  0  0  0  0  0  0  0  0  # atno 10765 bound_to 10752
  140.4696  134.1044  155.7730 H   0  0  0  0  0  0  0  0  0  0  0  0  # atno 11005 bound_to 11000
  145.6185  141.0327  143.1927 LP  0  0  0  0  0  0  0  0  0  0  0  0  # atno 17320 bound_to 7965
  144.7305  139.7741  143.7349 LP  0  0  0  0  0  0  0  0  0  0  0  0  # atno 17321 bound_to 7965
  140.5234  143.2260  151.8352 LP  0  0  0  0  0  0  0  0  0  0  0  0  # atno 17342 bound_to 10162
  139.4829  144.4809  151.9308 LP  0  0  0  0  0  0  0  0  0  0  0  0  # atno 17343 bound_to 10162
  155.9719  130.4632  150.6175 LP  0  0  0  0  0  0  0  0  0  0  0  0  # atno 17370 bound_to 10713
  157.3912  131.0796  151.1392 LP  0  0  0  0  0  0  0  0  0  0  0  0  # atno 17371 bound_to 10713
  141.1583  133.8841  157.1918 LP  0  0  0  0  0  0  0  0  0  0  0  0  # atno 17394 bound_to 11000
  139.9893  135.0070  156.9938 LP  0  0  0  0  0  0  0  0  0  0  0  0  # atno 17395 bound_to 11000

$$$$
