AV-unprocessed.smi:1987|AV-procd|sdf|8054|dock6
  -GOLD-   2272010253D 1   1.00000     0.00000
 Structure written by MMmdl.
 37 39  0  0  0  0  0  0  0  0  2 V2000
  146.2442  138.1871  155.0690 O   0  0  0  0  0  0  0  0  0  0  0  0
  147.0245  137.4532  154.4636 C   0  0  0  0  0  0  0  0  0  0  0  0
  148.3109  136.9773  155.1361 C   0  0  0  0  0  0  0  0  0  0  0  0
  149.3056  138.0335  155.1006 N   0  0  0  0  0  0  0  0  0  0  0  0
  149.9056  138.6377  154.0730 C   0  0  0  0  0  0  0  0  0  0  0  0
  150.8059  139.5186  154.4826 N   0  0  0  0  0  0  0  0  0  0  0  0
  150.7267  139.4326  155.8626 N   0  0  0  0  0  0  0  0  0  0  0  0
  149.8384  138.5532  156.2354 N   0  0  0  0  0  0  0  0  0  0  0  0
  146.8474  137.0713  153.1898 N   0  0  0  0  0  0  0  0  0  0  0  0
  145.8255  137.5926  152.2906 C   0  0  0  0  0  0  0  0  0  0  0  0
  144.8655  136.4788  151.8249 C   0  0  2  0  0  0  0  0  0  0  0  0
  144.3127  135.6089  152.9517 C   0  0  0  0  0  0  0  0  0  0  0  0
  143.8932  134.3074  152.2543 C   0  0  0  0  0  0  0  0  0  0  0  0
  144.5827  134.2802  150.9427 N   0  3  2  0  0  0  0  0  0  0  0  0
  145.2353  132.9937  150.6210 C   0  0  0  0  0  0  0  0  0  0  0  0
  144.8518  132.4475  149.2662 C   0  0  0  0  0  0  0  0  0  0  0  0
  144.2727  131.8348  150.5234 C   0  0  0  0  0  0  0  0  0  0  0  0
  145.4933  135.4401  150.8935 C   0  0  0  0  0  0  0  0  0  0  0  0
  148.1171  136.7075  156.1751 H   0  0  0  0  0  0  0  0  0  0  0  0
  148.7001  136.0903  154.6336 H   0  0  0  0  0  0  0  0  0  0  0  0
  149.6982  138.4210  153.0354 H   0  0  0  0  0  0  0  0  0  0  0  0
  147.5330  136.4491  152.7856 H   0  0  0  0  0  0  0  0  0  0  0  0
  145.2736  138.3653  152.8267 H   0  0  0  0  0  0  0  0  0  0  0  0
  146.2919  138.0808  151.4331 H   0  0  0  0  0  0  0  0  0  0  0  0
  144.0192  136.9311  151.3048 H   0  0  0  0  0  0  0  0  0  0  0  0
  145.0980  135.3938  153.6780 H   0  0  0  0  0  0  0  0  0  0  0  0
  143.4887  136.0845  153.4847 H   0  0  0  0  0  0  0  0  0  0  0  0
  144.1406  133.4402  152.8685 H   0  0  0  0  0  0  0  0  0  0  0  0
  142.8173  134.2899  152.0775 H   0  0  0  0  0  0  0  0  0  0  0  0
  146.2415  132.8478  151.0105 H   0  0  0  0  0  0  0  0  0  0  0  0
  144.1856  133.0401  148.6411 H   0  0  0  0  0  0  0  0  0  0  0  0
  145.5998  131.8683  148.7283 H   0  0  0  0  0  0  0  0  0  0  0  0
  144.6397  130.8521  150.8133 H   0  0  0  0  0  0  0  0  0  0  0  0
  143.2210  132.0194  150.7353 H   0  0  0  0  0  0  0  0  0  0  0  0
  145.6106  135.8054  149.8726 H   0  0  0  0  0  0  0  0  0  0  0  0
  146.4787  135.1530  151.2652 H   0  0  0  0  0  0  0  0  0  0  0  0
  143.8711  134.4437  150.2447 H   0  0  0  0  0  0  0  0  0  0  0  0
  1  2  2  0  0  0  0
  2  3  1  0  0  0  0
  2  9  1  0  0  0  0
  3  4  1  0  0  0  0
  3 19  1  0  0  0  0
  3 20  1  0  0  0  0
  4  8  1  0  0  0  0
  4  5  1  0  0  0  0
  5  6  2  0  0  0  0
  5 21  1  0  0  0  0
  6  7  1  0  0  0  0
  7  8  2  0  0  0  0
  9 10  1  0  0  0  0
  9 22  1  0  0  0  0
 10 11  1  0  0  0  0
 10 23  1  0  0  0  0
 10 24  1  0  0  0  0
 11 18  1  0  0  0  0
 11 12  1  0  0  0  0
 11 25  1  0  0  0  0
 12 13  1  0  0  0  0
 12 26  1  0  0  0  0
 12 27  1  0  0  0  0
 13 14  1  0  0  0  0
 13 28  1  0  0  0  0
 13 29  1  0  0  0  0
 14 15  1  0  0  0  0
 14 18  1  0  0  0  0
 14 37  1  0  0  0  0
 15 17  1  0  0  0  0
 15 16  1  0  0  0  0
 15 30  1  0  0  0  0
 16 17  1  0  0  0  0
 16 31  1  0  0  0  0
 16 32  1  0  0  0  0
 17 33  1  0  0  0  0
 17 34  1  0  0  0  0
 18 35  1  0  0  0  0
 18 36  1  0  0  0  0
M  CHG  1  14   1
M  END
> <s_m_source_file>
AV-unprocessed.smi

> <i_m_source_file_index>
1987

> <i_lp_mmshare_version>
43012

> <i_f3d_flags>
0

> <s_epik_input>
bjFubltjSF1uMVtDSDJdQyg9TylbTkhdW0NIMl1bQ0BASF0yW0NIMl1bQ0gyXU4oW0NIMl0yKVtDSF0zW0NIMl1bQ0gyXTM=

> <s_epik_cmdline>
J2VwaWtfcHl0aG9uJywgJy1waCcsICc3LjAnLCAnLXRuJywgJzgnLCAnLW1hJywgJzIwMCcsICctbWV0YWxfYmluZGluZycsICctaW1hZScsICc8aW5maWxlLm1hZT4nLCAnLW9tYWUnLCAnPG91dGZpbGUubWFlPic=

> <r_lp_tautomer_probability>
1

> <r_epik_Ionization_Penalty>
0.000242849

> <r_epik_Ionization_Penalty_Charging>
0.000241326

> <r_epik_Ionization_Penalty_Neutral>
1.52322e-06

> <r_epik_State_Penalty>
-0

> <r_epik_Charging_Adjusted_Penalty>
0.000241326

> <i_epik_Tot_Q>
1

> <i_epik_Tot_abs_Q>
1

> <r_epik_Metal_State_Penalty>
-0

> <b_epik_Metal_Only>
0

> <s_lp_Force_Field>
OPLS_2005

> <r_lp_Energy>
37.5939

> <b_lp_Chiralities_Consistent>
1

> <s_lp_Variant>
AV-unprocessed.smi:1987-1

> <Gold.Version>
5.8.1

> <Gold.Id.Protein>
6NUR|6NUR_protein|mol2

> <Gold.PLP.Fitness>
37.2773

> <Gold.PLP.PLP>
-26.3540

> <Gold.PLP.part.hbond>
-2.0000

> <Gold.PLP.part.metal>
0.0000

> <Gold.PLP.part.buried>
-3.8489

> <Gold.PLP.part.nonpolar>
-20.6996

> <Gold.PLP.part.repulsive>
0.2044

> <Gold.PLP.ligand.clash>
0.0000

> <Gold.PLP.ligand.torsion>
1.0430

> <Gold.PLP.Chemscore.Hbond>
1.9760

> <Gold.PLP.Chemscore.CHOScore>
1.9298

> <Gold.PLP.Chemscore.Metal>
0.0000

> <Gold.Chemscore.Hbonds>
donor molecule, donor type, donor heavy atom, donor atom, acceptor molecule, acceptor atom, score
      L1  H     9    22       P1  7948  0.99
      P1  H  7989  7998       L1     6  1.00
      L1  C     5    21       P1  7948  0.95
      L1  C     5    21       P1  7957  0.96

> <Gold.PLP.Chemscore.Internal.Correction>
1.2917

> <Gold.Rescore>
     Score         DG    S(hbond)    S(metal)    S(lipo)     H(rot)  DE(clash)    DE(int)     intcor
     10.87     -11.84       1.98        0.00      55.33       2.62       0.02       0.95       ----

> <Gold.Chemscore.Fitness>
10.8705

> <Gold.Chemscore.DG>
-11.8398

> <Gold.Chemscore.ZeroCoef>
-5.4800

> <Gold.Chemscore.Hbond>
1.9773

> <Gold.Chemscore.Metal>
0.0000

> <Gold.Chemscore.Lipo>
55.3348

> <Gold.Chemscore.Internal_Hbond>
0.0000

> <Gold.Chemscore.DEClash>
0.0164

> <Gold.Chemscore.DEInternal>
0.9529

> <Gold.Chemscore.Rot>
2.6244

> <Gold.Chemscore.Internal.Correction>
   9.000000E+99

> <Gold.Chemscore.Hbonds>
donor molecule, donor type, donor heavy atom, donor atom, acceptor molecule, acceptor atom, score
      L1  H     9    22       P1  7948  0.93
      P1  H  7989  7998       L1     6  1.00

> <Gold.Chemscore.Hbond.Weighted>
-6.6042

> <Gold.Chemscore.Metal.Weighted>
-0.0000

> <Gold.Chemscore.Lipo.Weighted>
-6.4742

> <Gold.Chemscore.Internal_Hbond.Weighted>
0.0000

> <Gold.Chemscore.DEClash.Weighted>
0.0164

> <Gold.Chemscore.DEInternal.Weighted>
0.9529

> <Gold.Chemscore.Rot.Weighted>
6.7186

> <Gold.Chemscore.Internal.Correction.Weighted>
   9.000000E+99

> <Gold.Protein.RotatedTorsions>
[ 6907 6896 6895 6894 ] final -117.72 input  -60.11 | X-H torsion
[ 7974 7965 7964 7962 ] final  -79.65 input  175.53 | X-H torsion
[ 8008 7997 7996 7995 ] final   73.06 input   59.86 | X-H torsion
[ 10167 10162 10161 10158 ] final  168.65 input  -65.29 | X-H torsion
[ 10718 10713 10712 10709 ] final  118.34 input   66.30 | X-H torsion
[ 10763 10752 10751 10750 ] final   64.46 input  -60.55 | X-H torsion
[ 11005 11000 10999 10996 ] final   -1.53 input  -57.11 | X-H torsion

> <Gold.Protein.ActiveResidues>
 VAL166  LYS551  ARG553  GLY616  TRP617  ASP618  TYR619  PRO620  LYS621  CYS622 
 ASP623  PHE694  ASN695  SER759  ASP760  ASP761  ALA762  ILE779  LEU786  VAL792 
 PHE793  MET794  SER795  GLU796  ALA797  LYS798  CYS799  TRP800  GLU811  SER814 

> <Gold.Protein.RotatedAtoms>
  150.8160  133.8337  159.3160 H   0  0  0  0  0  0  0  0  0  0  0  0  # atno 6907 bound_to 6896
  151.6109  135.1038  160.0090 H   0  0  0  0  0  0  0  0  0  0  0  0  # atno 6908 bound_to 6896
  152.4251  133.7141  159.6552 H   0  0  0  0  0  0  0  0  0  0  0  0  # atno 6909 bound_to 6896
  145.5704  140.9467  143.1399 H   0  0  0  0  0  0  0  0  0  0  0  0  # atno 7974 bound_to 7965
  155.7780  140.3482  155.5282 H   0  0  0  0  0  0  0  0  0  0  0  0  # atno 8008 bound_to 7997
  155.8756  140.0993  157.1541 H   0  0  0  0  0  0  0  0  0  0  0  0  # atno 8009 bound_to 7997
  154.4020  140.1332  156.4120 H   0  0  0  0  0  0  0  0  0  0  0  0  # atno 8010 bound_to 7997
  139.4973  144.3791  151.9641 H   0  0  0  0  0  0  0  0  0  0  0  0  # atno 10167 bound_to 10162
  157.6037  131.1047  150.7742 H   0  0  0  0  0  0  0  0  0  0  0  0  # atno 10718 bound_to 10713
  153.0057  135.5392  154.6513 H   0  0  0  0  0  0  0  0  0  0  0  0  # atno 10763 bound_to 10752
  154.5745  135.2844  155.0797 H   0  0  0  0  0  0  0  0  0  0  0  0  # atno 10764 bound_to 10752
  154.1950  135.6493  153.5123 H   0  0  0  0  0  0  0  0  0  0  0  0  # atno 10765 bound_to 10752
  140.6483  133.9427  155.8365 H   0  0  0  0  0  0  0  0  0  0  0  0  # atno 11005 bound_to 11000
  144.7440  139.7369  143.7299 LP  0  0  0  0  0  0  0  0  0  0  0  0  # atno 17320 bound_to 7965
  146.1788  139.4971  142.9880 LP  0  0  0  0  0  0  0  0  0  0  0  0  # atno 17321 bound_to 7965
  140.3228  144.3408  150.6005 LP  0  0  0  0  0  0  0  0  0  0  0  0  # atno 17342 bound_to 10162
  140.5709  143.2181  151.7601 LP  0  0  0  0  0  0  0  0  0  0  0  0  # atno 17343 bound_to 10162
  156.8135  130.4960  149.5352 LP  0  0  0  0  0  0  0  0  0  0  0  0  # atno 17370 bound_to 10713
  156.1117  130.6045  151.0057 LP  0  0  0  0  0  0  0  0  0  0  0  0  # atno 17371 bound_to 10713
  141.0556  134.0422  157.3727 LP  0  0  0  0  0  0  0  0  0  0  0  0  # atno 17394 bound_to 11000
  139.9055  135.0178  156.7465 LP  0  0  0  0  0  0  0  0  0  0  0  0  # atno 17395 bound_to 11000

$$$$
