AV-unprocessed.smi:243|AV-procd|sdf|1851|dock10
  -GOLD-   2262020473D 1   1.00000     0.00000
 Structure written by MMmdl.
 58 61  0  0  0  0  0  0  0  0  2 V2000
  144.7333  133.1453  150.4858 C   0  0  0  0  0  0  0  0  0  0  0  0
  146.1134  132.6163  150.0689 C   0  0  0  0  0  0  0  0  0  0  0  0
  146.9325  132.1822  151.2288 N   0  3  1  0  0  0  0  0  0  0  0  0
  147.2487  133.3048  152.1432 C   0  0  0  0  0  0  0  0  0  0  0  0
  148.2491  132.8498  153.2096 C   0  0  0  0  0  0  0  0  0  0  0  0
  147.6961  131.6709  154.0405 C   0  0  2  0  0  0  0  0  0  0  0  0
  148.6035  131.2681  155.1300 N   0  0  0  0  0  0  0  0  0  0  0  0
  149.7415  130.4068  154.8282 C   0  0  0  0  0  0  0  0  0  0  0  0
  148.7242  132.0386  156.2418 C   0  0  0  0  0  0  0  0  0  0  0  0
  149.4597  133.1757  156.1526 N   0  0  0  0  0  0  0  0  0  0  0  0
  149.6007  133.9775  157.2113 C   0  0  0  0  0  0  0  0  0  0  0  0
  149.0948  133.8354  158.4368 N   0  0  0  0  0  0  0  0  0  0  0  0
  148.3397  132.7041  158.5318 C   0  0  0  0  0  0  0  0  0  0  0  0
  148.0928  131.7639  157.4903 C   0  0  0  0  0  0  0  0  0  0  0  0
  147.2622  130.7540  157.9617 N   0  0  0  0  0  0  0  0  0  0  0  0
  147.0382  131.0730  159.2064 C   0  0  0  0  0  0  0  0  0  0  0  0
  147.6605  132.2220  159.6370 N   0  0  0  0  0  0  0  0  0  0  0  0
  147.5915  132.8032  160.9683 C   0  0  0  0  0  0  0  0  0  0  0  0
  146.5846  133.9758  161.0897 C   0  0  1  0  0  0  0  0  0  0  0  0
  145.4038  133.6738  160.3705 O   0  0  0  0  0  0  0  0  0  0  0  0
  146.2333  134.2800  162.5367 C   0  0  0  0  0  0  0  0  0  0  0  0
  147.3568  135.2195  162.9721 C   0  0  0  0  0  0  0  0  0  0  0  0
  147.8249  135.8549  161.7855 O   0  0  0  0  0  0  0  0  0  0  0  0
  147.1426  135.3346  160.6496 C   0  0  0  0  0  0  0  0  0  0  0  0
  147.2728  130.5143  153.0895 C   0  0  1  0  0  0  0  0  0  0  0  0
  146.5552  129.3567  153.8058 C   0  0  0  0  0  0  0  0  0  0  0  0
  146.3406  131.0414  151.9735 C   0  0  0  0  0  0  0  0  0  0  0  0
  144.1221  133.3524  149.6071 H   0  0  0  0  0  0  0  0  0  0  0  0
  144.8023  134.0726  151.0536 H   0  0  0  0  0  0  0  0  0  0  0  0
  144.1982  132.4154  151.0940 H   0  0  0  0  0  0  0  0  0  0  0  0
  145.9533  131.7655  149.4052 H   0  0  0  0  0  0  0  0  0  0  0  0
  146.6538  133.3643  149.4868 H   0  0  0  0  0  0  0  0  0  0  0  0
  147.6827  134.1320  151.5799 H   0  0  0  0  0  0  0  0  0  0  0  0
  146.3346  133.6789  152.6074 H   0  0  0  0  0  0  0  0  0  0  0  0
  149.1674  132.5687  152.6953 H   0  0  0  0  0  0  0  0  0  0  0  0
  148.4958  133.6860  153.8649 H   0  0  0  0  0  0  0  0  0  0  0  0
  146.7887  132.0337  154.5254 H   0  0  0  0  0  0  0  0  0  0  0  0
  150.1775  130.0057  155.7443 H   0  0  0  0  0  0  0  0  0  0  0  0
  150.5231  130.9340  154.2844 H   0  0  0  0  0  0  0  0  0  0  0  0
  149.4215  129.5602  154.2203 H   0  0  0  0  0  0  0  0  0  0  0  0
  150.2045  134.8592  157.0544 H   0  0  0  0  0  0  0  0  0  0  0  0
  146.4151  130.4707  159.8517 H   0  0  0  0  0  0  0  0  0  0  0  0
  147.3306  132.0111  161.6712 H   0  0  0  0  0  0  0  0  0  0  0  0
  148.5942  133.1326  161.2428 H   0  0  0  0  0  0  0  0  0  0  0  0
  144.6599  133.8565  160.9239 H   0  0  0  0  0  0  0  0  0  0  0  0
  145.2831  134.8140  162.5939 H   0  0  0  0  0  0  0  0  0  0  0  0
  146.1511  133.3911  163.1631 H   0  0  0  0  0  0  0  0  0  0  0  0
  147.0175  135.9521  163.7046 H   0  0  0  0  0  0  0  0  0  0  0  0
  148.1804  134.6577  163.4142 H   0  0  0  0  0  0  0  0  0  0  0  0
  147.7870  135.2921  159.7728 H   0  0  0  0  0  0  0  0  0  0  0  0
  146.3277  136.0227  160.4176 H   0  0  0  0  0  0  0  0  0  0  0  0
  148.1684  130.1117  152.6132 H   0  0  0  0  0  0  0  0  0  0  0  0
  145.7046  129.7152  154.3863 H   0  0  0  0  0  0  0  0  0  0  0  0
  147.2175  128.8186  154.4775 H   0  0  0  0  0  0  0  0  0  0  0  0
  146.1814  128.6238  153.0901 H   0  0  0  0  0  0  0  0  0  0  0  0
  145.3841  131.3507  152.3986 H   0  0  0  0  0  0  0  0  0  0  0  0
  146.1246  130.2262  151.2837 H   0  0  0  0  0  0  0  0  0  0  0  0
  147.8155  131.8663  150.8534 H   0  0  0  0  0  0  0  0  0  0  0  0
  1  2  1  0  0  0  0
  1 28  1  0  0  0  0
  1 29  1  0  0  0  0
  1 30  1  0  0  0  0
  2  3  1  0  0  0  0
  2 31  1  0  0  0  0
  2 32  1  0  0  0  0
  3 27  1  0  0  0  0
  3  4  1  0  0  0  0
  3 58  1  0  0  0  0
  4  5  1  0  0  0  0
  4 33  1  0  0  0  0
  4 34  1  0  0  0  0
  5  6  1  0  0  0  0
  5 35  1  0  0  0  0
  5 36  1  0  0  0  0
  6  7  1  0  0  0  0
  6 25  1  0  0  0  0
  6 37  1  0  0  0  0
  7  8  1  0  0  0  0
  7  9  1  0  0  0  0
  8 38  1  0  0  0  0
  8 39  1  0  0  0  0
  8 40  1  0  0  0  0
  9 14  1  0  0  0  0
  9 10  2  0  0  0  0
 10 11  1  0  0  0  0
 11 12  2  0  0  0  0
 11 41  1  0  0  0  0
 12 13  1  0  0  0  0
 13 17  1  0  0  0  0
 13 14  2  0  0  0  0
 14 15  1  0  0  0  0
 15 16  2  0  0  0  0
 16 17  1  0  0  0  0
 16 42  1  0  0  0  0
 17 18  1  0  0  0  0
 18 19  1  0  0  0  0
 18 43  1  0  0  0  0
 18 44  1  0  0  0  0
 19 24  1  0  0  0  0
 19 20  1  0  0  0  0
 19 21  1  0  0  0  0
 20 45  1  0  0  0  0
 21 22  1  0  0  0  0
 21 46  1  0  0  0  0
 21 47  1  0  0  0  0
 22 23  1  0  0  0  0
 22 48  1  0  0  0  0
 22 49  1  0  0  0  0
 23 24  1  0  0  0  0
 24 50  1  0  0  0  0
 24 51  1  0  0  0  0
 25 26  1  0  0  0  0
 25 27  1  0  0  0  0
 25 52  1  0  0  0  0
 26 53  1  0  0  0  0
 26 54  1  0  0  0  0
 26 55  1  0  0  0  0
 27 56  1  0  0  0  0
 27 57  1  0  0  0  0
M  CHG  1   3   1
M  END
> <s_m_source_file>
AV-unprocessed.smi

> <i_m_source_file_index>
243

> <i_lp_mmshare_version>
43012

> <i_f3d_flags>
0

> <s_epik_input>
W0NIM11bQ0gyXU4xW0NIMl1bQ0gyXVtDQEhdKFtDQEBIXShbQ0gzXSlbQ0gyXTEpTihbQ0gzXSljKG5bY0hdbjIpYyhjMjMpbltjSF1uM1tDSDJdW0NAQF00KFtPSF0pW0NIMl1bQ0gyXU9bQ0gyXTQ=

> <s_epik_cmdline>
J2VwaWtfcHl0aG9uJywgJy1waCcsICc3LjAnLCAnLXRuJywgJzgnLCAnLW1hJywgJzIwMCcsICctbWV0YWxfYmluZGluZycsICctaW1hZScsICc8aW5maWxlLm1hZT4nLCAnLW9tYWUnLCAnPG91dGZpbGUubWFlPic=

> <r_lp_tautomer_probability>
1

> <r_epik_Ionization_Penalty>
0.00253099

> <r_epik_Ionization_Penalty_Charging>
0.00137877

> <r_epik_Ionization_Penalty_Neutral>
0.00115221

> <r_epik_State_Penalty>
-0

> <r_epik_Charging_Adjusted_Penalty>
0.00137877

> <i_epik_Tot_Q>
1

> <i_epik_Tot_abs_Q>
1

> <r_epik_Metal_State_Penalty>
-0

> <b_epik_Metal_Only>
0

> <s_lp_Force_Field>
OPLS_2005

> <r_lp_Energy>
48.9209

> <b_lp_Chiralities_Consistent>
1

> <s_lp_Variant>
AV-unprocessed.smi:243-4

> <Gold.Version>
5.8.1

> <Gold.Id.Protein>
6NUR|6NUR_protein|mol2

> <Gold.PLP.Fitness>
45.9111

> <Gold.PLP.PLP>
-41.0968

> <Gold.PLP.part.hbond>
-3.0000

> <Gold.PLP.part.metal>
0.0000

> <Gold.PLP.part.buried>
-5.9760

> <Gold.PLP.part.nonpolar>
-32.7339

> <Gold.PLP.part.repulsive>
0.0394

> <Gold.PLP.ligand.clash>
0.0000

> <Gold.PLP.ligand.torsion>
2.4639

> <Gold.PLP.Chemscore.Hbond>
3.0000

> <Gold.PLP.Chemscore.CHOScore>
0.0000

> <Gold.PLP.Chemscore.Metal>
0.0000

> <Gold.Chemscore.Hbonds>
donor molecule, donor type, donor heavy atom, donor atom, acceptor molecule, acceptor atom, score
      L1  H     3    58       P1 10747  1.00
      P1  H  6896  6908       L1    12  0.95

> <Gold.PLP.Chemscore.Internal.Correction>
0.7421

> <Gold.Rescore>
     Score         DG    S(hbond)    S(metal)    S(lipo)     H(rot)  DE(clash)    DE(int)     intcor
     16.74     -19.40       2.55        0.00      95.31       2.24       0.13       2.53       ----

> <Gold.Chemscore.Fitness>
16.7371

> <Gold.Chemscore.DG>
-19.4037

> <Gold.Chemscore.ZeroCoef>
-5.4800

> <Gold.Chemscore.Hbond>
2.5455

> <Gold.Chemscore.Metal>
0.0000

> <Gold.Chemscore.Lipo>
95.3076

> <Gold.Chemscore.Internal_Hbond>
0.0000

> <Gold.Chemscore.DEClash>
0.1340

> <Gold.Chemscore.DEInternal>
2.5327

> <Gold.Chemscore.Rot>
2.2379

> <Gold.Chemscore.Internal.Correction>
   9.000000E+99

> <Gold.Chemscore.Hbonds>
donor molecule, donor type, donor heavy atom, donor atom, acceptor molecule, acceptor atom, score
      L1  H     3    58       P1 10747  0.99
      P1  H  6896  6908       L1    12  0.21

> <Gold.Chemscore.Hbond.Weighted>
-8.5018

> <Gold.Chemscore.Metal.Weighted>
-0.0000

> <Gold.Chemscore.Lipo.Weighted>
-11.1510

> <Gold.Chemscore.Internal_Hbond.Weighted>
0.0000

> <Gold.Chemscore.DEClash.Weighted>
0.1340

> <Gold.Chemscore.DEInternal.Weighted>
2.5327

> <Gold.Chemscore.Rot.Weighted>
5.7291

> <Gold.Chemscore.Internal.Correction.Weighted>
   9.000000E+99

> <Gold.Protein.RotatedTorsions>
[ 6907 6896 6895 6894 ] final  151.78 input  -60.11 | X-H torsion
[ 7974 7965 7964 7962 ] final  115.35 input  175.53 | X-H torsion
[ 8008 7997 7996 7995 ] final   25.27 input   59.86 | X-H torsion
[ 10167 10162 10161 10158 ] final   72.56 input  -65.29 | X-H torsion
[ 10718 10713 10712 10709 ] final -112.54 input   66.30 | X-H torsion
[ 10763 10752 10751 10750 ] final -136.04 input  -60.55 | X-H torsion
[ 11005 11000 10999 10996 ] final   57.20 input  -57.11 | X-H torsion

> <Gold.Protein.ActiveResidues>
 VAL166  LYS551  ARG553  GLY616  TRP617  ASP618  TYR619  PRO620  LYS621  CYS622 
 ASP623  PHE694  ASN695  SER759  ASP760  ASP761  ALA762  ILE779  LEU786  VAL792 
 PHE793  MET794  SER795  GLU796  ALA797  LYS798  CYS799  TRP800  GLU811  SER814 

> <Gold.Protein.RotatedAtoms>
  152.0958  133.4224  159.4564 H   0  0  0  0  0  0  0  0  0  0  0  0  # atno 6907 bound_to 6896
  150.6863  134.2818  159.4639 H   0  0  0  0  0  0  0  0  0  0  0  0  # atno 6908 bound_to 6896
  152.0674  134.9555  160.0625 H   0  0  0  0  0  0  0  0  0  0  0  0  # atno 6909 bound_to 6896
  145.1930  139.2990  143.4358 H   0  0  0  0  0  0  0  0  0  0  0  0  # atno 7974 bound_to 7965
  155.0092  140.3134  155.4836 H   0  0  0  0  0  0  0  0  0  0  0  0  # atno 8008 bound_to 7997
  156.2912  140.2218  156.5147 H   0  0  0  0  0  0  0  0  0  0  0  0  # atno 8009 bound_to 7997
  154.7550  140.0463  157.0913 H   0  0  0  0  0  0  0  0  0  0  0  0  # atno 8010 bound_to 7997
  140.0340  144.5443  150.7485 H   0  0  0  0  0  0  0  0  0  0  0  0  # atno 10167 bound_to 10162
  156.0712  130.5925  150.8522 H   0  0  0  0  0  0  0  0  0  0  0  0  # atno 10718 bound_to 10713
  154.8691  135.3685  154.4996 H   0  0  0  0  0  0  0  0  0  0  0  0  # atno 10763 bound_to 10752
  153.5638  135.7022  153.5540 H   0  0  0  0  0  0  0  0  0  0  0  0  # atno 10764 bound_to 10752
  153.3604  135.4048  155.1677 H   0  0  0  0  0  0  0  0  0  0  0  0  # atno 10765 bound_to 10752
  140.0471  134.5790  155.9309 H   0  0  0  0  0  0  0  0  0  0  0  0  # atno 11005 bound_to 11000
  146.3432  140.2149  142.8590 LP  0  0  0  0  0  0  0  0  0  0  0  0  # atno 17320 bound_to 7965
  145.0022  140.8642  143.5275 LP  0  0  0  0  0  0  0  0  0  0  0  0  # atno 17321 bound_to 7965
  140.7290  143.2667  151.4020 LP  0  0  0  0  0  0  0  0  0  0  0  0  # atno 17342 bound_to 10162
  139.6057  144.1201  152.2247 LP  0  0  0  0  0  0  0  0  0  0  0  0  # atno 17343 bound_to 10162
  157.5783  131.0946  150.9311 LP  0  0  0  0  0  0  0  0  0  0  0  0  # atno 17370 bound_to 10713
  156.9512  130.5420  149.5282 LP  0  0  0  0  0  0  0  0  0  0  0  0  # atno 17371 bound_to 10713
  141.1912  133.6571  156.5447 LP  0  0  0  0  0  0  0  0  0  0  0  0  # atno 17394 bound_to 11000
  140.3976  134.7385  157.4760 LP  0  0  0  0  0  0  0  0  0  0  0  0  # atno 17395 bound_to 11000

$$$$
