AV-unprocessed.smi:117|AV-procd|sdf|1129|dock4
  -GOLD-   2262018253D 1   1.00000     0.00000
 Structure written by MMmdl.
 53 55  0  0  0  0  0  0  0  0  1 V2000
  151.9278  145.0641  158.7216 C   0  0  0  0  0  0  0  0  0  0  0  0
  152.1797  143.6069  159.0715 C   0  0  0  0  0  0  0  0  0  0  0  0
  152.9417  143.3164  160.2214 C   0  0  0  0  0  0  0  0  0  0  0  0
  153.2223  141.9859  160.5717 C   0  0  0  0  0  0  0  0  0  0  0  0
  152.7403  140.9335  159.7756 C   0  0  0  0  0  0  0  0  0  0  0  0
  151.9549  141.2009  158.6283 C   0  0  0  0  0  0  0  0  0  0  0  0
  151.4789  140.1592  157.7800 N   0  0  0  0  0  0  0  0  0  0  0  0
  151.9197  138.8930  157.6588 C   0  0  0  0  0  0  0  0  0  0  0  0
  152.8525  138.4120  158.3033 O   0  0  0  0  0  0  0  0  0  0  0  0
  151.1517  138.0395  156.6396 C   0  0  0  0  0  0  0  0  0  0  0  0
  149.8472  137.5824  157.1143 N   0  0  0  0  0  0  0  0  0  0  0  0
  149.6443  136.7253  158.1271 C   0  0  0  0  0  0  0  0  0  0  0  0
  150.5607  136.2316  158.7854 O   0  0  0  0  0  0  0  0  0  0  0  0
  148.1773  136.3974  158.4436 C   0  0  0  0  0  0  0  0  0  0  0  0
  148.0151  135.4755  159.5892 N   0  0  0  0  0  0  0  0  0  0  0  0
  147.7246  136.0282  160.8612 C   0  0  0  0  0  0  0  0  0  0  0  0
  147.6206  137.2454  161.0200 O   0  0  0  0  0  0  0  0  0  0  0  0
  147.5526  135.0645  161.9422 C   0  0  0  0  0  0  0  0  0  0  0  0
  147.2646  135.4973  163.1814 F   0  0  0  0  0  0  0  0  0  0  0  0
  147.6760  133.7404  161.7176 C   0  0  0  0  0  0  0  0  0  0  0  0
  147.9782  133.2146  160.4771 N   0  0  0  0  0  0  0  0  0  0  0  0
  148.0432  131.7142  160.3082 C   0  0  2  0  0  0  0  0  0  0  0  0
  147.8136  130.9343  161.6167 C   0  0  0  0  0  0  0  0  0  0  0  0
  149.0891  130.1194  161.7551 C   0  0  0  0  0  0  0  0  0  0  0  0
  149.6283  130.0877  160.3293 C   0  0  0  0  0  0  0  0  0  0  0  0
  149.3077  131.3757  159.8283 O   0  0  0  0  0  0  0  0  0  0  0  0
  148.1254  134.0811  159.3690 C   0  0  0  0  0  0  0  0  0  0  0  0
  148.3366  133.6367  158.2394 O   0  0  0  0  0  0  0  0  0  0  0  0
  151.6765  142.5477  158.2695 C   0  0  0  0  0  0  0  0  0  0  0  0
  150.8486  142.8431  157.0207 C   0  0  0  0  0  0  0  0  0  0  0  0
  152.4839  145.7337  159.3785 H   0  0  0  0  0  0  0  0  0  0  0  0
  150.8691  145.3037  158.8227 H   0  0  0  0  0  0  0  0  0  0  0  0
  152.2395  145.2732  157.6978 H   0  0  0  0  0  0  0  0  0  0  0  0
  153.3255  144.1162  160.8380 H   0  0  0  0  0  0  0  0  0  0  0  0
  153.8184  141.7714  161.4464 H   0  0  0  0  0  0  0  0  0  0  0  0
  153.0027  139.9258  160.0579 H   0  0  0  0  0  0  0  0  0  0  0  0
  150.6482  140.3835  157.2520 H   0  0  0  0  0  0  0  0  0  0  0  0
  151.0378  138.5988  155.7093 H   0  0  0  0  0  0  0  0  0  0  0  0
  151.7504  137.1598  156.4026 H   0  0  0  0  0  0  0  0  0  0  0  0
  149.0378  137.9354  156.6254 H   0  0  0  0  0  0  0  0  0  0  0  0
  147.6492  137.3371  158.6106 H   0  0  0  0  0  0  0  0  0  0  0  0
  147.7026  135.9843  157.5519 H   0  0  0  0  0  0  0  0  0  0  0  0
  147.5335  133.0689  162.5517 H   0  0  0  0  0  0  0  0  0  0  0  0
  147.2955  131.4634  159.5541 H   0  0  0  0  0  0  0  0  0  0  0  0
  147.6307  131.5891  162.4692 H   0  0  0  0  0  0  0  0  0  0  0  0
  146.9463  130.2861  161.4866 H   0  0  0  0  0  0  0  0  0  0  0  0
  149.7950  130.6334  162.4078 H   0  0  0  0  0  0  0  0  0  0  0  0
  148.9159  129.1242  162.1648 H   0  0  0  0  0  0  0  0  0  0  0  0
  150.7005  129.8955  160.2881 H   0  0  0  0  0  0  0  0  0  0  0  0
  149.1169  129.3279  159.7360 H   0  0  0  0  0  0  0  0  0  0  0  0
  150.0158  142.1459  156.9259 H   0  0  0  0  0  0  0  0  0  0  0  0
  151.4722  142.7528  156.1310 H   0  0  0  0  0  0  0  0  0  0  0  0
  150.4105  143.8396  157.0261 H   0  0  0  0  0  0  0  0  0  0  0  0
  1  2  1  0  0  0  0
  1 31  1  0  0  0  0
  1 32  1  0  0  0  0
  1 33  1  0  0  0  0
  2 29  1  0  0  0  0
  2  3  2  0  0  0  0
  3  4  1  0  0  0  0
  3 34  1  0  0  0  0
  4  5  2  0  0  0  0
  4 35  1  0  0  0  0
  5  6  1  0  0  0  0
  5 36  1  0  0  0  0
  6  7  1  0  0  0  0
  6 29  2  0  0  0  0
  7  8  1  0  0  0  0
  7 37  1  0  0  0  0
  8  9  2  0  0  0  0
  8 10  1  0  0  0  0
 10 11  1  0  0  0  0
 10 38  1  0  0  0  0
 10 39  1  0  0  0  0
 11 12  1  0  0  0  0
 11 40  1  0  0  0  0
 12 13  2  0  0  0  0
 12 14  1  0  0  0  0
 14 15  1  0  0  0  0
 14 41  1  0  0  0  0
 14 42  1  0  0  0  0
 15 27  1  0  0  0  0
 15 16  1  0  0  0  0
 16 17  2  0  0  0  0
 16 18  1  0  0  0  0
 18 19  1  0  0  0  0
 18 20  2  0  0  0  0
 20 21  1  0  0  0  0
 20 43  1  0  0  0  0
 21 22  1  0  0  0  0
 21 27  1  0  0  0  0
 22 26  1  0  0  0  0
 22 23  1  0  0  0  0
 22 44  1  0  0  0  0
 23 24  1  0  0  0  0
 23 45  1  0  0  0  0
 23 46  1  0  0  0  0
 24 25  1  0  0  0  0
 24 47  1  0  0  0  0
 24 48  1  0  0  0  0
 25 26  1  0  0  0  0
 25 49  1  0  0  0  0
 25 50  1  0  0  0  0
 27 28  2  0  0  0  0
 29 30  1  0  0  0  0
 30 51  1  0  0  0  0
 30 52  1  0  0  0  0
 30 53  1  0  0  0  0
M  END
> <s_m_source_file>
AV-unprocessed.smi

> <i_m_source_file_index>
117

> <i_lp_mmshare_version>
43012

> <i_f3d_flags>
0

> <s_epik_input>
W0NIM11jMVtjSF1bY0hdW2NIXWMoYzFbQ0gzXSlbTkhdQyg9TylbQ0gyXVtOSF1DKD1PKVtDSDJdbjJjKD1PKWMoRilbY0hdbihjMj1PKVtDQEBIXTNbQ0gyXVtDSDJdW0NIMl1PMw==

> <s_epik_cmdline>
J2VwaWtfcHl0aG9uJywgJy1waCcsICc3LjAnLCAnLXRuJywgJzgnLCAnLW1hJywgJzIwMCcsICctbWV0YWxfYmluZGluZycsICctaW1hZScsICc8aW5maWxlLm1hZT4nLCAnLW9tYWUnLCAnPG91dGZpbGUubWFlPic=

> <r_lp_tautomer_probability>
1

> <r_epik_Ionization_Penalty>
1.58439e-06

> <r_epik_Ionization_Penalty_Charging>
4.14583e-09

> <r_epik_Ionization_Penalty_Neutral>
1.58025e-06

> <r_epik_State_Penalty>
-0

> <r_epik_Charging_Adjusted_Penalty>
4.14583e-09

> <i_epik_Tot_Q>
0

> <i_epik_Tot_abs_Q>
0

> <r_epik_Metal_State_Penalty>
-0

> <b_epik_Metal_Only>
0

> <s_epik_Chemistry_Notes>
This compound contains an acetal/aminal-like group ( X-CH(R)-Y where X, Y are N, S, or O) that may be acid/base labile, releasing an aldehyde.

> <s_lp_Force_Field>
OPLS_2005

> <r_lp_Energy>
28.8349

> <b_lp_Chiralities_Consistent>
1

> <s_lp_Variant>
AV-unprocessed.smi:117-1

> <Gold.Version>
5.8.1

> <Gold.Id.Protein>
6NUR|6NUR_protein|mol2

> <Gold.PLP.Fitness>
59.5090

> <Gold.PLP.PLP>
-52.4450

> <Gold.PLP.part.hbond>
-2.9348

> <Gold.PLP.part.metal>
0.0000

> <Gold.PLP.part.buried>
-5.6536

> <Gold.PLP.part.nonpolar>
-44.9002

> <Gold.PLP.part.repulsive>
0.0852

> <Gold.PLP.ligand.clash>
0.0000

> <Gold.PLP.ligand.torsion>
0.6675

> <Gold.PLP.Chemscore.Hbond>
2.7840

> <Gold.PLP.Chemscore.CHOScore>
0.0000

> <Gold.PLP.Chemscore.Metal>
0.0000

> <Gold.Chemscore.Hbonds>
donor molecule, donor type, donor heavy atom, donor atom, acceptor molecule, acceptor atom, score
      P1  H  6896  6909       L1    13  0.99
      P1  H  6931  6943       L1    17  0.86
      P1  H  6934  6947       L1    17  0.93

> <Gold.PLP.Chemscore.Internal.Correction>
0.0469

> <Gold.Rescore>
     Score         DG    S(hbond)    S(metal)    S(lipo)     H(rot)  DE(clash)    DE(int)     intcor
     19.63     -22.61       2.66        0.00     121.07       2.32       0.02       2.96       ----

> <Gold.Chemscore.Fitness>
19.6296

> <Gold.Chemscore.DG>
-22.6101

> <Gold.Chemscore.ZeroCoef>
-5.4800

> <Gold.Chemscore.Hbond>
2.6632

> <Gold.Chemscore.Metal>
0.0000

> <Gold.Chemscore.Lipo>
121.0734

> <Gold.Chemscore.Internal_Hbond>
0.0000

> <Gold.Chemscore.DEClash>
0.0213

> <Gold.Chemscore.DEInternal>
2.9592

> <Gold.Chemscore.Rot>
2.3166

> <Gold.Chemscore.Internal.Correction>
   9.000000E+99

> <Gold.Chemscore.Hbonds>
donor molecule, donor type, donor heavy atom, donor atom, acceptor molecule, acceptor atom, score
      P1  H  6896  6909       L1    13  0.94
      P1  H  6931  6943       L1    17  0.83
      P1  H  6934  6947       L1    17  0.90

> <Gold.Chemscore.Hbond.Weighted>
-8.8951

> <Gold.Chemscore.Metal.Weighted>
-0.0000

> <Gold.Chemscore.Lipo.Weighted>
-14.1656

> <Gold.Chemscore.Internal_Hbond.Weighted>
0.0000

> <Gold.Chemscore.DEClash.Weighted>
0.0213

> <Gold.Chemscore.DEInternal.Weighted>
2.9592

> <Gold.Chemscore.Rot.Weighted>
5.9306

> <Gold.Chemscore.Internal.Correction.Weighted>
   9.000000E+99

> <Gold.Protein.RotatedTorsions>
[ 6907 6896 6895 6894 ] final   80.82 input  -60.11 | X-H torsion
[ 7974 7965 7964 7962 ] final   98.74 input  175.53 | X-H torsion
[ 8008 7997 7996 7995 ] final  136.80 input   59.86 | X-H torsion
[ 10167 10162 10161 10158 ] final  -32.83 input  -65.29 | X-H torsion
[ 10718 10713 10712 10709 ] final  119.62 input   66.30 | X-H torsion
[ 10763 10752 10751 10750 ] final   48.16 input  -60.55 | X-H torsion
[ 11005 11000 10999 10996 ] final  151.99 input  -57.11 | X-H torsion

> <Gold.Protein.ActiveResidues>
 VAL166  LYS551  ARG553  GLY616  TRP617  ASP618  TYR619  PRO620  LYS621  CYS622 
 ASP623  PHE694  ASN695  SER759  ASP760  ASP761  ALA762  ILE779  LEU786  VAL792 
 PHE793  MET794  SER795  GLU796  ALA797  LYS798  CYS799  TRP800  GLU811  SER814 

> <Gold.Protein.RotatedAtoms>
  152.5248  134.3299  159.9178 H   0  0  0  0  0  0  0  0  0  0  0  0  # atno 6907 bound_to 6896
  151.3248  133.4018  159.2665 H   0  0  0  0  0  0  0  0  0  0  0  0  # atno 6908 bound_to 6896
  150.9929  134.9277  159.7967 H   0  0  0  0  0  0  0  0  0  0  0  0  # atno 6909 bound_to 6896
  145.4081  139.2338  143.3263 H   0  0  0  0  0  0  0  0  0  0  0  0  # atno 7974 bound_to 7965
  156.3003  140.2436  156.3805 H   0  0  0  0  0  0  0  0  0  0  0  0  # atno 8008 bound_to 7997
  154.8705  140.0416  157.1741 H   0  0  0  0  0  0  0  0  0  0  0  0  # atno 8009 bound_to 7997
  154.8800  140.2948  155.5434 H   0  0  0  0  0  0  0  0  0  0  0  0  # atno 8010 bound_to 7997
  140.7215  143.3666  151.1860 H   0  0  0  0  0  0  0  0  0  0  0  0  # atno 10167 bound_to 10162
  157.5948  131.1059  150.7922 H   0  0  0  0  0  0  0  0  0  0  0  0  # atno 10718 bound_to 10713
  152.9794  135.5953  154.3880 H   0  0  0  0  0  0  0  0  0  0  0  0  # atno 10763 bound_to 10752
  154.3539  135.2767  155.2359 H   0  0  0  0  0  0  0  0  0  0  0  0  # atno 10764 bound_to 10752
  154.4386  135.6018  153.6170 H   0  0  0  0  0  0  0  0  0  0  0  0  # atno 10765 bound_to 10752
  140.1268  134.8828  157.2148 H   0  0  0  0  0  0  0  0  0  0  0  0  # atno 11005 bound_to 11000
  146.2719  140.4788  142.8811 LP  0  0  0  0  0  0  0  0  0  0  0  0  # atno 17320 bound_to 7965
  144.8328  140.6734  143.6280 LP  0  0  0  0  0  0  0  0  0  0  0  0  # atno 17321 bound_to 7965
  139.7228  143.9195  152.2992 LP  0  0  0  0  0  0  0  0  0  0  0  0  # atno 17342 bound_to 10162
  139.8958  144.6940  150.8719 LP  0  0  0  0  0  0  0  0  0  0  0  0  # atno 17343 bound_to 10162
  156.8335  130.5024  149.5329 LP  0  0  0  0  0  0  0  0  0  0  0  0  # atno 17370 bound_to 10713
  156.1009  130.5968  150.9892 LP  0  0  0  0  0  0  0  0  0  0  0  0  # atno 17371 bound_to 10713
  140.2894  134.3258  155.7319 LP  0  0  0  0  0  0  0  0  0  0  0  0  # atno 17394 bound_to 11000
  141.2162  133.7525  156.9480 LP  0  0  0  0  0  0  0  0  0  0  0  0  # atno 17395 bound_to 11000

$$$$
