AV-unprocessed.smi:2811|AV-procd|sdf|10832|dock2
  -GOLD-   2272015273D 1   1.00000     0.00000
 Structure written by MMmdl.
 38 40  0  0  0  0  0  0  0  0  1 V2000
  153.7183  141.1760  159.8676 C   0  0  0  0  0  0  0  0  0  0  0  0
  152.8366  142.3167  159.4049 C   0  0  0  0  0  0  0  0  0  0  0  0
  152.8220  143.5412  160.0989 C   0  0  0  0  0  0  0  0  0  0  0  0
  151.9840  144.5658  159.6191 C   0  0  0  0  0  0  0  0  0  0  0  0
  151.9215  145.9098  160.3138 C   0  0  0  0  0  0  0  0  0  0  0  0
  151.2019  144.4263  158.5275 N   0  0  0  0  0  0  0  0  0  0  0  0
  151.2056  143.2517  157.8478 C   0  0  0  0  0  0  0  0  0  0  0  0
  150.4247  142.9868  156.6836 N   0  0  0  0  0  0  0  0  0  0  0  0
  150.0629  141.8279  156.0917 C   0  0  0  0  0  0  0  0  0  0  0  0
  150.4109  140.7430  156.5549 O   0  0  0  0  0  0  0  0  0  0  0  0
  149.3091  141.9336  154.9863 N   0  0  0  0  0  0  0  0  0  0  0  0
  148.8021  140.8171  154.1973 C   0  0  1  0  0  0  0  0  0  0  0  0
  148.3699  139.6274  155.0634 C   0  0  0  0  0  0  0  0  0  0  0  0
  146.8917  139.4786  154.6797 C   0  0  2  0  0  0  0  0  0  0  0  0
  146.7159  138.9630  153.2437 C   0  0  0  0  0  0  0  0  0  0  0  0
  147.1075  140.1892  152.4182 C   0  0  0  0  0  0  0  0  0  0  0  0
  147.4768  141.1959  153.5154 C   0  0  1  0  0  0  0  0  0  0  0  0
  146.5352  140.8392  154.5141 O   0  0  0  0  0  0  0  0  0  0  0  0
  152.0185  142.1739  158.2659 C   0  0  0  0  0  0  0  0  0  0  0  0
  153.9506  141.2672  160.9291 H   0  0  0  0  0  0  0  0  0  0  0  0
  154.6546  141.1749  159.3095 H   0  0  0  0  0  0  0  0  0  0  0  0
  153.2227  140.2175  159.7108 H   0  0  0  0  0  0  0  0  0  0  0  0
  153.4373  143.6908  160.9741 H   0  0  0  0  0  0  0  0  0  0  0  0
  152.3106  145.8440  161.3299 H   0  0  0  0  0  0  0  0  0  0  0  0
  150.8930  146.2685  160.3683 H   0  0  0  0  0  0  0  0  0  0  0  0
  152.5132  146.6438  159.7666 H   0  0  0  0  0  0  0  0  0  0  0  0
  150.0858  143.8143  156.2154 H   0  0  0  0  0  0  0  0  0  0  0  0
  149.0631  142.8622  154.6725 H   0  0  0  0  0  0  0  0  0  0  0  0
  149.5457  140.5271  153.4525 H   0  0  0  0  0  0  0  0  0  0  0  0
  148.9455  138.7247  154.8557 H   0  0  0  0  0  0  0  0  0  0  0  0
  148.4633  139.8491  156.1277 H   0  0  0  0  0  0  0  0  0  0  0  0
  146.2946  138.9442  155.4189 H   0  0  0  0  0  0  0  0  0  0  0  0
  147.3421  138.0943  153.0363 H   0  0  0  0  0  0  0  0  0  0  0  0
  145.6775  138.6902  153.0524 H   0  0  0  0  0  0  0  0  0  0  0  0
  147.9324  139.9954  151.7317 H   0  0  0  0  0  0  0  0  0  0  0  0
  146.2561  140.5464  151.8378 H   0  0  0  0  0  0  0  0  0  0  0  0
  147.4166  142.2357  153.1913 H   0  0  0  0  0  0  0  0  0  0  0  0
  152.0173  141.2428  157.7173 H   0  0  0  0  0  0  0  0  0  0  0  0
  1  2  1  0  0  0  0
  1 20  1  0  0  0  0
  1 21  1  0  0  0  0
  1 22  1  0  0  0  0
  2 19  1  0  0  0  0
  2  3  2  0  0  0  0
  3  4  1  0  0  0  0
  3 23  1  0  0  0  0
  4  5  1  0  0  0  0
  4  6  2  0  0  0  0
  5 24  1  0  0  0  0
  5 25  1  0  0  0  0
  5 26  1  0  0  0  0
  6  7  1  0  0  0  0
  7  8  1  0  0  0  0
  7 19  2  0  0  0  0
  8  9  1  0  0  0  0
  8 27  1  0  0  0  0
  9 10  2  0  0  0  0
  9 11  1  0  0  0  0
 11 12  1  0  0  0  0
 11 28  1  0  0  0  0
 12 17  1  0  0  0  0
 12 13  1  0  0  0  0
 12 29  1  0  0  0  0
 13 14  1  0  0  0  0
 13 30  1  0  0  0  0
 13 31  1  0  0  0  0
 14 18  1  0  0  0  0
 14 15  1  0  0  0  0
 14 32  1  0  0  0  0
 15 16  1  0  0  0  0
 15 33  1  0  0  0  0
 15 34  1  0  0  0  0
 16 17  1  0  0  0  0
 16 35  1  0  0  0  0
 16 36  1  0  0  0  0
 17 18  1  0  0  0  0
 17 37  1  0  0  0  0
 19 38  1  0  0  0  0
M  END
> <s_m_source_file>
AV-unprocessed.smi

> <i_m_source_file_index>
2811

> <i_lp_mmshare_version>
43012

> <i_f3d_flags>
0

> <s_epik_input>
W0NIM11jMVtjSF1jKFtDSDNdKW5jKFtjSF0xKVtOSF1DKD1PKVtOSF1bQ0BIXShbQ0gyXVtDQEBIXTIzKVtDQEBIXShPMylbQ0gyXVtDSDJdMg==

> <s_epik_cmdline>
J2VwaWtfcHl0aG9uJywgJy1waCcsICc3LjAnLCAnLXRuJywgJzgnLCAnLW1hJywgJzIwMCcsICctbWV0YWxfYmluZGluZycsICctaW1hZScsICc8aW5maWxlLm1hZT4nLCAnLW9tYWUnLCAnPG91dGZpbGUubWFlPic=

> <r_lp_tautomer_probability>
1

> <r_epik_Ionization_Penalty>
0.000281548

> <r_epik_Ionization_Penalty_Charging>
0

> <r_epik_Ionization_Penalty_Neutral>
0.000281548

> <r_epik_State_Penalty>
-0

> <r_epik_Charging_Adjusted_Penalty>
0

> <i_epik_Tot_Q>
0

> <i_epik_Tot_abs_Q>
0

> <r_epik_Metal_State_Penalty>
-0

> <b_epik_Metal_Only>
0

> <s_lp_Force_Field>
OPLS_2005

> <r_lp_Energy>
40.4481

> <b_lp_Chiralities_Consistent>
1

> <s_lp_Variant>
AV-unprocessed.smi:2811-4

> <Gold.Version>
5.8.1

> <Gold.Id.Protein>
6NUR|6NUR_protein|mol2

> <Gold.PLP.Fitness>
42.0988

> <Gold.PLP.PLP>
-38.0442

> <Gold.PLP.part.hbond>
-1.9616

> <Gold.PLP.part.metal>
0.0000

> <Gold.PLP.part.buried>
-2.9717

> <Gold.PLP.part.nonpolar>
-34.0912

> <Gold.PLP.part.repulsive>
0.5441

> <Gold.PLP.ligand.clash>
0.0211

> <Gold.PLP.ligand.torsion>
0.4194

> <Gold.PLP.Chemscore.Hbond>
1.6292

> <Gold.PLP.Chemscore.CHOScore>
0.0000

> <Gold.PLP.Chemscore.Metal>
0.0000

> <Gold.Chemscore.Hbonds>
donor molecule, donor type, donor heavy atom, donor atom, acceptor molecule, acceptor atom, score
      L1  H     8    27       P1  8028  1.00
      L1  H    11    28       P1  8028  0.58

> <Gold.PLP.Chemscore.Internal.Correction>
0.0268

> <Gold.Rescore>
     Score         DG    S(hbond)    S(metal)    S(lipo)     H(rot)  DE(clash)    DE(int)     intcor
     17.27     -21.08       1.87        0.00     101.86       1.00       0.51       3.30       ----

> <Gold.Chemscore.Fitness>
17.2663

> <Gold.Chemscore.DG>
-21.0752

> <Gold.Chemscore.ZeroCoef>
-5.4800

> <Gold.Chemscore.Hbond>
1.8675

> <Gold.Chemscore.Metal>
0.0000

> <Gold.Chemscore.Lipo>
101.8609

> <Gold.Chemscore.Internal_Hbond>
0.0000

> <Gold.Chemscore.DEClash>
0.5119

> <Gold.Chemscore.DEInternal>
3.2971

> <Gold.Chemscore.Rot>
1.0000

> <Gold.Chemscore.Internal.Correction>
   9.000000E+99

> <Gold.Chemscore.Hbonds>
donor molecule, donor type, donor heavy atom, donor atom, acceptor molecule, acceptor atom, score
      L1  H     8    27       P1  8028  0.95
      L1  H    11    28       P1  8028  0.56

> <Gold.Chemscore.Hbond.Weighted>
-6.2375

> <Gold.Chemscore.Metal.Weighted>
-0.0000

> <Gold.Chemscore.Lipo.Weighted>
-11.9177

> <Gold.Chemscore.Internal_Hbond.Weighted>
0.0000

> <Gold.Chemscore.DEClash.Weighted>
0.5119

> <Gold.Chemscore.DEInternal.Weighted>
3.2971

> <Gold.Chemscore.Rot.Weighted>
2.5600

> <Gold.Chemscore.Internal.Correction.Weighted>
   9.000000E+99

> <Gold.Protein.RotatedTorsions>
[ 6907 6896 6895 6894 ] final   34.96 input  -60.11 | X-H torsion
[ 7974 7965 7964 7962 ] final   76.84 input  175.53 | X-H torsion
[ 8008 7997 7996 7995 ] final -143.38 input   59.86 | X-H torsion
[ 10167 10162 10161 10158 ] final  169.02 input  -65.29 | X-H torsion
[ 10718 10713 10712 10709 ] final  138.80 input   66.30 | X-H torsion
[ 10763 10752 10751 10750 ] final -170.87 input  -60.55 | X-H torsion
[ 11005 11000 10999 10996 ] final  -44.82 input  -57.11 | X-H torsion

> <Gold.Protein.ActiveResidues>
 VAL166  LYS551  ARG553  GLY616  TRP617  ASP618  TYR619  PRO620  LYS621  CYS622 
 ASP623  PHE694  ASN695  SER759  ASP760  ASP761  ALA762  ILE779  LEU786  VAL792 
 PHE793  MET794  SER795  GLU796  ALA797  LYS798  CYS799  TRP800  GLU811  SER814 

> <Gold.Protein.RotatedAtoms>
  152.1096  134.9283  160.0566 H   0  0  0  0  0  0  0  0  0  0  0  0  # atno 6907 bound_to 6896
  152.0466  133.3996  159.4367 H   0  0  0  0  0  0  0  0  0  0  0  0  # atno 6908 bound_to 6896
  150.6843  134.3275  159.4856 H   0  0  0  0  0  0  0  0  0  0  0  0  # atno 6909 bound_to 6896
  145.6977  139.2572  143.1723 H   0  0  0  0  0  0  0  0  0  0  0  0  # atno 7974 bound_to 7965
  155.5096  140.0582  157.2925 H   0  0  0  0  0  0  0  0  0  0  0  0  # atno 8008 bound_to 7997
  154.4556  140.1971  156.0337 H   0  0  0  0  0  0  0  0  0  0  0  0  # atno 8009 bound_to 7997
  156.0793  140.3249  155.7677 H   0  0  0  0  0  0  0  0  0  0  0  0  # atno 8010 bound_to 7997
  139.4982  144.3751  151.9682 H   0  0  0  0  0  0  0  0  0  0  0  0  # atno 10167 bound_to 10162
  157.4213  131.1039  151.0350 H   0  0  0  0  0  0  0  0  0  0  0  0  # atno 10718 bound_to 10713
  154.6368  135.2893  155.0151 H   0  0  0  0  0  0  0  0  0  0  0  0  # atno 10763 bound_to 10752
  154.1292  135.6536  153.4922 H   0  0  0  0  0  0  0  0  0  0  0  0  # atno 10764 bound_to 10752
  153.0306  135.5306  154.7218 H   0  0  0  0  0  0  0  0  0  0  0  0  # atno 10765 bound_to 10752
  141.0475  133.6755  156.2926 H   0  0  0  0  0  0  0  0  0  0  0  0  # atno 11005 bound_to 11000
  146.0826  140.7747  142.9634 LP  0  0  0  0  0  0  0  0  0  0  0  0  # atno 17320 bound_to 7965
  144.6978  140.3512  143.7181 LP  0  0  0  0  0  0  0  0  0  0  0  0  # atno 17321 bound_to 7965
  140.3187  144.3453  150.6015 LP  0  0  0  0  0  0  0  0  0  0  0  0  # atno 17342 bound_to 10162
  140.5740  143.2178  151.7549 LP  0  0  0  0  0  0  0  0  0  0  0  0  # atno 17343 bound_to 10162
  157.1279  130.6090  149.5522 LP  0  0  0  0  0  0  0  0  0  0  0  0  # atno 17370 bound_to 10713
  155.9881  130.4924  150.7158 LP  0  0  0  0  0  0  0  0  0  0  0  0  # atno 17371 bound_to 10713
  140.6118  134.5451  157.5534 LP  0  0  0  0  0  0  0  0  0  0  0  0  # atno 17394 bound_to 11000
  139.9324  134.7939  156.0895 LP  0  0  0  0  0  0  0  0  0  0  0  0  # atno 17395 bound_to 11000

$$$$
