AV-unprocessed.smi:13|AV-procd|sdf|69|dock8
  -GOLD-   2262015193D 1   1.00000     0.00000
 Structure written by MMmdl.
 54 58  0  0  0  0  0  0  0  0  1 V2000
  145.8518  135.0571  159.0100 C   0  0  0  0  0  0  0  0  0  0  0  0
  147.3807  135.0302  158.8822 C   0  0  0  0  0  0  0  0  0  0  0  0
  147.7835  133.5623  158.7465 C   0  0  0  0  0  0  0  0  0  0  0  0
  147.9771  135.9850  157.8364 C   0  0  0  0  0  0  0  0  0  0  0  0
  148.1976  136.9253  158.9230 N   0  0  0  0  0  0  0  0  0  0  0  0
  149.4033  137.6717  158.8428 C   0  0  0  0  0  0  0  0  0  0  0  0
  150.5483  136.9996  159.1216 N   0  0  0  0  0  0  0  0  0  0  0  0
  151.7372  137.6056  159.0650 C   0  0  0  0  0  0  0  0  0  0  0  0
  152.0124  138.8716  158.7528 N   0  0  0  0  0  0  0  0  0  0  0  0
  150.8731  139.5638  158.4710 C   0  0  0  0  0  0  0  0  0  0  0  0
  149.5450  139.0484  158.4912 C   0  0  0  0  0  0  0  0  0  0  0  0
  148.6500  140.0549  158.1440 N   0  0  0  0  0  0  0  0  0  0  0  0
  149.4027  141.0989  157.9317 C   0  0  0  0  0  0  0  0  0  0  0  0
  150.7511  140.8948  158.1125 N   0  0  0  0  0  0  0  0  0  0  0  0
  151.8101  141.8792  157.9512 C   0  0  0  0  0  0  0  0  0  0  0  0
  151.7596  143.0076  159.0069 C   0  0  1  0  0  0  0  0  0  0  0  0
  151.9116  142.4363  160.2951 O   0  0  0  0  0  0  0  0  0  0  0  0
  152.8266  144.0826  158.8251 C   0  0  0  0  0  0  0  0  0  0  0  0
  152.1453  145.3292  159.3710 C   0  0  0  0  0  0  0  0  0  0  0  0
  150.8151  145.1871  158.9017 O   0  0  0  0  0  0  0  0  0  0  0  0
  150.4456  143.8135  158.9825 C   0  0  0  0  0  0  0  0  0  0  0  0
  148.1935  135.8498  159.9070 C   0  0  1  0  0  0  0  0  0  0  0  0
  147.5932  136.3085  161.2362 C   0  0  2  0  0  0  0  0  0  0  0  0
  146.9373  135.1882  162.0432 C   0  0  0  0  0  0  0  0  0  0  0  0
  145.9152  135.9187  162.8984 C   0  0  0  0  0  0  0  0  0  0  0  0
  145.7586  137.2774  162.2092 C   0  0  0  0  0  0  0  0  0  0  0  0
  146.4920  137.1697  160.9969 O   0  0  0  0  0  0  0  0  0  0  0  0
  145.3706  134.5992  158.1454 H   0  0  0  0  0  0  0  0  0  0  0  0
  145.4703  136.0761  159.0837 H   0  0  0  0  0  0  0  0  0  0  0  0
  145.5144  134.5198  159.8970 H   0  0  0  0  0  0  0  0  0  0  0  0
  148.8624  133.4533  158.6315 H   0  0  0  0  0  0  0  0  0  0  0  0
  147.3186  133.0971  157.8767 H   0  0  0  0  0  0  0  0  0  0  0  0
  147.4935  132.9864  159.6259 H   0  0  0  0  0  0  0  0  0  0  0  0
  148.8908  135.6096  157.3747 H   0  0  0  0  0  0  0  0  0  0  0  0
  147.2629  136.3400  157.0929 H   0  0  0  0  0  0  0  0  0  0  0  0
  152.5895  136.9869  159.3050 H   0  0  0  0  0  0  0  0  0  0  0  0
  148.9919  142.0550  157.6419 H   0  0  0  0  0  0  0  0  0  0  0  0
  152.7685  141.3608  158.0027 H   0  0  0  0  0  0  0  0  0  0  0  0
  151.7431  142.2959  156.9453 H   0  0  0  0  0  0  0  0  0  0  0  0
  151.2226  142.7662  160.8515 H   0  0  0  0  0  0  0  0  0  0  0  0
  153.7728  143.8545  159.3182 H   0  0  0  0  0  0  0  0  0  0  0  0
  153.0325  144.2345  157.7650 H   0  0  0  0  0  0  0  0  0  0  0  0
  152.1539  145.3367  160.4620 H   0  0  0  0  0  0  0  0  0  0  0  0
  152.6027  146.2517  159.0133 H   0  0  0  0  0  0  0  0  0  0  0  0
  149.8261  143.5666  158.1197 H   0  0  0  0  0  0  0  0  0  0  0  0
  149.8411  143.6448  159.8752 H   0  0  0  0  0  0  0  0  0  0  0  0
  149.1809  135.4051  160.0328 H   0  0  0  0  0  0  0  0  0  0  0  0
  148.3254  136.8364  161.8504 H   0  0  0  0  0  0  0  0  0  0  0  0
  146.4253  134.4930  161.3763 H   0  0  0  0  0  0  0  0  0  0  0  0
  147.6551  134.6178  162.6333 H   0  0  0  0  0  0  0  0  0  0  0  0
  144.9737  135.3701  162.9378 H   0  0  0  0  0  0  0  0  0  0  0  0
  146.2731  136.0475  163.9204 H   0  0  0  0  0  0  0  0  0  0  0  0
  144.7164  137.5297  162.0128 H   0  0  0  0  0  0  0  0  0  0  0  0
  146.1914  138.0697  162.8217 H   0  0  0  0  0  0  0  0  0  0  0  0
  1  2  1  0  0  0  0
  1 28  1  0  0  0  0
  1 29  1  0  0  0  0
  1 30  1  0  0  0  0
  2 22  1  0  0  0  0
  2  3  1  0  0  0  0
  2  4  1  0  0  0  0
  3 31  1  0  0  0  0
  3 32  1  0  0  0  0
  3 33  1  0  0  0  0
  4  5  1  0  0  0  0
  4 34  1  0  0  0  0
  4 35  1  0  0  0  0
  5  6  1  0  0  0  0
  5 22  1  0  0  0  0
  6 11  1  0  0  0  0
  6  7  2  0  0  0  0
  7  8  1  0  0  0  0
  8  9  2  0  0  0  0
  8 36  1  0  0  0  0
  9 10  1  0  0  0  0
 10 14  1  0  0  0  0
 10 11  2  0  0  0  0
 11 12  1  0  0  0  0
 12 13  2  0  0  0  0
 13 14  1  0  0  0  0
 13 37  1  0  0  0  0
 14 15  1  0  0  0  0
 15 16  1  0  0  0  0
 15 38  1  0  0  0  0
 15 39  1  0  0  0  0
 16 21  1  0  0  0  0
 16 17  1  0  0  0  0
 16 18  1  0  0  0  0
 17 40  1  0  0  0  0
 18 19  1  0  0  0  0
 18 41  1  0  0  0  0
 18 42  1  0  0  0  0
 19 20  1  0  0  0  0
 19 43  1  0  0  0  0
 19 44  1  0  0  0  0
 20 21  1  0  0  0  0
 21 45  1  0  0  0  0
 21 46  1  0  0  0  0
 22 23  1  0  0  0  0
 22 47  1  0  0  0  0
 23 27  1  0  0  0  0
 23 24  1  0  0  0  0
 23 48  1  0  0  0  0
 24 25  1  0  0  0  0
 24 49  1  0  0  0  0
 24 50  1  0  0  0  0
 25 26  1  0  0  0  0
 25 51  1  0  0  0  0
 25 52  1  0  0  0  0
 26 27  1  0  0  0  0
 26 53  1  0  0  0  0
 26 54  1  0  0  0  0
M  END
> <s_m_source_file>
AV-unprocessed.smi

> <i_m_source_file_index>
13

> <i_lp_mmshare_version>
43012

> <i_f3d_flags>
0

> <s_epik_input>
TzFbQ0gyXVtDSDJdW0NIMl1bQ0BIXTFbQ0BASF0yTihbQ0gyXUMyKFtDSDNdKVtDSDNdKWMobltjSF1uMyljKGMzNCluW2NIXW40W0NIMl1bQ0BAXTUoW09IXSlbQ0gyXVtDSDJdT1tDSDJdNQ==

> <s_epik_cmdline>
J2VwaWtfcHl0aG9uJywgJy1waCcsICc3LjAnLCAnLXRuJywgJzgnLCAnLW1hJywgJzIwMCcsICctbWV0YWxfYmluZGluZycsICctaW1hZScsICc8aW5maWxlLm1hZT4nLCAnLW9tYWUnLCAnPG91dGZpbGUubWFlPic=

> <r_lp_tautomer_probability>
1

> <r_epik_Ionization_Penalty>
0.00202764

> <r_epik_Ionization_Penalty_Charging>
0

> <r_epik_Ionization_Penalty_Neutral>
0.00202764

> <r_epik_State_Penalty>
0.00134017

> <r_epik_Charging_Adjusted_Penalty>
0.00134017

> <i_epik_Tot_Q>
0

> <i_epik_Tot_abs_Q>
0

> <r_epik_Metal_State_Penalty>
-0

> <b_epik_Metal_Only>
0

> <s_lp_Force_Field>
OPLS_2005

> <r_lp_Energy>
60.4132

> <b_lp_Chiralities_Consistent>
1

> <s_lp_Variant>
AV-unprocessed.smi:13-1

> <Gold.Version>
5.8.1

> <Gold.Id.Protein>
6NUR|6NUR_protein|mol2

> <Gold.PLP.Fitness>
45.4123

> <Gold.PLP.PLP>
-41.6234

> <Gold.PLP.part.hbond>
-2.7524

> <Gold.PLP.part.metal>
0.0000

> <Gold.PLP.part.buried>
-8.4861

> <Gold.PLP.part.nonpolar>
-31.7931

> <Gold.PLP.part.repulsive>
0.1792

> <Gold.PLP.ligand.clash>
0.0000

> <Gold.PLP.ligand.torsion>
0.8819

> <Gold.PLP.Chemscore.Hbond>
1.7000

> <Gold.PLP.Chemscore.CHOScore>
0.0000

> <Gold.PLP.Chemscore.Metal>
0.0000

> <Gold.Chemscore.Hbonds>
donor molecule, donor type, donor heavy atom, donor atom, acceptor molecule, acceptor atom, score
      P1  H  6896  6909       L1     7  0.51
      P1  H  6934  6947       L1    27  0.85

> <Gold.PLP.Chemscore.Internal.Correction>
0.4527

> <Gold.Rescore>
     Score         DG    S(hbond)    S(metal)    S(lipo)     H(rot)  DE(clash)    DE(int)     intcor
     12.87     -15.11       0.92        0.00     106.37       2.30       0.17       2.08       ----

> <Gold.Chemscore.Fitness>
12.8657

> <Gold.Chemscore.DG>
-15.1116

> <Gold.Chemscore.ZeroCoef>
-5.4800

> <Gold.Chemscore.Hbond>
0.9200

> <Gold.Chemscore.Metal>
0.0000

> <Gold.Chemscore.Lipo>
106.3738

> <Gold.Chemscore.Internal_Hbond>
0.0000

> <Gold.Chemscore.DEClash>
0.1672

> <Gold.Chemscore.DEInternal>
2.0788

> <Gold.Chemscore.Rot>
2.2996

> <Gold.Chemscore.Internal.Correction>
   9.000000E+99

> <Gold.Chemscore.Hbonds>
donor molecule, donor type, donor heavy atom, donor atom, acceptor molecule, acceptor atom, score
      P1  H  6896  6909       L1     7  0.06
      P1  H  6934  6947       L1    27  0.09

> <Gold.Chemscore.Hbond.Weighted>
-3.0728

> <Gold.Chemscore.Metal.Weighted>
-0.0000

> <Gold.Chemscore.Lipo.Weighted>
-12.4457

> <Gold.Chemscore.Internal_Hbond.Weighted>
0.0000

> <Gold.Chemscore.DEClash.Weighted>
0.1672

> <Gold.Chemscore.DEInternal.Weighted>
2.0788

> <Gold.Chemscore.Rot.Weighted>
5.8869

> <Gold.Chemscore.Internal.Correction.Weighted>
   9.000000E+99

> <Gold.Protein.RotatedTorsions>
[ 6907 6896 6895 6894 ] final  105.43 input  -60.11 | X-H torsion
[ 7974 7965 7964 7962 ] final -160.50 input  175.53 | X-H torsion
[ 8008 7997 7996 7995 ] final  133.02 input   59.86 | X-H torsion
[ 10167 10162 10161 10158 ] final -117.27 input  -65.29 | X-H torsion
[ 10718 10713 10712 10709 ] final -127.59 input   66.30 | X-H torsion
[ 10763 10752 10751 10750 ] final  167.06 input  -60.55 | X-H torsion
[ 11005 11000 10999 10996 ] final   67.43 input  -57.11 | X-H torsion

> <Gold.Protein.ActiveResidues>
 VAL166  LYS551  ARG553  GLY616  TRP617  ASP618  TYR619  PRO620  LYS621  CYS622 
 ASP623  PHE694  ASN695  SER759  ASP760  ASP761  ALA762  ILE779  LEU786  VAL792 
 PHE793  MET794  SER795  GLU796  ALA797  LYS798  CYS799  TRP800  GLU811  SER814 

> <Gold.Protein.RotatedAtoms>
  152.5230  133.9530  159.7680 H   0  0  0  0  0  0  0  0  0  0  0  0  # atno 6907 bound_to 6896
  150.9836  133.6212  159.2726 H   0  0  0  0  0  0  0  0  0  0  0  0  # atno 6908 bound_to 6896
  151.3381  135.0863  159.9414 H   0  0  0  0  0  0  0  0  0  0  0  0  # atno 6909 bound_to 6896
  144.7425  140.3533  143.6111 H   0  0  0  0  0  0  0  0  0  0  0  0  # atno 7974 bound_to 7965
  156.2988  140.2532  156.3185 H   0  0  0  0  0  0  0  0  0  0  0  0  # atno 8008 bound_to 7997
  154.9258  140.0399  157.2041 H   0  0  0  0  0  0  0  0  0  0  0  0  # atno 8009 bound_to 7997
  154.8266  140.2869  155.5754 H   0  0  0  0  0  0  0  0  0  0  0  0  # atno 8010 bound_to 7997
  140.0702  143.4884  152.1984 H   0  0  0  0  0  0  0  0  0  0  0  0  # atno 10167 bound_to 10162
  156.1871  130.6771  151.0378 H   0  0  0  0  0  0  0  0  0  0  0  0  # atno 10718 bound_to 10713
  154.3482  135.2753  155.2386 H   0  0  0  0  0  0  0  0  0  0  0  0  # atno 10763 bound_to 10752
  154.4627  135.5903  153.6270 H   0  0  0  0  0  0  0  0  0  0  0  0  # atno 10764 bound_to 10752
  152.9852  135.6069  154.3690 H   0  0  0  0  0  0  0  0  0  0  0  0  # atno 10765 bound_to 10752
  139.9771  134.6804  156.0332 H   0  0  0  0  0  0  0  0  0  0  0  0  # atno 11005 bound_to 11000
  145.7253  139.1721  143.2461 LP  0  0  0  0  0  0  0  0  0  0  0  0  # atno 17320 bound_to 7965
  146.1246  140.7264  142.9441 LP  0  0  0  0  0  0  0  0  0  0  0  0  # atno 17321 bound_to 7965
  139.5841  144.7523  151.3566 LP  0  0  0  0  0  0  0  0  0  0  0  0  # atno 17342 bound_to 10162
  140.7129  143.7342  150.7601 LP  0  0  0  0  0  0  0  0  0  0  0  0  # atno 17343 bound_to 10162
  157.6906  131.0811  150.7119 LP  0  0  0  0  0  0  0  0  0  0  0  0  # atno 17370 bound_to 10713
  156.7176  130.4670  149.5531 LP  0  0  0  0  0  0  0  0  0  0  0  0  # atno 17371 bound_to 10713
  141.1447  133.6558  156.3833 LP  0  0  0  0  0  0  0  0  0  0  0  0  # atno 17394 bound_to 11000
  140.5171  134.6339  157.5305 LP  0  0  0  0  0  0  0  0  0  0  0  0  # atno 17395 bound_to 11000

$$$$
