AV-unprocessed.smi:2413|AV-procd|sdf|9534|dock5
  -GOLD-   2272013163D 1   1.00000     0.00000
 Structure written by MMmdl.
 45 46  0  0  0  0  0  0  0  0  1 V2000
  146.4966  138.7579  152.1287 C   0  0  0  0  0  0  0  0  0  0  0  0
  147.1555  139.9026  152.8924 C   0  0  0  0  0  0  0  0  0  0  0  0
  146.6795  141.0352  152.8255 O   0  0  0  0  0  0  0  0  0  0  0  0
  148.2473  139.5965  153.6102 N   0  0  0  0  0  0  0  0  0  0  0  0
  149.0329  140.5424  154.3967 C   0  0  0  0  0  0  0  0  0  0  0  0
  150.0882  139.8269  155.2568 C   0  0  2  0  0  0  0  0  0  0  0  0
  150.6134  140.7329  156.3882 C   0  0  0  0  0  0  0  0  0  0  0  0
  151.6607  140.0462  157.1338 N   0  0  0  0  0  0  0  0  0  0  0  0
  152.1195  140.7471  158.2564 C   0  0  0  0  0  0  0  0  0  0  0  0
  152.9051  140.1365  159.2591 C   0  0  0  0  0  0  0  0  0  0  0  0
  153.2962  140.9598  160.3318 C   0  0  0  0  0  0  0  0  0  0  0  0
  152.9355  142.2587  160.3989 N   0  0  0  0  0  0  0  0  0  0  0  0
  152.1558  142.7376  159.4200 C   0  0  0  0  0  0  0  0  0  0  0  0
  151.8739  144.2500  159.4209 C   0  0  0  0  0  0  0  0  0  0  0  0
  150.3571  144.5331  159.3100 C   0  0  0  0  0  0  0  0  0  0  0  0
  152.6089  144.9081  158.2388 C   0  0  0  0  0  0  0  0  0  0  0  0
  152.3351  144.9014  160.7459 C   0  0  0  0  0  0  0  0  0  0  0  0
  151.7640  142.0467  158.3408 N   0  0  0  0  0  0  0  0  0  0  0  0
  152.7441  139.5790  156.2803 C   0  0  0  0  0  0  0  0  0  0  0  0
  152.1791  138.7166  155.1401 C   0  0  0  0  0  0  0  0  0  0  0  0
  151.1909  139.4566  154.4299 O   0  0  0  0  0  0  0  0  0  0  0  0
  147.0007  137.8082  152.3124 H   0  0  0  0  0  0  0  0  0  0  0  0
  146.5240  138.9570  151.0572 H   0  0  0  0  0  0  0  0  0  0  0  0
  145.4544  138.6543  152.4311 H   0  0  0  0  0  0  0  0  0  0  0  0
  148.5636  138.6377  153.6029 H   0  0  0  0  0  0  0  0  0  0  0  0
  149.5006  141.2927  153.7569 H   0  0  0  0  0  0  0  0  0  0  0  0
  148.3398  141.0805  155.0437 H   0  0  0  0  0  0  0  0  0  0  0  0
  149.6423  138.9288  155.6893 H   0  0  0  0  0  0  0  0  0  0  0  0
  151.0023  141.6613  155.9681 H   0  0  0  0  0  0  0  0  0  0  0  0
  149.7999  140.9996  157.0642 H   0  0  0  0  0  0  0  0  0  0  0  0
  153.1954  139.0974  159.2131 H   0  0  0  0  0  0  0  0  0  0  0  0
  153.9048  140.5762  161.1374 H   0  0  0  0  0  0  0  0  0  0  0  0
  150.1477  145.6022  159.3616 H   0  0  0  0  0  0  0  0  0  0  0  0
  149.8030  144.0514  160.1167 H   0  0  0  0  0  0  0  0  0  0  0  0
  149.9428  144.1775  158.3658 H   0  0  0  0  0  0  0  0  0  0  0  0
  152.2807  144.4898  157.2866 H   0  0  0  0  0  0  0  0  0  0  0  0
  153.6867  144.7570  158.3096 H   0  0  0  0  0  0  0  0  0  0  0  0
  152.4285  145.9830  158.2059 H   0  0  0  0  0  0  0  0  0  0  0  0
  152.0936  145.9647  160.7706 H   0  0  0  0  0  0  0  0  0  0  0  0
  153.4135  144.8216  160.8871 H   0  0  0  0  0  0  0  0  0  0  0  0
  151.8531  144.4360  161.6064 H   0  0  0  0  0  0  0  0  0  0  0  0
  153.2817  140.4339  155.8676 H   0  0  0  0  0  0  0  0  0  0  0  0
  153.4575  139.0010  156.8691 H   0  0  0  0  0  0  0  0  0  0  0  0
  152.9754  138.4341  154.4514 H   0  0  0  0  0  0  0  0  0  0  0  0
  151.7487  137.7914  155.5271 H   0  0  0  0  0  0  0  0  0  0  0  0
  1  2  1  0  0  0  0
  1 22  1  0  0  0  0
  1 23  1  0  0  0  0
  1 24  1  0  0  0  0
  2  3  2  0  0  0  0
  2  4  1  0  0  0  0
  4  5  1  0  0  0  0
  4 25  1  0  0  0  0
  5  6  1  0  0  0  0
  5 26  1  0  0  0  0
  5 27  1  0  0  0  0
  6 21  1  0  0  0  0
  6  7  1  0  0  0  0
  6 28  1  0  0  0  0
  7  8  1  0  0  0  0
  7 29  1  0  0  0  0
  7 30  1  0  0  0  0
  8  9  1  0  0  0  0
  8 19  1  0  0  0  0
  9 18  1  0  0  0  0
  9 10  2  0  0  0  0
 10 11  1  0  0  0  0
 10 31  1  0  0  0  0
 11 12  2  0  0  0  0
 11 32  1  0  0  0  0
 12 13  1  0  0  0  0
 13 14  1  0  0  0  0
 13 18  2  0  0  0  0
 14 15  1  0  0  0  0
 14 16  1  0  0  0  0
 14 17  1  0  0  0  0
 15 33  1  0  0  0  0
 15 34  1  0  0  0  0
 15 35  1  0  0  0  0
 16 36  1  0  0  0  0
 16 37  1  0  0  0  0
 16 38  1  0  0  0  0
 17 39  1  0  0  0  0
 17 40  1  0  0  0  0
 17 41  1  0  0  0  0
 19 20  1  0  0  0  0
 19 42  1  0  0  0  0
 19 43  1  0  0  0  0
 20 21  1  0  0  0  0
 20 44  1  0  0  0  0
 20 45  1  0  0  0  0
M  END
> <s_m_source_file>
AV-unprocessed.smi

> <i_m_source_file_index>
2413

> <i_lp_mmshare_version>
43012

> <i_f3d_flags>
0

> <s_epik_input>
W0NIM11DKD1PKVtOSF1bQ0gyXVtDQEBIXTFbQ0gyXU4oW0NIMl1bQ0gyXU8xKWMyW2NIXVtjSF1uYyhuMilDKFtDSDNdKShbQ0gzXSlbQ0gzXQ==

> <s_epik_cmdline>
J2VwaWtfcHl0aG9uJywgJy1waCcsICc3LjAnLCAnLXRuJywgJzgnLCAnLW1hJywgJzIwMCcsICctbWV0YWxfYmluZGluZycsICctaW1hZScsICc8aW5maWxlLm1hZT4nLCAnLW9tYWUnLCAnPG91dGZpbGUubWFlPic=

> <r_lp_tautomer_probability>
1

> <r_epik_Ionization_Penalty>
0.0132021

> <r_epik_Ionization_Penalty_Charging>
0

> <r_epik_Ionization_Penalty_Neutral>
0.0132021

> <r_epik_State_Penalty>
0.0102452

> <r_epik_Charging_Adjusted_Penalty>
0.0102452

> <i_epik_Tot_Q>
0

> <i_epik_Tot_abs_Q>
0

> <r_epik_Metal_State_Penalty>
0.0100219

> <b_epik_Metal_Only>
0

> <s_lp_Force_Field>
OPLS_2005

> <r_lp_Energy>
13.0347

> <b_lp_Chiralities_Consistent>
1

> <s_lp_Variant>
AV-unprocessed.smi:2413-1

> <Gold.Version>
5.8.1

> <Gold.Id.Protein>
6NUR|6NUR_protein|mol2

> <Gold.PLP.Fitness>
43.0321

> <Gold.PLP.PLP>
-40.8161

> <Gold.PLP.part.hbond>
-2.0000

> <Gold.PLP.part.metal>
0.0000

> <Gold.PLP.part.buried>
-0.6955

> <Gold.PLP.part.nonpolar>
-38.4715

> <Gold.PLP.part.repulsive>
1.1428

> <Gold.PLP.ligand.clash>
0.0000

> <Gold.PLP.ligand.torsion>
0.5163

> <Gold.PLP.Chemscore.Hbond>
1.0000

> <Gold.PLP.Chemscore.CHOScore>
0.0000

> <Gold.PLP.Chemscore.Metal>
0.0000

> <Gold.Chemscore.Hbonds>
donor molecule, donor type, donor heavy atom, donor atom, acceptor molecule, acceptor atom, score
      P1  H  7989  7998       L1    21  1.00

> <Gold.PLP.Chemscore.Internal.Correction>
0.2486

> <Gold.Rescore>
     Score         DG    S(hbond)    S(metal)    S(lipo)     H(rot)  DE(clash)    DE(int)     intcor
     12.68     -15.00       0.64        0.00     100.94       1.73       1.86       0.46       ----

> <Gold.Chemscore.Fitness>
12.6767

> <Gold.Chemscore.DG>
-15.0003

> <Gold.Chemscore.ZeroCoef>
-5.4800

> <Gold.Chemscore.Hbond>
0.6430

> <Gold.Chemscore.Metal>
0.0000

> <Gold.Chemscore.Lipo>
100.9378

> <Gold.Chemscore.Internal_Hbond>
0.0000

> <Gold.Chemscore.DEClash>
1.8609

> <Gold.Chemscore.DEInternal>
0.4627

> <Gold.Chemscore.Rot>
1.7332

> <Gold.Chemscore.Internal.Correction>
   9.000000E+99

> <Gold.Chemscore.Hbonds>
donor molecule, donor type, donor heavy atom, donor atom, acceptor molecule, acceptor atom, score
      P1  H  7989  7998       L1    21  0.64

> <Gold.Chemscore.Hbond.Weighted>
-2.1476

> <Gold.Chemscore.Metal.Weighted>
-0.0000

> <Gold.Chemscore.Lipo.Weighted>
-11.8097

> <Gold.Chemscore.Internal_Hbond.Weighted>
0.0000

> <Gold.Chemscore.DEClash.Weighted>
1.8609

> <Gold.Chemscore.DEInternal.Weighted>
0.4627

> <Gold.Chemscore.Rot.Weighted>
4.4370

> <Gold.Chemscore.Internal.Correction.Weighted>
   9.000000E+99

> <Gold.Protein.RotatedTorsions>
[ 6907 6896 6895 6894 ] final   95.22 input  -60.11 | X-H torsion
[ 7974 7965 7964 7962 ] final  171.75 input  175.53 | X-H torsion
[ 8008 7997 7996 7995 ] final   -9.43 input   59.86 | X-H torsion
[ 10167 10162 10161 10158 ] final  161.29 input  -65.29 | X-H torsion
[ 10718 10713 10712 10709 ] final -109.54 input   66.30 | X-H torsion
[ 10763 10752 10751 10750 ] final  -31.42 input  -60.55 | X-H torsion
[ 11005 11000 10999 10996 ] final   69.30 input  -57.11 | X-H torsion

> <Gold.Protein.ActiveResidues>
 VAL166  LYS551  ARG553  GLY616  TRP617  ASP618  TYR619  PRO620  LYS621  CYS622 
 ASP623  PHE694  ASN695  SER759  ASP760  ASP761  ALA762  ILE779  LEU786  VAL792 
 PHE793  MET794  SER795  GLU796  ALA797  LYS798  CYS799  TRP800  GLU811  SER814 

> <Gold.Protein.RotatedAtoms>
  152.5445  134.1073  159.8343 H   0  0  0  0  0  0  0  0  0  0  0  0  # atno 6907 bound_to 6896
  151.1144  133.5142  159.2612 H   0  0  0  0  0  0  0  0  0  0  0  0  # atno 6908 bound_to 6896
  151.1848  135.0386  159.8862 H   0  0  0  0  0  0  0  0  0  0  0  0  # atno 6909 bound_to 6896
  144.7286  139.9397  143.6428 H   0  0  0  0  0  0  0  0  0  0  0  0  # atno 7974 bound_to 7965
  154.5647  140.2355  155.8281 H   0  0  0  0  0  0  0  0  0  0  0  0  # atno 8008 bound_to 7997
  156.2059  140.3040  155.9584 H   0  0  0  0  0  0  0  0  0  0  0  0  # atno 8009 bound_to 7997
  155.2822  140.0423  157.3007 H   0  0  0  0  0  0  0  0  0  0  0  0  # atno 8010 bound_to 7997
  139.4848  144.4550  151.8779 H   0  0  0  0  0  0  0  0  0  0  0  0  # atno 10167 bound_to 10162
  156.0542  130.5769  150.8114 H   0  0  0  0  0  0  0  0  0  0  0  0  # atno 10718 bound_to 10713
  153.7971  135.6893  153.4862 H   0  0  0  0  0  0  0  0  0  0  0  0  # atno 10763 bound_to 10752
  153.1712  135.4542  154.9904 H   0  0  0  0  0  0  0  0  0  0  0  0  # atno 10764 bound_to 10752
  154.8021  135.3342  154.7462 H   0  0  0  0  0  0  0  0  0  0  0  0  # atno 10765 bound_to 10752
  139.9661  134.6978  156.0542 H   0  0  0  0  0  0  0  0  0  0  0  0  # atno 11005 bound_to 11000
  146.0794  139.3782  143.0473 LP  0  0  0  0  0  0  0  0  0  0  0  0  # atno 17320 bound_to 7965
  145.7861  140.9835  143.1074 LP  0  0  0  0  0  0  0  0  0  0  0  0  # atno 17321 bound_to 7965
  140.4009  144.2494  150.5893 LP  0  0  0  0  0  0  0  0  0  0  0  0  # atno 17342 bound_to 10162
  140.5057  143.2305  151.8611 LP  0  0  0  0  0  0  0  0  0  0  0  0  # atno 17343 bound_to 10162
  157.5498  131.0943  150.9712 LP  0  0  0  0  0  0  0  0  0  0  0  0  # atno 17370 bound_to 10713
  156.9975  130.5587  149.5308 LP  0  0  0  0  0  0  0  0  0  0  0  0  # atno 17371 bound_to 10713
  141.1341  133.6579  156.3544 LP  0  0  0  0  0  0  0  0  0  0  0  0  # atno 17394 bound_to 11000
  140.5393  134.6136  157.5375 LP  0  0  0  0  0  0  0  0  0  0  0  0  # atno 17395 bound_to 11000

$$$$
