AV-unprocessed.smi:102|AV-procd|sdf|961|dock6
  -GOLD-   2262017503D 1   1.00000     0.00000
 Structure written by MMmdl.
 43 44  0  0  0  0  0  0  0  0  2 V2000
  151.0975  144.4580  160.7408 C   0  0  0  0  0  0  0  0  0  0  0  0
  152.0379  143.6404  159.8658 C   0  0  0  0  0  0  0  0  0  0  0  0
  152.1700  143.8815  158.6660 O   0  0  0  0  0  0  0  0  0  0  0  0
  152.6665  142.6719  160.5559 O   0  0  0  0  0  0  0  0  0  0  0  0
  153.9430  142.2030  160.1423 C   0  0  0  0  0  0  0  0  0  0  0  0
  153.8727  140.7228  159.7379 C   0  0  2  0  0  0  0  0  0  0  0  0
  152.5214  140.3199  159.5425 O   0  0  0  0  0  0  0  0  0  0  0  0
  152.4075  138.9349  159.7002 C   0  0  1  0  0  0  0  0  0  0  0  0
  152.1530  138.2916  158.3497 N   0  0  0  0  0  0  0  0  0  0  0  0
  152.6856  138.8178  157.1838 C   0  0  0  0  0  0  0  0  0  0  0  0
  152.4641  138.2328  155.9891 C   0  0  0  0  0  0  0  0  0  0  0  0
  152.9950  138.7656  154.8751 F   0  0  0  0  0  0  0  0  0  0  0  0
  151.6483  137.0222  155.9161 C   0  0  0  0  0  0  0  0  0  0  0  0
  151.4504  136.4935  154.8233 O   0  0  0  0  0  0  0  0  0  0  0  0
  151.1367  136.5263  157.0798 N   0  5  0  0  0  0  0  0  0  0  0  0
  151.3604  137.1132  158.2919 C   0  0  0  0  0  0  0  0  0  0  0  0
  150.9155  136.6677  159.3498 O   0  0  0  0  0  0  0  0  0  0  0  0
  153.7151  138.4455  160.3667 C   0  0  1  0  0  0  0  0  0  0  0  0
  154.5619  137.7969  159.4153 O   0  0  0  0  0  0  0  0  0  0  0  0
  154.5285  136.4625  159.2582 C   0  0  0  0  0  0  0  0  0  0  0  0
  155.2282  136.0133  157.9827 C   0  0  0  0  0  0  0  0  0  0  0  0
  154.0120  135.6516  160.0268 O   0  0  0  0  0  0  0  0  0  0  0  0
  154.3221  139.7644  160.8351 C   0  0  1  0  0  0  0  0  0  0  0  0
  155.7387  139.7235  160.9669 O   0  0  0  0  0  0  0  0  0  0  0  0
  156.5212  139.8268  159.8788 C   0  0  0  0  0  0  0  0  0  0  0  0
  157.9180  140.3314  160.2151 C   0  0  0  0  0  0  0  0  0  0  0  0
  156.1925  139.5670  158.7215 O   0  0  0  0  0  0  0  0  0  0  0  0
  150.3181  143.8205  161.1580 H   0  0  0  0  0  0  0  0  0  0  0  0
  150.6237  145.2483  160.1583 H   0  0  0  0  0  0  0  0  0  0  0  0
  151.6480  144.9172  161.5621 H   0  0  0  0  0  0  0  0  0  0  0  0
  154.2315  142.7962  159.2744 H   0  0  0  0  0  0  0  0  0  0  0  0
  154.7070  142.3733  160.9023 H   0  0  0  0  0  0  0  0  0  0  0  0
  154.4504  140.5416  158.8295 H   0  0  0  0  0  0  0  0  0  0  0  0
  151.5141  138.7371  160.2949 H   0  0  0  0  0  0  0  0  0  0  0  0
  153.2926  139.7096  157.2126 H   0  0  0  0  0  0  0  0  0  0  0  0
  153.4663  137.7926  161.2045 H   0  0  0  0  0  0  0  0  0  0  0  0
  156.0345  136.6998  157.7235 H   0  0  0  0  0  0  0  0  0  0  0  0
  154.5177  135.9862  157.1563 H   0  0  0  0  0  0  0  0  0  0  0  0
  155.6508  135.0166  158.1106 H   0  0  0  0  0  0  0  0  0  0  0  0
  153.8525  140.0693  161.7720 H   0  0  0  0  0  0  0  0  0  0  0  0
  158.3556  139.7351  161.0160 H   0  0  0  0  0  0  0  0  0  0  0  0
  157.8741  141.3712  160.5394 H   0  0  0  0  0  0  0  0  0  0  0  0
  158.5685  140.2684  159.3425 H   0  0  0  0  0  0  0  0  0  0  0  0
  1  2  1  0  0  0  0
  1 28  1  0  0  0  0
  1 29  1  0  0  0  0
  1 30  1  0  0  0  0
  2  3  2  0  0  0  0
  2  4  1  0  0  0  0
  4  5  1  0  0  0  0
  5  6  1  0  0  0  0
  5 31  1  0  0  0  0
  5 32  1  0  0  0  0
  6 23  1  0  0  0  0
  6  7  1  0  0  0  0
  6 33  1  0  0  0  0
  7  8  1  0  0  0  0
  8  9  1  0  0  0  0
  8 18  1  0  0  0  0
  8 34  1  0  0  0  0
  9 16  1  0  0  0  0
  9 10  1  0  0  0  0
 10 11  2  0  0  0  0
 10 35  1  0  0  0  0
 11 12  1  0  0  0  0
 11 13  1  0  0  0  0
 13 14  2  0  0  0  0
 13 15  1  0  0  0  0
 15 16  1  0  0  0  0
 16 17  2  0  0  0  0
 18 19  1  0  0  0  0
 18 23  1  0  0  0  0
 18 36  1  0  0  0  0
 19 20  1  0  0  0  0
 20 21  1  0  0  0  0
 20 22  2  0  0  0  0
 21 37  1  0  0  0  0
 21 38  1  0  0  0  0
 21 39  1  0  0  0  0
 23 24  1  0  0  0  0
 23 40  1  0  0  0  0
 24 25  1  0  0  0  0
 25 26  1  0  0  0  0
 25 27  2  0  0  0  0
 26 41  1  0  0  0  0
 26 42  1  0  0  0  0
 26 43  1  0  0  0  0
M  CHG  1  15  -1
M  END
> <s_m_source_file>
AV-unprocessed.smi

> <i_m_source_file_index>
102

> <i_lp_mmshare_version>
43012

> <i_f3d_flags>
0

> <s_epik_input>
W0NIM11DKD1PKU9bQ0gyXVtDQEBIXTFPW0NASF0oW0NAQEhdKE9DKD1PKVtDSDNdKVtDQEhdMU9DKD1PKVtDSDNdKW4yW2NIXWMoRiljKD1PKVtuSF1jMj1P

> <s_epik_cmdline>
J2VwaWtfcHl0aG9uJywgJy1waCcsICc3LjAnLCAnLXRuJywgJzgnLCAnLW1hJywgJzIwMCcsICctbWV0YWxfYmluZGluZycsICctaW1hZScsICc8aW5maWxlLm1hZT4nLCAnLW9tYWUnLCAnPG91dGZpbGUubWFlPic=

> <r_epik_Ionization_Penalty>
1.40304

> <r_epik_Ionization_Penalty_Charging>
1.43915e-08

> <r_epik_Ionization_Penalty_Neutral>
1.40304

> <r_epik_State_Penalty>
1.48536

> <r_epik_Charging_Adjusted_Penalty>
1.48536

> <i_epik_Tot_Q>
-1

> <i_epik_Tot_abs_Q>
1

> <r_epik_Metal_State_Penalty>
0.00663881

> <b_epik_Metal_Only>
0

> <s_epik_Chemistry_Notes>
This compound has an ester and may undergo hydrolysis at high or low pH. This compound contains an acetal/aminal-like group ( X-CH(R)-Y where X, Y are N, S, or O) that may be acid/base labile, releasing an aldehyde.

> <s_lp_Force_Field>
OPLS_2005

> <r_lp_Energy>
23.8996

> <b_lp_Chiralities_Consistent>
1

> <s_lp_Variant>
AV-unprocessed.smi:102-17

> <Gold.Version>
5.8.1

> <Gold.Id.Protein>
6NUR|6NUR_protein|mol2

> <Gold.PLP.Fitness>
42.4224

> <Gold.PLP.PLP>
-37.7389

> <Gold.PLP.part.hbond>
-3.8770

> <Gold.PLP.part.metal>
0.0000

> <Gold.PLP.part.buried>
-6.8347

> <Gold.PLP.part.nonpolar>
-26.8234

> <Gold.PLP.part.repulsive>
0.2328

> <Gold.PLP.ligand.clash>
0.0000

> <Gold.PLP.ligand.torsion>
3.1618

> <Gold.PLP.Chemscore.Hbond>
3.4137

> <Gold.PLP.Chemscore.CHOScore>
0.0000

> <Gold.PLP.Chemscore.Metal>
0.0000

> <Gold.Chemscore.Hbonds>
donor molecule, donor type, donor heavy atom, donor atom, acceptor molecule, acceptor atom, score
      P1  H  6896  6908       L1    17  0.50
      P1  H  6896  6909       L1    22  1.00
      P1  H  7997  8010       L1    27  1.00
      P1  H 10752 10764       L1    14  1.00

> <Gold.PLP.Chemscore.Internal.Correction>
0.7662

> <Gold.Rescore>
     Score         DG    S(hbond)    S(metal)    S(lipo)     H(rot)  DE(clash)    DE(int)     intcor
      5.86     -12.97       3.11        0.00      62.63       4.00       0.20       6.91       ----

> <Gold.Chemscore.Fitness>
5.8560

> <Gold.Chemscore.DG>
-12.9708

> <Gold.Chemscore.ZeroCoef>
-5.4800

> <Gold.Chemscore.Hbond>
3.1110

> <Gold.Chemscore.Metal>
0.0000

> <Gold.Chemscore.Lipo>
62.6265

> <Gold.Chemscore.Internal_Hbond>
0.0000

> <Gold.Chemscore.DEClash>
0.2046

> <Gold.Chemscore.DEInternal>
6.9101

> <Gold.Chemscore.Rot>
3.9951

> <Gold.Chemscore.Internal.Correction>
   9.000000E+99

> <Gold.Chemscore.Hbonds>
donor molecule, donor type, donor heavy atom, donor atom, acceptor molecule, acceptor atom, score
      P1  H  6896  6908       L1    17  0.48
      P1  H  6896  6909       L1    22  1.00
      P1  H  7997  8010       L1    27  0.98
      P1  H 10752 10764       L1    14  0.35

> <Gold.Chemscore.Hbond.Weighted>
-10.3909

> <Gold.Chemscore.Metal.Weighted>
-0.0000

> <Gold.Chemscore.Lipo.Weighted>
-7.3273

> <Gold.Chemscore.Internal_Hbond.Weighted>
0.0000

> <Gold.Chemscore.DEClash.Weighted>
0.2046

> <Gold.Chemscore.DEInternal.Weighted>
6.9101

> <Gold.Chemscore.Rot.Weighted>
10.2274

> <Gold.Chemscore.Internal.Correction.Weighted>
   9.000000E+99

> <Gold.Protein.RotatedTorsions>
[ 6907 6896 6895 6894 ] final  179.17 input  -60.11 | X-H torsion
[ 7974 7965 7964 7962 ] final   50.93 input  175.53 | X-H torsion
[ 8008 7997 7996 7995 ] final  -18.22 input   59.86 | X-H torsion
[ 10167 10162 10161 10158 ] final -135.61 input  -65.29 | X-H torsion
[ 10718 10713 10712 10709 ] final -140.20 input   66.30 | X-H torsion
[ 10763 10752 10751 10750 ] final  -59.51 input  -60.55 | X-H torsion
[ 11005 11000 10999 10996 ] final   74.33 input  -57.11 | X-H torsion

> <Gold.Protein.ActiveResidues>
 VAL166  LYS551  ARG553  GLY616  TRP617  ASP618  TYR619  PRO620  LYS621  CYS622 
 ASP623  PHE694  ASN695  SER759  ASP760  ASP761  ALA762  ILE779  LEU786  VAL792 
 PHE793  MET794  SER795  GLU796  ALA797  LYS798  CYS799  TRP800  GLU811  SER814 

> <Gold.Protein.RotatedAtoms>
  151.6760  133.3313  159.3207 H   0  0  0  0  0  0  0  0  0  0  0  0  # atno 6907 bound_to 6896
  150.7845  134.6821  159.6459 H   0  0  0  0  0  0  0  0  0  0  0  0  # atno 6908 bound_to 6896
  152.3911  134.6443  160.0159 H   0  0  0  0  0  0  0  0  0  0  0  0  # atno 6909 bound_to 6896
  145.9964  139.4392  143.0042 H   0  0  0  0  0  0  0  0  0  0  0  0  # atno 7974 bound_to 7965
  154.4922  140.2121  155.9524 H   0  0  0  0  0  0  0  0  0  0  0  0  # atno 8008 bound_to 7997
  156.1321  140.3195  155.8332 H   0  0  0  0  0  0  0  0  0  0  0  0  # atno 8009 bound_to 7997
  155.4278  140.0501  157.3011 H   0  0  0  0  0  0  0  0  0  0  0  0  # atno 8010 bound_to 7997
  139.8762  143.6896  152.2633 H   0  0  0  0  0  0  0  0  0  0  0  0  # atno 10167 bound_to 10162
  156.3196  130.7527  151.1621 H   0  0  0  0  0  0  0  0  0  0  0  0  # atno 10718 bound_to 10713
  154.2548  135.6319  153.5253 H   0  0  0  0  0  0  0  0  0  0  0  0  # atno 10763 bound_to 10752
  152.9906  135.5573  154.5768 H   0  0  0  0  0  0  0  0  0  0  0  0  # atno 10764 bound_to 10752
  154.5304  135.2888  155.1160 H   0  0  0  0  0  0  0  0  0  0  0  0  # atno 10765 bound_to 10752
  139.9396  134.7424  156.1135 H   0  0  0  0  0  0  0  0  0  0  0  0  # atno 11005 bound_to 11000
  145.7554  140.9956  143.1228 LP  0  0  0  0  0  0  0  0  0  0  0  0  # atno 17320 bound_to 7965
  144.6905  139.9265  143.7470 LP  0  0  0  0  0  0  0  0  0  0  0  0  # atno 17321 bound_to 7965
  139.7238  144.7597  151.0912 LP  0  0  0  0  0  0  0  0  0  0  0  0  # atno 17342 bound_to 10162
  140.7752  143.5174  150.9578 LP  0  0  0  0  0  0  0  0  0  0  0  0  # atno 17343 bound_to 10162
  157.7409  131.0511  150.5135 LP  0  0  0  0  0  0  0  0  0  0  0  0  # atno 17370 bound_to 10713
  156.5286  130.4179  149.6213 LP  0  0  0  0  0  0  0  0  0  0  0  0  # atno 17371 bound_to 10713
  141.1025  133.6672  156.2787 LP  0  0  0  0  0  0  0  0  0  0  0  0  # atno 17394 bound_to 11000
  140.5986  134.5578  157.5513 LP  0  0  0  0  0  0  0  0  0  0  0  0  # atno 17395 bound_to 11000

$$$$
