AV-unprocessed.smi:3199|AV-procd|sdf|12234|dock2
  -GOLD-   2272018 63D 1   1.00000     0.00000
 Structure written by MMmdl.
 36 37  0  0  0  0  0  0  0  0  2 V2000
  153.0258  143.3028  163.4368 C   0  0  0  0  0  0  0  0  0  0  0  0
  152.5847  143.4228  161.9932 C   0  0  0  0  0  0  0  0  0  0  0  0
  152.9558  142.4807  161.0099 C   0  0  0  0  0  0  0  0  0  0  0  0
  152.5132  142.6596  159.6828 C   0  0  0  0  0  0  0  0  0  0  0  0
  151.7108  143.7771  159.3646 C   0  0  0  0  0  0  0  0  0  0  0  0
  151.2277  144.0013  157.9449 C   0  0  0  0  0  0  0  0  0  0  0  0
  151.5562  142.8201  157.0225 C   0  0  0  0  0  0  0  0  0  0  0  0
  150.3591  142.3729  156.3250 N   0  0  0  0  0  0  0  0  0  0  0  0
  150.2841  141.2635  155.5765 C   0  0  0  0  0  0  0  0  0  0  0  0
  151.2373  140.5032  155.4043 O   0  0  0  0  0  0  0  0  0  0  0  0
  148.9175  140.9698  154.9451 C   0  0  1  0  0  0  0  0  0  0  0  0
  147.7358  140.9445  155.9348 C   0  0  0  0  0  0  0  0  0  0  0  0
  146.9124  142.1569  155.5441 C   0  0  0  0  0  0  0  0  0  0  0  0
  147.2360  142.2942  154.0632 C   0  0  0  0  0  0  0  0  0  0  0  0
  148.6253  142.0123  154.0170 O   0  0  0  0  0  0  0  0  0  0  0  0
  151.3680  144.6844  160.3900 C   0  0  0  0  0  0  0  0  0  0  0  0
  151.8115  144.4773  161.6494 N   0  3  0  0  0  0  0  0  0  0  0  0
  153.5727  142.3743  163.6044 H   0  0  0  0  0  0  0  0  0  0  0  0
  152.1623  143.3135  164.1024 H   0  0  0  0  0  0  0  0  0  0  0  0
  153.6783  144.1346  163.7039 H   0  0  0  0  0  0  0  0  0  0  0  0
  153.5728  141.6313  161.2656 H   0  0  0  0  0  0  0  0  0  0  0  0
  152.7894  141.9470  158.9190 H   0  0  0  0  0  0  0  0  0  0  0  0
  150.1505  144.1737  157.9620 H   0  0  0  0  0  0  0  0  0  0  0  0
  151.6789  144.9158  157.5567 H   0  0  0  0  0  0  0  0  0  0  0  0
  152.3109  143.1107  156.2898 H   0  0  0  0  0  0  0  0  0  0  0  0
  151.9698  141.9942  157.6040 H   0  0  0  0  0  0  0  0  0  0  0  0
  149.5280  142.9380  156.4223 H   0  0  0  0  0  0  0  0  0  0  0  0
  148.9572  140.0210  154.4069 H   0  0  0  0  0  0  0  0  0  0  0  0
  147.1524  140.0356  155.7830 H   0  0  0  0  0  0  0  0  0  0  0  0
  148.0240  140.9697  156.9863 H   0  0  0  0  0  0  0  0  0  0  0  0
  145.8470  142.0330  155.7400 H   0  0  0  0  0  0  0  0  0  0  0  0
  147.2616  143.0375  156.0848 H   0  0  0  0  0  0  0  0  0  0  0  0
  146.6916  141.5556  153.4726 H   0  0  0  0  0  0  0  0  0  0  0  0
  147.0123  143.2865  153.6709 H   0  0  0  0  0  0  0  0  0  0  0  0
  150.7589  145.5645  160.2424 H   0  0  0  0  0  0  0  0  0  0  0  0
  151.5525  145.1482  162.3734 H   0  0  0  0  0  0  0  0  0  0  0  0
  1  2  1  0  0  0  0
  1 18  1  0  0  0  0
  1 19  1  0  0  0  0
  1 20  1  0  0  0  0
  2 17  1  0  0  0  0
  2  3  2  0  0  0  0
  3  4  1  0  0  0  0
  3 21  1  0  0  0  0
  4  5  2  0  0  0  0
  4 22  1  0  0  0  0
  5  6  1  0  0  0  0
  5 16  1  0  0  0  0
  6  7  1  0  0  0  0
  6 23  1  0  0  0  0
  6 24  1  0  0  0  0
  7  8  1  0  0  0  0
  7 25  1  0  0  0  0
  7 26  1  0  0  0  0
  8  9  1  0  0  0  0
  8 27  1  0  0  0  0
  9 10  2  0  0  0  0
  9 11  1  0  0  0  0
 11 15  1  0  0  0  0
 11 12  1  0  0  0  0
 11 28  1  0  0  0  0
 12 13  1  0  0  0  0
 12 29  1  0  0  0  0
 12 30  1  0  0  0  0
 13 14  1  0  0  0  0
 13 31  1  0  0  0  0
 13 32  1  0  0  0  0
 14 15  1  0  0  0  0
 14 33  1  0  0  0  0
 14 34  1  0  0  0  0
 16 17  2  0  0  0  0
 16 35  1  0  0  0  0
 17 36  1  0  0  0  0
M  CHG  1  17   1
M  END
> <s_m_source_file>
AV-unprocessed.smi

> <i_m_source_file_index>
3199

> <i_lp_mmshare_version>
43012

> <i_f3d_flags>
0

> <s_epik_input>
W0NIM11jMVtjSF1bY0hdYyhbY0hdbjEpW0NIMl1bQ0gyXVtOSF1DKD1PKVtDQEBIXTJbQ0gyXVtDSDJdW0NIMl1PMg==

> <s_epik_cmdline>
J2VwaWtfcHl0aG9uJywgJy1waCcsICc3LjAnLCAnLXRuJywgJzgnLCAnLW1hJywgJzIwMCcsICctbWV0YWxfYmluZGluZycsICctaW1hZScsICc8aW5maWxlLm1hZT4nLCAnLW9tYWUnLCAnPG91dGZpbGUubWFlPic=

> <r_epik_Ionization_Penalty>
1.4683

> <r_epik_Ionization_Penalty_Charging>
1.4683

> <r_epik_Ionization_Penalty_Neutral>
5.71603e-08

> <r_epik_State_Penalty>
1.5559

> <r_epik_Charging_Adjusted_Penalty>
3.0242

> <i_epik_Tot_Q>
1

> <i_epik_Tot_abs_Q>
1

> <r_epik_Metal_State_Penalty>
1.60421

> <b_epik_Metal_Only>
0

> <s_lp_Force_Field>
OPLS_2005

> <r_lp_Energy>
24.4706

> <b_lp_Chiralities_Consistent>
1

> <s_lp_Variant>
AV-unprocessed.smi:3199-4

> <Gold.Version>
5.8.1

> <Gold.Id.Protein>
6NUR|6NUR_protein|mol2

> <Gold.PLP.Fitness>
48.3493

> <Gold.PLP.PLP>
-43.4391

> <Gold.PLP.part.hbond>
-4.0000

> <Gold.PLP.part.metal>
0.0000

> <Gold.PLP.part.buried>
-5.9664

> <Gold.PLP.part.nonpolar>
-33.7565

> <Gold.PLP.part.repulsive>
0.3673

> <Gold.PLP.ligand.clash>
0.0000

> <Gold.PLP.ligand.torsion>
0.5031

> <Gold.PLP.Chemscore.Hbond>
1.9692

> <Gold.PLP.Chemscore.CHOScore>
0.0000

> <Gold.PLP.Chemscore.Metal>
0.0000

> <Gold.Chemscore.Hbonds>
donor molecule, donor type, donor heavy atom, donor atom, acceptor molecule, acceptor atom, score
      L1  H     8    27       P1  8028  0.69
      P1  H  7989  7998       L1    10  0.90
      P1  H  8011  8017       L1    15  0.35

> <Gold.PLP.Chemscore.Internal.Correction>
0.0089

> <Gold.Rescore>
     Score         DG    S(hbond)    S(metal)    S(lipo)     H(rot)  DE(clash)    DE(int)     intcor
     18.02     -18.96       1.45        0.00     107.90       1.56       0.36       0.58       ----

> <Gold.Chemscore.Fitness>
18.0189

> <Gold.Chemscore.DG>
-18.9598

> <Gold.Chemscore.ZeroCoef>
-5.4800

> <Gold.Chemscore.Hbond>
1.4528

> <Gold.Chemscore.Metal>
0.0000

> <Gold.Chemscore.Lipo>
107.9008

> <Gold.Chemscore.Internal_Hbond>
0.0000

> <Gold.Chemscore.DEClash>
0.3600

> <Gold.Chemscore.DEInternal>
0.5808

> <Gold.Chemscore.Rot>
1.5613

> <Gold.Chemscore.Internal.Correction>
   9.000000E+99

> <Gold.Chemscore.Hbonds>
donor molecule, donor type, donor heavy atom, donor atom, acceptor molecule, acceptor atom, score
      L1  H     8    27       P1  8028  0.64
      P1  H  7989  7998       L1    10  0.22
      P1  H  8011  8017       L1    15  0.34

> <Gold.Chemscore.Hbond.Weighted>
-4.8523

> <Gold.Chemscore.Metal.Weighted>
-0.0000

> <Gold.Chemscore.Lipo.Weighted>
-12.6244

> <Gold.Chemscore.Internal_Hbond.Weighted>
0.0000

> <Gold.Chemscore.DEClash.Weighted>
0.3600

> <Gold.Chemscore.DEInternal.Weighted>
0.5808

> <Gold.Chemscore.Rot.Weighted>
3.9969

> <Gold.Chemscore.Internal.Correction.Weighted>
   9.000000E+99

> <Gold.Protein.RotatedTorsions>
[ 6907 6896 6895 6894 ] final   17.14 input  -60.11 | X-H torsion
[ 7974 7965 7964 7962 ] final   11.73 input  175.53 | X-H torsion
[ 8008 7997 7996 7995 ] final   10.51 input   59.86 | X-H torsion
[ 10167 10162 10161 10158 ] final  113.23 input  -65.29 | X-H torsion
[ 10718 10713 10712 10709 ] final   15.76 input   66.30 | X-H torsion
[ 10763 10752 10751 10750 ] final  -86.71 input  -60.55 | X-H torsion
[ 11005 11000 10999 10996 ] final -142.88 input  -57.11 | X-H torsion

> <Gold.Protein.ActiveResidues>
 VAL166  LYS551  ARG553  GLY616  TRP617  ASP618  TYR619  PRO620  LYS621  CYS622 
 ASP623  PHE694  ASN695  SER759  ASP760  ASP761  ALA762  ILE779  LEU786  VAL792 
 PHE793  MET794  SER795  GLU796  ALA797  LYS798  CYS799  TRP800  GLU811  SER814 

> <Gold.Protein.RotatedAtoms>
  151.8449  135.0577  160.0452 H   0  0  0  0  0  0  0  0  0  0  0  0  # atno 6907 bound_to 6896
  152.2781  133.5440  159.5489 H   0  0  0  0  0  0  0  0  0  0  0  0  # atno 6908 bound_to 6896
  150.7178  134.0519  159.3843 H   0  0  0  0  0  0  0  0  0  0  0  0  # atno 6909 bound_to 6896
  146.2365  139.9442  142.8479 H   0  0  0  0  0  0  0  0  0  0  0  0  # atno 7974 bound_to 7965
  154.7944  140.2841  155.5968 H   0  0  0  0  0  0  0  0  0  0  0  0  # atno 8008 bound_to 7997
  156.2969  140.2598  156.2727 H   0  0  0  0  0  0  0  0  0  0  0  0  # atno 8009 bound_to 7997
  154.9632  140.0377  157.2189 H   0  0  0  0  0  0  0  0  0  0  0  0  # atno 8010 bound_to 7997
  139.6476  144.7127  151.2111 H   0  0  0  0  0  0  0  0  0  0  0  0  # atno 10167 bound_to 10162
  157.0582  130.6298  149.5781 H   0  0  0  0  0  0  0  0  0  0  0  0  # atno 10718 bound_to 10713
  154.6255  135.5439  153.7622 H   0  0  0  0  0  0  0  0  0  0  0  0  # atno 10763 bound_to 10752
  153.0259  135.6423  154.1378 H   0  0  0  0  0  0  0  0  0  0  0  0  # atno 10764 bound_to 10752
  154.1310  135.2914  155.3165 H   0  0  0  0  0  0  0  0  0  0  0  0  # atno 10765 bound_to 10752
  140.8181  134.2664  157.4912 H   0  0  0  0  0  0  0  0  0  0  0  0  # atno 11005 bound_to 11000
  145.1923  140.9817  143.4203 LP  0  0  0  0  0  0  0  0  0  0  0  0  # atno 17320 bound_to 7965
  144.9846  139.3749  143.6245 LP  0  0  0  0  0  0  0  0  0  0  0  0  # atno 17321 bound_to 7965
  140.7522  143.6204  150.8519 LP  0  0  0  0  0  0  0  0  0  0  0  0  # atno 17342 bound_to 10162
  139.9849  143.5911  152.2930 LP  0  0  0  0  0  0  0  0  0  0  0  0  # atno 17343 bound_to 10162
  155.9987  130.5061  150.7579 LP  0  0  0  0  0  0  0  0  0  0  0  0  # atno 17370 bound_to 10713
  157.4976  131.0916  151.0353 LP  0  0  0  0  0  0  0  0  0  0  0  0  # atno 17371 bound_to 10713
  139.8710  134.9520  156.4102 LP  0  0  0  0  0  0  0  0  0  0  0  0  # atno 17394 bound_to 11000
  140.9128  133.7700  155.9812 LP  0  0  0  0  0  0  0  0  0  0  0  0  # atno 17395 bound_to 11000

$$$$
