AV-unprocessed.smi:513|AV-procd|sdf|2774|dock9
  -GOLD-   2262023243D 1   1.00000     0.00000
 Structure written by MMmdl.
 42 44  0  0  0  0  0  0  0  0  3 V2000
  154.5533  138.6355  154.4141 C   0  0  0  0  0  0  0  0  0  0  0  0
  153.5047  138.8557  155.3408 O   0  0  0  0  0  0  0  0  0  0  0  0
  152.2727  139.1483  154.7044 C   0  0  0  0  0  0  0  0  0  0  0  0
  151.1289  138.8757  155.6878 C   0  0  0  0  0  0  0  0  0  0  0  0
  150.7204  140.0955  156.3809 N   0  0  0  0  0  0  0  0  0  0  0  0
  149.6829  140.9262  156.0857 C   0  0  0  0  0  0  0  0  0  0  0  0
  148.8108  140.6880  155.0213 N   0  0  0  0  0  0  0  0  0  0  0  0
  148.3579  139.3538  154.6361 C   0  0  0  0  0  0  0  0  0  0  0  0
  146.8283  139.3093  154.4652 C   0  0  0  0  0  0  0  0  0  0  0  0
  146.3823  140.3234  153.4870 N   0  3  0  0  0  0  0  0  0  0  0  0
  146.8906  141.6755  153.7978 C   0  0  0  0  0  0  0  0  0  0  0  0
  148.4185  141.6443  153.9869 C   0  0  0  0  0  0  0  0  0  0  0  0
  149.6040  142.0127  156.8554 N   0  0  0  0  0  0  0  0  0  0  0  0
  150.6680  141.8544  157.7297 C   0  0  0  0  0  0  0  0  0  0  0  0
  151.3649  140.7191  157.4552 C   0  0  0  0  0  0  0  0  0  0  0  0
  152.5879  140.3112  158.1829 C   0  0  0  0  0  0  0  0  0  0  0  0
  153.2049  139.2955  157.8697 O   0  0  0  0  0  0  0  0  0  0  0  0
  152.9109  141.1886  159.1850 N   0  5  0  0  0  0  0  0  0  0  0  0
  152.2278  142.3425  159.5035 C   0  0  0  0  0  0  0  0  0  0  0  0
  152.5905  143.0810  160.4201 O   0  0  0  0  0  0  0  0  0  0  0  0
  151.1129  142.6925  158.7880 N   0  0  0  0  0  0  0  0  0  0  0  0
  150.3725  143.9191  159.0972 C   0  0  0  0  0  0  0  0  0  0  0  0
  155.4771  138.4191  154.9505 H   0  0  0  0  0  0  0  0  0  0  0  0
  154.7227  139.5163  153.7936 H   0  0  0  0  0  0  0  0  0  0  0  0
  154.3338  137.7865  153.7653 H   0  0  0  0  0  0  0  0  0  0  0  0
  152.2507  140.1901  154.3809 H   0  0  0  0  0  0  0  0  0  0  0  0
  152.1604  138.5237  153.8166 H   0  0  0  0  0  0  0  0  0  0  0  0
  150.2854  138.4442  155.1602 H   0  0  0  0  0  0  0  0  0  0  0  0
  151.4132  138.1148  156.4120 H   0  0  0  0  0  0  0  0  0  0  0  0
  148.8538  139.0591  153.7103 H   0  0  0  0  0  0  0  0  0  0  0  0
  148.6606  138.6306  155.3944 H   0  0  0  0  0  0  0  0  0  0  0  0
  146.5086  138.3218  154.1320 H   0  0  0  0  0  0  0  0  0  0  0  0
  146.3393  139.4991  155.4218 H   0  0  0  0  0  0  0  0  0  0  0  0
  146.7322  140.0576  152.5776 H   0  0  0  0  0  0  0  0  0  0  0  0
  146.6187  142.3564  152.9913 H   0  0  0  0  0  0  0  0  0  0  0  0
  146.4003  142.0380  154.7021 H   0  0  0  0  0  0  0  0  0  0  0  0
  148.8037  142.6374  154.2157 H   0  0  0  0  0  0  0  0  0  0  0  0
  148.8974  141.3559  153.0501 H   0  0  0  0  0  0  0  0  0  0  0  0
  150.0470  143.9196  160.1384 H   0  0  0  0  0  0  0  0  0  0  0  0
  149.4826  144.0406  158.4805 H   0  0  0  0  0  0  0  0  0  0  0  0
  151.0041  144.7938  158.9369 H   0  0  0  0  0  0  0  0  0  0  0  0
  145.3729  140.3416  153.4571 H   0  0  0  0  0  0  0  0  0  0  0  0
  1  2  1  0  0  0  0
  1 23  1  0  0  0  0
  1 24  1  0  0  0  0
  1 25  1  0  0  0  0
  2  3  1  0  0  0  0
  3  4  1  0  0  0  0
  3 26  1  0  0  0  0
  3 27  1  0  0  0  0
  4  5  1  0  0  0  0
  4 28  1  0  0  0  0
  4 29  1  0  0  0  0
  5 15  1  0  0  0  0
  5  6  1  0  0  0  0
  6  7  1  0  0  0  0
  6 13  2  0  0  0  0
  7 12  1  0  0  0  0
  7  8  1  0  0  0  0
  8  9  1  0  0  0  0
  8 30  1  0  0  0  0
  8 31  1  0  0  0  0
  9 10  1  0  0  0  0
  9 32  1  0  0  0  0
  9 33  1  0  0  0  0
 10 11  1  0  0  0  0
 10 34  1  0  0  0  0
 10 42  1  0  0  0  0
 11 12  1  0  0  0  0
 11 35  1  0  0  0  0
 11 36  1  0  0  0  0
 12 37  1  0  0  0  0
 12 38  1  0  0  0  0
 13 14  1  0  0  0  0
 14 21  1  0  0  0  0
 14 15  2  0  0  0  0
 15 16  1  0  0  0  0
 16 17  2  0  0  0  0
 16 18  1  0  0  0  0
 18 19  1  0  0  0  0
 19 20  2  0  0  0  0
 19 21  1  0  0  0  0
 21 22  1  0  0  0  0
 22 39  1  0  0  0  0
 22 40  1  0  0  0  0
 22 41  1  0  0  0  0
M  CHG  1  10   1
M  CHG  1  18  -1
M  END
> <s_m_source_file>
AV-unprocessed.smi

> <i_m_source_file_index>
513

> <i_lp_mmshare_version>
43012

> <i_f3d_flags>
0

> <s_epik_input>
W0NIM11uMWMoPU8pW25IXWMoPU8pYyhjMTIpbihbQ0gyXVtDSDJdT1tDSDNdKWMobjIpTjNbQ0gyXVtDSDJdW05IXVtDSDJdW0NIMl0z

> <s_epik_cmdline>
J2VwaWtfcHl0aG9uJywgJy1waCcsICc3LjAnLCAnLXRuJywgJzgnLCAnLW1hJywgJzIwMCcsICctbWV0YWxfYmluZGluZycsICctaW1hZScsICc8aW5maWxlLm1hZT4nLCAnLW9tYWUnLCAnPG91dGZpbGUubWFlPic=

> <r_epik_Ionization_Penalty>
5.91573

> <r_epik_Ionization_Penalty_Charging>
0.0691516

> <r_epik_Ionization_Penalty_Neutral>
5.84657

> <r_epik_State_Penalty>
5.85298

> <r_epik_Charging_Adjusted_Penalty>
5.92213

> <i_epik_Tot_Q>
0

> <i_epik_Tot_abs_Q>
2

> <r_epik_Metal_State_Penalty>
1.81849

> <b_epik_Metal_Only>
1

> <s_lp_Force_Field>
OPLS_2005

> <r_lp_Energy>
49.8146

> <b_lp_Chiralities_Consistent>
1

> <s_lp_Variant>
AV-unprocessed.smi:513-3

> <Gold.Version>
5.8.1

> <Gold.Id.Protein>
6NUR|6NUR_protein|mol2

> <Gold.PLP.Fitness>
40.2157

> <Gold.PLP.PLP>
-33.2723

> <Gold.PLP.part.hbond>
-3.0000

> <Gold.PLP.part.metal>
0.0000

> <Gold.PLP.part.buried>
-1.2444

> <Gold.PLP.part.nonpolar>
-28.9774

> <Gold.PLP.part.repulsive>
0.6909

> <Gold.PLP.ligand.clash>
0.0000

> <Gold.PLP.ligand.torsion>
1.2934

> <Gold.PLP.Chemscore.Hbond>
3.0000

> <Gold.PLP.Chemscore.CHOScore>
0.0000

> <Gold.PLP.Chemscore.Metal>
0.0000

> <Gold.Chemscore.Hbonds>
donor molecule, donor type, donor heavy atom, donor atom, acceptor molecule, acceptor atom, score
      L1  H    10    42       P1 10175  2.00
      P1  H  7997  8009       L1    17  1.00

> <Gold.PLP.Chemscore.Internal.Correction>
0.5302

> <Gold.Rescore>
     Score         DG    S(hbond)    S(metal)    S(lipo)     H(rot)  DE(clash)    DE(int)     intcor
      7.56     -14.21       1.69        0.00      60.43       1.55       2.63       4.02       ----

> <Gold.Chemscore.Fitness>
7.5590

> <Gold.Chemscore.DG>
-14.2107

> <Gold.Chemscore.ZeroCoef>
-5.4800

> <Gold.Chemscore.Hbond>
1.6871

> <Gold.Chemscore.Metal>
0.0000

> <Gold.Chemscore.Lipo>
60.4315

> <Gold.Chemscore.Internal_Hbond>
0.0000

> <Gold.Chemscore.DEClash>
2.6338

> <Gold.Chemscore.DEInternal>
4.0179

> <Gold.Chemscore.Rot>
1.5526

> <Gold.Chemscore.Internal.Correction>
   9.000000E+99

> <Gold.Chemscore.Hbonds>
donor molecule, donor type, donor heavy atom, donor atom, acceptor molecule, acceptor atom, score
      L1  H    10    42       P1 10175  0.94
      P1  H  7997  8009       L1    17  0.26

> <Gold.Chemscore.Hbond.Weighted>
-5.6348

> <Gold.Chemscore.Metal.Weighted>
-0.0000

> <Gold.Chemscore.Lipo.Weighted>
-7.0705

> <Gold.Chemscore.Internal_Hbond.Weighted>
0.0000

> <Gold.Chemscore.DEClash.Weighted>
2.6338

> <Gold.Chemscore.DEInternal.Weighted>
4.0179

> <Gold.Chemscore.Rot.Weighted>
3.9745

> <Gold.Chemscore.Internal.Correction.Weighted>
   9.000000E+99

> <Gold.Protein.RotatedTorsions>
[ 6907 6896 6895 6894 ] final  163.58 input  -60.11 | X-H torsion
[ 7974 7965 7964 7962 ] final  -79.82 input  175.53 | X-H torsion
[ 8008 7997 7996 7995 ] final  156.69 input   59.86 | X-H torsion
[ 10167 10162 10161 10158 ] final  -79.02 input  -65.29 | X-H torsion
[ 10718 10713 10712 10709 ] final   43.29 input   66.30 | X-H torsion
[ 10763 10752 10751 10750 ] final -103.85 input  -60.55 | X-H torsion
[ 11005 11000 10999 10996 ] final -128.62 input  -57.11 | X-H torsion

> <Gold.Protein.ActiveResidues>
 VAL166  LYS551  ARG553  GLY616  TRP617  ASP618  TYR619  PRO620  LYS621  CYS622 
 ASP623  PHE694  ASN695  SER759  ASP760  ASP761  ALA762  ILE779  LEU786  VAL792 
 PHE793  MET794  SER795  GLU796  ALA797  LYS798  CYS799  TRP800  GLU811  SER814 

> <Gold.Protein.RotatedAtoms>
  151.9230  133.3590  159.3903 H   0  0  0  0  0  0  0  0  0  0  0  0  # atno 6907 bound_to 6896
  150.7033  134.4615  159.5392 H   0  0  0  0  0  0  0  0  0  0  0  0  # atno 6908 bound_to 6896
  152.2242  134.8384  160.0533 H   0  0  0  0  0  0  0  0  0  0  0  0  # atno 6909 bound_to 6896
  145.5681  140.9470  143.1410 H   0  0  0  0  0  0  0  0  0  0  0  0  # atno 7974 bound_to 7965
  156.2408  140.1905  156.6994 H   0  0  0  0  0  0  0  0  0  0  0  0  # atno 8008 bound_to 7997
  154.6193  140.0611  156.9621 H   0  0  0  0  0  0  0  0  0  0  0  0  # atno 8009 bound_to 7997
  155.1888  140.3282  155.4365 H   0  0  0  0  0  0  0  0  0  0  0  0  # atno 8010 bound_to 7997
  140.4631  143.2448  151.8319 H   0  0  0  0  0  0  0  0  0  0  0  0  # atno 10167 bound_to 10162
  157.4142  130.7932  149.7458 H   0  0  0  0  0  0  0  0  0  0  0  0  # atno 10718 bound_to 10713
  154.7836  135.4808  153.9898 H   0  0  0  0  0  0  0  0  0  0  0  0  # atno 10763 bound_to 10752
  153.1529  135.6794  153.8863 H   0  0  0  0  0  0  0  0  0  0  0  0  # atno 10764 bound_to 10752
  153.8501  135.3168  155.3410 H   0  0  0  0  0  0  0  0  0  0  0  0  # atno 10765 bound_to 10752
  140.9500  134.1078  157.4070 H   0  0  0  0  0  0  0  0  0  0  0  0  # atno 11005 bound_to 11000
  144.7450  139.7343  143.7295 LP  0  0  0  0  0  0  0  0  0  0  0  0  # atno 17320 bound_to 7965
  146.1803  139.4993  142.9870 LP  0  0  0  0  0  0  0  0  0  0  0  0  # atno 17321 bound_to 7965
  139.4808  144.4984  151.9093 LP  0  0  0  0  0  0  0  0  0  0  0  0  # atno 17342 bound_to 10162
  140.4069  144.2419  150.5890 LP  0  0  0  0  0  0  0  0  0  0  0  0  # atno 17343 bound_to 10162
  155.9860  130.3978  150.3234 LP  0  0  0  0  0  0  0  0  0  0  0  0  # atno 17370 bound_to 10713
  157.1375  131.0288  151.2942 LP  0  0  0  0  0  0  0  0  0  0  0  0  # atno 17371 bound_to 10713
  139.8845  135.0063  156.6371 LP  0  0  0  0  0  0  0  0  0  0  0  0  # atno 17394 bound_to 11000
  140.7615  133.8813  155.8422 LP  0  0  0  0  0  0  0  0  0  0  0  0  # atno 17395 bound_to 11000

$$$$
