AV-unprocessed.smi:2214|AV-procd|sdf|8958|dock10
  -GOLD-   2272012173D 1   1.00000     0.00000
 Structure written by MMmdl.
 41 42  0  0  0  0  0  0  0  0  1 V2000
  151.1158  144.3208  159.4661 C   0  0  0  0  0  0  0  0  0  0  0  0
  152.0083  143.1070  159.6238 C   0  0  0  0  0  0  0  0  0  0  0  0
  152.8833  143.0059  160.7231 C   0  0  0  0  0  0  0  0  0  0  0  0
  153.7092  141.8756  160.8610 C   0  0  0  0  0  0  0  0  0  0  0  0
  153.6638  140.8443  159.9031 C   0  0  0  0  0  0  0  0  0  0  0  0
  154.6896  139.4675  160.0953 Cl  0  0  0  0  0  0  0  0  0  0  0  0
  152.7926  140.9311  158.7946 C   0  0  0  0  0  0  0  0  0  0  0  0
  152.8035  139.8831  157.8988 O   0  0  0  0  0  0  0  0  0  0  0  0
  151.7909  139.8285  156.9017 C   0  0  0  0  0  0  0  0  0  0  0  0
  152.1030  138.6993  155.9048 C   0  0  2  0  0  0  0  0  0  0  0  0
  153.2510  139.0760  155.1712 O   0  0  0  0  0  0  0  0  0  0  0  0
  150.9268  138.3958  154.9496 C   0  0  0  0  0  0  0  0  0  0  0  0
  149.6373  138.3271  155.6567 N   0  0  0  0  0  0  0  0  0  0  0  0
  149.4925  137.2849  156.5866 C   0  0  0  0  0  0  0  0  0  0  0  0
  148.4036  137.1274  157.2657 N   0  0  0  0  0  0  0  0  0  0  0  0
  147.3329  138.0067  157.0805 C   0  0  0  0  0  0  0  0  0  0  0  0
  146.1013  137.7281  157.9240 C   0  0  0  0  0  0  0  0  0  0  0  0
  147.4106  139.0393  156.1971 C   0  0  0  0  0  0  0  0  0  0  0  0
  146.2769  140.0271  155.9522 C   0  0  0  0  0  0  0  0  0  0  0  0
  148.6474  139.2369  155.4239 C   0  0  0  0  0  0  0  0  0  0  0  0
  148.7932  140.1596  154.6199 O   0  0  0  0  0  0  0  0  0  0  0  0
  151.9645  142.0751  158.6640 C   0  0  0  0  0  0  0  0  0  0  0  0
  151.1001  144.9231  160.3750 H   0  0  0  0  0  0  0  0  0  0  0  0
  150.0926  144.0150  159.2451 H   0  0  0  0  0  0  0  0  0  0  0  0
  151.4719  144.9459  158.6470 H   0  0  0  0  0  0  0  0  0  0  0  0
  152.9254  143.7921  161.4627 H   0  0  0  0  0  0  0  0  0  0  0  0
  154.3794  141.8003  161.7045 H   0  0  0  0  0  0  0  0  0  0  0  0
  150.8046  139.6848  157.3465 H   0  0  0  0  0  0  0  0  0  0  0  0
  151.7755  140.7761  156.3606 H   0  0  0  0  0  0  0  0  0  0  0  0
  152.3641  137.8111  156.4815 H   0  0  0  0  0  0  0  0  0  0  0  0
  153.2241  138.6486  154.3290 H   0  0  0  0  0  0  0  0  0  0  0  0
  150.8630  139.1834  154.1963 H   0  0  0  0  0  0  0  0  0  0  0  0
  151.1277  137.4908  154.3718 H   0  0  0  0  0  0  0  0  0  0  0  0
  150.3574  136.6285  156.6958 H   0  0  0  0  0  0  0  0  0  0  0  0
  145.2418  137.5169  157.2875 H   0  0  0  0  0  0  0  0  0  0  0  0
  145.8673  138.5869  158.5536 H   0  0  0  0  0  0  0  0  0  0  0  0
  146.2533  136.8676  158.5769 H   0  0  0  0  0  0  0  0  0  0  0  0
  146.5940  141.0367  156.2152 H   0  0  0  0  0  0  0  0  0  0  0  0
  145.3803  139.8034  156.5274 H   0  0  0  0  0  0  0  0  0  0  0  0
  145.9971  140.0242  154.8984 H   0  0  0  0  0  0  0  0  0  0  0  0
  151.2847  142.1836  157.8329 H   0  0  0  0  0  0  0  0  0  0  0  0
  1  2  1  0  0  0  0
  1 23  1  0  0  0  0
  1 24  1  0  0  0  0
  1 25  1  0  0  0  0
  2 22  1  0  0  0  0
  2  3  2  0  0  0  0
  3  4  1  0  0  0  0
  3 26  1  0  0  0  0
  4  5  2  0  0  0  0
  4 27  1  0  0  0  0
  5  6  1  0  0  0  0
  5  7  1  0  0  0  0
  7  8  1  0  0  0  0
  7 22  2  0  0  0  0
  8  9  1  0  0  0  0
  9 10  1  0  0  0  0
  9 28  1  0  0  0  0
  9 29  1  0  0  0  0
 10 11  1  0  0  0  0
 10 12  1  0  0  0  0
 10 30  1  0  0  0  0
 11 31  1  0  0  0  0
 12 13  1  0  0  0  0
 12 32  1  0  0  0  0
 12 33  1  0  0  0  0
 13 20  1  0  0  0  0
 13 14  1  0  0  0  0
 14 15  2  0  0  0  0
 14 34  1  0  0  0  0
 15 16  1  0  0  0  0
 16 17  1  0  0  0  0
 16 18  2  0  0  0  0
 17 35  1  0  0  0  0
 17 36  1  0  0  0  0
 17 37  1  0  0  0  0
 18 19  1  0  0  0  0
 18 20  1  0  0  0  0
 19 38  1  0  0  0  0
 19 39  1  0  0  0  0
 19 40  1  0  0  0  0
 20 21  2  0  0  0  0
 22 41  1  0  0  0  0
M  END
> <s_m_source_file>
AV-unprocessed.smi

> <i_m_source_file_index>
2214

> <i_lp_mmshare_version>
43012

> <i_f3d_flags>
0

> <s_epik_input>
W0NIM11jMVtjSF1bY0hdYyhDbCljKFtjSF0xKU9bQ0gyXVtDQEhdKFtPSF0pW0NIMl1uMltjSF1uYyhbQ0gzXSljKFtDSDNdKWMyPU8=

> <s_epik_cmdline>
J2VwaWtfcHl0aG9uJywgJy1waCcsICc3LjAnLCAnLXRuJywgJzgnLCAnLW1hJywgJzIwMCcsICctbWV0YWxfYmluZGluZycsICctaW1hZScsICc8aW5maWxlLm1hZT4nLCAnLW9tYWUnLCAnPG91dGZpbGUubWFlPic=

> <r_lp_tautomer_probability>
1

> <r_epik_Ionization_Penalty>
3.50205e-05

> <r_epik_Ionization_Penalty_Charging>
7.87908e-08

> <r_epik_Ionization_Penalty_Neutral>
3.49418e-05

> <r_epik_State_Penalty>
-0

> <r_epik_Charging_Adjusted_Penalty>
7.87908e-08

> <i_epik_Tot_Q>
0

> <i_epik_Tot_abs_Q>
0

> <r_epik_Metal_State_Penalty>
-0

> <b_epik_Metal_Only>
0

> <s_lp_Force_Field>
OPLS_2005

> <r_lp_Energy>
24.1684

> <b_lp_Chiralities_Consistent>
1

> <s_lp_Variant>
AV-unprocessed.smi:2214-1

> <Gold.Version>
5.8.1

> <Gold.Id.Protein>
6NUR|6NUR_protein|mol2

> <Gold.PLP.Fitness>
49.2323

> <Gold.PLP.PLP>
-42.4536

> <Gold.PLP.part.hbond>
-4.0000

> <Gold.PLP.part.metal>
0.0000

> <Gold.PLP.part.buried>
-5.1582

> <Gold.PLP.part.nonpolar>
-34.4696

> <Gold.PLP.part.repulsive>
2.0313

> <Gold.PLP.ligand.clash>
0.0000

> <Gold.PLP.ligand.torsion>
0.2906

> <Gold.PLP.Chemscore.Hbond>
2.4489

> <Gold.PLP.Chemscore.CHOScore>
0.0000

> <Gold.PLP.Chemscore.Metal>
0.0000

> <Gold.Chemscore.Hbonds>
donor molecule, donor type, donor heavy atom, donor atom, acceptor molecule, acceptor atom, score
      P1  H  7997  8008       L1     8  1.00
      P1  H  7997  8009       L1    11  0.15

> <Gold.PLP.Chemscore.Internal.Correction>
0.0132

> <Gold.Rescore>
     Score         DG    S(hbond)    S(metal)    S(lipo)     H(rot)  DE(clash)    DE(int)     intcor
     16.13     -16.64       1.34        0.00     108.56       2.35       0.30       0.22       ----

> <Gold.Chemscore.Fitness>
16.1297

> <Gold.Chemscore.DG>
-16.6435

> <Gold.Chemscore.ZeroCoef>
-5.4800

> <Gold.Chemscore.Hbond>
1.3401

> <Gold.Chemscore.Metal>
0.0000

> <Gold.Chemscore.Lipo>
108.5553

> <Gold.Chemscore.Internal_Hbond>
0.0000

> <Gold.Chemscore.DEClash>
0.2968

> <Gold.Chemscore.DEInternal>
0.2170

> <Gold.Chemscore.Rot>
2.3490

> <Gold.Chemscore.Internal.Correction>
   9.000000E+99

> <Gold.Chemscore.Hbonds>
donor molecule, donor type, donor heavy atom, donor atom, acceptor molecule, acceptor atom, score
      P1  H  7997  8008       L1     8  0.28
      P1  H  7997  8009       L1    11  0.12

> <Gold.Chemscore.Hbond.Weighted>
-4.4761

> <Gold.Chemscore.Metal.Weighted>
-0.0000

> <Gold.Chemscore.Lipo.Weighted>
-12.7010

> <Gold.Chemscore.Internal_Hbond.Weighted>
0.0000

> <Gold.Chemscore.DEClash.Weighted>
0.2968

> <Gold.Chemscore.DEInternal.Weighted>
0.2170

> <Gold.Chemscore.Rot.Weighted>
6.0136

> <Gold.Chemscore.Internal.Correction.Weighted>
   9.000000E+99

> <Gold.Protein.RotatedTorsions>
[ 6907 6896 6895 6894 ] final    8.58 input  -60.11 | X-H torsion
[ 7974 7965 7964 7962 ] final   61.41 input  175.53 | X-H torsion
[ 8008 7997 7996 7995 ] final  -86.77 input   59.86 | X-H torsion
[ 10167 10162 10161 10158 ] final  -21.62 input  -65.29 | X-H torsion
[ 10718 10713 10712 10709 ] final   47.77 input   66.30 | X-H torsion
[ 10763 10752 10751 10750 ] final -112.48 input  -60.55 | X-H torsion
[ 11005 11000 10999 10996 ] final   -8.91 input  -57.11 | X-H torsion

> <Gold.Protein.ActiveResidues>
 VAL166  LYS551  ARG553  GLY616  TRP617  ASP618  TYR619  PRO620  LYS621  CYS622 
 ASP623  PHE694  ASN695  SER759  ASP760  ASP761  ALA762  ILE779  LEU786  VAL792 
 PHE793  MET794  SER795  GLU796  ALA797  LYS798  CYS799  TRP800  GLU811  SER814 

> <Gold.Protein.RotatedAtoms>
  151.7083  135.0917  160.0262 H   0  0  0  0  0  0  0  0  0  0  0  0  # atno 6907 bound_to 6896
  152.3677  133.6374  159.6072 H   0  0  0  0  0  0  0  0  0  0  0  0  # atno 6908 bound_to 6896
  150.7650  133.9237  159.3447 H   0  0  0  0  0  0  0  0  0  0  0  0  # atno 6909 bound_to 6896
  145.8851  139.3470  143.0683 H   0  0  0  0  0  0  0  0  0  0  0  0  # atno 7974 bound_to 7965
  154.6557  140.0574  157.0005 H   0  0  0  0  0  0  0  0  0  0  0  0  # atno 8008 bound_to 7997
  155.1305  140.3256  155.4457 H   0  0  0  0  0  0  0  0  0  0  0  0  # atno 8009 bound_to 7997
  156.2596  140.1981  156.6424 H   0  0  0  0  0  0  0  0  0  0  0  0  # atno 8010 bound_to 7997
  140.7283  143.4611  151.0379 H   0  0  0  0  0  0  0  0  0  0  0  0  # atno 10167 bound_to 10162
  157.4619  130.8201  149.7895 H   0  0  0  0  0  0  0  0  0  0  0  0  # atno 10718 bound_to 10713
  154.8352  135.4489  154.1201 H   0  0  0  0  0  0  0  0  0  0  0  0  # atno 10763 bound_to 10752
  153.2439  135.6919  153.7759 H   0  0  0  0  0  0  0  0  0  0  0  0  # atno 10764 bound_to 10752
  153.7096  135.3359  155.3219 H   0  0  0  0  0  0  0  0  0  0  0  0  # atno 10765 bound_to 10752
  140.7285  133.8768  155.8875 H   0  0  0  0  0  0  0  0  0  0  0  0  # atno 11005 bound_to 11000
  145.8977  140.9263  143.0519 LP  0  0  0  0  0  0  0  0  0  0  0  0  # atno 17320 bound_to 7965
  144.6728  140.0990  143.7461 LP  0  0  0  0  0  0  0  0  0  0  0  0  # atno 17321 bound_to 7965
  139.8295  143.7710  152.3179 LP  0  0  0  0  0  0  0  0  0  0  0  0  # atno 17342 bound_to 10162
  139.7821  144.7441  151.0074 LP  0  0  0  0  0  0  0  0  0  0  0  0  # atno 17343 bound_to 10162
  156.0032  130.3869  150.2526 LP  0  0  0  0  0  0  0  0  0  0  0  0  # atno 17370 bound_to 10713
  157.0704  131.0115  151.3192 LP  0  0  0  0  0  0  0  0  0  0  0  0  # atno 17371 bound_to 10713
  140.9941  134.1239  157.4380 LP  0  0  0  0  0  0  0  0  0  0  0  0  # atno 17394 bound_to 11000
  139.8831  135.0049  156.6280 LP  0  0  0  0  0  0  0  0  0  0  0  0  # atno 17395 bound_to 11000

$$$$
