AV-unprocessed.smi:863|AV-procd|sdf|3984|dock8
  -GOLD-   22720 1463D 1   1.00000     0.00000
 Structure written by MMmdl.
 42 44  0  0  0  0  0  0  0  0  1 V2000
  148.1790  142.7330  158.9954 O   0  0  0  0  0  0  0  0  0  0  0  0
  148.4746  142.9070  157.8131 C   0  0  0  0  0  0  0  0  0  0  0  0
  147.4020  142.7825  156.7303 C   0  0  0  0  0  0  0  0  0  0  0  0
  147.8664  141.8511  155.6435 C   0  0  0  0  0  0  0  0  0  0  0  0
  147.1124  141.3038  154.5681 C   0  0  0  0  0  0  0  0  0  0  0  0
  148.0208  140.5351  153.8994 C   0  0  0  0  0  0  0  0  0  0  0  0
  149.2324  140.5946  154.5072 O   0  0  0  0  0  0  0  0  0  0  0  0
  149.1239  141.4348  155.6215 N   0  0  0  0  0  0  0  0  0  0  0  0
  149.7151  143.2062  157.3962 N   0  0  0  0  0  0  0  0  0  0  0  0
  150.8765  143.3777  158.2636 C   0  0  2  0  0  0  0  0  0  0  0  0
  152.0417  143.9657  157.4604 C   0  0  0  0  0  0  0  0  0  0  0  0
  153.3066  144.0452  158.3258 C   0  0  0  0  0  0  0  0  0  0  0  0
  153.6270  142.7621  158.8605 O   0  0  0  0  0  0  0  0  0  0  0  0
  152.6282  142.1410  159.6804 C   0  0  0  0  0  0  0  0  0  0  0  0
  153.1571  140.7206  159.9898 C   0  0  0  0  0  0  0  0  0  0  0  0
  154.4262  140.7342  160.8599 C   0  0  0  0  0  0  0  0  0  0  0  0
  154.2005  141.5095  162.1649 C   0  0  0  0  0  0  0  0  0  0  0  0
  153.6978  142.9308  161.8777 C   0  0  0  0  0  0  0  0  0  0  0  0
  152.4245  142.9065  161.0162 C   0  0  0  0  0  0  0  0  0  0  0  0
  151.3139  142.0317  158.8692 C   0  0  0  0  0  0  0  0  0  0  0  0
  146.4683  142.4326  157.1734 H   0  0  0  0  0  0  0  0  0  0  0  0
  147.1954  143.7708  156.3182 H   0  0  0  0  0  0  0  0  0  0  0  0
  146.0709  141.4537  154.3260 H   0  0  0  0  0  0  0  0  0  0  0  0
  147.9611  139.9145  153.0175 H   0  0  0  0  0  0  0  0  0  0  0  0
  149.8639  143.3342  156.4056 H   0  0  0  0  0  0  0  0  0  0  0  0
  150.6183  144.0758  159.0614 H   0  0  0  0  0  0  0  0  0  0  0  0
  152.2442  143.3429  156.5878 H   0  0  0  0  0  0  0  0  0  0  0  0
  151.7831  144.9565  157.0850 H   0  0  0  0  0  0  0  0  0  0  0  0
  154.1467  144.3824  157.7187 H   0  0  0  0  0  0  0  0  0  0  0  0
  153.1912  144.7816  159.1207 H   0  0  0  0  0  0  0  0  0  0  0  0
  152.3834  140.1479  160.5035 H   0  0  0  0  0  0  0  0  0  0  0  0
  153.3628  140.1868  159.0611 H   0  0  0  0  0  0  0  0  0  0  0  0
  154.7313  139.7119  161.0849 H   0  0  0  0  0  0  0  0  0  0  0  0
  155.2494  141.1851  160.3041 H   0  0  0  0  0  0  0  0  0  0  0  0
  153.4736  140.9817  162.7837 H   0  0  0  0  0  0  0  0  0  0  0  0
  155.1260  141.5497  162.7399 H   0  0  0  0  0  0  0  0  0  0  0  0
  153.5001  143.4495  162.8159 H   0  0  0  0  0  0  0  0  0  0  0  0
  154.4760  143.5008  161.3686 H   0  0  0  0  0  0  0  0  0  0  0  0
  152.0830  143.9269  160.8495 H   0  0  0  0  0  0  0  0  0  0  0  0
  151.6277  142.4253  161.5850 H   0  0  0  0  0  0  0  0  0  0  0  0
  150.5210  141.6224  159.4967 H   0  0  0  0  0  0  0  0  0  0  0  0
  151.4553  141.3157  158.0579 H   0  0  0  0  0  0  0  0  0  0  0  0
  1  2  2  0  0  0  0
  2  3  1  0  0  0  0
  2  9  1  0  0  0  0
  3  4  1  0  0  0  0
  3 21  1  0  0  0  0
  3 22  1  0  0  0  0
  4  8  2  0  0  0  0
  4  5  1  0  0  0  0
  5  6  2  0  0  0  0
  5 23  1  0  0  0  0
  6  7  1  0  0  0  0
  6 24  1  0  0  0  0
  7  8  1  0  0  0  0
  9 10  1  0  0  0  0
  9 25  1  0  0  0  0
 10 20  1  0  0  0  0
 10 11  1  0  0  0  0
 10 26  1  0  0  0  0
 11 12  1  0  0  0  0
 11 27  1  0  0  0  0
 11 28  1  0  0  0  0
 12 13  1  0  0  0  0
 12 29  1  0  0  0  0
 12 30  1  0  0  0  0
 13 14  1  0  0  0  0
 14 19  1  0  0  0  0
 14 15  1  0  0  0  0
 14 20  1  0  0  0  0
 15 16  1  0  0  0  0
 15 31  1  0  0  0  0
 15 32  1  0  0  0  0
 16 17  1  0  0  0  0
 16 33  1  0  0  0  0
 16 34  1  0  0  0  0
 17 18  1  0  0  0  0
 17 35  1  0  0  0  0
 17 36  1  0  0  0  0
 18 19  1  0  0  0  0
 18 37  1  0  0  0  0
 18 38  1  0  0  0  0
 19 39  1  0  0  0  0
 19 40  1  0  0  0  0
 20 41  1  0  0  0  0
 20 42  1  0  0  0  0
M  END
> <s_m_source_file>
AV-unprocessed.smi

> <i_m_source_file_index>
863

> <i_lp_mmshare_version>
43012

> <i_f3d_flags>
0

> <s_epik_input>
bjFvW2NIXVtjSF1jMVtDSDJdQyg9TylbTkhdW0NAQEhdKFtDSDJdMilbQ0gyXVtDSDJdT0MyM1tDSDJdW0NIMl1bQ0gyXVtDSDJdW0NIMl0z

> <s_epik_cmdline>
J2VwaWtfcHl0aG9uJywgJy1waCcsICc3LjAnLCAnLXRuJywgJzgnLCAnLW1hJywgJzIwMCcsICctbWV0YWxfYmluZGluZycsICctaW1hZScsICc8aW5maWxlLm1hZT4nLCAnLW9tYWUnLCAnPG91dGZpbGUubWFlPic=

> <r_lp_tautomer_probability>
1

> <r_epik_Ionization_Penalty>
1.10177e-07

> <r_epik_Ionization_Penalty_Charging>
0

> <r_epik_Ionization_Penalty_Neutral>
1.10177e-07

> <r_epik_State_Penalty>
-0

> <r_epik_Charging_Adjusted_Penalty>
0

> <i_epik_Tot_Q>
0

> <i_epik_Tot_abs_Q>
0

> <r_epik_Metal_State_Penalty>
-0

> <b_epik_Metal_Only>
0

> <s_lp_Force_Field>
OPLS_2005

> <r_lp_Energy>
15.5763

> <b_lp_Chiralities_Consistent>
1

> <s_lp_Variant>
AV-unprocessed.smi:863-1

> <Gold.Version>
5.8.1

> <Gold.Id.Protein>
6NUR|6NUR_protein|mol2

> <Gold.PLP.Fitness>
44.6464

> <Gold.PLP.PLP>
-39.0130

> <Gold.PLP.part.hbond>
-4.6793

> <Gold.PLP.part.metal>
0.0000

> <Gold.PLP.part.buried>
1.7634

> <Gold.PLP.part.nonpolar>
-36.3749

> <Gold.PLP.part.repulsive>
0.6601

> <Gold.PLP.ligand.clash>
0.0000

> <Gold.PLP.ligand.torsion>
0.2713

> <Gold.PLP.Chemscore.Hbond>
1.0627

> <Gold.PLP.Chemscore.CHOScore>
0.9956

> <Gold.PLP.Chemscore.Metal>
0.0000

> <Gold.Chemscore.Hbonds>
donor molecule, donor type, donor heavy atom, donor atom, acceptor molecule, acceptor atom, score
      L1  H     9    25       P1  8028  0.29
      L1  C     6    24       P1  7957  0.87

> <Gold.PLP.Chemscore.Internal.Correction>
0.0011

> <Gold.Rescore>
     Score         DG    S(hbond)    S(metal)    S(lipo)     H(rot)  DE(clash)    DE(int)     intcor
     19.06     -21.24       1.34        0.00     127.48       1.42       1.92       0.25       ----

> <Gold.Chemscore.Fitness>
19.0646

> <Gold.Chemscore.DG>
-21.2386

> <Gold.Chemscore.ZeroCoef>
-5.4800

> <Gold.Chemscore.Hbond>
1.3383

> <Gold.Chemscore.Metal>
0.0000

> <Gold.Chemscore.Lipo>
127.4753

> <Gold.Chemscore.Internal_Hbond>
0.0000

> <Gold.Chemscore.DEClash>
1.9220

> <Gold.Chemscore.DEInternal>
0.2520

> <Gold.Chemscore.Rot>
1.4164

> <Gold.Chemscore.Internal.Correction>
   9.000000E+99

> <Gold.Chemscore.Hbonds>
donor molecule, donor type, donor heavy atom, donor atom, acceptor molecule, acceptor atom, score
      L1  H     9    25       P1  8028  0.28
      P1  H  6933  6944       L1     1  0.01

> <Gold.Chemscore.Hbond.Weighted>
-4.4699

> <Gold.Chemscore.Metal.Weighted>
-0.0000

> <Gold.Chemscore.Lipo.Weighted>
-14.9146

> <Gold.Chemscore.Internal_Hbond.Weighted>
0.0000

> <Gold.Chemscore.DEClash.Weighted>
1.9220

> <Gold.Chemscore.DEInternal.Weighted>
0.2520

> <Gold.Chemscore.Rot.Weighted>
3.6259

> <Gold.Chemscore.Internal.Correction.Weighted>
   9.000000E+99

> <Gold.Protein.RotatedTorsions>
[ 6907 6896 6895 6894 ] final  -39.74 input  -60.11 | X-H torsion
[ 7974 7965 7964 7962 ] final  -72.98 input  175.53 | X-H torsion
[ 8008 7997 7996 7995 ] final  125.84 input   59.86 | X-H torsion
[ 10167 10162 10161 10158 ] final -136.30 input  -65.29 | X-H torsion
[ 10718 10713 10712 10709 ] final  -98.13 input   66.30 | X-H torsion
[ 10763 10752 10751 10750 ] final   -9.98 input  -60.55 | X-H torsion
[ 11005 11000 10999 10996 ] final -154.66 input  -57.11 | X-H torsion

> <Gold.Protein.ActiveResidues>
 VAL166  LYS551  ARG553  GLY616  TRP617  ASP618  TYR619  PRO620  LYS621  CYS622 
 ASP623  PHE694  ASN695  SER759  ASP760  ASP761  ALA762  ILE779  LEU786  VAL792 
 PHE793  MET794  SER795  GLU796  ALA797  LYS798  CYS799  TRP800  GLU811  SER814 

> <Gold.Protein.RotatedAtoms>
  150.9868  134.9211  159.7875 H   0  0  0  0  0  0  0  0  0  0  0  0  # atno 6907 bound_to 6896
  152.5239  134.3336  159.9202 H   0  0  0  0  0  0  0  0  0  0  0  0  # atno 6908 bound_to 6896
  151.3342  133.3947  159.2700 H   0  0  0  0  0  0  0  0  0  0  0  0  # atno 6909 bound_to 6896
  145.6581  140.9261  143.0948 H   0  0  0  0  0  0  0  0  0  0  0  0  # atno 7974 bound_to 7965
  156.2846  140.2707  156.2014 H   0  0  0  0  0  0  0  0  0  0  0  0  # atno 8008 bound_to 7997
  155.0358  140.0386  157.2509 H   0  0  0  0  0  0  0  0  0  0  0  0  # atno 8009 bound_to 7997
  154.7316  140.2707  155.6456 H   0  0  0  0  0  0  0  0  0  0  0  0  # atno 8010 bound_to 7997
  139.8692  143.6979  152.2642 H   0  0  0  0  0  0  0  0  0  0  0  0  # atno 10167 bound_to 10162
  156.0100  130.5224  150.6477 H   0  0  0  0  0  0  0  0  0  0  0  0  # atno 10718 bound_to 10713
  153.4626  135.7016  153.6041 H   0  0  0  0  0  0  0  0  0  0  0  0  # atno 10763 bound_to 10752
  153.4329  135.3798  155.2181 H   0  0  0  0  0  0  0  0  0  0  0  0  # atno 10764 bound_to 10752
  154.8727  135.3955  154.4054 H   0  0  0  0  0  0  0  0  0  0  0  0  # atno 10765 bound_to 10752
  140.6950  134.4000  157.5215 H   0  0  0  0  0  0  0  0  0  0  0  0  # atno 11005 bound_to 11000
  144.7098  139.8414  143.7418 LP  0  0  0  0  0  0  0  0  0  0  0  0  # atno 17320 bound_to 7965
  146.1148  139.4157  143.0265 LP  0  0  0  0  0  0  0  0  0  0  0  0  # atno 17321 bound_to 7965
  139.7300  144.7584  151.0817 LP  0  0  0  0  0  0  0  0  0  0  0  0  # atno 17342 bound_to 10162
  140.7763  143.5100  150.9665 LP  0  0  0  0  0  0  0  0  0  0  0  0  # atno 17343 bound_to 10162
  157.4245  131.0841  151.1099 LP  0  0  0  0  0  0  0  0  0  0  0  0  # atno 17370 bound_to 10713
  157.1691  130.6259  149.5635 LP  0  0  0  0  0  0  0  0  0  0  0  0  # atno 17371 bound_to 10713
  139.8913  134.8784  156.2328 LP  0  0  0  0  0  0  0  0  0  0  0  0  # atno 17394 bound_to 11000
  141.0211  133.7041  156.1269 LP  0  0  0  0  0  0  0  0  0  0  0  0  # atno 17395 bound_to 11000

$$$$
