AV-unprocessed.smi:1047|AV-procd|sdf|4567|dock1
  -GOLD-   22720 3 13D 1   1.00000     0.00000
 Structure written by MMmdl.
 57 59  0  0  0  0  0  0  0  0  3 V2000
  142.2801  139.3140  155.2971 C   0  0  0  0  0  0  0  0  0  0  0  0
  142.4697  138.0302  154.4763 C   0  0  0  0  0  0  0  0  0  0  0  0
  143.7370  138.0279  153.7031 N   0  3  2  0  0  0  0  0  0  0  0  0
  143.9615  136.7450  152.9947 C   0  0  0  0  0  0  0  0  0  0  0  0
  145.2490  136.8089  152.1560 C   0  0  0  0  0  0  0  0  0  0  0  0
  146.3526  137.1304  152.9942 O   0  0  0  0  0  0  0  0  0  0  0  0
  146.1968  138.3948  153.6292 C   0  0  2  0  0  0  0  0  0  0  0  0
  147.4847  138.7257  154.4036 C   0  0  0  0  0  0  0  0  0  0  0  0
  148.6856  138.6644  153.5442 N   0  3  0  0  0  0  0  0  0  0  0  0
  149.9345  139.0654  154.2230 C   0  0  0  0  0  0  0  0  0  0  0  0
  150.1509  140.5847  154.1348 C   0  0  1  0  0  0  0  0  0  0  0  0
  149.2537  141.1170  153.1783 O   0  0  0  0  0  0  0  0  0  0  0  0
  149.9318  141.2802  155.4924 C   0  0  0  0  0  0  0  0  0  0  0  0
  150.9735  140.9623  156.4528 N   0  0  0  0  0  0  0  0  0  0  0  0
  151.8126  139.9091  156.4182 C   0  0  0  0  0  0  0  0  0  0  0  0
  152.7035  139.8077  157.3999 N   0  0  0  0  0  0  0  0  0  0  0  0
  152.4057  140.9235  158.1633 C   0  0  0  0  0  0  0  0  0  0  0  0
  152.9918  141.4009  159.3559 C   0  0  0  0  0  0  0  0  0  0  0  0
  152.5188  142.5799  159.9747 C   0  0  0  0  0  0  0  0  0  0  0  0
  153.1774  143.0549  161.2581 C   0  0  0  0  0  0  0  0  0  0  0  0
  151.4412  143.3006  159.4000 C   0  0  0  0  0  0  0  0  0  0  0  0
  150.9105  144.5654  160.0513 C   0  0  0  0  0  0  0  0  0  0  0  0
  150.8470  142.8402  158.2064 C   0  0  0  0  0  0  0  0  0  0  0  0
  151.3264  141.6654  157.6000 C   0  0  0  0  0  0  0  0  0  0  0  0
  144.9297  138.3860  154.5110 C   0  0  0  0  0  0  0  0  0  0  0  0
  141.2955  139.3264  155.7656 H   0  0  0  0  0  0  0  0  0  0  0  0
  142.3556  140.2008  154.6671 H   0  0  0  0  0  0  0  0  0  0  0  0
  143.0160  139.4024  156.0957 H   0  0  0  0  0  0  0  0  0  0  0  0
  142.4205  137.1515  155.1210 H   0  0  0  0  0  0  0  0  0  0  0  0
  141.6320  137.9516  153.7820 H   0  0  0  0  0  0  0  0  0  0  0  0
  144.0267  135.9320  153.7196 H   0  0  0  0  0  0  0  0  0  0  0  0
  143.1138  136.5266  152.3441 H   0  0  0  0  0  0  0  0  0  0  0  0
  145.4358  135.8455  151.6810 H   0  0  0  0  0  0  0  0  0  0  0  0
  145.1567  137.5448  151.3555 H   0  0  0  0  0  0  0  0  0  0  0  0
  146.0770  139.1554  152.8555 H   0  0  0  0  0  0  0  0  0  0  0  0
  147.4069  139.7270  154.8294 H   0  0  0  0  0  0  0  0  0  0  0  0
  147.6030  138.0342  155.2389 H   0  0  0  0  0  0  0  0  0  0  0  0
  148.7976  137.7207  153.2022 H   0  0  0  0  0  0  0  0  0  0  0  0
  149.9135  138.7424  155.2651 H   0  0  0  0  0  0  0  0  0  0  0  0
  150.7659  138.5464  153.7443 H   0  0  0  0  0  0  0  0  0  0  0  0
  151.1683  140.7855  153.7953 H   0  0  0  0  0  0  0  0  0  0  0  0
  149.0983  140.4658  152.5108 H   0  0  0  0  0  0  0  0  0  0  0  0
  149.8896  142.3629  155.3667 H   0  0  0  0  0  0  0  0  0  0  0  0
  148.9738  140.9805  155.9193 H   0  0  0  0  0  0  0  0  0  0  0  0
  151.7692  139.1772  155.6248 H   0  0  0  0  0  0  0  0  0  0  0  0
  153.8110  140.8502  159.7944 H   0  0  0  0  0  0  0  0  0  0  0  0
  152.4713  143.0086  162.0871 H   0  0  0  0  0  0  0  0  0  0  0  0
  153.5248  144.0829  161.1551 H   0  0  0  0  0  0  0  0  0  0  0  0
  154.0383  142.4374  161.5153 H   0  0  0  0  0  0  0  0  0  0  0  0
  150.0474  144.9579  159.5132 H   0  0  0  0  0  0  0  0  0  0  0  0
  151.6784  145.3391  160.0643 H   0  0  0  0  0  0  0  0  0  0  0  0
  150.6007  144.3662  161.0775 H   0  0  0  0  0  0  0  0  0  0  0  0
  150.0274  143.3823  157.7584 H   0  0  0  0  0  0  0  0  0  0  0  0
  144.7996  139.3698  154.9607 H   0  0  0  0  0  0  0  0  0  0  0  0
  145.0358  137.6715  155.3286 H   0  0  0  0  0  0  0  0  0  0  0  0
  148.5473  139.2784  152.7534 H   0  0  0  0  0  0  0  0  0  0  0  0
  143.6375  138.7335  152.9870 H   0  0  0  0  0  0  0  0  0  0  0  0
  1  2  1  0  0  0  0
  1 26  1  0  0  0  0
  1 27  1  0  0  0  0
  1 28  1  0  0  0  0
  2  3  1  0  0  0  0
  2 29  1  0  0  0  0
  2 30  1  0  0  0  0
  3 25  1  0  0  0  0
  3  4  1  0  0  0  0
  3 57  1  0  0  0  0
  4  5  1  0  0  0  0
  4 31  1  0  0  0  0
  4 32  1  0  0  0  0
  5  6  1  0  0  0  0
  5 33  1  0  0  0  0
  5 34  1  0  0  0  0
  6  7  1  0  0  0  0
  7  8  1  0  0  0  0
  7 25  1  0  0  0  0
  7 35  1  0  0  0  0
  8  9  1  0  0  0  0
  8 36  1  0  0  0  0
  8 37  1  0  0  0  0
  9 10  1  0  0  0  0
  9 38  1  0  0  0  0
  9 56  1  0  0  0  0
 10 11  1  0  0  0  0
 10 39  1  0  0  0  0
 10 40  1  0  0  0  0
 11 12  1  0  0  0  0
 11 13  1  0  0  0  0
 11 41  1  0  0  0  0
 12 42  1  0  0  0  0
 13 14  1  0  0  0  0
 13 43  1  0  0  0  0
 13 44  1  0  0  0  0
 14 24  1  0  0  0  0
 14 15  1  0  0  0  0
 15 16  2  0  0  0  0
 15 45  1  0  0  0  0
 16 17  1  0  0  0  0
 17 24  2  0  0  0  0
 17 18  1  0  0  0  0
 18 19  2  0  0  0  0
 18 46  1  0  0  0  0
 19 20  1  0  0  0  0
 19 21  1  0  0  0  0
 20 47  1  0  0  0  0
 20 48  1  0  0  0  0
 20 49  1  0  0  0  0
 21 22  1  0  0  0  0
 21 23  2  0  0  0  0
 22 50  1  0  0  0  0
 22 51  1  0  0  0  0
 22 52  1  0  0  0  0
 23 24  1  0  0  0  0
 23 53  1  0  0  0  0
 25 54  1  0  0  0  0
 25 55  1  0  0  0  0
M  CHG  1   3   1
M  CHG  1   9   1
M  END
> <s_m_source_file>
AV-unprocessed.smi

> <i_m_source_file_index>
1047

> <i_lp_mmshare_version>
43012

> <i_f3d_flags>
0

> <s_epik_input>
W0NIM11bQ0gyXU4xW0NIMl1bQ0gyXU9bQ0BIXShbQ0gyXTEpW0NIMl1bTkhdW0NIMl1bQ0BIXShbT0hdKVtDSDJdbihbY0hdbjIpYyhjMjMpW2NIXWMoW0NIM10pYyhbY0hdMylbQ0gzXQ==

> <s_epik_cmdline>
J2VwaWtfcHl0aG9uJywgJy1waCcsICc3LjAnLCAnLXRuJywgJzgnLCAnLW1hJywgJzIwMCcsICctbWV0YWxfYmluZGluZycsICctaW1hZScsICc8aW5maWxlLm1hZT4nLCAnLW9tYWUnLCAnPG91dGZpbGUubWFlPic=

> <r_epik_Ionization_Penalty>
0.528991

> <r_epik_Ionization_Penalty_Charging>
0.438567

> <r_epik_Ionization_Penalty_Neutral>
0.0904237

> <r_epik_State_Penalty>
0.533036

> <r_epik_Charging_Adjusted_Penalty>
0.971603

> <i_epik_Tot_Q>
2

> <i_epik_Tot_abs_Q>
2

> <r_epik_Metal_State_Penalty>
0.448985

> <b_epik_Metal_Only>
0

> <s_lp_Force_Field>
OPLS_2005

> <r_lp_Energy>
32.051

> <b_lp_Chiralities_Consistent>
1

> <s_lp_Variant>
AV-unprocessed.smi:1047-8

> <Gold.Version>
5.8.1

> <Gold.Id.Protein>
6NUR|6NUR_protein|mol2

> <Gold.PLP.Fitness>
62.6534

> <Gold.PLP.PLP>
-41.5692

> <Gold.PLP.part.hbond>
-6.4068

> <Gold.PLP.part.metal>
0.0000

> <Gold.PLP.part.buried>
-0.3553

> <Gold.PLP.part.nonpolar>
-34.7967

> <Gold.PLP.part.repulsive>
1.6218

> <Gold.PLP.ligand.clash>
0.0000

> <Gold.PLP.ligand.torsion>
1.2143

> <Gold.PLP.Chemscore.Hbond>
7.6124

> <Gold.PLP.Chemscore.CHOScore>
0.0000

> <Gold.PLP.Chemscore.Metal>
0.0000

> <Gold.Chemscore.Hbonds>
donor molecule, donor type, donor heavy atom, donor atom, acceptor molecule, acceptor atom, score
      L1  H     3    57       P1 10175  2.00
      L1  H     9    38       P1  7948  2.00
      L1  H     9    56       P1  7957  0.75
      L1  H    12    42       P1  7957  0.74
      P1  H  7997  8009       L1    16  1.00
      P1  H  8011  8017       L1    12  1.00

> <Gold.PLP.Chemscore.Internal.Correction>
0.6756

> <Gold.Rescore>
     Score         DG    S(hbond)    S(metal)    S(lipo)     H(rot)  DE(clash)    DE(int)     intcor
     22.35     -27.77       4.51        0.00     120.73       2.70       3.22       2.21       ----

> <Gold.Chemscore.Fitness>
22.3451

> <Gold.Chemscore.DG>
-27.7724

> <Gold.Chemscore.ZeroCoef>
-5.4800

> <Gold.Chemscore.Hbond>
4.5134

> <Gold.Chemscore.Metal>
0.0000

> <Gold.Chemscore.Lipo>
120.7349

> <Gold.Chemscore.Internal_Hbond>
0.0000

> <Gold.Chemscore.DEClash>
3.2215

> <Gold.Chemscore.DEInternal>
2.2059

> <Gold.Chemscore.Rot>
2.6985

> <Gold.Chemscore.Internal.Correction>
   9.000000E+99

> <Gold.Chemscore.Hbonds>
donor molecule, donor type, donor heavy atom, donor atom, acceptor molecule, acceptor atom, score
      L1  H     3    57       P1 10175  0.95
      L1  H     9    38       P1  7948  0.96
      L1  H     9    56       P1  7957  0.72
      L1  H    12    42       P1  7957  0.70
      P1  H  7997  8009       L1    16  0.41
      P1  H  8011  8017       L1    12  0.36

> <Gold.Chemscore.Hbond.Weighted>
-15.0746

> <Gold.Chemscore.Metal.Weighted>
-0.0000

> <Gold.Chemscore.Lipo.Weighted>
-14.1260

> <Gold.Chemscore.Internal_Hbond.Weighted>
0.0000

> <Gold.Chemscore.DEClash.Weighted>
3.2215

> <Gold.Chemscore.DEInternal.Weighted>
2.2059

> <Gold.Chemscore.Rot.Weighted>
6.9081

> <Gold.Chemscore.Internal.Correction.Weighted>
   9.000000E+99

> <Gold.Protein.RotatedTorsions>
[ 6907 6896 6895 6894 ] final   95.87 input  -60.11 | X-H torsion
[ 7974 7965 7964 7962 ] final -160.21 input  175.53 | X-H torsion
[ 8008 7997 7996 7995 ] final  162.26 input   59.86 | X-H torsion
[ 10167 10162 10161 10158 ] final   93.57 input  -65.29 | X-H torsion
[ 10718 10713 10712 10709 ] final   85.57 input   66.30 | X-H torsion
[ 10763 10752 10751 10750 ] final  -40.12 input  -60.55 | X-H torsion
[ 11005 11000 10999 10996 ] final   28.59 input  -57.11 | X-H torsion

> <Gold.Protein.ActiveResidues>
 VAL166  LYS551  ARG553  GLY616  TRP617  ASP618  TYR619  PRO620  LYS621  CYS622 
 ASP623  PHE694  ASN695  SER759  ASP760  ASP761  ALA762  ILE779  LEU786  VAL792 
 PHE793  MET794  SER795  GLU796  ALA797  LYS798  CYS799  TRP800  GLU811  SER814 

> <Gold.Protein.RotatedAtoms>
  152.5440  134.0974  159.8302 H   0  0  0  0  0  0  0  0  0  0  0  0  # atno 6907 bound_to 6896
  151.1056  133.5204  159.2615 H   0  0  0  0  0  0  0  0  0  0  0  0  # atno 6908 bound_to 6896
  151.1942  135.0425  159.8900 H   0  0  0  0  0  0  0  0  0  0  0  0  # atno 6909 bound_to 6896
  144.7435  140.3574  143.6103 H   0  0  0  0  0  0  0  0  0  0  0  0  # atno 7974 bound_to 7965
  156.2044  140.1755  156.7831 H   0  0  0  0  0  0  0  0  0  0  0  0  # atno 8008 bound_to 7997
  154.5635  140.0695  156.8886 H   0  0  0  0  0  0  0  0  0  0  0  0  # atno 8009 bound_to 7997
  155.2804  140.3348  155.4261 H   0  0  0  0  0  0  0  0  0  0  0  0  # atno 8010 bound_to 7997
  139.8167  144.6749  150.9571 H   0  0  0  0  0  0  0  0  0  0  0  0  # atno 10167 bound_to 10162
  157.6916  131.0180  150.2843 H   0  0  0  0  0  0  0  0  0  0  0  0  # atno 10718 bound_to 10713
  153.9407  135.6761  153.4744 H   0  0  0  0  0  0  0  0  0  0  0  0  # atno 10763 bound_to 10752
  153.0933  135.4864  154.8728 H   0  0  0  0  0  0  0  0  0  0  0  0  # atno 10764 bound_to 10752
  154.7379  135.3153  154.8738 H   0  0  0  0  0  0  0  0  0  0  0  0  # atno 10765 bound_to 10752
  140.3139  134.2619  155.7729 H   0  0  0  0  0  0  0  0  0  0  0  0  # atno 11005 bound_to 11000
  145.7213  139.1710  143.2483 LP  0  0  0  0  0  0  0  0  0  0  0  0  # atno 17320 bound_to 7965
  146.1275  140.7229  142.9428 LP  0  0  0  0  0  0  0  0  0  0  0  0  # atno 17321 bound_to 7965
  140.7815  143.4131  151.0960 LP  0  0  0  0  0  0  0  0  0  0  0  0  # atno 17342 bound_to 10162
  139.7794  143.8377  152.3135 LP  0  0  0  0  0  0  0  0  0  0  0  0  # atno 17343 bound_to 10162
  156.3384  130.3811  149.7430 LP  0  0  0  0  0  0  0  0  0  0  0  0  # atno 17370 bound_to 10713
  156.4947  130.8101  151.3108 LP  0  0  0  0  0  0  0  0  0  0  0  0  # atno 17371 bound_to 10713
  141.2102  133.7727  156.9948 LP  0  0  0  0  0  0  0  0  0  0  0  0  # atno 17394 bound_to 11000
  140.1000  134.9541  157.1909 LP  0  0  0  0  0  0  0  0  0  0  0  0  # atno 17395 bound_to 11000

$$$$
