AV-unprocessed.smi:3318|AV-procd|sdf|12765|dock8
  -GOLD-   2272019103D 1   1.00000     0.00000
 Structure written by MMmdl.
 44 45  0  0  0  0  0  0  0  0  2 V2000
  149.0889  132.6542  154.4400 C   0  0  0  0  0  0  0  0  0  0  0  0
  149.5647  134.1049  154.3058 C   0  0  0  0  0  0  0  0  0  0  0  0
  148.6026  135.1005  154.9767 C   0  0  0  0  0  0  0  0  0  0  0  0
  148.9897  136.5147  154.7400 N   0  3  2  0  0  0  0  0  0  0  0  0
  150.3716  136.8302  155.1903 C   0  0  0  0  0  0  0  0  0  0  0  0
  150.7679  138.2673  154.8115 C   0  0  0  0  0  0  0  0  0  0  0  0
  149.7666  139.2888  155.3852 C   0  0  1  0  0  0  0  0  0  0  0  0
  150.0613  140.6385  154.9202 N   0  0  0  0  0  0  0  0  0  0  0  0
  150.8819  141.3774  155.8690 C   0  0  0  0  0  0  0  0  0  0  0  0
  150.0094  141.8888  157.0232 C   0  0  0  0  0  0  0  0  0  0  0  0
  150.7884  142.7873  157.9650 C   0  0  0  0  0  0  0  0  0  0  0  0
  151.4336  143.9474  157.4859 C   0  0  0  0  0  0  0  0  0  0  0  0
  152.1307  144.7553  158.4049 C   0  0  0  0  0  0  0  0  0  0  0  0
  152.1553  144.3746  159.7605 C   0  0  0  0  0  0  0  0  0  0  0  0
  151.4789  143.1975  160.1382 C   0  0  0  0  0  0  0  0  0  0  0  0
  150.8069  142.4161  159.2653 N   0  0  0  0  0  0  0  0  0  0  0  0
  148.3473  138.9173  154.9269 C   0  0  0  0  0  0  0  0  0  0  0  0
  148.0037  137.4688  155.3097 C   0  0  0  0  0  0  0  0  0  0  0  0
  149.7887  131.9703  153.9593 H   0  0  0  0  0  0  0  0  0  0  0  0
  148.1141  132.5133  153.9726 H   0  0  0  0  0  0  0  0  0  0  0  0
  149.0047  132.3620  155.4871 H   0  0  0  0  0  0  0  0  0  0  0  0
  150.5613  134.1830  154.7388 H   0  0  0  0  0  0  0  0  0  0  0  0
  149.6659  134.3501  153.2481 H   0  0  0  0  0  0  0  0  0  0  0  0
  147.6070  134.9311  154.5645 H   0  0  0  0  0  0  0  0  0  0  0  0
  148.5285  134.9079  156.0481 H   0  0  0  0  0  0  0  0  0  0  0  0
  150.4433  136.6959  156.2708 H   0  0  0  0  0  0  0  0  0  0  0  0
  151.0853  136.1416  154.7401 H   0  0  0  0  0  0  0  0  0  0  0  0
  151.7753  138.4643  155.1780 H   0  0  0  0  0  0  0  0  0  0  0  0
  150.8111  138.3563  153.7247 H   0  0  0  0  0  0  0  0  0  0  0  0
  149.7952  139.2663  156.4760 H   0  0  0  0  0  0  0  0  0  0  0  0
  150.5102  140.6099  154.0155 H   0  0  0  0  0  0  0  0  0  0  0  0
  151.6684  140.7287  156.2570 H   0  0  0  0  0  0  0  0  0  0  0  0
  151.3652  142.2202  155.3752 H   0  0  0  0  0  0  0  0  0  0  0  0
  149.1548  142.4440  156.6330 H   0  0  0  0  0  0  0  0  0  0  0  0
  149.5998  141.0485  157.5859 H   0  0  0  0  0  0  0  0  0  0  0  0
  151.3937  144.2157  156.4403 H   0  0  0  0  0  0  0  0  0  0  0  0
  152.6358  145.6514  158.0763 H   0  0  0  0  0  0  0  0  0  0  0  0
  152.6789  144.9704  160.4932 H   0  0  0  0  0  0  0  0  0  0  0  0
  151.4760  142.8758  161.1691 H   0  0  0  0  0  0  0  0  0  0  0  0
  147.6196  139.5963  155.3736 H   0  0  0  0  0  0  0  0  0  0  0  0
  148.2579  139.0353  153.8456 H   0  0  0  0  0  0  0  0  0  0  0  0
  147.0048  137.2321  154.9412 H   0  0  0  0  0  0  0  0  0  0  0  0
  147.9756  137.3617  156.3954 H   0  0  0  0  0  0  0  0  0  0  0  0
  148.9667  136.6528  153.7397 H   0  0  0  0  0  0  0  0  0  0  0  0
  1  2  1  0  0  0  0
  1 19  1  0  0  0  0
  1 20  1  0  0  0  0
  1 21  1  0  0  0  0
  2  3  1  0  0  0  0
  2 22  1  0  0  0  0
  2 23  1  0  0  0  0
  3  4  1  0  0  0  0
  3 24  1  0  0  0  0
  3 25  1  0  0  0  0
  4 18  1  0  0  0  0
  4  5  1  0  0  0  0
  4 44  1  0  0  0  0
  5  6  1  0  0  0  0
  5 26  1  0  0  0  0
  5 27  1  0  0  0  0
  6  7  1  0  0  0  0
  6 28  1  0  0  0  0
  6 29  1  0  0  0  0
  7  8  1  0  0  0  0
  7 17  1  0  0  0  0
  7 30  1  0  0  0  0
  8  9  1  0  0  0  0
  8 31  1  0  0  0  0
  9 10  1  0  0  0  0
  9 32  1  0  0  0  0
  9 33  1  0  0  0  0
 10 11  1  0  0  0  0
 10 34  1  0  0  0  0
 10 35  1  0  0  0  0
 11 16  1  0  0  0  0
 11 12  2  0  0  0  0
 12 13  1  0  0  0  0
 12 36  1  0  0  0  0
 13 14  2  0  0  0  0
 13 37  1  0  0  0  0
 14 15  1  0  0  0  0
 14 38  1  0  0  0  0
 15 16  2  0  0  0  0
 15 39  1  0  0  0  0
 17 18  1  0  0  0  0
 17 40  1  0  0  0  0
 17 41  1  0  0  0  0
 18 42  1  0  0  0  0
 18 43  1  0  0  0  0
M  CHG  1   4   1
M  END
> <s_m_source_file>
AV-unprocessed.smi

> <i_m_source_file_index>
3318

> <i_lp_mmshare_version>
43012

> <i_f3d_flags>
0

> <s_epik_input>
W0NIM11bQ0gyXVtDSDJdTjFbQ0gyXVtDSDJdW0NIXShbQ0gyXVtDSDJdMSlbTkhdW0NIMl1bQ0gyXWMyW2NIXVtjSF1bY0hdW2NIXW4y

> <s_epik_cmdline>
J2VwaWtfcHl0aG9uJywgJy1waCcsICc3LjAnLCAnLXRuJywgJzgnLCAnLW1hJywgJzIwMCcsICctbWV0YWxfYmluZGluZycsICctaW1hZScsICc8aW5maWxlLm1hZT4nLCAnLW9tYWUnLCAnPG91dGZpbGUubWFlPic=

> <r_epik_Ionization_Penalty>
2.30703

> <r_epik_Ionization_Penalty_Charging>
0.000286176

> <r_epik_Ionization_Penalty_Neutral>
2.30674

> <r_epik_State_Penalty>
2.39905

> <r_epik_Charging_Adjusted_Penalty>
2.39933

> <i_epik_Tot_Q>
1

> <i_epik_Tot_abs_Q>
1

> <r_epik_Metal_State_Penalty>
2.30906

> <b_epik_Metal_Only>
0

> <s_lp_Force_Field>
OPLS_2005

> <r_lp_Energy>
18.8506

> <b_lp_Chiralities_Consistent>
1

> <s_lp_Variant>
AV-unprocessed.smi:3318-4

> <Gold.Version>
5.8.1

> <Gold.Id.Protein>
6NUR|6NUR_protein|mol2

> <Gold.PLP.Fitness>
42.5616

> <Gold.PLP.PLP>
-37.6921

> <Gold.PLP.part.hbond>
-2.1136

> <Gold.PLP.part.metal>
0.0000

> <Gold.PLP.part.buried>
-4.2742

> <Gold.PLP.part.nonpolar>
-30.8144

> <Gold.PLP.part.repulsive>
0.0090

> <Gold.PLP.ligand.clash>
0.0000

> <Gold.PLP.ligand.torsion>
0.5911

> <Gold.PLP.Chemscore.Hbond>
2.0000

> <Gold.PLP.Chemscore.CHOScore>
0.0000

> <Gold.PLP.Chemscore.Metal>
0.0000

> <Gold.Chemscore.Hbonds>
donor molecule, donor type, donor heavy atom, donor atom, acceptor molecule, acceptor atom, score
      L1  H     4    44       P1  7948  2.00

> <Gold.PLP.Chemscore.Internal.Correction>
0.0517

> <Gold.Rescore>
     Score         DG    S(hbond)    S(metal)    S(lipo)     H(rot)  DE(clash)    DE(int)     intcor
     17.31     -18.01       0.98        0.00     111.50       1.48       0.30       0.41       ----

> <Gold.Chemscore.Fitness>
17.3090

> <Gold.Chemscore.DG>
-18.0114

> <Gold.Chemscore.ZeroCoef>
-5.4800

> <Gold.Chemscore.Hbond>
0.9812

> <Gold.Chemscore.Metal>
0.0000

> <Gold.Chemscore.Lipo>
111.5049

> <Gold.Chemscore.Internal_Hbond>
0.0000

> <Gold.Chemscore.DEClash>
0.2955

> <Gold.Chemscore.DEInternal>
0.4070

> <Gold.Chemscore.Rot>
1.4811

> <Gold.Chemscore.Internal.Correction>
   9.000000E+99

> <Gold.Chemscore.Hbonds>
donor molecule, donor type, donor heavy atom, donor atom, acceptor molecule, acceptor atom, score
      L1  H     4    44       P1  7948  0.99

> <Gold.Chemscore.Hbond.Weighted>
-3.2771

> <Gold.Chemscore.Metal.Weighted>
-0.0000

> <Gold.Chemscore.Lipo.Weighted>
-13.0461

> <Gold.Chemscore.Internal_Hbond.Weighted>
0.0000

> <Gold.Chemscore.DEClash.Weighted>
0.2955

> <Gold.Chemscore.DEInternal.Weighted>
0.4070

> <Gold.Chemscore.Rot.Weighted>
3.7917

> <Gold.Chemscore.Internal.Correction.Weighted>
   9.000000E+99

> <Gold.Protein.RotatedTorsions>
[ 6907 6896 6895 6894 ] final  -56.65 input  -60.11 | X-H torsion
[ 7974 7965 7964 7962 ] final -126.44 input  175.53 | X-H torsion
[ 8008 7997 7996 7995 ] final   34.35 input   59.86 | X-H torsion
[ 10167 10162 10161 10158 ] final  -29.30 input  -65.29 | X-H torsion
[ 10718 10713 10712 10709 ] final  -49.46 input   66.30 | X-H torsion
[ 10763 10752 10751 10750 ] final -116.62 input  -60.55 | X-H torsion
[ 11005 11000 10999 10996 ] final  -14.18 input  -57.11 | X-H torsion

> <Gold.Protein.ActiveResidues>
 VAL166  LYS551  ARG553  GLY616  TRP617  ASP618  TYR619  PRO620  LYS621  CYS622 
 ASP623  PHE694  ASN695  SER759  ASP760  ASP761  ALA762  ILE779  LEU786  VAL792 
 PHE793  MET794  SER795  GLU796  ALA797  LYS798  CYS799  TRP800  GLU811  SER814 

> <Gold.Protein.RotatedAtoms>
  150.8150  134.7327  159.6721 H   0  0  0  0  0  0  0  0  0  0  0  0  # atno 6907 bound_to 6896
  152.4269  134.5847  159.9967 H   0  0  0  0  0  0  0  0  0  0  0  0  # atno 6908 bound_to 6896
  151.6047  133.3315  159.3090 H   0  0  0  0  0  0  0  0  0  0  0  0  # atno 6909 bound_to 6896
  144.9873  140.7698  143.4576 H   0  0  0  0  0  0  0  0  0  0  0  0  # atno 7974 bound_to 7965
  155.1534  140.3277  155.4426 H   0  0  0  0  0  0  0  0  0  0  0  0  # atno 8008 bound_to 7997
  156.2567  140.1973  156.6595 H   0  0  0  0  0  0  0  0  0  0  0  0  # atno 8009 bound_to 7997
  154.6457  140.0564  156.9883 H   0  0  0  0  0  0  0  0  0  0  0  0  # atno 8010 bound_to 7997
  140.7262  143.3939  151.1381 H   0  0  0  0  0  0  0  0  0  0  0  0  # atno 10167 bound_to 10162
  156.1891  130.4152  149.9397 H   0  0  0  0  0  0  0  0  0  0  0  0  # atno 10718 bound_to 10713
  154.8526  135.4339  154.1850 H   0  0  0  0  0  0  0  0  0  0  0  0  # atno 10763 bound_to 10752
  153.2932  135.6963  153.7279 H   0  0  0  0  0  0  0  0  0  0  0  0  # atno 10764 bound_to 10752
  153.6438  135.3463  155.3054 H   0  0  0  0  0  0  0  0  0  0  0  0  # atno 10765 bound_to 10752
  140.7837  133.8342  155.9315 H   0  0  0  0  0  0  0  0  0  0  0  0  # atno 11005 bound_to 11000
  145.2336  139.2104  143.5030 LP  0  0  0  0  0  0  0  0  0  0  0  0  # atno 17320 bound_to 7965
  146.3423  140.2217  142.8591 LP  0  0  0  0  0  0  0  0  0  0  0  0  # atno 17321 bound_to 7965
  139.7549  143.8723  152.3086 LP  0  0  0  0  0  0  0  0  0  0  0  0  # atno 17342 bound_to 10162
  139.8589  144.7127  150.9124 LP  0  0  0  0  0  0  0  0  0  0  0  0  # atno 17343 bound_to 10162
  156.7143  130.8982  151.3612 LP  0  0  0  0  0  0  0  0  0  0  0  0  # atno 17370 bound_to 10713
  157.6918  130.9241  150.0534 LP  0  0  0  0  0  0  0  0  0  0  0  0  # atno 17371 bound_to 10713
  140.9457  134.1843  157.4765 LP  0  0  0  0  0  0  0  0  0  0  0  0  # atno 17394 bound_to 11000
  139.8739  134.9889  156.5435 LP  0  0  0  0  0  0  0  0  0  0  0  0  # atno 17395 bound_to 11000

$$$$
