AV-unprocessed.smi:528|AV-procd|sdf|2838|dock9
  -GOLD-   2262023333D 1   1.00000     0.00000
 Structure written by MMmdl.
 45 47  0  0  0  0  0  0  0  0  1 V2000
  153.4816  142.8628  162.2989 C   0  0  0  0  0  0  0  0  0  0  0  0
  153.2045  142.5880  160.8109 C   0  0  1  0  0  0  0  0  0  0  0  0
  153.2669  141.1501  160.5593 N   0  0  0  0  0  0  0  0  0  0  0  0
  154.3476  140.3737  160.7304 C   0  0  0  0  0  0  0  0  0  0  0  0
  155.4236  140.7969  161.1556 O   0  0  0  0  0  0  0  0  0  0  0  0
  154.1651  138.8906  160.3772 C   0  0  0  0  0  0  0  0  0  0  0  0
  154.3191  137.9876  161.5301 N   0  0  0  0  0  0  0  0  0  0  0  0
  155.1031  138.4492  162.6057 C   0  0  0  0  0  0  0  0  0  0  0  0
  155.3112  137.7282  163.7240 C   0  0  0  0  0  0  0  0  0  0  0  0
  156.2096  138.2319  164.8429 C   0  0  0  0  0  0  0  0  0  0  0  0
  155.5682  139.1054  165.6194 F   0  0  0  0  0  0  0  0  0  0  0  0
  156.6358  137.2259  165.6073 F   0  0  0  0  0  0  0  0  0  0  0  0
  157.2764  138.8406  164.3267 F   0  0  0  0  0  0  0  0  0  0  0  0
  154.7069  136.4108  163.7639 C   0  0  0  0  0  0  0  0  0  0  0  0
  153.9639  135.9492  162.7389 C   0  0  0  0  0  0  0  0  0  0  0  0
  153.7314  136.7534  161.5369 C   0  0  0  0  0  0  0  0  0  0  0  0
  153.0522  136.3437  160.5949 O   0  0  0  0  0  0  0  0  0  0  0  0
  151.8280  143.1359  160.3658 C   0  0  1  0  0  0  0  0  0  0  0  0
  151.5341  144.5889  160.8024 C   0  0  0  0  0  0  0  0  0  0  0  0
  151.0664  145.2561  159.4953 C   0  0  1  0  0  0  0  0  0  0  0  0
  152.2848  145.4785  158.5811 C   0  0  0  0  0  0  0  0  0  0  0  0
  152.6162  144.0516  158.1077 C   0  0  0  0  0  0  0  0  0  0  0  0
  151.5625  143.1947  158.8396 C   0  0  2  0  0  0  0  0  0  0  0  0
  150.3466  144.1143  158.7871 C   0  0  0  0  0  0  0  0  0  0  0  0
  153.4674  143.9311  162.5149 H   0  0  0  0  0  0  0  0  0  0  0  0
  154.4619  142.4869  162.5932 H   0  0  0  0  0  0  0  0  0  0  0  0
  152.7375  142.3851  162.9371 H   0  0  0  0  0  0  0  0  0  0  0  0
  153.9819  143.0871  160.2309 H   0  0  0  0  0  0  0  0  0  0  0  0
  152.4248  140.7152  160.2106 H   0  0  0  0  0  0  0  0  0  0  0  0
  153.1799  138.7684  159.9246 H   0  0  0  0  0  0  0  0  0  0  0  0
  154.8740  138.6181  159.5929 H   0  0  0  0  0  0  0  0  0  0  0  0
  155.5345  139.4289  162.4592 H   0  0  0  0  0  0  0  0  0  0  0  0
  154.8490  135.7838  164.6318 H   0  0  0  0  0  0  0  0  0  0  0  0
  153.5275  134.9633  162.8038 H   0  0  0  0  0  0  0  0  0  0  0  0
  151.0605  142.4922  160.7999 H   0  0  0  0  0  0  0  0  0  0  0  0
  150.7466  144.6088  161.5568 H   0  0  0  0  0  0  0  0  0  0  0  0
  152.4049  145.0946  161.2216 H   0  0  0  0  0  0  0  0  0  0  0  0
  150.4681  146.1540  159.6522 H   0  0  0  0  0  0  0  0  0  0  0  0
  152.0252  146.1127  157.7325 H   0  0  0  0  0  0  0  0  0  0  0  0
  153.1177  145.9469  159.1067 H   0  0  0  0  0  0  0  0  0  0  0  0
  152.4850  143.9734  157.0277 H   0  0  0  0  0  0  0  0  0  0  0  0
  153.6423  143.7595  158.3282 H   0  0  0  0  0  0  0  0  0  0  0  0
  151.4063  142.2160  158.3846 H   0  0  0  0  0  0  0  0  0  0  0  0
  149.4874  143.7333  159.3422 H   0  0  0  0  0  0  0  0  0  0  0  0
  150.0342  144.3633  157.7713 H   0  0  0  0  0  0  0  0  0  0  0  0
  1  2  1  0  0  0  0
  1 25  1  0  0  0  0
  1 26  1  0  0  0  0
  1 27  1  0  0  0  0
  2  3  1  0  0  0  0
  2 18  1  0  0  0  0
  2 28  1  0  0  0  0
  3  4  1  0  0  0  0
  3 29  1  0  0  0  0
  4  5  2  0  0  0  0
  4  6  1  0  0  0  0
  6  7  1  0  0  0  0
  6 30  1  0  0  0  0
  6 31  1  0  0  0  0
  7 16  1  0  0  0  0
  7  8  1  0  0  0  0
  8  9  2  0  0  0  0
  8 32  1  0  0  0  0
  9 10  1  0  0  0  0
  9 14  1  0  0  0  0
 10 11  1  0  0  0  0
 10 12  1  0  0  0  0
 10 13  1  0  0  0  0
 14 15  2  0  0  0  0
 14 33  1  0  0  0  0
 15 16  1  0  0  0  0
 15 34  1  0  0  0  0
 16 17  2  0  0  0  0
 18 23  1  0  0  0  0
 18 19  1  0  0  0  0
 18 35  1  0  0  0  0
 19 20  1  0  0  0  0
 19 36  1  0  0  0  0
 19 37  1  0  0  0  0
 20 24  1  0  0  0  0
 20 21  1  0  0  0  0
 20 38  1  0  0  0  0
 21 22  1  0  0  0  0
 21 39  1  0  0  0  0
 21 40  1  0  0  0  0
 22 23  1  0  0  0  0
 22 41  1  0  0  0  0
 22 42  1  0  0  0  0
 23 24  1  0  0  0  0
 23 43  1  0  0  0  0
 24 44  1  0  0  0  0
 24 45  1  0  0  0  0
M  END
> <s_m_source_file>
AV-unprocessed.smi

> <i_m_source_file_index>
528

> <i_lp_mmshare_version>
43012

> <i_f3d_flags>
0

> <s_epik_input>
W0NIMl0xW0NIMl1bQ0BASF0oW0NIMl0yKVtDQEBIXShbQ0gyXVtDQEhdMTIpW0NASF0oW0NIM10pW05IXUMoPU8pW0NIMl1uM1tjSF1jKEMoRikoRilGKVtjSF1bY0hdYzM9Tw==

> <s_epik_cmdline>
J2VwaWtfcHl0aG9uJywgJy1waCcsICc3LjAnLCAnLXRuJywgJzgnLCAnLW1hJywgJzIwMCcsICctbWV0YWxfYmluZGluZycsICctaW1hZScsICc8aW5maWxlLm1hZT4nLCAnLW9tYWUnLCAnPG91dGZpbGUubWFlPic=

> <r_lp_tautomer_probability>
1

> <r_epik_Ionization_Penalty>
4.09479e-08

> <r_epik_Ionization_Penalty_Charging>
1.9321e-08

> <r_epik_Ionization_Penalty_Neutral>
2.16269e-08

> <r_epik_State_Penalty>
-0

> <r_epik_Charging_Adjusted_Penalty>
1.9321e-08

> <i_epik_Tot_Q>
0

> <i_epik_Tot_abs_Q>
0

> <r_epik_Metal_State_Penalty>
-0

> <b_epik_Metal_Only>
0

> <s_lp_Force_Field>
OPLS_2005

> <r_lp_Energy>
62.533

> <b_lp_Chiralities_Consistent>
1

> <s_lp_Variant>
AV-unprocessed.smi:528-8

> <Gold.Version>
5.8.1

> <Gold.Id.Protein>
6NUR|6NUR_protein|mol2

> <Gold.PLP.Fitness>
50.4561

> <Gold.PLP.PLP>
-49.9478

> <Gold.PLP.part.hbond>
-2.0000

> <Gold.PLP.part.metal>
0.0000

> <Gold.PLP.part.buried>
-5.1929

> <Gold.PLP.part.nonpolar>
-42.5388

> <Gold.PLP.part.repulsive>
0.0725

> <Gold.PLP.ligand.clash>
0.0000

> <Gold.PLP.ligand.torsion>
1.2764

> <Gold.PLP.Chemscore.Hbond>
1.0000

> <Gold.PLP.Chemscore.CHOScore>
0.0000

> <Gold.PLP.Chemscore.Metal>
0.0000

> <Gold.Chemscore.Hbonds>
donor molecule, donor type, donor heavy atom, donor atom, acceptor molecule, acceptor atom, score
      P1  H  6896  6907       L1    17  1.00

> <Gold.PLP.Chemscore.Internal.Correction>
0.0611

> <Gold.Rescore>
     Score         DG    S(hbond)    S(metal)    S(lipo)     H(rot)  DE(clash)    DE(int)     intcor
     16.86     -20.39       0.99        0.00     136.54       1.71       1.31       2.22       ----

> <Gold.Chemscore.Fitness>
16.8632

> <Gold.Chemscore.DG>
-20.3920

> <Gold.Chemscore.ZeroCoef>
-5.4800

> <Gold.Chemscore.Hbond>
0.9942

> <Gold.Chemscore.Metal>
0.0000

> <Gold.Chemscore.Lipo>
136.5401

> <Gold.Chemscore.Internal_Hbond>
0.0000

> <Gold.Chemscore.DEClash>
1.3137

> <Gold.Chemscore.DEInternal>
2.2151

> <Gold.Chemscore.Rot>
1.7125

> <Gold.Chemscore.Internal.Correction>
   9.000000E+99

> <Gold.Chemscore.Hbonds>
donor molecule, donor type, donor heavy atom, donor atom, acceptor molecule, acceptor atom, score
      P1  H  6896  6907       L1    17  0.99

> <Gold.Chemscore.Hbond.Weighted>
-3.3208

> <Gold.Chemscore.Metal.Weighted>
-0.0000

> <Gold.Chemscore.Lipo.Weighted>
-15.9752

> <Gold.Chemscore.Internal_Hbond.Weighted>
0.0000

> <Gold.Chemscore.DEClash.Weighted>
1.3137

> <Gold.Chemscore.DEInternal.Weighted>
2.2151

> <Gold.Chemscore.Rot.Weighted>
4.3840

> <Gold.Chemscore.Internal.Correction.Weighted>
   9.000000E+99

> <Gold.Protein.RotatedTorsions>
[ 6907 6896 6895 6894 ] final   46.88 input  -60.11 | X-H torsion
[ 7974 7965 7964 7962 ] final  134.19 input  175.53 | X-H torsion
[ 8008 7997 7996 7995 ] final   11.09 input   59.86 | X-H torsion
[ 10167 10162 10161 10158 ] final  -39.12 input  -65.29 | X-H torsion
[ 10718 10713 10712 10709 ] final  168.06 input   66.30 | X-H torsion
[ 10763 10752 10751 10750 ] final   58.07 input  -60.55 | X-H torsion
[ 11005 11000 10999 10996 ] final  -93.41 input  -57.11 | X-H torsion

> <Gold.Protein.ActiveResidues>
 VAL166  LYS551  ARG553  GLY616  TRP617  ASP618  TYR619  PRO620  LYS621  CYS622 
 ASP623  PHE694  ASN695  SER759  ASP760  ASP761  ALA762  ILE779  LEU786  VAL792 
 PHE793  MET794  SER795  GLU796  ALA797  LYS798  CYS799  TRP800  GLU811  SER814 

> <Gold.Protein.RotatedAtoms>
  152.2616  134.8028  160.0429 H   0  0  0  0  0  0  0  0  0  0  0  0  # atno 6907 bound_to 6896
  151.8673  133.3463  159.3731 H   0  0  0  0  0  0  0  0  0  0  0  0  # atno 6908 bound_to 6896
  150.7118  134.5075  159.5635 H   0  0  0  0  0  0  0  0  0  0  0  0  # atno 6909 bound_to 6896
  144.9789  139.4525  143.5396 H   0  0  0  0  0  0  0  0  0  0  0  0  # atno 7974 bound_to 7965
  154.8022  140.2854  155.5913 H   0  0  0  0  0  0  0  0  0  0  0  0  # atno 8008 bound_to 7997
  156.2978  140.2584  156.2822 H   0  0  0  0  0  0  0  0  0  0  0  0  # atno 8009 bound_to 7997
  154.9545  140.0379  157.2149 H   0  0  0  0  0  0  0  0  0  0  0  0  # atno 8010 bound_to 7997
  140.7073  143.3234  151.2738 H   0  0  0  0  0  0  0  0  0  0  0  0  # atno 10167 bound_to 10162
  157.0426  131.0291  151.2708 H   0  0  0  0  0  0  0  0  0  0  0  0  # atno 10718 bound_to 10713
  152.9863  135.5619  154.5492 H   0  0  0  0  0  0  0  0  0  0  0  0  # atno 10763 bound_to 10752
  154.4933  135.2794  155.1482 H   0  0  0  0  0  0  0  0  0  0  0  0  # atno 10764 bound_to 10752
  154.2942  135.6320  153.5451 H   0  0  0  0  0  0  0  0  0  0  0  0  # atno 10765 bound_to 10752
  141.1498  133.7886  157.0155 H   0  0  0  0  0  0  0  0  0  0  0  0  # atno 11005 bound_to 11000
  146.3403  139.9049  142.8789 LP  0  0  0  0  0  0  0  0  0  0  0  0  # atno 17320 bound_to 7965
  145.2450  141.0023  143.3914 LP  0  0  0  0  0  0  0  0  0  0  0  0  # atno 17321 bound_to 7965
  139.6694  144.0046  152.2744 LP  0  0  0  0  0  0  0  0  0  0  0  0  # atno 17342 bound_to 10162
  139.9640  144.6539  150.8052 LP  0  0  0  0  0  0  0  0  0  0  0  0  # atno 17343 bound_to 10162
  157.5093  130.7928  149.7687 LP  0  0  0  0  0  0  0  0  0  0  0  0  # atno 17370 bound_to 10713
  156.0033  130.3868  150.2523 LP  0  0  0  0  0  0  0  0  0  0  0  0  # atno 17371 bound_to 10713
  140.0850  134.9626  157.1685 LP  0  0  0  0  0  0  0  0  0  0  0  0  # atno 17394 bound_to 11000
  140.3525  134.2583  155.7197 LP  0  0  0  0  0  0  0  0  0  0  0  0  # atno 17395 bound_to 11000

$$$$
