AV-unprocessed.smi:1809|AV-procd|sdf|7327|dock4
  -GOLD-   22720 8583D 1   1.00000     0.00000
 Structure written by MMmdl.
 39 41  0  0  0  0  0  0  0  0  3 V2000
  152.4929  142.7303  160.1755 C   0  0  0  0  0  0  0  0  0  0  0  0
  152.5121  141.5171  159.3104 C   0  0  0  0  0  0  0  0  0  0  0  0
  153.5070  140.6268  159.3359 N   0  0  0  0  0  0  0  0  0  0  0  0
  153.2994  139.5854  158.4429 N   0  0  0  0  0  0  0  0  0  0  0  0
  152.1486  139.6967  157.7639 C   0  0  0  0  0  0  0  0  0  0  0  0
  151.7631  138.7942  156.8466 N   0  5  0  0  0  0  0  0  0  0  0  0
  151.2098  139.2063  155.6846 C   0  0  0  0  0  0  0  0  0  0  0  0
  151.5751  140.1621  154.9963 O   0  0  0  0  0  0  0  0  0  0  0  0
  150.1657  138.4656  155.2938 N   0  0  0  0  0  0  0  0  0  0  0  0
  149.3780  138.7030  154.0929 C   0  0  0  0  0  0  0  0  0  0  0  0
  147.9008  138.9576  154.4488 C   0  0  2  0  0  0  0  0  0  0  0  0
  147.1077  137.6476  154.6738 C   0  0  0  0  0  0  0  0  0  0  0  0
  146.8512  137.0137  153.3669 N   0  3  1  0  0  0  0  0  0  0  0  0
  146.1153  135.7382  153.3448 C   0  0  0  0  0  0  0  0  0  0  0  0
  145.4970  135.6622  151.9345 C   0  0  0  0  0  0  0  0  0  0  0  0
  145.7871  137.0235  151.2770 C   0  0  0  0  0  0  0  0  0  0  0  0
  146.1320  137.9161  152.4652 C   0  0  2  0  0  0  0  0  0  0  0  0
  146.9931  139.1583  152.2070 C   0  0  0  0  0  0  0  0  0  0  0  0
  147.2499  139.7816  153.4682 O   0  0  0  0  0  0  0  0  0  0  0  0
  151.2246  141.1406  158.1781 S   0  0  0  0  0  0  0  0  0  0  0  0
  152.1358  142.4707  161.1721 H   0  0  0  0  0  0  0  0  0  0  0  0
  151.8315  143.4860  159.7514 H   0  0  0  0  0  0  0  0  0  0  0  0
  153.4949  143.1518  160.2589 H   0  0  0  0  0  0  0  0  0  0  0  0
  149.8938  137.6910  155.8820 H   0  0  0  0  0  0  0  0  0  0  0  0
  149.7995  139.5423  153.5385 H   0  0  0  0  0  0  0  0  0  0  0  0
  149.4560  137.8294  153.4440 H   0  0  0  0  0  0  0  0  0  0  0  0
  147.8858  139.5191  155.3838 H   0  0  0  0  0  0  0  0  0  0  0  0
  147.6590  136.9643  155.3208 H   0  0  0  0  0  0  0  0  0  0  0  0
  146.1589  137.8631  155.1672 H   0  0  0  0  0  0  0  0  0  0  0  0
  146.7790  134.9000  153.5580 H   0  0  0  0  0  0  0  0  0  0  0  0
  145.3271  135.7491  154.0993 H   0  0  0  0  0  0  0  0  0  0  0  0
  145.9272  134.8489  151.3493 H   0  0  0  0  0  0  0  0  0  0  0  0
  144.4231  135.4847  152.0038 H   0  0  0  0  0  0  0  0  0  0  0  0
  146.6453  136.9372  150.6088 H   0  0  0  0  0  0  0  0  0  0  0  0
  144.9454  137.4023  150.6965 H   0  0  0  0  0  0  0  0  0  0  0  0
  145.2004  138.2218  152.9469 H   0  0  0  0  0  0  0  0  0  0  0  0
  147.9240  138.9047  151.6992 H   0  0  0  0  0  0  0  0  0  0  0  0
  146.4623  139.8622  151.5658 H   0  0  0  0  0  0  0  0  0  0  0  0
  147.7480  136.8360  152.9371 H   0  0  0  0  0  0  0  0  0  0  0  0
  1  2  1  0  0  0  0
  1 21  1  0  0  0  0
  1 22  1  0  0  0  0
  1 23  1  0  0  0  0
  2 20  1  0  0  0  0
  2  3  2  0  0  0  0
  3  4  1  0  0  0  0
  4  5  2  0  0  0  0
  5  6  1  0  0  0  0
  5 20  1  0  0  0  0
  6  7  1  0  0  0  0
  7  8  2  0  0  0  0
  7  9  1  0  0  0  0
  9 10  1  0  0  0  0
  9 24  1  0  0  0  0
 10 11  1  0  0  0  0
 10 25  1  0  0  0  0
 10 26  1  0  0  0  0
 11 19  1  0  0  0  0
 11 12  1  0  0  0  0
 11 27  1  0  0  0  0
 12 13  1  0  0  0  0
 12 28  1  0  0  0  0
 12 29  1  0  0  0  0
 13 17  1  0  0  0  0
 13 14  1  0  0  0  0
 13 39  1  0  0  0  0
 14 15  1  0  0  0  0
 14 30  1  0  0  0  0
 14 31  1  0  0  0  0
 15 16  1  0  0  0  0
 15 32  1  0  0  0  0
 15 33  1  0  0  0  0
 16 17  1  0  0  0  0
 16 34  1  0  0  0  0
 16 35  1  0  0  0  0
 17 18  1  0  0  0  0
 17 36  1  0  0  0  0
 18 19  1  0  0  0  0
 18 37  1  0  0  0  0
 18 38  1  0  0  0  0
M  CHG  1   6  -1
M  CHG  1  13   1
M  END
> <s_m_source_file>
AV-unprocessed.smi

> <i_m_source_file_index>
1809

> <i_lp_mmshare_version>
43012

> <i_f3d_flags>
0

> <s_epik_input>
W0NIM11jMW5uYyhzMSlbTkhdQyg9TylbTkhdW0NIMl1bQ0BIXShbQ0gyXTIpT1tDSDJdW0NAQEhdKE4yMylbQ0gyXVtDSDJdW0NIMl0z

> <s_epik_cmdline>
J2VwaWtfcHl0aG9uJywgJy1waCcsICc3LjAnLCAnLXRuJywgJzgnLCAnLW1hJywgJzIwMCcsICctbWV0YWxfYmluZGluZycsICctaW1hZScsICc8aW5maWxlLm1hZT4nLCAnLW9tYWUnLCAnPG91dGZpbGUubWFlPic=

> <r_lp_tautomer_probability>
1

> <r_epik_Ionization_Penalty>
3.2601

> <r_epik_Ionization_Penalty_Charging>
3.1406

> <r_epik_Ionization_Penalty_Neutral>
0.119497

> <r_epik_State_Penalty>
3.08894

> <r_epik_Charging_Adjusted_Penalty>
6.22954

> <i_epik_Tot_Q>
0

> <i_epik_Tot_abs_Q>
2

> <r_epik_Metal_State_Penalty>
0.510807

> <b_epik_Metal_Only>
1

> <s_lp_Force_Field>
OPLS_2005

> <r_lp_Energy>
31.1042

> <b_lp_Chiralities_Consistent>
1

> <s_lp_Variant>
AV-unprocessed.smi:1809-19

> <Gold.Version>
5.8.1

> <Gold.Id.Protein>
6NUR|6NUR_protein|mol2

> <Gold.PLP.Fitness>
38.1980

> <Gold.PLP.PLP>
-28.2521

> <Gold.PLP.part.hbond>
-3.0000

> <Gold.PLP.part.metal>
0.0000

> <Gold.PLP.part.buried>
1.5988

> <Gold.PLP.part.nonpolar>
-26.5395

> <Gold.PLP.part.repulsive>
0.2866

> <Gold.PLP.ligand.clash>
0.0000

> <Gold.PLP.ligand.torsion>
0.9325

> <Gold.PLP.Chemscore.Hbond>
3.9260

> <Gold.PLP.Chemscore.CHOScore>
0.0000

> <Gold.PLP.Chemscore.Metal>
0.0000

> <Gold.Chemscore.Hbonds>
donor molecule, donor type, donor heavy atom, donor atom, acceptor molecule, acceptor atom, score
      L1  H    13    39       P1  7948  2.00
      P1  H  7989  7998       L1     8  1.00
      P1  H  7997  8009       L1     4  0.80

> <Gold.PLP.Chemscore.Internal.Correction>
0.0328

> <Gold.Rescore>
     Score         DG    S(hbond)    S(metal)    S(lipo)     H(rot)  DE(clash)    DE(int)     intcor
     15.77     -16.63       2.05        0.00      65.71       1.32       0.03       0.83       ----

> <Gold.Chemscore.Fitness>
15.7651

> <Gold.Chemscore.DG>
-16.6301

> <Gold.Chemscore.ZeroCoef>
-5.4800

> <Gold.Chemscore.Hbond>
2.0518

> <Gold.Chemscore.Metal>
0.0000

> <Gold.Chemscore.Lipo>
65.7109

> <Gold.Chemscore.Internal_Hbond>
0.0000

> <Gold.Chemscore.DEClash>
0.0301

> <Gold.Chemscore.DEInternal>
0.8350

> <Gold.Chemscore.Rot>
1.3246

> <Gold.Chemscore.Internal.Correction>
   9.000000E+99

> <Gold.Chemscore.Hbonds>
donor molecule, donor type, donor heavy atom, donor atom, acceptor molecule, acceptor atom, score
      L1  H    13    39       P1  7948  1.00
      P1  H  7989  7998       L1     8  0.95
      P1  H  7997  8009       L1     4  0.08

> <Gold.Chemscore.Hbond.Weighted>
-6.8529

> <Gold.Chemscore.Metal.Weighted>
-0.0000

> <Gold.Chemscore.Lipo.Weighted>
-7.6882

> <Gold.Chemscore.Internal_Hbond.Weighted>
0.0000

> <Gold.Chemscore.DEClash.Weighted>
0.0301

> <Gold.Chemscore.DEInternal.Weighted>
0.8350

> <Gold.Chemscore.Rot.Weighted>
3.3910

> <Gold.Chemscore.Internal.Correction.Weighted>
   9.000000E+99

> <Gold.Protein.RotatedTorsions>
[ 6907 6896 6895 6894 ] final  -48.19 input  -60.11 | X-H torsion
[ 7974 7965 7964 7962 ] final -110.86 input  175.53 | X-H torsion
[ 8008 7997 7996 7995 ] final  133.55 input   59.86 | X-H torsion
[ 10167 10162 10161 10158 ] final -169.33 input  -65.29 | X-H torsion
[ 10718 10713 10712 10709 ] final -175.42 input   66.30 | X-H torsion
[ 10763 10752 10751 10750 ] final -158.79 input  -60.55 | X-H torsion
[ 11005 11000 10999 10996 ] final  -97.45 input  -57.11 | X-H torsion

> <Gold.Protein.ActiveResidues>
 VAL166  LYS551  ARG553  GLY616  TRP617  ASP618  TYR619  PRO620  LYS621  CYS622 
 ASP623  PHE694  ASN695  SER759  ASP760  ASP761  ALA762  ILE779  LEU786  VAL792 
 PHE793  MET794  SER795  GLU796  ALA797  LYS798  CYS799  TRP800  GLU811  SER814 

> <Gold.Protein.RotatedAtoms>
  150.8931  134.8337  159.7307 H   0  0  0  0  0  0  0  0  0  0  0  0  # atno 6907 bound_to 6896
  152.4849  134.4617  159.9617 H   0  0  0  0  0  0  0  0  0  0  0  0  # atno 6908 bound_to 6896
  151.4678  133.3537  159.2854 H   0  0  0  0  0  0  0  0  0  0  0  0  # atno 6909 bound_to 6896
  145.1631  140.8888  143.3579 H   0  0  0  0  0  0  0  0  0  0  0  0  # atno 7974 bound_to 7965
  156.2993  140.2518  156.3272 H   0  0  0  0  0  0  0  0  0  0  0  0  # atno 8008 bound_to 7997
  154.9179  140.0401  157.2001 H   0  0  0  0  0  0  0  0  0  0  0  0  # atno 8009 bound_to 7997
  154.8340  140.2880  155.5707 H   0  0  0  0  0  0  0  0  0  0  0  0  # atno 8010 bound_to 7997
  139.5929  144.1174  152.1655 H   0  0  0  0  0  0  0  0  0  0  0  0  # atno 10167 bound_to 10162
  156.7995  130.9547  151.3119 H   0  0  0  0  0  0  0  0  0  0  0  0  # atno 10718 bound_to 10713
  154.7528  135.3097  154.8526 H   0  0  0  0  0  0  0  0  0  0  0  0  # atno 10763 bound_to 10752
  153.9308  135.6785  153.4750 H   0  0  0  0  0  0  0  0  0  0  0  0  # atno 10764 bound_to 10752
  153.1124  135.4860  154.8987 H   0  0  0  0  0  0  0  0  0  0  0  0  # atno 10765 bound_to 10752
  141.1378  133.8172  157.0708 H   0  0  0  0  0  0  0  0  0  0  0  0  # atno 11005 bound_to 11000
  145.0310  139.3341  143.6024 LP  0  0  0  0  0  0  0  0  0  0  0  0  # atno 17320 bound_to 7965
  146.3479  139.9648  142.8713 LP  0  0  0  0  0  0  0  0  0  0  0  0  # atno 17321 bound_to 7965
  140.0753  144.5746  150.7162 LP  0  0  0  0  0  0  0  0  0  0  0  0  # atno 17342 bound_to 10162
  140.7188  143.2569  151.4347 LP  0  0  0  0  0  0  0  0  0  0  0  0  # atno 17343 bound_to 10162
  157.6560  130.8925  149.9731 LP  0  0  0  0  0  0  0  0  0  0  0  0  # atno 17370 bound_to 10713
  156.1109  130.3650  150.0050 LP  0  0  0  0  0  0  0  0  0  0  0  0  # atno 17371 bound_to 10713
  140.0512  134.9804  157.1140 LP  0  0  0  0  0  0  0  0  0  0  0  0  # atno 17394 bound_to 11000
  140.3986  134.2106  155.7164 LP  0  0  0  0  0  0  0  0  0  0  0  0  # atno 17395 bound_to 11000

$$$$
