AV-unprocessed.smi:2902|AV-procd|sdf|11157|dock3
  -GOLD-   2272016 43D 1   1.00000     0.00000
 Structure written by MMmdl.
 47 48  0  0  0  0  0  0  0  0  1 V2000
  154.7803  140.2617  160.7227 C   0  0  0  0  0  0  0  0  0  0  0  0
  153.5092  139.8779  159.9549 C   0  0  0  0  0  0  0  0  0  0  0  0
  152.8680  141.0758  159.2294 C   0  0  2  0  0  0  0  0  0  0  0  0
  152.1396  141.8349  160.1958 O   0  0  0  0  0  0  0  0  0  0  0  0
  152.4232  143.2308  160.2749 C   0  0  0  0  0  0  0  0  0  0  0  0
  151.5175  143.9891  161.2499 C   0  0  0  0  0  0  0  0  0  0  0  0
  151.5309  145.4398  160.7540 C   0  0  0  0  0  0  0  0  0  0  0  0
  151.9490  145.3868  159.2759 C   0  0  0  0  0  0  0  0  0  0  0  0
  152.1258  143.9033  158.9361 C   0  0  0  0  0  0  0  0  0  0  0  0
  151.9351  140.6125  158.0988 C   0  0  0  0  0  0  0  0  0  0  0  0
  151.4065  139.5015  158.1416 O   0  0  0  0  0  0  0  0  0  0  0  0
  151.7310  141.4899  157.1040 N   0  0  0  0  0  0  0  0  0  0  0  0
  150.8656  141.2805  155.9458 C   0  0  1  0  0  0  0  0  0  0  0  0
  151.4090  140.1046  155.1105 C   0  0  0  0  0  0  0  0  0  0  0  0
  149.4018  141.0787  156.4135 C   0  0  1  0  0  0  0  0  0  0  0  0
  149.0135  141.9961  157.5879 C   0  0  0  0  0  0  0  0  0  0  0  0
  148.4561  141.2491  155.3192 N   0  0  0  0  0  0  0  0  0  0  0  0
  148.6577  141.4198  154.0101 C   0  0  0  0  0  0  0  0  0  0  0  0
  147.5413  141.5498  153.3076 N   0  0  0  0  0  0  0  0  0  0  0  0
  146.6249  141.4465  154.3154 C   0  0  0  0  0  0  0  0  0  0  0  0
  147.1203  141.2686  155.5401 N   0  0  0  0  0  0  0  0  0  0  0  0
  155.2148  139.3912  161.2143 H   0  0  0  0  0  0  0  0  0  0  0  0
  154.5682  141.0054  161.4912 H   0  0  0  0  0  0  0  0  0  0  0  0
  155.5344  140.6768  160.0537 H   0  0  0  0  0  0  0  0  0  0  0  0
  153.7610  139.1006  159.2317 H   0  0  0  0  0  0  0  0  0  0  0  0
  152.7929  139.4322  160.6464 H   0  0  0  0  0  0  0  0  0  0  0  0
  153.6694  141.6834  158.8056 H   0  0  0  0  0  0  0  0  0  0  0  0
  153.4696  143.4137  160.5232 H   0  0  0  0  0  0  0  0  0  0  0  0
  150.5022  143.5942  161.1888 H   0  0  0  0  0  0  0  0  0  0  0  0
  151.8458  143.9016  162.2860 H   0  0  0  0  0  0  0  0  0  0  0  0
  150.5566  145.9115  160.8848 H   0  0  0  0  0  0  0  0  0  0  0  0
  152.2552  146.0256  161.3212 H   0  0  0  0  0  0  0  0  0  0  0  0
  151.2144  145.8612  158.6244 H   0  0  0  0  0  0  0  0  0  0  0  0
  152.8930  145.9167  159.1427 H   0  0  0  0  0  0  0  0  0  0  0  0
  152.9075  143.7304  158.1958 H   0  0  0  0  0  0  0  0  0  0  0  0
  151.1924  143.5116  158.5289 H   0  0  0  0  0  0  0  0  0  0  0  0
  152.2042  142.3802  157.1596 H   0  0  0  0  0  0  0  0  0  0  0  0
  150.8938  142.1750  155.3204 H   0  0  0  0  0  0  0  0  0  0  0  0
  150.8429  139.9664  154.1895 H   0  0  0  0  0  0  0  0  0  0  0  0
  151.3667  139.1698  155.6706 H   0  0  0  0  0  0  0  0  0  0  0  0
  152.4477  140.2718  154.8231 H   0  0  0  0  0  0  0  0  0  0  0  0
  149.3073  140.0488  156.7639 H   0  0  0  0  0  0  0  0  0  0  0  0
  149.6302  141.8082  158.4668 H   0  0  0  0  0  0  0  0  0  0  0  0
  147.9756  141.8352  157.8815 H   0  0  0  0  0  0  0  0  0  0  0  0
  149.1245  143.0481  157.3235 H   0  0  0  0  0  0  0  0  0  0  0  0
  149.6406  141.4479  153.5626 H   0  0  0  0  0  0  0  0  0  0  0  0
  145.5605  141.5061  154.1416 H   0  0  0  0  0  0  0  0  0  0  0  0
  1  2  1  0  0  0  0
  1 22  1  0  0  0  0
  1 23  1  0  0  0  0
  1 24  1  0  0  0  0
  2  3  1  0  0  0  0
  2 25  1  0  0  0  0
  2 26  1  0  0  0  0
  3  4  1  0  0  0  0
  3 10  1  0  0  0  0
  3 27  1  0  0  0  0
  4  5  1  0  0  0  0
  5  9  1  0  0  0  0
  5  6  1  0  0  0  0
  5 28  1  0  0  0  0
  6  7  1  0  0  0  0
  6 29  1  0  0  0  0
  6 30  1  0  0  0  0
  7  8  1  0  0  0  0
  7 31  1  0  0  0  0
  7 32  1  0  0  0  0
  8  9  1  0  0  0  0
  8 33  1  0  0  0  0
  8 34  1  0  0  0  0
  9 35  1  0  0  0  0
  9 36  1  0  0  0  0
 10 11  2  0  0  0  0
 10 12  1  0  0  0  0
 12 13  1  0  0  0  0
 12 37  1  0  0  0  0
 13 14  1  0  0  0  0
 13 15  1  0  0  0  0
 13 38  1  0  0  0  0
 14 39  1  0  0  0  0
 14 40  1  0  0  0  0
 14 41  1  0  0  0  0
 15 16  1  0  0  0  0
 15 17  1  0  0  0  0
 15 42  1  0  0  0  0
 16 43  1  0  0  0  0
 16 44  1  0  0  0  0
 16 45  1  0  0  0  0
 17 21  1  0  0  0  0
 17 18  1  0  0  0  0
 18 19  2  0  0  0  0
 18 46  1  0  0  0  0
 19 20  1  0  0  0  0
 20 21  2  0  0  0  0
 20 47  1  0  0  0  0
M  END
> <s_m_source_file>
AV-unprocessed.smi

> <i_m_source_file_index>
2902

> <i_lp_mmshare_version>
43012

> <i_f3d_flags>
0

> <s_epik_input>
W0NIMl0xW0NIMl1bQ0gyXVtDSDJdW0NIXTFPW0NAQEhdKFtDSDJdW0NIM10pQyg9TylbTkhdW0NASF0oW0NIM10pW0NASF0oW0NIM10pbjJbY0hdbltjSF1uMg==

> <s_epik_cmdline>
J2VwaWtfcHl0aG9uJywgJy1waCcsICc3LjAnLCAnLXRuJywgJzgnLCAnLW1hJywgJzIwMCcsICctbWV0YWxfYmluZGluZycsICctaW1hZScsICc8aW5maWxlLm1hZT4nLCAnLW9tYWUnLCAnPG91dGZpbGUubWFlPic=

> <r_lp_tautomer_probability>
1

> <r_epik_Ionization_Penalty>
6.95617e-05

> <r_epik_Ionization_Penalty_Charging>
0

> <r_epik_Ionization_Penalty_Neutral>
6.95617e-05

> <r_epik_State_Penalty>
-0

> <r_epik_Charging_Adjusted_Penalty>
0

> <i_epik_Tot_Q>
0

> <i_epik_Tot_abs_Q>
0

> <r_epik_Metal_State_Penalty>
-0

> <b_epik_Metal_Only>
0

> <s_lp_Force_Field>
OPLS_2005

> <r_lp_Energy>
29.96

> <b_lp_Chiralities_Consistent>
1

> <s_lp_Variant>
AV-unprocessed.smi:2902-7

> <Gold.Version>
5.8.1

> <Gold.Id.Protein>
6NUR|6NUR_protein|mol2

> <Gold.PLP.Fitness>
44.6874

> <Gold.PLP.PLP>
-43.1827

> <Gold.PLP.part.hbond>
0.0000

> <Gold.PLP.part.metal>
0.0000

> <Gold.PLP.part.buried>
-4.6789

> <Gold.PLP.part.nonpolar>
-38.4224

> <Gold.PLP.part.repulsive>
0.3498

> <Gold.PLP.ligand.clash>
0.0000

> <Gold.PLP.ligand.torsion>
2.1203

> <Gold.PLP.Chemscore.Hbond>
0.0000

> <Gold.PLP.Chemscore.CHOScore>
1.7911

> <Gold.PLP.Chemscore.Metal>
0.0000

> <Gold.Chemscore.Hbonds>
donor molecule, donor type, donor heavy atom, donor atom, acceptor molecule, acceptor atom, score
      L1  C    18    46       P1  7957  0.24
      L1  C    20    47       P1 10175  0.59

> <Gold.PLP.Chemscore.Internal.Correction>
0.3720

> <Gold.Rescore>
     Score         DG    S(hbond)    S(metal)    S(lipo)     H(rot)  DE(clash)    DE(int)     intcor
      7.89     -10.82       0.00        0.00     104.56       2.69       0.09       2.84       ----

> <Gold.Chemscore.Fitness>
7.8914

> <Gold.Chemscore.DG>
-10.8184

> <Gold.Chemscore.ZeroCoef>
-5.4800

> <Gold.Chemscore.Hbond>
0.0000

> <Gold.Chemscore.Metal>
0.0000

> <Gold.Chemscore.Lipo>
104.5620

> <Gold.Chemscore.Internal_Hbond>
0.0000

> <Gold.Chemscore.DEClash>
0.0863

> <Gold.Chemscore.DEInternal>
2.8408

> <Gold.Chemscore.Rot>
2.6935

> <Gold.Chemscore.Internal.Correction>
   9.000000E+99

> <Gold.Chemscore.Hbond.Weighted>
-0.0000

> <Gold.Chemscore.Metal.Weighted>
-0.0000

> <Gold.Chemscore.Lipo.Weighted>
-12.2338

> <Gold.Chemscore.Internal_Hbond.Weighted>
0.0000

> <Gold.Chemscore.DEClash.Weighted>
0.0863

> <Gold.Chemscore.DEInternal.Weighted>
2.8408

> <Gold.Chemscore.Rot.Weighted>
6.8954

> <Gold.Chemscore.Internal.Correction.Weighted>
   9.000000E+99

> <Gold.Protein.RotatedTorsions>
[ 6907 6896 6895 6894 ] final   19.80 input  -60.11 | X-H torsion
[ 7974 7965 7964 7962 ] final -157.87 input  175.53 | X-H torsion
[ 8008 7997 7996 7995 ] final -150.95 input   59.86 | X-H torsion
[ 10167 10162 10161 10158 ] final   45.23 input  -65.29 | X-H torsion
[ 10718 10713 10712 10709 ] final   37.09 input   66.30 | X-H torsion
[ 10763 10752 10751 10750 ] final -142.69 input  -60.55 | X-H torsion
[ 11005 11000 10999 10996 ] final -142.58 input  -57.11 | X-H torsion

> <Gold.Protein.ActiveResidues>
 VAL166  LYS551  ARG553  GLY616  TRP617  ASP618  TYR619  PRO620  LYS621  CYS622 
 ASP623  PHE694  ASN695  SER759  ASP760  ASP761  ALA762  ILE779  LEU786  VAL792 
 PHE793  MET794  SER795  GLU796  ALA797  LYS798  CYS799  TRP800  GLU811  SER814 

> <Gold.Protein.RotatedAtoms>
  151.8865  135.0433  160.0493 H   0  0  0  0  0  0  0  0  0  0  0  0  # atno 6907 bound_to 6896
  152.2471  133.5179  159.5312 H   0  0  0  0  0  0  0  0  0  0  0  0  # atno 6908 bound_to 6896
  150.7072  134.0927  159.3980 H   0  0  0  0  0  0  0  0  0  0  0  0  # atno 6909 bound_to 6896
  144.7530  140.3908  143.6034 H   0  0  0  0  0  0  0  0  0  0  0  0  # atno 7974 bound_to 7965
  155.6316  140.0692  157.2647 H   0  0  0  0  0  0  0  0  0  0  0  0  # atno 8008 bound_to 7997
  154.4204  140.1766  156.1527 H   0  0  0  0  0  0  0  0  0  0  0  0  # atno 8009 bound_to 7997
  155.9928  140.3343  155.6773 H   0  0  0  0  0  0  0  0  0  0  0  0  # atno 8010 bound_to 7997
  140.3263  144.2644  150.6175 H   0  0  0  0  0  0  0  0  0  0  0  0  # atno 10167 bound_to 10162
  157.3427  130.7556  149.6923 H   0  0  0  0  0  0  0  0  0  0  0  0  # atno 10718 bound_to 10713
  154.8499  135.3489  154.6069 H   0  0  0  0  0  0  0  0  0  0  0  0  # atno 10763 bound_to 10752
  153.6677  135.6986  153.5161 H   0  0  0  0  0  0  0  0  0  0  0  0  # atno 10764 bound_to 10752
  153.2767  135.4276  155.0996 H   0  0  0  0  0  0  0  0  0  0  0  0  # atno 10765 bound_to 10752
  140.8211  134.2630  157.4899 H   0  0  0  0  0  0  0  0  0  0  0  0  # atno 11005 bound_to 11000
  145.6878  139.1632  143.2664 LP  0  0  0  0  0  0  0  0  0  0  0  0  # atno 17320 bound_to 7965
  146.1504  140.6933  142.9325 LP  0  0  0  0  0  0  0  0  0  0  0  0  # atno 17321 bound_to 7965
  140.5438  143.2218  151.8041 LP  0  0  0  0  0  0  0  0  0  0  0  0  # atno 17342 bound_to 10162
  139.4865  144.4566  151.9591 LP  0  0  0  0  0  0  0  0  0  0  0  0  # atno 17343 bound_to 10162
  155.9710  130.4163  150.4224 LP  0  0  0  0  0  0  0  0  0  0  0  0  # atno 17370 bound_to 10713
  157.2274  131.0496  151.2512 LP  0  0  0  0  0  0  0  0  0  0  0  0  # atno 17371 bound_to 10713
  139.8708  134.9536  156.4150 LP  0  0  0  0  0  0  0  0  0  0  0  0  # atno 17394 bound_to 11000
  140.9098  133.7720  155.9777 LP  0  0  0  0  0  0  0  0  0  0  0  0  # atno 17395 bound_to 11000

$$$$
