AV-unprocessed.smi:3116|AV-procd|sdf|11866|dock6
  -GOLD-   2272017243D 1   1.00000     0.00000
 Structure written by MMmdl.
 34 34  0  0  0  0  0  0  0  0  2 V2000
  146.8523  139.3779  151.3603 C   0  0  0  0  0  0  0  0  0  0  0  0
  147.0278  138.9985  152.8410 C   0  0  2  0  0  0  0  0  0  0  0  0
  148.4491  138.7142  153.1468 N   0  3  0  0  0  0  0  0  0  0  0  0
  148.9140  139.1011  154.5006 C   0  0  2  0  0  0  0  0  0  0  0  0
  147.7984  138.7735  155.5069 C   0  0  0  0  0  0  0  0  0  0  0  0
  149.3220  140.6003  154.5279 C   0  0  1  0  0  0  0  0  0  0  0  0
  148.1263  141.5600  154.3666 C   0  0  0  0  0  0  0  0  0  0  0  0
  150.0665  140.9323  155.7377 N   0  0  0  0  0  0  0  0  0  0  0  0
  149.7936  141.9194  156.6628 C   0  0  0  0  0  0  0  0  0  0  0  0
  150.7752  141.8747  157.6107 C   0  0  0  0  0  0  0  0  0  0  0  0
  151.6150  140.8111  157.1785 C   0  0  0  0  0  0  0  0  0  0  0  0
  151.1924  140.2534  156.0555 N   0  0  0  0  0  0  0  0  0  0  0  0
  146.1545  137.7880  153.1913 C   0  0  0  0  0  0  0  0  0  0  0  0
  146.5300  136.6045  152.6992 N   0  0  0  0  0  0  0  0  0  0  0  0
  145.1586  137.9131  153.9020 O   0  0  0  0  0  0  0  0  0  0  0  0
  145.8084  139.5913  151.1273 H   0  0  0  0  0  0  0  0  0  0  0  0
  147.1830  138.5751  150.6998 H   0  0  0  0  0  0  0  0  0  0  0  0
  147.4259  140.2698  151.1077 H   0  0  0  0  0  0  0  0  0  0  0  0
  146.6936  139.8298  153.4620 H   0  0  0  0  0  0  0  0  0  0  0  0
  148.5947  137.7197  153.0482 H   0  0  0  0  0  0  0  0  0  0  0  0
  149.7806  138.4958  154.7715 H   0  0  0  0  0  0  0  0  0  0  0  0
  148.1212  138.9316  156.5355 H   0  0  0  0  0  0  0  0  0  0  0  0
  147.4971  137.7283  155.4282 H   0  0  0  0  0  0  0  0  0  0  0  0
  146.9135  139.3870  155.3340 H   0  0  0  0  0  0  0  0  0  0  0  0
  149.9945  140.7812  153.6878 H   0  0  0  0  0  0  0  0  0  0  0  0
  147.6665  141.4696  153.3828 H   0  0  0  0  0  0  0  0  0  0  0  0
  148.4425  142.5983  154.4733 H   0  0  0  0  0  0  0  0  0  0  0  0
  147.3552  141.3708  155.1140 H   0  0  0  0  0  0  0  0  0  0  0  0
  148.9342  142.5674  156.5708 H   0  0  0  0  0  0  0  0  0  0  0  0
  150.8769  142.5044  158.4823 H   0  0  0  0  0  0  0  0  0  0  0  0
  152.5142  140.4328  157.6421 H   0  0  0  0  0  0  0  0  0  0  0  0
  145.9875  135.7757  152.8966 H   0  0  0  0  0  0  0  0  0  0  0  0
  147.3584  136.5423  152.1243 H   0  0  0  0  0  0  0  0  0  0  0  0
  149.0162  139.1831  152.4551 H   0  0  0  0  0  0  0  0  0  0  0  0
  1  2  1  0  0  0  0
  1 16  1  0  0  0  0
  1 17  1  0  0  0  0
  1 18  1  0  0  0  0
  2  3  1  0  0  0  0
  2 13  1  0  0  0  0
  2 19  1  0  0  0  0
  3  4  1  0  0  0  0
  3 20  1  0  0  0  0
  3 34  1  0  0  0  0
  4  5  1  0  0  0  0
  4  6  1  0  0  0  0
  4 21  1  0  0  0  0
  5 22  1  0  0  0  0
  5 23  1  0  0  0  0
  5 24  1  0  0  0  0
  6  7  1  0  0  0  0
  6  8  1  0  0  0  0
  6 25  1  0  0  0  0
  7 26  1  0  0  0  0
  7 27  1  0  0  0  0
  7 28  1  0  0  0  0
  8 12  1  0  0  0  0
  8  9  1  0  0  0  0
  9 10  2  0  0  0  0
  9 29  1  0  0  0  0
 10 11  1  0  0  0  0
 10 30  1  0  0  0  0
 11 12  2  0  0  0  0
 11 31  1  0  0  0  0
 13 14  1  0  0  0  0
 13 15  2  0  0  0  0
 14 32  1  0  0  0  0
 14 33  1  0  0  0  0
M  CHG  1   3   1
M  END
> <s_m_source_file>
AV-unprocessed.smi

> <i_m_source_file_index>
3116

> <i_lp_mmshare_version>
43012

> <i_f3d_flags>
0

> <s_epik_input>
W05IMl1DKD1PKVtDQEhdKFtDSDNdKVtOSF1bQ0BIXShbQ0gzXSlbQ0BIXShbQ0gzXSluMVtjSF1bY0hdW2NIXW4x

> <s_epik_cmdline>
J2VwaWtfcHl0aG9uJywgJy1waCcsICc3LjAnLCAnLXRuJywgJzgnLCAnLW1hJywgJzIwMCcsICctbWV0YWxfYmluZGluZycsICctaW1hZScsICc8aW5maWxlLm1hZT4nLCAnLW9tYWUnLCAnPG91dGZpbGUubWFlPic=

> <r_lp_tautomer_probability>
1

> <r_epik_Ionization_Penalty>
0.15658

> <r_epik_Ionization_Penalty_Charging>
0.156568

> <r_epik_Ionization_Penalty_Neutral>
1.19778e-05

> <r_epik_State_Penalty>
0.145866

> <r_epik_Charging_Adjusted_Penalty>
0.302434

> <i_epik_Tot_Q>
1

> <i_epik_Tot_abs_Q>
1

> <r_epik_Metal_State_Penalty>
0.146064

> <b_epik_Metal_Only>
0

> <s_lp_Force_Field>
OPLS_2005

> <r_lp_Energy>
9.52806

> <b_lp_Chiralities_Consistent>
1

> <s_lp_Variant>
AV-unprocessed.smi:3116-5

> <Gold.Version>
5.8.1

> <Gold.Id.Protein>
6NUR|6NUR_protein|mol2

> <Gold.PLP.Fitness>
40.3426

> <Gold.PLP.PLP>
-27.1732

> <Gold.PLP.part.hbond>
-3.0000

> <Gold.PLP.part.metal>
0.0000

> <Gold.PLP.part.buried>
-0.3445

> <Gold.PLP.part.nonpolar>
-22.9483

> <Gold.PLP.part.repulsive>
0.2335

> <Gold.PLP.ligand.clash>
0.0000

> <Gold.PLP.ligand.torsion>
0.9834

> <Gold.PLP.Chemscore.Hbond>
4.0000

> <Gold.PLP.Chemscore.CHOScore>
1.0000

> <Gold.PLP.Chemscore.Metal>
0.0000

> <Gold.Chemscore.Hbonds>
donor molecule, donor type, donor heavy atom, donor atom, acceptor molecule, acceptor atom, score
      L1  H     3    20       P1  7948  1.86
      L1  H     3    34       P1  7957  1.00
      L1  H    14    33       P1  7948  1.00
      L1  C     9    29       P1  8028  0.95

> <Gold.PLP.Chemscore.Internal.Correction>
0.1362

> <Gold.Rescore>
     Score         DG    S(hbond)    S(metal)    S(lipo)     H(rot)  DE(clash)    DE(int)     intcor
     14.09     -15.97       2.92        0.00      59.90       2.45       0.57       1.31       ----

> <Gold.Chemscore.Fitness>
14.0889

> <Gold.Chemscore.DG>
-15.9725

> <Gold.Chemscore.ZeroCoef>
-5.4800

> <Gold.Chemscore.Hbond>
2.9182

> <Gold.Chemscore.Metal>
0.0000

> <Gold.Chemscore.Lipo>
59.9050

> <Gold.Chemscore.Internal_Hbond>
0.0000

> <Gold.Chemscore.DEClash>
0.5733

> <Gold.Chemscore.DEInternal>
1.3103

> <Gold.Chemscore.Rot>
2.4465

> <Gold.Chemscore.Internal.Correction>
   9.000000E+99

> <Gold.Chemscore.Hbonds>
donor molecule, donor type, donor heavy atom, donor atom, acceptor molecule, acceptor atom, score
      L1  H     3    20       P1  7948  0.91
      L1  H     3    34       P1  7957  1.00
      L1  H    14    33       P1  7948  0.97

> <Gold.Chemscore.Hbond.Weighted>
-9.7467

> <Gold.Chemscore.Metal.Weighted>
-0.0000

> <Gold.Chemscore.Lipo.Weighted>
-7.0089

> <Gold.Chemscore.Internal_Hbond.Weighted>
0.0000

> <Gold.Chemscore.DEClash.Weighted>
0.5733

> <Gold.Chemscore.DEInternal.Weighted>
1.3103

> <Gold.Chemscore.Rot.Weighted>
6.2631

> <Gold.Chemscore.Internal.Correction.Weighted>
   9.000000E+99

> <Gold.Protein.RotatedTorsions>
[ 6907 6896 6895 6894 ] final   25.53 input  -60.11 | X-H torsion
[ 7974 7965 7964 7962 ] final  175.88 input  175.53 | X-H torsion
[ 8008 7997 7996 7995 ] final   21.17 input   59.86 | X-H torsion
[ 10167 10162 10161 10158 ] final   41.62 input  -65.29 | X-H torsion
[ 10718 10713 10712 10709 ] final  137.36 input   66.30 | X-H torsion
[ 10763 10752 10751 10750 ] final    5.70 input  -60.55 | X-H torsion
[ 11005 11000 10999 10996 ] final   97.32 input  -57.11 | X-H torsion

> <Gold.Protein.ActiveResidues>
 VAL166  LYS551  ARG553  GLY616  TRP617  ASP618  TYR619  PRO620  LYS621  CYS622 
 ASP623  PHE694  ASN695  SER759  ASP760  ASP761  ALA762  ILE779  LEU786  VAL792 
 PHE793  MET794  SER795  GLU796  ALA797  LYS798  CYS799  TRP800  GLU811  SER814 

> <Gold.Protein.RotatedAtoms>
  151.9739  135.0063  160.0553 H   0  0  0  0  0  0  0  0  0  0  0  0  # atno 6907 bound_to 6896
  152.1758  133.4669  159.4940 H   0  0  0  0  0  0  0  0  0  0  0  0  # atno 6908 bound_to 6896
  150.6909  134.1814  159.4293 H   0  0  0  0  0  0  0  0  0  0  0  0  # atno 6909 bound_to 6896
  144.7194  140.0013  143.6440 H   0  0  0  0  0  0  0  0  0  0  0  0  # atno 7974 bound_to 7965
  154.9466  140.3060  155.5095 H   0  0  0  0  0  0  0  0  0  0  0  0  # atno 8008 bound_to 7997
  156.2991  140.2326  156.4477 H   0  0  0  0  0  0  0  0  0  0  0  0  # atno 8009 bound_to 7997
  154.8095  140.0429  157.1320 H   0  0  0  0  0  0  0  0  0  0  0  0  # atno 8010 bound_to 7997
  140.3625  144.2210  150.6137 H   0  0  0  0  0  0  0  0  0  0  0  0  # atno 10167 bound_to 10162
  157.4369  131.1054  151.0187 H   0  0  0  0  0  0  0  0  0  0  0  0  # atno 10718 bound_to 10713
  153.2563  135.6919  153.7625 H   0  0  0  0  0  0  0  0  0  0  0  0  # atno 10763 bound_to 10752
  153.6701  135.3346  155.3152 H   0  0  0  0  0  0  0  0  0  0  0  0  # atno 10764 bound_to 10752
  154.8413  135.4498  154.1538 H   0  0  0  0  0  0  0  0  0  0  0  0  # atno 10765 bound_to 10752
  139.8776  134.8995  156.4289 H   0  0  0  0  0  0  0  0  0  0  0  0  # atno 11005 bound_to 11000
  146.0333  139.3354  143.0742 LP  0  0  0  0  0  0  0  0  0  0  0  0  # atno 17320 bound_to 7965
  145.8426  140.9572  143.0791 LP  0  0  0  0  0  0  0  0  0  0  0  0  # atno 17321 bound_to 7965
  140.5113  143.2290  151.8530 LP  0  0  0  0  0  0  0  0  0  0  0  0  # atno 17342 bound_to 10162
  139.4812  144.4946  151.9141 LP  0  0  0  0  0  0  0  0  0  0  0  0  # atno 17343 bound_to 10162
  157.1063  130.6003  149.5471 LP  0  0  0  0  0  0  0  0  0  0  0  0  # atno 17370 bound_to 10713
  155.9934  130.4995  150.7379 LP  0  0  0  0  0  0  0  0  0  0  0  0  # atno 17371 bound_to 10713
  140.9081  133.7731  155.9758 LP  0  0  0  0  0  0  0  0  0  0  0  0  # atno 17394 bound_to 11000
  140.8577  134.2878  157.5248 LP  0  0  0  0  0  0  0  0  0  0  0  0  # atno 17395 bound_to 11000

$$$$
