AV-unprocessed.smi:2817|AV-procd|sdf|10847|dock6
  -GOLD-   2272015293D 1   1.00000     0.00000
 Structure written by MMmdl.
 42 44  0  0  0  0  0  0  0  0  1 V2000
  152.3121  138.7075  160.0506 O   0  0  0  0  0  0  0  0  0  0  0  0
  151.7985  139.7454  159.6324 C   0  0  0  0  0  0  0  0  0  0  0  0
  152.4056  141.0615  159.8324 C   0  0  0  0  0  0  0  0  0  0  0  0
  151.8065  142.1809  159.3604 C   0  0  0  0  0  0  0  0  0  0  0  0
  152.4021  143.5656  159.5749 C   0  0  0  0  0  0  0  0  0  0  0  0
  152.0577  144.2485  160.9088 C   0  0  0  0  0  0  0  0  0  0  0  0
  151.9519  145.5664  160.1334 C   0  0  0  0  0  0  0  0  0  0  0  0
  151.6767  144.7298  158.8790 C   0  0  0  0  0  0  0  0  0  0  0  0
  150.5862  142.1020  158.6792 N   0  0  0  0  0  0  0  0  0  0  0  0
  150.0286  140.9490  158.4885 C   0  0  0  0  0  0  0  0  0  0  0  0
  150.6158  139.7560  158.9512 N   0  0  0  0  0  0  0  0  0  0  0  0
  149.8784  138.5132  158.6719 C   0  0  0  0  0  0  0  0  0  0  0  0
  148.3482  138.7272  158.6759 C   0  0  1  0  0  0  0  0  0  0  0  0
  147.8794  138.9790  157.3662 O   0  0  0  0  0  0  0  0  0  0  0  0
  147.5713  137.5199  159.2286 C   0  0  0  0  0  0  0  0  0  0  0  0
  147.5030  137.5928  160.6480 O   0  0  0  0  0  0  0  0  0  0  0  0
  146.9422  136.5357  161.3315 C   0  0  0  0  0  0  0  0  0  0  0  0
  146.7418  136.7052  162.7171 C   0  0  0  0  0  0  0  0  0  0  0  0
  146.1751  135.6775  163.4952 C   0  0  0  0  0  0  0  0  0  0  0  0
  145.8014  134.4630  162.8912 C   0  0  0  0  0  0  0  0  0  0  0  0
  145.9951  134.2800  161.5094 C   0  0  0  0  0  0  0  0  0  0  0  0
  146.5614  135.3085  160.7312 C   0  0  0  0  0  0  0  0  0  0  0  0
  153.3432  141.1313  160.3645 H   0  0  0  0  0  0  0  0  0  0  0  0
  153.4752  143.5793  159.3762 H   0  0  0  0  0  0  0  0  0  0  0  0
  151.0989  143.9340  161.3257 H   0  0  0  0  0  0  0  0  0  0  0  0
  152.8516  144.2199  161.6556 H   0  0  0  0  0  0  0  0  0  0  0  0
  151.1304  146.2138  160.4413 H   0  0  0  0  0  0  0  0  0  0  0  0
  152.8988  146.1066  160.0837 H   0  0  0  0  0  0  0  0  0  0  0  0
  152.1603  145.0929  157.9719 H   0  0  0  0  0  0  0  0  0  0  0  0
  150.6106  144.5521  158.7252 H   0  0  0  0  0  0  0  0  0  0  0  0
  149.0770  140.8323  157.9671 H   0  0  0  0  0  0  0  0  0  0  0  0
  150.1966  138.0513  157.7348 H   0  0  0  0  0  0  0  0  0  0  0  0
  150.1403  137.7786  159.4359 H   0  0  0  0  0  0  0  0  0  0  0  0
  148.0891  139.5942  159.2849 H   0  0  0  0  0  0  0  0  0  0  0  0
  147.1875  138.3659  157.1706 H   0  0  0  0  0  0  0  0  0  0  0  0
  146.5575  137.5424  158.8257 H   0  0  0  0  0  0  0  0  0  0  0  0
  148.0364  136.5879  158.9023 H   0  0  0  0  0  0  0  0  0  0  0  0
  147.0261  137.6344  163.1889 H   0  0  0  0  0  0  0  0  0  0  0  0
  146.0280  135.8217  164.5553 H   0  0  0  0  0  0  0  0  0  0  0  0
  145.3674  133.6732  163.4864 H   0  0  0  0  0  0  0  0  0  0  0  0
  145.7085  133.3486  161.0438 H   0  0  0  0  0  0  0  0  0  0  0  0
  146.6935  135.1301  159.6749 H   0  0  0  0  0  0  0  0  0  0  0  0
  1  2  2  0  0  0  0
  2 11  1  0  0  0  0
  2  3  1  0  0  0  0
  3  4  2  0  0  0  0
  3 23  1  0  0  0  0
  4  5  1  0  0  0  0
  4  9  1  0  0  0  0
  5  8  1  0  0  0  0
  5  6  1  0  0  0  0
  5 24  1  0  0  0  0
  6  7  1  0  0  0  0
  6 25  1  0  0  0  0
  6 26  1  0  0  0  0
  7  8  1  0  0  0  0
  7 27  1  0  0  0  0
  7 28  1  0  0  0  0
  8 29  1  0  0  0  0
  8 30  1  0  0  0  0
  9 10  2  0  0  0  0
 10 11  1  0  0  0  0
 10 31  1  0  0  0  0
 11 12  1  0  0  0  0
 12 13  1  0  0  0  0
 12 32  1  0  0  0  0
 12 33  1  0  0  0  0
 13 14  1  0  0  0  0
 13 15  1  0  0  0  0
 13 34  1  0  0  0  0
 14 35  1  0  0  0  0
 15 16  1  0  0  0  0
 15 36  1  0  0  0  0
 15 37  1  0  0  0  0
 16 17  1  0  0  0  0
 17 22  1  0  0  0  0
 17 18  2  0  0  0  0
 18 19  1  0  0  0  0
 18 38  1  0  0  0  0
 19 20  2  0  0  0  0
 19 39  1  0  0  0  0
 20 21  1  0  0  0  0
 20 40  1  0  0  0  0
 21 22  2  0  0  0  0
 21 41  1  0  0  0  0
 22 42  1  0  0  0  0
M  END
> <s_m_source_file>
AV-unprocessed.smi

> <i_m_source_file_index>
2817

> <i_lp_mmshare_version>
43012

> <i_f3d_flags>
0

> <s_epik_input>
W0NIMl0xW0NIMl1bQ0gyXVtDSF0xYyhbY0hdYzI9TyluW2NIXW4yW0NIMl1bQ0BIXShbT0hdKVtDSDJdT2MzW2NIXVtjSF1bY0hdW2NIXVtjSF0z

> <s_epik_cmdline>
J2VwaWtfcHl0aG9uJywgJy1waCcsICc3LjAnLCAnLXRuJywgJzgnLCAnLW1hJywgJzIwMCcsICctbWV0YWxfYmluZGluZycsICctaW1hZScsICc8aW5maWxlLm1hZT4nLCAnLW9tYWUnLCAnPG91dGZpbGUubWFlPic=

> <r_lp_tautomer_probability>
1

> <r_epik_Ionization_Penalty>
2.12778e-05

> <r_epik_Ionization_Penalty_Charging>
7.42033e-08

> <r_epik_Ionization_Penalty_Neutral>
2.12036e-05

> <r_epik_State_Penalty>
-0

> <r_epik_Charging_Adjusted_Penalty>
7.42033e-08

> <i_epik_Tot_Q>
0

> <i_epik_Tot_abs_Q>
0

> <r_epik_Metal_State_Penalty>
-0

> <b_epik_Metal_Only>
0

> <s_lp_Force_Field>
OPLS_2005

> <r_lp_Energy>
33.1228

> <b_lp_Chiralities_Consistent>
1

> <s_lp_Variant>
AV-unprocessed.smi:2817-2

> <Gold.Version>
5.8.1

> <Gold.Id.Protein>
6NUR|6NUR_protein|mol2

> <Gold.PLP.Fitness>
51.9526

> <Gold.PLP.PLP>
-52.1309

> <Gold.PLP.part.hbond>
-2.0000

> <Gold.PLP.part.metal>
0.0000

> <Gold.PLP.part.buried>
-7.0861

> <Gold.PLP.part.nonpolar>
-44.2500

> <Gold.PLP.part.repulsive>
0.0320

> <Gold.PLP.ligand.clash>
0.0000

> <Gold.PLP.ligand.torsion>
1.5731

> <Gold.PLP.Chemscore.Hbond>
0.8234

> <Gold.PLP.Chemscore.CHOScore>
0.0000

> <Gold.PLP.Chemscore.Metal>
0.0000

> <Gold.Chemscore.Hbonds>
donor molecule, donor type, donor heavy atom, donor atom, acceptor molecule, acceptor atom, score
      P1  H  6931  6943       L1    16  0.52
      P1  H  6934  6947       L1    16  0.87

> <Gold.PLP.Chemscore.Internal.Correction>
0.4976

> <Gold.Rescore>
     Score         DG    S(hbond)    S(metal)    S(lipo)     H(rot)  DE(clash)    DE(int)     intcor
     14.29     -15.55       0.27        0.00     131.30       2.42       0.03       1.23       ----

> <Gold.Chemscore.Fitness>
14.2875

> <Gold.Chemscore.DG>
-15.5500

> <Gold.Chemscore.ZeroCoef>
-5.4800

> <Gold.Chemscore.Hbond>
0.2738

> <Gold.Chemscore.Metal>
0.0000

> <Gold.Chemscore.Lipo>
131.3008

> <Gold.Chemscore.Internal_Hbond>
0.0000

> <Gold.Chemscore.DEClash>
0.0276

> <Gold.Chemscore.DEInternal>
1.2349

> <Gold.Chemscore.Rot>
2.4245

> <Gold.Chemscore.Internal.Correction>
   9.000000E+99

> <Gold.Chemscore.Hbonds>
donor molecule, donor type, donor heavy atom, donor atom, acceptor molecule, acceptor atom, score
      P1  H  6931  6943       L1    16  0.25
      P1  H  6934  6947       L1    16  0.36

> <Gold.Chemscore.Hbond.Weighted>
-0.9144

> <Gold.Chemscore.Metal.Weighted>
-0.0000

> <Gold.Chemscore.Lipo.Weighted>
-15.3622

> <Gold.Chemscore.Internal_Hbond.Weighted>
0.0000

> <Gold.Chemscore.DEClash.Weighted>
0.0276

> <Gold.Chemscore.DEInternal.Weighted>
1.2349

> <Gold.Chemscore.Rot.Weighted>
6.2066

> <Gold.Chemscore.Internal.Correction.Weighted>
   9.000000E+99

> <Gold.Protein.RotatedTorsions>
[ 6907 6896 6895 6894 ] final  -50.79 input  -60.11 | X-H torsion
[ 7974 7965 7964 7962 ] final -129.92 input  175.53 | X-H torsion
[ 8008 7997 7996 7995 ] final    1.50 input   59.86 | X-H torsion
[ 10167 10162 10161 10158 ] final  -59.35 input  -65.29 | X-H torsion
[ 10718 10713 10712 10709 ] final  -43.82 input   66.30 | X-H torsion
[ 10763 10752 10751 10750 ] final   73.96 input  -60.55 | X-H torsion
[ 11005 11000 10999 10996 ] final  108.31 input  -57.11 | X-H torsion

> <Gold.Protein.ActiveResidues>
 VAL166  LYS551  ARG553  GLY616  TRP617  ASP618  TYR619  PRO620  LYS621  CYS622 
 ASP623  PHE694  ASN695  SER759  ASP760  ASP761  ALA762  ILE779  LEU786  VAL792 
 PHE793  MET794  SER795  GLU796  ALA797  LYS798  CYS799  TRP800  GLU811  SER814 

> <Gold.Protein.RotatedAtoms>
  150.8673  134.8040  159.7128 H   0  0  0  0  0  0  0  0  0  0  0  0  # atno 6907 bound_to 6896
  152.4690  134.5003  159.9732 H   0  0  0  0  0  0  0  0  0  0  0  0  # atno 6908 bound_to 6896
  151.5097  133.3449  159.2918 H   0  0  0  0  0  0  0  0  0  0  0  0  # atno 6909 bound_to 6896
  144.9525  140.7360  143.4779 H   0  0  0  0  0  0  0  0  0  0  0  0  # atno 7974 bound_to 7965
  154.6805  140.2631  155.6913 H   0  0  0  0  0  0  0  0  0  0  0  0  # atno 8008 bound_to 7997
  156.2695  140.2811  156.1270 H   0  0  0  0  0  0  0  0  0  0  0  0  # atno 8009 bound_to 7997
  155.1038  140.0375  157.2695 H   0  0  0  0  0  0  0  0  0  0  0  0  # atno 8010 bound_to 7997
  140.6140  143.2396  151.5641 H   0  0  0  0  0  0  0  0  0  0  0  0  # atno 10167 bound_to 10162
  156.2450  130.4183  149.8716 H   0  0  0  0  0  0  0  0  0  0  0  0  # atno 10718 bound_to 10713
  153.0555  135.5043  154.7971 H   0  0  0  0  0  0  0  0  0  0  0  0  # atno 10763 bound_to 10752
  154.6800  135.2967  154.9628 H   0  0  0  0  0  0  0  0  0  0  0  0  # atno 10764 bound_to 10752
  154.0417  135.6716  153.4843 H   0  0  0  0  0  0  0  0  0  0  0  0  # atno 10765 bound_to 10752
  139.8842  134.9427  156.5953 H   0  0  0  0  0  0  0  0  0  0  0  0  # atno 11005 bound_to 11000
  145.2823  139.1914  143.4784 LP  0  0  0  0  0  0  0  0  0  0  0  0  # atno 17320 bound_to 7965
  146.3326  140.2786  142.8609 LP  0  0  0  0  0  0  0  0  0  0  0  0  # atno 17321 bound_to 7965
  139.5384  144.2716  152.1300 LP  0  0  0  0  0  0  0  0  0  0  0  0  # atno 17342 bound_to 10162
  140.1922  144.4741  150.6473 LP  0  0  0  0  0  0  0  0  0  0  0  0  # atno 17343 bound_to 10162
  156.6285  130.8656  151.3490 LP  0  0  0  0  0  0  0  0  0  0  0  0  # atno 17370 bound_to 10713
  157.7191  130.9535  150.1368 LP  0  0  0  0  0  0  0  0  0  0  0  0  # atno 17371 bound_to 10713
  140.7925  133.8571  155.8658 LP  0  0  0  0  0  0  0  0  0  0  0  0  # atno 17394 bound_to 11000
  140.9665  134.1587  157.4612 LP  0  0  0  0  0  0  0  0  0  0  0  0  # atno 17395 bound_to 11000

$$$$
