AV-unprocessed.smi:1809|AV-procd|sdf|7310|dock2
  -GOLD-   22720 8563D 1   1.00000     0.00000
 Structure written by MMmdl.
 40 42  0  0  0  0  0  0  0  0  2 V2000
  147.8768  129.3612  153.4135 C   0  0  0  0  0  0  0  0  0  0  0  0
  148.4662  130.6697  153.8161 C   0  0  0  0  0  0  0  0  0  0  0  0
  149.3105  130.7997  154.8469 N   0  0  0  0  0  0  0  0  0  0  0  0
  149.7247  132.1121  155.0254 N   0  0  0  0  0  0  0  0  0  0  0  0
  149.1773  132.9364  154.1215 C   0  0  0  0  0  0  0  0  0  0  0  0
  149.4304  134.3328  154.0719 N   0  0  0  0  0  0  0  0  0  0  0  0
  150.1937  135.0699  154.8975 C   0  0  0  0  0  0  0  0  0  0  0  0
  150.8074  134.6391  155.8736 O   0  0  0  0  0  0  0  0  0  0  0  0
  150.2109  136.3572  154.5237 N   0  0  0  0  0  0  0  0  0  0  0  0
  150.9607  137.4181  155.1881 C   0  0  0  0  0  0  0  0  0  0  0  0
  150.8525  138.7548  154.4223 C   0  0  1  0  0  0  0  0  0  0  0  0
  149.5036  139.4784  154.6586 C   0  0  0  0  0  0  0  0  0  0  0  0
  149.5188  140.1135  155.9894 N   0  3  2  0  0  0  0  0  0  0  0  0
  148.3204  140.8555  156.4181 C   0  0  0  0  0  0  0  0  0  0  0  0
  148.8314  141.8617  157.4683 C   0  0  0  0  0  0  0  0  0  0  0  0
  150.3653  141.7378  157.4528 C   0  0  0  0  0  0  0  0  0  0  0  0
  150.6434  141.0406  156.1248 C   0  0  1  0  0  0  0  0  0  0  0  0
  151.9509  140.2550  155.9881 C   0  0  0  0  0  0  0  0  0  0  0  0
  151.9581  139.6289  154.7013 O   0  0  0  0  0  0  0  0  0  0  0  0
  148.1001  132.1673  152.9685 S   0  0  0  0  0  0  0  0  0  0  0  0
  148.3416  128.5432  153.9651 H   0  0  0  0  0  0  0  0  0  0  0  0
  148.0322  129.1944  152.3474 H   0  0  0  0  0  0  0  0  0  0  0  0
  146.8060  129.3573  153.6169 H   0  0  0  0  0  0  0  0  0  0  0  0
  148.9833  134.8261  153.3135 H   0  0  0  0  0  0  0  0  0  0  0  0
  149.6743  136.6219  153.7104 H   0  0  0  0  0  0  0  0  0  0  0  0
  150.5308  137.5370  156.1830 H   0  0  0  0  0  0  0  0  0  0  0  0
  151.9997  137.1270  155.3472 H   0  0  0  0  0  0  0  0  0  0  0  0
  150.9101  138.5186  153.3590 H   0  0  0  0  0  0  0  0  0  0  0  0
  149.3512  140.2428  153.8950 H   0  0  0  0  0  0  0  0  0  0  0  0
  148.6675  138.7822  154.5842 H   0  0  0  0  0  0  0  0  0  0  0  0
  147.8872  141.3876  155.5695 H   0  0  0  0  0  0  0  0  0  0  0  0
  147.5641  140.1798  156.8183 H   0  0  0  0  0  0  0  0  0  0  0  0
  148.5211  142.8726  157.2012 H   0  0  0  0  0  0  0  0  0  0  0  0
  148.4330  141.6473  158.4604 H   0  0  0  0  0  0  0  0  0  0  0  0
  150.8694  142.7011  157.5376 H   0  0  0  0  0  0  0  0  0  0  0  0
  150.6948  141.1108  158.2827 H   0  0  0  0  0  0  0  0  0  0  0  0
  150.5857  141.7842  155.3265 H   0  0  0  0  0  0  0  0  0  0  0  0
  152.8079  140.9246  156.0615 H   0  0  0  0  0  0  0  0  0  0  0  0
  152.0516  139.5194  156.7855 H   0  0  0  0  0  0  0  0  0  0  0  0
  149.6660  139.3844  156.6729 H   0  0  0  0  0  0  0  0  0  0  0  0
  1  2  1  0  0  0  0
  1 21  1  0  0  0  0
  1 22  1  0  0  0  0
  1 23  1  0  0  0  0
  2 20  1  0  0  0  0
  2  3  2  0  0  0  0
  3  4  1  0  0  0  0
  4  5  2  0  0  0  0
  5  6  1  0  0  0  0
  5 20  1  0  0  0  0
  6  7  1  0  0  0  0
  6 24  1  0  0  0  0
  7  8  2  0  0  0  0
  7  9  1  0  0  0  0
  9 10  1  0  0  0  0
  9 25  1  0  0  0  0
 10 11  1  0  0  0  0
 10 26  1  0  0  0  0
 10 27  1  0  0  0  0
 11 19  1  0  0  0  0
 11 12  1  0  0  0  0
 11 28  1  0  0  0  0
 12 13  1  0  0  0  0
 12 29  1  0  0  0  0
 12 30  1  0  0  0  0
 13 17  1  0  0  0  0
 13 14  1  0  0  0  0
 13 40  1  0  0  0  0
 14 15  1  0  0  0  0
 14 31  1  0  0  0  0
 14 32  1  0  0  0  0
 15 16  1  0  0  0  0
 15 33  1  0  0  0  0
 15 34  1  0  0  0  0
 16 17  1  0  0  0  0
 16 35  1  0  0  0  0
 16 36  1  0  0  0  0
 17 18  1  0  0  0  0
 17 37  1  0  0  0  0
 18 19  1  0  0  0  0
 18 38  1  0  0  0  0
 18 39  1  0  0  0  0
M  CHG  1  13   1
M  END
> <s_m_source_file>
AV-unprocessed.smi

> <i_m_source_file_index>
1809

> <i_lp_mmshare_version>
43012

> <i_f3d_flags>
0

> <s_epik_input>
W0NIM11jMW5uYyhzMSlbTkhdQyg9TylbTkhdW0NIMl1bQ0BIXShbQ0gyXTIpT1tDSDJdW0NAQEhdKE4yMylbQ0gyXVtDSDJdW0NIMl0z

> <s_epik_cmdline>
J2VwaWtfcHl0aG9uJywgJy1waCcsICc3LjAnLCAnLXRuJywgJzgnLCAnLW1hJywgJzIwMCcsICctbWV0YWxfYmluZGluZycsICctaW1hZScsICc8aW5maWxlLm1hZT4nLCAnLW9tYWUnLCAnPG91dGZpbGUubWFlPic=

> <r_lp_tautomer_probability>
1

> <r_epik_Ionization_Penalty>
0.112474

> <r_epik_Ionization_Penalty_Charging>
0.108916

> <r_epik_Ionization_Penalty_Neutral>
0.00355844

> <r_epik_State_Penalty>
0.0565397

> <r_epik_Charging_Adjusted_Penalty>
0.165456

> <i_epik_Tot_Q>
1

> <i_epik_Tot_abs_Q>
1

> <r_epik_Metal_State_Penalty>
0.422831

> <b_epik_Metal_Only>
0

> <s_lp_Force_Field>
OPLS_2005

> <r_lp_Energy>
36.2916

> <b_lp_Chiralities_Consistent>
1

> <s_lp_Variant>
AV-unprocessed.smi:1809-2

> <Gold.Version>
5.8.1

> <Gold.Id.Protein>
6NUR|6NUR_protein|mol2

> <Gold.PLP.Fitness>
39.5397

> <Gold.PLP.PLP>
-31.1541

> <Gold.PLP.part.hbond>
-3.3707

> <Gold.PLP.part.metal>
0.0000

> <Gold.PLP.part.buried>
-5.0715

> <Gold.PLP.part.nonpolar>
-23.7913

> <Gold.PLP.part.repulsive>
0.2346

> <Gold.PLP.ligand.clash>
0.0000

> <Gold.PLP.ligand.torsion>
0.2177

> <Gold.PLP.Chemscore.Hbond>
2.9360

> <Gold.PLP.Chemscore.CHOScore>
0.0000

> <Gold.PLP.Chemscore.Metal>
0.0000

> <Gold.Chemscore.Hbonds>
donor molecule, donor type, donor heavy atom, donor atom, acceptor molecule, acceptor atom, score
      L1  H     6    24       P1  7948  0.90
      L1  H     9    25       P1  7948  1.00
      P1  H  7989  7998       L1    19  0.93

> <Gold.PLP.Chemscore.Internal.Correction>
0.0129

> <Gold.Rescore>
     Score         DG    S(hbond)    S(metal)    S(lipo)     H(rot)  DE(clash)    DE(int)     intcor
     13.67     -15.12       1.96        0.00      55.71       1.34       0.01       1.44       ----

> <Gold.Chemscore.Fitness>
13.6651

> <Gold.Chemscore.DG>
-15.1230

> <Gold.Chemscore.ZeroCoef>
-5.4800

> <Gold.Chemscore.Hbond>
1.9619

> <Gold.Chemscore.Metal>
0.0000

> <Gold.Chemscore.Lipo>
55.7131

> <Gold.Chemscore.Internal_Hbond>
0.0000

> <Gold.Chemscore.DEClash>
0.0149

> <Gold.Chemscore.DEInternal>
1.4430

> <Gold.Chemscore.Rot>
1.3391

> <Gold.Chemscore.Internal.Correction>
   9.000000E+99

> <Gold.Chemscore.Hbonds>
donor molecule, donor type, donor heavy atom, donor atom, acceptor molecule, acceptor atom, score
      L1  H     6    24       P1  7948  0.17
      L1  H     9    25       P1  7948  0.55
      P1  H  7989  7998       L1    19  0.15

> <Gold.Chemscore.Hbond.Weighted>
-6.5526

> <Gold.Chemscore.Metal.Weighted>
-0.0000

> <Gold.Chemscore.Lipo.Weighted>
-6.5184

> <Gold.Chemscore.Internal_Hbond.Weighted>
0.0000

> <Gold.Chemscore.DEClash.Weighted>
0.0149

> <Gold.Chemscore.DEInternal.Weighted>
1.4430

> <Gold.Chemscore.Rot.Weighted>
3.4281

> <Gold.Chemscore.Internal.Correction.Weighted>
   9.000000E+99

> <Gold.Protein.RotatedTorsions>
[ 6907 6896 6895 6894 ] final -100.33 input  -60.11 | X-H torsion
[ 7974 7965 7964 7962 ] final  169.51 input  175.53 | X-H torsion
[ 8008 7997 7996 7995 ] final  -81.93 input   59.86 | X-H torsion
[ 10167 10162 10161 10158 ] final -124.12 input  -65.29 | X-H torsion
[ 10718 10713 10712 10709 ] final -146.14 input   66.30 | X-H torsion
[ 10763 10752 10751 10750 ] final   84.88 input  -60.55 | X-H torsion
[ 11005 11000 10999 10996 ] final  159.92 input  -57.11 | X-H torsion

> <Gold.Protein.ActiveResidues>
 VAL166  LYS551  ARG553  GLY616  TRP617  ASP618  TYR619  PRO620  LYS621  CYS622 
 ASP623  PHE694  ASN695  SER759  ASP760  ASP761  ALA762  ILE779  LEU786  VAL792 
 PHE793  MET794  SER795  GLU796  ALA797  LYS798  CYS799  TRP800  GLU811  SER814 

> <Gold.Protein.RotatedAtoms>
  150.7112  134.0904  159.3929 H   0  0  0  0  0  0  0  0  0  0  0  0  # atno 6907 bound_to 6896
  151.8889  135.0422  160.0505 H   0  0  0  0  0  0  0  0  0  0  0  0  # atno 6908 bound_to 6896
  152.2508  133.5178  159.5361 H   0  0  0  0  0  0  0  0  0  0  0  0  # atno 6909 bound_to 6896
  144.7353  139.9065  143.6412 H   0  0  0  0  0  0  0  0  0  0  0  0  # atno 7974 bound_to 7965
  154.6034  140.0640  156.9398 H   0  0  0  0  0  0  0  0  0  0  0  0  # atno 8008 bound_to 7997
  155.2094  140.3321  155.4313 H   0  0  0  0  0  0  0  0  0  0  0  0  # atno 8009 bound_to 7997
  156.2332  140.1850  156.7172 H   0  0  0  0  0  0  0  0  0  0  0  0  # atno 8010 bound_to 7997
  139.9962  143.5589  152.2322 H   0  0  0  0  0  0  0  0  0  0  0  0  # atno 10167 bound_to 10162
  156.3911  130.7886  151.2088 H   0  0  0  0  0  0  0  0  0  0  0  0  # atno 10718 bound_to 10713
  153.1423  135.4638  154.9514 H   0  0  0  0  0  0  0  0  0  0  0  0  # atno 10763 bound_to 10752
  154.7757  135.3172  154.8099 H   0  0  0  0  0  0  0  0  0  0  0  0  # atno 10764 bound_to 10752
  153.8619  135.6912  153.4836 H   0  0  0  0  0  0  0  0  0  0  0  0  # atno 10765 bound_to 10752
  140.2008  134.8339  157.3016 H   0  0  0  0  0  0  0  0  0  0  0  0  # atno 11005 bound_to 11000
  146.1033  139.4030  143.0333 LP  0  0  0  0  0  0  0  0  0  0  0  0  # atno 17320 bound_to 7965
  145.7547  140.9959  143.1231 LP  0  0  0  0  0  0  0  0  0  0  0  0  # atno 17321 bound_to 7965
  139.6305  144.7643  151.2547 LP  0  0  0  0  0  0  0  0  0  0  0  0  # atno 17342 bound_to 10162
  140.7436  143.6489  150.8267 LP  0  0  0  0  0  0  0  0  0  0  0  0  # atno 17343 bound_to 10162
  157.7499  131.0315  150.4185 LP  0  0  0  0  0  0  0  0  0  0  0  0  # atno 17370 bound_to 10713
  156.4447  130.3999  149.6675 LP  0  0  0  0  0  0  0  0  0  0  0  0  # atno 17371 bound_to 10713
  140.2056  134.4201  155.7639 LP  0  0  0  0  0  0  0  0  0  0  0  0  # atno 17394 bound_to 11000
  141.2227  133.7093  156.8255 LP  0  0  0  0  0  0  0  0  0  0  0  0  # atno 17395 bound_to 11000

$$$$
