AV-unprocessed.smi:3344|AV-procd|sdf|12898|dock9
  -GOLD-   2272019303D 1   1.00000     0.00000
 Structure written by MMmdl.
 43 44  0  0  0  0  0  0  0  0  2 V2000
  147.1675  142.1821  154.0794 C   0  0  0  0  0  0  0  0  0  0  0  0
  148.0529  140.9625  153.7527 C   0  0  1  0  0  0  0  0  0  0  0  0
  149.3459  140.9335  154.5830 C   0  0  0  0  0  0  0  0  0  0  0  0
  150.0882  139.9512  154.5572 O   0  0  0  0  0  0  0  0  0  0  0  0
  149.6063  142.0244  155.3211 N   0  0  0  0  0  0  0  0  0  0  0  0
  150.7868  142.2026  156.1582 C   0  0  0  0  0  0  0  0  0  0  0  0
  150.4049  142.5072  157.6207 C   0  0  0  0  0  0  0  0  0  0  0  0
  151.3209  143.4845  158.2687 N   0  3  0  0  0  0  0  0  0  0  0  0
  152.4461  142.8186  158.9834 C   0  0  0  0  0  0  0  0  0  0  0  0
  152.1284  142.3999  160.4317 C   0  0  0  0  0  0  0  0  0  0  0  0
  152.4803  143.4926  161.4531 C   0  0  0  0  0  0  0  0  0  0  0  0
  151.5639  144.7221  161.3980 C   0  0  0  0  0  0  0  0  0  0  0  0
  151.4535  145.3681  160.0065 C   0  0  0  0  0  0  0  0  0  0  0  0
  150.5946  144.5431  159.0279 C   0  0  0  0  0  0  0  0  0  0  0  0
  147.3313  139.7042  153.8988 N   0  0  0  0  0  0  0  0  0  0  0  0
  147.6818  138.4670  153.5400 C   0  0  0  0  0  0  0  0  0  0  0  0
  146.7939  137.5387  153.8674 N   0  0  0  0  0  0  0  0  0  0  0  0
  145.8569  138.3242  154.4768 C   0  0  0  0  0  0  0  0  0  0  0  0
  146.1344  139.6267  154.5328 N   0  0  0  0  0  0  0  0  0  0  0  0
  147.7087  143.1150  153.9179 H   0  0  0  0  0  0  0  0  0  0  0  0
  146.8235  142.1757  155.1147 H   0  0  0  0  0  0  0  0  0  0  0  0
  146.2844  142.2026  153.4401 H   0  0  0  0  0  0  0  0  0  0  0  0
  148.3398  141.0465  152.7029 H   0  0  0  0  0  0  0  0  0  0  0  0
  148.9478  142.7894  155.2878 H   0  0  0  0  0  0  0  0  0  0  0  0
  151.4200  141.3153  156.1026 H   0  0  0  0  0  0  0  0  0  0  0  0
  151.3606  143.0236  155.7290 H   0  0  0  0  0  0  0  0  0  0  0  0
  149.3784  142.8718  157.6776 H   0  0  0  0  0  0  0  0  0  0  0  0
  150.4300  141.5719  158.1810 H   0  0  0  0  0  0  0  0  0  0  0  0
  152.7666  141.9427  158.4180 H   0  0  0  0  0  0  0  0  0  0  0  0
  153.3125  143.4808  158.9681 H   0  0  0  0  0  0  0  0  0  0  0  0
  151.0924  142.0764  160.5386 H   0  0  0  0  0  0  0  0  0  0  0  0
  152.7357  141.5255  160.6689 H   0  0  0  0  0  0  0  0  0  0  0  0
  152.4303  143.0686  162.4567 H   0  0  0  0  0  0  0  0  0  0  0  0
  153.5168  143.8028  161.3149 H   0  0  0  0  0  0  0  0  0  0  0  0
  150.5700  144.4556  161.7597 H   0  0  0  0  0  0  0  0  0  0  0  0
  151.9438  145.4639  162.1014 H   0  0  0  0  0  0  0  0  0  0  0  0
  150.9635  146.3334  160.1399 H   0  0  0  0  0  0  0  0  0  0  0  0
  152.4348  145.5970  159.5897 H   0  0  0  0  0  0  0  0  0  0  0  0
  150.1683  145.2291  158.2960 H   0  0  0  0  0  0  0  0  0  0  0  0
  149.7477  144.1085  159.5611 H   0  0  0  0  0  0  0  0  0  0  0  0
  148.6073  138.2393  153.0313 H   0  0  0  0  0  0  0  0  0  0  0  0
  144.9465  137.9237  154.8979 H   0  0  0  0  0  0  0  0  0  0  0  0
  151.7719  143.9647  157.5029 H   0  0  0  0  0  0  0  0  0  0  0  0
  1  2  1  0  0  0  0
  1 20  1  0  0  0  0
  1 21  1  0  0  0  0
  1 22  1  0  0  0  0
  2  3  1  0  0  0  0
  2 15  1  0  0  0  0
  2 23  1  0  0  0  0
  3  4  2  0  0  0  0
  3  5  1  0  0  0  0
  5  6  1  0  0  0  0
  5 24  1  0  0  0  0
  6  7  1  0  0  0  0
  6 25  1  0  0  0  0
  6 26  1  0  0  0  0
  7  8  1  0  0  0  0
  7 27  1  0  0  0  0
  7 28  1  0  0  0  0
  8 14  1  0  0  0  0
  8  9  1  0  0  0  0
  8 43  1  0  0  0  0
  9 10  1  0  0  0  0
  9 29  1  0  0  0  0
  9 30  1  0  0  0  0
 10 11  1  0  0  0  0
 10 31  1  0  0  0  0
 10 32  1  0  0  0  0
 11 12  1  0  0  0  0
 11 33  1  0  0  0  0
 11 34  1  0  0  0  0
 12 13  1  0  0  0  0
 12 35  1  0  0  0  0
 12 36  1  0  0  0  0
 13 14  1  0  0  0  0
 13 37  1  0  0  0  0
 13 38  1  0  0  0  0
 14 39  1  0  0  0  0
 14 40  1  0  0  0  0
 15 19  1  0  0  0  0
 15 16  1  0  0  0  0
 16 17  2  0  0  0  0
 16 41  1  0  0  0  0
 17 18  1  0  0  0  0
 18 19  2  0  0  0  0
 18 42  1  0  0  0  0
M  CHG  1   8   1
M  END
> <s_m_source_file>
AV-unprocessed.smi

> <i_m_source_file_index>
3344

> <i_lp_mmshare_version>
43012

> <i_f3d_flags>
0

> <s_epik_input>
bjFbY0hdbltjSF1uMVtDQEhdKFtDSDNdKUMoPU8pW05IXVtDSDJdW0NIMl1OMltDSDJdW0NIMl1bQ0gyXVtDSDJdW0NIMl1bQ0gyXTI=

> <s_epik_cmdline>
J2VwaWtfcHl0aG9uJywgJy1waCcsICc3LjAnLCAnLXRuJywgJzgnLCAnLW1hJywgJzIwMCcsICctbWV0YWxfYmluZGluZycsICctaW1hZScsICc8aW5maWxlLm1hZT4nLCAnLW9tYWUnLCAnPG91dGZpbGUubWFlPic=

> <r_lp_tautomer_probability>
1

> <r_epik_Ionization_Penalty>
0.00266407

> <r_epik_Ionization_Penalty_Charging>
0.00265606

> <r_epik_Ionization_Penalty_Neutral>
8.01095e-06

> <r_epik_State_Penalty>
0.00184955

> <r_epik_Charging_Adjusted_Penalty>
0.00450561

> <i_epik_Tot_Q>
1

> <i_epik_Tot_abs_Q>
1

> <r_epik_Metal_State_Penalty>
-0

> <b_epik_Metal_Only>
0

> <s_lp_Force_Field>
OPLS_2005

> <r_lp_Energy>
28.0166

> <b_lp_Chiralities_Consistent>
1

> <s_lp_Variant>
AV-unprocessed.smi:3344-2

> <Gold.Version>
5.8.1

> <Gold.Id.Protein>
6NUR|6NUR_protein|mol2

> <Gold.PLP.Fitness>
49.8072

> <Gold.PLP.PLP>
-40.8796

> <Gold.PLP.part.hbond>
-2.0000

> <Gold.PLP.part.metal>
0.0000

> <Gold.PLP.part.buried>
-5.7051

> <Gold.PLP.part.nonpolar>
-34.3335

> <Gold.PLP.part.repulsive>
0.5776

> <Gold.PLP.ligand.clash>
0.3189

> <Gold.PLP.ligand.torsion>
1.2033

> <Gold.PLP.Chemscore.Hbond>
1.9440

> <Gold.PLP.Chemscore.CHOScore>
1.8926

> <Gold.PLP.Chemscore.Metal>
0.0000

> <Gold.Chemscore.Hbonds>
donor molecule, donor type, donor heavy atom, donor atom, acceptor molecule, acceptor atom, score
      L1  H     5    24       P1  8028  0.80
      P1  H  7989  7998       L1     4  0.70
      L1  C    16    41       P1  7948  0.88
      L1  C    16    41       P1  7957  0.33

> <Gold.PLP.Chemscore.Internal.Correction>
0.1432

> <Gold.Rescore>
     Score         DG    S(hbond)    S(metal)    S(lipo)     H(rot)  DE(clash)    DE(int)     intcor
     12.27     -14.80       1.35        0.00      96.72       2.54       0.46       2.06       ----

> <Gold.Chemscore.Fitness>
12.2746

> <Gold.Chemscore.DG>
-14.7958

> <Gold.Chemscore.ZeroCoef>
-5.4800

> <Gold.Chemscore.Hbond>
1.3463

> <Gold.Chemscore.Metal>
0.0000

> <Gold.Chemscore.Lipo>
96.7167

> <Gold.Chemscore.Internal_Hbond>
0.0000

> <Gold.Chemscore.DEClash>
0.4601

> <Gold.Chemscore.DEInternal>
2.0611

> <Gold.Chemscore.Rot>
2.5377

> <Gold.Chemscore.Internal.Correction>
   9.000000E+99

> <Gold.Chemscore.Hbonds>
donor molecule, donor type, donor heavy atom, donor atom, acceptor molecule, acceptor atom, score
      L1  H     5    24       P1  8028  0.78
      P1  H  7989  7998       L1     4  0.10

> <Gold.Chemscore.Hbond.Weighted>
-4.4965

> <Gold.Chemscore.Metal.Weighted>
-0.0000

> <Gold.Chemscore.Lipo.Weighted>
-11.3159

> <Gold.Chemscore.Internal_Hbond.Weighted>
0.0000

> <Gold.Chemscore.DEClash.Weighted>
0.4601

> <Gold.Chemscore.DEInternal.Weighted>
2.0611

> <Gold.Chemscore.Rot.Weighted>
6.4966

> <Gold.Chemscore.Internal.Correction.Weighted>
   9.000000E+99

> <Gold.Protein.RotatedTorsions>
[ 6907 6896 6895 6894 ] final -132.12 input  -60.11 | X-H torsion
[ 7974 7965 7964 7962 ] final  -39.73 input  175.53 | X-H torsion
[ 8008 7997 7996 7995 ] final  130.94 input   59.86 | X-H torsion
[ 10167 10162 10161 10158 ] final  -28.14 input  -65.29 | X-H torsion
[ 10718 10713 10712 10709 ] final  173.86 input   66.30 | X-H torsion
[ 10763 10752 10751 10750 ] final -160.08 input  -60.55 | X-H torsion
[ 11005 11000 10999 10996 ] final -152.74 input  -57.11 | X-H torsion

> <Gold.Protein.ActiveResidues>
 VAL166  LYS551  ARG553  GLY616  TRP617  ASP618  TYR619  PRO620  LYS621  CYS622 
 ASP623  PHE694  ASN695  SER759  ASP760  ASP761  ALA762  ILE779  LEU786  VAL792 
 PHE793  MET794  SER795  GLU796  ALA797  LYS798  CYS799  TRP800  GLU811  SER814 

> <Gold.Protein.RotatedAtoms>
  150.9587  133.6469  159.2758 H   0  0  0  0  0  0  0  0  0  0  0  0  # atno 6907 bound_to 6896
  151.3799  135.0937  159.9502 H   0  0  0  0  0  0  0  0  0  0  0  0  # atno 6908 bound_to 6896
  152.5139  133.9124  159.7549 H   0  0  0  0  0  0  0  0  0  0  0  0  # atno 6909 bound_to 6896
  146.0369  140.6659  142.9105 H   0  0  0  0  0  0  0  0  0  0  0  0  # atno 7974 bound_to 7965
  156.2962  140.2583  156.2845 H   0  0  0  0  0  0  0  0  0  0  0  0  # atno 8008 bound_to 7997
  154.9570  140.0393  157.2190 H   0  0  0  0  0  0  0  0  0  0  0  0  # atno 8009 bound_to 7997
  154.7982  140.2823  155.5945 H   0  0  0  0  0  0  0  0  0  0  0  0  # atno 8010 bound_to 7997
  140.7272  143.4035  151.1225 H   0  0  0  0  0  0  0  0  0  0  0  0  # atno 10167 bound_to 10162
  156.9581  131.0052  151.2934 H   0  0  0  0  0  0  0  0  0  0  0  0  # atno 10718 bound_to 10713
  154.7421  135.3071  154.8710 H   0  0  0  0  0  0  0  0  0  0  0  0  # atno 10763 bound_to 10752
  153.9521  135.6762  153.4748 H   0  0  0  0  0  0  0  0  0  0  0  0  # atno 10764 bound_to 10752
  153.1019  135.4908  154.8807 H   0  0  0  0  0  0  0  0  0  0  0  0  # atno 10765 bound_to 10752
  140.7157  134.3783  157.5191 H   0  0  0  0  0  0  0  0  0  0  0  0  # atno 11005 bound_to 11000
  144.7056  140.3837  143.7121 LP  0  0  0  0  0  0  0  0  0  0  0  0  # atno 17320 bound_to 7965
  145.6948  139.1647  143.2626 LP  0  0  0  0  0  0  0  0  0  0  0  0  # atno 17321 bound_to 7965
  139.7658  143.8567  152.3110 LP  0  0  0  0  0  0  0  0  0  0  0  0  # atno 17342 bound_to 10162
  139.8469  144.7183  150.9262 LP  0  0  0  0  0  0  0  0  0  0  0  0  # atno 17343 bound_to 10162
  157.5677  130.8289  149.8349 LP  0  0  0  0  0  0  0  0  0  0  0  0  # atno 17370 bound_to 10713
  156.0334  130.3758  150.1626 LP  0  0  0  0  0  0  0  0  0  0  0  0  # atno 17371 bound_to 10713
  139.8860  134.8920  156.2607 LP  0  0  0  0  0  0  0  0  0  0  0  0  # atno 17394 bound_to 11000
  141.0047  133.7131  156.1015 LP  0  0  0  0  0  0  0  0  0  0  0  0  # atno 17395 bound_to 11000

$$$$
