AV-unprocessed.smi:21|AV-procd|sdf|161|dock5
  -GOLD-   2262015403D 1   1.00000     0.00000
 Structure written by MMmdl.
 61 64  0  0  0  0  0  0  0  0  1 V2000
  150.8909  143.1959  157.8945 C   0  0  0  0  0  0  0  0  0  0  0  0
  151.5385  141.9599  157.6381 O   0  0  0  0  0  0  0  0  0  0  0  0
  150.6399  140.9012  157.3360 C   0  0  1  0  0  0  0  0  0  0  0  0
  149.5755  141.3261  156.3086 C   0  0  0  0  0  0  0  0  0  0  0  0
  149.6284  140.2268  155.2416 C   0  0  1  0  0  0  0  0  0  0  0  0
  149.0734  140.6708  153.8712 C   0  0  0  0  0  0  0  0  0  0  0  0
  147.6124  140.6210  153.8022 N   0  0  0  0  0  0  0  0  0  0  0  0
  146.8600  141.3183  154.8435 C   0  0  0  0  0  0  0  0  0  0  0  0
  147.0657  139.4867  153.2860 C   0  0  0  0  0  0  0  0  0  0  0  0
  146.7065  139.4561  151.9735 N   0  0  0  0  0  0  0  0  0  0  0  0
  146.1596  138.3592  151.4424 C   0  0  0  0  0  0  0  0  0  0  0  0
  145.8903  137.1935  152.0309 N   0  0  0  0  0  0  0  0  0  0  0  0
  146.2594  137.2073  153.3429 C   0  0  0  0  0  0  0  0  0  0  0  0
  146.8460  138.2995  154.0450 C   0  0  0  0  0  0  0  0  0  0  0  0
  147.0864  137.9300  155.3635 N   0  0  0  0  0  0  0  0  0  0  0  0
  146.6547  136.7017  155.4410 C   0  0  0  0  0  0  0  0  0  0  0  0
  146.1595  136.1819  154.2670 N   0  0  0  0  0  0  0  0  0  0  0  0
  145.6152  134.8507  154.0680 C   0  0  0  0  0  0  0  0  0  0  0  0
  144.6243  134.7283  152.8807 C   0  0  2  0  0  0  0  0  0  0  0  0
  143.2715  135.3625  153.2787 C   0  0  0  0  0  0  0  0  0  0  0  0
  142.5957  134.5874  154.2483 O   0  0  0  0  0  0  0  0  0  0  0  0
  144.4678  133.2831  152.3231 C   0  0  1  0  0  0  0  0  0  0  0  0
  143.6332  133.1761  151.0561 C   0  0  0  0  0  0  0  0  0  0  0  0
  144.0385  131.8119  150.5197 C   0  0  0  0  0  0  0  0  0  0  0  0
  145.4308  131.7340  150.7806 O   0  0  0  0  0  0  0  0  0  0  0  0
  145.7660  132.5987  151.8625 C   0  0  0  0  0  0  0  0  0  0  0  0
  151.0242  139.8236  155.2260 N   0  0  0  0  0  0  0  0  0  0  0  0
  151.2699  138.5635  154.5381 C   0  0  0  0  0  0  0  0  0  0  0  0
  151.3948  139.7672  156.6288 C   0  0  0  0  0  0  0  0  0  0  0  0
  150.1827  140.5143  158.2483 H   0  0  0  0  0  0  0  0  0  0  0  0
  149.0398  139.3846  155.6072 H   0  0  0  0  0  0  0  0  0  0  0  0
  151.6366  143.9561  158.1256 H   0  0  0  0  0  0  0  0  0  0  0  0
  150.2172  143.1176  158.7486 H   0  0  0  0  0  0  0  0  0  0  0  0
  150.3209  143.5394  157.0307 H   0  0  0  0  0  0  0  0  0  0  0  0
  148.5843  141.4336  156.7500 H   0  0  0  0  0  0  0  0  0  0  0  0
  149.8509  142.2840  155.8684 H   0  0  0  0  0  0  0  0  0  0  0  0
  149.4593  141.6595  153.6250 H   0  0  0  0  0  0  0  0  0  0  0  0
  149.4533  140.0097  153.0923 H   0  0  0  0  0  0  0  0  0  0  0  0
  145.8140  141.4339  154.5573 H   0  0  0  0  0  0  0  0  0  0  0  0
  147.2590  142.3164  155.0191 H   0  0  0  0  0  0  0  0  0  0  0  0
  146.9039  140.7681  155.7840 H   0  0  0  0  0  0  0  0  0  0  0  0
  145.9024  138.4250  150.3955 H   0  0  0  0  0  0  0  0  0  0  0  0
  146.7000  136.1341  156.3593 H   0  0  0  0  0  0  0  0  0  0  0  0
  146.4454  134.1551  153.9390 H   0  0  0  0  0  0  0  0  0  0  0  0
  145.1196  134.5654  154.9968 H   0  0  0  0  0  0  0  0  0  0  0  0
  145.0078  135.3460  152.0680 H   0  0  0  0  0  0  0  0  0  0  0  0
  143.4255  136.3643  153.6808 H   0  0  0  0  0  0  0  0  0  0  0  0
  142.6234  135.4839  152.4109 H   0  0  0  0  0  0  0  0  0  0  0  0
  142.9276  133.7035  154.2116 H   0  0  0  0  0  0  0  0  0  0  0  0
  143.9999  132.6550  153.0828 H   0  0  0  0  0  0  0  0  0  0  0  0
  142.5606  133.2470  151.2395 H   0  0  0  0  0  0  0  0  0  0  0  0
  143.9129  133.9545  150.3448 H   0  0  0  0  0  0  0  0  0  0  0  0
  143.5290  131.0180  151.0674 H   0  0  0  0  0  0  0  0  0  0  0  0
  143.8200  131.6919  149.4587 H   0  0  0  0  0  0  0  0  0  0  0  0
  146.4930  133.3253  151.4983 H   0  0  0  0  0  0  0  0  0  0  0  0
  146.2323  132.0262  152.6632 H   0  0  0  0  0  0  0  0  0  0  0  0
  152.3207  138.2833  154.6170 H   0  0  0  0  0  0  0  0  0  0  0  0
  151.0310  138.6442  153.4780 H   0  0  0  0  0  0  0  0  0  0  0  0
  150.6712  137.7567  154.9627 H   0  0  0  0  0  0  0  0  0  0  0  0
  152.4755  139.8373  156.7580 H   0  0  0  0  0  0  0  0  0  0  0  0
  151.0770  138.8150  157.0575 H   0  0  0  0  0  0  0  0  0  0  0  0
  1  2  1  0  0  0  0
  1 32  1  0  0  0  0
  1 33  1  0  0  0  0
  1 34  1  0  0  0  0
  2  3  1  0  0  0  0
  3 30  1  0  0  0  0
  3 29  1  0  0  0  0
  3  4  1  0  0  0  0
  4  5  1  0  0  0  0
  4 35  1  0  0  0  0
  4 36  1  0  0  0  0
  5 31  1  0  0  0  0
  5  6  1  0  0  0  0
  5 27  1  0  0  0  0
  6  7  1  0  0  0  0
  6 37  1  0  0  0  0
  6 38  1  0  0  0  0
  7  8  1  0  0  0  0
  7  9  1  0  0  0  0
  8 39  1  0  0  0  0
  8 40  1  0  0  0  0
  8 41  1  0  0  0  0
  9 14  1  0  0  0  0
  9 10  2  0  0  0  0
 10 11  1  0  0  0  0
 11 12  2  0  0  0  0
 11 42  1  0  0  0  0
 12 13  1  0  0  0  0
 13 17  1  0  0  0  0
 13 14  2  0  0  0  0
 14 15  1  0  0  0  0
 15 16  2  0  0  0  0
 16 17  1  0  0  0  0
 16 43  1  0  0  0  0
 17 18  1  0  0  0  0
 18 19  1  0  0  0  0
 18 44  1  0  0  0  0
 18 45  1  0  0  0  0
 19 20  1  0  0  0  0
 19 22  1  0  0  0  0
 19 46  1  0  0  0  0
 20 21  1  0  0  0  0
 20 47  1  0  0  0  0
 20 48  1  0  0  0  0
 21 49  1  0  0  0  0
 22 26  1  0  0  0  0
 22 23  1  0  0  0  0
 22 50  1  0  0  0  0
 23 24  1  0  0  0  0
 23 51  1  0  0  0  0
 23 52  1  0  0  0  0
 24 25  1  0  0  0  0
 24 53  1  0  0  0  0
 24 54  1  0  0  0  0
 25 26  1  0  0  0  0
 26 55  1  0  0  0  0
 26 56  1  0  0  0  0
 27 28  1  0  0  0  0
 27 29  1  0  0  0  0
 28 57  1  0  0  0  0
 28 58  1  0  0  0  0
 28 59  1  0  0  0  0
 29 60  1  0  0  0  0
 29 61  1  0  0  0  0
M  END
> <s_m_source_file>
AV-unprocessed.smi

> <i_m_source_file_index>
21

> <i_lp_mmshare_version>
43012

> <i_f3d_flags>
0

> <s_epik_input>
W0NIM11PW0NASF0xW0NIMl1bQ0BIXShOKFtDSDNdKVtDSDJdMSlbQ0gyXU4oW0NIM10pYyhuW2NIXW4yKWMoYzIzKW5bY0hdbjNbQ0gyXVtDQEhdKFtDSDJdW09IXSlbQ0BASF00W0NIMl1bQ0gyXU9bQ0gyXTQ=

> <s_epik_cmdline>
J2VwaWtfcHl0aG9uJywgJy1waCcsICc3LjAnLCAnLXRuJywgJzgnLCAnLW1hJywgJzIwMCcsICctbWV0YWxfYmluZGluZycsICctaW1hZScsICc8aW5maWxlLm1hZT4nLCAnLW9tYWUnLCAnPG91dGZpbGUubWFlPic=

> <r_lp_tautomer_probability>
1

> <r_epik_Ionization_Penalty>
2.17574

> <r_epik_Ionization_Penalty_Charging>
0

> <r_epik_Ionization_Penalty_Neutral>
2.17574

> <r_epik_State_Penalty>
2.31336

> <r_epik_Charging_Adjusted_Penalty>
2.31336

> <i_epik_Tot_Q>
0

> <i_epik_Tot_abs_Q>
0

> <r_epik_Metal_State_Penalty>
2.31025

> <b_epik_Metal_Only>
0

> <s_lp_Force_Field>
OPLS_2005

> <r_lp_Energy>
70.1796

> <b_lp_Chiralities_Consistent>
1

> <s_lp_Variant>
AV-unprocessed.smi:21-41

> <Gold.Version>
5.8.1

> <Gold.Id.Protein>
6NUR|6NUR_protein|mol2

> <Gold.PLP.Fitness>
40.5997

> <Gold.PLP.PLP>
-38.0725

> <Gold.PLP.part.hbond>
-2.0000

> <Gold.PLP.part.metal>
0.0000

> <Gold.PLP.part.buried>
-0.8046

> <Gold.PLP.part.nonpolar>
-36.9762

> <Gold.PLP.part.repulsive>
1.7009

> <Gold.PLP.ligand.clash>
0.0000

> <Gold.PLP.ligand.torsion>
2.4205

> <Gold.PLP.Chemscore.Hbond>
1.3430

> <Gold.PLP.Chemscore.CHOScore>
0.8344

> <Gold.PLP.Chemscore.Metal>
0.0000

> <Gold.Chemscore.Hbonds>
donor molecule, donor type, donor heavy atom, donor atom, acceptor molecule, acceptor atom, score
      L1  H    21    49       P1 10957  0.90
      P1  H  7989  7998       L1    27  0.39
      L1  C    11    42       P1 10171  0.82

> <Gold.PLP.Chemscore.Internal.Correction>
0.8361

> <Gold.Rescore>
     Score         DG    S(hbond)    S(metal)    S(lipo)     H(rot)  DE(clash)    DE(int)     intcor
      6.43     -10.32       0.91        0.00      81.22       3.00       0.19       3.70       ----

> <Gold.Chemscore.Fitness>
6.4328

> <Gold.Chemscore.DG>
-10.3235

> <Gold.Chemscore.ZeroCoef>
-5.4800

> <Gold.Chemscore.Hbond>
0.9067

> <Gold.Chemscore.Metal>
0.0000

> <Gold.Chemscore.Lipo>
81.2214

> <Gold.Chemscore.Internal_Hbond>
0.0000

> <Gold.Chemscore.DEClash>
0.1943

> <Gold.Chemscore.DEInternal>
3.6963

> <Gold.Chemscore.Rot>
3.0031

> <Gold.Chemscore.Internal.Correction>
   9.000000E+99

> <Gold.Chemscore.Hbonds>
donor molecule, donor type, donor heavy atom, donor atom, acceptor molecule, acceptor atom, score
      L1  H    21    49       P1 10957  0.83

> <Gold.Chemscore.Hbond.Weighted>
-3.0285

> <Gold.Chemscore.Metal.Weighted>
-0.0000

> <Gold.Chemscore.Lipo.Weighted>
-9.5029

> <Gold.Chemscore.Internal_Hbond.Weighted>
0.0000

> <Gold.Chemscore.DEClash.Weighted>
0.1943

> <Gold.Chemscore.DEInternal.Weighted>
3.6963

> <Gold.Chemscore.Rot.Weighted>
7.6880

> <Gold.Chemscore.Internal.Correction.Weighted>
   9.000000E+99

> <Gold.Protein.RotatedTorsions>
[ 6907 6896 6895 6894 ] final  -77.44 input  -60.11 | X-H torsion
[ 7974 7965 7964 7962 ] final   66.05 input  175.53 | X-H torsion
[ 8008 7997 7996 7995 ] final  -11.42 input   59.86 | X-H torsion
[ 10167 10162 10161 10158 ] final  142.08 input  -65.29 | X-H torsion
[ 10718 10713 10712 10709 ] final  -68.54 input   66.30 | X-H torsion
[ 10763 10752 10751 10750 ] final   78.65 input  -60.55 | X-H torsion
[ 11005 11000 10999 10996 ] final  -26.96 input  -57.11 | X-H torsion

> <Gold.Protein.ActiveResidues>
 VAL166  LYS551  ARG553  GLY616  TRP617  ASP618  TYR619  PRO620  LYS621  CYS622 
 ASP623  PHE694  ASN695  SER759  ASP760  ASP761  ALA762  ILE779  LEU786  VAL792 
 PHE793  MET794  SER795  GLU796  ALA797  LYS798  CYS799  TRP800  GLU811  SER814 

> <Gold.Protein.RotatedAtoms>
  150.6999  134.4423  159.5297 H   0  0  0  0  0  0  0  0  0  0  0  0  # atno 6907 bound_to 6896
  152.2130  134.8481  160.0504 H   0  0  0  0  0  0  0  0  0  0  0  0  # atno 6908 bound_to 6896
  151.9359  133.3589  159.3984 H   0  0  0  0  0  0  0  0  0  0  0  0  # atno 6909 bound_to 6896
  145.8311  139.3140  143.0986 H   0  0  0  0  0  0  0  0  0  0  0  0  # atno 7974 bound_to 7965
  154.5466  140.2303  155.8552 H   0  0  0  0  0  0  0  0  0  0  0  0  # atno 8008 bound_to 7997
  156.1909  140.3077  155.9291 H   0  0  0  0  0  0  0  0  0  0  0  0  # atno 8009 bound_to 7997
  155.3152  140.0437  157.3027 H   0  0  0  0  0  0  0  0  0  0  0  0  # atno 8010 bound_to 7997
  139.5003  144.6130  151.6228 H   0  0  0  0  0  0  0  0  0  0  0  0  # atno 10167 bound_to 10162
  156.0500  130.4296  150.2015 H   0  0  0  0  0  0  0  0  0  0  0  0  # atno 10718 bound_to 10713
  153.0891  135.4869  154.8654 H   0  0  0  0  0  0  0  0  0  0  0  0  # atno 10763 bound_to 10752
  154.7247  135.3047  154.8993 H   0  0  0  0  0  0  0  0  0  0  0  0  # atno 10764 bound_to 10752
  153.9647  135.6808  153.4799 H   0  0  0  0  0  0  0  0  0  0  0  0  # atno 10765 bound_to 10752
  140.9076  133.7482  156.0627 H   0  0  0  0  0  0  0  0  0  0  0  0  # atno 11005 bound_to 11000
  145.9569  140.8865  143.0230 LP  0  0  0  0  0  0  0  0  0  0  0  0  # atno 17320 bound_to 7965
  144.6739  140.1758  143.7410 LP  0  0  0  0  0  0  0  0  0  0  0  0  # atno 17321 bound_to 7965
  140.5810  143.9945  150.6268 LP  0  0  0  0  0  0  0  0  0  0  0  0  # atno 17342 bound_to 10162
  140.3095  143.3207  152.0893 LP  0  0  0  0  0  0  0  0  0  0  0  0  # atno 17343 bound_to 10162
  157.0100  130.9948  151.3368 LP  0  0  0  0  0  0  0  0  0  0  0  0  # atno 17370 bound_to 10713
  157.5416  130.8124  149.8036 LP  0  0  0  0  0  0  0  0  0  0  0  0  # atno 17371 bound_to 10713
  140.8151  134.3354  157.5399 LP  0  0  0  0  0  0  0  0  0  0  0  0  # atno 17394 bound_to 11000
  139.8752  134.9277  156.3431 LP  0  0  0  0  0  0  0  0  0  0  0  0  # atno 17395 bound_to 11000

$$$$
