AV-unprocessed.smi:1499|AV-procd|sdf|6062|dock10
  -GOLD-   22720 6183D 1   1.00000     0.00000
 Structure written by MMmdl.
 40 41  0  0  0  0  0  0  0  0  1 V2000
  148.8081  141.9104  155.4868 C   0  0  0  0  0  0  0  0  0  0  0  0
  150.2222  141.4375  155.8572 C   0  0  0  0  0  0  0  0  0  0  0  0
  150.6952  140.3652  154.9830 N   0  0  0  0  0  0  0  0  0  0  0  0
  151.8168  139.6795  155.6332 C   0  0  0  0  0  0  0  0  0  0  0  0
  152.3504  138.5483  154.7326 C   0  0  0  0  0  0  0  0  0  0  0  0
  151.2599  137.5959  154.4762 N   0  0  0  0  0  0  0  0  0  0  0  0
  151.1390  136.3456  154.9886 C   0  0  0  0  0  0  0  0  0  0  0  0
  151.7097  135.9924  156.0213 O   0  0  0  0  0  0  0  0  0  0  0  0
  150.2913  135.5508  154.3076 N   0  0  0  0  0  0  0  0  0  0  0  0
  149.9647  134.1968  154.5747 C   0  0  0  0  0  0  0  0  0  0  0  0
  150.3107  133.5009  155.7622 C   0  0  0  0  0  0  0  0  0  0  0  0
  149.8705  132.2522  155.7322 N   0  0  0  0  0  0  0  0  0  0  0  0
  149.2400  132.1302  154.5369 N   0  0  0  0  0  0  0  0  0  0  0  0
  148.6249  130.8664  154.1732 C   0  0  0  0  0  0  0  0  0  0  0  0
  147.2241  131.0817  153.5980 C   0  0  0  0  0  0  0  0  0  0  0  0
  147.0604  130.8568  152.2917 N   0  0  0  0  0  0  0  0  0  0  0  0
  146.3015  131.4451  154.3245 O   0  0  0  0  0  0  0  0  0  0  0  0
  149.2784  133.3009  153.8048 C   0  0  0  0  0  0  0  0  0  0  0  0
  150.1594  138.2745  153.7855 C   0  0  0  0  0  0  0  0  0  0  0  0
  149.6244  139.4052  154.6860 C   0  0  0  0  0  0  0  0  0  0  0  0
  148.5384  142.7920  156.0684 H   0  0  0  0  0  0  0  0  0  0  0  0
  148.0533  141.1509  155.6889 H   0  0  0  0  0  0  0  0  0  0  0  0
  148.7452  142.1804  154.4321 H   0  0  0  0  0  0  0  0  0  0  0  0
  150.8936  142.2916  155.7591 H   0  0  0  0  0  0  0  0  0  0  0  0
  150.2635  141.1258  156.9020 H   0  0  0  0  0  0  0  0  0  0  0  0
  152.6173  140.3943  155.8282 H   0  0  0  0  0  0  0  0  0  0  0  0
  151.5034  139.2767  156.5980 H   0  0  0  0  0  0  0  0  0  0  0  0
  152.7022  138.9568  153.7838 H   0  0  0  0  0  0  0  0  0  0  0  0
  153.2273  138.1012  155.2002 H   0  0  0  0  0  0  0  0  0  0  0  0
  149.8444  135.9594  153.4998 H   0  0  0  0  0  0  0  0  0  0  0  0
  150.8553  133.8517  156.6266 H   0  0  0  0  0  0  0  0  0  0  0  0
  149.2559  130.3705  153.4342 H   0  0  0  0  0  0  0  0  0  0  0  0
  148.5816  130.2136  155.0467 H   0  0  0  0  0  0  0  0  0  0  0  0
  146.1541  130.9925  151.8669 H   0  0  0  0  0  0  0  0  0  0  0  0
  147.8460  130.5581  151.7323 H   0  0  0  0  0  0  0  0  0  0  0  0
  148.8211  133.3804  152.8296 H   0  0  0  0  0  0  0  0  0  0  0  0
  150.5202  138.6819  152.8395 H   0  0  0  0  0  0  0  0  0  0  0  0
  149.3467  137.5961  153.5228 H   0  0  0  0  0  0  0  0  0  0  0  0
  149.2224  138.9906  155.6121 H   0  0  0  0  0  0  0  0  0  0  0  0
  148.8024  139.9029  154.1729 H   0  0  0  0  0  0  0  0  0  0  0  0
  1  2  1  0  0  0  0
  1 21  1  0  0  0  0
  1 22  1  0  0  0  0
  1 23  1  0  0  0  0
  2  3  1  0  0  0  0
  2 24  1  0  0  0  0
  2 25  1  0  0  0  0
  3 20  1  0  0  0  0
  3  4  1  0  0  0  0
  4  5  1  0  0  0  0
  4 26  1  0  0  0  0
  4 27  1  0  0  0  0
  5  6  1  0  0  0  0
  5 28  1  0  0  0  0
  5 29  1  0  0  0  0
  6  7  1  0  0  0  0
  6 19  1  0  0  0  0
  7  8  2  0  0  0  0
  7  9  1  0  0  0  0
  9 10  1  0  0  0  0
  9 30  1  0  0  0  0
 10 18  2  0  0  0  0
 10 11  1  0  0  0  0
 11 12  2  0  0  0  0
 11 31  1  0  0  0  0
 12 13  1  0  0  0  0
 13 14  1  0  0  0  0
 13 18  1  0  0  0  0
 14 15  1  0  0  0  0
 14 32  1  0  0  0  0
 14 33  1  0  0  0  0
 15 16  1  0  0  0  0
 15 17  2  0  0  0  0
 16 34  1  0  0  0  0
 16 35  1  0  0  0  0
 18 36  1  0  0  0  0
 19 20  1  0  0  0  0
 19 37  1  0  0  0  0
 19 38  1  0  0  0  0
 20 39  1  0  0  0  0
 20 40  1  0  0  0  0
M  END
> <s_m_source_file>
AV-unprocessed.smi

> <i_m_source_file_index>
1499

> <i_lp_mmshare_version>
43012

> <i_f3d_flags>
0

> <s_epik_input>
W0NIM11bQ0gyXU4xW0NIMl1bQ0gyXU4oW0NIMl1bQ0gyXTEpQyg9TylbTkhdYzJbY0hdbm4oW2NIXTIpW0NIMl1DKD1PKVtOSDJd

> <s_epik_cmdline>
J2VwaWtfcHl0aG9uJywgJy1waCcsICc3LjAnLCAnLXRuJywgJzgnLCAnLW1hJywgJzIwMCcsICctbWV0YWxfYmluZGluZycsICctaW1hZScsICc8aW5maWxlLm1hZT4nLCAnLW9tYWUnLCAnPG91dGZpbGUubWFlPic=

> <r_lp_tautomer_probability>
1

> <r_epik_Ionization_Penalty>
0.431808

> <r_epik_Ionization_Penalty_Charging>
0

> <r_epik_Ionization_Penalty_Neutral>
0.431808

> <r_epik_State_Penalty>
0.433198

> <r_epik_Charging_Adjusted_Penalty>
0.433198

> <i_epik_Tot_Q>
0

> <i_epik_Tot_abs_Q>
0

> <r_epik_Metal_State_Penalty>
0.433196

> <b_epik_Metal_Only>
0

> <s_lp_Force_Field>
OPLS_2005

> <r_lp_Energy>
45.1289

> <b_lp_Chiralities_Consistent>
1

> <s_lp_Variant>
AV-unprocessed.smi:1499-2

> <Gold.Version>
5.8.1

> <Gold.Id.Protein>
6NUR|6NUR_protein|mol2

> <Gold.PLP.Fitness>
42.6775

> <Gold.PLP.PLP>
-33.8639

> <Gold.PLP.part.hbond>
-5.0000

> <Gold.PLP.part.metal>
0.0000

> <Gold.PLP.part.buried>
2.2422

> <Gold.PLP.part.nonpolar>
-32.1307

> <Gold.PLP.part.repulsive>
0.3064

> <Gold.PLP.ligand.clash>
0.0000

> <Gold.PLP.ligand.torsion>
0.7867

> <Gold.PLP.Chemscore.Hbond>
3.4428

> <Gold.PLP.Chemscore.CHOScore>
0.0000

> <Gold.PLP.Chemscore.Metal>
0.0000

> <Gold.Chemscore.Hbonds>
donor molecule, donor type, donor heavy atom, donor atom, acceptor molecule, acceptor atom, score
      L1  H     9    30       P1  7948  0.70
      L1  H    16    35       P1 10747  1.00
      P1  H  7989  7998       L1     3  0.80
      P1  H 10752 10763       L1     8  0.84

> <Gold.PLP.Chemscore.Internal.Correction>
0.0585

> <Gold.Rescore>
     Score         DG    S(hbond)    S(metal)    S(lipo)     H(rot)  DE(clash)    DE(int)     intcor
      9.67     -12.94       1.33        0.00      65.77       1.83       1.45       1.83       ----

> <Gold.Chemscore.Fitness>
9.6650

> <Gold.Chemscore.DG>
-12.9418

> <Gold.Chemscore.ZeroCoef>
-5.4800

> <Gold.Chemscore.Hbond>
1.3349

> <Gold.Chemscore.Metal>
0.0000

> <Gold.Chemscore.Lipo>
65.7655

> <Gold.Chemscore.Internal_Hbond>
0.0000

> <Gold.Chemscore.DEClash>
1.4472

> <Gold.Chemscore.DEInternal>
1.8295

> <Gold.Chemscore.Rot>
1.8325

> <Gold.Chemscore.Internal.Correction>
   9.000000E+99

> <Gold.Chemscore.Hbonds>
donor molecule, donor type, donor heavy atom, donor atom, acceptor molecule, acceptor atom, score
      L1  H     9    30       P1  7948  0.07
      L1  H    16    35       P1 10747  0.94
      P1  H  7989  7998       L1     3  0.09
      P1  H 10752 10763       L1     8  0.14

> <Gold.Chemscore.Hbond.Weighted>
-4.4584

> <Gold.Chemscore.Metal.Weighted>
-0.0000

> <Gold.Chemscore.Lipo.Weighted>
-7.6946

> <Gold.Chemscore.Internal_Hbond.Weighted>
0.0000

> <Gold.Chemscore.DEClash.Weighted>
1.4472

> <Gold.Chemscore.DEInternal.Weighted>
1.8295

> <Gold.Chemscore.Rot.Weighted>
4.6912

> <Gold.Chemscore.Internal.Correction.Weighted>
   9.000000E+99

> <Gold.Protein.RotatedTorsions>
[ 6907 6896 6895 6894 ] final  153.38 input  -60.11 | X-H torsion
[ 7974 7965 7964 7962 ] final -175.30 input  175.53 | X-H torsion
[ 8008 7997 7996 7995 ] final   96.43 input   59.86 | X-H torsion
[ 10167 10162 10161 10158 ] final   54.22 input  -65.29 | X-H torsion
[ 10718 10713 10712 10709 ] final   32.94 input   66.30 | X-H torsion
[ 10763 10752 10751 10750 ] final  104.93 input  -60.55 | X-H torsion
[ 11005 11000 10999 10996 ] final  -16.07 input  -57.11 | X-H torsion

> <Gold.Protein.ActiveResidues>
 VAL166  LYS551  ARG553  GLY616  TRP617  ASP618  TYR619  PRO620  LYS621  CYS622 
 ASP623  PHE694  ASN695  SER759  ASP760  ASP761  ALA762  ILE779  LEU786  VAL792 
 PHE793  MET794  SER795  GLU796  ALA797  LYS798  CYS799  TRP800  GLU811  SER814 

> <Gold.Protein.RotatedAtoms>
  152.0735  133.4118  159.4469 H   0  0  0  0  0  0  0  0  0  0  0  0  # atno 6907 bound_to 6896
  150.6863  134.3064  159.4737 H   0  0  0  0  0  0  0  0  0  0  0  0  # atno 6908 bound_to 6896
  152.0898  134.9414  160.0622 H   0  0  0  0  0  0  0  0  0  0  0  0  # atno 6909 bound_to 6896
  144.7128  140.1342  143.6396 H   0  0  0  0  0  0  0  0  0  0  0  0  # atno 7974 bound_to 7965
  156.0795  140.3273  155.7676 H   0  0  0  0  0  0  0  0  0  0  0  0  # atno 8008 bound_to 7997
  155.5176  140.0582  157.2930 H   0  0  0  0  0  0  0  0  0  0  0  0  # atno 8009 bound_to 7997
  154.4574  140.1949  156.0358 H   0  0  0  0  0  0  0  0  0  0  0  0  # atno 8010 bound_to 7997
  140.2324  144.3672  150.6409 H   0  0  0  0  0  0  0  0  0  0  0  0  # atno 10167 bound_to 10162
  157.2916  130.7305  149.6614 H   0  0  0  0  0  0  0  0  0  0  0  0  # atno 10718 bound_to 10713
  153.3725  135.3927  155.1799 H   0  0  0  0  0  0  0  0  0  0  0  0  # atno 10763 bound_to 10752
  154.8696  135.3706  154.4960 H   0  0  0  0  0  0  0  0  0  0  0  0  # atno 10764 bound_to 10752
  153.5429  135.7084  153.5689 H   0  0  0  0  0  0  0  0  0  0  0  0  # atno 10765 bound_to 10752
  140.8031  133.8199  155.9489 H   0  0  0  0  0  0  0  0  0  0  0  0  # atno 11005 bound_to 11000
  145.9260  139.2576  143.1353 LP  0  0  0  0  0  0  0  0  0  0  0  0  # atno 17320 bound_to 7965
  145.9572  140.8864  143.0229 LP  0  0  0  0  0  0  0  0  0  0  0  0  # atno 17321 bound_to 7965
  140.6175  143.2173  151.6762 LP  0  0  0  0  0  0  0  0  0  0  0  0  # atno 17342 bound_to 10162
  139.5105  144.3540  152.0626 LP  0  0  0  0  0  0  0  0  0  0  0  0  # atno 17343 bound_to 10162
  155.9667  130.4307  150.4888 LP  0  0  0  0  0  0  0  0  0  0  0  0  # atno 17370 bound_to 10713
  157.2852  131.0615  151.2171 LP  0  0  0  0  0  0  0  0  0  0  0  0  # atno 17371 bound_to 10713
  140.9275  134.2064  157.4886 LP  0  0  0  0  0  0  0  0  0  0  0  0  # atno 17394 bound_to 11000
  139.8720  134.9818  156.5132 LP  0  0  0  0  0  0  0  0  0  0  0  0  # atno 17395 bound_to 11000

$$$$
