AV-unprocessed.smi:1723|AV-procd|sdf|6948|dock4
  -GOLD-   22720 8163D 1   1.00000     0.00000
 Structure written by MMmdl.
 37 37  0  0  0  0  0  0  0  0  2 V2000
  146.2546  138.0387  152.1162 C   0  0  0  0  0  0  0  0  0  0  0  0
  146.9068  139.4234  152.1891 C   0  0  0  0  0  0  0  0  0  0  0  0
  147.3965  139.7697  153.6023 C   0  0  0  0  0  0  0  0  0  0  0  0
  148.4856  138.8136  154.1019 C   0  0  0  0  0  0  0  0  0  0  0  0
  149.5462  139.5852  154.6457 O   0  0  0  0  0  0  0  0  0  0  0  0
  150.6048  138.8281  155.2202 C   0  0  1  0  0  0  0  0  0  0  0  0
  151.3583  138.0138  154.1490 C   0  0  0  0  0  0  0  0  0  0  0  0
  151.5342  139.8154  155.9369 C   0  0  0  0  0  0  0  0  0  0  0  0
  152.5823  140.1685  155.3955 O   0  0  0  0  0  0  0  0  0  0  0  0
  151.1128  140.2204  157.1514 N   0  0  0  0  0  0  0  0  0  0  0  0
  151.7125  141.1146  158.0548 C   0  0  0  0  0  0  0  0  0  0  0  0
  151.1843  142.3128  158.4296 C   0  0  0  0  0  0  0  0  0  0  0  0
  151.8498  143.1965  159.3786 C   0  0  0  0  0  0  0  0  0  0  0  0
  151.3455  144.5835  159.7352 C   0  0  0  0  0  0  0  0  0  0  0  0
  150.1468  144.5232  160.3155 F   0  0  0  0  0  0  0  0  0  0  0  0
  152.1855  145.1984  160.5680 F   0  0  0  0  0  0  0  0  0  0  0  0
  151.2363  145.3242  158.6333 F   0  0  0  0  0  0  0  0  0  0  0  0
  153.0475  142.6757  159.8282 C   0  0  0  0  0  0  0  0  0  0  0  0
  153.6235  141.4894  159.5339 N   0  5  0  0  0  0  0  0  0  0  0  0
  152.9936  140.6722  158.6434 C   0  0  0  0  0  0  0  0  0  0  0  0
  153.4674  139.5813  158.3236 O   0  0  0  0  0  0  0  0  0  0  0  0
  145.9175  137.8210  151.1028 H   0  0  0  0  0  0  0  0  0  0  0  0
  145.3885  137.9760  152.7757 H   0  0  0  0  0  0  0  0  0  0  0  0
  146.9562  137.2573  152.4088 H   0  0  0  0  0  0  0  0  0  0  0  0
  147.7438  139.4626  151.4912 H   0  0  0  0  0  0  0  0  0  0  0  0
  146.1914  140.1754  151.8552 H   0  0  0  0  0  0  0  0  0  0  0  0
  147.7807  140.7902  153.6154 H   0  0  0  0  0  0  0  0  0  0  0  0
  146.5543  139.7483  154.2949 H   0  0  0  0  0  0  0  0  0  0  0  0
  148.0768  138.1486  154.8641 H   0  0  0  0  0  0  0  0  0  0  0  0
  148.8403  138.1953  153.2774 H   0  0  0  0  0  0  0  0  0  0  0  0
  150.2012  138.1420  155.9677 H   0  0  0  0  0  0  0  0  0  0  0  0
  152.2607  137.5605  154.5610 H   0  0  0  0  0  0  0  0  0  0  0  0
  151.6544  138.6400  153.3067 H   0  0  0  0  0  0  0  0  0  0  0  0
  150.7461  137.2013  153.7592 H   0  0  0  0  0  0  0  0  0  0  0  0
  150.2629  139.7950  157.4922 H   0  0  0  0  0  0  0  0  0  0  0  0
  150.2333  142.6428  158.0455 H   0  0  0  0  0  0  0  0  0  0  0  0
  153.6352  143.3113  160.5245 H   0  0  0  0  0  0  0  0  0  0  0  0
  1  2  1  0  0  0  0
  1 22  1  0  0  0  0
  1 23  1  0  0  0  0
  1 24  1  0  0  0  0
  2  3  1  0  0  0  0
  2 25  1  0  0  0  0
  2 26  1  0  0  0  0
  3  4  1  0  0  0  0
  3 27  1  0  0  0  0
  3 28  1  0  0  0  0
  4  5  1  0  0  0  0
  4 29  1  0  0  0  0
  4 30  1  0  0  0  0
  5  6  1  0  0  0  0
  6  7  1  0  0  0  0
  6  8  1  0  0  0  0
  6 31  1  0  0  0  0
  7 32  1  0  0  0  0
  7 33  1  0  0  0  0
  7 34  1  0  0  0  0
  8  9  2  0  0  0  0
  8 10  1  0  0  0  0
 10 11  1  0  0  0  0
 10 35  1  0  0  0  0
 11 20  1  0  0  0  0
 11 12  2  0  0  0  0
 12 13  1  0  0  0  0
 12 36  1  0  0  0  0
 13 14  1  0  0  0  0
 13 18  2  0  0  0  0
 14 15  1  0  0  0  0
 14 16  1  0  0  0  0
 14 17  1  0  0  0  0
 18 19  1  0  0  0  0
 18 37  1  0  0  0  0
 19 20  1  0  0  0  0
 20 21  2  0  0  0  0
M  CHG  1  19  -1
M  END
> <s_m_source_file>
AV-unprocessed.smi

> <i_m_source_file_index>
1723

> <i_lp_mmshare_version>
43012

> <i_f3d_flags>
0

> <s_epik_input>
W0NIM11bQ0gyXVtDSDJdW0NIMl1PW0NASF0oW0NIM10pQyg9TylbTkhdYzFbY0hdYyhDKEYpKEYpRilbY0hdW25IXWMxPU8=

> <s_epik_cmdline>
J2VwaWtfcHl0aG9uJywgJy1waCcsICc3LjAnLCAnLXRuJywgJzgnLCAnLW1hJywgJzIwMCcsICctbWV0YWxfYmluZGluZycsICctaW1hZScsICc8aW5maWxlLm1hZT4nLCAnLW9tYWUnLCAnPG91dGZpbGUubWFlPic=

> <r_lp_tautomer_probability>
0.999

> <r_epik_Ionization_Penalty>
2.64397

> <r_epik_Ionization_Penalty_Charging>
0.0618254

> <r_epik_Ionization_Penalty_Neutral>
2.58215

> <r_epik_State_Penalty>
2.58023

> <r_epik_Charging_Adjusted_Penalty>
2.64205

> <i_epik_Tot_Q>
-1

> <i_epik_Tot_abs_Q>
1

> <r_epik_Metal_State_Penalty>
0.429101

> <b_epik_Metal_Only>
1

> <s_lp_Force_Field>
OPLS_2005

> <r_lp_Energy>
21.9007

> <b_lp_Chiralities_Consistent>
1

> <s_lp_Variant>
AV-unprocessed.smi:1723-4

> <Gold.Version>
5.8.1

> <Gold.Id.Protein>
6NUR|6NUR_protein|mol2

> <Gold.PLP.Fitness>
45.0887

> <Gold.PLP.PLP>
-43.2120

> <Gold.PLP.part.hbond>
-3.0000

> <Gold.PLP.part.metal>
0.0000

> <Gold.PLP.part.buried>
-1.1663

> <Gold.PLP.part.nonpolar>
-38.3041

> <Gold.PLP.part.repulsive>
0.1761

> <Gold.PLP.ligand.clash>
0.0000

> <Gold.PLP.ligand.torsion>
1.5932

> <Gold.PLP.Chemscore.Hbond>
1.6519

> <Gold.PLP.Chemscore.CHOScore>
0.0000

> <Gold.PLP.Chemscore.Metal>
0.0000

> <Gold.Chemscore.Hbonds>
donor molecule, donor type, donor heavy atom, donor atom, acceptor molecule, acceptor atom, score
      P1  H  7989  7998       L1     9  0.25
      P1  H  7997  8008       L1    21  0.85
      P1  H  7997  8009       L1     9  0.59

> <Gold.PLP.Chemscore.Internal.Correction>
0.1074

> <Gold.Rescore>
     Score         DG    S(hbond)    S(metal)    S(lipo)     H(rot)  DE(clash)    DE(int)     intcor
     11.41     -14.33       1.09        0.00      87.31       1.95       0.96       1.96       ----

> <Gold.Chemscore.Fitness>
11.4081

> <Gold.Chemscore.DG>
-14.3288

> <Gold.Chemscore.ZeroCoef>
-5.4800

> <Gold.Chemscore.Hbond>
1.0862

> <Gold.Chemscore.Metal>
0.0000

> <Gold.Chemscore.Lipo>
87.3071

> <Gold.Chemscore.Internal_Hbond>
0.0000

> <Gold.Chemscore.DEClash>
0.9583

> <Gold.Chemscore.DEInternal>
1.9624

> <Gold.Chemscore.Rot>
1.9507

> <Gold.Chemscore.Internal.Correction>
   9.000000E+99

> <Gold.Chemscore.Hbonds>
donor molecule, donor type, donor heavy atom, donor atom, acceptor molecule, acceptor atom, score
      P1  H  7989  7998       L1     9  0.04
      P1  H  7997  8008       L1    21  0.38
      P1  H  7997  8009       L1     9  0.59

> <Gold.Chemscore.Hbond.Weighted>
-3.6278

> <Gold.Chemscore.Metal.Weighted>
-0.0000

> <Gold.Chemscore.Lipo.Weighted>
-10.2149

> <Gold.Chemscore.Internal_Hbond.Weighted>
0.0000

> <Gold.Chemscore.DEClash.Weighted>
0.9583

> <Gold.Chemscore.DEInternal.Weighted>
1.9624

> <Gold.Chemscore.Rot.Weighted>
4.9939

> <Gold.Chemscore.Internal.Correction.Weighted>
   9.000000E+99

> <Gold.Protein.RotatedTorsions>
[ 6907 6896 6895 6894 ] final   66.57 input  -60.11 | X-H torsion
[ 7974 7965 7964 7962 ] final   32.81 input  175.53 | X-H torsion
[ 8008 7997 7996 7995 ] final -114.94 input   59.86 | X-H torsion
[ 10167 10162 10161 10158 ] final  -36.25 input  -65.29 | X-H torsion
[ 10718 10713 10712 10709 ] final -121.25 input   66.30 | X-H torsion
[ 10763 10752 10751 10750 ] final  106.51 input  -60.55 | X-H torsion
[ 11005 11000 10999 10996 ] final   73.34 input  -57.11 | X-H torsion

> <Gold.Protein.ActiveResidues>
 VAL166  LYS551  ARG553  GLY616  TRP617  ASP618  TYR619  PRO620  LYS621  CYS622 
 ASP623  PHE694  ASN695  SER759  ASP760  ASP761  ALA762  ILE779  LEU786  VAL792 
 PHE793  MET794  SER795  GLU796  ALA797  LYS798  CYS799  TRP800  GLU811  SER814 

> <Gold.Protein.RotatedAtoms>
  152.4491  134.5432  159.9845 H   0  0  0  0  0  0  0  0  0  0  0  0  # atno 6907 bound_to 6896
  151.5510  133.3412  159.2961 H   0  0  0  0  0  0  0  0  0  0  0  0  # atno 6908 bound_to 6896
  150.8415  134.7740  159.6999 H   0  0  0  0  0  0  0  0  0  0  0  0  # atno 6909 bound_to 6896
  146.1462  139.6478  142.9129 H   0  0  0  0  0  0  0  0  0  0  0  0  # atno 7974 bound_to 7965
  155.0442  140.0392  157.2520 H   0  0  0  0  0  0  0  0  0  0  0  0  # atno 8008 bound_to 7997
  154.7191  140.2708  155.6534 H   0  0  0  0  0  0  0  0  0  0  0  0  # atno 8009 bound_to 7997
  156.2811  140.2706  156.1857 H   0  0  0  0  0  0  0  0  0  0  0  0  # atno 8010 bound_to 7997
  140.7147  143.3421  151.2334 H   0  0  0  0  0  0  0  0  0  0  0  0  # atno 10167 bound_to 10162
  156.1322  130.6404  150.9639 H   0  0  0  0  0  0  0  0  0  0  0  0  # atno 10718 bound_to 10713
  153.3940  135.3874  155.1942 H   0  0  0  0  0  0  0  0  0  0  0  0  # atno 10763 bound_to 10752
  154.8722  135.3755  154.4702 H   0  0  0  0  0  0  0  0  0  0  0  0  # atno 10764 bound_to 10752
  153.5192  135.7087  153.5802 H   0  0  0  0  0  0  0  0  0  0  0  0  # atno 10765 bound_to 10752
  139.9445  134.7339  156.1015 H   0  0  0  0  0  0  0  0  0  0  0  0  # atno 11005 bound_to 11000
  145.4931  141.0438  143.2582 LP  0  0  0  0  0  0  0  0  0  0  0  0  # atno 17320 bound_to 7965
  144.7849  139.6447  143.7138 LP  0  0  0  0  0  0  0  0  0  0  0  0  # atno 17321 bound_to 7965
  139.6931  143.9658  152.2869 LP  0  0  0  0  0  0  0  0  0  0  0  0  # atno 17342 bound_to 10162
  139.9326  144.6732  150.8347 LP  0  0  0  0  0  0  0  0  0  0  0  0  # atno 17343 bound_to 10162
  157.6499  131.0898  150.8074 LP  0  0  0  0  0  0  0  0  0  0  0  0  # atno 17370 bound_to 10713
  156.8158  130.4967  149.5349 LP  0  0  0  0  0  0  0  0  0  0  0  0  # atno 17371 bound_to 10713
  141.1091  133.6649  156.2934 LP  0  0  0  0  0  0  0  0  0  0  0  0  # atno 17394 bound_to 11000
  140.5869  134.5689  157.5491 LP  0  0  0  0  0  0  0  0  0  0  0  0  # atno 17395 bound_to 11000

$$$$
