AV-unprocessed.smi:196|AV-procd|sdf|1534|dock8
  -GOLD-   2262019383D 1   1.00000     0.00000
 Structure written by MMmdl.
 47 50  0  0  0  0  0  0  0  0  1 V2000
  152.4985  144.6935  160.6921 C   0  0  0  0  0  0  0  0  0  0  0  0
  152.7978  143.9613  159.3728 C   0  0  2  0  0  0  0  0  0  0  0  0
  152.5374  144.8875  158.3166 O   0  0  0  0  0  0  0  0  0  0  0  0
  151.7395  144.2788  157.3125 C   0  0  0  0  0  0  0  0  0  0  0  0
  150.9098  143.2678  158.0867 C   0  0  0  0  0  0  0  0  0  0  0  0
  151.9253  142.7127  159.0798 C   0  0  2  0  0  0  0  0  0  0  0  0
  151.2317  142.2406  160.2224 O   0  0  0  0  0  0  0  0  0  0  0  0
  152.7882  141.5508  158.5190 C   0  0  0  0  0  0  0  0  0  0  0  0
  153.5683  140.8476  159.5256 N   0  0  0  0  0  0  0  0  0  0  0  0
  154.4654  141.3999  160.4119 C   0  0  0  0  0  0  0  0  0  0  0  0
  155.0416  140.5530  161.2207 N   0  0  0  0  0  0  0  0  0  0  0  0
  154.5095  139.3223  160.8580 C   0  0  0  0  0  0  0  0  0  0  0  0
  154.6942  137.9904  161.3167 C   0  0  0  0  0  0  0  0  0  0  0  0
  155.5172  137.6898  162.3517 N   0  0  0  0  0  0  0  0  0  0  0  0
  155.4871  136.3117  162.8369 C   0  0  0  0  0  0  0  0  0  0  0  0
  154.7886  136.3755  164.1887 C   0  0  1  0  0  0  0  0  0  0  0  0
  155.0949  135.3447  164.9759 F   0  0  0  0  0  0  0  0  0  0  0  0
  155.2899  137.7030  164.7397 C   0  0  0  0  0  0  0  0  0  0  0  0
  155.3883  138.6091  163.4953 C   0  0  1  0  0  0  0  0  0  0  0  0
  156.5469  139.6141  163.6255 C   0  0  0  0  0  0  0  0  0  0  0  0
  156.2749  140.9218  163.5721 N   0  0  0  0  0  0  0  0  0  0  0  0
  157.6943  139.2018  163.7797 O   0  0  0  0  0  0  0  0  0  0  0  0
  153.9811  137.0072  160.7049 N   0  0  0  0  0  0  0  0  0  0  0  0
  153.1498  137.3059  159.7020 C   0  0  0  0  0  0  0  0  0  0  0  0
  152.8797  138.4996  159.1696 N   0  0  0  0  0  0  0  0  0  0  0  0
  153.5881  139.4885  159.7866 C   0  0  0  0  0  0  0  0  0  0  0  0
  153.7048  136.3952  164.0643 H   0  0  0  0  0  0  0  0  0  0  0  0
  154.4607  139.1807  163.4126 H   0  0  0  0  0  0  0  0  0  0  0  0
  152.7144  144.0620  161.5542 H   0  0  0  0  0  0  0  0  0  0  0  0
  151.4532  144.9988  160.7492 H   0  0  0  0  0  0  0  0  0  0  0  0
  153.1098  145.5914  160.7834 H   0  0  0  0  0  0  0  0  0  0  0  0
  153.8570  143.7010  159.3528 H   0  0  0  0  0  0  0  0  0  0  0  0
  151.1283  145.0125  156.7867 H   0  0  0  0  0  0  0  0  0  0  0  0
  152.3822  143.7828  156.5842 H   0  0  0  0  0  0  0  0  0  0  0  0
  150.1138  143.7973  158.6133 H   0  0  0  0  0  0  0  0  0  0  0  0
  150.4366  142.5216  157.4499 H   0  0  0  0  0  0  0  0  0  0  0  0
  151.3398  142.8697  160.9188 H   0  0  0  0  0  0  0  0  0  0  0  0
  152.1576  140.8207  158.0102 H   0  0  0  0  0  0  0  0  0  0  0  0
  153.4758  141.9285  157.7609 H   0  0  0  0  0  0  0  0  0  0  0  0
  154.6780  142.4589  160.4422 H   0  0  0  0  0  0  0  0  0  0  0  0
  155.0045  135.6068  162.1578 H   0  0  0  0  0  0  0  0  0  0  0  0
  156.5190  135.9798  162.9586 H   0  0  0  0  0  0  0  0  0  0  0  0
  154.6275  138.1106  165.5042 H   0  0  0  0  0  0  0  0  0  0  0  0
  156.2711  137.5574  165.1963 H   0  0  0  0  0  0  0  0  0  0  0  0
  157.0242  141.5945  163.6486 H   0  0  0  0  0  0  0  0  0  0  0  0
  155.3222  141.2317  163.4483 H   0  0  0  0  0  0  0  0  0  0  0  0
  152.6239  136.4692  159.2661 H   0  0  0  0  0  0  0  0  0  0  0  0
  1  2  1  0  0  0  0
  1 29  1  0  0  0  0
  1 30  1  0  0  0  0
  1 31  1  0  0  0  0
  2  6  1  0  0  0  0
  2  3  1  0  0  0  0
  2 32  1  0  0  0  0
  3  4  1  0  0  0  0
  4  5  1  0  0  0  0
  4 33  1  0  0  0  0
  4 34  1  0  0  0  0
  5  6  1  0  0  0  0
  5 35  1  0  0  0  0
  5 36  1  0  0  0  0
  6  7  1  0  0  0  0
  6  8  1  0  0  0  0
  7 37  1  0  0  0  0
  8  9  1  0  0  0  0
  8 38  1  0  0  0  0
  8 39  1  0  0  0  0
  9 26  1  0  0  0  0
  9 10  1  0  0  0  0
 10 11  2  0  0  0  0
 10 40  1  0  0  0  0
 11 12  1  0  0  0  0
 12 26  2  0  0  0  0
 12 13  1  0  0  0  0
 13 14  1  0  0  0  0
 13 23  2  0  0  0  0
 14 19  1  0  0  0  0
 14 15  1  0  0  0  0
 15 16  1  0  0  0  0
 15 41  1  0  0  0  0
 15 42  1  0  0  0  0
 16 27  1  0  0  0  0
 16 17  1  0  0  0  0
 16 18  1  0  0  0  0
 18 19  1  0  0  0  0
 18 43  1  0  0  0  0
 18 44  1  0  0  0  0
 19 28  1  0  0  0  0
 19 20  1  0  0  0  0
 20 21  1  0  0  0  0
 20 22  2  0  0  0  0
 21 45  1  0  0  0  0
 21 46  1  0  0  0  0
 23 24  1  0  0  0  0
 24 25  2  0  0  0  0
 24 47  1  0  0  0  0
 25 26  1  0  0  0  0
M  END
> <s_m_source_file>
AV-unprocessed.smi

> <i_m_source_file_index>
196

> <i_lp_mmshare_version>
43012

> <i_f3d_flags>
0

> <s_epik_input>
W0NIMl0xW0NIMl1PW0NAQEhdKFtDSDNdKVtDQEBdMShbT0hdKVtDSDJdbihbY0hdbjIpYyhjMjMpbltjSF1uYzNONFtDSDJdW0NASF0oRilbQ0gyXVtDQEhdNEMoPU8pW05IMl0=

> <s_epik_cmdline>
J2VwaWtfcHl0aG9uJywgJy1waCcsICc3LjAnLCAnLXRuJywgJzgnLCAnLW1hJywgJzIwMCcsICctbWV0YWxfYmluZGluZycsICctaW1hZScsICc8aW5maWxlLm1hZT4nLCAnLW9tYWUnLCAnPG91dGZpbGUubWFlPic=

> <r_lp_tautomer_probability>
1

> <r_epik_Ionization_Penalty>
0.000857933

> <r_epik_Ionization_Penalty_Charging>
0

> <r_epik_Ionization_Penalty_Neutral>
0.000857933

> <r_epik_State_Penalty>
0.000462053

> <r_epik_Charging_Adjusted_Penalty>
0.000462053

> <i_epik_Tot_Q>
0

> <i_epik_Tot_abs_Q>
0

> <r_epik_Metal_State_Penalty>
-0

> <b_epik_Metal_Only>
0

> <s_lp_Force_Field>
OPLS_2005

> <r_lp_Energy>
47.3735

> <b_lp_Chiralities_Consistent>
1

> <s_lp_Variant>
AV-unprocessed.smi:196-7

> <Gold.Version>
5.8.1

> <Gold.Id.Protein>
6NUR|6NUR_protein|mol2

> <Gold.PLP.Fitness>
43.5834

> <Gold.PLP.PLP>
-44.3017

> <Gold.PLP.part.hbond>
-0.9596

> <Gold.PLP.part.metal>
0.0000

> <Gold.PLP.part.buried>
-6.4711

> <Gold.PLP.part.nonpolar>
-37.3100

> <Gold.PLP.part.repulsive>
0.0171

> <Gold.PLP.ligand.clash>
0.0000

> <Gold.PLP.ligand.torsion>
0.4134

> <Gold.PLP.Chemscore.Hbond>
0.0000

> <Gold.PLP.Chemscore.CHOScore>
0.0000

> <Gold.PLP.Chemscore.Metal>
0.0000

> <Gold.PLP.Chemscore.Internal.Correction>
0.1085

> <Gold.Rescore>
     Score         DG    S(hbond)    S(metal)    S(lipo)     H(rot)  DE(clash)    DE(int)     intcor
      7.53     -10.16       0.00        0.00     106.52       3.04       0.08       2.55       ----

> <Gold.Chemscore.Fitness>
7.5264

> <Gold.Chemscore.DG>
-10.1611

> <Gold.Chemscore.ZeroCoef>
-5.4800

> <Gold.Chemscore.Hbond>
0.0010

> <Gold.Chemscore.Metal>
0.0000

> <Gold.Chemscore.Lipo>
106.5239

> <Gold.Chemscore.Internal_Hbond>
0.0000

> <Gold.Chemscore.DEClash>
0.0836

> <Gold.Chemscore.DEInternal>
2.5512

> <Gold.Chemscore.Rot>
3.0413

> <Gold.Chemscore.Internal.Correction>
   9.000000E+99

> <Gold.Chemscore.Hbond.Weighted>
-0.0035

> <Gold.Chemscore.Metal.Weighted>
-0.0000

> <Gold.Chemscore.Lipo.Weighted>
-12.4633

> <Gold.Chemscore.Internal_Hbond.Weighted>
0.0000

> <Gold.Chemscore.DEClash.Weighted>
0.0836

> <Gold.Chemscore.DEInternal.Weighted>
2.5512

> <Gold.Chemscore.Rot.Weighted>
7.7856

> <Gold.Chemscore.Internal.Correction.Weighted>
   9.000000E+99

> <Gold.Protein.RotatedTorsions>
[ 6907 6896 6895 6894 ] final  -75.28 input  -60.11 | X-H torsion
[ 7974 7965 7964 7962 ] final    7.93 input  175.53 | X-H torsion
[ 8008 7997 7996 7995 ] final  -76.49 input   59.86 | X-H torsion
[ 10167 10162 10161 10158 ] final  161.05 input  -65.29 | X-H torsion
[ 10718 10713 10712 10709 ] final -116.87 input   66.30 | X-H torsion
[ 10763 10752 10751 10750 ] final  -48.88 input  -60.55 | X-H torsion
[ 11005 11000 10999 10996 ] final  111.16 input  -57.11 | X-H torsion

> <Gold.Protein.ActiveResidues>
 VAL166  LYS551  ARG553  GLY616  TRP617  ASP618  TYR619  PRO620  LYS621  CYS622 
 ASP623  PHE694  ASN695  SER759  ASP760  ASP761  ALA762  ILE779  LEU786  VAL792 
 PHE793  MET794  SER795  GLU796  ALA797  LYS798  CYS799  TRP800  GLU811  SER814 

> <Gold.Protein.RotatedAtoms>
  150.7064  134.4744  159.5440 H   0  0  0  0  0  0  0  0  0  0  0  0  # atno 6907 bound_to 6896
  152.2393  134.8241  160.0471 H   0  0  0  0  0  0  0  0  0  0  0  0  # atno 6908 bound_to 6896
  151.9028  133.3507  159.3873 H   0  0  0  0  0  0  0  0  0  0  0  0  # atno 6909 bound_to 6896
  146.2422  140.0010  142.8416 H   0  0  0  0  0  0  0  0  0  0  0  0  # atno 7974 bound_to 7965
  154.5510  140.0726  156.8667 H   0  0  0  0  0  0  0  0  0  0  0  0  # atno 8008 bound_to 7997
  155.2994  140.3383  155.4230 H   0  0  0  0  0  0  0  0  0  0  0  0  # atno 8009 bound_to 7997
  156.1961  140.1704  156.7981 H   0  0  0  0  0  0  0  0  0  0  0  0  # atno 8010 bound_to 7997
  139.4845  144.4574  151.8749 H   0  0  0  0  0  0  0  0  0  0  0  0  # atno 10167 bound_to 10162
  156.0993  130.6159  150.9091 H   0  0  0  0  0  0  0  0  0  0  0  0  # atno 10718 bound_to 10713
  154.0850  135.6585  153.4843 H   0  0  0  0  0  0  0  0  0  0  0  0  # atno 10763 bound_to 10752
  153.0342  135.5189  154.7437 H   0  0  0  0  0  0  0  0  0  0  0  0  # atno 10764 bound_to 10752
  154.6543  135.3005  154.9916 H   0  0  0  0  0  0  0  0  0  0  0  0  # atno 10765 bound_to 10752
  139.8897  134.9501  156.6390 H   0  0  0  0  0  0  0  0  0  0  0  0  # atno 11005 bound_to 11000
  145.1415  140.9574  143.4486 LP  0  0  0  0  0  0  0  0  0  0  0  0  # atno 17320 bound_to 7965
  145.0291  139.3356  143.6034 LP  0  0  0  0  0  0  0  0  0  0  0  0  # atno 17321 bound_to 7965
  140.4035  144.2462  150.5892 LP  0  0  0  0  0  0  0  0  0  0  0  0  # atno 17342 bound_to 10162
  140.5035  143.2311  151.8643 LP  0  0  0  0  0  0  0  0  0  0  0  0  # atno 17343 bound_to 10162
  157.6161  131.0933  150.8708 LP  0  0  0  0  0  0  0  0  0  0  0  0  # atno 17370 bound_to 10713
  156.8840  130.5189  149.5289 LP  0  0  0  0  0  0  0  0  0  0  0  0  # atno 17371 bound_to 10713
  140.7608  133.8819  155.8417 LP  0  0  0  0  0  0  0  0  0  0  0  0  # atno 17394 bound_to 11000
  140.9923  134.1262  157.4396 LP  0  0  0  0  0  0  0  0  0  0  0  0  # atno 17395 bound_to 11000

$$$$
