AV-unprocessed.smi:438|AV-procd|sdf|2566|dock9
  -GOLD-   2262022543D 1   1.00000     0.00000
 Structure written by MMmdl.
 48 49  0  0  0  0  0  0  0  0  1 V2000
  143.8921  144.6480  154.5033 C   0  0  0  0  0  0  0  0  0  0  0  0
  144.8005  143.6072  155.1338 C   0  0  0  0  0  0  0  0  0  0  0  0
  145.8279  143.1300  154.3120 N   0  0  0  0  0  0  0  0  0  0  0  0
  146.6766  142.2627  154.7632 C   0  0  0  0  0  0  0  0  0  0  0  0
  148.1118  141.5081  153.9355 S   0  0  0  0  0  0  0  0  0  0  0  0
  148.8059  140.4496  155.2427 C   0  0  0  0  0  0  0  0  0  0  0  0
  150.1843  140.9102  155.7177 C   0  0  0  0  0  0  0  0  0  0  0  0
  151.1984  140.3868  155.2576 O   0  0  0  0  0  0  0  0  0  0  0  0
  150.1941  141.8657  156.6630 N   0  0  0  0  0  0  0  0  0  0  0  0
  151.3493  142.3858  157.3970 C   0  0  1  0  0  0  0  0  0  0  0  0
  151.1880  143.8901  157.7059 C   0  0  0  0  0  0  0  0  0  0  0  0
  152.4473  144.4555  158.3774 C   0  0  0  0  0  0  0  0  0  0  0  0
  152.7992  143.6610  159.6441 C   0  0  0  0  0  0  0  0  0  0  0  0
  152.9630  142.1632  159.3378 C   0  0  0  0  0  0  0  0  0  0  0  0
  151.7050  141.5711  158.6697 C   0  0  2  0  0  0  0  0  0  0  0  0
  151.8997  140.0721  158.3815 C   0  0  0  0  0  0  0  0  0  0  0  0
  146.5636  141.7794  156.0669 N   0  0  0  0  0  0  0  0  0  0  0  0
  145.6037  142.1672  156.9359 C   0  0  0  0  0  0  0  0  0  0  0  0
  145.5683  141.7005  158.0735 O   0  0  0  0  0  0  0  0  0  0  0  0
  144.6499  143.1599  156.4124 C   0  0  0  0  0  0  0  0  0  0  0  0
  143.5560  143.6595  157.3559 C   0  0  0  0  0  0  0  0  0  0  0  0
  144.1069  144.2839  158.6499 C   0  0  0  0  0  0  0  0  0  0  0  0
  144.8066  145.4790  158.3739 O   0  0  0  0  0  0  0  0  0  0  0  0
  142.8478  144.3440  154.5728 H   0  0  0  0  0  0  0  0  0  0  0  0
  144.1279  144.7931  153.4482 H   0  0  0  0  0  0  0  0  0  0  0  0
  144.0101  145.6085  155.0054 H   0  0  0  0  0  0  0  0  0  0  0  0
  148.8405  139.4180  154.8892 H   0  0  0  0  0  0  0  0  0  0  0  0
  148.1256  140.4659  156.0944 H   0  0  0  0  0  0  0  0  0  0  0  0
  149.2959  142.2221  156.9567 H   0  0  0  0  0  0  0  0  0  0  0  0
  152.1855  142.2883  156.7033 H   0  0  0  0  0  0  0  0  0  0  0  0
  150.9861  144.4421  156.7870 H   0  0  0  0  0  0  0  0  0  0  0  0
  150.3309  144.0558  158.3594 H   0  0  0  0  0  0  0  0  0  0  0  0
  153.2831  144.4201  157.6775 H   0  0  0  0  0  0  0  0  0  0  0  0
  152.2954  145.5063  158.6265 H   0  0  0  0  0  0  0  0  0  0  0  0
  153.7174  144.0519  160.0832 H   0  0  0  0  0  0  0  0  0  0  0  0
  152.0166  143.7975  160.3915 H   0  0  0  0  0  0  0  0  0  0  0  0
  153.8275  142.0193  158.6883 H   0  0  0  0  0  0  0  0  0  0  0  0
  153.1811  141.6272  160.2622 H   0  0  0  0  0  0  0  0  0  0  0  0
  150.8874  141.6629  159.3854 H   0  0  0  0  0  0  0  0  0  0  0  0
  152.6918  139.9091  157.6501 H   0  0  0  0  0  0  0  0  0  0  0  0
  150.9886  139.6147  157.9953 H   0  0  0  0  0  0  0  0  0  0  0  0
  152.1695  139.5319  159.2894 H   0  0  0  0  0  0  0  0  0  0  0  0
  147.2395  141.1021  156.3887 H   0  0  0  0  0  0  0  0  0  0  0  0
  142.8620  142.8583  157.6074 H   0  0  0  0  0  0  0  0  0  0  0  0
  142.9526  144.3984  156.8270 H   0  0  0  0  0  0  0  0  0  0  0  0
  143.3057  144.4929  159.3591 H   0  0  0  0  0  0  0  0  0  0  0  0
  144.7899  143.5883  159.1380 H   0  0  0  0  0  0  0  0  0  0  0  0
  145.7340  145.2997  158.4120 H   0  0  0  0  0  0  0  0  0  0  0  0
  1 24  1  0  0  0  0
  1 25  1  0  0  0  0
  1 26  1  0  0  0  0
  1  2  1  0  0  0  0
  2 20  2  0  0  0  0
  2  3  1  0  0  0  0
  3  4  2  0  0  0  0
  4  5  1  0  0  0  0
  4 17  1  0  0  0  0
  5  6  1  0  0  0  0
  6  7  1  0  0  0  0
  6 27  1  0  0  0  0
  6 28  1  0  0  0  0
  7  8  2  0  0  0  0
  7  9  1  0  0  0  0
  9 10  1  0  0  0  0
  9 29  1  0  0  0  0
 10 15  1  0  0  0  0
 10 11  1  0  0  0  0
 10 30  1  0  0  0  0
 11 12  1  0  0  0  0
 11 31  1  0  0  0  0
 11 32  1  0  0  0  0
 12 13  1  0  0  0  0
 12 33  1  0  0  0  0
 12 34  1  0  0  0  0
 13 14  1  0  0  0  0
 13 35  1  0  0  0  0
 13 36  1  0  0  0  0
 14 15  1  0  0  0  0
 14 37  1  0  0  0  0
 14 38  1  0  0  0  0
 15 16  1  0  0  0  0
 15 39  1  0  0  0  0
 16 40  1  0  0  0  0
 16 41  1  0  0  0  0
 16 42  1  0  0  0  0
 17 43  1  0  0  0  0
 17 18  1  0  0  0  0
 18 19  2  0  0  0  0
 18 20  1  0  0  0  0
 20 21  1  0  0  0  0
 21 22  1  0  0  0  0
 21 44  1  0  0  0  0
 21 45  1  0  0  0  0
 22 23  1  0  0  0  0
 22 46  1  0  0  0  0
 22 47  1  0  0  0  0
 23 48  1  0  0  0  0
M  END
> <s_m_source_file>
AV-unprocessed.smi

> <i_m_source_file_index>
438

> <i_lp_mmshare_version>
43012

> <i_f3d_flags>
0

> <s_epik_input>
W09IXVtDSDJdW0NIMl1jMWMoW09IXSluYyhuYzFbQ0gzXSlTW0NIMl1DKD1PKVtOSF1bQ0BASF0yW0NIMl1bQ0gyXVtDSDJdW0NIMl1bQ0BIXTJbQ0gzXQ==

> <s_epik_cmdline>
J2VwaWtfcHl0aG9uJywgJy1waCcsICc3LjAnLCAnLXRuJywgJzgnLCAnLW1hJywgJzIwMCcsICctbWV0YWxfYmluZGluZycsICctaW1hZScsICc8aW5maWxlLm1hZT4nLCAnLW9tYWUnLCAnPG91dGZpbGUubWFlPic=

> <r_lp_tautomer_probability>
0.660323

> <r_epik_Ionization_Penalty>
0.00860626

> <r_epik_Ionization_Penalty_Charging>
0.00860522

> <r_epik_Ionization_Penalty_Neutral>
1.04215e-06

> <r_epik_State_Penalty>
0.156825

> <r_epik_Charging_Adjusted_Penalty>
0.16543

> <i_epik_Tot_Q>
0

> <i_epik_Tot_abs_Q>
0

> <r_epik_Metal_State_Penalty>
0.752038

> <b_epik_Metal_Only>
0

> <s_lp_Force_Field>
OPLS_2005

> <r_lp_Energy>
14.076

> <b_lp_Chiralities_Consistent>
1

> <s_lp_Variant>
AV-unprocessed.smi:438-4

> <Gold.Version>
5.8.1

> <Gold.Id.Protein>
6NUR|6NUR_protein|mol2

> <Gold.PLP.Fitness>
48.2980

> <Gold.PLP.PLP>
-44.9170

> <Gold.PLP.part.hbond>
-2.4700

> <Gold.PLP.part.metal>
0.0000

> <Gold.PLP.part.buried>
-4.8068

> <Gold.PLP.part.nonpolar>
-38.9705

> <Gold.PLP.part.repulsive>
0.3461

> <Gold.PLP.ligand.clash>
0.5765

> <Gold.PLP.ligand.torsion>
1.0784

> <Gold.PLP.Chemscore.Hbond>
2.0000

> <Gold.PLP.Chemscore.CHOScore>
0.0000

> <Gold.PLP.Chemscore.Metal>
0.0000

> <Gold.Chemscore.Hbonds>
donor molecule, donor type, donor heavy atom, donor atom, acceptor molecule, acceptor atom, score
      P1  H  7989  7998       L1     8  0.99

> <Gold.PLP.Chemscore.Internal.Correction>
0.1143

> <Gold.Rescore>
     Score         DG    S(hbond)    S(metal)    S(lipo)     H(rot)  DE(clash)    DE(int)     intcor
     15.63     -16.81       1.91        0.00     104.94       2.86       0.04       1.14       ----

> <Gold.Chemscore.Fitness>
15.6299

> <Gold.Chemscore.DG>
-16.8097

> <Gold.Chemscore.ZeroCoef>
-5.4800

> <Gold.Chemscore.Hbond>
1.9118

> <Gold.Chemscore.Metal>
0.0000

> <Gold.Chemscore.Lipo>
104.9356

> <Gold.Chemscore.Internal_Hbond>
0.0000

> <Gold.Chemscore.DEClash>
0.0375

> <Gold.Chemscore.DEInternal>
1.1424

> <Gold.Chemscore.Rot>
2.8645

> <Gold.Chemscore.Internal.Correction>
   9.000000E+99

> <Gold.Chemscore.Hbonds>
donor molecule, donor type, donor heavy atom, donor atom, acceptor molecule, acceptor atom, score
      L1  H    23    48       P1  8029  0.02
      P1  H  7989  7998       L1     8  0.87

> <Gold.Chemscore.Hbond.Weighted>
-6.3853

> <Gold.Chemscore.Metal.Weighted>
-0.0000

> <Gold.Chemscore.Lipo.Weighted>
-12.2775

> <Gold.Chemscore.Internal_Hbond.Weighted>
0.0000

> <Gold.Chemscore.DEClash.Weighted>
0.0375

> <Gold.Chemscore.DEInternal.Weighted>
1.1424

> <Gold.Chemscore.Rot.Weighted>
7.3331

> <Gold.Chemscore.Internal.Correction.Weighted>
   9.000000E+99

> <Gold.Protein.RotatedTorsions>
[ 6907 6896 6895 6894 ] final -157.89 input  -60.11 | X-H torsion
[ 7974 7965 7964 7962 ] final  121.06 input  175.53 | X-H torsion
[ 8008 7997 7996 7995 ] final  101.94 input   59.86 | X-H torsion
[ 10167 10162 10161 10158 ] final -178.12 input  -65.29 | X-H torsion
[ 10718 10713 10712 10709 ] final -132.59 input   66.30 | X-H torsion
[ 10763 10752 10751 10750 ] final -106.22 input  -60.55 | X-H torsion
[ 11005 11000 10999 10996 ] final  171.35 input  -57.11 | X-H torsion

> <Gold.Protein.ActiveResidues>
 VAL166  LYS551  ARG553  GLY616  TRP617  ASP618  TYR619  PRO620  LYS621  CYS622 
 ASP623  PHE694  ASN695  SER759  ASP760  ASP761  ALA762  ILE779  LEU786  VAL792 
 PHE793  MET794  SER795  GLU796  ALA797  LYS798  CYS799  TRP800  GLU811  SER814 

> <Gold.Protein.RotatedAtoms>
  151.3098  133.4086  159.2645 H   0  0  0  0  0  0  0  0  0  0  0  0  # atno 6907 bound_to 6896
  151.0124  134.9408  159.8025 H   0  0  0  0  0  0  0  0  0  0  0  0  # atno 6908 bound_to 6896
  152.5304  134.3062  159.9149 H   0  0  0  0  0  0  0  0  0  0  0  0  # atno 6909 bound_to 6896
  145.1238  139.3371  143.4700 H   0  0  0  0  0  0  0  0  0  0  0  0  # atno 7974 bound_to 7965
  156.1346  140.3189  155.8401 H   0  0  0  0  0  0  0  0  0  0  0  0  # atno 8008 bound_to 7997
  155.4268  140.0516  157.3038 H   0  0  0  0  0  0  0  0  0  0  0  0  # atno 8009 bound_to 7997
  154.4926  140.2098  155.9527 H   0  0  0  0  0  0  0  0  0  0  0  0  # atno 8010 bound_to 7997
  139.5447  144.2266  152.0966 H   0  0  0  0  0  0  0  0  0  0  0  0  # atno 10167 bound_to 10162
  156.2361  130.7067  151.0909 H   0  0  0  0  0  0  0  0  0  0  0  0  # atno 10718 bound_to 10713
  154.7998  135.4720  154.0248 H   0  0  0  0  0  0  0  0  0  0  0  0  # atno 10763 bound_to 10752
  153.1763  135.6833  153.8546 H   0  0  0  0  0  0  0  0  0  0  0  0  # atno 10764 bound_to 10752
  153.8111  135.3217  155.3378 H   0  0  0  0  0  0  0  0  0  0  0  0  # atno 10765 bound_to 10752
  140.3181  134.7460  157.4043 H   0  0  0  0  0  0  0  0  0  0  0  0  # atno 11005 bound_to 11000
  146.3519  140.1209  142.8600 LP  0  0  0  0  0  0  0  0  0  0  0  0  # atno 17320 bound_to 7965
  145.0711  140.9156  143.4882 LP  0  0  0  0  0  0  0  0  0  0  0  0  # atno 17321 bound_to 7965
  140.1751  144.4898  150.6558 LP  0  0  0  0  0  0  0  0  0  0  0  0  # atno 17342 bound_to 10162
  140.6691  143.2279  151.5669 LP  0  0  0  0  0  0  0  0  0  0  0  0  # atno 17343 bound_to 10162
  157.7155  131.0712  150.6343 LP  0  0  0  0  0  0  0  0  0  0  0  0  # atno 17370 bound_to 10713
  156.6413  130.4459  149.5751 LP  0  0  0  0  0  0  0  0  0  0  0  0  # atno 17371 bound_to 10713
  140.0966  134.5529  155.8393 LP  0  0  0  0  0  0  0  0  0  0  0  0  # atno 17394 bound_to 11000
  141.2093  133.6682  156.6429 LP  0  0  0  0  0  0  0  0  0  0  0  0  # atno 17395 bound_to 11000

$$$$
