AV-unprocessed.smi:2776|AV-procd|sdf|10707|dock5
  -GOLD-   2272015143D 1   1.00000     0.00000
 Structure written by MMmdl.
 26 27  0  0  0  0  0  0  0  0  2 V2000
  149.7405  140.8196  153.4924 O   0  0  0  0  0  0  0  0  0  0  0  0
  148.8896  140.7141  154.6182 C   0  0  1  0  0  0  0  0  0  0  0  0
  149.3818  141.6518  155.7402 C   0  0  0  0  0  0  0  0  0  0  0  0
  150.4911  141.0792  156.5169 N   0  0  0  0  0  0  0  0  0  0  0  0
  151.1728  139.9166  156.3291 C   0  0  0  0  0  0  0  0  0  0  0  0
  152.1131  139.8272  157.3103 N   0  3  0  0  0  0  0  0  0  0  0  0
  152.0324  140.9499  158.1370 C   0  0  0  0  0  0  0  0  0  0  0  0
  152.7728  141.3106  159.2582 C   0  0  0  0  0  0  0  0  0  0  0  0
  152.4363  142.5334  159.8754 C   0  0  0  0  0  0  0  0  0  0  0  0
  153.1262  142.9326  160.9700 F   0  0  0  0  0  0  0  0  0  0  0  0
  151.3979  143.3469  159.3743 C   0  0  0  0  0  0  0  0  0  0  0  0
  151.1086  144.5149  159.9952 F   0  0  0  0  0  0  0  0  0  0  0  0
  150.6533  142.9695  158.2373 C   0  0  0  0  0  0  0  0  0  0  0  0
  150.9921  141.7591  157.6337 C   0  0  0  0  0  0  0  0  0  0  0  0
  147.4407  141.0079  154.1841 C   0  0  0  0  0  0  0  0  0  0  0  0
  147.3289  142.2798  153.8003 F   0  0  0  0  0  0  0  0  0  0  0  0
  147.1222  140.2342  153.1466 F   0  0  0  0  0  0  0  0  0  0  0  0
  146.5858  140.7640  155.1779 F   0  0  0  0  0  0  0  0  0  0  0  0
  149.4874  140.1596  152.8646 H   0  0  0  0  0  0  0  0  0  0  0  0
  148.9455  139.6834  154.9711 H   0  0  0  0  0  0  0  0  0  0  0  0
  149.6835  142.6216  155.3440 H   0  0  0  0  0  0  0  0  0  0  0  0
  148.5705  141.8497  156.4415 H   0  0  0  0  0  0  0  0  0  0  0  0
  150.9998  139.1953  155.5432 H   0  0  0  0  0  0  0  0  0  0  0  0
  153.5693  140.6919  159.6443 H   0  0  0  0  0  0  0  0  0  0  0  0
  149.8648  143.6035  157.8600 H   0  0  0  0  0  0  0  0  0  0  0  0
  152.7615  139.0558  157.4052 H   0  0  0  0  0  0  0  0  0  0  0  0
  1  2  1  0  0  0  0
  1 19  1  0  0  0  0
  2  3  1  0  0  0  0
  2 15  1  0  0  0  0
  2 20  1  0  0  0  0
  3  4  1  0  0  0  0
  3 21  1  0  0  0  0
  3 22  1  0  0  0  0
  4 14  1  0  0  0  0
  4  5  1  0  0  0  0
  5  6  2  0  0  0  0
  5 23  1  0  0  0  0
  6  7  1  0  0  0  0
  6 26  1  0  0  0  0
  7 14  2  0  0  0  0
  7  8  1  0  0  0  0
  8  9  2  0  0  0  0
  8 24  1  0  0  0  0
  9 10  1  0  0  0  0
  9 11  1  0  0  0  0
 11 12  1  0  0  0  0
 11 13  2  0  0  0  0
 13 14  1  0  0  0  0
 13 25  1  0  0  0  0
 15 16  1  0  0  0  0
 15 17  1  0  0  0  0
 15 18  1  0  0  0  0
M  CHG  1   6   1
M  END
> <s_m_source_file>
AV-unprocessed.smi

> <i_m_source_file_index>
2776

> <i_lp_mmshare_version>
43012

> <i_f3d_flags>
0

> <s_epik_input>
RkMoRikoRilbQ0BIXShbT0hdKVtDSDJdbihbY0hdbjEpYyhjMTIpW2NIXWMoRiljKEYpW2NIXTI=

> <s_epik_cmdline>
J2VwaWtfcHl0aG9uJywgJy1waCcsICc3LjAnLCAnLXRuJywgJzgnLCAnLW1hJywgJzIwMCcsICctbWV0YWxfYmluZGluZycsICctaW1hZScsICc8aW5maWxlLm1hZT4nLCAnLW9tYWUnLCAnPG91dGZpbGUubWFlPic=

> <r_epik_Ionization_Penalty>
2.38424

> <r_epik_Ionization_Penalty_Charging>
2.37244

> <r_epik_Ionization_Penalty_Neutral>
0.0117937

> <r_epik_State_Penalty>
2.52832

> <r_epik_Charging_Adjusted_Penalty>
4.90076

> <i_epik_Tot_Q>
1

> <i_epik_Tot_abs_Q>
1

> <r_epik_Metal_State_Penalty>
6.61271

> <b_epik_Metal_Only>
0

> <s_lp_Force_Field>
OPLS_2005

> <r_lp_Energy>
13.8942

> <b_lp_Chiralities_Consistent>
1

> <s_lp_Variant>
AV-unprocessed.smi:2776-4

> <Gold.Version>
5.8.1

> <Gold.Id.Protein>
6NUR|6NUR_protein|mol2

> <Gold.PLP.Fitness>
45.2821

> <Gold.PLP.PLP>
-39.8398

> <Gold.PLP.part.hbond>
-2.6624

> <Gold.PLP.part.metal>
0.0000

> <Gold.PLP.part.buried>
-4.2690

> <Gold.PLP.part.nonpolar>
-32.7920

> <Gold.PLP.part.repulsive>
0.0968

> <Gold.PLP.ligand.clash>
0.0000

> <Gold.PLP.ligand.torsion>
0.2957

> <Gold.PLP.Chemscore.Hbond>
2.0080

> <Gold.PLP.Chemscore.CHOScore>
0.0000

> <Gold.PLP.Chemscore.Metal>
0.0000

> <Gold.Chemscore.Hbonds>
donor molecule, donor type, donor heavy atom, donor atom, acceptor molecule, acceptor atom, score
      L1  H     1    19       P1  7957  0.67
      P1  H  7989  7998       L1     1  0.34
      P1  H  8011  8017       L1     1  1.00

> <Gold.PLP.Chemscore.Internal.Correction>
0.0097

> <Gold.Rescore>
     Score         DG    S(hbond)    S(metal)    S(lipo)     H(rot)  DE(clash)    DE(int)     intcor
     12.88     -13.44       1.43        0.00      73.65       2.12       0.28       0.28       ----

> <Gold.Chemscore.Fitness>
12.8825

> <Gold.Chemscore.DG>
-13.4436

> <Gold.Chemscore.ZeroCoef>
-5.4800

> <Gold.Chemscore.Hbond>
1.4271

> <Gold.Chemscore.Metal>
0.0000

> <Gold.Chemscore.Lipo>
73.6517

> <Gold.Chemscore.Internal_Hbond>
0.0000

> <Gold.Chemscore.DEClash>
0.2775

> <Gold.Chemscore.DEInternal>
0.2835

> <Gold.Chemscore.Rot>
2.1173

> <Gold.Chemscore.Internal.Correction>
   9.000000E+99

> <Gold.Chemscore.Hbonds>
donor molecule, donor type, donor heavy atom, donor atom, acceptor molecule, acceptor atom, score
      L1  H     1    19       P1  7957  0.66
      P1  H  7989  7998       L1     1  0.19
      P1  H  8011  8017       L1     1  0.25

> <Gold.Chemscore.Hbond.Weighted>
-4.7665

> <Gold.Chemscore.Metal.Weighted>
-0.0000

> <Gold.Chemscore.Lipo.Weighted>
-8.6172

> <Gold.Chemscore.Internal_Hbond.Weighted>
0.0000

> <Gold.Chemscore.DEClash.Weighted>
0.2775

> <Gold.Chemscore.DEInternal.Weighted>
0.2835

> <Gold.Chemscore.Rot.Weighted>
5.4202

> <Gold.Chemscore.Internal.Correction.Weighted>
   9.000000E+99

> <Gold.Protein.RotatedTorsions>
[ 6907 6896 6895 6894 ] final  -58.24 input  -60.11 | X-H torsion
[ 7974 7965 7964 7962 ] final  -43.97 input  175.53 | X-H torsion
[ 8008 7997 7996 7995 ] final  116.74 input   59.86 | X-H torsion
[ 10167 10162 10161 10158 ] final -148.32 input  -65.29 | X-H torsion
[ 10718 10713 10712 10709 ] final   71.65 input   66.30 | X-H torsion
[ 10763 10752 10751 10750 ] final  -43.16 input  -60.55 | X-H torsion
[ 11005 11000 10999 10996 ] final  -29.96 input  -57.11 | X-H torsion

> <Gold.Protein.ActiveResidues>
 VAL166  LYS551  ARG553  GLY616  TRP617  ASP618  TYR619  PRO620  LYS621  CYS622 
 ASP623  PHE694  ASN695  SER759  ASP760  ASP761  ALA762  ILE779  LEU786  VAL792 
 PHE793  MET794  SER795  GLU796  ALA797  LYS798  CYS799  TRP800  GLU811  SER814 

> <Gold.Protein.RotatedAtoms>
  150.8023  134.7124  159.6611 H   0  0  0  0  0  0  0  0  0  0  0  0  # atno 6907 bound_to 6896
  152.4140  134.6071  160.0025 H   0  0  0  0  0  0  0  0  0  0  0  0  # atno 6908 bound_to 6896
  151.6305  133.3295  159.3144 H   0  0  0  0  0  0  0  0  0  0  0  0  # atno 6909 bound_to 6896
  145.9967  140.7121  142.9290 H   0  0  0  0  0  0  0  0  0  0  0  0  # atno 7974 bound_to 7965
  156.2456  140.2911  156.0570 H   0  0  0  0  0  0  0  0  0  0  0  0  # atno 8008 bound_to 7997
  155.1818  140.0404  157.2901 H   0  0  0  0  0  0  0  0  0  0  0  0  # atno 8009 bound_to 7997
  154.6254  140.2486  155.7505 H   0  0  0  0  0  0  0  0  0  0  0  0  # atno 8010 bound_to 7997
  139.7542  143.8472  152.2593 H   0  0  0  0  0  0  0  0  0  0  0  0  # atno 10167 bound_to 10162
  157.6462  130.9539  150.0819 H   0  0  0  0  0  0  0  0  0  0  0  0  # atno 10718 bound_to 10713
  153.9909  135.6705  153.4754 H   0  0  0  0  0  0  0  0  0  0  0  0  # atno 10763 bound_to 10752
  153.0705  135.4977  154.8291 H   0  0  0  0  0  0  0  0  0  0  0  0  # atno 10764 bound_to 10752
  154.7109  135.3097  154.9160 H   0  0  0  0  0  0  0  0  0  0  0  0  # atno 10765 bound_to 10752
  140.9342  133.7319  156.0980 H   0  0  0  0  0  0  0  0  0  0  0  0  # atno 11005 bound_to 11000
  144.6906  140.3162  143.7240 LP  0  0  0  0  0  0  0  0  0  0  0  0  # atno 17320 bound_to 7965
  145.7550  139.1806  143.2300 LP  0  0  0  0  0  0  0  0  0  0  0  0  # atno 17321 bound_to 7965
  139.8460  144.7187  150.9273 LP  0  0  0  0  0  0  0  0  0  0  0  0  # atno 17342 bound_to 10162
  140.7801  143.3941  151.1259 LP  0  0  0  0  0  0  0  0  0  0  0  0  # atno 17343 bound_to 10162
  156.1793  130.3649  149.9057 LP  0  0  0  0  0  0  0  0  0  0  0  0  # atno 17370 bound_to 10713
  156.7013  130.8934  151.3599 LP  0  0  0  0  0  0  0  0  0  0  0  0  # atno 17371 bound_to 10713
  140.7822  134.3713  157.5485 LP  0  0  0  0  0  0  0  0  0  0  0  0  # atno 17394 bound_to 11000
  139.8804  134.9088  156.2977 LP  0  0  0  0  0  0  0  0  0  0  0  0  # atno 17395 bound_to 11000

$$$$
