AV-unprocessed.smi:2226|AV-procd|sdf|9007|dock3
  -GOLD-   2272012213D 1   1.00000     0.00000
 Structure written by MMmdl.
 41 43  0  0  0  0  0  0  0  0  3 V2000
  145.9336  142.2216  155.1600 C   0  0  0  0  0  0  0  0  0  0  0  0
  145.9938  141.0245  154.2877 N   0  3  2  0  0  0  0  0  0  0  0  0
  146.1319  139.7347  155.0070 C   0  0  2  0  0  0  0  0  0  0  0  0
  147.5355  139.5958  155.6495 C   0  0  0  0  0  0  0  0  0  0  0  0
  148.7012  139.8485  154.6741 C   0  0  0  0  0  0  0  0  0  0  0  0
  148.4360  141.0382  153.7315 C   0  0  0  0  0  0  0  0  0  0  0  0
  146.9858  141.1034  153.1878 C   0  0  1  0  0  0  0  0  0  0  0  0
  146.6419  140.0324  152.1262 C   0  0  0  0  0  0  0  0  0  0  0  0
  146.4776  138.6005  152.6911 C   0  0  2  0  0  0  0  0  0  0  0  0
  145.7392  137.7825  151.7288 N   0  0  0  0  0  0  0  0  0  0  0  0
  145.5339  136.4586  151.8166 C   0  0  0  0  0  0  0  0  0  0  0  0
  145.9526  135.7589  152.7391 O   0  0  0  0  0  0  0  0  0  0  0  0
  144.8193  135.9986  150.7779 N   0  0  0  0  0  0  0  0  0  0  0  0
  144.4349  134.6532  150.5744 C   0  0  0  0  0  0  0  0  0  0  0  0
  144.5639  134.0078  149.4163 N   0  3  0  0  0  0  0  0  0  0  0  0
  144.0948  132.7269  149.5715 C   0  0  0  0  0  0  0  0  0  0  0  0
  143.6789  132.6371  150.8783 C   0  0  0  0  0  0  0  0  0  0  0  0
  143.8863  133.8406  151.5219 O   0  0  0  0  0  0  0  0  0  0  0  0
  145.7385  138.5842  154.0508 C   0  0  0  0  0  0  0  0  0  0  0  0
  146.8594  142.3791  155.7127 H   0  0  0  0  0  0  0  0  0  0  0  0
  145.1225  142.1246  155.8821 H   0  0  0  0  0  0  0  0  0  0  0  0
  145.7399  143.1150  154.5656 H   0  0  0  0  0  0  0  0  0  0  0  0
  145.4019  139.7256  155.8180 H   0  0  0  0  0  0  0  0  0  0  0  0
  147.6164  140.3058  156.4728 H   0  0  0  0  0  0  0  0  0  0  0  0
  147.6445  138.6116  156.1065 H   0  0  0  0  0  0  0  0  0  0  0  0
  149.6141  140.0326  155.2412 H   0  0  0  0  0  0  0  0  0  0  0  0
  148.9179  138.9512  154.1010 H   0  0  0  0  0  0  0  0  0  0  0  0
  148.6489  141.9600  154.2736 H   0  0  0  0  0  0  0  0  0  0  0  0
  149.1472  141.0194  152.9053 H   0  0  0  0  0  0  0  0  0  0  0  0
  146.8661  142.0718  152.6997 H   0  0  0  0  0  0  0  0  0  0  0  0
  145.7041  140.3311  151.6542 H   0  0  0  0  0  0  0  0  0  0  0  0
  147.3869  140.0366  151.3296 H   0  0  0  0  0  0  0  0  0  0  0  0
  147.4659  138.1718  152.8321 H   0  0  0  0  0  0  0  0  0  0  0  0
  145.3538  138.2673  150.9312 H   0  0  0  0  0  0  0  0  0  0  0  0
  144.9387  134.3629  148.5454 H   0  0  0  0  0  0  0  0  0  0  0  0
  144.1032  132.0207  148.7534 H   0  0  0  0  0  0  0  0  0  0  0  0
  143.2424  131.8455  151.4700 H   0  0  0  0  0  0  0  0  0  0  0  0
  145.8797  137.6201  154.5413 H   0  0  0  0  0  0  0  0  0  0  0  0
  144.6660  138.6665  153.8662 H   0  0  0  0  0  0  0  0  0  0  0  0
  145.0896  140.9924  153.8389 H   0  0  0  0  0  0  0  0  0  0  0  0
  144.5265  136.6624  150.0763 H   0  0  0  0  0  0  0  0  0  0  0  0
  1  2  1  0  0  0  0
  1 20  1  0  0  0  0
  1 21  1  0  0  0  0
  1 22  1  0  0  0  0
  2  7  1  0  0  0  0
  2  3  1  0  0  0  0
  2 40  1  0  0  0  0
  3 19  1  0  0  0  0
  3  4  1  0  0  0  0
  3 23  1  0  0  0  0
  4  5  1  0  0  0  0
  4 24  1  0  0  0  0
  4 25  1  0  0  0  0
  5  6  1  0  0  0  0
  5 26  1  0  0  0  0
  5 27  1  0  0  0  0
  6  7  1  0  0  0  0
  6 28  1  0  0  0  0
  6 29  1  0  0  0  0
  7  8  1  0  0  0  0
  7 30  1  0  0  0  0
  8  9  1  0  0  0  0
  8 31  1  0  0  0  0
  8 32  1  0  0  0  0
  9 10  1  0  0  0  0
  9 19  1  0  0  0  0
  9 33  1  0  0  0  0
 10 34  1  0  0  0  0
 10 11  1  0  0  0  0
 11 13  1  0  0  0  0
 11 12  2  0  0  0  0
 13 14  1  0  0  0  0
 13 41  1  0  0  0  0
 14 18  1  0  0  0  0
 14 15  2  0  0  0  0
 15 35  1  0  0  0  0
 15 16  1  0  0  0  0
 16 36  1  0  0  0  0
 16 17  2  0  0  0  0
 17 37  1  0  0  0  0
 17 18  1  0  0  0  0
 19 38  1  0  0  0  0
 19 39  1  0  0  0  0
M  CHG  1   2   1
M  CHG  1  15   1
M  END
> <s_m_source_file>
AV-unprocessed.smi

> <i_m_source_file_index>
2226

> <i_lp_mmshare_version>
43012

> <i_f3d_flags>
0

> <s_epik_input>
W0NIMl0xW0NIMl1bQ0gyXVtDQEhdKE4oW0NIM10pW0NIXTEyKVtDSDJdW0NASF0oW0NIMl0yKVtOSF1DKD1PKVtOSF1jM25bY0hdW2NIXW8z

> <s_epik_cmdline>
J2VwaWtfcHl0aG9uJywgJy1waCcsICc3LjAnLCAnLXRuJywgJzgnLCAnLW1hJywgJzIwMCcsICctbWV0YWxfYmluZGluZycsICctaW1hZScsICc8aW5maWxlLm1hZT4nLCAnLW9tYWUnLCAnPG91dGZpbGUubWFlPic=

> <r_epik_Ionization_Penalty>
6.92532

> <r_epik_Ionization_Penalty_Charging>
6.82059

> <r_epik_Ionization_Penalty_Neutral>
0.104727

> <r_epik_State_Penalty>
2.17671

> <r_epik_Charging_Adjusted_Penalty>
8.99731

> <i_epik_Tot_Q>
2

> <i_epik_Tot_abs_Q>
2

> <r_epik_Metal_State_Penalty>
2.20618

> <b_epik_Metal_Only>
0

> <s_lp_Force_Field>
OPLS_2005

> <r_lp_Energy>
46.5098

> <b_lp_Chiralities_Consistent>
1

> <s_lp_Variant>
AV-unprocessed.smi:2226-7

> <Gold.Version>
5.8.1

> <Gold.Id.Protein>
6NUR|6NUR_protein|mol2

> <Gold.PLP.Fitness>
43.7911

> <Gold.PLP.PLP>
-29.9163

> <Gold.PLP.part.hbond>
-3.8627

> <Gold.PLP.part.metal>
0.0000

> <Gold.PLP.part.buried>
-2.2020

> <Gold.PLP.part.nonpolar>
-25.5575

> <Gold.PLP.part.repulsive>
0.5623

> <Gold.PLP.ligand.clash>
0.0000

> <Gold.PLP.ligand.torsion>
0.4336

> <Gold.PLP.Chemscore.Hbond>
4.9120

> <Gold.PLP.Chemscore.CHOScore>
0.0000

> <Gold.PLP.Chemscore.Metal>
0.0000

> <Gold.Chemscore.Hbonds>
donor molecule, donor type, donor heavy atom, donor atom, acceptor molecule, acceptor atom, score
      L1  H     2    40       P1 10175  2.00
      L1  H    10    34       P1 10171  0.99
      L1  H    13    41       P1 10171  0.87
      L1  H    15    35       P1  7921  1.00

> <Gold.PLP.Chemscore.Internal.Correction>
0.0060

> <Gold.Rescore>
     Score         DG    S(hbond)    S(metal)    S(lipo)     H(rot)  DE(clash)    DE(int)     intcor
     21.27     -22.90       3.62        0.00      67.44       1.00       1.15       0.48       ----

> <Gold.Chemscore.Fitness>
21.2726

> <Gold.Chemscore.DG>
-22.8995

> <Gold.Chemscore.ZeroCoef>
-5.4800

> <Gold.Chemscore.Hbond>
3.6193

> <Gold.Chemscore.Metal>
0.0000

> <Gold.Chemscore.Lipo>
67.4442

> <Gold.Chemscore.Internal_Hbond>
0.0000

> <Gold.Chemscore.DEClash>
1.1497

> <Gold.Chemscore.DEInternal>
0.4773

> <Gold.Chemscore.Rot>
1.0000

> <Gold.Chemscore.Internal.Correction>
   9.000000E+99

> <Gold.Chemscore.Hbonds>
donor molecule, donor type, donor heavy atom, donor atom, acceptor molecule, acceptor atom, score
      L1  H     2    40       P1 10175  0.78
      L1  H    10    34       P1 10171  0.93
      L1  H    13    41       P1 10171  0.80
      L1  H    15    35       P1  7921  0.94

> <Gold.Chemscore.Hbond.Weighted>
-12.0885

> <Gold.Chemscore.Metal.Weighted>
-0.0000

> <Gold.Chemscore.Lipo.Weighted>
-7.8910

> <Gold.Chemscore.Internal_Hbond.Weighted>
0.0000

> <Gold.Chemscore.DEClash.Weighted>
1.1497

> <Gold.Chemscore.DEInternal.Weighted>
0.4773

> <Gold.Chemscore.Rot.Weighted>
2.5600

> <Gold.Chemscore.Internal.Correction.Weighted>
   9.000000E+99

> <Gold.Protein.RotatedTorsions>
[ 6907 6896 6895 6894 ] final    7.98 input  -60.11 | X-H torsion
[ 7974 7965 7964 7962 ] final  150.55 input  175.53 | X-H torsion
[ 8008 7997 7996 7995 ] final  -40.53 input   59.86 | X-H torsion
[ 10167 10162 10161 10158 ] final -167.27 input  -65.29 | X-H torsion
[ 10718 10713 10712 10709 ] final -157.29 input   66.30 | X-H torsion
[ 10763 10752 10751 10750 ] final -136.46 input  -60.55 | X-H torsion
[ 11005 11000 10999 10996 ] final -175.68 input  -57.11 | X-H torsion

> <Gold.Protein.ActiveResidues>
 VAL166  LYS551  ARG553  GLY616  TRP617  ASP618  TYR619  PRO620  LYS621  CYS622 
 ASP623  PHE694  ASN695  SER759  ASP760  ASP761  ALA762  ILE779  LEU786  VAL792 
 PHE793  MET794  SER795  GLU796  ALA797  LYS798  CYS799  TRP800  GLU811  SER814 

> <Gold.Protein.RotatedAtoms>
  151.6986  135.0934  160.0246 H   0  0  0  0  0  0  0  0  0  0  0  0  # atno 6907 bound_to 6896
  152.3734  133.6445  159.6113 H   0  0  0  0  0  0  0  0  0  0  0  0  # atno 6908 bound_to 6896
  150.7691  133.9149  159.3422 H   0  0  0  0  0  0  0  0  0  0  0  0  # atno 6909 bound_to 6896
  144.8356  139.6423  143.6039 H   0  0  0  0  0  0  0  0  0  0  0  0  # atno 7974 bound_to 7965
  154.4011  140.1523  156.3043 H   0  0  0  0  0  0  0  0  0  0  0  0  # atno 8008 bound_to 7997
  155.8673  140.3450  155.5775 H   0  0  0  0  0  0  0  0  0  0  0  0  # atno 8009 bound_to 7997
  155.7814  140.0844  157.2048 H   0  0  0  0  0  0  0  0  0  0  0  0  # atno 8010 bound_to 7997
  139.6060  144.0911  152.1794 H   0  0  0  0  0  0  0  0  0  0  0  0  # atno 10167 bound_to 10162
  156.5382  130.8551  151.2740 H   0  0  0  0  0  0  0  0  0  0  0  0  # atno 10718 bound_to 10713
  154.8683  135.3672  154.5064 H   0  0  0  0  0  0  0  0  0  0  0  0  # atno 10763 bound_to 10752
  153.5702  135.7021  153.5513 H   0  0  0  0  0  0  0  0  0  0  0  0  # atno 10764 bound_to 10752
  153.3549  135.4062  155.1637 H   0  0  0  0  0  0  0  0  0  0  0  0  # atno 10765 bound_to 10752
  140.4605  134.6259  157.4841 H   0  0  0  0  0  0  0  0  0  0  0  0  # atno 11005 bound_to 11000
  146.2655  139.6510  142.9332 LP  0  0  0  0  0  0  0  0  0  0  0  0  # atno 17320 bound_to 7965
  145.4802  141.0438  143.2650 LP  0  0  0  0  0  0  0  0  0  0  0  0  # atno 17321 bound_to 7965
  140.0519  144.5926  150.7330 LP  0  0  0  0  0  0  0  0  0  0  0  0  # atno 17342 bound_to 10162
  140.7285  143.2663  151.4035 LP  0  0  0  0  0  0  0  0  0  0  0  0  # atno 17343 bound_to 10162
  157.7410  130.9861  150.2415 LP  0  0  0  0  0  0  0  0  0  0  0  0  # atno 17370 bound_to 10713
  156.2996  130.3756  149.7763 LP  0  0  0  0  0  0  0  0  0  0  0  0  # atno 17371 bound_to 10713
  139.9948  134.6928  155.9628 LP  0  0  0  0  0  0  0  0  0  0  0  0  # atno 17394 bound_to 11000
  141.1623  133.6538  156.4361 LP  0  0  0  0  0  0  0  0  0  0  0  0  # atno 17395 bound_to 11000

$$$$
