AV-unprocessed.smi:1782|AV-procd|sdf|7191|dock6
  -GOLD-   22720 8433D 1   1.00000     0.00000
 Structure written by MMmdl.
 42 44  0  0  0  0  0  0  0  0  2 V2000
  151.5842  140.4365  155.1969 O   0  0  0  0  0  0  0  0  0  0  0  0
  150.5367  140.3600  155.8400 C   0  0  0  0  0  0  0  0  0  0  0  0
  150.0943  141.5103  156.7552 C   0  0  0  0  0  0  0  0  0  0  0  0
  151.1354  141.9076  157.7189 N   0  0  0  0  0  0  0  0  0  0  0  0
  151.4301  143.2796  157.8122 C   0  0  0  0  0  0  0  0  0  0  0  0
  152.3653  143.7443  158.6514 C   0  0  0  0  0  0  0  0  0  0  0  0
  153.0796  142.7956  159.4705 C   0  0  0  0  0  0  0  0  0  0  0  0
  152.8179  141.4696  159.4036 C   0  0  0  0  0  0  0  0  0  0  0  0
  153.5730  140.4507  160.2542 C   0  0  0  0  0  0  0  0  0  0  0  0
  154.7230  140.1153  159.6685 F   0  0  0  0  0  0  0  0  0  0  0  0
  153.8498  140.9544  161.4577 F   0  0  0  0  0  0  0  0  0  0  0  0
  152.8655  139.3342  160.4338 F   0  0  0  0  0  0  0  0  0  0  0  0
  151.7819  140.9683  158.4774 C   0  0  0  0  0  0  0  0  0  0  0  0
  151.5052  139.7710  158.3819 O   0  0  0  0  0  0  0  0  0  0  0  0
  149.7173  139.2998  155.7810 N   0  0  0  0  0  0  0  0  0  0  0  0
  149.9734  138.0990  154.9937 C   0  0  1  0  0  0  0  0  0  0  0  0
  151.1687  137.2710  155.4763 C   0  0  0  0  0  0  0  0  0  0  0  0
  150.8089  135.8202  155.1137 C   0  0  0  0  0  0  0  0  0  0  0  0
  149.4103  135.8350  154.6254 N   0  3  1  0  0  0  0  0  0  0  0  0
  148.6260  134.6363  154.9895 C   0  0  0  0  0  0  0  0  0  0  0  0
  149.4551  133.3773  155.0761 C   0  0  0  0  0  0  0  0  0  0  0  0
  148.5477  133.6078  153.8870 C   0  0  0  0  0  0  0  0  0  0  0  0
  148.8197  137.1048  155.0822 C   0  0  0  0  0  0  0  0  0  0  0  0
  149.8076  142.3526  156.1242 H   0  0  0  0  0  0  0  0  0  0  0  0
  149.1832  141.2303  157.2877 H   0  0  0  0  0  0  0  0  0  0  0  0
  150.8567  143.9225  157.1600 H   0  0  0  0  0  0  0  0  0  0  0  0
  152.5820  144.8009  158.7093 H   0  0  0  0  0  0  0  0  0  0  0  0
  153.8383  143.1679  160.1424 H   0  0  0  0  0  0  0  0  0  0  0  0
  148.8722  139.3199  156.3340 H   0  0  0  0  0  0  0  0  0  0  0  0
  150.1202  138.3709  153.9461 H   0  0  0  0  0  0  0  0  0  0  0  0
  152.1044  137.5949  155.0194 H   0  0  0  0  0  0  0  0  0  0  0  0
  151.2825  137.3584  156.5580 H   0  0  0  0  0  0  0  0  0  0  0  0
  151.4614  135.4257  154.3343 H   0  0  0  0  0  0  0  0  0  0  0  0
  150.9138  135.1789  155.9903 H   0  0  0  0  0  0  0  0  0  0  0  0
  147.7850  134.7907  155.6635 H   0  0  0  0  0  0  0  0  0  0  0  0
  150.5287  133.4549  154.9127 H   0  0  0  0  0  0  0  0  0  0  0  0
  149.1487  132.6228  155.7980 H   0  0  0  0  0  0  0  0  0  0  0  0
  147.6439  133.0046  153.8261 H   0  0  0  0  0  0  0  0  0  0  0  0
  149.0182  133.8378  152.9325 H   0  0  0  0  0  0  0  0  0  0  0  0
  148.4788  137.0024  156.1147 H   0  0  0  0  0  0  0  0  0  0  0  0
  147.9670  137.3950  154.4672 H   0  0  0  0  0  0  0  0  0  0  0  0
  149.4559  135.8840  153.6176 H   0  0  0  0  0  0  0  0  0  0  0  0
  1  2  2  0  0  0  0
  2  3  1  0  0  0  0
  2 15  1  0  0  0  0
  3  4  1  0  0  0  0
  3 24  1  0  0  0  0
  3 25  1  0  0  0  0
  4 13  1  0  0  0  0
  4  5  1  0  0  0  0
  5  6  2  0  0  0  0
  5 26  1  0  0  0  0
  6  7  1  0  0  0  0
  6 27  1  0  0  0  0
  7  8  2  0  0  0  0
  7 28  1  0  0  0  0
  8  9  1  0  0  0  0
  8 13  1  0  0  0  0
  9 10  1  0  0  0  0
  9 11  1  0  0  0  0
  9 12  1  0  0  0  0
 13 14  2  0  0  0  0
 15 16  1  0  0  0  0
 15 29  1  0  0  0  0
 16 23  1  0  0  0  0
 16 17  1  0  0  0  0
 16 30  1  0  0  0  0
 17 18  1  0  0  0  0
 17 31  1  0  0  0  0
 17 32  1  0  0  0  0
 18 19  1  0  0  0  0
 18 33  1  0  0  0  0
 18 34  1  0  0  0  0
 19 20  1  0  0  0  0
 19 23  1  0  0  0  0
 19 42  1  0  0  0  0
 20 22  1  0  0  0  0
 20 21  1  0  0  0  0
 20 35  1  0  0  0  0
 21 22  1  0  0  0  0
 21 36  1  0  0  0  0
 21 37  1  0  0  0  0
 22 38  1  0  0  0  0
 22 39  1  0  0  0  0
 23 40  1  0  0  0  0
 23 41  1  0  0  0  0
M  CHG  1  19   1
M  END
> <s_m_source_file>
AV-unprocessed.smi

> <i_m_source_file_index>
1782

> <i_lp_mmshare_version>
43012

> <i_f3d_flags>
0

> <s_epik_input>
W0NIMl0xW0NIMl1bQ0hdMU4oW0NIMl0yKVtDSDJdW0NIMl1bQ0BIXTJbTkhdQyg9TylbQ0gyXW4zW2NIXVtjSF1bY0hdYyhDKEYpKEYpRiljMz1P

> <s_epik_cmdline>
J2VwaWtfcHl0aG9uJywgJy1waCcsICc3LjAnLCAnLXRuJywgJzgnLCAnLW1hJywgJzIwMCcsICctbWV0YWxfYmluZGluZycsICctaW1hZScsICc8aW5maWxlLm1hZT4nLCAnLW9tYWUnLCAnPG91dGZpbGUubWFlPic=

> <r_lp_tautomer_probability>
1

> <r_epik_Ionization_Penalty>
0.00106789

> <r_epik_Ionization_Penalty_Charging>
0.00106781

> <r_epik_Ionization_Penalty_Neutral>
8.2288e-08

> <r_epik_State_Penalty>
0.000699156

> <r_epik_Charging_Adjusted_Penalty>
0.00176697

> <i_epik_Tot_Q>
1

> <i_epik_Tot_abs_Q>
1

> <r_epik_Metal_State_Penalty>
-0

> <b_epik_Metal_Only>
0

> <s_lp_Force_Field>
OPLS_2005

> <r_lp_Energy>
45.6714

> <b_lp_Chiralities_Consistent>
1

> <s_lp_Variant>
AV-unprocessed.smi:1782-4

> <Gold.Version>
5.8.1

> <Gold.Id.Protein>
6NUR|6NUR_protein|mol2

> <Gold.PLP.Fitness>
50.4113

> <Gold.PLP.PLP>
-41.4667

> <Gold.PLP.part.hbond>
-1.9153

> <Gold.PLP.part.metal>
0.0000

> <Gold.PLP.part.buried>
-1.2862

> <Gold.PLP.part.nonpolar>
-38.6264

> <Gold.PLP.part.repulsive>
0.1118

> <Gold.PLP.ligand.clash>
0.0000

> <Gold.PLP.ligand.torsion>
2.0713

> <Gold.PLP.Chemscore.Hbond>
2.8320

> <Gold.PLP.Chemscore.CHOScore>
1.0000

> <Gold.PLP.Chemscore.Metal>
0.0000

> <Gold.Chemscore.Hbonds>
donor molecule, donor type, donor heavy atom, donor atom, acceptor molecule, acceptor atom, score
      L1  H    19    42       P1  7948  2.00
      P1  H  7989  7998       L1     1  0.86
      L1  C     5    26       P1  8028  0.88

> <Gold.PLP.Chemscore.Internal.Correction>
1.5912

> <Gold.Rescore>
     Score         DG    S(hbond)    S(metal)    S(lipo)     H(rot)  DE(clash)    DE(int)     intcor
     13.35     -17.56       1.93        0.00      87.85       1.81       0.04       4.17       ----

> <Gold.Chemscore.Fitness>
13.3500

> <Gold.Chemscore.DG>
-17.5560

> <Gold.Chemscore.ZeroCoef>
-5.4800

> <Gold.Chemscore.Hbond>
1.9256

> <Gold.Chemscore.Metal>
0.0000

> <Gold.Chemscore.Lipo>
87.8474

> <Gold.Chemscore.Internal_Hbond>
0.0000

> <Gold.Chemscore.DEClash>
0.0354

> <Gold.Chemscore.DEInternal>
4.1705

> <Gold.Chemscore.Rot>
1.8101

> <Gold.Chemscore.Internal.Correction>
   9.000000E+99

> <Gold.Chemscore.Hbonds>
donor molecule, donor type, donor heavy atom, donor atom, acceptor molecule, acceptor atom, score
      L1  H    19    42       P1  7948  0.45
      P1  H  7989  7998       L1     1  0.84

> <Gold.Chemscore.Hbond.Weighted>
-6.4316

> <Gold.Chemscore.Metal.Weighted>
-0.0000

> <Gold.Chemscore.Lipo.Weighted>
-10.2781

> <Gold.Chemscore.Internal_Hbond.Weighted>
0.0000

> <Gold.Chemscore.DEClash.Weighted>
0.0354

> <Gold.Chemscore.DEInternal.Weighted>
4.1705

> <Gold.Chemscore.Rot.Weighted>
4.6338

> <Gold.Chemscore.Internal.Correction.Weighted>
   9.000000E+99

> <Gold.Protein.RotatedTorsions>
[ 6907 6896 6895 6894 ] final   98.15 input  -60.11 | X-H torsion
[ 7974 7965 7964 7962 ] final  148.00 input  175.53 | X-H torsion
[ 8008 7997 7996 7995 ] final  -59.45 input   59.86 | X-H torsion
[ 10167 10162 10161 10158 ] final   36.45 input  -65.29 | X-H torsion
[ 10718 10713 10712 10709 ] final  -92.22 input   66.30 | X-H torsion
[ 10763 10752 10751 10750 ] final  116.87 input  -60.55 | X-H torsion
[ 11005 11000 10999 10996 ] final   25.44 input  -57.11 | X-H torsion

> <Gold.Protein.ActiveResidues>
 VAL166  LYS551  ARG553  GLY616  TRP617  ASP618  TYR619  PRO620  LYS621  CYS622 
 ASP623  PHE694  ASN695  SER759  ASP760  ASP761  ALA762  ILE779  LEU786  VAL792 
 PHE793  MET794  SER795  GLU796  ALA797  LYS798  CYS799  TRP800  GLU811  SER814 

> <Gold.Protein.RotatedAtoms>
  152.5413  134.0624  159.8157 H   0  0  0  0  0  0  0  0  0  0  0  0  # atno 6907 bound_to 6896
  151.0750  133.5428  159.2632 H   0  0  0  0  0  0  0  0  0  0  0  0  # atno 6908 bound_to 6896
  151.2277  135.0551  159.9029 H   0  0  0  0  0  0  0  0  0  0  0  0  # atno 6909 bound_to 6896
  144.8548  139.6098  143.5957 H   0  0  0  0  0  0  0  0  0  0  0  0  # atno 7974 bound_to 7965
  154.4353  140.1061  156.6117 H   0  0  0  0  0  0  0  0  0  0  0  0  # atno 8008 bound_to 7997
  155.5802  140.3490  155.4519 H   0  0  0  0  0  0  0  0  0  0  0  0  # atno 8009 bound_to 7997
  156.0324  140.1263  157.0233 H   0  0  0  0  0  0  0  0  0  0  0  0  # atno 8010 bound_to 7997
  140.4127  144.1570  150.6140 H   0  0  0  0  0  0  0  0  0  0  0  0  # atno 10167 bound_to 10162
  156.0000  130.4979  150.5593 H   0  0  0  0  0  0  0  0  0  0  0  0  # atno 10718 bound_to 10713
  153.5438  135.3553  155.2730 H   0  0  0  0  0  0  0  0  0  0  0  0  # atno 10763 bound_to 10752
  154.8714  135.4097  154.3014 H   0  0  0  0  0  0  0  0  0  0  0  0  # atno 10764 bound_to 10752
  153.3727  135.7065  153.6694 H   0  0  0  0  0  0  0  0  0  0  0  0  # atno 10765 bound_to 10752
  140.3479  134.2261  155.7683 H   0  0  0  0  0  0  0  0  0  0  0  0  # atno 11005 bound_to 11000
  146.2814  139.6887  142.9226 LP  0  0  0  0  0  0  0  0  0  0  0  0  # atno 17320 bound_to 7965
  145.4428  141.0423  143.2848 LP  0  0  0  0  0  0  0  0  0  0  0  0  # atno 17321 bound_to 7965
  140.4620  143.2445  151.9206 LP  0  0  0  0  0  0  0  0  0  0  0  0  # atno 17342 bound_to 10162
  139.4782  144.5457  151.8461 LP  0  0  0  0  0  0  0  0  0  0  0  0  # atno 17343 bound_to 10162
  157.3505  131.0732  151.1717 LP  0  0  0  0  0  0  0  0  0  0  0  0  # atno 17370 bound_to 10713
  157.2535  130.6625  149.5942 LP  0  0  0  0  0  0  0  0  0  0  0  0  # atno 17371 bound_to 10713
  141.2020  133.7947  157.0410 LP  0  0  0  0  0  0  0  0  0  0  0  0  # atno 17394 bound_to 11000
  140.0727  134.9693  157.1495 LP  0  0  0  0  0  0  0  0  0  0  0  0  # atno 17395 bound_to 11000

$$$$
