AV-unprocessed.smi:2706|AV-procd|sdf|10450|dock2
  -GOLD-   2272014493D 1   1.00000     0.00000
 Structure written by MMmdl.
 44 47  0  0  0  0  0  0  0  0  2 V2000
  151.1725  140.1262  155.6632 C   0  0  0  0  0  0  0  0  0  0  0  0
  150.5511  139.2292  154.6949 N   0  0  0  0  0  0  0  0  0  0  0  0
  151.2020  137.9761  154.3348 C   0  0  0  0  0  0  0  0  0  0  0  0
  149.2633  139.5178  154.1955 C   0  0  0  0  0  0  0  0  0  0  0  0
  148.5975  140.7446  154.4300 C   0  0  0  0  0  0  0  0  0  0  0  0
  147.3139  140.9549  153.8895 C   0  0  0  0  0  0  0  0  0  0  0  0
  146.7062  139.9388  153.1271 C   0  0  0  0  0  0  0  0  0  0  0  0
  147.3937  138.7175  152.9240 C   0  0  0  0  0  0  0  0  0  0  0  0
  146.8903  137.6288  152.1619 N   0  0  0  0  0  0  0  0  0  0  0  0
  145.6292  137.1671  152.0931 C   0  0  0  0  0  0  0  0  0  0  0  0
  144.6700  137.6281  152.7117 O   0  0  0  0  0  0  0  0  0  0  0  0
  145.5437  136.1142  151.2684 N   0  0  0  0  0  0  0  0  0  0  0  0
  144.3559  135.3760  150.9787 C   0  0  2  0  0  0  0  0  0  0  0  0
  144.1095  134.0144  151.6181 C   0  0  2  0  0  0  0  0  0  0  0  0
  145.1309  132.9991  152.1369 C   0  0  1  0  0  0  0  0  0  0  0  0
  144.6921  131.6089  151.6281 C   0  0  0  0  0  0  0  0  0  0  0  0
  145.0078  131.6947  150.1127 C   0  0  0  0  0  0  0  0  0  0  0  0
  145.5813  133.1217  149.9744 C   0  0  2  0  0  0  0  0  0  0  0  0
  146.3794  133.1925  151.2763 C   0  0  0  0  0  0  0  0  0  0  0  0
  144.4152  134.0977  150.1505 C   0  0  2  0  0  0  0  0  0  0  0  0
  148.6300  138.5754  153.4547 N   0  3  0  0  0  0  0  0  0  0  0  0
  150.5834  140.1666  156.5797 H   0  0  0  0  0  0  0  0  0  0  0  0
  151.2538  141.1350  155.2573 H   0  0  0  0  0  0  0  0  0  0  0  0
  152.1768  139.7929  155.9253 H   0  0  0  0  0  0  0  0  0  0  0  0
  150.5901  137.1253  154.6364 H   0  0  0  0  0  0  0  0  0  0  0  0
  152.1716  137.8780  154.8237 H   0  0  0  0  0  0  0  0  0  0  0  0
  151.3662  137.9243  153.2581 H   0  0  0  0  0  0  0  0  0  0  0  0
  149.0524  141.5311  155.0132 H   0  0  0  0  0  0  0  0  0  0  0  0
  146.8012  141.8909  154.0549 H   0  0  0  0  0  0  0  0  0  0  0  0
  145.7300  140.1221  152.7049 H   0  0  0  0  0  0  0  0  0  0  0  0
  147.5829  137.0980  151.6548 H   0  0  0  0  0  0  0  0  0  0  0  0
  146.3854  135.8023  150.8062 H   0  0  0  0  0  0  0  0  0  0  0  0
  143.4579  135.9730  150.8252 H   0  0  0  0  0  0  0  0  0  0  0  0
  143.0805  133.8125  151.9103 H   0  0  0  0  0  0  0  0  0  0  0  0
  145.2860  133.0642  153.2141 H   0  0  0  0  0  0  0  0  0  0  0  0
  145.2744  130.8160  152.0994 H   0  0  0  0  0  0  0  0  0  0  0  0
  143.6377  131.4093  151.8225 H   0  0  0  0  0  0  0  0  0  0  0  0
  145.7476  130.9447  149.8293 H   0  0  0  0  0  0  0  0  0  0  0  0
  144.1228  131.5410  149.4939 H   0  0  0  0  0  0  0  0  0  0  0  0
  146.1501  133.2993  149.0615 H   0  0  0  0  0  0  0  0  0  0  0  0
  146.9191  134.1203  151.4412 H   0  0  0  0  0  0  0  0  0  0  0  0
  147.1047  132.3828  151.3816 H   0  0  0  0  0  0  0  0  0  0  0  0
  143.5921  133.9516  149.4531 H   0  0  0  0  0  0  0  0  0  0  0  0
  149.1222  137.6967  153.2949 H   0  0  0  0  0  0  0  0  0  0  0  0
  1  2  1  0  0  0  0
  1 22  1  0  0  0  0
  1 23  1  0  0  0  0
  1 24  1  0  0  0  0
  2  3  1  0  0  0  0
  2  4  1  0  0  0  0
  3 25  1  0  0  0  0
  3 26  1  0  0  0  0
  3 27  1  0  0  0  0
  4 21  1  0  0  0  0
  4  5  2  0  0  0  0
  5  6  1  0  0  0  0
  5 28  1  0  0  0  0
  6  7  2  0  0  0  0
  6 29  1  0  0  0  0
  7  8  1  0  0  0  0
  7 30  1  0  0  0  0
  8  9  1  0  0  0  0
  8 21  2  0  0  0  0
  9 10  1  0  0  0  0
  9 31  1  0  0  0  0
 10 11  2  0  0  0  0
 10 12  1  0  0  0  0
 12 13  1  0  0  0  0
 12 32  1  0  0  0  0
 13 20  1  0  0  0  0
 13 14  1  0  0  0  0
 13 33  1  0  0  0  0
 14 20  1  0  0  0  0
 14 15  1  0  0  0  0
 14 34  1  0  0  0  0
 15 19  1  0  0  0  0
 15 16  1  0  0  0  0
 15 35  1  0  0  0  0
 16 17  1  0  0  0  0
 16 36  1  0  0  0  0
 16 37  1  0  0  0  0
 17 18  1  0  0  0  0
 17 38  1  0  0  0  0
 17 39  1  0  0  0  0
 18 19  1  0  0  0  0
 18 20  1  0  0  0  0
 18 40  1  0  0  0  0
 19 41  1  0  0  0  0
 19 42  1  0  0  0  0
 20 43  1  0  0  0  0
 21 44  1  0  0  0  0
M  CHG  1  21   1
M  END
> <s_m_source_file>
AV-unprocessed.smi

> <i_m_source_file_index>
2706

> <i_lp_mmshare_version>
43012

> <i_f3d_flags>
0

> <s_epik_input>
W0NIM11OKFtDSDNdKWMxW2NIXVtjSF1bY0hdYyhuMSlbTkhdQyg9TylbTkhdW0NASF0yW0NAQEhdM1tDQEBIXShbQ0gyXTQpW0NIMl1bQ0gyXVtDQEBIXTRbQ0BIXTIz

> <s_epik_cmdline>
J2VwaWtfcHl0aG9uJywgJy1waCcsICc3LjAnLCAnLXRuJywgJzgnLCAnLW1hJywgJzIwMCcsICctbWV0YWxfYmluZGluZycsICctaW1hZScsICc8aW5maWxlLm1hZT4nLCAnLW9tYWUnLCAnPG91dGZpbGUubWFlPic=

> <r_lp_tautomer_probability>
0.999994

> <r_epik_Ionization_Penalty>
1.8105

> <r_epik_Ionization_Penalty_Charging>
1.79227

> <r_epik_Ionization_Penalty_Neutral>
0.0182286

> <r_epik_State_Penalty>
1.90588

> <r_epik_Charging_Adjusted_Penalty>
3.69815

> <i_epik_Tot_Q>
1

> <i_epik_Tot_abs_Q>
1

> <r_epik_Metal_State_Penalty>
1.93501

> <b_epik_Metal_Only>
0

> <s_lp_Force_Field>
OPLS_2005

> <r_lp_Energy>
91.4336

> <b_lp_Chiralities_Consistent>
1

> <s_lp_Variant>
AV-unprocessed.smi:2706-7

> <Gold.Version>
5.8.1

> <Gold.Id.Protein>
6NUR|6NUR_protein|mol2

> <Gold.PLP.Fitness>
46.4170

> <Gold.PLP.PLP>
-40.4767

> <Gold.PLP.part.hbond>
-2.8907

> <Gold.PLP.part.metal>
0.0000

> <Gold.PLP.part.buried>
0.2315

> <Gold.PLP.part.nonpolar>
-38.9335

> <Gold.PLP.part.repulsive>
1.0651

> <Gold.PLP.ligand.clash>
0.0000

> <Gold.PLP.ligand.torsion>
0.4430

> <Gold.PLP.Chemscore.Hbond>
2.2560

> <Gold.PLP.Chemscore.CHOScore>
0.0000

> <Gold.PLP.Chemscore.Metal>
0.0000

> <Gold.Chemscore.Hbonds>
donor molecule, donor type, donor heavy atom, donor atom, acceptor molecule, acceptor atom, score
      L1  H     9    31       P1  7948  0.88
      L1  H    21    44       P1  7948  1.33

> <Gold.PLP.Chemscore.Internal.Correction>
0.0584

> <Gold.Rescore>
     Score         DG    S(hbond)    S(metal)    S(lipo)     H(rot)  DE(clash)    DE(int)     intcor
     17.47     -18.48       1.46        0.00      91.44       1.00       0.56       0.46       ----

> <Gold.Chemscore.Fitness>
17.4655

> <Gold.Chemscore.DG>
-18.4822

> <Gold.Chemscore.ZeroCoef>
-5.4800

> <Gold.Chemscore.Hbond>
1.4563

> <Gold.Chemscore.Metal>
0.0000

> <Gold.Chemscore.Lipo>
91.4386

> <Gold.Chemscore.Internal_Hbond>
0.0000

> <Gold.Chemscore.DEClash>
0.5564

> <Gold.Chemscore.DEInternal>
0.4604

> <Gold.Chemscore.Rot>
1.0000

> <Gold.Chemscore.Internal.Correction>
   9.000000E+99

> <Gold.Chemscore.Hbonds>
donor molecule, donor type, donor heavy atom, donor atom, acceptor molecule, acceptor atom, score
      L1  H     9    31       P1  7948  0.85
      L1  H    21    44       P1  7948  0.63

> <Gold.Chemscore.Hbond.Weighted>
-4.8639

> <Gold.Chemscore.Metal.Weighted>
-0.0000

> <Gold.Chemscore.Lipo.Weighted>
-10.6983

> <Gold.Chemscore.Internal_Hbond.Weighted>
0.0000

> <Gold.Chemscore.DEClash.Weighted>
0.5564

> <Gold.Chemscore.DEInternal.Weighted>
0.4604

> <Gold.Chemscore.Rot.Weighted>
2.5600

> <Gold.Chemscore.Internal.Correction.Weighted>
   9.000000E+99

> <Gold.Protein.RotatedTorsions>
[ 6907 6896 6895 6894 ] final  147.58 input  -60.11 | X-H torsion
[ 7974 7965 7964 7962 ] final  106.14 input  175.53 | X-H torsion
[ 8008 7997 7996 7995 ] final   50.96 input   59.86 | X-H torsion
[ 10167 10162 10161 10158 ] final  -51.68 input  -65.29 | X-H torsion
[ 10718 10713 10712 10709 ] final   12.13 input   66.30 | X-H torsion
[ 10763 10752 10751 10750 ] final  -23.71 input  -60.55 | X-H torsion
[ 11005 11000 10999 10996 ] final  166.18 input  -57.11 | X-H torsion

> <Gold.Protein.ActiveResidues>
 VAL166  LYS551  ARG553  GLY616  TRP617  ASP618  TYR619  PRO620  LYS621  CYS622 
 ASP623  PHE694  ASN695  SER759  ASP760  ASP761  ALA762  ILE779  LEU786  VAL792 
 PHE793  MET794  SER795  GLU796  ALA797  LYS798  CYS799  TRP800  GLU811  SER814 

> <Gold.Protein.RotatedAtoms>
  152.1528  133.4533  159.4821 H   0  0  0  0  0  0  0  0  0  0  0  0  # atno 6907 bound_to 6896
  150.6897  134.2167  159.4390 H   0  0  0  0  0  0  0  0  0  0  0  0  # atno 6908 bound_to 6896
  152.0065  134.9899  160.0617 H   0  0  0  0  0  0  0  0  0  0  0  0  # atno 6909 bound_to 6896
  145.3105  139.2542  143.3765 H   0  0  0  0  0  0  0  0  0  0  0  0  # atno 7974 bound_to 7965
  155.4274  140.3449  155.4277 H   0  0  0  0  0  0  0  0  0  0  0  0  # atno 8008 bound_to 7997
  156.1357  140.1527  156.9029 H   0  0  0  0  0  0  0  0  0  0  0  0  # atno 8009 bound_to 7997
  154.4930  140.0836  156.7616 H   0  0  0  0  0  0  0  0  0  0  0  0  # atno 8010 bound_to 7997
  140.6576  143.2611  151.4539 H   0  0  0  0  0  0  0  0  0  0  0  0  # atno 10167 bound_to 10162
  157.0056  130.6097  149.5701 H   0  0  0  0  0  0  0  0  0  0  0  0  # atno 10718 bound_to 10713
  153.6721  135.6971  153.5144 H   0  0  0  0  0  0  0  0  0  0  0  0  # atno 10763 bound_to 10752
  153.2549  135.4263  155.0835 H   0  0  0  0  0  0  0  0  0  0  0  0  # atno 10764 bound_to 10752
  154.8423  135.3540  154.6265 H   0  0  0  0  0  0  0  0  0  0  0  0  # atno 10765 bound_to 10752
  140.2638  134.7881  157.3614 H   0  0  0  0  0  0  0  0  0  0  0  0  # atno 11005 bound_to 11000
  146.3119  140.3640  142.8667 LP  0  0  0  0  0  0  0  0  0  0  0  0  # atno 17320 bound_to 7965
  144.9020  140.7654  143.5861 LP  0  0  0  0  0  0  0  0  0  0  0  0  # atno 17321 bound_to 7965
  139.5802  144.1727  152.1958 LP  0  0  0  0  0  0  0  0  0  0  0  0  # atno 17342 bound_to 10162
  140.1050  144.5507  150.6963 LP  0  0  0  0  0  0  0  0  0  0  0  0  # atno 17343 bound_to 10162
  156.0155  130.5249  150.8120 LP  0  0  0  0  0  0  0  0  0  0  0  0  # atno 17370 bound_to 10713
  157.5358  131.0938  150.9894 LP  0  0  0  0  0  0  0  0  0  0  0  0  # atno 17371 bound_to 10713
  140.1439  134.4936  155.8011 LP  0  0  0  0  0  0  0  0  0  0  0  0  # atno 17394 bound_to 11000
  141.2187  133.6836  156.7259 LP  0  0  0  0  0  0  0  0  0  0  0  0  # atno 17395 bound_to 11000

$$$$
