AV-unprocessed.smi:1508|AV-procd|sdf|6086|dock4
  -GOLD-   22720 6213D 1   1.00000     0.00000
 Structure written by MMmdl.
 38 39  0  0  0  0  0  0  0  0  2 V2000
  142.7999  135.9794  153.6638 C   0  0  0  0  0  0  0  0  0  0  0  0
  143.2656  134.8876  152.6875 C   0  0  0  0  0  0  0  0  0  0  0  0
  144.7444  135.0105  152.2295 C   0  0  2  0  0  0  0  0  0  0  0  0
  145.0552  136.3986  151.6048 C   0  0  0  0  0  0  0  0  0  0  0  0
  146.3499  136.9327  152.0163 N   0  0  0  0  0  0  0  0  0  0  0  0
  146.5291  138.0984  152.6535 C   0  0  0  0  0  0  0  0  0  0  0  0
  145.6024  138.8469  152.9633 O   0  0  0  0  0  0  0  0  0  0  0  0
  147.8299  138.3285  152.8934 N   0  0  0  0  0  0  0  0  0  0  0  0
  148.4133  139.4554  153.5249 C   0  0  0  0  0  0  0  0  0  0  0  0
  149.6194  139.3068  154.0851 N   0  0  0  0  0  0  0  0  0  0  0  0
  150.0737  140.4859  154.6632 N   0  0  0  0  0  0  0  0  0  0  0  0
  149.1908  141.4785  154.5168 C   0  0  0  0  0  0  0  0  0  0  0  0
  147.7156  141.0726  153.6576 S   0  0  0  0  0  0  0  0  0  0  0  0
  145.1419  133.9048  151.3086 N   0  3  0  0  0  0  0  0  0  0  0  0
  145.1175  132.5446  151.9046 C   0  0  0  0  0  0  0  0  0  0  0  0
  144.6600  131.5727  150.8077 C   0  0  0  0  0  0  0  0  0  0  0  0
  144.6370  132.4033  149.5297 C   0  0  0  0  0  0  0  0  0  0  0  0
  144.3859  133.8171  150.0401 C   0  0  0  0  0  0  0  0  0  0  0  0
  141.7440  135.8526  153.9033 H   0  0  0  0  0  0  0  0  0  0  0  0
  142.9221  136.9764  153.2406 H   0  0  0  0  0  0  0  0  0  0  0  0
  143.3517  135.9415  154.6029 H   0  0  0  0  0  0  0  0  0  0  0  0
  143.1082  133.9155  153.1554 H   0  0  0  0  0  0  0  0  0  0  0  0
  142.6034  134.8791  151.8220 H   0  0  0  0  0  0  0  0  0  0  0  0
  145.3602  134.9016  153.1240 H   0  0  0  0  0  0  0  0  0  0  0  0
  145.0374  136.3572  150.5152 H   0  0  0  0  0  0  0  0  0  0  0  0
  144.2878  137.1201  151.8852 H   0  0  0  0  0  0  0  0  0  0  0  0
  147.1645  136.3762  151.7997 H   0  0  0  0  0  0  0  0  0  0  0  0
  148.4806  137.6217  152.5837 H   0  0  0  0  0  0  0  0  0  0  0  0
  149.4105  142.4571  154.9173 H   0  0  0  0  0  0  0  0  0  0  0  0
  146.1121  132.2914  152.2729 H   0  0  0  0  0  0  0  0  0  0  0  0
  144.4263  132.4899  152.7472 H   0  0  0  0  0  0  0  0  0  0  0  0
  145.3103  130.7013  150.7225 H   0  0  0  0  0  0  0  0  0  0  0  0
  143.6546  131.2133  151.0314 H   0  0  0  0  0  0  0  0  0  0  0  0
  145.6098  132.3548  149.0381 H   0  0  0  0  0  0  0  0  0  0  0  0
  143.8818  132.0680  148.8182 H   0  0  0  0  0  0  0  0  0  0  0  0
  143.3209  133.9556  150.2343 H   0  0  0  0  0  0  0  0  0  0  0  0
  144.7032  134.5698  149.3181 H   0  0  0  0  0  0  0  0  0  0  0  0
  146.1014  134.0740  151.0421 H   0  0  0  0  0  0  0  0  0  0  0  0
  1  2  1  0  0  0  0
  1 19  1  0  0  0  0
  1 20  1  0  0  0  0
  1 21  1  0  0  0  0
  2  3  1  0  0  0  0
  2 22  1  0  0  0  0
  2 23  1  0  0  0  0
  3  4  1  0  0  0  0
  3 14  1  0  0  0  0
  3 24  1  0  0  0  0
  4  5  1  0  0  0  0
  4 25  1  0  0  0  0
  4 26  1  0  0  0  0
  5  6  1  0  0  0  0
  5 27  1  0  0  0  0
  6  7  2  0  0  0  0
  6  8  1  0  0  0  0
  8  9  1  0  0  0  0
  8 28  1  0  0  0  0
  9 13  1  0  0  0  0
  9 10  2  0  0  0  0
 10 11  1  0  0  0  0
 11 12  2  0  0  0  0
 12 13  1  0  0  0  0
 12 29  1  0  0  0  0
 14 18  1  0  0  0  0
 14 15  1  0  0  0  0
 14 38  1  0  0  0  0
 15 16  1  0  0  0  0
 15 30  1  0  0  0  0
 15 31  1  0  0  0  0
 16 17  1  0  0  0  0
 16 32  1  0  0  0  0
 16 33  1  0  0  0  0
 17 18  1  0  0  0  0
 17 34  1  0  0  0  0
 17 35  1  0  0  0  0
 18 36  1  0  0  0  0
 18 37  1  0  0  0  0
M  CHG  1  14   1
M  END
> <s_m_source_file>
AV-unprocessed.smi

> <i_m_source_file_index>
1508

> <i_lp_mmshare_version>
43012

> <i_f3d_flags>
0

> <s_epik_input>
W0NIMl0xW0NIMl1bQ0gyXVtDSDJdTjFbQ0BIXShbQ0gyXVtDSDNdKVtDSDJdW05IXUMoPU8pW05IXWMybm5bY0hdczI=

> <s_epik_cmdline>
J2VwaWtfcHl0aG9uJywgJy1waCcsICc3LjAnLCAnLXRuJywgJzgnLCAnLW1hJywgJzIwMCcsICctbWV0YWxfYmluZGluZycsICctaW1hZScsICc8aW5maWxlLm1hZT4nLCAnLW9tYWUnLCAnPG91dGZpbGUubWFlPic=

> <r_lp_tautomer_probability>
1

> <r_epik_Ionization_Penalty>
0.00193711

> <r_epik_Ionization_Penalty_Charging>
0.00115997

> <r_epik_Ionization_Penalty_Neutral>
0.000777142

> <r_epik_State_Penalty>
-0

> <r_epik_Charging_Adjusted_Penalty>
0.00115997

> <i_epik_Tot_Q>
1

> <i_epik_Tot_abs_Q>
1

> <r_epik_Metal_State_Penalty>
0.264283

> <b_epik_Metal_Only>
0

> <s_lp_Force_Field>
OPLS_2005

> <r_lp_Energy>
30.1882

> <b_lp_Chiralities_Consistent>
1

> <s_lp_Variant>
AV-unprocessed.smi:1508-1

> <Gold.Version>
5.8.1

> <Gold.Id.Protein>
6NUR|6NUR_protein|mol2

> <Gold.PLP.Fitness>
38.5243

> <Gold.PLP.PLP>
-28.0009

> <Gold.PLP.part.hbond>
-3.9183

> <Gold.PLP.part.metal>
0.0000

> <Gold.PLP.part.buried>
-2.7838

> <Gold.PLP.part.nonpolar>
-25.2850

> <Gold.PLP.part.repulsive>
4.2072

> <Gold.PLP.ligand.clash>
0.0000

> <Gold.PLP.ligand.torsion>
0.6877

> <Gold.PLP.Chemscore.Hbond>
2.9200

> <Gold.PLP.Chemscore.CHOScore>
1.0000

> <Gold.PLP.Chemscore.Metal>
0.0000

> <Gold.Chemscore.Hbonds>
donor molecule, donor type, donor heavy atom, donor atom, acceptor molecule, acceptor atom, score
      L1  H     5    27       P1  7948  0.96
      L1  H     8    28       P1  7948  1.00
      P1  H  7989  7998       L1    11  0.91
      L1  C    12    29       P1  8028  1.00

> <Gold.PLP.Chemscore.Internal.Correction>
0.1387

> <Gold.Rescore>
     Score         DG    S(hbond)    S(metal)    S(lipo)     H(rot)  DE(clash)    DE(int)     intcor
     13.41     -14.60       2.00        0.00      62.22       1.89       0.58       0.60       ----

> <Gold.Chemscore.Fitness>
13.4106

> <Gold.Chemscore.DG>
-14.5973

> <Gold.Chemscore.ZeroCoef>
-5.4800

> <Gold.Chemscore.Hbond>
2.0024

> <Gold.Chemscore.Metal>
0.0000

> <Gold.Chemscore.Lipo>
62.2244

> <Gold.Chemscore.Internal_Hbond>
0.0000

> <Gold.Chemscore.DEClash>
0.5832

> <Gold.Chemscore.DEInternal>
0.6035

> <Gold.Chemscore.Rot>
1.8950

> <Gold.Chemscore.Internal.Correction>
   9.000000E+99

> <Gold.Chemscore.Hbonds>
donor molecule, donor type, donor heavy atom, donor atom, acceptor molecule, acceptor atom, score
      L1  H     5    27       P1  7948  0.92
      L1  H     8    28       P1  7948  0.98
      P1  H  7989  7998       L1    11  0.14

> <Gold.Chemscore.Hbond.Weighted>
-6.6881

> <Gold.Chemscore.Metal.Weighted>
-0.0000

> <Gold.Chemscore.Lipo.Weighted>
-7.2803

> <Gold.Chemscore.Internal_Hbond.Weighted>
0.0000

> <Gold.Chemscore.DEClash.Weighted>
0.5832

> <Gold.Chemscore.DEInternal.Weighted>
0.6035

> <Gold.Chemscore.Rot.Weighted>
4.8511

> <Gold.Chemscore.Internal.Correction.Weighted>
   9.000000E+99

> <Gold.Protein.RotatedTorsions>
[ 6907 6896 6895 6894 ] final  100.92 input  -60.11 | X-H torsion
[ 7974 7965 7964 7962 ] final -110.80 input  175.53 | X-H torsion
[ 8008 7997 7996 7995 ] final -137.79 input   59.86 | X-H torsion
[ 10167 10162 10161 10158 ] final  148.21 input  -65.29 | X-H torsion
[ 10718 10713 10712 10709 ] final   82.62 input   66.30 | X-H torsion
[ 10763 10752 10751 10750 ] final -140.81 input  -60.55 | X-H torsion
[ 11005 11000 10999 10996 ] final  100.68 input  -57.11 | X-H torsion

> <Gold.Protein.ActiveResidues>
 VAL166  LYS551  ARG553  GLY616  TRP617  ASP618  TYR619  PRO620  LYS621  CYS622 
 ASP623  PHE694  ASN695  SER759  ASP760  ASP761  ALA762  ILE779  LEU786  VAL792 
 PHE793  MET794  SER795  GLU796  ALA797  LYS798  CYS799  TRP800  GLU811  SER814 

> <Gold.Protein.RotatedAtoms>
  152.5361  134.0205  159.7979 H   0  0  0  0  0  0  0  0  0  0  0  0  # atno 6907 bound_to 6896
  151.0392  133.5714  159.2660 H   0  0  0  0  0  0  0  0  0  0  0  0  # atno 6908 bound_to 6896
  151.2690  135.0685  159.9180 H   0  0  0  0  0  0  0  0  0  0  0  0  # atno 6909 bound_to 6896
  145.1638  140.8892  143.3575 H   0  0  0  0  0  0  0  0  0  0  0  0  # atno 7974 bound_to 7965
  155.4177  140.0516  157.3028 H   0  0  0  0  0  0  0  0  0  0  0  0  # atno 8008 bound_to 7997
  154.4917  140.2122  155.9493 H   0  0  0  0  0  0  0  0  0  0  0  0  # atno 8009 bound_to 7997
  156.1351  140.3164  155.8413 H   0  0  0  0  0  0  0  0  0  0  0  0  # atno 8010 bound_to 7997
  139.4878  144.5697  151.7078 H   0  0  0  0  0  0  0  0  0  0  0  0  # atno 10167 bound_to 10162
  157.6861  131.0055  150.2401 H   0  0  0  0  0  0  0  0  0  0  0  0  # atno 10718 bound_to 10713
  154.8566  135.3542  154.5767 H   0  0  0  0  0  0  0  0  0  0  0  0  # atno 10763 bound_to 10752
  153.6378  135.6999  153.5257 H   0  0  0  0  0  0  0  0  0  0  0  0  # atno 10764 bound_to 10752
  153.2996  135.4210  155.1199 H   0  0  0  0  0  0  0  0  0  0  0  0  # atno 10765 bound_to 10752
  139.8771  134.9151  156.4793 H   0  0  0  0  0  0  0  0  0  0  0  0  # atno 11005 bound_to 11000
  145.0303  139.3347  143.6028 LP  0  0  0  0  0  0  0  0  0  0  0  0  # atno 17320 bound_to 7965
  146.3478  139.9638  142.8714 LP  0  0  0  0  0  0  0  0  0  0  0  0  # atno 17321 bound_to 7965
  140.5282  144.0772  150.6044 LP  0  0  0  0  0  0  0  0  0  0  0  0  # atno 17342 bound_to 10162
  140.3753  143.2832  152.0231 LP  0  0  0  0  0  0  0  0  0  0  0  0  # atno 17343 bound_to 10162
  156.3017  130.3759  149.7744 LP  0  0  0  0  0  0  0  0  0  0  0  0  # atno 17370 bound_to 10713
  156.5372  130.8284  151.3257 LP  0  0  0  0  0  0  0  0  0  0  0  0  # atno 17371 bound_to 10713
  140.8739  133.7968  155.9394 LP  0  0  0  0  0  0  0  0  0  0  0  0  # atno 17394 bound_to 11000
  140.8924  134.2479  157.5087 LP  0  0  0  0  0  0  0  0  0  0  0  0  # atno 17395 bound_to 11000

$$$$
