AV-unprocessed.smi:1389|AV-procd|sdf|5649|dock2
  -GOLD-   22720 5273D 1   1.00000     0.00000
 Structure written by MMmdl.
 52 54  0  0  0  0  0  0  0  0  2 V2000
  146.7078  142.5128  154.8634 C   0  0  0  0  0  0  0  0  0  0  0  0
  147.1816  141.5723  153.7284 C   0  0  1  0  0  0  0  0  0  0  0  0
  148.7076  141.3139  153.8479 C   0  0  0  0  0  0  0  0  0  0  0  0
  149.1777  141.3646  155.2281 N   0  0  0  0  0  0  0  0  0  0  0  0
  150.2571  140.7140  155.6806 C   0  0  0  0  0  0  0  0  0  0  0  0
  150.9711  140.0091  154.9674 O   0  0  0  0  0  0  0  0  0  0  0  0
  150.4556  140.9487  156.9886 N   0  0  0  0  0  0  0  0  0  0  0  0
  151.5189  140.4795  157.8107 C   0  0  0  0  0  0  0  0  0  0  0  0
  152.0207  139.1606  157.6874 C   0  0  0  0  0  0  0  0  0  0  0  0
  153.0243  138.7185  158.5662 C   0  0  0  0  0  0  0  0  0  0  0  0
  153.4823  139.6076  159.5523 C   0  0  0  0  0  0  0  0  0  0  0  0
  153.0049  140.8602  159.6930 N   0  0  0  0  0  0  0  0  0  0  0  0
  152.0464  141.3068  158.8441 C   0  0  0  0  0  0  0  0  0  0  0  0
  151.5956  142.6338  159.0335 N   0  0  0  0  0  0  0  0  0  0  0  0
  151.6536  143.5520  157.8997 C   0  0  0  0  0  0  0  0  0  0  0  0
  152.0159  144.9266  158.4718 C   0  0  0  0  0  0  0  0  0  0  0  0
  151.6195  144.8216  159.9409 C   0  0  0  0  0  0  0  0  0  0  0  0
  151.9249  143.3601  160.2556 C   0  0  0  0  0  0  0  0  0  0  0  0
  146.3762  140.3048  153.7103 N   0  3  0  0  0  0  0  0  0  0  0  0
  146.8188  139.3453  152.6598 C   0  0  0  0  0  0  0  0  0  0  0  0
  145.9454  138.0801  152.6483 C   0  0  0  0  0  0  0  0  0  0  0  0
  145.9837  137.4643  153.9255 O   0  0  0  0  0  0  0  0  0  0  0  0
  145.4487  138.3191  154.9233 C   0  0  0  0  0  0  0  0  0  0  0  0
  146.2919  139.6023  155.0220 C   0  0  0  0  0  0  0  0  0  0  0  0
  147.3158  143.4143  154.9337 H   0  0  0  0  0  0  0  0  0  0  0  0
  146.7526  142.0141  155.8321 H   0  0  0  0  0  0  0  0  0  0  0  0
  145.6897  142.8678  154.7140 H   0  0  0  0  0  0  0  0  0  0  0  0
  147.0143  142.0802  152.7769 H   0  0  0  0  0  0  0  0  0  0  0  0
  148.9580  140.3454  153.4110 H   0  0  0  0  0  0  0  0  0  0  0  0
  149.2785  142.0726  153.3126 H   0  0  0  0  0  0  0  0  0  0  0  0
  148.6482  141.9281  155.8775 H   0  0  0  0  0  0  0  0  0  0  0  0
  149.8423  141.6242  157.4209 H   0  0  0  0  0  0  0  0  0  0  0  0
  151.6361  138.4734  156.9491 H   0  0  0  0  0  0  0  0  0  0  0  0
  153.4235  137.7177  158.4938 H   0  0  0  0  0  0  0  0  0  0  0  0
  154.2474  139.3036  160.2511 H   0  0  0  0  0  0  0  0  0  0  0  0
  152.3745  143.2313  157.1463 H   0  0  0  0  0  0  0  0  0  0  0  0
  150.6699  143.5940  157.4319 H   0  0  0  0  0  0  0  0  0  0  0  0
  153.0925  145.0839  158.3943 H   0  0  0  0  0  0  0  0  0  0  0  0
  151.5185  145.7461  157.9527 H   0  0  0  0  0  0  0  0  0  0  0  0
  152.1610  145.5173  160.5825 H   0  0  0  0  0  0  0  0  0  0  0  0
  150.5515  145.0133  160.0538 H   0  0  0  0  0  0  0  0  0  0  0  0
  151.3434  142.9973  161.1036 H   0  0  0  0  0  0  0  0  0  0  0  0
  152.9841  143.2554  160.4946 H   0  0  0  0  0  0  0  0  0  0  0  0
  146.7608  139.7899  151.6686 H   0  0  0  0  0  0  0  0  0  0  0  0
  147.8618  139.0733  152.8293 H   0  0  0  0  0  0  0  0  0  0  0  0
  144.9168  138.3168  152.3706 H   0  0  0  0  0  0  0  0  0  0  0  0
  146.3193  137.3738  151.9067 H   0  0  0  0  0  0  0  0  0  0  0  0
  144.4065  138.5533  154.7000 H   0  0  0  0  0  0  0  0  0  0  0  0
  145.4566  137.7923  155.8777 H   0  0  0  0  0  0  0  0  0  0  0  0
  147.2965  139.3645  155.3754 H   0  0  0  0  0  0  0  0  0  0  0  0
  145.8195  140.2328  155.7736 H   0  0  0  0  0  0  0  0  0  0  0  0
  145.4303  140.5721  153.4776 H   0  0  0  0  0  0  0  0  0  0  0  0
  1  2  1  0  0  0  0
  1 25  1  0  0  0  0
  1 26  1  0  0  0  0
  1 27  1  0  0  0  0
  2  3  1  0  0  0  0
  2 19  1  0  0  0  0
  2 28  1  0  0  0  0
  3  4  1  0  0  0  0
  3 29  1  0  0  0  0
  3 30  1  0  0  0  0
  4  5  1  0  0  0  0
  4 31  1  0  0  0  0
  5  6  2  0  0  0  0
  5  7  1  0  0  0  0
  7  8  1  0  0  0  0
  7 32  1  0  0  0  0
  8 13  1  0  0  0  0
  8  9  2  0  0  0  0
  9 10  1  0  0  0  0
  9 33  1  0  0  0  0
 10 11  2  0  0  0  0
 10 34  1  0  0  0  0
 11 12  1  0  0  0  0
 11 35  1  0  0  0  0
 12 13  2  0  0  0  0
 13 14  1  0  0  0  0
 14 18  1  0  0  0  0
 14 15  1  0  0  0  0
 15 16  1  0  0  0  0
 15 36  1  0  0  0  0
 15 37  1  0  0  0  0
 16 17  1  0  0  0  0
 16 38  1  0  0  0  0
 16 39  1  0  0  0  0
 17 18  1  0  0  0  0
 17 40  1  0  0  0  0
 17 41  1  0  0  0  0
 18 42  1  0  0  0  0
 18 43  1  0  0  0  0
 19 24  1  0  0  0  0
 19 20  1  0  0  0  0
 19 52  1  0  0  0  0
 20 21  1  0  0  0  0
 20 44  1  0  0  0  0
 20 45  1  0  0  0  0
 21 22  1  0  0  0  0
 21 46  1  0  0  0  0
 21 47  1  0  0  0  0
 22 23  1  0  0  0  0
 23 24  1  0  0  0  0
 23 48  1  0  0  0  0
 23 49  1  0  0  0  0
 24 50  1  0  0  0  0
 24 51  1  0  0  0  0
M  CHG  1  19   1
M  END
> <s_m_source_file>
AV-unprocessed.smi

> <i_m_source_file_index>
1389

> <i_lp_mmshare_version>
43012

> <i_f3d_flags>
0

> <s_epik_input>
W0NIMl0xW0NIMl1PW0NIMl1bQ0gyXU4xW0NASF0oW0NIM10pW0NIMl1bTkhdQyg9TylbTkhdYzJbY0hdW2NIXVtjSF1uYzJOM1tDSDJdW0NIMl1bQ0gyXVtDSDJdMw==

> <s_epik_cmdline>
J2VwaWtfcHl0aG9uJywgJy1waCcsICc3LjAnLCAnLXRuJywgJzgnLCAnLW1hJywgJzIwMCcsICctbWV0YWxfYmluZGluZycsICctaW1hZScsICc8aW5maWxlLm1hZT4nLCAnLW9tYWUnLCAnPG91dGZpbGUubWFlPic=

> <r_lp_tautomer_probability>
1

> <r_epik_Ionization_Penalty>
0.686

> <r_epik_Ionization_Penalty_Charging>
0.602531

> <r_epik_Ionization_Penalty_Neutral>
0.08347

> <r_epik_State_Penalty>
0.679975

> <r_epik_Charging_Adjusted_Penalty>
1.28251

> <i_epik_Tot_Q>
1

> <i_epik_Tot_abs_Q>
1

> <r_epik_Metal_State_Penalty>
0.679055

> <b_epik_Metal_Only>
0

> <s_lp_Force_Field>
OPLS_2005

> <r_lp_Energy>
49.8528

> <b_lp_Chiralities_Consistent>
1

> <s_lp_Variant>
AV-unprocessed.smi:1389-4

> <Gold.Version>
5.8.1

> <Gold.Id.Protein>
6NUR|6NUR_protein|mol2

> <Gold.PLP.Fitness>
48.9211

> <Gold.PLP.PLP>
-41.8692

> <Gold.PLP.part.hbond>
-2.0000

> <Gold.PLP.part.metal>
0.0000

> <Gold.PLP.part.buried>
-5.0331

> <Gold.PLP.part.nonpolar>
-35.8653

> <Gold.PLP.part.repulsive>
0.3329

> <Gold.PLP.ligand.clash>
0.0731

> <Gold.PLP.ligand.torsion>
1.1275

> <Gold.PLP.Chemscore.Hbond>
3.0000

> <Gold.PLP.Chemscore.CHOScore>
0.0000

> <Gold.PLP.Chemscore.Metal>
0.0000

> <Gold.Chemscore.Hbonds>
donor molecule, donor type, donor heavy atom, donor atom, acceptor molecule, acceptor atom, score
      L1  H    19    52       P1 10175  2.00
      P1  H  7989  7998       L1     6  1.00

> <Gold.PLP.Chemscore.Internal.Correction>
0.3800

> <Gold.Rescore>
     Score         DG    S(hbond)    S(metal)    S(lipo)     H(rot)  DE(clash)    DE(int)     intcor
     17.77     -20.12       1.95        0.00     105.28       1.63       0.02       2.33       ----

> <Gold.Chemscore.Fitness>
17.7742

> <Gold.Chemscore.DG>
-20.1223

> <Gold.Chemscore.ZeroCoef>
-5.4800

> <Gold.Chemscore.Hbond>
1.9458

> <Gold.Chemscore.Metal>
0.0000

> <Gold.Chemscore.Lipo>
105.2809

> <Gold.Chemscore.Internal_Hbond>
0.0000

> <Gold.Chemscore.DEClash>
0.0192

> <Gold.Chemscore.DEInternal>
2.3289

> <Gold.Chemscore.Rot>
1.6307

> <Gold.Chemscore.Internal.Correction>
   9.000000E+99

> <Gold.Chemscore.Hbonds>
donor molecule, donor type, donor heavy atom, donor atom, acceptor molecule, acceptor atom, score
      L1  H    19    52       P1 10175  0.90
      P1  H  7989  7998       L1     6  0.88

> <Gold.Chemscore.Hbond.Weighted>
-6.4990

> <Gold.Chemscore.Metal.Weighted>
-0.0000

> <Gold.Chemscore.Lipo.Weighted>
-12.3179

> <Gold.Chemscore.Internal_Hbond.Weighted>
0.0000

> <Gold.Chemscore.DEClash.Weighted>
0.0192

> <Gold.Chemscore.DEInternal.Weighted>
2.3289

> <Gold.Chemscore.Rot.Weighted>
4.1746

> <Gold.Chemscore.Internal.Correction.Weighted>
   9.000000E+99

> <Gold.Protein.RotatedTorsions>
[ 6907 6896 6895 6894 ] final -171.30 input  -60.11 | X-H torsion
[ 7974 7965 7964 7962 ] final   46.98 input  175.53 | X-H torsion
[ 8008 7997 7996 7995 ] final  165.89 input   59.86 | X-H torsion
[ 10167 10162 10161 10158 ] final  161.02 input  -65.29 | X-H torsion
[ 10718 10713 10712 10709 ] final  111.95 input   66.30 | X-H torsion
[ 10763 10752 10751 10750 ] final -111.23 input  -60.55 | X-H torsion
[ 11005 11000 10999 10996 ] final  -26.67 input  -57.11 | X-H torsion

> <Gold.Protein.ActiveResidues>
 VAL166  LYS551  ARG553  GLY616  TRP617  ASP618  TYR619  PRO620  LYS621  CYS622 
 ASP623  PHE694  ASN695  SER759  ASP760  ASP761  ALA762  ILE779  LEU786  VAL792 
 PHE793  MET794  SER795  GLU796  ALA797  LYS798  CYS799  TRP800  GLU811  SER814 

> <Gold.Protein.RotatedAtoms>
  151.5216  133.3465  159.2902 H   0  0  0  0  0  0  0  0  0  0  0  0  # atno 6907 bound_to 6896
  150.8649  134.8012  159.7122 H   0  0  0  0  0  0  0  0  0  0  0  0  # atno 6908 bound_to 6896
  152.4657  134.5091  159.9800 H   0  0  0  0  0  0  0  0  0  0  0  0  # atno 6909 bound_to 6896
  146.0340  139.4798  142.9820 H   0  0  0  0  0  0  0  0  0  0  0  0  # atno 7974 bound_to 7965
  156.1764  140.1658  156.8355 H   0  0  0  0  0  0  0  0  0  0  0  0  # atno 8008 bound_to 7997
  154.5311  140.0756  156.8380 H   0  0  0  0  0  0  0  0  0  0  0  0  # atno 8009 bound_to 7997
  155.3405  140.3384  155.4241 H   0  0  0  0  0  0  0  0  0  0  0  0  # atno 8010 bound_to 7997
  139.4845  144.4578  151.8746 H   0  0  0  0  0  0  0  0  0  0  0  0  # atno 10167 bound_to 10162
  157.6418  131.0959  150.6824 H   0  0  0  0  0  0  0  0  0  0  0  0  # atno 10718 bound_to 10713
  154.8289  135.4535  154.1007 H   0  0  0  0  0  0  0  0  0  0  0  0  # atno 10763 bound_to 10752
  153.2297  135.6904  153.7910 H   0  0  0  0  0  0  0  0  0  0  0  0  # atno 10764 bound_to 10752
  153.7297  135.3329  155.3260 H   0  0  0  0  0  0  0  0  0  0  0  0  # atno 10765 bound_to 10752
  140.9050  133.7498  156.0594 H   0  0  0  0  0  0  0  0  0  0  0  0  # atno 11005 bound_to 11000
  145.6994  141.0140  143.1512 LP  0  0  0  0  0  0  0  0  0  0  0  0  # atno 17320 bound_to 7965
  144.7043  139.8627  143.7435 LP  0  0  0  0  0  0  0  0  0  0  0  0  # atno 17321 bound_to 7965
  140.4038  144.2458  150.5891 LP  0  0  0  0  0  0  0  0  0  0  0  0  # atno 17342 bound_to 10162
  140.5032  143.2312  151.8648 LP  0  0  0  0  0  0  0  0  0  0  0  0  # atno 17343 bound_to 10162
  156.7147  130.4662  149.5538 LP  0  0  0  0  0  0  0  0  0  0  0  0  # atno 17370 bound_to 10713
  156.1706  130.6434  151.0833 LP  0  0  0  0  0  0  0  0  0  0  0  0  # atno 17371 bound_to 10713
  140.8182  134.3320  157.5390 LP  0  0  0  0  0  0  0  0  0  0  0  0  # atno 17394 bound_to 11000
  139.8748  134.9294  156.3475 LP  0  0  0  0  0  0  0  0  0  0  0  0  # atno 17395 bound_to 11000

$$$$
