AV-unprocessed.smi:2548|AV-procd|sdf|10008|dock7
  -GOLD-   2272014 53D 1   1.00000     0.00000
 Structure written by MMmdl.
 44 45  0  0  0  0  0  0  0  0  1 V2000
  145.5505  137.1881  152.1234 C   0  0  0  0  0  0  0  0  0  0  0  0
  145.8257  138.3174  153.0719 C   0  0  0  0  0  0  0  0  0  0  0  0
  146.8661  139.2899  153.0052 C   0  0  0  0  0  0  0  0  0  0  0  0
  146.6599  140.0814  154.1005 C   0  0  0  0  0  0  0  0  0  0  0  0
  147.3991  141.2801  154.6089 C   0  0  0  0  0  0  0  0  0  0  0  0
  148.1189  141.0117  155.9358 C   0  0  0  0  0  0  0  0  0  0  0  0
  148.0435  139.9127  156.4876 O   0  0  0  0  0  0  0  0  0  0  0  0
  148.8323  142.0355  156.4308 N   0  0  0  0  0  0  0  0  0  0  0  0
  149.5987  142.0219  157.6772 C   0  0  0  0  0  0  0  0  0  0  0  0
  151.1415  141.9211  157.4714 C   0  0  0  0  0  0  0  0  0  0  0  0
  151.4204  140.8813  156.3600 C   0  0  0  0  0  0  0  0  0  0  0  0
  151.7208  143.2751  156.9679 C   0  0  0  0  0  0  0  0  0  0  0  0
  151.4957  144.5134  157.8609 C   0  0  0  0  0  0  0  0  0  0  0  0
  152.5331  144.7394  158.9737 C   0  0  0  0  0  0  0  0  0  0  0  0
  152.9698  143.5041  159.7784 C   0  0  0  0  0  0  0  0  0  0  0  0
  151.9088  142.4048  159.9439 C   0  0  0  0  0  0  0  0  0  0  0  0
  151.8713  141.4313  158.7505 C   0  0  0  0  0  0  0  0  0  0  0  0
  145.5578  139.5644  154.7439 N   0  0  0  0  0  0  0  0  0  0  0  0
  145.0399  138.4878  154.1245 N   0  0  0  0  0  0  0  0  0  0  0  0
  145.1510  139.9344  155.5913 H   0  0  0  0  0  0  0  0  0  0  0  0
  146.2928  137.1542  151.3257 H   0  0  0  0  0  0  0  0  0  0  0  0
  144.5697  137.2954  151.6592 H   0  0  0  0  0  0  0  0  0  0  0  0
  145.5737  136.2276  152.6389 H   0  0  0  0  0  0  0  0  0  0  0  0
  147.6437  139.3927  152.2628 H   0  0  0  0  0  0  0  0  0  0  0  0
  146.7008  142.1076  154.7402 H   0  0  0  0  0  0  0  0  0  0  0  0
  148.1349  141.6064  153.8731 H   0  0  0  0  0  0  0  0  0  0  0  0
  148.8426  142.8979  155.9058 H   0  0  0  0  0  0  0  0  0  0  0  0
  149.3645  142.9483  158.2027 H   0  0  0  0  0  0  0  0  0  0  0  0
  149.2233  141.2247  158.3167 H   0  0  0  0  0  0  0  0  0  0  0  0
  152.4824  140.8359  156.1151 H   0  0  0  0  0  0  0  0  0  0  0  0
  150.8867  141.1263  155.4412 H   0  0  0  0  0  0  0  0  0  0  0  0
  151.1199  139.8751  156.6542 H   0  0  0  0  0  0  0  0  0  0  0  0
  152.7873  143.1752  156.7610 H   0  0  0  0  0  0  0  0  0  0  0  0
  151.2642  143.4919  156.0012 H   0  0  0  0  0  0  0  0  0  0  0  0
  151.5170  145.3973  157.2227 H   0  0  0  0  0  0  0  0  0  0  0  0
  150.4962  144.5177  158.2891 H   0  0  0  0  0  0  0  0  0  0  0  0
  153.4246  145.1992  158.5455 H   0  0  0  0  0  0  0  0  0  0  0  0
  152.1274  145.4827  159.6610 H   0  0  0  0  0  0  0  0  0  0  0  0
  153.8646  143.0759  159.3252 H   0  0  0  0  0  0  0  0  0  0  0  0
  153.2873  143.8420  160.7657 H   0  0  0  0  0  0  0  0  0  0  0  0
  152.1764  141.8229  160.8265 H   0  0  0  0  0  0  0  0  0  0  0  0
  150.9278  142.8267  160.1617 H   0  0  0  0  0  0  0  0  0  0  0  0
  151.4211  140.4977  159.0861 H   0  0  0  0  0  0  0  0  0  0  0  0
  152.8969  141.1577  158.4987 H   0  0  0  0  0  0  0  0  0  0  0  0
  1 21  1  0  0  0  0
  1 22  1  0  0  0  0
  1 23  1  0  0  0  0
  1  2  1  0  0  0  0
  2 19  2  0  0  0  0
  2  3  1  0  0  0  0
  3  4  2  0  0  0  0
  3 24  1  0  0  0  0
  4 18  1  0  0  0  0
  4  5  1  0  0  0  0
  5  6  1  0  0  0  0
  5 25  1  0  0  0  0
  5 26  1  0  0  0  0
  6  7  2  0  0  0  0
  6  8  1  0  0  0  0
  8  9  1  0  0  0  0
  8 27  1  0  0  0  0
  9 10  1  0  0  0  0
  9 28  1  0  0  0  0
  9 29  1  0  0  0  0
 10 17  1  0  0  0  0
 10 11  1  0  0  0  0
 10 12  1  0  0  0  0
 11 30  1  0  0  0  0
 11 31  1  0  0  0  0
 11 32  1  0  0  0  0
 12 13  1  0  0  0  0
 12 33  1  0  0  0  0
 12 34  1  0  0  0  0
 13 14  1  0  0  0  0
 13 35  1  0  0  0  0
 13 36  1  0  0  0  0
 14 15  1  0  0  0  0
 14 37  1  0  0  0  0
 14 38  1  0  0  0  0
 15 16  1  0  0  0  0
 15 39  1  0  0  0  0
 15 40  1  0  0  0  0
 16 17  1  0  0  0  0
 16 41  1  0  0  0  0
 16 42  1  0  0  0  0
 17 43  1  0  0  0  0
 17 44  1  0  0  0  0
 18 19  1  0  0  0  0
 18 20  1  0  0  0  0
M  END
> <s_m_source_file>
AV-unprocessed.smi

> <i_m_source_file_index>
2548

> <i_lp_mmshare_version>
43012

> <i_f3d_flags>
0

> <s_epik_input>
W0NIM11jMVtjSF1jKG5bbkhdMSlbQ0gyXUMoPU8pW05IXVtDSDJdQzIoW0NIM10pW0NIMl1bQ0gyXVtDSDJdW0NIMl1bQ0gyXVtDSDJdMg==

> <s_epik_cmdline>
J2VwaWtfcHl0aG9uJywgJy1waCcsICc3LjAnLCAnLXRuJywgJzgnLCAnLW1hJywgJzIwMCcsICctbWV0YWxfYmluZGluZycsICctaW1hZScsICc8aW5maWxlLm1hZT4nLCAnLW9tYWUnLCAnPG91dGZpbGUubWFlPic=

> <r_lp_tautomer_probability>
0.5

> <r_epik_Ionization_Penalty>
0.000120089

> <r_epik_Ionization_Penalty_Charging>
0

> <r_epik_Ionization_Penalty_Neutral>
0.000120089

> <r_epik_State_Penalty>
0.41068

> <r_epik_Charging_Adjusted_Penalty>
0.41068

> <i_epik_Tot_Q>
0

> <i_epik_Tot_abs_Q>
0

> <r_epik_Metal_State_Penalty>
0.410662

> <b_epik_Metal_Only>
0

> <s_lp_Force_Field>
OPLS_2005

> <r_lp_Energy>
21.4694

> <b_lp_Chiralities_Consistent>
1

> <s_lp_Variant>
AV-unprocessed.smi:2548-2

> <Gold.Version>
5.8.1

> <Gold.Id.Protein>
6NUR|6NUR_protein|mol2

> <Gold.PLP.Fitness>
35.8416

> <Gold.PLP.PLP>
-33.5530

> <Gold.PLP.part.hbond>
-1.5015

> <Gold.PLP.part.metal>
0.0000

> <Gold.PLP.part.buried>
-2.8686

> <Gold.PLP.part.nonpolar>
-30.3489

> <Gold.PLP.part.repulsive>
0.4562

> <Gold.PLP.ligand.clash>
0.0000

> <Gold.PLP.ligand.torsion>
0.3611

> <Gold.PLP.Chemscore.Hbond>
1.0000

> <Gold.PLP.Chemscore.CHOScore>
0.0000

> <Gold.PLP.Chemscore.Metal>
0.0000

> <Gold.Chemscore.Hbonds>
donor molecule, donor type, donor heavy atom, donor atom, acceptor molecule, acceptor atom, score
      L1  H     8    27       P1  8028  1.00

> <Gold.PLP.Chemscore.Internal.Correction>
0.0107

> <Gold.Rescore>
     Score         DG    S(hbond)    S(metal)    S(lipo)     H(rot)  DE(clash)    DE(int)     intcor
     17.73     -18.17       0.99        0.00     114.02       1.55       0.13       0.32       ----

> <Gold.Chemscore.Fitness>
17.7286

> <Gold.Chemscore.DG>
-18.1695

> <Gold.Chemscore.ZeroCoef>
-5.4800

> <Gold.Chemscore.Hbond>
0.9923

> <Gold.Chemscore.Metal>
0.0000

> <Gold.Chemscore.Lipo>
114.0220

> <Gold.Chemscore.Internal_Hbond>
0.0000

> <Gold.Chemscore.DEClash>
0.1253

> <Gold.Chemscore.DEInternal>
0.3155

> <Gold.Chemscore.Rot>
1.5489

> <Gold.Chemscore.Internal.Correction>
   9.000000E+99

> <Gold.Chemscore.Hbonds>
donor molecule, donor type, donor heavy atom, donor atom, acceptor molecule, acceptor atom, score
      L1  H     8    27       P1  8028  0.99

> <Gold.Chemscore.Hbond.Weighted>
-3.3141

> <Gold.Chemscore.Metal.Weighted>
-0.0000

> <Gold.Chemscore.Lipo.Weighted>
-13.3406

> <Gold.Chemscore.Internal_Hbond.Weighted>
0.0000

> <Gold.Chemscore.DEClash.Weighted>
0.1253

> <Gold.Chemscore.DEInternal.Weighted>
0.3155

> <Gold.Chemscore.Rot.Weighted>
3.9652

> <Gold.Chemscore.Internal.Correction.Weighted>
   9.000000E+99

> <Gold.Protein.RotatedTorsions>
[ 6907 6896 6895 6894 ] final  125.56 input  -60.11 | X-H torsion
[ 7974 7965 7964 7962 ] final  177.03 input  175.53 | X-H torsion
[ 8008 7997 7996 7995 ] final -151.18 input   59.86 | X-H torsion
[ 10167 10162 10161 10158 ] final   31.95 input  -65.29 | X-H torsion
[ 10718 10713 10712 10709 ] final  147.13 input   66.30 | X-H torsion
[ 10763 10752 10751 10750 ] final  154.95 input  -60.55 | X-H torsion
[ 11005 11000 10999 10996 ] final  -73.75 input  -57.11 | X-H torsion

> <Gold.Protein.ActiveResidues>
 VAL166  LYS551  ARG553  GLY616  TRP617  ASP618  TYR619  PRO620  LYS621  CYS622 
 ASP623  PHE694  ASN695  SER759  ASP760  ASP761  ALA762  ILE779  LEU786  VAL792 
 PHE793  MET794  SER795  GLU796  ALA797  LYS798  CYS799  TRP800  GLU811  SER814 

> <Gold.Protein.RotatedAtoms>
  152.3981  133.6777  159.6293 H   0  0  0  0  0  0  0  0  0  0  0  0  # atno 6907 bound_to 6896
  150.7877  133.8838  159.3302 H   0  0  0  0  0  0  0  0  0  0  0  0  # atno 6908 bound_to 6896
  151.6610  135.0991  160.0231 H   0  0  0  0  0  0  0  0  0  0  0  0  # atno 6909 bound_to 6896
  144.7175  140.0186  143.6440 H   0  0  0  0  0  0  0  0  0  0  0  0  # atno 7974 bound_to 7965
  155.6352  140.0696  157.2636 H   0  0  0  0  0  0  0  0  0  0  0  0  # atno 8008 bound_to 7997
  154.4196  140.1760  156.1564 H   0  0  0  0  0  0  0  0  0  0  0  0  # atno 8009 bound_to 7997
  155.9900  140.3346  155.6747 H   0  0  0  0  0  0  0  0  0  0  0  0  # atno 8010 bound_to 7997
  140.4543  144.1002  150.6198 H   0  0  0  0  0  0  0  0  0  0  0  0  # atno 10167 bound_to 10162
  157.3248  131.0910  151.1211 H   0  0  0  0  0  0  0  0  0  0  0  0  # atno 10718 bound_to 10713
  154.1605  135.2810  155.3110 H   0  0  0  0  0  0  0  0  0  0  0  0  # atno 10763 bound_to 10752
  154.6150  135.5486  153.7517 H   0  0  0  0  0  0  0  0  0  0  0  0  # atno 10764 bound_to 10752
  153.0194  135.6425  154.1747 H   0  0  0  0  0  0  0  0  0  0  0  0  # atno 10765 bound_to 10752
  141.1627  133.6888  156.7260 H   0  0  0  0  0  0  0  0  0  0  0  0  # atno 11005 bound_to 11000
  146.0199  139.3242  143.0819 LP  0  0  0  0  0  0  0  0  0  0  0  0  # atno 17320 bound_to 7965
  145.8580  140.9491  143.0715 LP  0  0  0  0  0  0  0  0  0  0  0  0  # atno 17321 bound_to 7965
  140.4170  143.2629  151.9763 LP  0  0  0  0  0  0  0  0  0  0  0  0  # atno 17342 bound_to 10162
  139.4799  144.5865  151.7845 LP  0  0  0  0  0  0  0  0  0  0  0  0  # atno 17343 bound_to 10162
  157.2482  130.6601  149.5920 LP  0  0  0  0  0  0  0  0  0  0  0  0  # atno 17370 bound_to 10713
  155.9689  130.4546  150.5858 LP  0  0  0  0  0  0  0  0  0  0  0  0  # atno 17371 bound_to 10713
  140.2780  134.8339  157.3908 LP  0  0  0  0  0  0  0  0  0  0  0  0  # atno 17394 bound_to 11000
  140.1459  134.4912  155.7996 LP  0  0  0  0  0  0  0  0  0  0  0  0  # atno 17395 bound_to 11000

$$$$
