AV-unprocessed.smi:2726|AV-procd|sdf|10519|dock8
  -GOLD-   2272014563D 1   1.00000     0.00000
 Structure written by MMmdl.
 41 42  0  0  0  0  0  0  0  0  1 V2000
  147.2934  133.2589  155.3180 C   0  0  0  0  0  0  0  0  0  0  0  0
  148.3748  133.2578  154.2228 C   0  0  0  0  0  0  0  0  0  0  0  0
  149.5263  132.3268  154.6571 C   0  0  0  0  0  0  0  0  0  0  0  0
  147.7475  132.7654  152.9016 C   0  0  0  0  0  0  0  0  0  0  0  0
  148.8493  134.6407  154.0894 N   0  0  0  0  0  0  0  0  0  0  0  0
  149.3184  135.4588  155.0468 C   0  0  0  0  0  0  0  0  0  0  0  0
  149.4252  135.1438  156.2316 O   0  0  0  0  0  0  0  0  0  0  0  0
  149.6299  136.6625  154.5369 N   0  0  0  0  0  0  0  0  0  0  0  0
  150.1520  137.7979  155.2123 C   0  0  0  0  0  0  0  0  0  0  0  0
  150.4826  137.8221  156.5879 C   0  0  0  0  0  0  0  0  0  0  0  0
  151.0126  139.0042  157.1395 C   0  0  0  0  0  0  0  0  0  0  0  0
  151.2030  140.1223  156.3019 C   0  0  0  0  0  0  0  0  0  0  0  0
  151.7275  141.2998  156.8563 N   0  0  0  0  0  0  0  0  0  0  0  0
  150.8728  142.4707  156.7496 C   0  0  0  0  0  0  0  0  0  0  0  0
  151.4527  143.4897  157.7335 C   0  0  0  0  0  0  0  0  0  0  0  0
  152.2600  142.6547  158.7351 C   0  0  0  0  0  0  0  0  0  0  0  0
  152.1061  141.2085  158.2568 C   0  0  0  0  0  0  0  0  0  0  0  0
  150.9015  140.1007  154.9815 N   0  0  0  0  0  0  0  0  0  0  0  0
  150.3953  138.9642  154.4585 C   0  0  0  0  0  0  0  0  0  0  0  0
  146.8917  132.2579  155.4803 H   0  0  0  0  0  0  0  0  0  0  0  0
  146.4576  133.9074  155.0521 H   0  0  0  0  0  0  0  0  0  0  0  0
  147.6914  133.6100  156.2710 H   0  0  0  0  0  0  0  0  0  0  0  0
  149.9996  132.6810  155.5737 H   0  0  0  0  0  0  0  0  0  0  0  0
  150.3014  132.2489  153.8947 H   0  0  0  0  0  0  0  0  0  0  0  0
  149.1630  131.3161  154.8458 H   0  0  0  0  0  0  0  0  0  0  0  0
  147.3101  131.7738  153.0218 H   0  0  0  0  0  0  0  0  0  0  0  0
  148.4819  132.6934  152.0995 H   0  0  0  0  0  0  0  0  0  0  0  0
  146.9547  133.4340  152.5644 H   0  0  0  0  0  0  0  0  0  0  0  0
  148.8087  135.0204  153.1550 H   0  0  0  0  0  0  0  0  0  0  0  0
  149.4071  136.8031  153.5622 H   0  0  0  0  0  0  0  0  0  0  0  0
  150.3552  136.9601  157.2239 H   0  0  0  0  0  0  0  0  0  0  0  0
  151.2717  139.0472  158.1874 H   0  0  0  0  0  0  0  0  0  0  0  0
  150.8621  142.8577  155.7302 H   0  0  0  0  0  0  0  0  0  0  0  0
  149.8469  142.2247  157.0274 H   0  0  0  0  0  0  0  0  0  0  0  0
  152.1130  144.1844  157.2131 H   0  0  0  0  0  0  0  0  0  0  0  0
  150.6684  144.0738  158.2159 H   0  0  0  0  0  0  0  0  0  0  0  0
  153.3085  142.9538  158.7082 H   0  0  0  0  0  0  0  0  0  0  0  0
  151.9050  142.7774  159.7590 H   0  0  0  0  0  0  0  0  0  0  0  0
  151.3288  140.7049  158.8335 H   0  0  0  0  0  0  0  0  0  0  0  0
  153.0322  140.6455  158.3769 H   0  0  0  0  0  0  0  0  0  0  0  0
  150.1716  138.9903  153.4017 H   0  0  0  0  0  0  0  0  0  0  0  0
  1  2  1  0  0  0  0
  1 20  1  0  0  0  0
  1 21  1  0  0  0  0
  1 22  1  0  0  0  0
  2  3  1  0  0  0  0
  2  4  1  0  0  0  0
  2  5  1  0  0  0  0
  3 23  1  0  0  0  0
  3 24  1  0  0  0  0
  3 25  1  0  0  0  0
  4 26  1  0  0  0  0
  4 27  1  0  0  0  0
  4 28  1  0  0  0  0
  5  6  1  0  0  0  0
  5 29  1  0  0  0  0
  6  7  2  0  0  0  0
  6  8  1  0  0  0  0
  8  9  1  0  0  0  0
  8 30  1  0  0  0  0
  9 19  1  0  0  0  0
  9 10  2  0  0  0  0
 10 11  1  0  0  0  0
 10 31  1  0  0  0  0
 11 12  2  0  0  0  0
 11 32  1  0  0  0  0
 12 13  1  0  0  0  0
 12 18  1  0  0  0  0
 13 17  1  0  0  0  0
 13 14  1  0  0  0  0
 14 15  1  0  0  0  0
 14 33  1  0  0  0  0
 14 34  1  0  0  0  0
 15 16  1  0  0  0  0
 15 35  1  0  0  0  0
 15 36  1  0  0  0  0
 16 17  1  0  0  0  0
 16 37  1  0  0  0  0
 16 38  1  0  0  0  0
 17 39  1  0  0  0  0
 17 40  1  0  0  0  0
 18 19  2  0  0  0  0
 19 41  1  0  0  0  0
M  END
> <s_m_source_file>
AV-unprocessed.smi

> <i_m_source_file_index>
2726

> <i_lp_mmshare_version>
43012

> <i_f3d_flags>
0

> <s_epik_input>
W0NIM11DKFtDSDNdKShbQ0gzXSlbTkhdQyg9TylbTkhdYzFbY0hdW2NIXWMobltjSF0xKU4yW0NIMl1bQ0gyXVtDSDJdW0NIMl0y

> <s_epik_cmdline>
J2VwaWtfcHl0aG9uJywgJy1waCcsICc3LjAnLCAnLXRuJywgJzgnLCAnLW1hJywgJzIwMCcsICctbWV0YWxfYmluZGluZycsICctaW1hZScsICc8aW5maWxlLm1hZT4nLCAnLW9tYWUnLCAnPG91dGZpbGUubWFlPic=

> <r_lp_tautomer_probability>
1

> <r_epik_Ionization_Penalty>
0.105331

> <r_epik_Ionization_Penalty_Charging>
0

> <r_epik_Ionization_Penalty_Neutral>
0.105331

> <r_epik_State_Penalty>
0.0946433

> <r_epik_Charging_Adjusted_Penalty>
0.0946433

> <i_epik_Tot_Q>
0

> <i_epik_Tot_abs_Q>
0

> <r_epik_Metal_State_Penalty>
0.0802816

> <b_epik_Metal_Only>
0

> <s_lp_Force_Field>
OPLS_2005

> <r_lp_Energy>
34.5725

> <b_lp_Chiralities_Consistent>
1

> <s_lp_Variant>
AV-unprocessed.smi:2726-1

> <Gold.Version>
5.8.1

> <Gold.Id.Protein>
6NUR|6NUR_protein|mol2

> <Gold.PLP.Fitness>
39.3970

> <Gold.PLP.PLP>
-29.2504

> <Gold.PLP.part.hbond>
-3.0000

> <Gold.PLP.part.metal>
0.0000

> <Gold.PLP.part.buried>
-1.8025

> <Gold.PLP.part.nonpolar>
-24.4682

> <Gold.PLP.part.repulsive>
0.1275

> <Gold.PLP.ligand.clash>
1.7151

> <Gold.PLP.ligand.torsion>
0.0734

> <Gold.PLP.Chemscore.Hbond>
3.0000

> <Gold.PLP.Chemscore.CHOScore>
0.9959

> <Gold.PLP.Chemscore.Metal>
0.0000

> <Gold.Chemscore.Hbonds>
donor molecule, donor type, donor heavy atom, donor atom, acceptor molecule, acceptor atom, score
      L1  H     5    29       P1  7948  1.00
      L1  H     8    30       P1  7948  1.00
      P1  H  7989  7998       L1    18  1.00
      L1  C    19    41       P1  7957  1.00

> <Gold.PLP.Chemscore.Internal.Correction>
0.0209

> <Gold.Rescore>
     Score         DG    S(hbond)    S(metal)    S(lipo)     H(rot)  DE(clash)    DE(int)     intcor
     16.70     -19.10       2.46        0.00      71.79       1.17       0.04       2.36       ----

> <Gold.Chemscore.Fitness>
16.7015

> <Gold.Chemscore.DG>
-19.1008

> <Gold.Chemscore.ZeroCoef>
-5.4800

> <Gold.Chemscore.Hbond>
2.4609

> <Gold.Chemscore.Metal>
0.0000

> <Gold.Chemscore.Lipo>
71.7880

> <Gold.Chemscore.Internal_Hbond>
0.0000

> <Gold.Chemscore.DEClash>
0.0408

> <Gold.Chemscore.DEInternal>
2.3585

> <Gold.Chemscore.Rot>
1.1710

> <Gold.Chemscore.Internal.Correction>
   9.000000E+99

> <Gold.Chemscore.Hbonds>
donor molecule, donor type, donor heavy atom, donor atom, acceptor molecule, acceptor atom, score
      L1  H     5    29       P1  7948  0.39
      L1  H     8    30       P1  7948  0.88
      P1  H  7989  7998       L1    18  0.30

> <Gold.Chemscore.Hbond.Weighted>
-8.2194

> <Gold.Chemscore.Metal.Weighted>
-0.0000

> <Gold.Chemscore.Lipo.Weighted>
-8.3992

> <Gold.Chemscore.Internal_Hbond.Weighted>
0.0000

> <Gold.Chemscore.DEClash.Weighted>
0.0408

> <Gold.Chemscore.DEInternal.Weighted>
2.3585

> <Gold.Chemscore.Rot.Weighted>
2.9978

> <Gold.Chemscore.Internal.Correction.Weighted>
   9.000000E+99

> <Gold.Protein.RotatedTorsions>
[ 6907 6896 6895 6894 ] final  165.58 input  -60.11 | X-H torsion
[ 7974 7965 7964 7962 ] final -157.55 input  175.53 | X-H torsion
[ 8008 7997 7996 7995 ] final  -97.75 input   59.86 | X-H torsion
[ 10167 10162 10161 10158 ] final   96.56 input  -65.29 | X-H torsion
[ 10718 10713 10712 10709 ] final  -83.38 input   66.30 | X-H torsion
[ 10763 10752 10751 10750 ] final  -35.34 input  -60.55 | X-H torsion
[ 11005 11000 10999 10996 ] final   72.24 input  -57.11 | X-H torsion

> <Gold.Protein.ActiveResidues>
 VAL166  LYS551  ARG553  GLY616  TRP617  ASP618  TYR619  PRO620  LYS621  CYS622 
 ASP623  PHE694  ASN695  SER759  ASP760  ASP761  ALA762  ILE779  LEU786  VAL792 
 PHE793  MET794  SER795  GLU796  ALA797  LYS798  CYS799  TRP800  GLU811  SER814 

> <Gold.Protein.RotatedAtoms>
  151.8923  133.3519  159.3802 H   0  0  0  0  0  0  0  0  0  0  0  0  # atno 6907 bound_to 6896
  150.7100  134.4912  159.5526 H   0  0  0  0  0  0  0  0  0  0  0  0  # atno 6908 bound_to 6896
  152.2484  134.8158  160.0500 H   0  0  0  0  0  0  0  0  0  0  0  0  # atno 6909 bound_to 6896
  144.7543  140.3953  143.6024 H   0  0  0  0  0  0  0  0  0  0  0  0  # atno 7974 bound_to 7965
  154.7920  140.0460  157.1208 H   0  0  0  0  0  0  0  0  0  0  0  0  # atno 8008 bound_to 7997
  154.9580  140.3073  155.5024 H   0  0  0  0  0  0  0  0  0  0  0  0  # atno 8009 bound_to 7997
  156.2951  140.2276  156.4663 H   0  0  0  0  0  0  0  0  0  0  0  0  # atno 8010 bound_to 7997
  139.7883  144.6862  150.9927 H   0  0  0  0  0  0  0  0  0  0  0  0  # atno 10167 bound_to 10162
  156.0019  130.4664  150.4249 H   0  0  0  0  0  0  0  0  0  0  0  0  # atno 10718 bound_to 10713
  153.8616  135.6839  153.4782 H   0  0  0  0  0  0  0  0  0  0  0  0  # atno 10763 bound_to 10752
  153.1339  135.4686  154.9389 H   0  0  0  0  0  0  0  0  0  0  0  0  # atno 10764 bound_to 10752
  154.7756  135.3252  154.8048 H   0  0  0  0  0  0  0  0  0  0  0  0  # atno 10765 bound_to 10752
  139.9501  134.7242  156.0883 H   0  0  0  0  0  0  0  0  0  0  0  0  # atno 11005 bound_to 11000
  145.6833  139.1623  143.2688 LP  0  0  0  0  0  0  0  0  0  0  0  0  # atno 17320 bound_to 7965
  146.1534  140.6892  142.9311 LP  0  0  0  0  0  0  0  0  0  0  0  0  # atno 17321 bound_to 7965
  140.7820  143.4408  151.0554 LP  0  0  0  0  0  0  0  0  0  0  0  0  # atno 17342 bound_to 10162
  139.8086  143.7983  152.3169 LP  0  0  0  0  0  0  0  0  0  0  0  0  # atno 17343 bound_to 10162
  157.2302  131.0502  151.2496 LP  0  0  0  0  0  0  0  0  0  0  0  0  # atno 17370 bound_to 10713
  157.3718  130.7185  149.6570 LP  0  0  0  0  0  0  0  0  0  0  0  0  # atno 17371 bound_to 10713
  141.1162  133.6627  156.3100 LP  0  0  0  0  0  0  0  0  0  0  0  0  # atno 17394 bound_to 11000
  140.5739  134.5813  157.5464 LP  0  0  0  0  0  0  0  0  0  0  0  0  # atno 17395 bound_to 11000

$$$$
