AV-unprocessed.smi:39|AV-procd|sdf|358|dock7
  -GOLD-   2262016193D 1   1.00000     0.00000
 Structure written by MMmdl.
 32 33  0  0  0  0  0  0  0  0  3 V2000
  152.6548  143.3180  160.4210 C   0  0  0  0  0  0  0  0  0  0  0  0
  152.0500  142.6867  159.1778 C   0  0  0  0  0  0  0  0  0  0  0  0
  152.1900  141.3674  158.8898 C   0  0  0  0  0  0  0  0  0  0  0  0
  151.6457  140.7623  157.7648 N   0  0  0  0  0  0  0  0  0  0  0  0
  151.8192  139.2829  157.5055 C   0  0  2  0  0  0  0  0  0  0  0  0
  150.5263  138.5260  157.8319 C   0  0  0  0  0  0  0  0  0  0  0  0
  150.8741  137.8697  159.1587 C   0  0  1  0  0  0  0  0  0  0  0  0
  150.0668  136.6800  159.4764 N   0  0  0  0  0  0  0  0  0  0  0  0
  148.9555  136.8442  160.0008 N   0  3  0  0  0  0  0  0  0  0  0  0
  147.9966  137.0118  160.5901 N   0  5  0  0  0  0  0  0  0  0  0  0
  152.3794  137.6124  158.9996 C   0  0  2  0  0  0  0  0  0  0  0  0
  153.1195  137.4462  160.3356 C   0  0  0  0  0  0  0  0  0  0  0  0
  154.5067  137.3237  160.1071 O   0  0  0  0  0  0  0  0  0  0  0  0
  152.8278  138.7927  158.3404 O   0  0  0  0  0  0  0  0  0  0  0  0
  150.8785  141.5346  156.8680 C   0  0  0  0  0  0  0  0  0  0  0  0
  150.3361  141.0616  155.8701 O   0  0  0  0  0  0  0  0  0  0  0  0
  150.7404  142.8903  157.1595 N   0  0  0  0  0  0  0  0  0  0  0  0
  151.2832  143.5434  158.2689 C   0  0  0  0  0  0  0  0  0  0  0  0
  151.0924  144.7495  158.4170 O   0  0  0  0  0  0  0  0  0  0  0  0
  152.1388  139.1700  156.4682 H   0  0  0  0  0  0  0  0  0  0  0  0
  150.7329  138.6120  159.9455 H   0  0  0  0  0  0  0  0  0  0  0  0
  152.5544  136.7583  158.3425 H   0  0  0  0  0  0  0  0  0  0  0  0
  150.1971  143.4476  156.5165 H   0  0  0  0  0  0  0  0  0  0  0  0
  153.2058  142.5903  161.0173 H   0  0  0  0  0  0  0  0  0  0  0  0
  151.8725  143.7425  161.0513 H   0  0  0  0  0  0  0  0  0  0  0  0
  153.3450  144.1166  160.1465 H   0  0  0  0  0  0  0  0  0  0  0  0
  152.7535  140.7587  159.5814 H   0  0  0  0  0  0  0  0  0  0  0  0
  149.6616  139.1890  157.8860 H   0  0  0  0  0  0  0  0  0  0  0  0
  150.3545  137.7922  157.0435 H   0  0  0  0  0  0  0  0  0  0  0  0
  152.9155  138.2787  161.0096 H   0  0  0  0  0  0  0  0  0  0  0  0
  152.7908  136.5353  160.8366 H   0  0  0  0  0  0  0  0  0  0  0  0
  154.7422  137.8792  159.3796 H   0  0  0  0  0  0  0  0  0  0  0  0
  1  2  1  0  0  0  0
  1 24  1  0  0  0  0
  1 25  1  0  0  0  0
  1 26  1  0  0  0  0
  2 18  1  0  0  0  0
  2  3  2  0  0  0  0
  3  4  1  0  0  0  0
  3 27  1  0  0  0  0
  4  5  1  0  0  0  0
  4 15  1  0  0  0  0
  5 20  1  0  0  0  0
  5 14  1  0  0  0  0
  5  6  1  0  0  0  0
  6  7  1  0  0  0  0
  6 28  1  0  0  0  0
  6 29  1  0  0  0  0
  7 21  1  0  0  0  0
  7  8  1  0  0  0  0
  7 11  1  0  0  0  0
  8  9  2  0  0  0  0
  9 10  2  0  0  0  0
 11 22  1  0  0  0  0
 11 12  1  0  0  0  0
 11 14  1  0  0  0  0
 12 13  1  0  0  0  0
 12 30  1  0  0  0  0
 12 31  1  0  0  0  0
 13 32  1  0  0  0  0
 15 16  2  0  0  0  0
 15 17  1  0  0  0  0
 17 23  1  0  0  0  0
 17 18  1  0  0  0  0
 18 19  2  0  0  0  0
M  CHG  1   9   1
M  CHG  1  10  -1
M  END
> <s_m_source_file>
AV-unprocessed.smi

> <i_m_source_file_index>
39

> <i_lp_mmshare_version>
43012

> <i_f3d_flags>
0

> <s_epik_input>
Tz1jMVtuSF1jKD1PKW4oW2NIXWMxW0NIM10pW0NASF0yW0NIMl1bQ0BIXShOPVtOK109W04tXSlbQ0BIXShPMilbQ0gyXVtPSF0=

> <s_epik_cmdline>
J2VwaWtfcHl0aG9uJywgJy1waCcsICc3LjAnLCAnLXRuJywgJzgnLCAnLW1hJywgJzIwMCcsICctbWV0YWxfYmluZGluZycsICctaW1hZScsICc8aW5maWxlLm1hZT4nLCAnLW9tYWUnLCAnPG91dGZpbGUubWFlPic=

> <r_lp_tautomer_probability>
0.999537

> <r_epik_Ionization_Penalty>
0.00127512

> <r_epik_Ionization_Penalty_Charging>
0.00127507

> <r_epik_Ionization_Penalty_Neutral>
5.43433e-08

> <r_epik_State_Penalty>
0.000844892

> <r_epik_Charging_Adjusted_Penalty>
0.00211996

> <i_epik_Tot_Q>
0

> <i_epik_Tot_abs_Q>
2

> <r_epik_Metal_State_Penalty>
0.680636

> <b_epik_Metal_Only>
0

> <s_epik_Chemistry_Notes>
This compound contains an acetal/aminal-like group ( X-CH(R)-Y where X, Y are N, S, or O) that may be acid/base labile, releasing an aldehyde.

> <s_lp_Force_Field>
OPLS_2005

> <r_lp_Energy>
25.9236

> <b_lp_Chiralities_Consistent>
1

> <s_lp_Variant>
AV-unprocessed.smi:39-8

> <Gold.Version>
5.8.1

> <Gold.Id.Protein>
6NUR|6NUR_protein|mol2

> <Gold.PLP.Fitness>
39.1691

> <Gold.PLP.PLP>
-30.6786

> <Gold.PLP.part.hbond>
-5.0000

> <Gold.PLP.part.metal>
0.0000

> <Gold.PLP.part.buried>
-6.0128

> <Gold.PLP.part.nonpolar>
-20.3150

> <Gold.PLP.part.repulsive>
0.2191

> <Gold.PLP.ligand.clash>
0.0000

> <Gold.PLP.ligand.torsion>
0.6677

> <Gold.PLP.Chemscore.Hbond>
3.2686

> <Gold.PLP.Chemscore.CHOScore>
0.0000

> <Gold.PLP.Chemscore.Metal>
0.0000

> <Gold.Chemscore.Hbonds>
donor molecule, donor type, donor heavy atom, donor atom, acceptor molecule, acceptor atom, score
      L1  H    17    23       P1  8028  1.00
      P1  H  6896  6908       L1     8  1.00
      P1  H  6931  6943       L1    10  0.34
      P1  H  6934  6947       L1    10  0.48

> <Gold.PLP.Chemscore.Internal.Correction>
0.0202

> <Gold.Rescore>
     Score         DG    S(hbond)    S(metal)    S(lipo)     H(rot)  DE(clash)    DE(int)     intcor
     12.64     -12.98       2.61        0.00      49.85       2.75       0.05       0.30       ----

> <Gold.Chemscore.Fitness>
12.6372

> <Gold.Chemscore.DG>
-12.9841

> <Gold.Chemscore.ZeroCoef>
-5.4800

> <Gold.Chemscore.Hbond>
2.6100

> <Gold.Chemscore.Metal>
0.0000

> <Gold.Chemscore.Lipo>
49.8521

> <Gold.Chemscore.Internal_Hbond>
0.0000

> <Gold.Chemscore.DEClash>
0.0456

> <Gold.Chemscore.DEInternal>
0.3013

> <Gold.Chemscore.Rot>
2.7524

> <Gold.Chemscore.Internal.Correction>
   9.000000E+99

> <Gold.Chemscore.Hbonds>
donor molecule, donor type, donor heavy atom, donor atom, acceptor molecule, acceptor atom, score
      L1  H    17    23       P1  8028  0.95
      P1  H  6896  6908       L1     8  0.90
      P1  H  6931  6943       L1    10  0.01
      P1  H  6934  6947       L1    10  0.47

> <Gold.Chemscore.Hbond.Weighted>
-8.7175

> <Gold.Chemscore.Metal.Weighted>
-0.0000

> <Gold.Chemscore.Lipo.Weighted>
-5.8327

> <Gold.Chemscore.Internal_Hbond.Weighted>
0.0000

> <Gold.Chemscore.DEClash.Weighted>
0.0456

> <Gold.Chemscore.DEInternal.Weighted>
0.3013

> <Gold.Chemscore.Rot.Weighted>
7.0461

> <Gold.Chemscore.Internal.Correction.Weighted>
   9.000000E+99

> <Gold.Protein.RotatedTorsions>
[ 6907 6896 6895 6894 ] final -164.09 input  -60.11 | X-H torsion
[ 7974 7965 7964 7962 ] final -144.95 input  175.53 | X-H torsion
[ 8008 7997 7996 7995 ] final   13.72 input   59.86 | X-H torsion
[ 10167 10162 10161 10158 ] final  161.10 input  -65.29 | X-H torsion
[ 10718 10713 10712 10709 ] final   98.11 input   66.30 | X-H torsion
[ 10763 10752 10751 10750 ] final  103.23 input  -60.55 | X-H torsion
[ 11005 11000 10999 10996 ] final    9.13 input  -57.11 | X-H torsion

> <Gold.Protein.ActiveResidues>
 VAL166  LYS551  ARG553  GLY616  TRP617  ASP618  TYR619  PRO620  LYS621  CYS622 
 ASP623  PHE694  ASN695  SER759  ASP760  ASP761  ALA762  ILE779  LEU786  VAL792 
 PHE793  MET794  SER795  GLU796  ALA797  LYS798  CYS799  TRP800  GLU811  SER814 

> <Gold.Protein.RotatedAtoms>
  151.4063  133.3741  159.2738 H   0  0  0  0  0  0  0  0  0  0  0  0  # atno 6907 bound_to 6896
  150.9396  134.8807  159.7614 H   0  0  0  0  0  0  0  0  0  0  0  0  # atno 6908 bound_to 6896
  152.5065  134.4013  159.9469 H   0  0  0  0  0  0  0  0  0  0  0  0  # atno 6909 bound_to 6896
  144.8262  140.5646  143.5546 H   0  0  0  0  0  0  0  0  0  0  0  0  # atno 7974 bound_to 7965
  154.8385  140.2911  155.5675 H   0  0  0  0  0  0  0  0  0  0  0  0  # atno 8008 bound_to 7997
  156.3010  140.2518  156.3254 H   0  0  0  0  0  0  0  0  0  0  0  0  # atno 8009 bound_to 7997
  154.9152  140.0387  157.1957 H   0  0  0  0  0  0  0  0  0  0  0  0  # atno 8010 bound_to 7997
  139.4846  144.4569  151.8756 H   0  0  0  0  0  0  0  0  0  0  0  0  # atno 10167 bound_to 10162
  157.6901  131.0630  150.4746 H   0  0  0  0  0  0  0  0  0  0  0  0  # atno 10718 bound_to 10713
  153.3499  135.3984  155.1638 H   0  0  0  0  0  0  0  0  0  0  0  0  # atno 10763 bound_to 10752
  154.8660  135.3654  154.5235 H   0  0  0  0  0  0  0  0  0  0  0  0  # atno 10764 bound_to 10752
  153.5686  135.7079  153.5574 H   0  0  0  0  0  0  0  0  0  0  0  0  # atno 10765 bound_to 10752
  140.5292  134.0483  155.7868 H   0  0  0  0  0  0  0  0  0  0  0  0  # atno 11005 bound_to 11000
  145.4996  139.1484  143.3664 LP  0  0  0  0  0  0  0  0  0  0  0  0  # atno 17320 bound_to 7965
  146.2567  140.5136  142.8871 LP  0  0  0  0  0  0  0  0  0  0  0  0  # atno 17321 bound_to 7965
  140.4030  144.2469  150.5892 LP  0  0  0  0  0  0  0  0  0  0  0  0  # atno 17342 bound_to 10162
  140.5039  143.2310  151.8637 LP  0  0  0  0  0  0  0  0  0  0  0  0  # atno 17343 bound_to 10162
  156.5081  130.4133  149.6316 LP  0  0  0  0  0  0  0  0  0  0  0  0  # atno 17370 bound_to 10713
  156.3265  130.7309  151.2230 LP  0  0  0  0  0  0  0  0  0  0  0  0  # atno 17371 bound_to 10713
  141.1291  133.9333  157.2573 LP  0  0  0  0  0  0  0  0  0  0  0  0  # atno 17394 bound_to 11000
  139.9563  135.0164  156.9138 LP  0  0  0  0  0  0  0  0  0  0  0  0  # atno 17395 bound_to 11000

$$$$
