AV-unprocessed.smi:1406|AV-procd|sdf|5710|dock9
  -GOLD-   22720 5343D 1   1.00000     0.00000
 Structure written by MMmdl.
 41 43  0  0  0  0  0  0  0  0  2 V2000
  152.7178  138.4219  154.8021 C   0  0  0  0  0  0  0  0  0  0  0  0
  152.5911  138.7001  156.3138 C   0  0  1  0  0  0  0  0  0  0  0  0
  151.6900  139.9063  156.6321 C   0  0  0  0  0  0  0  0  0  0  0  0
  151.0602  140.4796  155.7425 O   0  0  0  0  0  0  0  0  0  0  0  0
  151.6358  140.2840  157.9189 N   0  0  0  0  0  0  0  0  0  0  0  0
  150.7912  141.3532  158.4375 C   0  0  2  0  0  0  0  0  0  0  0  0
  149.2852  141.1013  158.2703 C   0  0  0  0  0  0  0  0  0  0  0  0
  148.6787  142.4775  157.9291 C   0  0  0  0  0  0  0  0  0  0  0  0
  149.7890  143.4576  157.9727 N   0  3  1  0  0  0  0  0  0  0  0  0
  149.8313  144.1987  159.2637 C   0  0  0  0  0  0  0  0  0  0  0  0
  151.1095  145.0347  159.4086 C   0  0  0  0  0  0  0  0  0  0  0  0
  152.3440  144.1367  159.2952 C   0  0  0  0  0  0  0  0  0  0  0  0
  152.3273  143.4138  157.9442 C   0  0  0  0  0  0  0  0  0  0  0  0
  151.0044  142.6624  157.6738 C   0  0  1  0  0  0  0  0  0  0  0  0
  152.1412  137.5200  157.0436 N   0  0  0  0  0  0  0  0  0  0  0  0
  151.9738  137.3327  158.3546 C   0  0  0  0  0  0  0  0  0  0  0  0
  151.4965  136.1375  158.6712 N   0  0  0  0  0  0  0  0  0  0  0  0
  151.3826  135.5986  157.4211 C   0  0  0  0  0  0  0  0  0  0  0  0
  151.7450  136.3878  156.4101 N   0  0  0  0  0  0  0  0  0  0  0  0
  153.1287  139.2839  154.2751 H   0  0  0  0  0  0  0  0  0  0  0  0
  151.7543  138.1845  154.3489 H   0  0  0  0  0  0  0  0  0  0  0  0
  153.3854  137.5799  154.6168 H   0  0  0  0  0  0  0  0  0  0  0  0
  153.5877  138.9458  156.6839 H   0  0  0  0  0  0  0  0  0  0  0  0
  152.1861  139.7663  158.5888 H   0  0  0  0  0  0  0  0  0  0  0  0
  151.0129  141.5128  159.4944 H   0  0  0  0  0  0  0  0  0  0  0  0
  149.0855  140.3979  157.4606 H   0  0  0  0  0  0  0  0  0  0  0  0
  148.8559  140.6828  159.1812 H   0  0  0  0  0  0  0  0  0  0  0  0
  148.2775  142.4586  156.9151 H   0  0  0  0  0  0  0  0  0  0  0  0
  147.8572  142.7464  158.5949 H   0  0  0  0  0  0  0  0  0  0  0  0
  148.9563  144.8464  159.3292 H   0  0  0  0  0  0  0  0  0  0  0  0
  149.7621  143.4984  160.0978 H   0  0  0  0  0  0  0  0  0  0  0  0
  151.1383  145.8101  158.6420 H   0  0  0  0  0  0  0  0  0  0  0  0
  151.1108  145.5480  160.3707 H   0  0  0  0  0  0  0  0  0  0  0  0
  153.2527  144.7317  159.3902 H   0  0  0  0  0  0  0  0  0  0  0  0
  152.3588  143.4134  160.1114 H   0  0  0  0  0  0  0  0  0  0  0  0
  152.4745  144.1529  157.1555 H   0  0  0  0  0  0  0  0  0  0  0  0
  153.1733  142.7289  157.8732 H   0  0  0  0  0  0  0  0  0  0  0  0
  150.9708  142.4340  156.6063 H   0  0  0  0  0  0  0  0  0  0  0  0
  152.1977  138.0889  159.0926 H   0  0  0  0  0  0  0  0  0  0  0  0
  151.0142  134.5975  157.2505 H   0  0  0  0  0  0  0  0  0  0  0  0
  149.6615  144.1416  157.2404 H   0  0  0  0  0  0  0  0  0  0  0  0
  1  2  1  0  0  0  0
  1 20  1  0  0  0  0
  1 21  1  0  0  0  0
  1 22  1  0  0  0  0
  2  3  1  0  0  0  0
  2 15  1  0  0  0  0
  2 23  1  0  0  0  0
  3  4  2  0  0  0  0
  3  5  1  0  0  0  0
  5  6  1  0  0  0  0
  5 24  1  0  0  0  0
  6 14  1  0  0  0  0
  6  7  1  0  0  0  0
  6 25  1  0  0  0  0
  7  8  1  0  0  0  0
  7 26  1  0  0  0  0
  7 27  1  0  0  0  0
  8  9  1  0  0  0  0
  8 28  1  0  0  0  0
  8 29  1  0  0  0  0
  9 14  1  0  0  0  0
  9 10  1  0  0  0  0
  9 41  1  0  0  0  0
 10 11  1  0  0  0  0
 10 30  1  0  0  0  0
 10 31  1  0  0  0  0
 11 12  1  0  0  0  0
 11 32  1  0  0  0  0
 11 33  1  0  0  0  0
 12 13  1  0  0  0  0
 12 34  1  0  0  0  0
 12 35  1  0  0  0  0
 13 14  1  0  0  0  0
 13 36  1  0  0  0  0
 13 37  1  0  0  0  0
 14 38  1  0  0  0  0
 15 19  1  0  0  0  0
 15 16  1  0  0  0  0
 16 17  2  0  0  0  0
 16 39  1  0  0  0  0
 17 18  1  0  0  0  0
 18 19  2  0  0  0  0
 18 40  1  0  0  0  0
M  CHG  1   9   1
M  END
> <s_m_source_file>
AV-unprocessed.smi

> <i_m_source_file_index>
1406

> <i_lp_mmshare_version>
43012

> <i_f3d_flags>
0

> <s_epik_input>
bjFbY0hdbltjSF1uMVtDQEhdKFtDSDNdKUMoPU8pW05IXVtDQEhdKFtDSDJdW0NIMl0yKVtDQEBIXShOMjMpW0NIMl1bQ0gyXVtDSDJdW0NIMl0z

> <s_epik_cmdline>
J2VwaWtfcHl0aG9uJywgJy1waCcsICc3LjAnLCAnLXRuJywgJzgnLCAnLW1hJywgJzIwMCcsICctbWV0YWxfYmluZGluZycsICctaW1hZScsICc8aW5maWxlLm1hZT4nLCAnLW9tYWUnLCAnPG91dGZpbGUubWFlPic=

> <r_lp_tautomer_probability>
1

> <r_epik_Ionization_Penalty>
0.00197066

> <r_epik_Ionization_Penalty_Charging>
0.00196223

> <r_epik_Ionization_Penalty_Neutral>
8.43107e-06

> <r_epik_State_Penalty>
0.00133866

> <r_epik_Charging_Adjusted_Penalty>
0.00330089

> <i_epik_Tot_Q>
1

> <i_epik_Tot_abs_Q>
1

> <r_epik_Metal_State_Penalty>
-0

> <b_epik_Metal_Only>
0

> <s_lp_Force_Field>
OPLS_2005

> <r_lp_Energy>
42.7017

> <b_lp_Chiralities_Consistent>
1

> <s_lp_Variant>
AV-unprocessed.smi:1406-2

> <Gold.Version>
5.8.1

> <Gold.Id.Protein>
6NUR|6NUR_protein|mol2

> <Gold.PLP.Fitness>
44.3029

> <Gold.PLP.PLP>
-31.8103

> <Gold.PLP.part.hbond>
-4.6325

> <Gold.PLP.part.metal>
0.0000

> <Gold.PLP.part.buried>
-4.0127

> <Gold.PLP.part.nonpolar>
-22.9849

> <Gold.PLP.part.repulsive>
0.1689

> <Gold.PLP.ligand.clash>
0.0000

> <Gold.PLP.ligand.torsion>
0.0995

> <Gold.PLP.Chemscore.Hbond>
4.1956

> <Gold.PLP.Chemscore.CHOScore>
0.0000

> <Gold.PLP.Chemscore.Metal>
0.0000

> <Gold.Chemscore.Hbonds>
donor molecule, donor type, donor heavy atom, donor atom, acceptor molecule, acceptor atom, score
      L1  H     9    41       P1  8028  2.00
      P1  H  6896  6908       L1    17  0.43
      P1  H  7989  7998       L1     4  0.20
      P1  H 10752 10765       L1    19  0.62

> <Gold.PLP.Chemscore.Internal.Correction>
0.1048

> <Gold.Rescore>
     Score         DG    S(hbond)    S(metal)    S(lipo)     H(rot)  DE(clash)    DE(int)     intcor
     14.98     -19.20       2.82        0.00      77.96       1.89       1.49       2.72       ----

> <Gold.Chemscore.Fitness>
14.9838

> <Gold.Chemscore.DG>
-19.1989

> <Gold.Chemscore.ZeroCoef>
-5.4800

> <Gold.Chemscore.Hbond>
2.8225

> <Gold.Chemscore.Metal>
0.0000

> <Gold.Chemscore.Lipo>
77.9597

> <Gold.Chemscore.Internal_Hbond>
0.0000

> <Gold.Chemscore.DEClash>
1.4902

> <Gold.Chemscore.DEInternal>
2.7249

> <Gold.Chemscore.Rot>
1.8865

> <Gold.Chemscore.Internal.Correction>
   9.000000E+99

> <Gold.Chemscore.Hbonds>
donor molecule, donor type, donor heavy atom, donor atom, acceptor molecule, acceptor atom, score
      L1  H     9    41       P1  8028  0.43
      P1  H  6896  6908       L1    17  0.26
      P1  H  7989  7998       L1     4  0.20
      P1  H 10752 10765       L1    19  0.58

> <Gold.Chemscore.Hbond.Weighted>
-9.4272

> <Gold.Chemscore.Metal.Weighted>
-0.0000

> <Gold.Chemscore.Lipo.Weighted>
-9.1213

> <Gold.Chemscore.Internal_Hbond.Weighted>
0.0000

> <Gold.Chemscore.DEClash.Weighted>
1.4902

> <Gold.Chemscore.DEInternal.Weighted>
2.7249

> <Gold.Chemscore.Rot.Weighted>
4.8295

> <Gold.Chemscore.Internal.Correction.Weighted>
   9.000000E+99

> <Gold.Protein.RotatedTorsions>
[ 6907 6896 6895 6894 ] final -159.40 input  -60.11 | X-H torsion
[ 7974 7965 7964 7962 ] final  140.31 input  175.53 | X-H torsion
[ 8008 7997 7996 7995 ] final   25.21 input   59.86 | X-H torsion
[ 10167 10162 10161 10158 ] final  -44.61 input  -65.29 | X-H torsion
[ 10718 10713 10712 10709 ] final  159.57 input   66.30 | X-H torsion
[ 10763 10752 10751 10750 ] final -164.56 input  -60.55 | X-H torsion
[ 11005 11000 10999 10996 ] final   10.08 input  -57.11 | X-H torsion

> <Gold.Protein.ActiveResidues>
 VAL166  LYS551  ARG553  GLY616  TRP617  ASP618  TYR619  PRO620  LYS621  CYS622 
 ASP623  PHE694  ASN695  SER759  ASP760  ASP761  ALA762  ILE779  LEU786  VAL792 
 PHE793  MET794  SER795  GLU796  ALA797  LYS798  CYS799  TRP800  GLU811  SER814 

> <Gold.Protein.RotatedAtoms>
  151.3330  133.3993  159.2664 H   0  0  0  0  0  0  0  0  0  0  0  0  # atno 6907 bound_to 6896
  150.9940  134.9269  159.7926 H   0  0  0  0  0  0  0  0  0  0  0  0  # atno 6908 bound_to 6896
  152.5256  134.3295  159.9230 H   0  0  0  0  0  0  0  0  0  0  0  0  # atno 6909 bound_to 6896
  144.9198  139.5183  143.5669 H   0  0  0  0  0  0  0  0  0  0  0  0  # atno 7974 bound_to 7965
  155.0082  140.3133  155.4840 H   0  0  0  0  0  0  0  0  0  0  0  0  # atno 8008 bound_to 7997
  156.2913  140.2219  156.5137 H   0  0  0  0  0  0  0  0  0  0  0  0  # atno 8009 bound_to 7997
  154.7558  140.0463  157.0919 H   0  0  0  0  0  0  0  0  0  0  0  0  # atno 8010 bound_to 7997
  140.6890  143.2921  151.3520 H   0  0  0  0  0  0  0  0  0  0  0  0  # atno 10167 bound_to 10162
  157.1623  131.0590  151.2226 H   0  0  0  0  0  0  0  0  0  0  0  0  # atno 10718 bound_to 10713
  154.7016  135.2989  154.9332 H   0  0  0  0  0  0  0  0  0  0  0  0  # atno 10763 bound_to 10752
  154.0262  135.6676  153.4780 H   0  0  0  0  0  0  0  0  0  0  0  0  # atno 10764 bound_to 10752
  153.0686  135.5074  154.8164 H   0  0  0  0  0  0  0  0  0  0  0  0  # atno 10765 bound_to 10752
  140.5186  134.0582  155.7838 H   0  0  0  0  0  0  0  0  0  0  0  0  # atno 11005 bound_to 11000
  146.3199  139.8069  142.8954 LP  0  0  0  0  0  0  0  0  0  0  0  0  # atno 17320 bound_to 7965
  145.3315  141.0267  143.3443 LP  0  0  0  0  0  0  0  0  0  0  0  0  # atno 17321 bound_to 7965
  139.6275  144.0786  152.2447 LP  0  0  0  0  0  0  0  0  0  0  0  0  # atno 17342 bound_to 10162
  140.0250  144.6124  150.7535 LP  0  0  0  0  0  0  0  0  0  0  0  0  # atno 17343 bound_to 10162
  157.4121  130.7391  149.6847 LP  0  0  0  0  0  0  0  0  0  0  0  0  # atno 17370 bound_to 10713
  155.9752  130.4093  150.3869 LP  0  0  0  0  0  0  0  0  0  0  0  0  # atno 17371 bound_to 10713
  141.1347  133.9242  157.2460 LP  0  0  0  0  0  0  0  0  0  0  0  0  # atno 17394 bound_to 11000
  139.9619  135.0152  156.9283 LP  0  0  0  0  0  0  0  0  0  0  0  0  # atno 17395 bound_to 11000

$$$$
