AV-unprocessed.smi:2761|AV-procd|sdf|10634|dock5
  -GOLD-   2272015 83D 1   1.00000     0.00000
 Structure written by MMmdl.
 26 27  0  0  0  0  0  0  0  0  2 V2000
  151.3036  140.1683  154.9844 O   0  0  0  0  0  0  0  0  0  0  0  0
  150.4246  140.4656  155.7961 C   0  0  0  0  0  0  0  0  0  0  0  0
  150.6087  140.5833  157.1293 N   0  0  0  0  0  0  0  0  0  0  0  0
  151.7893  140.4146  157.8596 C   0  0  0  0  0  0  0  0  0  0  0  0
  151.8017  141.1954  159.0701 C   0  0  0  0  0  0  0  0  0  0  0  0
  152.8971  141.1095  159.8571 C   0  0  0  0  0  0  0  0  0  0  0  0
  154.0296  140.2541  159.4937 C   0  0  0  0  0  0  0  0  0  0  0  0
  155.0054  140.2066  160.2393 O   0  0  0  0  0  0  0  0  0  0  0  0
  153.9476  139.5388  158.3267 N   0  5  0  0  0  0  0  0  0  0  0  0
  152.7664  139.6421  157.4933 N   0  0  0  0  0  0  0  0  0  0  0  0
  148.9894  140.7062  155.3008 C   0  0  2  0  0  0  0  0  0  0  0  0
  148.3407  139.4345  154.7062 C   0  0  0  0  0  0  0  0  0  0  0  0
  147.0345  139.7451  154.2376 O   0  0  0  0  0  0  0  0  0  0  0  0
  147.0683  140.7523  153.2367 C   0  0  0  0  0  0  0  0  0  0  0  0
  147.6962  142.0226  153.8311 C   0  0  0  0  0  0  0  0  0  0  0  0
  149.0045  141.7173  154.2941 O   0  0  0  0  0  0  0  0  0  0  0  0
  149.7837  140.8316  157.6548 H   0  0  0  0  0  0  0  0  0  0  0  0
  150.9860  141.8366  159.3705 H   0  0  0  0  0  0  0  0  0  0  0  0
  152.9394  141.6819  160.7719 H   0  0  0  0  0  0  0  0  0  0  0  0
  148.4025  141.0554  156.1521 H   0  0  0  0  0  0  0  0  0  0  0  0
  148.9421  139.0280  153.8912 H   0  0  0  0  0  0  0  0  0  0  0  0
  148.2546  138.6538  155.4626 H   0  0  0  0  0  0  0  0  0  0  0  0
  147.6338  140.4061  152.3702 H   0  0  0  0  0  0  0  0  0  0  0  0
  146.0517  140.9537  152.8984 H   0  0  0  0  0  0  0  0  0  0  0  0
  147.7597  142.8044  153.0743 H   0  0  0  0  0  0  0  0  0  0  0  0
  147.0872  142.4126  154.6479 H   0  0  0  0  0  0  0  0  0  0  0  0
  1  2  2  0  0  0  0
  2  3  1  0  0  0  0
  2 11  1  0  0  0  0
  3 17  1  0  0  0  0
  3  4  1  0  0  0  0
  4  5  1  0  0  0  0
  4 10  2  0  0  0  0
  5  6  2  0  0  0  0
  5 18  1  0  0  0  0
  6  7  1  0  0  0  0
  6 19  1  0  0  0  0
  7  8  2  0  0  0  0
  7  9  1  0  0  0  0
  9 10  1  0  0  0  0
 11 16  1  0  0  0  0
 11 12  1  0  0  0  0
 11 20  1  0  0  0  0
 12 13  1  0  0  0  0
 12 21  1  0  0  0  0
 12 22  1  0  0  0  0
 13 14  1  0  0  0  0
 14 15  1  0  0  0  0
 14 23  1  0  0  0  0
 14 24  1  0  0  0  0
 15 16  1  0  0  0  0
 15 25  1  0  0  0  0
 15 26  1  0  0  0  0
M  CHG  1   9  -1
M  END
> <s_m_source_file>
AV-unprocessed.smi

> <i_m_source_file_index>
2761

> <i_lp_mmshare_version>
43012

> <i_f3d_flags>
0

> <s_epik_input>
TzFbQ0gyXVtDSDJdT1tDSDJdW0NASF0xQyg9TylbTkhdYzJbY0hdW2NIXWMoW09IXSlubjI=

> <s_epik_cmdline>
J2VwaWtfcHl0aG9uJywgJy1waCcsICc3LjAnLCAnLXRuJywgJzgnLCAnLW1hJywgJzIwMCcsICctbWV0YWxfYmluZGluZycsICctaW1hZScsICc8aW5maWxlLm1hZT4nLCAnLW9tYWUnLCAnPG91dGZpbGUubWFlPic=

> <r_lp_tautomer_probability>
1

> <r_epik_Ionization_Penalty>
4.21844

> <r_epik_Ionization_Penalty_Charging>
0.119247

> <r_epik_Ionization_Penalty_Neutral>
4.0992

> <r_epik_State_Penalty>
4.09486

> <r_epik_Charging_Adjusted_Penalty>
4.2141

> <i_epik_Tot_Q>
-1

> <i_epik_Tot_abs_Q>
1

> <r_epik_Metal_State_Penalty>
0.651223

> <b_epik_Metal_Only>
1

> <s_lp_Force_Field>
OPLS_2005

> <r_lp_Energy>
28.3559

> <b_lp_Chiralities_Consistent>
1

> <s_lp_Variant>
AV-unprocessed.smi:2761-3

> <Gold.Version>
5.8.1

> <Gold.Id.Protein>
6NUR|6NUR_protein|mol2

> <Gold.PLP.Fitness>
33.2399

> <Gold.PLP.PLP>
-24.5021

> <Gold.PLP.part.hbond>
-3.9350

> <Gold.PLP.part.metal>
0.0000

> <Gold.PLP.part.buried>
-3.9135

> <Gold.PLP.part.nonpolar>
-15.8981

> <Gold.PLP.part.repulsive>
0.3901

> <Gold.PLP.ligand.clash>
0.0000

> <Gold.PLP.ligand.torsion>
0.2130

> <Gold.PLP.Chemscore.Hbond>
3.0541

> <Gold.PLP.Chemscore.CHOScore>
0.0000

> <Gold.PLP.Chemscore.Metal>
0.0000

> <Gold.Chemscore.Hbonds>
donor molecule, donor type, donor heavy atom, donor atom, acceptor molecule, acceptor atom, score
      P1  H  7989  7998       L1     1  1.00
      P1  H  7997  8008       L1     9  1.89
      P1  H  8011  8017       L1    16  0.11

> <Gold.PLP.Chemscore.Internal.Correction>
0.0016

> <Gold.Rescore>
     Score         DG    S(hbond)    S(metal)    S(lipo)     H(rot)  DE(clash)    DE(int)     intcor
     10.36     -11.73       1.30        0.00      38.10       1.00       0.03       1.34       ----

> <Gold.Chemscore.Fitness>
10.3602

> <Gold.Chemscore.DG>
-11.7318

> <Gold.Chemscore.ZeroCoef>
-5.4800

> <Gold.Chemscore.Hbond>
1.3038

> <Gold.Chemscore.Metal>
0.0000

> <Gold.Chemscore.Lipo>
38.0961

> <Gold.Chemscore.Internal_Hbond>
0.0000

> <Gold.Chemscore.DEClash>
0.0343

> <Gold.Chemscore.DEInternal>
1.3373

> <Gold.Chemscore.Rot>
1.0000

> <Gold.Chemscore.Internal.Correction>
   9.000000E+99

> <Gold.Chemscore.Hbonds>
donor molecule, donor type, donor heavy atom, donor atom, acceptor molecule, acceptor atom, score
      P1  H  7989  7998       L1     1  0.99
      P1  H  7997  8008       L1     9  0.20

> <Gold.Chemscore.Hbond.Weighted>
-4.3546

> <Gold.Chemscore.Metal.Weighted>
-0.0000

> <Gold.Chemscore.Lipo.Weighted>
-4.4572

> <Gold.Chemscore.Internal_Hbond.Weighted>
0.0000

> <Gold.Chemscore.DEClash.Weighted>
0.0343

> <Gold.Chemscore.DEInternal.Weighted>
1.3373

> <Gold.Chemscore.Rot.Weighted>
2.5600

> <Gold.Chemscore.Internal.Correction.Weighted>
   9.000000E+99

> <Gold.Protein.RotatedTorsions>
[ 6907 6896 6895 6894 ] final   27.40 input  -60.11 | X-H torsion
[ 7974 7965 7964 7962 ] final   -1.12 input  175.53 | X-H torsion
[ 8008 7997 7996 7995 ] final -119.24 input   59.86 | X-H torsion
[ 10167 10162 10161 10158 ] final  -42.26 input  -65.29 | X-H torsion
[ 10718 10713 10712 10709 ] final  120.34 input   66.30 | X-H torsion
[ 10763 10752 10751 10750 ] final  143.06 input  -60.55 | X-H torsion
[ 11005 11000 10999 10996 ] final  150.52 input  -57.11 | X-H torsion

> <Gold.Protein.ActiveResidues>
 VAL166  LYS551  ARG553  GLY616  TRP617  ASP618  TYR619  PRO620  LYS621  CYS622 
 ASP623  PHE694  ASN695  SER759  ASP760  ASP761  ALA762  ILE779  LEU786  VAL792 
 PHE793  MET794  SER795  GLU796  ALA797  LYS798  CYS799  TRP800  GLU811  SER814 

> <Gold.Protein.RotatedAtoms>
  152.0017  134.9925  160.0565 H   0  0  0  0  0  0  0  0  0  0  0  0  # atno 6907 bound_to 6896
  152.1513  133.4519  159.4823 H   0  0  0  0  0  0  0  0  0  0  0  0  # atno 6908 bound_to 6896
  150.6876  134.2103  159.4400 H   0  0  0  0  0  0  0  0  0  0  0  0  # atno 6909 bound_to 6896
  146.2420  140.1373  142.8336 H   0  0  0  0  0  0  0  0  0  0  0  0  # atno 7974 bound_to 7965
  155.1125  140.0397  157.2728 H   0  0  0  0  0  0  0  0  0  0  0  0  # atno 8008 bound_to 7997
  154.6675  140.2605  155.7017 H   0  0  0  0  0  0  0  0  0  0  0  0  # atno 8009 bound_to 7997
  156.2644  140.2804  156.1171 H   0  0  0  0  0  0  0  0  0  0  0  0  # atno 8010 bound_to 7997
  140.6975  143.3047  151.3184 H   0  0  0  0  0  0  0  0  0  0  0  0  # atno 10167 bound_to 10162
  157.5897  131.1065  150.8022 H   0  0  0  0  0  0  0  0  0  0  0  0  # atno 10718 bound_to 10713
  153.9661  135.2955  155.3430 H   0  0  0  0  0  0  0  0  0  0  0  0  # atno 10763 bound_to 10752
  154.7348  135.5051  153.9027 H   0  0  0  0  0  0  0  0  0  0  0  0  # atno 10764 bound_to 10752
  153.0923  135.6711  153.9941 H   0  0  0  0  0  0  0  0  0  0  0  0  # atno 10765 bound_to 10752
  140.1139  134.8907  157.1975 H   0  0  0  0  0  0  0  0  0  0  0  0  # atno 11005 bound_to 11000
  145.0276  140.8845  143.5129 LP  0  0  0  0  0  0  0  0  0  0  0  0  # atno 17320 bound_to 7965
  145.1432  139.2559  143.5479 LP  0  0  0  0  0  0  0  0  0  0  0  0  # atno 17321 bound_to 7965
  139.6449  144.0470  152.2583 LP  0  0  0  0  0  0  0  0  0  0  0  0  # atno 17342 bound_to 10162
  139.9987  144.6309  150.7749 LP  0  0  0  0  0  0  0  0  0  0  0  0  # atno 17343 bound_to 10162
  156.8447  130.5060  149.5317 LP  0  0  0  0  0  0  0  0  0  0  0  0  # atno 17370 bound_to 10713
  156.0950  130.5925  150.9799 LP  0  0  0  0  0  0  0  0  0  0  0  0  # atno 17371 bound_to 10713
  140.3055  134.3083  155.7279 LP  0  0  0  0  0  0  0  0  0  0  0  0  # atno 17394 bound_to 11000
  141.2136  133.7618  156.9701 LP  0  0  0  0  0  0  0  0  0  0  0  0  # atno 17395 bound_to 11000

$$$$
