AV-unprocessed.smi:914|AV-procd|sdf|4152|dock7
  -GOLD-   22720 2 53D 1   1.00000     0.00000
 Structure written by MMmdl.
 32 33  0  0  0  0  0  0  0  0  2 V2000
  150.8723  135.5760  154.8856 O   0  0  0  0  0  0  0  0  0  0  0  0
  150.6939  136.7929  154.9133 C   0  0  0  0  0  0  0  0  0  0  0  0
  151.7226  137.6894  154.8722 N   0  5  0  0  0  0  0  0  0  0  0  0
  151.5444  139.0463  154.8993 C   0  0  0  0  0  0  0  0  0  0  0  0
  152.4913  139.8325  154.8677 O   0  0  0  0  0  0  0  0  0  0  0  0
  150.2721  139.5413  154.9656 N   0  0  0  0  0  0  0  0  0  0  0  0
  149.9805  140.9815  155.0163 C   0  0  0  0  0  0  0  0  0  0  0  0
  149.1569  141.3440  156.2619 C   0  0  0  0  0  0  0  0  0  0  0  0
  150.0178  141.3975  157.3852 O   0  0  0  0  0  0  0  0  0  0  0  0
  151.0319  142.3786  157.2719 C   0  0  0  0  0  0  0  0  0  0  0  0
  151.0668  143.1836  158.5759 C   0  0  2  0  0  0  0  0  0  0  0  0
  152.1094  144.3017  158.5861 C   0  0  0  0  0  0  0  0  0  0  0  0
  152.3706  144.4594  160.0657 C   0  0  0  0  0  0  0  0  0  0  0  0
  152.3217  143.0108  160.5421 C   0  0  0  0  0  0  0  0  0  0  0  0
  151.4070  142.3430  159.6763 O   0  0  0  0  0  0  0  0  0  0  0  0
  149.1783  138.6611  155.0167 C   0  0  0  0  0  0  0  0  0  0  0  0
  149.3345  137.3232  154.9939 C   0  0  0  0  0  0  0  0  0  0  0  0
  147.9699  136.2658  155.0631 Cl  0  0  0  0  0  0  0  0  0  0  0  0
  150.8930  141.5788  154.9814 H   0  0  0  0  0  0  0  0  0  0  0  0
  149.4235  141.2650  154.1223 H   0  0  0  0  0  0  0  0  0  0  0  0
  148.6793  142.3149  156.1259 H   0  0  0  0  0  0  0  0  0  0  0  0
  148.3647  140.6093  156.4159 H   0  0  0  0  0  0  0  0  0  0  0  0
  151.9954  141.8974  157.0983 H   0  0  0  0  0  0  0  0  0  0  0  0
  150.8346  143.0389  156.4259 H   0  0  0  0  0  0  0  0  0  0  0  0
  150.0821  143.6072  158.7790 H   0  0  0  0  0  0  0  0  0  0  0  0
  153.0219  143.9857  158.0782 H   0  0  0  0  0  0  0  0  0  0  0  0
  151.7554  145.2176  158.1111 H   0  0  0  0  0  0  0  0  0  0  0  0
  153.3190  144.9502  160.2853 H   0  0  0  0  0  0  0  0  0  0  0  0
  151.5688  145.0371  160.5276 H   0  0  0  0  0  0  0  0  0  0  0  0
  153.3010  142.5429  160.4352 H   0  0  0  0  0  0  0  0  0  0  0  0
  152.0182  142.9267  161.5858 H   0  0  0  0  0  0  0  0  0  0  0  0
  148.2117  139.1390  155.0818 H   0  0  0  0  0  0  0  0  0  0  0  0
  1  2  2  0  0  0  0
  2 17  1  0  0  0  0
  2  3  1  0  0  0  0
  3  4  1  0  0  0  0
  4  5  2  0  0  0  0
  4  6  1  0  0  0  0
  6  7  1  0  0  0  0
  6 16  1  0  0  0  0
  7  8  1  0  0  0  0
  7 19  1  0  0  0  0
  7 20  1  0  0  0  0
  8  9  1  0  0  0  0
  8 21  1  0  0  0  0
  8 22  1  0  0  0  0
  9 10  1  0  0  0  0
 10 11  1  0  0  0  0
 10 23  1  0  0  0  0
 10 24  1  0  0  0  0
 11 15  1  0  0  0  0
 11 12  1  0  0  0  0
 11 25  1  0  0  0  0
 12 13  1  0  0  0  0
 12 26  1  0  0  0  0
 12 27  1  0  0  0  0
 13 14  1  0  0  0  0
 13 28  1  0  0  0  0
 13 29  1  0  0  0  0
 14 15  1  0  0  0  0
 14 30  1  0  0  0  0
 14 31  1  0  0  0  0
 16 17  2  0  0  0  0
 16 32  1  0  0  0  0
 17 18  1  0  0  0  0
M  CHG  1   3  -1
M  END
> <s_m_source_file>
AV-unprocessed.smi

> <i_m_source_file_index>
914

> <i_lp_mmshare_version>
43012

> <i_f3d_flags>
0

> <s_epik_input>
Tz1jMVtuSF1jKD1PKW4oW2NIXWMxQ2wpW0NIMl1bQ0gyXU9bQ0gyXVtDQEBIXTJbQ0gyXVtDSDJdW0NIMl1PMg==

> <s_epik_cmdline>
J2VwaWtfcHl0aG9uJywgJy1waCcsICc3LjAnLCAnLXRuJywgJzgnLCAnLW1hJywgJzIwMCcsICctbWV0YWxfYmluZGluZycsICctaW1hZScsICc8aW5maWxlLm1hZT4nLCAnLW9tYWUnLCAnPG91dGZpbGUubWFlPic=

> <r_epik_Ionization_Penalty>
1.76812

> <r_epik_Ionization_Penalty_Charging>
1.60097e-08

> <r_epik_Ionization_Penalty_Neutral>
1.76812

> <r_epik_State_Penalty>
1.87929

> <r_epik_Charging_Adjusted_Penalty>
1.87929

> <i_epik_Tot_Q>
-1

> <i_epik_Tot_abs_Q>
1

> <r_epik_Metal_State_Penalty>
0.0133872

> <b_epik_Metal_Only>
0

> <s_lp_Force_Field>
OPLS_2005

> <r_lp_Energy>
30.4793

> <b_lp_Chiralities_Consistent>
1

> <s_lp_Variant>
AV-unprocessed.smi:914-3

> <Gold.Version>
5.8.1

> <Gold.Id.Protein>
6NUR|6NUR_protein|mol2

> <Gold.PLP.Fitness>
41.1572

> <Gold.PLP.PLP>
-35.0191

> <Gold.PLP.part.hbond>
-3.3980

> <Gold.PLP.part.metal>
0.0000

> <Gold.PLP.part.buried>
-3.5674

> <Gold.PLP.part.nonpolar>
-28.2741

> <Gold.PLP.part.repulsive>
0.2435

> <Gold.PLP.ligand.clash>
0.0000

> <Gold.PLP.ligand.torsion>
0.4371

> <Gold.PLP.Chemscore.Hbond>
2.3255

> <Gold.PLP.Chemscore.CHOScore>
0.0000

> <Gold.PLP.Chemscore.Metal>
0.0000

> <Gold.Chemscore.Hbonds>
donor molecule, donor type, donor heavy atom, donor atom, acceptor molecule, acceptor atom, score
      P1  H  7989  7998       L1     5  0.36
      P1  H  7997  8009       L1     5  0.49
      P1  H 10752 10763       L1     1  0.83

> <Gold.PLP.Chemscore.Internal.Correction>
0.0357

> <Gold.Rescore>
     Score         DG    S(hbond)    S(metal)    S(lipo)     H(rot)  DE(clash)    DE(int)     intcor
     14.42     -14.99       1.75        0.00      76.44       2.07       0.21       0.35       ----

> <Gold.Chemscore.Fitness>
14.4237

> <Gold.Chemscore.DG>
-14.9896

> <Gold.Chemscore.ZeroCoef>
-5.4800

> <Gold.Chemscore.Hbond>
1.7546

> <Gold.Chemscore.Metal>
0.0000

> <Gold.Chemscore.Lipo>
76.4353

> <Gold.Chemscore.Internal_Hbond>
0.0000

> <Gold.Chemscore.DEClash>
0.2119

> <Gold.Chemscore.DEInternal>
0.3540

> <Gold.Chemscore.Rot>
2.0678

> <Gold.Chemscore.Internal.Correction>
   9.000000E+99

> <Gold.Chemscore.Hbonds>
donor molecule, donor type, donor heavy atom, donor atom, acceptor molecule, acceptor atom, score
      P1  H  7989  7998       L1     5  0.03
      P1  H  7997  8009       L1     5  0.48
      P1  H 10752 10763       L1     1  0.20

> <Gold.Chemscore.Hbond.Weighted>
-5.8602

> <Gold.Chemscore.Metal.Weighted>
-0.0000

> <Gold.Chemscore.Lipo.Weighted>
-8.9429

> <Gold.Chemscore.Internal_Hbond.Weighted>
0.0000

> <Gold.Chemscore.DEClash.Weighted>
0.2119

> <Gold.Chemscore.DEInternal.Weighted>
0.3540

> <Gold.Chemscore.Rot.Weighted>
5.2935

> <Gold.Chemscore.Internal.Correction.Weighted>
   9.000000E+99

> <Gold.Protein.RotatedTorsions>
[ 6907 6896 6895 6894 ] final -105.89 input  -60.11 | X-H torsion
[ 7974 7965 7964 7962 ] final  -80.42 input  175.53 | X-H torsion
[ 8008 7997 7996 7995 ] final -139.76 input   59.86 | X-H torsion
[ 10167 10162 10161 10158 ] final  150.17 input  -65.29 | X-H torsion
[ 10718 10713 10712 10709 ] final -177.34 input   66.30 | X-H torsion
[ 10763 10752 10751 10750 ] final   71.17 input  -60.55 | X-H torsion
[ 11005 11000 10999 10996 ] final  -72.88 input  -57.11 | X-H torsion

> <Gold.Protein.ActiveResidues>
 VAL166  LYS551  ARG553  GLY616  TRP617  ASP618  TYR619  PRO620  LYS621  CYS622 
 ASP623  PHE694  ASN695  SER759  ASP760  ASP761  ALA762  ILE779  LEU786  VAL792 
 PHE793  MET794  SER795  GLU796  ALA797  LYS798  CYS799  TRP800  GLU811  SER814 

> <Gold.Protein.RotatedAtoms>
  150.7360  134.0058  159.3652 H   0  0  0  0  0  0  0  0  0  0  0  0  # atno 6907 bound_to 6896
  151.8015  135.0705  160.0410 H   0  0  0  0  0  0  0  0  0  0  0  0  # atno 6908 bound_to 6896
  152.3138  133.5744  159.5734 H   0  0  0  0  0  0  0  0  0  0  0  0  # atno 6909 bound_to 6896
  145.5601  140.9483  143.1452 H   0  0  0  0  0  0  0  0  0  0  0  0  # atno 7974 bound_to 7965
  155.4502  140.0538  157.3002 H   0  0  0  0  0  0  0  0  0  0  0  0  # atno 8008 bound_to 7997
  154.4780  140.2069  155.9787 H   0  0  0  0  0  0  0  0  0  0  0  0  # atno 8009 bound_to 7997
  156.1162  140.3196  155.8147 H   0  0  0  0  0  0  0  0  0  0  0  0  # atno 8010 bound_to 7997
  139.4853  144.5544  151.7344 H   0  0  0  0  0  0  0  0  0  0  0  0  # atno 10167 bound_to 10162
  156.8280  130.9643  151.3108 H   0  0  0  0  0  0  0  0  0  0  0  0  # atno 10718 bound_to 10713
  153.0383  135.5147  154.7552 H   0  0  0  0  0  0  0  0  0  0  0  0  # atno 10763 bound_to 10752
  154.6510  135.2925  154.9988 H   0  0  0  0  0  0  0  0  0  0  0  0  # atno 10764 bound_to 10752
  154.0872  135.6655  153.4899 H   0  0  0  0  0  0  0  0  0  0  0  0  # atno 10765 bound_to 10752
  141.1615  133.6860  156.7126 H   0  0  0  0  0  0  0  0  0  0  0  0  # atno 11005 bound_to 11000
  144.7487  139.7251  143.7282 LP  0  0  0  0  0  0  0  0  0  0  0  0  # atno 17320 bound_to 7965
  146.1857  139.5071  142.9838 LP  0  0  0  0  0  0  0  0  0  0  0  0  # atno 17321 bound_to 7965
  140.5103  144.1035  150.5993 LP  0  0  0  0  0  0  0  0  0  0  0  0  # atno 17342 bound_to 10162
  140.3959  143.2728  152.0006 LP  0  0  0  0  0  0  0  0  0  0  0  0  # atno 17343 bound_to 10162
  157.6421  130.8814  149.9469 LP  0  0  0  0  0  0  0  0  0  0  0  0  # atno 17370 bound_to 10713
  156.0950  130.3660  150.0323 LP  0  0  0  0  0  0  0  0  0  0  0  0  # atno 17371 bound_to 10713
  140.2876  134.8267  157.3988 LP  0  0  0  0  0  0  0  0  0  0  0  0  # atno 17394 bound_to 11000
  140.1376  134.5013  155.8056 LP  0  0  0  0  0  0  0  0  0  0  0  0  # atno 17395 bound_to 11000

$$$$
