AV-unprocessed.smi:1508|AV-procd|sdf|6088|dock2
  -GOLD-   22720 6213D 1   1.00000     0.00000
 Structure written by MMmdl.
 37 38  0  0  0  0  0  0  0  0  3 V2000
  145.5173  133.5168  151.3798 C   0  0  0  0  0  0  0  0  0  0  0  0
  147.0194  133.4994  151.7043 C   0  0  0  0  0  0  0  0  0  0  0  0
  147.4368  132.4893  152.8078 C   0  0  2  0  0  0  0  0  0  0  0  0
  148.7976  132.8570  153.4603 C   0  0  0  0  0  0  0  0  0  0  0  0
  148.8756  134.2616  153.8486 N   0  0  0  0  0  0  0  0  0  0  0  0
  148.9118  134.7210  155.1074 C   0  0  0  0  0  0  0  0  0  0  0  0
  148.9007  133.9273  156.0512 O   0  0  0  0  0  0  0  0  0  0  0  0
  148.9490  136.0691  155.1937 N   0  5  0  0  0  0  0  0  0  0  0  0
  150.0977  136.7238  154.9563 C   0  0  0  0  0  0  0  0  0  0  0  0
  151.3001  136.1474  155.1137 N   0  0  0  0  0  0  0  0  0  0  0  0
  152.3561  136.9975  154.8142 N   0  0  0  0  0  0  0  0  0  0  0  0
  151.9203  138.1963  154.4279 C   0  0  0  0  0  0  0  0  0  0  0  0
  150.1810  138.3952  154.3932 S   0  0  0  0  0  0  0  0  0  0  0  0
  147.4397  131.0825  152.3105 N   0  3  0  0  0  0  0  0  0  0  0  0
  147.8671  130.0621  153.3018 C   0  0  0  0  0  0  0  0  0  0  0  0
  147.0124  128.8091  153.0668 C   0  0  0  0  0  0  0  0  0  0  0  0
  146.2682  129.0803  151.7648 C   0  0  0  0  0  0  0  0  0  0  0  0
  146.1639  130.6003  151.7377 C   0  0  0  0  0  0  0  0  0  0  0  0
  145.2979  134.2747  150.6278 H   0  0  0  0  0  0  0  0  0  0  0  0
  144.9174  133.7451  152.2607 H   0  0  0  0  0  0  0  0  0  0  0  0
  145.1814  132.5599  150.9813 H   0  0  0  0  0  0  0  0  0  0  0  0
  147.5681  133.2840  150.7871 H   0  0  0  0  0  0  0  0  0  0  0  0
  147.3359  134.5061  151.9763 H   0  0  0  0  0  0  0  0  0  0  0  0
  146.6705  132.5377  153.5832 H   0  0  0  0  0  0  0  0  0  0  0  0
  148.9952  132.2509  154.3449 H   0  0  0  0  0  0  0  0  0  0  0  0
  149.6171  132.6504  152.7720 H   0  0  0  0  0  0  0  0  0  0  0  0
  148.8922  134.9442  153.1047 H   0  0  0  0  0  0  0  0  0  0  0  0
  152.6268  138.9672  154.1590 H   0  0  0  0  0  0  0  0  0  0  0  0
  148.9284  129.8517  153.1673 H   0  0  0  0  0  0  0  0  0  0  0  0
  147.7239  130.4107  154.3259 H   0  0  0  0  0  0  0  0  0  0  0  0
  147.6084  127.8973  153.0221 H   0  0  0  0  0  0  0  0  0  0  0  0
  146.2964  128.6961  153.8821 H   0  0  0  0  0  0  0  0  0  0  0  0
  146.8627  128.7344  150.9181 H   0  0  0  0  0  0  0  0  0  0  0  0
  145.2968  128.5868  151.7199 H   0  0  0  0  0  0  0  0  0  0  0  0
  145.3317  130.9235  152.3659 H   0  0  0  0  0  0  0  0  0  0  0  0
  145.9978  130.9774  150.7283 H   0  0  0  0  0  0  0  0  0  0  0  0
  148.1120  131.0388  151.5580 H   0  0  0  0  0  0  0  0  0  0  0  0
  1  2  1  0  0  0  0
  1 19  1  0  0  0  0
  1 20  1  0  0  0  0
  1 21  1  0  0  0  0
  2  3  1  0  0  0  0
  2 22  1  0  0  0  0
  2 23  1  0  0  0  0
  3  4  1  0  0  0  0
  3 14  1  0  0  0  0
  3 24  1  0  0  0  0
  4  5  1  0  0  0  0
  4 25  1  0  0  0  0
  4 26  1  0  0  0  0
  5  6  1  0  0  0  0
  5 27  1  0  0  0  0
  6  7  2  0  0  0  0
  6  8  1  0  0  0  0
  8  9  1  0  0  0  0
  9 13  1  0  0  0  0
  9 10  2  0  0  0  0
 10 11  1  0  0  0  0
 11 12  2  0  0  0  0
 12 13  1  0  0  0  0
 12 28  1  0  0  0  0
 14 18  1  0  0  0  0
 14 15  1  0  0  0  0
 14 37  1  0  0  0  0
 15 16  1  0  0  0  0
 15 29  1  0  0  0  0
 15 30  1  0  0  0  0
 16 17  1  0  0  0  0
 16 31  1  0  0  0  0
 16 32  1  0  0  0  0
 17 18  1  0  0  0  0
 17 33  1  0  0  0  0
 17 34  1  0  0  0  0
 18 35  1  0  0  0  0
 18 36  1  0  0  0  0
M  CHG  1   8  -1
M  CHG  1  14   1
M  END
> <s_m_source_file>
AV-unprocessed.smi

> <i_m_source_file_index>
1508

> <i_lp_mmshare_version>
43012

> <i_f3d_flags>
0

> <s_epik_input>
W0NIMl0xW0NIMl1bQ0gyXVtDSDJdTjFbQ0BIXShbQ0gyXVtDSDNdKVtDSDJdW05IXUMoPU8pW05IXWMybm5bY0hdczI=

> <s_epik_cmdline>
J2VwaWtfcHl0aG9uJywgJy1waCcsICc3LjAnLCAnLXRuJywgJzgnLCAnLW1hJywgJzIwMCcsICctbWV0YWxfYmluZGluZycsICctaW1hZScsICc8aW5maWxlLm1hZT4nLCAnLW9tYWUnLCAnPG91dGZpbGUubWFlPic=

> <r_lp_tautomer_probability>
1

> <r_epik_Ionization_Penalty>
3.98086

> <r_epik_Ionization_Penalty_Charging>
3.94833

> <r_epik_Ionization_Penalty_Neutral>
0.032525

> <r_epik_State_Penalty>
3.94643

> <r_epik_Charging_Adjusted_Penalty>
7.89477

> <i_epik_Tot_Q>
0

> <i_epik_Tot_abs_Q>
2

> <r_epik_Metal_State_Penalty>
0.605555

> <b_epik_Metal_Only>
1

> <s_lp_Force_Field>
OPLS_2005

> <r_lp_Energy>
24.3568

> <b_lp_Chiralities_Consistent>
1

> <s_lp_Variant>
AV-unprocessed.smi:1508-3

> <Gold.Version>
5.8.1

> <Gold.Id.Protein>
6NUR|6NUR_protein|mol2

> <Gold.PLP.Fitness>
36.5350

> <Gold.PLP.PLP>
-32.0551

> <Gold.PLP.part.hbond>
-3.5717

> <Gold.PLP.part.metal>
0.0000

> <Gold.PLP.part.buried>
-4.0438

> <Gold.PLP.part.nonpolar>
-24.6498

> <Gold.PLP.part.repulsive>
0.3681

> <Gold.PLP.ligand.clash>
0.0000

> <Gold.PLP.ligand.torsion>
1.1126

> <Gold.PLP.Chemscore.Hbond>
2.2000

> <Gold.PLP.Chemscore.CHOScore>
0.0000

> <Gold.PLP.Chemscore.Metal>
0.0000

> <Gold.Chemscore.Hbonds>
donor molecule, donor type, donor heavy atom, donor atom, acceptor molecule, acceptor atom, score
      L1  H     5    27       P1  7948  0.95
      L1  H    14    37       P1 10747  1.00
      P1  H 10752 10763       L1    11  0.17

> <Gold.PLP.Chemscore.Internal.Correction>
0.1051

> <Gold.Rescore>
     Score         DG    S(hbond)    S(metal)    S(lipo)     H(rot)  DE(clash)    DE(int)     intcor
     14.27     -15.42       1.92        0.00      70.86       1.86       0.03       1.12       ----

> <Gold.Chemscore.Fitness>
14.2668

> <Gold.Chemscore.DG>
-15.4152

> <Gold.Chemscore.ZeroCoef>
-5.4800

> <Gold.Chemscore.Hbond>
1.9162

> <Gold.Chemscore.Metal>
0.0000

> <Gold.Chemscore.Lipo>
70.8562

> <Gold.Chemscore.Internal_Hbond>
0.0000

> <Gold.Chemscore.DEClash>
0.0262

> <Gold.Chemscore.DEInternal>
1.1221

> <Gold.Chemscore.Rot>
1.8575

> <Gold.Chemscore.Internal.Correction>
   9.000000E+99

> <Gold.Chemscore.Hbonds>
donor molecule, donor type, donor heavy atom, donor atom, acceptor molecule, acceptor atom, score
      L1  H     5    27       P1  7948  0.22
      L1  H    14    37       P1 10747  0.95
      P1  H 10752 10763       L1    11  0.01

> <Gold.Chemscore.Hbond.Weighted>
-6.4001

> <Gold.Chemscore.Metal.Weighted>
-0.0000

> <Gold.Chemscore.Lipo.Weighted>
-8.2902

> <Gold.Chemscore.Internal_Hbond.Weighted>
0.0000

> <Gold.Chemscore.DEClash.Weighted>
0.0262

> <Gold.Chemscore.DEInternal.Weighted>
1.1221

> <Gold.Chemscore.Rot.Weighted>
4.7551

> <Gold.Chemscore.Internal.Correction.Weighted>
   9.000000E+99

> <Gold.Protein.RotatedTorsions>
[ 6907 6896 6895 6894 ] final  105.55 input  -60.11 | X-H torsion
[ 7974 7965 7964 7962 ] final  -32.56 input  175.53 | X-H torsion
[ 8008 7997 7996 7995 ] final   47.47 input   59.86 | X-H torsion
[ 10167 10162 10161 10158 ] final   89.12 input  -65.29 | X-H torsion
[ 10718 10713 10712 10709 ] final  -22.67 input   66.30 | X-H torsion
[ 10763 10752 10751 10750 ] final   16.97 input  -60.55 | X-H torsion
[ 11005 11000 10999 10996 ] final   71.24 input  -57.11 | X-H torsion

> <Gold.Protein.ActiveResidues>
 VAL166  LYS551  ARG553  GLY616  TRP617  ASP618  TYR619  PRO620  LYS621  CYS622 
 ASP623  PHE694  ASN695  SER759  ASP760  ASP761  ALA762  ILE779  LEU786  VAL792 
 PHE793  MET794  SER795  GLU796  ALA797  LYS798  CYS799  TRP800  GLU811  SER814 

> <Gold.Protein.RotatedAtoms>
  152.5226  133.9512  159.7672 H   0  0  0  0  0  0  0  0  0  0  0  0  # atno 6907 bound_to 6896
  150.9821  133.6226  159.2728 H   0  0  0  0  0  0  0  0  0  0  0  0  # atno 6908 bound_to 6896
  151.3400  135.0867  159.9421 H   0  0  0  0  0  0  0  0  0  0  0  0  # atno 6909 bound_to 6896
  146.0980  140.5807  142.8834 H   0  0  0  0  0  0  0  0  0  0  0  0  # atno 7974 bound_to 7965
  155.3697  140.3423  155.4243 H   0  0  0  0  0  0  0  0  0  0  0  0  # atno 8008 bound_to 7997
  156.1669  140.1619  156.8549 H   0  0  0  0  0  0  0  0  0  0  0  0  # atno 8009 bound_to 7997
  154.5194  140.0770  156.8126 H   0  0  0  0  0  0  0  0  0  0  0  0  # atno 8010 bound_to 7997
  139.8604  144.6547  150.9065 H   0  0  0  0  0  0  0  0  0  0  0  0  # atno 10167 bound_to 10162
  156.5013  130.4589  149.6699 H   0  0  0  0  0  0  0  0  0  0  0  0  # atno 10718 bound_to 10713
  153.1382  135.6754  153.9069 H   0  0  0  0  0  0  0  0  0  0  0  0  # atno 10763 bound_to 10752
  153.8535  135.3090  155.3435 H   0  0  0  0  0  0  0  0  0  0  0  0  # atno 10764 bound_to 10752
  154.7765  135.4911  153.9838 H   0  0  0  0  0  0  0  0  0  0  0  0  # atno 10765 bound_to 10752
  139.9554  134.7153  156.0765 H   0  0  0  0  0  0  0  0  0  0  0  0  # atno 11005 bound_to 11000
  144.7410  140.4943  143.6869 LP  0  0  0  0  0  0  0  0  0  0  0  0  # atno 17320 bound_to 7965
  145.5910  139.1495  143.3182 LP  0  0  0  0  0  0  0  0  0  0  0  0  # atno 17321 bound_to 7965
  140.7776  143.3749  151.1581 LP  0  0  0  0  0  0  0  0  0  0  0  0  # atno 17342 bound_to 10162
  139.7379  143.8970  152.3041 LP  0  0  0  0  0  0  0  0  0  0  0  0  # atno 17343 bound_to 10162
  156.3330  130.7341  151.2274 LP  0  0  0  0  0  0  0  0  0  0  0  0  # atno 17370 bound_to 10713
  157.7462  131.0425  150.4696 LP  0  0  0  0  0  0  0  0  0  0  0  0  # atno 17371 bound_to 10713
  141.1224  133.6609  156.3250 LP  0  0  0  0  0  0  0  0  0  0  0  0  # atno 17394 bound_to 11000
  140.5621  134.5923  157.5436 LP  0  0  0  0  0  0  0  0  0  0  0  0  # atno 17395 bound_to 11000

$$$$
