AV-unprocessed.smi:1464|AV-procd|sdf|5940|dock10
  -GOLD-   22720 6 23D 1   1.00000     0.00000
 Structure written by MMmdl.
 40 41  0  0  0  0  0  0  0  0  2 V2000
  152.7001  144.5431  159.1058 C   0  0  0  0  0  0  0  0  0  0  0  0
  151.9525  143.1970  159.0813 C   0  0  1  0  0  0  0  0  0  0  0  0
  151.3411  142.9735  157.6835 C   0  0  0  0  0  0  0  0  0  0  0  0
  150.5532  141.6612  157.6086 C   0  0  0  0  0  0  0  0  0  0  0  0
  151.4457  140.4747  157.9830 C   0  0  0  0  0  0  0  0  0  0  0  0
  152.0623  140.6564  159.3833 C   0  0  1  0  0  0  0  0  0  0  0  0
  152.9359  139.5210  159.6749 N   0  0  0  0  0  0  0  0  0  0  0  0
  152.5621  138.2322  159.6966 C   0  0  0  0  0  0  0  0  0  0  0  0
  151.4150  137.8603  159.4424 O   0  0  0  0  0  0  0  0  0  0  0  0
  153.6709  137.2259  160.0429 C   0  0  0  0  0  0  0  0  0  0  0  0
  154.0778  137.2476  161.4554 N   0  0  0  0  0  0  0  0  0  0  0  0
  153.7499  136.0221  162.1791 N   0  5  0  0  0  0  0  0  0  0  0  0
  154.0998  135.9118  163.4881 C   0  0  0  0  0  0  0  0  0  0  0  0
  153.8728  134.9058  164.1562 O   0  0  0  0  0  0  0  0  0  0  0  0
  154.7674  137.0403  164.1152 C   0  0  0  0  0  0  0  0  0  0  0  0
  155.0376  138.1680  163.4287 C   0  0  0  0  0  0  0  0  0  0  0  0
  154.6868  138.3279  162.0227 C   0  0  0  0  0  0  0  0  0  0  0  0
  154.9252  139.3579  161.3920 O   0  0  0  0  0  0  0  0  0  0  0  0
  152.8437  141.9935  159.5030 C   0  0  2  0  0  0  0  0  0  0  0  0
  153.4209  142.1713  160.9248 C   0  0  0  0  0  0  0  0  0  0  0  0
  153.5941  144.5120  158.4824 H   0  0  0  0  0  0  0  0  0  0  0  0
  153.0011  144.8240  160.1145 H   0  0  0  0  0  0  0  0  0  0  0  0
  152.0663  145.3487  158.7338 H   0  0  0  0  0  0  0  0  0  0  0  0
  151.1275  143.2695  159.7917 H   0  0  0  0  0  0  0  0  0  0  0  0
  150.6811  143.8032  157.4276 H   0  0  0  0  0  0  0  0  0  0  0  0
  152.1317  142.9663  156.9316 H   0  0  0  0  0  0  0  0  0  0  0  0
  149.6958  141.7050  158.2814 H   0  0  0  0  0  0  0  0  0  0  0  0
  150.1536  141.5230  156.6035 H   0  0  0  0  0  0  0  0  0  0  0  0
  150.8606  139.5547  157.9458 H   0  0  0  0  0  0  0  0  0  0  0  0
  152.2371  140.3671  157.2397 H   0  0  0  0  0  0  0  0  0  0  0  0
  151.2521  140.6792  160.1152 H   0  0  0  0  0  0  0  0  0  0  0  0
  153.8983  139.7333  159.8939 H   0  0  0  0  0  0  0  0  0  0  0  0
  153.3314  136.2274  159.7633 H   0  0  0  0  0  0  0  0  0  0  0  0
  154.5358  137.4250  159.4068 H   0  0  0  0  0  0  0  0  0  0  0  0
  155.0511  136.9739  165.1553 H   0  0  0  0  0  0  0  0  0  0  0  0
  155.5340  138.9821  163.9356 H   0  0  0  0  0  0  0  0  0  0  0  0
  153.6868  141.9476  158.8117 H   0  0  0  0  0  0  0  0  0  0  0  0
  152.6250  142.2717  161.6634 H   0  0  0  0  0  0  0  0  0  0  0  0
  154.0586  143.0512  160.9981 H   0  0  0  0  0  0  0  0  0  0  0  0
  154.0394  141.3246  161.2223 H   0  0  0  0  0  0  0  0  0  0  0  0
  1  2  1  0  0  0  0
  1 21  1  0  0  0  0
  1 22  1  0  0  0  0
  1 23  1  0  0  0  0
  2 19  1  0  0  0  0
  2  3  1  0  0  0  0
  2 24  1  0  0  0  0
  3  4  1  0  0  0  0
  3 25  1  0  0  0  0
  3 26  1  0  0  0  0
  4  5  1  0  0  0  0
  4 27  1  0  0  0  0
  4 28  1  0  0  0  0
  5  6  1  0  0  0  0
  5 29  1  0  0  0  0
  5 30  1  0  0  0  0
  6  7  1  0  0  0  0
  6 19  1  0  0  0  0
  6 31  1  0  0  0  0
  7  8  1  0  0  0  0
  7 32  1  0  0  0  0
  8  9  2  0  0  0  0
  8 10  1  0  0  0  0
 10 33  1  0  0  0  0
 10 34  1  0  0  0  0
 10 11  1  0  0  0  0
 11 12  1  0  0  0  0
 11 17  1  0  0  0  0
 12 13  1  0  0  0  0
 13 14  2  0  0  0  0
 13 15  1  0  0  0  0
 15 35  1  0  0  0  0
 15 16  2  0  0  0  0
 16 36  1  0  0  0  0
 16 17  1  0  0  0  0
 17 18  2  0  0  0  0
 19 20  1  0  0  0  0
 19 37  1  0  0  0  0
 20 38  1  0  0  0  0
 20 39  1  0  0  0  0
 20 40  1  0  0  0  0
M  CHG  1  12  -1
M  END
> <s_m_source_file>
AV-unprocessed.smi

> <i_m_source_file_index>
1464

> <i_lp_mmshare_version>
43012

> <i_f3d_flags>
0

> <s_epik_input>
W0NIM11bQ0BASF0xW0NIMl1bQ0gyXVtDSDJdW0NASF0oW0NASF0xW0NIM10pW05IXUMoPU8pW0NIMl1uMltuSF1jKD1PKVtjSF1bY0hdYzI9Tw==

> <s_epik_cmdline>
J2VwaWtfcHl0aG9uJywgJy1waCcsICc3LjAnLCAnLXRuJywgJzgnLCAnLW1hJywgJzIwMCcsICctbWV0YWxfYmluZGluZycsICctaW1hZScsICc8aW5maWxlLm1hZT4nLCAnLW9tYWUnLCAnPG91dGZpbGUubWFlPic=

> <r_lp_tautomer_probability>
1

> <r_epik_Ionization_Penalty>
0.101366

> <r_epik_Ionization_Penalty_Charging>
0.101366

> <r_epik_Ionization_Penalty_Neutral>
1.90469e-08

> <r_epik_State_Penalty>
0.035861

> <r_epik_Charging_Adjusted_Penalty>
0.137227

> <i_epik_Tot_Q>
-1

> <i_epik_Tot_abs_Q>
1

> <r_epik_Metal_State_Penalty>
0.035861

> <b_epik_Metal_Only>
0

> <s_lp_Force_Field>
OPLS_2005

> <r_lp_Energy>
28.8284

> <b_lp_Chiralities_Consistent>
1

> <s_lp_Variant>
AV-unprocessed.smi:1464-6

> <Gold.Version>
5.8.1

> <Gold.Id.Protein>
6NUR|6NUR_protein|mol2

> <Gold.PLP.Fitness>
38.8083

> <Gold.PLP.PLP>
-39.1300

> <Gold.PLP.part.hbond>
0.0000

> <Gold.PLP.part.metal>
0.0000

> <Gold.PLP.part.buried>
-6.4794

> <Gold.PLP.part.nonpolar>
-32.7996

> <Gold.PLP.part.repulsive>
0.1761

> <Gold.PLP.ligand.clash>
0.0000

> <Gold.PLP.ligand.torsion>
0.1648

> <Gold.PLP.Chemscore.Hbond>
0.0000

> <Gold.PLP.Chemscore.CHOScore>
0.0000

> <Gold.PLP.Chemscore.Metal>
0.0000

> <Gold.PLP.Chemscore.Internal.Correction>
0.0079

> <Gold.Rescore>
     Score         DG    S(hbond)    S(metal)    S(lipo)     H(rot)  DE(clash)    DE(int)     intcor
     12.92     -14.82       0.98        0.00      87.85       1.64       0.05       1.85       ----

> <Gold.Chemscore.Fitness>
12.9199

> <Gold.Chemscore.DG>
-14.8246

> <Gold.Chemscore.ZeroCoef>
-5.4800

> <Gold.Chemscore.Hbond>
0.9801

> <Gold.Chemscore.Metal>
0.0000

> <Gold.Chemscore.Lipo>
87.8547

> <Gold.Chemscore.Internal_Hbond>
0.0000

> <Gold.Chemscore.DEClash>
0.0549

> <Gold.Chemscore.DEInternal>
1.8497

> <Gold.Chemscore.Rot>
1.6438

> <Gold.Chemscore.Internal.Correction>
   9.000000E+99

> <Gold.Chemscore.Hbond.Weighted>
-3.2736

> <Gold.Chemscore.Metal.Weighted>
-0.0000

> <Gold.Chemscore.Lipo.Weighted>
-10.2790

> <Gold.Chemscore.Internal_Hbond.Weighted>
0.0000

> <Gold.Chemscore.DEClash.Weighted>
0.0549

> <Gold.Chemscore.DEInternal.Weighted>
1.8497

> <Gold.Chemscore.Rot.Weighted>
4.2080

> <Gold.Chemscore.Internal.Correction.Weighted>
   9.000000E+99

> <Gold.Protein.RotatedTorsions>
[ 6907 6896 6895 6894 ] final  118.38 input  -60.11 | X-H torsion
[ 7974 7965 7964 7962 ] final  -29.86 input  175.53 | X-H torsion
[ 8008 7997 7996 7995 ] final -175.98 input   59.86 | X-H torsion
[ 10167 10162 10161 10158 ] final  125.53 input  -65.29 | X-H torsion
[ 10718 10713 10712 10709 ] final  -52.39 input   66.30 | X-H torsion
[ 10763 10752 10751 10750 ] final  116.84 input  -60.55 | X-H torsion
[ 11005 11000 10999 10996 ] final  -22.49 input  -57.11 | X-H torsion

> <Gold.Protein.ActiveResidues>
 VAL166  LYS551  ARG553  GLY616  TRP617  ASP618  TYR619  PRO620  LYS621  CYS622 
 ASP623  PHE694  ASN695  SER759  ASP760  ASP761  ALA762  ILE779  LEU786  VAL792 
 PHE793  MET794  SER795  GLU796  ALA797  LYS798  CYS799  TRP800  GLU811  SER814 

> <Gold.Protein.RotatedAtoms>
  152.4547  133.7698  159.6792 H   0  0  0  0  0  0  0  0  0  0  0  0  # atno 6907 bound_to 6896
  150.8469  133.7837  159.3046 H   0  0  0  0  0  0  0  0  0  0  0  0  # atno 6908 bound_to 6896
  151.5445  135.1071  159.9986 H   0  0  0  0  0  0  0  0  0  0  0  0  # atno 6909 bound_to 6896
  146.1186  140.5466  142.8746 H   0  0  0  0  0  0  0  0  0  0  0  0  # atno 7974 bound_to 7965
  155.9892  140.1197  157.0654 H   0  0  0  0  0  0  0  0  0  0  0  0  # atno 8008 bound_to 7997
  154.4206  140.1129  156.5610 H   0  0  0  0  0  0  0  0  0  0  0  0  # atno 8009 bound_to 7997
  155.6365  140.3473  155.4703 H   0  0  0  0  0  0  0  0  0  0  0  0  # atno 8010 bound_to 7997
  139.5680  144.6923  151.3856 H   0  0  0  0  0  0  0  0  0  0  0  0  # atno 10167 bound_to 10162
  156.1626  130.4149  149.9769 H   0  0  0  0  0  0  0  0  0  0  0  0  # atno 10718 bound_to 10713
  153.5434  135.3554  155.2728 H   0  0  0  0  0  0  0  0  0  0  0  0  # atno 10763 bound_to 10752
  154.8715  135.4096  154.3019 H   0  0  0  0  0  0  0  0  0  0  0  0  # atno 10764 bound_to 10752
  153.3730  135.7065  153.6691 H   0  0  0  0  0  0  0  0  0  0  0  0  # atno 10765 bound_to 10752
  140.8662  133.7753  156.0132 H   0  0  0  0  0  0  0  0  0  0  0  0  # atno 11005 bound_to 11000
  144.7576  140.5344  143.6758 LP  0  0  0  0  0  0  0  0  0  0  0  0  # atno 17320 bound_to 7965
  145.5515  139.1477  143.3391 LP  0  0  0  0  0  0  0  0  0  0  0  0  # atno 17321 bound_to 7965
  140.6964  143.7738  150.7334 LP  0  0  0  0  0  0  0  0  0  0  0  0  # atno 17342 bound_to 10162
  140.1235  143.4590  152.2298 LP  0  0  0  0  0  0  0  0  0  0  0  0  # atno 17343 bound_to 10162
  156.7594  130.9145  151.3641 LP  0  0  0  0  0  0  0  0  0  0  0  0  # atno 17370 bound_to 10713
  157.6744  130.9080  150.0115 LP  0  0  0  0  0  0  0  0  0  0  0  0  # atno 17371 bound_to 10713
  140.8626  134.2822  157.5227 LP  0  0  0  0  0  0  0  0  0  0  0  0  # atno 17394 bound_to 11000
  139.8709  134.9526  156.4120 LP  0  0  0  0  0  0  0  0  0  0  0  0  # atno 17395 bound_to 11000

$$$$
