AV-unprocessed.smi:1978|AV-procd|sdf|7993|dock7
  -GOLD-   2272010173D 1   1.00000     0.00000
 Structure written by MMmdl.
 45 46  0  0  0  0  0  0  0  0  2 V2000
  137.0514  141.7597  153.7467 C   0  0  0  0  0  0  0  0  0  0  0  0
  138.1009  140.7092  153.6188 C   0  0  0  0  0  0  0  0  0  0  0  0
  139.4448  140.7610  153.3765 C   0  0  0  0  0  0  0  0  0  0  0  0
  139.8238  139.3923  153.3815 C   0  0  0  0  0  0  0  0  0  0  0  0
  141.1700  139.0078  153.1535 N   0  0  0  0  0  0  0  0  0  0  0  0
  141.6817  137.7658  153.1871 C   0  0  0  0  0  0  0  0  0  0  0  0
  141.0510  136.7443  153.4617 O   0  0  0  0  0  0  0  0  0  0  0  0
  142.9868  137.7639  152.8785 N   0  0  0  0  0  0  0  0  0  0  0  0
  143.8263  136.5694  152.8243 C   0  0  0  0  0  0  0  0  0  0  0  0
  145.2624  136.8490  152.2917 C   0  0  1  0  0  0  0  0  0  0  0  0
  145.9590  137.8715  153.2272 C   0  0  0  0  0  0  0  0  0  0  0  0
  146.0496  135.5770  152.1278 N   0  3  1  0  0  0  0  0  0  0  0  0
  146.1606  134.7676  153.3804 C   0  0  0  0  0  0  0  0  0  0  0  0
  147.1726  133.6198  153.2286 C   0  0  0  0  0  0  0  0  0  0  0  0
  146.8183  132.7139  152.0480 C   0  0  0  0  0  0  0  0  0  0  0  0
  146.6768  133.5597  150.7777 C   0  0  0  0  0  0  0  0  0  0  0  0
  145.6707  134.7164  150.9563 C   0  0  1  0  0  0  0  0  0  0  0  0
  144.2115  134.2077  151.0102 C   0  0  0  0  0  0  0  0  0  0  0  0
  138.8038  138.5786  153.6080 N   0  0  0  0  0  0  0  0  0  0  0  0
  137.6944  139.4184  153.7612 O   0  0  0  0  0  0  0  0  0  0  0  0
  137.4910  142.7565  153.7089 H   0  0  0  0  0  0  0  0  0  0  0  0
  136.5185  141.6612  154.6925 H   0  0  0  0  0  0  0  0  0  0  0  0
  136.3248  141.6797  152.9382 H   0  0  0  0  0  0  0  0  0  0  0  0
  140.0543  141.6385  153.2194 H   0  0  0  0  0  0  0  0  0  0  0  0
  141.8066  139.7579  152.9283 H   0  0  0  0  0  0  0  0  0  0  0  0
  143.4306  138.6458  152.6670 H   0  0  0  0  0  0  0  0  0  0  0  0
  143.8800  136.1502  153.8295 H   0  0  0  0  0  0  0  0  0  0  0  0
  143.2866  135.8427  152.2212 H   0  0  0  0  0  0  0  0  0  0  0  0
  145.1812  137.3068  151.3051 H   0  0  0  0  0  0  0  0  0  0  0  0
  145.3574  138.7681  153.3733 H   0  0  0  0  0  0  0  0  0  0  0  0
  146.9066  138.2305  152.8289 H   0  0  0  0  0  0  0  0  0  0  0  0
  146.1472  137.4423  154.2118 H   0  0  0  0  0  0  0  0  0  0  0  0
  146.5016  135.3658  154.2202 H   0  0  0  0  0  0  0  0  0  0  0  0
  145.1822  134.3802  153.6657 H   0  0  0  0  0  0  0  0  0  0  0  0
  148.1718  134.0329  153.0845 H   0  0  0  0  0  0  0  0  0  0  0  0
  147.2111  133.0331  154.1470 H   0  0  0  0  0  0  0  0  0  0  0  0
  147.5899  131.9558  151.9109 H   0  0  0  0  0  0  0  0  0  0  0  0
  145.8913  132.1779  152.2537 H   0  0  0  0  0  0  0  0  0  0  0  0
  147.6523  133.9711  150.5142 H   0  0  0  0  0  0  0  0  0  0  0  0
  146.3815  132.9266  149.9402 H   0  0  0  0  0  0  0  0  0  0  0  0
  145.7766  135.3059  150.0470 H   0  0  0  0  0  0  0  0  0  0  0  0
  143.9763  133.6266  150.1181 H   0  0  0  0  0  0  0  0  0  0  0  0
  143.4911  135.0233  151.0545 H   0  0  0  0  0  0  0  0  0  0  0  0
  144.0252  133.5643  151.8688 H   0  0  0  0  0  0  0  0  0  0  0  0
  146.9907  135.8824  151.9246 H   0  0  0  0  0  0  0  0  0  0  0  0
  1  2  1  0  0  0  0
  1 21  1  0  0  0  0
  1 22  1  0  0  0  0
  1 23  1  0  0  0  0
  2 20  1  0  0  0  0
  2  3  2  0  0  0  0
  3  4  1  0  0  0  0
  3 24  1  0  0  0  0
  4  5  1  0  0  0  0
  4 19  2  0  0  0  0
  5  6  1  0  0  0  0
  5 25  1  0  0  0  0
  6  7  2  0  0  0  0
  6  8  1  0  0  0  0
  8  9  1  0  0  0  0
  8 26  1  0  0  0  0
  9 10  1  0  0  0  0
  9 27  1  0  0  0  0
  9 28  1  0  0  0  0
 10 11  1  0  0  0  0
 10 12  1  0  0  0  0
 10 29  1  0  0  0  0
 11 30  1  0  0  0  0
 11 31  1  0  0  0  0
 11 32  1  0  0  0  0
 12 17  1  0  0  0  0
 12 13  1  0  0  0  0
 12 45  1  0  0  0  0
 13 14  1  0  0  0  0
 13 33  1  0  0  0  0
 13 34  1  0  0  0  0
 14 15  1  0  0  0  0
 14 35  1  0  0  0  0
 14 36  1  0  0  0  0
 15 16  1  0  0  0  0
 15 37  1  0  0  0  0
 15 38  1  0  0  0  0
 16 17  1  0  0  0  0
 16 39  1  0  0  0  0
 16 40  1  0  0  0  0
 17 18  1  0  0  0  0
 17 41  1  0  0  0  0
 18 42  1  0  0  0  0
 18 43  1  0  0  0  0
 18 44  1  0  0  0  0
 19 20  1  0  0  0  0
M  CHG  1  12   1
M  END
> <s_m_source_file>
AV-unprocessed.smi

> <i_m_source_file_index>
1978

> <i_lp_mmshare_version>
43012

> <i_f3d_flags>
0

> <s_epik_input>
W0NIM11jMVtjSF1jKG5vMSlbTkhdQyg9TylbTkhdW0NIMl1bQ0BIXShbQ0gzXSlOMltDSDJdW0NIMl1bQ0gyXVtDSDJdW0NASF0yW0NIM10=

> <s_epik_cmdline>
J2VwaWtfcHl0aG9uJywgJy1waCcsICc3LjAnLCAnLXRuJywgJzgnLCAnLW1hJywgJzIwMCcsICctbWV0YWxfYmluZGluZycsICctaW1hZScsICc8aW5maWxlLm1hZT4nLCAnLW9tYWUnLCAnPG91dGZpbGUubWFlPic=

> <r_epik_Ionization_Penalty>
0.00265971

> <r_epik_Ionization_Penalty_Charging>
0.00262393

> <r_epik_Ionization_Penalty_Neutral>
3.57846e-05

> <r_epik_State_Penalty>
0.00182566

> <r_epik_Charging_Adjusted_Penalty>
0.00444959

> <i_epik_Tot_Q>
1

> <i_epik_Tot_abs_Q>
1

> <r_epik_Metal_State_Penalty>
0.0216344

> <b_epik_Metal_Only>
0

> <s_lp_Force_Field>
OPLS_2005

> <r_lp_Energy>
22.9601

> <b_lp_Chiralities_Consistent>
1

> <s_lp_Variant>
AV-unprocessed.smi:1978-2

> <Gold.Version>
5.8.1

> <Gold.Id.Protein>
6NUR|6NUR_protein|mol2

> <Gold.PLP.Fitness>
41.7590

> <Gold.PLP.PLP>
-29.9989

> <Gold.PLP.part.hbond>
-4.0342

> <Gold.PLP.part.metal>
0.0000

> <Gold.PLP.part.buried>
-2.4271

> <Gold.PLP.part.nonpolar>
-24.1293

> <Gold.PLP.part.repulsive>
0.3215

> <Gold.PLP.ligand.clash>
0.0000

> <Gold.PLP.ligand.torsion>
0.1605

> <Gold.PLP.Chemscore.Hbond>
4.0000

> <Gold.PLP.Chemscore.CHOScore>
0.0000

> <Gold.PLP.Chemscore.Metal>
0.0000

> <Gold.Chemscore.Hbonds>
donor molecule, donor type, donor heavy atom, donor atom, acceptor molecule, acceptor atom, score
      L1  H     5    25       P1 10175  1.00
      L1  H     8    26       P1 10175  1.00
      L1  H    12    45       P1  7948  2.00

> <Gold.PLP.Chemscore.Internal.Correction>
0.0811

> <Gold.Rescore>
     Score         DG    S(hbond)    S(metal)    S(lipo)     H(rot)  DE(clash)    DE(int)     intcor
     16.44     -18.07       2.84        0.00      60.49       1.55       0.07       1.56       ----

> <Gold.Chemscore.Fitness>
16.4394

> <Gold.Chemscore.DG>
-18.0738

> <Gold.Chemscore.ZeroCoef>
-5.4800

> <Gold.Chemscore.Hbond>
2.8377

> <Gold.Chemscore.Metal>
0.0000

> <Gold.Chemscore.Lipo>
60.4893

> <Gold.Chemscore.Internal_Hbond>
0.0000

> <Gold.Chemscore.DEClash>
0.0735

> <Gold.Chemscore.DEInternal>
1.5609

> <Gold.Chemscore.Rot>
1.5474

> <Gold.Chemscore.Internal.Correction>
   9.000000E+99

> <Gold.Chemscore.Hbonds>
donor molecule, donor type, donor heavy atom, donor atom, acceptor molecule, acceptor atom, score
      L1  H     5    25       P1 10175  0.33
      L1  H     8    26       P1 10175  0.99
      L1  H    12    45       P1  7948  0.98

> <Gold.Chemscore.Hbond.Weighted>
-9.4778

> <Gold.Chemscore.Metal.Weighted>
-0.0000

> <Gold.Chemscore.Lipo.Weighted>
-7.0772

> <Gold.Chemscore.Internal_Hbond.Weighted>
0.0000

> <Gold.Chemscore.DEClash.Weighted>
0.0735

> <Gold.Chemscore.DEInternal.Weighted>
1.5609

> <Gold.Chemscore.Rot.Weighted>
3.9612

> <Gold.Chemscore.Internal.Correction.Weighted>
   9.000000E+99

> <Gold.Protein.RotatedTorsions>
[ 6907 6896 6895 6894 ] final   -3.07 input  -60.11 | X-H torsion
[ 7974 7965 7964 7962 ] final -150.81 input  175.53 | X-H torsion
[ 8008 7997 7996 7995 ] final  -38.65 input   59.86 | X-H torsion
[ 10167 10162 10161 10158 ] final   -1.31 input  -65.29 | X-H torsion
[ 10718 10713 10712 10709 ] final -160.37 input   66.30 | X-H torsion
[ 10763 10752 10751 10750 ] final   79.96 input  -60.55 | X-H torsion
[ 11005 11000 10999 10996 ] final -107.45 input  -57.11 | X-H torsion

> <Gold.Protein.ActiveResidues>
 VAL166  LYS551  ARG553  GLY616  TRP617  ASP618  TYR619  PRO620  LYS621  CYS622 
 ASP623  PHE694  ASN695  SER759  ASP760  ASP761  ALA762  ILE779  LEU786  VAL792 
 PHE793  MET794  SER795  GLU796  ALA797  LYS798  CYS799  TRP800  GLU811  SER814 

> <Gold.Protein.RotatedAtoms>
  151.5196  135.1067  159.9874 H   0  0  0  0  0  0  0  0  0  0  0  0  # atno 6907 bound_to 6896
  152.4626  133.7850  159.6882 H   0  0  0  0  0  0  0  0  0  0  0  0  # atno 6908 bound_to 6896
  150.8595  133.7601  159.3022 H   0  0  0  0  0  0  0  0  0  0  0  0  # atno 6909 bound_to 6896
  144.7886  140.4881  143.5789 H   0  0  0  0  0  0  0  0  0  0  0  0  # atno 7974 bound_to 7965
  154.4034  140.1572  156.2735 H   0  0  0  0  0  0  0  0  0  0  0  0  # atno 8008 bound_to 7997
  155.8932  140.3437  155.5949 H   0  0  0  0  0  0  0  0  0  0  0  0  # atno 8009 bound_to 7997
  155.7534  140.0808  157.2181 H   0  0  0  0  0  0  0  0  0  0  0  0  # atno 8010 bound_to 7997
  140.6804  143.6791  150.8121 H   0  0  0  0  0  0  0  0  0  0  0  0  # atno 10167 bound_to 10162
  156.5812  130.8730  151.2865 H   0  0  0  0  0  0  0  0  0  0  0  0  # atno 10718 bound_to 10713
  153.0995  135.4820  154.8840 H   0  0  0  0  0  0  0  0  0  0  0  0  # atno 10763 bound_to 10752
  154.7362  135.3071  154.8809 H   0  0  0  0  0  0  0  0  0  0  0  0  # atno 10764 bound_to 10752
  153.9430  135.6832  153.4797 H   0  0  0  0  0  0  0  0  0  0  0  0  # atno 10765 bound_to 10752
  141.0953  133.8981  157.1977 H   0  0  0  0  0  0  0  0  0  0  0  0  # atno 11005 bound_to 11000
  145.5855  139.1492  143.3211 LP  0  0  0  0  0  0  0  0  0  0  0  0  # atno 17320 bound_to 7965
  146.2128  140.5983  142.9052 LP  0  0  0  0  0  0  0  0  0  0  0  0  # atno 17321 bound_to 7965
  140.0490  143.5269  152.2682 LP  0  0  0  0  0  0  0  0  0  0  0  0  # atno 17342 bound_to 10162
  139.6124  144.7611  151.2923 LP  0  0  0  0  0  0  0  0  0  0  0  0  # atno 17343 bound_to 10162
  157.7326  130.9717  150.1936 LP  0  0  0  0  0  0  0  0  0  0  0  0  # atno 17370 bound_to 10713
  156.2630  130.3713  149.8111 LP  0  0  0  0  0  0  0  0  0  0  0  0  # atno 17371 bound_to 10713
  139.9789  135.0105  156.9699 LP  0  0  0  0  0  0  0  0  0  0  0  0  # atno 17394 bound_to 11000
  140.5154  134.0960  155.7279 LP  0  0  0  0  0  0  0  0  0  0  0  0  # atno 17395 bound_to 11000

$$$$
