AV-unprocessed.smi:21|AV-procd|sdf|121|dock8
  -GOLD-   2262015293D 1   1.00000     0.00000
 Structure written by MMmdl.
 62 65  0  0  0  0  0  0  0  0  2 V2000
  146.0361  130.3946  151.8369 C   0  0  0  0  0  0  0  0  0  0  0  0
  146.3667  131.2593  152.9115 O   0  0  0  0  0  0  0  0  0  0  0  0
  145.7661  132.5418  152.8116 C   0  0  1  0  0  0  0  0  0  0  0  0
  146.0849  133.3758  154.0446 C   0  0  0  0  0  0  0  0  0  0  0  0
  145.8834  134.8109  153.5507 C   0  0  1  0  0  0  0  0  0  0  0  0
  146.6593  135.8581  154.3773 C   0  0  0  0  0  0  0  0  0  0  0  0
  146.1157  137.2101  154.2681 N   0  0  0  0  0  0  0  0  0  0  0  0
  144.8048  137.4119  154.8686 C   0  0  0  0  0  0  0  0  0  0  0  0
  146.9789  138.1927  154.6064 C   0  0  0  0  0  0  0  0  0  0  0  0
  147.3708  139.0400  153.6238 N   0  0  0  0  0  0  0  0  0  0  0  0
  148.2317  140.0254  153.8971 C   0  0  0  0  0  0  0  0  0  0  0  0
  148.8081  140.3317  155.0618 N   0  0  0  0  0  0  0  0  0  0  0  0
  148.4124  139.4802  156.0512 C   0  0  0  0  0  0  0  0  0  0  0  0
  147.5084  138.3905  155.9124 C   0  0  0  0  0  0  0  0  0  0  0  0
  147.3472  137.7472  157.1337 N   0  0  0  0  0  0  0  0  0  0  0  0
  148.1044  138.4262  157.9521 C   0  0  0  0  0  0  0  0  0  0  0  0
  148.7769  139.4856  157.3861 N   0  0  0  0  0  0  0  0  0  0  0  0
  149.6787  140.3991  158.0669 C   0  0  0  0  0  0  0  0  0  0  0  0
  151.1218  140.3701  157.5022 C   0  0  2  0  0  0  0  0  0  0  0  0
  151.7818  138.9857  157.7333 C   0  0  0  0  0  0  0  0  0  0  0  0
  153.1033  138.9403  157.2387 O   0  0  0  0  0  0  0  0  0  0  0  0
  151.9644  141.5294  158.1037 C   0  0  2  0  0  0  0  0  0  0  0  0
  152.1647  141.4621  159.6095 C   0  0  0  0  0  0  0  0  0  0  0  0
  152.5877  142.8858  159.9535 C   0  0  0  0  0  0  0  0  0  0  0  0
  151.9394  143.7218  159.0034 O   0  0  0  0  0  0  0  0  0  0  0  0
  151.3462  142.9272  157.9821 C   0  0  0  0  0  0  0  0  0  0  0  0
  146.3300  134.7983  152.1380 N   0  3  2  0  0  0  0  0  0  0  0  0
  145.5789  135.7220  151.2598 C   0  0  0  0  0  0  0  0  0  0  0  0
  146.3337  133.3925  151.6675 C   0  0  0  0  0  0  0  0  0  0  0  0
  144.6817  132.4577  152.7162 H   0  0  0  0  0  0  0  0  0  0  0  0
  144.8131  135.0268  153.5618 H   0  0  0  0  0  0  0  0  0  0  0  0
  146.5127  129.4262  151.9890 H   0  0  0  0  0  0  0  0  0  0  0  0
  146.3838  130.7903  150.8822 H   0  0  0  0  0  0  0  0  0  0  0  0
  144.9591  130.2323  151.7781 H   0  0  0  0  0  0  0  0  0  0  0  0
  145.4527  133.1264  154.8974 H   0  0  0  0  0  0  0  0  0  0  0  0
  147.1239  133.2197  154.3398 H   0  0  0  0  0  0  0  0  0  0  0  0
  146.6542  135.5662  155.4282 H   0  0  0  0  0  0  0  0  0  0  0  0
  147.7066  135.8693  154.0745 H   0  0  0  0  0  0  0  0  0  0  0  0
  144.4758  138.4462  154.7575 H   0  0  0  0  0  0  0  0  0  0  0  0
  144.8183  137.1669  155.9313 H   0  0  0  0  0  0  0  0  0  0  0  0
  144.0667  136.7732  154.3831 H   0  0  0  0  0  0  0  0  0  0  0  0
  148.4952  140.6608  153.0642 H   0  0  0  0  0  0  0  0  0  0  0  0
  148.1920  138.1745  158.9993 H   0  0  0  0  0  0  0  0  0  0  0  0
  149.2456  141.3949  157.9771 H   0  0  0  0  0  0  0  0  0  0  0  0
  149.6850  140.1614  159.1313 H   0  0  0  0  0  0  0  0  0  0  0  0
  151.0457  140.5289  156.4251 H   0  0  0  0  0  0  0  0  0  0  0  0
  151.7770  138.7263  158.7923 H   0  0  0  0  0  0  0  0  0  0  0  0
  151.2440  138.1932  157.2156 H   0  0  0  0  0  0  0  0  0  0  0  0
  153.5232  138.1631  157.5746 H   0  0  0  0  0  0  0  0  0  0  0  0
  152.9472  141.5444  157.6289 H   0  0  0  0  0  0  0  0  0  0  0  0
  151.2245  141.2212  160.1081 H   0  0  0  0  0  0  0  0  0  0  0  0
  152.9119  140.7296  159.9160 H   0  0  0  0  0  0  0  0  0  0  0  0
  152.3247  143.1631  160.9744 H   0  0  0  0  0  0  0  0  0  0  0  0
  153.6659  143.0011  159.8375 H   0  0  0  0  0  0  0  0  0  0  0  0
  151.5117  143.3745  157.0019 H   0  0  0  0  0  0  0  0  0  0  0  0
  150.2709  142.8913  158.1616 H   0  0  0  0  0  0  0  0  0  0  0  0
  144.5286  135.4350  151.1931 H   0  0  0  0  0  0  0  0  0  0  0  0
  145.9996  135.7168  150.2539 H   0  0  0  0  0  0  0  0  0  0  0  0
  145.6314  136.7428  151.6397 H   0  0  0  0  0  0  0  0  0  0  0  0
  147.3694  133.1160  151.4663 H   0  0  0  0  0  0  0  0  0  0  0  0
  145.7713  133.2500  150.7435 H   0  0  0  0  0  0  0  0  0  0  0  0
  147.2946  135.0980  152.1344 H   0  0  0  0  0  0  0  0  0  0  0  0
  1  2  1  0  0  0  0
  1 32  1  0  0  0  0
  1 33  1  0  0  0  0
  1 34  1  0  0  0  0
  2  3  1  0  0  0  0
  3 30  1  0  0  0  0
  3 29  1  0  0  0  0
  3  4  1  0  0  0  0
  4  5  1  0  0  0  0
  4 35  1  0  0  0  0
  4 36  1  0  0  0  0
  5 31  1  0  0  0  0
  5  6  1  0  0  0  0
  5 27  1  0  0  0  0
  6  7  1  0  0  0  0
  6 37  1  0  0  0  0
  6 38  1  0  0  0  0
  7  8  1  0  0  0  0
  7  9  1  0  0  0  0
  8 39  1  0  0  0  0
  8 40  1  0  0  0  0
  8 41  1  0  0  0  0
  9 14  1  0  0  0  0
  9 10  2  0  0  0  0
 10 11  1  0  0  0  0
 11 12  2  0  0  0  0
 11 42  1  0  0  0  0
 12 13  1  0  0  0  0
 13 17  1  0  0  0  0
 13 14  2  0  0  0  0
 14 15  1  0  0  0  0
 15 16  2  0  0  0  0
 16 17  1  0  0  0  0
 16 43  1  0  0  0  0
 17 18  1  0  0  0  0
 18 19  1  0  0  0  0
 18 44  1  0  0  0  0
 18 45  1  0  0  0  0
 19 20  1  0  0  0  0
 19 22  1  0  0  0  0
 19 46  1  0  0  0  0
 20 21  1  0  0  0  0
 20 47  1  0  0  0  0
 20 48  1  0  0  0  0
 21 49  1  0  0  0  0
 22 26  1  0  0  0  0
 22 23  1  0  0  0  0
 22 50  1  0  0  0  0
 23 24  1  0  0  0  0
 23 51  1  0  0  0  0
 23 52  1  0  0  0  0
 24 25  1  0  0  0  0
 24 53  1  0  0  0  0
 24 54  1  0  0  0  0
 25 26  1  0  0  0  0
 26 55  1  0  0  0  0
 26 56  1  0  0  0  0
 27 28  1  0  0  0  0
 27 29  1  0  0  0  0
 27 62  1  0  0  0  0
 28 57  1  0  0  0  0
 28 58  1  0  0  0  0
 28 59  1  0  0  0  0
 29 60  1  0  0  0  0
 29 61  1  0  0  0  0
M  CHG  1  27   1
M  END
> <s_m_source_file>
AV-unprocessed.smi

> <i_m_source_file_index>
21

> <i_lp_mmshare_version>
43012

> <i_f3d_flags>
0

> <s_epik_input>
W0NIM11PW0NASF0xW0NIMl1bQ0BIXShOKFtDSDNdKVtDSDJdMSlbQ0gyXU4oW0NIM10pYyhuW2NIXW4yKWMoYzIzKW5bY0hdbjNbQ0gyXVtDQEhdKFtDSDJdW09IXSlbQ0BASF00W0NIMl1bQ0gyXU9bQ0gyXTQ=

> <s_epik_cmdline>
J2VwaWtfcHl0aG9uJywgJy1waCcsICc3LjAnLCAnLXRuJywgJzgnLCAnLW1hJywgJzIwMCcsICctbWV0YWxfYmluZGluZycsICctaW1hZScsICc8aW5maWxlLm1hZT4nLCAnLW9tYWUnLCAnPG91dGZpbGUubWFlPic=

> <r_lp_tautomer_probability>
1

> <r_epik_Ionization_Penalty>
0.0157465

> <r_epik_Ionization_Penalty_Charging>
0.015354

> <r_epik_Ionization_Penalty_Neutral>
0.000392529

> <r_epik_State_Penalty>
0.0120612

> <r_epik_Charging_Adjusted_Penalty>
0.0274152

> <i_epik_Tot_Q>
1

> <i_epik_Tot_abs_Q>
1

> <r_epik_Metal_State_Penalty>
0.0121253

> <b_epik_Metal_Only>
0

> <s_lp_Force_Field>
OPLS_2005

> <r_lp_Energy>
60.2547

> <b_lp_Chiralities_Consistent>
1

> <s_lp_Variant>
AV-unprocessed.smi:21-1

> <Gold.Version>
5.8.1

> <Gold.Id.Protein>
6NUR|6NUR_protein|mol2

> <Gold.PLP.Fitness>
43.1888

> <Gold.PLP.PLP>
-31.8193

> <Gold.PLP.part.hbond>
-2.0000

> <Gold.PLP.part.metal>
0.0000

> <Gold.PLP.part.buried>
-6.1033

> <Gold.PLP.part.nonpolar>
-24.7756

> <Gold.PLP.part.repulsive>
0.6057

> <Gold.PLP.ligand.clash>
0.0000

> <Gold.PLP.ligand.torsion>
0.5271

> <Gold.PLP.Chemscore.Hbond>
3.0000

> <Gold.PLP.Chemscore.CHOScore>
0.8770

> <Gold.PLP.Chemscore.Metal>
0.0000

> <Gold.Chemscore.Hbonds>
donor molecule, donor type, donor heavy atom, donor atom, acceptor molecule, acceptor atom, score
      L1  H    27    62       P1  7948  2.00
      P1  H  7997  8008       L1    21  1.00
      L1  C    11    42       P1  7957  0.95

> <Gold.PLP.Chemscore.Internal.Correction>
0.7926

> <Gold.Rescore>
     Score         DG    S(hbond)    S(metal)    S(lipo)     H(rot)  DE(clash)    DE(int)     intcor
     12.56     -13.17       1.95        0.00      83.39       3.35       0.03       0.57       ----

> <Gold.Chemscore.Fitness>
12.5648

> <Gold.Chemscore.DG>
-13.1691

> <Gold.Chemscore.ZeroCoef>
-5.4800

> <Gold.Chemscore.Hbond>
1.9451

> <Gold.Chemscore.Metal>
0.0000

> <Gold.Chemscore.Lipo>
83.3857

> <Gold.Chemscore.Internal_Hbond>
0.0000

> <Gold.Chemscore.DEClash>
0.0329

> <Gold.Chemscore.DEInternal>
0.5715

> <Gold.Chemscore.Rot>
3.3452

> <Gold.Chemscore.Internal.Correction>
   9.000000E+99

> <Gold.Chemscore.Hbonds>
donor molecule, donor type, donor heavy atom, donor atom, acceptor molecule, acceptor atom, score
      L1  H    27    62       P1  7948  0.95
      P1  H  7997  8008       L1    21  0.73

> <Gold.Chemscore.Hbond.Weighted>
-6.4966

> <Gold.Chemscore.Metal.Weighted>
-0.0000

> <Gold.Chemscore.Lipo.Weighted>
-9.7561

> <Gold.Chemscore.Internal_Hbond.Weighted>
0.0000

> <Gold.Chemscore.DEClash.Weighted>
0.0329

> <Gold.Chemscore.DEInternal.Weighted>
0.5715

> <Gold.Chemscore.Rot.Weighted>
8.5636

> <Gold.Chemscore.Internal.Correction.Weighted>
   9.000000E+99

> <Gold.Protein.RotatedTorsions>
[ 6907 6896 6895 6894 ] final -118.78 input  -60.11 | X-H torsion
[ 7974 7965 7964 7962 ] final  -11.35 input  175.53 | X-H torsion
[ 8008 7997 7996 7995 ] final  -51.58 input   59.86 | X-H torsion
[ 10167 10162 10161 10158 ] final   90.50 input  -65.29 | X-H torsion
[ 10718 10713 10712 10709 ] final   54.31 input   66.30 | X-H torsion
[ 10763 10752 10751 10750 ] final -110.00 input  -60.55 | X-H torsion
[ 11005 11000 10999 10996 ] final   -9.70 input  -57.11 | X-H torsion

> <Gold.Protein.ActiveResidues>
 VAL166  LYS551  ARG553  GLY616  TRP617  ASP618  TYR619  PRO620  LYS621  CYS622 
 ASP623  PHE694  ASN695  SER759  ASP760  ASP761  ALA762  ILE779  LEU786  VAL792 
 PHE793  MET794  SER795  GLU796  ALA797  LYS798  CYS799  TRP800  GLU811  SER814 

> <Gold.Protein.RotatedAtoms>
  150.8249  133.8190  159.3122 H   0  0  0  0  0  0  0  0  0  0  0  0  # atno 6907 bound_to 6896
  151.5937  135.1050  160.0054 H   0  0  0  0  0  0  0  0  0  0  0  0  # atno 6908 bound_to 6896
  152.4335  133.7277  159.6626 H   0  0  0  0  0  0  0  0  0  0  0  0  # atno 6909 bound_to 6896
  146.2190  140.2898  142.8367 H   0  0  0  0  0  0  0  0  0  0  0  0  # atno 7974 bound_to 7965
  154.4086  140.1244  156.4852 H   0  0  0  0  0  0  0  0  0  0  0  0  # atno 8008 bound_to 7997
  155.7045  140.3494  155.4927 H   0  0  0  0  0  0  0  0  0  0  0  0  # atno 8009 bound_to 7997
  155.9356  140.1077  157.1087 H   0  0  0  0  0  0  0  0  0  0  0  0  # atno 8010 bound_to 7997
  139.8467  144.6614  150.9218 H   0  0  0  0  0  0  0  0  0  0  0  0  # atno 10167 bound_to 10162
  157.5246  130.8588  149.8604 H   0  0  0  0  0  0  0  0  0  0  0  0  # atno 10718 bound_to 10713
  154.8224  135.4580  154.0819 H   0  0  0  0  0  0  0  0  0  0  0  0  # atno 10763 bound_to 10752
  153.2161  135.6888  153.8062 H   0  0  0  0  0  0  0  0  0  0  0  0  # atno 10764 bound_to 10752
  153.7496  135.3300  155.3295 H   0  0  0  0  0  0  0  0  0  0  0  0  # atno 10765 bound_to 10752
  140.7369  133.8702  155.8937 H   0  0  0  0  0  0  0  0  0  0  0  0  # atno 11005 bound_to 11000
  144.9135  140.7785  143.5792 LP  0  0  0  0  0  0  0  0  0  0  0  0  # atno 17320 bound_to 7965
  145.2830  139.1911  143.4781 LP  0  0  0  0  0  0  0  0  0  0  0  0  # atno 17321 bound_to 7965
  140.7792  143.3863  151.1387 LP  0  0  0  0  0  0  0  0  0  0  0  0  # atno 17342 bound_to 10162
  139.7505  143.8786  152.3075 LP  0  0  0  0  0  0  0  0  0  0  0  0  # atno 17343 bound_to 10162
  156.0377  130.3747  150.1516 LP  0  0  0  0  0  0  0  0  0  0  0  0  # atno 17370 bound_to 10713
  156.9703  130.9832  151.3460 LP  0  0  0  0  0  0  0  0  0  0  0  0  # atno 17371 bound_to 10713
  140.9871  134.1328  157.4442 LP  0  0  0  0  0  0  0  0  0  0  0  0  # atno 17394 bound_to 11000
  139.8814  135.0029  156.6154 LP  0  0  0  0  0  0  0  0  0  0  0  0  # atno 17395 bound_to 11000

$$$$
