AV-unprocessed.smi:1432|AV-procd|sdf|5834|dock9
  -GOLD-   22720 5493D 1   1.00000     0.00000
 Structure written by MMmdl.
 47 48  0  0  0  0  0  0  0  0  2 V2000
  145.7362  137.1357  152.4029 C   0  0  0  0  0  0  0  0  0  0  0  0
  145.7717  135.6024  152.5739 C   0  0  1  0  0  0  0  0  0  0  0  0
  145.8041  134.9544  151.1697 C   0  0  0  0  0  0  0  0  0  0  0  0
  145.8701  133.4257  151.2312 C   0  0  0  0  0  0  0  0  0  0  0  0
  147.0638  133.0012  152.0870 C   0  0  0  0  0  0  0  0  0  0  0  0
  146.9653  133.6368  153.4792 C   0  0  0  0  0  0  0  0  0  0  0  0
  146.9271  135.1244  153.4015 N   0  3  2  0  0  0  0  0  0  0  0  0
  147.0334  135.7374  154.7582 C   0  0  0  0  0  0  0  0  0  0  0  0
  148.2665  135.2542  155.5530 C   0  0  0  0  0  0  0  0  0  0  0  0
  148.2585  135.7555  156.9253 N   0  0  0  0  0  0  0  0  0  0  0  0
  148.9251  135.2128  157.9556 C   0  0  0  0  0  0  0  0  0  0  0  0
  149.5694  134.1674  157.8700 O   0  0  0  0  0  0  0  0  0  0  0  0
  148.8667  135.9776  159.2835 C   0  0  0  0  0  0  0  0  0  0  0  0
  148.1288  135.2355  160.3199 N   0  0  0  0  0  0  0  0  0  0  0  0
  147.9977  133.8432  160.1497 C   0  0  0  0  0  0  0  0  0  0  0  0
  147.3657  133.0529  161.0390 C   0  0  0  0  0  0  0  0  0  0  0  0
  147.1946  131.5594  160.8084 C   0  0  0  0  0  0  0  0  0  0  0  0
  146.4312  131.0146  161.7560 F   0  0  0  0  0  0  0  0  0  0  0  0
  146.6326  131.3127  159.6245 F   0  0  0  0  0  0  0  0  0  0  0  0
  148.3831  130.9585  160.8377 F   0  0  0  0  0  0  0  0  0  0  0  0
  146.7824  133.7137  162.1897 C   0  0  0  0  0  0  0  0  0  0  0  0
  146.8937  135.0450  162.3655 C   0  0  0  0  0  0  0  0  0  0  0  0
  147.6047  135.8873  161.4018 C   0  0  0  0  0  0  0  0  0  0  0  0
  147.7266  137.1029  161.5576 O   0  0  0  0  0  0  0  0  0  0  0  0
  145.0077  137.4249  151.6449 H   0  0  0  0  0  0  0  0  0  0  0  0
  146.7048  137.5257  152.0891 H   0  0  0  0  0  0  0  0  0  0  0  0
  145.4370  137.6516  153.3142 H   0  0  0  0  0  0  0  0  0  0  0  0
  144.8508  135.2943  153.0721 H   0  0  0  0  0  0  0  0  0  0  0  0
  144.9221  135.2510  150.6006 H   0  0  0  0  0  0  0  0  0  0  0  0
  146.6644  135.3259  150.6117 H   0  0  0  0  0  0  0  0  0  0  0  0
  144.9467  133.0303  151.6568 H   0  0  0  0  0  0  0  0  0  0  0  0
  145.9572  133.0097  150.2269 H   0  0  0  0  0  0  0  0  0  0  0  0
  147.0939  131.9145  152.1727 H   0  0  0  0  0  0  0  0  0  0  0  0
  147.9961  133.3031  151.6066 H   0  0  0  0  0  0  0  0  0  0  0  0
  146.0715  133.2771  153.9914 H   0  0  0  0  0  0  0  0  0  0  0  0
  147.8144  133.3029  154.0731 H   0  0  0  0  0  0  0  0  0  0  0  0
  147.1289  136.8177  154.6931 H   0  0  0  0  0  0  0  0  0  0  0  0
  146.1177  135.5538  155.3220 H   0  0  0  0  0  0  0  0  0  0  0  0
  148.2612  134.1649  155.5950 H   0  0  0  0  0  0  0  0  0  0  0  0
  149.1935  135.5216  155.0446 H   0  0  0  0  0  0  0  0  0  0  0  0
  147.7401  136.6057  157.0950 H   0  0  0  0  0  0  0  0  0  0  0  0
  149.8770  136.1955  159.6364 H   0  0  0  0  0  0  0  0  0  0  0  0
  148.4108  136.9505  159.0947 H   0  0  0  0  0  0  0  0  0  0  0  0
  148.4499  133.4547  159.2486 H   0  0  0  0  0  0  0  0  0  0  0  0
  146.2509  133.1299  162.9268 H   0  0  0  0  0  0  0  0  0  0  0  0
  146.4492  135.5028  163.2368 H   0  0  0  0  0  0  0  0  0  0  0  0
  147.7580  135.4103  152.9027 H   0  0  0  0  0  0  0  0  0  0  0  0
  1  2  1  0  0  0  0
  1 25  1  0  0  0  0
  1 26  1  0  0  0  0
  1 27  1  0  0  0  0
  2  7  1  0  0  0  0
  2  3  1  0  0  0  0
  2 28  1  0  0  0  0
  3  4  1  0  0  0  0
  3 29  1  0  0  0  0
  3 30  1  0  0  0  0
  4  5  1  0  0  0  0
  4 31  1  0  0  0  0
  4 32  1  0  0  0  0
  5  6  1  0  0  0  0
  5 33  1  0  0  0  0
  5 34  1  0  0  0  0
  6  7  1  0  0  0  0
  6 35  1  0  0  0  0
  6 36  1  0  0  0  0
  7  8  1  0  0  0  0
  7 47  1  0  0  0  0
  8  9  1  0  0  0  0
  8 37  1  0  0  0  0
  8 38  1  0  0  0  0
  9 10  1  0  0  0  0
  9 39  1  0  0  0  0
  9 40  1  0  0  0  0
 10 11  1  0  0  0  0
 10 41  1  0  0  0  0
 11 12  2  0  0  0  0
 11 13  1  0  0  0  0
 13 14  1  0  0  0  0
 13 42  1  0  0  0  0
 13 43  1  0  0  0  0
 14 23  1  0  0  0  0
 14 15  1  0  0  0  0
 15 16  2  0  0  0  0
 15 44  1  0  0  0  0
 16 17  1  0  0  0  0
 16 21  1  0  0  0  0
 17 18  1  0  0  0  0
 17 19  1  0  0  0  0
 17 20  1  0  0  0  0
 21 22  2  0  0  0  0
 21 45  1  0  0  0  0
 22 23  1  0  0  0  0
 22 46  1  0  0  0  0
 23 24  2  0  0  0  0
M  CHG  1   7   1
M  END
> <s_m_source_file>
AV-unprocessed.smi

> <i_m_source_file_index>
1432

> <i_lp_mmshare_version>
43012

> <i_f3d_flags>
0

> <s_epik_input>
W0NIM11bQ0BASF0xW0NIMl1bQ0gyXVtDSDJdW0NIMl1OMVtDSDJdW0NIMl1bTkhdQyg9TylbQ0gyXW4yW2NIXWMoQyhGKShGKUYpW2NIXVtjSF1jMj1P

> <s_epik_cmdline>
J2VwaWtfcHl0aG9uJywgJy1waCcsICc3LjAnLCAnLXRuJywgJzgnLCAnLW1hJywgJzIwMCcsICctbWV0YWxfYmluZGluZycsICctaW1hZScsICc8aW5maWxlLm1hZT4nLCAnLW9tYWUnLCAnPG91dGZpbGUubWFlPic=

> <r_lp_tautomer_probability>
1

> <r_epik_Ionization_Penalty>
0.00237222

> <r_epik_Ionization_Penalty_Charging>
0.00237213

> <r_epik_Ionization_Penalty_Neutral>
8.2065e-08

> <r_epik_State_Penalty>
0.00163922

> <r_epik_Charging_Adjusted_Penalty>
0.00401135

> <i_epik_Tot_Q>
1

> <i_epik_Tot_abs_Q>
1

> <r_epik_Metal_State_Penalty>
-0

> <b_epik_Metal_Only>
0

> <s_lp_Force_Field>
OPLS_2005

> <r_lp_Energy>
36.6546

> <b_lp_Chiralities_Consistent>
1

> <s_lp_Variant>
AV-unprocessed.smi:1432-4

> <Gold.Version>
5.8.1

> <Gold.Id.Protein>
6NUR|6NUR_protein|mol2

> <Gold.PLP.Fitness>
51.2138

> <Gold.PLP.PLP>
-38.0280

> <Gold.PLP.part.hbond>
-4.0000

> <Gold.PLP.part.metal>
0.0000

> <Gold.PLP.part.buried>
-4.4684

> <Gold.PLP.part.nonpolar>
-29.6778

> <Gold.PLP.part.repulsive>
0.0030

> <Gold.PLP.ligand.clash>
0.0827

> <Gold.PLP.ligand.torsion>
0.5896

> <Gold.PLP.Chemscore.Hbond>
4.7760

> <Gold.PLP.Chemscore.CHOScore>
0.0000

> <Gold.PLP.Chemscore.Metal>
0.0000

> <Gold.Chemscore.Hbonds>
donor molecule, donor type, donor heavy atom, donor atom, acceptor molecule, acceptor atom, score
      L1  H     7    47       P1  7948  2.00
      P1  H  6896  6908       L1    12  1.00
      P1  H  6931  6943       L1    24  1.00
      P1  H  6934  6947       L1    24  0.66

> <Gold.PLP.Chemscore.Internal.Correction>
0.1197

> <Gold.Rescore>
     Score         DG    S(hbond)    S(metal)    S(lipo)     H(rot)  DE(clash)    DE(int)     intcor
     19.00     -20.85       3.67        0.00      71.98       2.08       0.00       1.85       ----

> <Gold.Chemscore.Fitness>
18.9968

> <Gold.Chemscore.DG>
-20.8547

> <Gold.Chemscore.ZeroCoef>
-5.4800

> <Gold.Chemscore.Hbond>
3.6732

> <Gold.Chemscore.Metal>
0.0000

> <Gold.Chemscore.Lipo>
71.9772

> <Gold.Chemscore.Internal_Hbond>
0.0000

> <Gold.Chemscore.DEClash>
0.0030

> <Gold.Chemscore.DEInternal>
1.8549

> <Gold.Chemscore.Rot>
2.0762

> <Gold.Chemscore.Internal.Correction>
   9.000000E+99

> <Gold.Chemscore.Hbonds>
donor molecule, donor type, donor heavy atom, donor atom, acceptor molecule, acceptor atom, score
      L1  H     7    47       P1  7948  1.00
      P1  H  6896  6908       L1    12  0.65
      P1  H  6931  6943       L1    24  0.97
      P1  H  6934  6947       L1    24  0.64

> <Gold.Chemscore.Hbond.Weighted>
-12.2684

> <Gold.Chemscore.Metal.Weighted>
-0.0000

> <Gold.Chemscore.Lipo.Weighted>
-8.4213

> <Gold.Chemscore.Internal_Hbond.Weighted>
0.0000

> <Gold.Chemscore.DEClash.Weighted>
0.0030

> <Gold.Chemscore.DEInternal.Weighted>
1.8549

> <Gold.Chemscore.Rot.Weighted>
5.3150

> <Gold.Chemscore.Internal.Correction.Weighted>
   9.000000E+99

> <Gold.Protein.RotatedTorsions>
[ 6907 6896 6895 6894 ] final  137.52 input  -60.11 | X-H torsion
[ 7974 7965 7964 7962 ] final   71.14 input  175.53 | X-H torsion
[ 8008 7997 7996 7995 ] final   76.29 input   59.86 | X-H torsion
[ 10167 10162 10161 10158 ] final -117.86 input  -65.29 | X-H torsion
[ 10718 10713 10712 10709 ] final   -0.62 input   66.30 | X-H torsion
[ 10763 10752 10751 10750 ] final  -42.46 input  -60.55 | X-H torsion
[ 11005 11000 10999 10996 ] final  120.90 input  -57.11 | X-H torsion

> <Gold.Protein.ActiveResidues>
 VAL166  LYS551  ARG553  GLY616  TRP617  ASP618  TYR619  PRO620  LYS621  CYS622 
 ASP623  PHE694  ASN695  SER759  ASP760  ASP761  ALA762  ILE779  LEU786  VAL792 
 PHE793  MET794  SER795  GLU796  ALA797  LYS798  CYS799  TRP800  GLU811  SER814 

> <Gold.Protein.RotatedAtoms>
  152.2771  133.5435  159.5474 H   0  0  0  0  0  0  0  0  0  0  0  0  # atno 6907 bound_to 6896
  150.7181  134.0617  159.3842 H   0  0  0  0  0  0  0  0  0  0  0  0  # atno 6908 bound_to 6896
  151.8529  135.0551  160.0512 H   0  0  0  0  0  0  0  0  0  0  0  0  # atno 6909 bound_to 6896
  145.7695  139.2837  143.1329 H   0  0  0  0  0  0  0  0  0  0  0  0  # atno 7974 bound_to 7965
  155.8252  140.3468  155.5538 H   0  0  0  0  0  0  0  0  0  0  0  0  # atno 8008 bound_to 7997
  155.8300  140.0925  157.1818 H   0  0  0  0  0  0  0  0  0  0  0  0  # atno 8009 bound_to 7997
  154.4004  140.1414  156.3590 H   0  0  0  0  0  0  0  0  0  0  0  0  # atno 8010 bound_to 7997
  140.0638  143.4943  152.2017 H   0  0  0  0  0  0  0  0  0  0  0  0  # atno 10167 bound_to 10162
  156.8177  130.5445  149.5701 H   0  0  0  0  0  0  0  0  0  0  0  0  # atno 10718 bound_to 10713
  153.9794  135.6719  153.4749 H   0  0  0  0  0  0  0  0  0  0  0  0  # atno 10763 bound_to 10752
  153.0755  135.4951  154.8392 H   0  0  0  0  0  0  0  0  0  0  0  0  # atno 10764 bound_to 10752
  154.7173  135.3109  154.9065 H   0  0  0  0  0  0  0  0  0  0  0  0  # atno 10765 bound_to 10752
  139.9204  134.9637  156.7876 H   0  0  0  0  0  0  0  0  0  0  0  0  # atno 11005 bound_to 11000
  146.0184  140.8371  142.9936 LP  0  0  0  0  0  0  0  0  0  0  0  0  # atno 17320 bound_to 7965
  144.6815  140.2592  143.7321 LP  0  0  0  0  0  0  0  0  0  0  0  0  # atno 17321 bound_to 7965
  139.5878  144.7538  151.3477 LP  0  0  0  0  0  0  0  0  0  0  0  0  # atno 17342 bound_to 10162
  140.7159  143.7267  150.7654 LP  0  0  0  0  0  0  0  0  0  0  0  0  # atno 17343 bound_to 10162
  156.1007  130.5967  150.9889 LP  0  0  0  0  0  0  0  0  0  0  0  0  # atno 17370 bound_to 10713
  157.6473  131.0902  150.8126 LP  0  0  0  0  0  0  0  0  0  0  0  0  # atno 17371 bound_to 10713
  140.6493  133.9746  155.7747 LP  0  0  0  0  0  0  0  0  0  0  0  0  # atno 17394 bound_to 11000
  141.0719  134.0193  157.3514 LP  0  0  0  0  0  0  0  0  0  0  0  0  # atno 17395 bound_to 11000

$$$$
