AV-unprocessed.smi:2439|AV-procd|sdf|9605|dock3
  -GOLD-   2272013233D 1   1.00000     0.00000
 Structure written by MMmdl.
 41 43  0  0  0  0  0  0  0  0  2 V2000
  154.2289  139.9249  160.6224 N   0  0  0  0  0  0  0  0  0  0  0  0
  153.5247  140.5770  159.9764 C   0  0  0  0  0  0  0  0  0  0  0  0
  152.6367  141.3989  159.1632 C   0  0  0  0  0  0  0  0  0  0  0  0
  152.3640  142.7207  159.5739 C   0  0  0  0  0  0  0  0  0  0  0  0
  151.5093  143.5191  158.7922 C   0  0  0  0  0  0  0  0  0  0  0  0
  150.9579  142.9600  157.6254 C   0  0  0  0  0  0  0  0  0  0  0  0
  151.2106  141.6975  157.2211 N   0  0  0  0  0  0  0  0  0  0  0  0
  152.0335  140.9211  157.9685 C   0  0  0  0  0  0  0  0  0  0  0  0
  152.2770  139.6081  157.5231 N   0  0  0  0  0  0  0  0  0  0  0  0
  152.1053  139.2181  156.1283 C   0  0  0  0  0  0  0  0  0  0  0  0
  150.6295  139.2213  155.6934 C   0  0  2  0  0  0  0  0  0  0  0  0
  150.3411  138.0997  154.6714 C   0  0  0  0  0  0  0  0  0  0  0  0
  148.9526  138.1746  154.1552 N   0  3  1  0  0  0  0  0  0  0  0  0
  147.9369  137.6511  155.1091 C   0  0  0  0  0  0  0  0  0  0  0  0
  146.5284  137.6852  154.4985 C   0  0  0  0  0  0  0  0  0  0  0  0
  146.1649  139.1075  154.0579 C   0  0  0  0  0  0  0  0  0  0  0  0
  147.2193  139.6342  153.0750 C   0  0  0  0  0  0  0  0  0  0  0  0
  148.6541  139.5384  153.6368 C   0  0  1  0  0  0  0  0  0  0  0  0
  148.9843  140.6093  154.6975 C   0  0  0  0  0  0  0  0  0  0  0  0
  150.3473  140.4789  155.0857 O   0  0  0  0  0  0  0  0  0  0  0  0
  152.8021  143.1229  160.4762 H   0  0  0  0  0  0  0  0  0  0  0  0
  151.2813  144.5345  159.0811 H   0  0  0  0  0  0  0  0  0  0  0  0
  150.2972  143.5412  156.9993 H   0  0  0  0  0  0  0  0  0  0  0  0
  152.6656  138.9320  158.1654 H   0  0  0  0  0  0  0  0  0  0  0  0
  152.6780  139.9047  155.5044 H   0  0  0  0  0  0  0  0  0  0  0  0
  152.5450  138.2323  155.9728 H   0  0  0  0  0  0  0  0  0  0  0  0
  149.9948  139.0913  156.5704 H   0  0  0  0  0  0  0  0  0  0  0  0
  151.0244  138.1923  153.8260 H   0  0  0  0  0  0  0  0  0  0  0  0
  150.5255  137.1185  155.1107 H   0  0  0  0  0  0  0  0  0  0  0  0
  148.1901  136.6248  155.3771 H   0  0  0  0  0  0  0  0  0  0  0  0
  147.9453  138.2261  156.0351 H   0  0  0  0  0  0  0  0  0  0  0  0
  146.4800  137.0090  153.6436 H   0  0  0  0  0  0  0  0  0  0  0  0
  145.7991  137.3218  155.2229 H   0  0  0  0  0  0  0  0  0  0  0  0
  145.1799  139.1150  153.5898 H   0  0  0  0  0  0  0  0  0  0  0  0
  146.1005  139.7623  154.9275 H   0  0  0  0  0  0  0  0  0  0  0  0
  147.1606  139.0515  152.1545 H   0  0  0  0  0  0  0  0  0  0  0  0
  146.9904  140.6632  152.7948 H   0  0  0  0  0  0  0  0  0  0  0  0
  149.3315  139.7097  152.7984 H   0  0  0  0  0  0  0  0  0  0  0  0
  148.8387  141.6064  154.2814 H   0  0  0  0  0  0  0  0  0  0  0  0
  148.3351  140.5350  155.5706 H   0  0  0  0  0  0  0  0  0  0  0  0
  148.9124  137.5546  153.3587 H   0  0  0  0  0  0  0  0  0  0  0  0
  1  2  3  0  0  0  0
  2  3  1  0  0  0  0
  3  8  1  0  0  0  0
  3  4  2  0  0  0  0
  4  5  1  0  0  0  0
  4 21  1  0  0  0  0
  5  6  2  0  0  0  0
  5 22  1  0  0  0  0
  6  7  1  0  0  0  0
  6 23  1  0  0  0  0
  7  8  2  0  0  0  0
  8  9  1  0  0  0  0
  9 10  1  0  0  0  0
  9 24  1  0  0  0  0
 10 11  1  0  0  0  0
 10 25  1  0  0  0  0
 10 26  1  0  0  0  0
 11 20  1  0  0  0  0
 11 12  1  0  0  0  0
 11 27  1  0  0  0  0
 12 13  1  0  0  0  0
 12 28  1  0  0  0  0
 12 29  1  0  0  0  0
 13 18  1  0  0  0  0
 13 14  1  0  0  0  0
 13 41  1  0  0  0  0
 14 15  1  0  0  0  0
 14 30  1  0  0  0  0
 14 31  1  0  0  0  0
 15 16  1  0  0  0  0
 15 32  1  0  0  0  0
 15 33  1  0  0  0  0
 16 17  1  0  0  0  0
 16 34  1  0  0  0  0
 16 35  1  0  0  0  0
 17 18  1  0  0  0  0
 17 36  1  0  0  0  0
 17 37  1  0  0  0  0
 18 19  1  0  0  0  0
 18 38  1  0  0  0  0
 19 20  1  0  0  0  0
 19 39  1  0  0  0  0
 19 40  1  0  0  0  0
M  CHG  1  13   1
M  END
> <s_m_source_file>
AV-unprocessed.smi

> <i_m_source_file_index>
2439

> <i_lp_mmshare_version>
43012

> <i_f3d_flags>
0

> <s_epik_input>
TiNDYzFbY0hdW2NIXVtjSF1uYzFbTkhdW0NIMl1bQ0BIXShbQ0gyXTIpT1tDSDJdW0NAQEhdKE4yMylbQ0gyXVtDSDJdW0NIMl1bQ0gyXTM=

> <s_epik_cmdline>
J2VwaWtfcHl0aG9uJywgJy1waCcsICc3LjAnLCAnLXRuJywgJzgnLCAnLW1hJywgJzIwMCcsICctbWV0YWxfYmluZGluZycsICctaW1hZScsICc8aW5maWxlLm1hZT4nLCAnLW9tYWUnLCAnPG91dGZpbGUubWFlPic=

> <r_epik_Ionization_Penalty>
0.0803594

> <r_epik_Ionization_Penalty_Charging>
0.0803403

> <r_epik_Ionization_Penalty_Neutral>
1.90988e-05

> <r_epik_State_Penalty>
0.0711481

> <r_epik_Charging_Adjusted_Penalty>
0.151488

> <i_epik_Tot_Q>
1

> <i_epik_Tot_abs_Q>
1

> <r_epik_Metal_State_Penalty>
0.0711482

> <b_epik_Metal_Only>
0

> <s_lp_Force_Field>
OPLS_2005

> <r_lp_Energy>
31.3603

> <b_lp_Chiralities_Consistent>
1

> <s_lp_Variant>
AV-unprocessed.smi:2439-3

> <Gold.Version>
5.8.1

> <Gold.Id.Protein>
6NUR|6NUR_protein|mol2

> <Gold.PLP.Fitness>
42.0615

> <Gold.PLP.PLP>
-31.3615

> <Gold.PLP.part.hbond>
-2.0000

> <Gold.PLP.part.metal>
0.0000

> <Gold.PLP.part.buried>
-0.3390

> <Gold.PLP.part.nonpolar>
-29.5190

> <Gold.PLP.part.repulsive>
0.4050

> <Gold.PLP.ligand.clash>
0.0000

> <Gold.PLP.ligand.torsion>
0.6142

> <Gold.PLP.Chemscore.Hbond>
2.9760

> <Gold.PLP.Chemscore.CHOScore>
1.0000

> <Gold.PLP.Chemscore.Metal>
0.0000

> <Gold.Chemscore.Hbonds>
donor molecule, donor type, donor heavy atom, donor atom, acceptor molecule, acceptor atom, score
      L1  H    13    41       P1  7948  2.00
      P1  H  7989  7998       L1    20  0.89
      L1  C     6    23       P1  8028  1.00

> <Gold.PLP.Chemscore.Internal.Correction>
0.0003

> <Gold.Rescore>
     Score         DG    S(hbond)    S(metal)    S(lipo)     H(rot)  DE(clash)    DE(int)     intcor
     13.63     -18.39       1.84        0.00      85.44       1.27       1.60       3.16       ----

> <Gold.Chemscore.Fitness>
13.6289

> <Gold.Chemscore.DG>
-18.3887

> <Gold.Chemscore.ZeroCoef>
-5.4800

> <Gold.Chemscore.Hbond>
1.8423

> <Gold.Chemscore.Metal>
0.0000

> <Gold.Chemscore.Lipo>
85.4374

> <Gold.Chemscore.Internal_Hbond>
0.0000

> <Gold.Chemscore.DEClash>
1.5984

> <Gold.Chemscore.DEInternal>
3.1613

> <Gold.Chemscore.Rot>
1.2659

> <Gold.Chemscore.Internal.Correction>
   9.000000E+99

> <Gold.Chemscore.Hbonds>
donor molecule, donor type, donor heavy atom, donor atom, acceptor molecule, acceptor atom, score
      L1  H    13    41       P1  7948  0.98
      P1  H  7989  7998       L1    20  0.52

> <Gold.Chemscore.Hbond.Weighted>
-6.1532

> <Gold.Chemscore.Metal.Weighted>
-0.0000

> <Gold.Chemscore.Lipo.Weighted>
-9.9962

> <Gold.Chemscore.Internal_Hbond.Weighted>
0.0000

> <Gold.Chemscore.DEClash.Weighted>
1.5984

> <Gold.Chemscore.DEInternal.Weighted>
3.1613

> <Gold.Chemscore.Rot.Weighted>
3.2408

> <Gold.Chemscore.Internal.Correction.Weighted>
   9.000000E+99

> <Gold.Protein.RotatedTorsions>
[ 6907 6896 6895 6894 ] final -171.85 input  -60.11 | X-H torsion
[ 7974 7965 7964 7962 ] final  136.29 input  175.53 | X-H torsion
[ 8008 7997 7996 7995 ] final -152.63 input   59.86 | X-H torsion
[ 10167 10162 10161 10158 ] final  -34.88 input  -65.29 | X-H torsion
[ 10718 10713 10712 10709 ] final   13.06 input   66.30 | X-H torsion
[ 10763 10752 10751 10750 ] final  174.38 input  -60.55 | X-H torsion
[ 11005 11000 10999 10996 ] final  156.14 input  -57.11 | X-H torsion

> <Gold.Protein.ActiveResidues>
 VAL166  LYS551  ARG553  GLY616  TRP617  ASP618  TYR619  PRO620  LYS621  CYS622 
 ASP623  PHE694  ASN695  SER759  ASP760  ASP761  ALA762  ILE779  LEU786  VAL792 
 PHE793  MET794  SER795  GLU796  ALA797  LYS798  CYS799  TRP800  GLU811  SER814 

> <Gold.Protein.RotatedAtoms>
  151.5306  133.3450  159.2917 H   0  0  0  0  0  0  0  0  0  0  0  0  # atno 6907 bound_to 6896
  150.8596  134.7947  159.7083 H   0  0  0  0  0  0  0  0  0  0  0  0  # atno 6908 bound_to 6896
  152.4619  134.5172  159.9823 H   0  0  0  0  0  0  0  0  0  0  0  0  # atno 6909 bound_to 6896
  144.9579  139.4744  143.5494 H   0  0  0  0  0  0  0  0  0  0  0  0  # atno 7974 bound_to 7965
  155.6581  140.0719  157.2563 H   0  0  0  0  0  0  0  0  0  0  0  0  # atno 8008 bound_to 7997
  154.4148  140.1721  156.1797 H   0  0  0  0  0  0  0  0  0  0  0  0  # atno 8009 bound_to 7997
  155.9720  140.3361  155.6587 H   0  0  0  0  0  0  0  0  0  0  0  0  # atno 8010 bound_to 7997
  140.7177  143.3517  151.2143 H   0  0  0  0  0  0  0  0  0  0  0  0  # atno 10167 bound_to 10162
  157.0192  130.6148  149.5718 H   0  0  0  0  0  0  0  0  0  0  0  0  # atno 10718 bound_to 10713
  154.4531  135.2765  155.1767 H   0  0  0  0  0  0  0  0  0  0  0  0  # atno 10763 bound_to 10752
  154.3586  135.6134  153.5682 H   0  0  0  0  0  0  0  0  0  0  0  0  # atno 10764 bound_to 10752
  152.9848  135.5829  154.4879 H   0  0  0  0  0  0  0  0  0  0  0  0  # atno 10765 bound_to 10752
  140.1647  134.8585  157.2617 H   0  0  0  0  0  0  0  0  0  0  0  0  # atno 11005 bound_to 11000
  146.3343  139.8709  142.8840 LP  0  0  0  0  0  0  0  0  0  0  0  0  # atno 17320 bound_to 7965
  145.2744  141.0119  143.3753 LP  0  0  0  0  0  0  0  0  0  0  0  0  # atno 17321 bound_to 7965
  139.7049  143.9472  152.2922 LP  0  0  0  0  0  0  0  0  0  0  0  0  # atno 17342 bound_to 10162
  139.9178  144.6818  150.8494 LP  0  0  0  0  0  0  0  0  0  0  0  0  # atno 17343 bound_to 10162
  156.0108  130.5199  150.7982 LP  0  0  0  0  0  0  0  0  0  0  0  0  # atno 17370 bound_to 10713
  157.5262  131.0934  151.0014 LP  0  0  0  0  0  0  0  0  0  0  0  0  # atno 17371 bound_to 10713
  140.2448  134.3753  155.7466 LP  0  0  0  0  0  0  0  0  0  0  0  0  # atno 17394 bound_to 11000
  141.2212  133.7284  156.8844 LP  0  0  0  0  0  0  0  0  0  0  0  0  # atno 17395 bound_to 11000

$$$$
