AV-unprocessed.smi:1399|AV-procd|sdf|5681|dock5
  -GOLD-   22720 5303D 1   1.00000     0.00000
 Structure written by MMmdl.
 37 38  0  0  0  0  0  0  0  0  1 V2000
  149.7745  143.0837  157.4353 N   0  0  0  0  0  0  0  0  0  0  0  0
  149.1235  141.9268  157.5805 C   0  0  0  0  0  0  0  0  0  0  0  0
  149.5531  141.0131  158.2810 O   0  0  0  0  0  0  0  0  0  0  0  0
  147.8007  141.7704  156.8214 C   0  0  0  0  0  0  0  0  0  0  0  0
  147.7627  140.6364  155.8688 N   0  0  0  0  0  0  0  0  0  0  0  0
  148.5385  140.9024  154.6480 C   0  0  0  0  0  0  0  0  0  0  0  0
  148.5271  139.6746  153.7197 C   0  0  0  0  0  0  0  0  0  0  0  0
  147.0914  139.2675  153.3499 C   0  0  0  0  0  0  0  0  0  0  0  0
  147.0806  138.0276  152.5793 N   0  0  0  0  0  0  0  0  0  0  0  0
  145.9806  137.3500  152.2218 C   0  0  0  0  0  0  0  0  0  0  0  0
  144.8373  137.7086  152.5048 O   0  0  0  0  0  0  0  0  0  0  0  0
  146.2931  136.2462  151.5233 N   0  0  0  0  0  0  0  0  0  0  0  0
  145.3995  135.2867  150.9842 C   0  0  0  0  0  0  0  0  0  0  0  0
  145.6939  133.9050  150.8269 C   0  0  0  0  0  0  0  0  0  0  0  0
  144.6705  133.2495  150.2982 N   0  0  0  0  0  0  0  0  0  0  0  0
  143.7258  134.1997  150.1157 N   0  0  0  0  0  0  0  0  0  0  0  0
  144.1251  135.4546  150.5192 C   0  0  0  0  0  0  0  0  0  0  0  0
  146.2781  139.0891  154.6393 C   0  0  0  0  0  0  0  0  0  0  0  0
  146.3668  140.3424  155.5274 C   0  0  0  0  0  0  0  0  0  0  0  0
  142.8232  133.9788  149.7195 H   0  0  0  0  0  0  0  0  0  0  0  0
  150.6464  143.2340  157.9218 H   0  0  0  0  0  0  0  0  0  0  0  0
  149.3881  143.8058  156.8447 H   0  0  0  0  0  0  0  0  0  0  0  0
  147.0143  141.6458  157.5674 H   0  0  0  0  0  0  0  0  0  0  0  0
  147.5816  142.7012  156.2946 H   0  0  0  0  0  0  0  0  0  0  0  0
  148.1352  141.7730  154.1279 H   0  0  0  0  0  0  0  0  0  0  0  0
  149.5765  141.1326  154.8879 H   0  0  0  0  0  0  0  0  0  0  0  0
  149.0998  139.8938  152.8179 H   0  0  0  0  0  0  0  0  0  0  0  0
  149.0348  138.8441  154.2129 H   0  0  0  0  0  0  0  0  0  0  0  0
  146.6328  140.0641  152.7604 H   0  0  0  0  0  0  0  0  0  0  0  0
  147.9779  137.6585  152.3007 H   0  0  0  0  0  0  0  0  0  0  0  0
  147.2742  136.0722  151.3617 H   0  0  0  0  0  0  0  0  0  0  0  0
  146.5974  133.3672  151.0744 H   0  0  0  0  0  0  0  0  0  0  0  0
  143.4832  136.3193  150.4388 H   0  0  0  0  0  0  0  0  0  0  0  0
  145.2348  138.8825  154.3972 H   0  0  0  0  0  0  0  0  0  0  0  0
  146.6434  138.2246  155.1962 H   0  0  0  0  0  0  0  0  0  0  0  0
  145.7925  140.1674  156.4383 H   0  0  0  0  0  0  0  0  0  0  0  0
  145.9097  141.1961  155.0237 H   0  0  0  0  0  0  0  0  0  0  0  0
  1  2  1  0  0  0  0
  1 21  1  0  0  0  0
  1 22  1  0  0  0  0
  2  3  2  0  0  0  0
  2  4  1  0  0  0  0
  4  5  1  0  0  0  0
  4 23  1  0  0  0  0
  4 24  1  0  0  0  0
  5 19  1  0  0  0  0
  5  6  1  0  0  0  0
  6  7  1  0  0  0  0
  6 25  1  0  0  0  0
  6 26  1  0  0  0  0
  7  8  1  0  0  0  0
  7 27  1  0  0  0  0
  7 28  1  0  0  0  0
  8  9  1  0  0  0  0
  8 18  1  0  0  0  0
  8 29  1  0  0  0  0
  9 10  1  0  0  0  0
  9 30  1  0  0  0  0
 10 11  2  0  0  0  0
 10 12  1  0  0  0  0
 12 13  1  0  0  0  0
 12 31  1  0  0  0  0
 13 17  2  0  0  0  0
 13 14  1  0  0  0  0
 14 15  2  0  0  0  0
 14 32  1  0  0  0  0
 15 16  1  0  0  0  0
 16 20  1  0  0  0  0
 16 17  1  0  0  0  0
 17 33  1  0  0  0  0
 18 19  1  0  0  0  0
 18 34  1  0  0  0  0
 18 35  1  0  0  0  0
 19 36  1  0  0  0  0
 19 37  1  0  0  0  0
M  END
> <s_m_source_file>
AV-unprocessed.smi

> <i_m_source_file_index>
1399

> <i_lp_mmshare_version>
43012

> <i_f3d_flags>
0

> <s_epik_input>
W05IMl1DKD1PKVtDSDJdTjFbQ0gyXVtDSDJdW0NIXShbQ0gyXVtDSDJdMSlbTkhdQyg9TylbTkhdYzJbY0hdbltuSF1bY0hdMg==

> <s_epik_cmdline>
J2VwaWtfcHl0aG9uJywgJy1waCcsICc3LjAnLCAnLXRuJywgJzgnLCAnLW1hJywgJzIwMCcsICctbWV0YWxfYmluZGluZycsICctaW1hZScsICc8aW5maWxlLm1hZT4nLCAnLW9tYWUnLCAnPG91dGZpbGUubWFlPic=

> <r_lp_tautomer_probability>
0.5

> <r_epik_Ionization_Penalty>
0.164786

> <r_epik_Ionization_Penalty_Charging>
0

> <r_epik_Ionization_Penalty_Neutral>
0.164786

> <r_epik_State_Penalty>
0.154069

> <r_epik_Charging_Adjusted_Penalty>
0.154069

> <i_epik_Tot_Q>
0

> <i_epik_Tot_abs_Q>
0

> <r_epik_Metal_State_Penalty>
0.171367

> <b_epik_Metal_Only>
0

> <s_lp_Force_Field>
OPLS_2005

> <r_lp_Energy>
13.9175

> <b_lp_Chiralities_Consistent>
1

> <s_lp_Variant>
AV-unprocessed.smi:1399-1

> <Gold.Version>
5.8.1

> <Gold.Id.Protein>
6NUR|6NUR_protein|mol2

> <Gold.PLP.Fitness>
36.5630

> <Gold.PLP.PLP>
-22.5873

> <Gold.PLP.part.hbond>
-4.0000

> <Gold.PLP.part.metal>
0.0000

> <Gold.PLP.part.buried>
-2.9095

> <Gold.PLP.part.nonpolar>
-17.9808

> <Gold.PLP.part.repulsive>
1.2284

> <Gold.PLP.ligand.clash>
0.0000

> <Gold.PLP.ligand.torsion>
0.3730

> <Gold.PLP.Chemscore.Hbond>
3.9040

> <Gold.PLP.Chemscore.CHOScore>
1.0000

> <Gold.PLP.Chemscore.Metal>
0.0000

> <Gold.Chemscore.Hbonds>
donor molecule, donor type, donor heavy atom, donor atom, acceptor molecule, acceptor atom, score
      L1  H     1    22       P1  8028  1.00
      L1  H     9    30       P1  7948  0.98
      L1  H    12    31       P1  7948  1.00
      L1  H    16    20       P1 10186  0.96
      L1  C    17    33       P1 10171  1.00

> <Gold.PLP.Chemscore.Internal.Correction>
0.0097

> <Gold.Rescore>
     Score         DG    S(hbond)    S(metal)    S(lipo)     H(rot)  DE(clash)    DE(int)     intcor
     15.97     -17.86       3.91        0.00      39.28       2.06       0.35       1.54       ----

> <Gold.Chemscore.Fitness>
15.9727

> <Gold.Chemscore.DG>
-17.8640

> <Gold.Chemscore.ZeroCoef>
-5.4800

> <Gold.Chemscore.Hbond>
3.9124

> <Gold.Chemscore.Metal>
0.0000

> <Gold.Chemscore.Lipo>
39.2760

> <Gold.Chemscore.Internal_Hbond>
0.0000

> <Gold.Chemscore.DEClash>
0.3490

> <Gold.Chemscore.DEInternal>
1.5423

> <Gold.Chemscore.Rot>
2.0620

> <Gold.Chemscore.Internal.Correction>
   9.000000E+99

> <Gold.Chemscore.Hbonds>
donor molecule, donor type, donor heavy atom, donor atom, acceptor molecule, acceptor atom, score
      L1  H     1    22       P1  8028  0.83
      L1  H     9    30       P1  7948  0.93
      L1  H    12    31       P1  7948  0.96
      L1  H    16    20       P1 10186  0.92

> <Gold.Chemscore.Hbond.Weighted>
-13.0675

> <Gold.Chemscore.Metal.Weighted>
-0.0000

> <Gold.Chemscore.Lipo.Weighted>
-4.5953

> <Gold.Chemscore.Internal_Hbond.Weighted>
0.0000

> <Gold.Chemscore.DEClash.Weighted>
0.3490

> <Gold.Chemscore.DEInternal.Weighted>
1.5423

> <Gold.Chemscore.Rot.Weighted>
5.2788

> <Gold.Chemscore.Internal.Correction.Weighted>
   9.000000E+99

> <Gold.Protein.RotatedTorsions>
[ 6907 6896 6895 6894 ] final  171.68 input  -60.11 | X-H torsion
[ 7974 7965 7964 7962 ] final   -2.81 input  175.53 | X-H torsion
[ 8008 7997 7996 7995 ] final -159.15 input   59.86 | X-H torsion
[ 10167 10162 10161 10158 ] final -118.12 input  -65.29 | X-H torsion
[ 10718 10713 10712 10709 ] final  -46.57 input   66.30 | X-H torsion
[ 10763 10752 10751 10750 ] final -116.21 input  -60.55 | X-H torsion
[ 11005 11000 10999 10996 ] final   24.54 input  -57.11 | X-H torsion

> <Gold.Protein.ActiveResidues>
 VAL166  LYS551  ARG553  GLY616  TRP617  ASP618  TYR619  PRO620  LYS621  CYS622 
 ASP623  PHE694  ASN695  SER759  ASP760  ASP761  ALA762  ILE779  LEU786  VAL792 
 PHE793  MET794  SER795  GLU796  ALA797  LYS798  CYS799  TRP800  GLU811  SER814 

> <Gold.Protein.RotatedAtoms>
  151.7963  133.3365  159.3513 H   0  0  0  0  0  0  0  0  0  0  0  0  # atno 6907 bound_to 6896
  150.7374  134.5795  159.5941 H   0  0  0  0  0  0  0  0  0  0  0  0  # atno 6908 bound_to 6896
  152.3174  134.7424  160.0373 H   0  0  0  0  0  0  0  0  0  0  0  0  # atno 6909 bound_to 6896
  146.2399  140.1626  142.8332 H   0  0  0  0  0  0  0  0  0  0  0  0  # atno 7974 bound_to 7965
  155.7583  140.0836  157.2167 H   0  0  0  0  0  0  0  0  0  0  0  0  # atno 8008 bound_to 7997
  154.4006  140.1547  156.2860 H   0  0  0  0  0  0  0  0  0  0  0  0  # atno 8009 bound_to 7997
  155.8864  140.3418  155.5927 H   0  0  0  0  0  0  0  0  0  0  0  0  # atno 8010 bound_to 7997
  140.0609  143.4969  152.2032 H   0  0  0  0  0  0  0  0  0  0  0  0  # atno 10167 bound_to 10162
  156.2170  130.4164  149.9041 H   0  0  0  0  0  0  0  0  0  0  0  0  # atno 10718 bound_to 10713
  154.8511  135.4353  154.1786 H   0  0  0  0  0  0  0  0  0  0  0  0  # atno 10763 bound_to 10752
  153.2882  135.6959  153.7325 H   0  0  0  0  0  0  0  0  0  0  0  0  # atno 10764 bound_to 10752
  153.6502  135.3452  155.3072 H   0  0  0  0  0  0  0  0  0  0  0  0  # atno 10765 bound_to 10752
  140.3576  134.2161  155.7674 H   0  0  0  0  0  0  0  0  0  0  0  0  # atno 11005 bound_to 11000
  145.0077  140.8687  143.5243 LP  0  0  0  0  0  0  0  0  0  0  0  0  # atno 17320 bound_to 7965
  145.1655  139.2434  143.5369 LP  0  0  0  0  0  0  0  0  0  0  0  0  # atno 17321 bound_to 7965
  139.5894  144.7544  151.3438 LP  0  0  0  0  0  0  0  0  0  0  0  0  # atno 17342 bound_to 10162
  140.7172  143.7234  150.7678 LP  0  0  0  0  0  0  0  0  0  0  0  0  # atno 17343 bound_to 10162
  156.6701  130.8816  151.3561 LP  0  0  0  0  0  0  0  0  0  0  0  0  # atno 17370 bound_to 10713
  157.7068  130.9394  150.0957 LP  0  0  0  0  0  0  0  0  0  0  0  0  # atno 17371 bound_to 10713
  141.1994  133.8013  157.0539 LP  0  0  0  0  0  0  0  0  0  0  0  0  # atno 17394 bound_to 11000
  140.0653  134.9732  157.1374 LP  0  0  0  0  0  0  0  0  0  0  0  0  # atno 17395 bound_to 11000

$$$$
