AV-unprocessed.smi:473|AV-procd|sdf|2661|dock1
  -GOLD-   2262023 73D 1   1.00000     0.00000
 Structure written by MMmdl.
 42 44  0  0  0  0  0  0  0  0  1 V2000
  153.0789  142.9389  161.2272 C   0  0  0  0  0  0  0  0  0  0  0  0
  152.3759  142.5841  159.9288 C   0  0  0  0  0  0  0  0  0  0  0  0
  152.1510  141.2237  159.6188 C   0  0  0  0  0  0  0  0  0  0  0  0
  151.4981  140.8518  158.4232 C   0  0  0  0  0  0  0  0  0  0  0  0
  151.1771  139.6003  157.9255 N   0  0  0  0  0  0  0  0  0  0  0  0
  150.5800  139.9134  156.7791 C   0  0  0  0  0  0  0  0  0  0  0  0
  150.4765  141.2215  156.4746 N   0  0  0  0  0  0  0  0  0  0  0  0
  149.8726  141.8042  155.2897 C   0  0  0  0  0  0  0  0  0  0  0  0
  149.0090  140.7935  154.5104 C   0  0  2  0  0  0  0  0  0  0  0  0
  149.1002  141.0818  153.1285 O   0  0  0  0  0  0  0  0  0  0  0  0
  147.5323  140.8574  154.9307 C   0  0  0  0  0  0  0  0  0  0  0  0
  147.0866  142.2049  154.8511 O   0  0  0  0  0  0  0  0  0  0  0  0
  146.5274  142.5580  153.5920 C   0  0  0  0  0  0  0  0  0  0  0  0
  145.5514  143.6774  153.7885 C   0  0  0  0  0  0  0  0  0  0  0  0
  145.1326  144.7021  152.9856 C   0  0  0  0  0  0  0  0  0  0  0  0
  144.1716  145.4347  153.7357 C   0  0  0  0  0  0  0  0  0  0  0  0
  144.0680  144.7976  154.9392 C   0  0  0  0  0  0  0  0  0  0  0  0
  144.8990  143.7213  154.9864 O   0  0  0  0  0  0  0  0  0  0  0  0
  151.0746  141.8865  157.5388 C   0  0  0  0  0  0  0  0  0  0  0  0
  151.2935  143.2433  157.8353 C   0  0  0  0  0  0  0  0  0  0  0  0
  151.9460  143.5975  159.0347 C   0  0  0  0  0  0  0  0  0  0  0  0
  152.1742  145.0656  159.3482 C   0  0  0  0  0  0  0  0  0  0  0  0
  153.3403  142.0457  161.7954 H   0  0  0  0  0  0  0  0  0  0  0  0
  152.4353  143.5571  161.8534 H   0  0  0  0  0  0  0  0  0  0  0  0
  153.9988  143.4882  161.0259 H   0  0  0  0  0  0  0  0  0  0  0  0
  152.4775  140.4515  160.2996 H   0  0  0  0  0  0  0  0  0  0  0  0
  150.1931  139.1476  156.1225 H   0  0  0  0  0  0  0  0  0  0  0  0
  149.2656  142.6535  155.6059 H   0  0  0  0  0  0  0  0  0  0  0  0
  150.6626  142.2052  154.6528 H   0  0  0  0  0  0  0  0  0  0  0  0
  149.3935  139.7881  154.6876 H   0  0  0  0  0  0  0  0  0  0  0  0
  149.3977  140.3061  152.6786 H   0  0  0  0  0  0  0  0  0  0  0  0
  146.9381  140.2464  154.2499 H   0  0  0  0  0  0  0  0  0  0  0  0
  147.3878  140.4510  155.9332 H   0  0  0  0  0  0  0  0  0  0  0  0
  147.3022  142.8269  152.8724 H   0  0  0  0  0  0  0  0  0  0  0  0
  146.0044  141.6897  153.1912 H   0  0  0  0  0  0  0  0  0  0  0  0
  145.4777  144.9007  151.9818 H   0  0  0  0  0  0  0  0  0  0  0  0
  143.6232  146.3143  153.4321 H   0  0  0  0  0  0  0  0  0  0  0  0
  143.4797  144.9652  155.8295 H   0  0  0  0  0  0  0  0  0  0  0  0
  150.9591  144.0041  157.1454 H   0  0  0  0  0  0  0  0  0  0  0  0
  151.8028  145.7057  158.5474 H   0  0  0  0  0  0  0  0  0  0  0  0
  153.2377  145.2696  159.4731 H   0  0  0  0  0  0  0  0  0  0  0  0
  151.6571  145.3442  160.2666 H   0  0  0  0  0  0  0  0  0  0  0  0
  1  2  1  0  0  0  0
  1 23  1  0  0  0  0
  1 24  1  0  0  0  0
  1 25  1  0  0  0  0
  2 21  1  0  0  0  0
  2  3  2  0  0  0  0
  3  4  1  0  0  0  0
  3 26  1  0  0  0  0
  4 19  2  0  0  0  0
  4  5  1  0  0  0  0
  5  6  2  0  0  0  0
  6  7  1  0  0  0  0
  6 27  1  0  0  0  0
  7  8  1  0  0  0  0
  7 19  1  0  0  0  0
  8  9  1  0  0  0  0
  8 28  1  0  0  0  0
  8 29  1  0  0  0  0
  9 10  1  0  0  0  0
  9 11  1  0  0  0  0
  9 30  1  0  0  0  0
 10 31  1  0  0  0  0
 11 12  1  0  0  0  0
 11 32  1  0  0  0  0
 11 33  1  0  0  0  0
 12 13  1  0  0  0  0
 13 14  1  0  0  0  0
 13 34  1  0  0  0  0
 13 35  1  0  0  0  0
 14 18  1  0  0  0  0
 14 15  2  0  0  0  0
 15 16  1  0  0  0  0
 15 36  1  0  0  0  0
 16 17  2  0  0  0  0
 16 37  1  0  0  0  0
 17 18  1  0  0  0  0
 17 38  1  0  0  0  0
 19 20  1  0  0  0  0
 20 21  2  0  0  0  0
 20 39  1  0  0  0  0
 21 22  1  0  0  0  0
 22 40  1  0  0  0  0
 22 41  1  0  0  0  0
 22 42  1  0  0  0  0
M  END
> <s_m_source_file>
AV-unprocessed.smi

> <i_m_source_file_index>
473

> <i_lp_mmshare_version>
43012

> <i_f3d_flags>
0

> <s_epik_input>
W0NIM11jKFtjSF0xKWMoW0NIM10pW2NIXWMoYzEyKW4oW2NIXW4yKVtDSDJdW0NASF0oW09IXSlbQ0gyXU9bQ0gyXWMzW2NIXVtjSF1bY0hdbzM=

> <s_epik_cmdline>
J2VwaWtfcHl0aG9uJywgJy1waCcsICc3LjAnLCAnLXRuJywgJzgnLCAnLW1hJywgJzIwMCcsICctbWV0YWxfYmluZGluZycsICctaW1hZScsICc8aW5maWxlLm1hZT4nLCAnLW9tYWUnLCAnPG91dGZpbGUubWFlPic=

> <r_epik_Ionization_Penalty>
0.112477

> <r_epik_Ionization_Penalty_Charging>
0

> <r_epik_Ionization_Penalty_Neutral>
0.112477

> <r_epik_State_Penalty>
0.102177

> <r_epik_Charging_Adjusted_Penalty>
0.102177

> <i_epik_Tot_Q>
0

> <i_epik_Tot_abs_Q>
0

> <r_epik_Metal_State_Penalty>
0.000111506

> <b_epik_Metal_Only>
0

> <s_lp_Force_Field>
OPLS_2005

> <r_lp_Energy>
9.85232

> <b_lp_Chiralities_Consistent>
1

> <s_lp_Variant>
AV-unprocessed.smi:473-1

> <Gold.Version>
5.8.1

> <Gold.Id.Protein>
6NUR|6NUR_protein|mol2

> <Gold.PLP.Fitness>
54.6362

> <Gold.PLP.PLP>
-52.3446

> <Gold.PLP.part.hbond>
-2.1837

> <Gold.PLP.part.metal>
0.0000

> <Gold.PLP.part.buried>
-7.5283

> <Gold.PLP.part.nonpolar>
-42.9553

> <Gold.PLP.part.repulsive>
0.3301

> <Gold.PLP.ligand.clash>
0.0000

> <Gold.PLP.ligand.torsion>
1.3779

> <Gold.PLP.Chemscore.Hbond>
1.6400

> <Gold.PLP.Chemscore.CHOScore>
0.0000

> <Gold.PLP.Chemscore.Metal>
0.0000

> <Gold.Chemscore.Hbonds>
donor molecule, donor type, donor heavy atom, donor atom, acceptor molecule, acceptor atom, score
      L1  H    10    31       P1  7957  0.61
      P1  H  8011  8017       L1    10  1.00

> <Gold.PLP.Chemscore.Internal.Correction>
0.1275

> <Gold.Rescore>
     Score         DG    S(hbond)    S(metal)    S(lipo)     H(rot)  DE(clash)    DE(int)     intcor
     18.23     -19.49       1.22        0.00     137.55       2.41       0.05       1.21       ----

> <Gold.Chemscore.Fitness>
18.2274

> <Gold.Chemscore.DG>
-19.4905

> <Gold.Chemscore.ZeroCoef>
-5.4800

> <Gold.Chemscore.Hbond>
1.2224

> <Gold.Chemscore.Metal>
0.0000

> <Gold.Chemscore.Lipo>
137.5480

> <Gold.Chemscore.Internal_Hbond>
0.0000

> <Gold.Chemscore.DEClash>
0.0529

> <Gold.Chemscore.DEInternal>
1.2102

> <Gold.Chemscore.Rot>
2.4083

> <Gold.Chemscore.Internal.Correction>
   9.000000E+99

> <Gold.Chemscore.Hbonds>
donor molecule, donor type, donor heavy atom, donor atom, acceptor molecule, acceptor atom, score
      L1  H    10    31       P1  7957  0.57
      P1  H  8011  8017       L1    10  0.60

> <Gold.Chemscore.Hbond.Weighted>
-4.0827

> <Gold.Chemscore.Metal.Weighted>
-0.0000

> <Gold.Chemscore.Lipo.Weighted>
-16.0931

> <Gold.Chemscore.Internal_Hbond.Weighted>
0.0000

> <Gold.Chemscore.DEClash.Weighted>
0.0529

> <Gold.Chemscore.DEInternal.Weighted>
1.2102

> <Gold.Chemscore.Rot.Weighted>
6.1653

> <Gold.Chemscore.Internal.Correction.Weighted>
   9.000000E+99

> <Gold.Protein.RotatedTorsions>
[ 6907 6896 6895 6894 ] final   56.76 input  -60.11 | X-H torsion
[ 7974 7965 7964 7962 ] final -137.33 input  175.53 | X-H torsion
[ 8008 7997 7996 7995 ] final   64.32 input   59.86 | X-H torsion
[ 10167 10162 10161 10158 ] final  160.96 input  -65.29 | X-H torsion
[ 10718 10713 10712 10709 ] final -170.84 input   66.30 | X-H torsion
[ 10763 10752 10751 10750 ] final  -91.56 input  -60.55 | X-H torsion
[ 11005 11000 10999 10996 ] final -130.48 input  -57.11 | X-H torsion

> <Gold.Protein.ActiveResidues>
 VAL166  LYS551  ARG553  GLY616  TRP617  ASP618  TYR619  PRO620  LYS621  CYS622 
 ASP623  PHE694  ASN695  SER759  ASP760  ASP761  ALA762  ILE779  LEU786  VAL792 
 PHE793  MET794  SER795  GLU796  ALA797  LYS798  CYS799  TRP800  GLU811  SER814 

> <Gold.Protein.RotatedAtoms>
  152.3667  134.6794  160.0189 H   0  0  0  0  0  0  0  0  0  0  0  0  # atno 6907 bound_to 6896
  151.7100  133.3307  159.3296 H   0  0  0  0  0  0  0  0  0  0  0  0  # atno 6908 bound_to 6896
  150.7643  134.6475  159.6315 H   0  0  0  0  0  0  0  0  0  0  0  0  # atno 6909 bound_to 6896
  144.8851  140.6562  143.5181 H   0  0  0  0  0  0  0  0  0  0  0  0  # atno 7974 bound_to 7965
  155.6442  140.3497  155.4725 H   0  0  0  0  0  0  0  0  0  0  0  0  # atno 8008 bound_to 7997
  155.9901  140.1192  157.0669 H   0  0  0  0  0  0  0  0  0  0  0  0  # atno 8009 bound_to 7997
  154.4216  140.1121  156.5540 H   0  0  0  0  0  0  0  0  0  0  0  0  # atno 8010 bound_to 7997
  139.4844  144.4584  151.8738 H   0  0  0  0  0  0  0  0  0  0  0  0  # atno 10167 bound_to 10162
  156.7321  130.9310  151.3105 H   0  0  0  0  0  0  0  0  0  0  0  0  # atno 10718 bound_to 10713
  154.6773  135.5263  153.8216 H   0  0  0  0  0  0  0  0  0  0  0  0  # atno 10763 bound_to 10752
  153.0541  135.6543  154.0631 H   0  0  0  0  0  0  0  0  0  0  0  0  # atno 10764 bound_to 10752
  154.0523  135.2968  155.3318 H   0  0  0  0  0  0  0  0  0  0  0  0  # atno 10765 bound_to 10752
  140.9342  134.1279  157.4208 H   0  0  0  0  0  0  0  0  0  0  0  0  # atno 11005 bound_to 11000
  145.3884  139.1622  143.4242 LP  0  0  0  0  0  0  0  0  0  0  0  0  # atno 17320 bound_to 7965
  146.3019  140.3971  142.8701 LP  0  0  0  0  0  0  0  0  0  0  0  0  # atno 17321 bound_to 7965
  140.4044  144.2451  150.5891 LP  0  0  0  0  0  0  0  0  0  0  0  0  # atno 17342 bound_to 10162
  140.5026  143.2313  151.8656 LP  0  0  0  0  0  0  0  0  0  0  0  0  # atno 17343 bound_to 10162
  157.6854  130.9181  150.0374 LP  0  0  0  0  0  0  0  0  0  0  0  0  # atno 17370 bound_to 10713
  156.1522  130.3642  149.9421 LP  0  0  0  0  0  0  0  0  0  0  0  0  # atno 17371 bound_to 10713
  139.8804  135.0015  156.6072 LP  0  0  0  0  0  0  0  0  0  0  0  0  # atno 17394 bound_to 11000
  140.7822  133.8651  155.8577 LP  0  0  0  0  0  0  0  0  0  0  0  0  # atno 17395 bound_to 11000

$$$$
