AV-unprocessed.smi:1406|AV-procd|sdf|5718|dock4
  -GOLD-   22720 5353D 1   1.00000     0.00000
 Structure written by MMmdl.
 41 43  0  0  0  0  0  0  0  0  2 V2000
  151.1835  137.8477  154.9033 C   0  0  0  0  0  0  0  0  0  0  0  0
  150.8184  138.9563  155.9113 C   0  0  1  0  0  0  0  0  0  0  0  0
  152.0391  139.4946  156.6742 C   0  0  0  0  0  0  0  0  0  0  0  0
  153.1805  139.1561  156.3596 O   0  0  0  0  0  0  0  0  0  0  0  0
  151.7814  140.3435  157.6816 N   0  0  0  0  0  0  0  0  0  0  0  0
  152.7947  141.0013  158.5020 C   0  0  2  0  0  0  0  0  0  0  0  0
  152.8976  140.4510  159.9403 C   0  0  0  0  0  0  0  0  0  0  0  0
  153.0580  141.6935  160.8221 C   0  0  0  0  0  0  0  0  0  0  0  0
  152.2770  142.7078  160.1047 N   0  3  1  0  0  0  0  0  0  0  0  0
  152.3958  144.1191  160.5241 C   0  0  0  0  0  0  0  0  0  0  0  0
  151.3547  144.9496  159.7424 C   0  0  0  0  0  0  0  0  0  0  0  0
  151.4520  144.7261  158.2154 C   0  0  0  0  0  0  0  0  0  0  0  0
  151.4495  143.2246  157.8537 C   0  0  0  0  0  0  0  0  0  0  0  0
  152.5453  142.5159  158.6693 C   0  0  2  0  0  0  0  0  0  0  0  0
  150.0952  140.0554  155.2832 N   0  0  0  0  0  0  0  0  0  0  0  0
  149.6925  140.2065  154.0195 C   0  0  0  0  0  0  0  0  0  0  0  0
  149.0053  141.3188  153.8021 N   0  0  0  0  0  0  0  0  0  0  0  0
  149.0139  141.8424  155.0638 C   0  0  0  0  0  0  0  0  0  0  0  0
  149.6426  141.1205  155.9910 N   0  0  0  0  0  0  0  0  0  0  0  0
  151.6809  137.0133  155.3992 H   0  0  0  0  0  0  0  0  0  0  0  0
  151.8489  138.2091  154.1181 H   0  0  0  0  0  0  0  0  0  0  0  0
  150.2892  137.4525  154.4209 H   0  0  0  0  0  0  0  0  0  0  0  0
  150.1475  138.5118  156.6482 H   0  0  0  0  0  0  0  0  0  0  0  0
  150.8166  140.5698  157.8747 H   0  0  0  0  0  0  0  0  0  0  0  0
  153.7584  140.8760  158.0038 H   0  0  0  0  0  0  0  0  0  0  0  0
  151.9770  139.9330  160.2144 H   0  0  0  0  0  0  0  0  0  0  0  0
  153.7200  139.7451  160.0613 H   0  0  0  0  0  0  0  0  0  0  0  0
  152.6936  141.5399  161.8381 H   0  0  0  0  0  0  0  0  0  0  0  0
  154.1046  141.9985  160.8697 H   0  0  0  0  0  0  0  0  0  0  0  0
  152.2154  144.2018  161.5964 H   0  0  0  0  0  0  0  0  0  0  0  0
  153.4067  144.4844  160.3361 H   0  0  0  0  0  0  0  0  0  0  0  0
  150.3544  144.6731  160.0780 H   0  0  0  0  0  0  0  0  0  0  0  0
  151.4718  146.0088  159.9738 H   0  0  0  0  0  0  0  0  0  0  0  0
  150.6311  145.2347  157.7091 H   0  0  0  0  0  0  0  0  0  0  0  0
  152.3704  145.1836  157.8449 H   0  0  0  0  0  0  0  0  0  0  0  0
  150.4715  142.7920  158.0698 H   0  0  0  0  0  0  0  0  0  0  0  0
  151.6256  143.0979  156.7848 H   0  0  0  0  0  0  0  0  0  0  0  0
  153.4953  143.0073  158.4475 H   0  0  0  0  0  0  0  0  0  0  0  0
  149.9002  139.4850  153.2431 H   0  0  0  0  0  0  0  0  0  0  0  0
  148.5356  142.7796  155.3082 H   0  0  0  0  0  0  0  0  0  0  0  0
  151.3108  142.4485  160.2448 H   0  0  0  0  0  0  0  0  0  0  0  0
  1  2  1  0  0  0  0
  1 20  1  0  0  0  0
  1 21  1  0  0  0  0
  1 22  1  0  0  0  0
  2  3  1  0  0  0  0
  2 15  1  0  0  0  0
  2 23  1  0  0  0  0
  3  4  2  0  0  0  0
  3  5  1  0  0  0  0
  5  6  1  0  0  0  0
  5 24  1  0  0  0  0
  6 14  1  0  0  0  0
  6  7  1  0  0  0  0
  6 25  1  0  0  0  0
  7  8  1  0  0  0  0
  7 26  1  0  0  0  0
  7 27  1  0  0  0  0
  8  9  1  0  0  0  0
  8 28  1  0  0  0  0
  8 29  1  0  0  0  0
  9 14  1  0  0  0  0
  9 10  1  0  0  0  0
  9 41  1  0  0  0  0
 10 11  1  0  0  0  0
 10 30  1  0  0  0  0
 10 31  1  0  0  0  0
 11 12  1  0  0  0  0
 11 32  1  0  0  0  0
 11 33  1  0  0  0  0
 12 13  1  0  0  0  0
 12 34  1  0  0  0  0
 12 35  1  0  0  0  0
 13 14  1  0  0  0  0
 13 36  1  0  0  0  0
 13 37  1  0  0  0  0
 14 38  1  0  0  0  0
 15 19  1  0  0  0  0
 15 16  1  0  0  0  0
 16 17  2  0  0  0  0
 16 39  1  0  0  0  0
 17 18  1  0  0  0  0
 18 19  2  0  0  0  0
 18 40  1  0  0  0  0
M  CHG  1   9   1
M  END
> <s_m_source_file>
AV-unprocessed.smi

> <i_m_source_file_index>
1406

> <i_lp_mmshare_version>
43012

> <i_f3d_flags>
0

> <s_epik_input>
bjFbY0hdbltjSF1uMVtDQEhdKFtDSDNdKUMoPU8pW05IXVtDQEhdKFtDSDJdW0NIMl0yKVtDQEBIXShOMjMpW0NIMl1bQ0gyXVtDSDJdW0NIMl0z

> <s_epik_cmdline>
J2VwaWtfcHl0aG9uJywgJy1waCcsICc3LjAnLCAnLXRuJywgJzgnLCAnLW1hJywgJzIwMCcsICctbWV0YWxfYmluZGluZycsICctaW1hZScsICc8aW5maWxlLm1hZT4nLCAnLW9tYWUnLCAnPG91dGZpbGUubWFlPic=

> <r_lp_tautomer_probability>
1

> <r_epik_Ionization_Penalty>
0.00197066

> <r_epik_Ionization_Penalty_Charging>
0.00196223

> <r_epik_Ionization_Penalty_Neutral>
8.43107e-06

> <r_epik_State_Penalty>
0.00133866

> <r_epik_Charging_Adjusted_Penalty>
0.00330089

> <i_epik_Tot_Q>
1

> <i_epik_Tot_abs_Q>
1

> <r_epik_Metal_State_Penalty>
-0

> <b_epik_Metal_Only>
0

> <s_lp_Force_Field>
OPLS_2005

> <r_lp_Energy>
46.7011

> <b_lp_Chiralities_Consistent>
1

> <s_lp_Variant>
AV-unprocessed.smi:1406-10

> <Gold.Version>
5.8.1

> <Gold.Id.Protein>
6NUR|6NUR_protein|mol2

> <Gold.PLP.Fitness>
45.2375

> <Gold.PLP.PLP>
-34.8186

> <Gold.PLP.part.hbond>
-2.3693

> <Gold.PLP.part.metal>
0.0000

> <Gold.PLP.part.buried>
-0.7903

> <Gold.PLP.part.nonpolar>
-32.1426

> <Gold.PLP.part.repulsive>
1.3068

> <Gold.PLP.ligand.clash>
0.0000

> <Gold.PLP.ligand.torsion>
0.2519

> <Gold.PLP.Chemscore.Hbond>
1.8326

> <Gold.PLP.Chemscore.CHOScore>
1.7751

> <Gold.PLP.Chemscore.Metal>
0.0000

> <Gold.Chemscore.Hbonds>
donor molecule, donor type, donor heavy atom, donor atom, acceptor molecule, acceptor atom, score
      P1  H  7997  8009       L1     4  0.98
      P1  H  8011  8017       L1    17  0.82
      L1  C    16    39       P1  7957  0.80
      L1  C    18    40       P1  8028  0.90

> <Gold.PLP.Chemscore.Internal.Correction>
0.0996

> <Gold.Rescore>
     Score         DG    S(hbond)    S(metal)    S(lipo)     H(rot)  DE(clash)    DE(int)     intcor
     13.66     -15.06       0.98        0.00      95.28       1.89       0.01       1.40       ----

> <Gold.Chemscore.Fitness>
13.6638

> <Gold.Chemscore.DG>
-15.0646

> <Gold.Chemscore.ZeroCoef>
-5.4800

> <Gold.Chemscore.Hbond>
0.9779

> <Gold.Chemscore.Metal>
0.0000

> <Gold.Chemscore.Lipo>
95.2826

> <Gold.Chemscore.Internal_Hbond>
0.0000

> <Gold.Chemscore.DEClash>
0.0053

> <Gold.Chemscore.DEInternal>
1.3956

> <Gold.Chemscore.Rot>
1.8865

> <Gold.Chemscore.Internal.Correction>
   9.000000E+99

> <Gold.Chemscore.Hbonds>
donor molecule, donor type, donor heavy atom, donor atom, acceptor molecule, acceptor atom, score
      P1  H  7997  8009       L1     4  0.88
      P1  H  8011  8017       L1    17  0.62

> <Gold.Chemscore.Hbond.Weighted>
-3.2661

> <Gold.Chemscore.Metal.Weighted>
-0.0000

> <Gold.Chemscore.Lipo.Weighted>
-11.1481

> <Gold.Chemscore.Internal_Hbond.Weighted>
0.0000

> <Gold.Chemscore.DEClash.Weighted>
0.0053

> <Gold.Chemscore.DEInternal.Weighted>
1.3956

> <Gold.Chemscore.Rot.Weighted>
4.8295

> <Gold.Chemscore.Internal.Correction.Weighted>
   9.000000E+99

> <Gold.Protein.RotatedTorsions>
[ 6907 6896 6895 6894 ] final   -7.59 input  -60.11 | X-H torsion
[ 7974 7965 7964 7962 ] final -148.67 input  175.53 | X-H torsion
[ 8008 7997 7996 7995 ] final  174.29 input   59.86 | X-H torsion
[ 10167 10162 10161 10158 ] final -163.66 input  -65.29 | X-H torsion
[ 10718 10713 10712 10709 ] final  -23.13 input   66.30 | X-H torsion
[ 10763 10752 10751 10750 ] final -170.67 input  -60.55 | X-H torsion
[ 11005 11000 10999 10996 ] final  -51.63 input  -57.11 | X-H torsion

> <Gold.Protein.ActiveResidues>
 VAL166  LYS551  ARG553  GLY616  TRP617  ASP618  TYR619  PRO620  LYS621  CYS622 
 ASP623  PHE694  ASN695  SER759  ASP760  ASP761  ALA762  ILE779  LEU786  VAL792 
 PHE793  MET794  SER795  GLU796  ALA797  LYS798  CYS799  TRP800  GLU811  SER814 

> <Gold.Protein.RotatedAtoms>
  151.4472  135.1026  159.9687 H   0  0  0  0  0  0  0  0  0  0  0  0  # atno 6907 bound_to 6896
  152.4901  133.8474  159.7194 H   0  0  0  0  0  0  0  0  0  0  0  0  # atno 6908 bound_to 6896
  150.9047  133.7014  159.2897 H   0  0  0  0  0  0  0  0  0  0  0  0  # atno 6909 bound_to 6896
  144.8014  140.5165  143.5704 H   0  0  0  0  0  0  0  0  0  0  0  0  # atno 7974 bound_to 7965
  156.0989  140.1438  156.9493 H   0  0  0  0  0  0  0  0  0  0  0  0  # atno 8008 bound_to 7997
  154.4690  140.0916  156.7140 H   0  0  0  0  0  0  0  0  0  0  0  0  # atno 8009 bound_to 7997
  155.4793  140.3444  155.4339 H   0  0  0  0  0  0  0  0  0  0  0  0  # atno 8010 bound_to 7997
  139.6305  144.0448  152.2012 H   0  0  0  0  0  0  0  0  0  0  0  0  # atno 10167 bound_to 10162
  156.4951  130.4575  149.6733 H   0  0  0  0  0  0  0  0  0  0  0  0  # atno 10718 bound_to 10713
  154.6389  135.2896  155.0127 H   0  0  0  0  0  0  0  0  0  0  0  0  # atno 10763 bound_to 10752
  154.1261  135.6540  153.4916 H   0  0  0  0  0  0  0  0  0  0  0  0  # atno 10764 bound_to 10752
  153.0316  135.5299  154.7248 H   0  0  0  0  0  0  0  0  0  0  0  0  # atno 10765 bound_to 10752
  141.0881  133.6638  156.3905 H   0  0  0  0  0  0  0  0  0  0  0  0  # atno 11005 bound_to 11000
  145.5543  139.1477  143.3377 LP  0  0  0  0  0  0  0  0  0  0  0  0  # atno 17320 bound_to 7965
  146.2297  140.5680  142.8981 LP  0  0  0  0  0  0  0  0  0  0  0  0  # atno 17321 bound_to 7965
  140.0113  144.6222  150.7645 LP  0  0  0  0  0  0  0  0  0  0  0  0  # atno 17342 bound_to 10162
  140.7436  143.2849  151.3492 LP  0  0  0  0  0  0  0  0  0  0  0  0  # atno 17343 bound_to 10162
  156.3387  130.7370  151.2312 LP  0  0  0  0  0  0  0  0  0  0  0  0  # atno 17370 bound_to 10713
  157.7469  131.0409  150.4622 LP  0  0  0  0  0  0  0  0  0  0  0  0  # atno 17371 bound_to 10713
  140.5315  134.6208  157.5351 LP  0  0  0  0  0  0  0  0  0  0  0  0  # atno 17394 bound_to 11000
  139.9702  134.7305  156.0056 LP  0  0  0  0  0  0  0  0  0  0  0  0  # atno 17395 bound_to 11000

$$$$
