AV-unprocessed.smi:1774|AV-procd|sdf|7166|dock2
  -GOLD-   22720 8403D 1   1.00000     0.00000
 Structure written by MMmdl.
 45 46  0  0  0  0  0  0  0  0  1 V2000
  147.7976  133.3202  152.4125 C   0  0  0  0  0  0  0  0  0  0  0  0
  146.4688  133.3021  151.6739 C   0  0  0  0  0  0  0  0  0  0  0  0
  145.9426  132.0707  151.2284 C   0  0  0  0  0  0  0  0  0  0  0  0
  144.7137  132.0562  150.5468 C   0  0  0  0  0  0  0  0  0  0  0  0
  144.0584  133.2820  150.3390 C   0  0  0  0  0  0  0  0  0  0  0  0
  144.5539  134.4631  150.7611 N   0  0  0  0  0  0  0  0  0  0  0  0
  145.7392  134.4946  151.4205 C   0  0  0  0  0  0  0  0  0  0  0  0
  146.3253  135.7037  151.8902 N   0  0  0  0  0  0  0  0  0  0  0  0
  145.7703  136.6635  152.6509 C   0  0  0  0  0  0  0  0  0  0  0  0
  144.6235  136.6469  153.0994 O   0  0  0  0  0  0  0  0  0  0  0  0
  146.6375  137.6597  152.8781 N   0  0  0  0  0  0  0  0  0  0  0  0
  146.3740  138.8278  153.7118 C   0  0  0  0  0  0  0  0  0  0  0  0
  147.4231  139.9360  153.4930 C   0  0  0  0  0  0  0  0  0  0  0  0
  148.5328  139.9450  154.4471 N   0  0  0  0  0  0  0  0  0  0  0  0
  149.0198  141.3013  154.6706 C   0  0  0  0  0  0  0  0  0  0  0  0
  150.1853  141.3566  155.6781 C   0  0  1  0  0  0  0  0  0  0  0  0
  149.7432  141.1284  157.1334 C   0  0  0  0  0  0  0  0  0  0  0  0
  151.2174  140.4488  155.2886 O   0  0  0  0  0  0  0  0  0  0  0  0
  150.7911  139.1077  155.0542 C   0  0  2  0  0  0  0  0  0  0  0  0
  152.0017  138.3004  154.5741 C   0  0  0  0  0  0  0  0  0  0  0  0
  149.6470  139.1031  154.0241 C   0  0  0  0  0  0  0  0  0  0  0  0
  148.2088  132.3156  152.5144 H   0  0  0  0  0  0  0  0  0  0  0  0
  147.6721  133.7339  153.4136 H   0  0  0  0  0  0  0  0  0  0  0  0
  148.5258  133.9279  151.8745 H   0  0  0  0  0  0  0  0  0  0  0  0
  146.4722  131.1461  151.4051 H   0  0  0  0  0  0  0  0  0  0  0  0
  144.2849  131.1303  150.1930 H   0  0  0  0  0  0  0  0  0  0  0  0
  143.1119  133.3165  149.8197 H   0  0  0  0  0  0  0  0  0  0  0  0
  147.2843  135.8528  151.6145 H   0  0  0  0  0  0  0  0  0  0  0  0
  147.5597  137.5906  152.4737 H   0  0  0  0  0  0  0  0  0  0  0  0
  145.3719  139.1925  153.4894 H   0  0  0  0  0  0  0  0  0  0  0  0
  146.3575  138.5362  154.7631 H   0  0  0  0  0  0  0  0  0  0  0  0
  147.8130  139.8665  152.4765 H   0  0  0  0  0  0  0  0  0  0  0  0
  146.9065  140.8956  153.5448 H   0  0  0  0  0  0  0  0  0  0  0  0
  149.3541  141.7253  153.7226 H   0  0  0  0  0  0  0  0  0  0  0  0
  148.2062  141.9379  155.0203 H   0  0  0  0  0  0  0  0  0  0  0  0
  150.6220  142.3545  155.6307 H   0  0  0  0  0  0  0  0  0  0  0  0
  149.0414  141.9002  157.4500 H   0  0  0  0  0  0  0  0  0  0  0  0
  150.5982  141.1615  157.8089 H   0  0  0  0  0  0  0  0  0  0  0  0
  149.2487  140.1662  157.2664 H   0  0  0  0  0  0  0  0  0  0  0  0
  150.4388  138.6722  155.9897 H   0  0  0  0  0  0  0  0  0  0  0  0
  151.7322  137.2597  154.3929 H   0  0  0  0  0  0  0  0  0  0  0  0
  152.7978  138.3124  155.3191 H   0  0  0  0  0  0  0  0  0  0  0  0
  152.4064  138.7086  153.6475 H   0  0  0  0  0  0  0  0  0  0  0  0
  149.3114  138.0761  153.8839 H   0  0  0  0  0  0  0  0  0  0  0  0
  150.0214  139.4446  153.0578 H   0  0  0  0  0  0  0  0  0  0  0  0
  1  2  1  0  0  0  0
  1 22  1  0  0  0  0
  1 23  1  0  0  0  0
  1 24  1  0  0  0  0
  2  7  1  0  0  0  0
  2  3  2  0  0  0  0
  3  4  1  0  0  0  0
  3 25  1  0  0  0  0
  4  5  2  0  0  0  0
  4 26  1  0  0  0  0
  5  6  1  0  0  0  0
  5 27  1  0  0  0  0
  6  7  2  0  0  0  0
  7  8  1  0  0  0  0
  8  9  1  0  0  0  0
  8 28  1  0  0  0  0
  9 10  2  0  0  0  0
  9 11  1  0  0  0  0
 11 12  1  0  0  0  0
 11 29  1  0  0  0  0
 12 13  1  0  0  0  0
 12 30  1  0  0  0  0
 12 31  1  0  0  0  0
 13 14  1  0  0  0  0
 13 32  1  0  0  0  0
 13 33  1  0  0  0  0
 14 21  1  0  0  0  0
 14 15  1  0  0  0  0
 15 16  1  0  0  0  0
 15 34  1  0  0  0  0
 15 35  1  0  0  0  0
 16 17  1  0  0  0  0
 16 18  1  0  0  0  0
 16 36  1  0  0  0  0
 17 37  1  0  0  0  0
 17 38  1  0  0  0  0
 17 39  1  0  0  0  0
 18 19  1  0  0  0  0
 19 20  1  0  0  0  0
 19 21  1  0  0  0  0
 19 40  1  0  0  0  0
 20 41  1  0  0  0  0
 20 42  1  0  0  0  0
 20 43  1  0  0  0  0
 21 44  1  0  0  0  0
 21 45  1  0  0  0  0
M  END
> <s_m_source_file>
AV-unprocessed.smi

> <i_m_source_file_index>
1774

> <i_lp_mmshare_version>
43012

> <i_f3d_flags>
0

> <s_epik_input>
W0NIM11jMVtjSF1bY0hdW2NIXW5jMVtOSF1DKD1PKVtOSF1bQ0gyXVtDSDJdTjJbQ0gyXVtDQEBIXShbQ0gzXSlPW0NAQEhdKFtDSDNdKVtDSDJdMg==

> <s_epik_cmdline>
J2VwaWtfcHl0aG9uJywgJy1waCcsICc3LjAnLCAnLXRuJywgJzgnLCAnLW1hJywgJzIwMCcsICctbWV0YWxfYmluZGluZycsICctaW1hZScsICc8aW5maWxlLm1hZT4nLCAnLW9tYWUnLCAnPG91dGZpbGUubWFlPic=

> <r_epik_Ionization_Penalty>
0.266047

> <r_epik_Ionization_Penalty_Charging>
0

> <r_epik_Ionization_Penalty_Neutral>
0.266047

> <r_epik_State_Penalty>
0.257924

> <r_epik_Charging_Adjusted_Penalty>
0.257924

> <i_epik_Tot_Q>
0

> <i_epik_Tot_abs_Q>
0

> <r_epik_Metal_State_Penalty>
0.257922

> <b_epik_Metal_Only>
0

> <s_lp_Force_Field>
OPLS_2005

> <r_lp_Energy>
30.3596

> <b_lp_Chiralities_Consistent>
1

> <s_lp_Variant>
AV-unprocessed.smi:1774-3

> <Gold.Version>
5.8.1

> <Gold.Id.Protein>
6NUR|6NUR_protein|mol2

> <Gold.PLP.Fitness>
48.3189

> <Gold.PLP.PLP>
-39.0093

> <Gold.PLP.part.hbond>
-3.0000

> <Gold.PLP.part.metal>
0.0000

> <Gold.PLP.part.buried>
-3.7034

> <Gold.PLP.part.nonpolar>
-32.6414

> <Gold.PLP.part.repulsive>
0.5919

> <Gold.PLP.ligand.clash>
0.0000

> <Gold.PLP.ligand.torsion>
1.1649

> <Gold.PLP.Chemscore.Hbond>
2.8560

> <Gold.PLP.Chemscore.CHOScore>
1.0000

> <Gold.PLP.Chemscore.Metal>
0.0000

> <Gold.Chemscore.Hbonds>
donor molecule, donor type, donor heavy atom, donor atom, acceptor molecule, acceptor atom, score
      L1  H     8    28       P1  7948  1.00
      L1  H    11    29       P1  7948  0.86
      P1  H  7989  7998       L1    18  0.86
      L1  C     5    27       P1 10186  1.00

> <Gold.PLP.Chemscore.Internal.Correction>
0.0713

> <Gold.Rescore>
     Score         DG    S(hbond)    S(metal)    S(lipo)     H(rot)  DE(clash)    DE(int)     intcor
     17.80     -18.98       1.95        0.00      91.64       1.46       0.06       1.12       ----

> <Gold.Chemscore.Fitness>
17.8039

> <Gold.Chemscore.DG>
-18.9826

> <Gold.Chemscore.ZeroCoef>
-5.4800

> <Gold.Chemscore.Hbond>
1.9487

> <Gold.Chemscore.Metal>
0.0000

> <Gold.Chemscore.Lipo>
91.6403

> <Gold.Chemscore.Internal_Hbond>
0.0000

> <Gold.Chemscore.DEClash>
0.0613

> <Gold.Chemscore.DEInternal>
1.1174

> <Gold.Chemscore.Rot>
1.4562

> <Gold.Chemscore.Internal.Correction>
   9.000000E+99

> <Gold.Chemscore.Hbonds>
donor molecule, donor type, donor heavy atom, donor atom, acceptor molecule, acceptor atom, score
      L1  H     8    28       P1  7948  0.99
      L1  H    11    29       P1  7948  0.79
      P1  H  7989  7998       L1    18  0.09

> <Gold.Chemscore.Hbond.Weighted>
-6.5085

> <Gold.Chemscore.Metal.Weighted>
-0.0000

> <Gold.Chemscore.Lipo.Weighted>
-10.7219

> <Gold.Chemscore.Internal_Hbond.Weighted>
0.0000

> <Gold.Chemscore.DEClash.Weighted>
0.0613

> <Gold.Chemscore.DEInternal.Weighted>
1.1174

> <Gold.Chemscore.Rot.Weighted>
3.7278

> <Gold.Chemscore.Internal.Correction.Weighted>
   9.000000E+99

> <Gold.Protein.RotatedTorsions>
[ 6907 6896 6895 6894 ] final  -58.66 input  -60.11 | X-H torsion
[ 7974 7965 7964 7962 ] final -162.27 input  175.53 | X-H torsion
[ 8008 7997 7996 7995 ] final  177.89 input   59.86 | X-H torsion
[ 10167 10162 10161 10158 ] final -152.88 input  -65.29 | X-H torsion
[ 10718 10713 10712 10709 ] final  -95.69 input   66.30 | X-H torsion
[ 10763 10752 10751 10750 ] final  141.38 input  -60.55 | X-H torsion
[ 11005 11000 10999 10996 ] final -107.41 input  -57.11 | X-H torsion

> <Gold.Protein.ActiveResidues>
 VAL166  LYS551  ARG553  GLY616  TRP617  ASP618  TYR619  PRO620  LYS621  CYS622 
 ASP623  PHE694  ASN695  SER759  ASP760  ASP761  ALA762  ILE779  LEU786  VAL792 
 PHE793  MET794  SER795  GLU796  ALA797  LYS798  CYS799  TRP800  GLU811  SER814 

> <Gold.Protein.RotatedAtoms>
  150.7989  134.7069  159.6581 H   0  0  0  0  0  0  0  0  0  0  0  0  # atno 6907 bound_to 6896
  152.4104  134.6130  160.0040 H   0  0  0  0  0  0  0  0  0  0  0  0  # atno 6908 bound_to 6896
  151.6375  133.3291  159.3159 H   0  0  0  0  0  0  0  0  0  0  0  0  # atno 6909 bound_to 6896
  144.7363  140.3276  143.6159 H   0  0  0  0  0  0  0  0  0  0  0  0  # atno 7974 bound_to 7965
  156.0606  140.1347  156.9945 H   0  0  0  0  0  0  0  0  0  0  0  0  # atno 8008 bound_to 7997
  154.4480  140.0992  156.6583 H   0  0  0  0  0  0  0  0  0  0  0  0  # atno 8009 bound_to 7997
  155.5382  140.3460  155.4443 H   0  0  0  0  0  0  0  0  0  0  0  0  # atno 8010 bound_to 7997
  139.7144  143.9057  152.2480 H   0  0  0  0  0  0  0  0  0  0  0  0  # atno 10167 bound_to 10162
  156.0048  130.5120  150.6114 H   0  0  0  0  0  0  0  0  0  0  0  0  # atno 10718 bound_to 10713
  153.9382  135.2983  155.3443 H   0  0  0  0  0  0  0  0  0  0  0  0  # atno 10763 bound_to 10752
  154.7491  135.4989  153.9260 H   0  0  0  0  0  0  0  0  0  0  0  0  # atno 10764 bound_to 10752
  153.1056  135.6746  153.9699 H   0  0  0  0  0  0  0  0  0  0  0  0  # atno 10765 bound_to 10752
  141.0955  133.8978  157.1972 H   0  0  0  0  0  0  0  0  0  0  0  0  # atno 11005 bound_to 11000
  145.7504  139.1792  143.2325 LP  0  0  0  0  0  0  0  0  0  0  0  0  # atno 17320 bound_to 7965
  146.1065  140.7481  142.9524 LP  0  0  0  0  0  0  0  0  0  0  0  0  # atno 17321 bound_to 7965
  139.8935  144.6952  150.8743 LP  0  0  0  0  0  0  0  0  0  0  0  0  # atno 17342 bound_to 10162
  140.7740  143.3568  151.1906 LP  0  0  0  0  0  0  0  0  0  0  0  0  # atno 17343 bound_to 10162
  157.3946  131.0801  151.1363 LP  0  0  0  0  0  0  0  0  0  0  0  0  # atno 17370 bound_to 10713
  157.2044  130.6409  149.5750 LP  0  0  0  0  0  0  0  0  0  0  0  0  # atno 17371 bound_to 10713
  139.9791  135.0104  156.9705 LP  0  0  0  0  0  0  0  0  0  0  0  0  # atno 17394 bound_to 11000
  140.5149  134.0965  155.7278 LP  0  0  0  0  0  0  0  0  0  0  0  0  # atno 17395 bound_to 11000

$$$$
