AV-unprocessed.smi:2198|AV-procd|sdf|8919|dock4
  -GOLD-   2272012133D 1   1.00000     0.00000
 Structure written by MMmdl.
 42 43  0  0  0  0  0  0  0  0  2 V2000
  145.0286  142.2089  160.0715 C   0  0  0  0  0  0  0  0  0  0  0  0
  145.8214  141.9728  158.8039 C   0  0  0  0  0  0  0  0  0  0  0  0
  145.4662  142.5640  157.7275 N   0  0  0  0  0  0  0  0  0  0  0  0
  146.1979  142.3493  156.5473 C   0  0  0  0  0  0  0  0  0  0  0  0
  145.7028  143.0886  155.3164 C   0  0  0  0  0  0  0  0  0  0  0  0
  147.2825  141.5228  156.5296 C   0  0  0  0  0  0  0  0  0  0  0  0
  148.1083  141.2566  155.2712 C   0  0  0  0  0  0  0  0  0  0  0  0
  149.6250  141.3911  155.4243 C   0  0  0  0  0  0  0  0  0  0  0  0
  150.3872  140.7258  154.7227 O   0  0  0  0  0  0  0  0  0  0  0  0
  150.0491  142.2618  156.3526 N   0  0  0  0  0  0  0  0  0  0  0  0
  151.4460  142.5470  156.6746 C   0  0  2  0  0  0  0  0  0  0  0  0
  152.0924  141.3311  157.3661 C   0  0  0  0  0  0  0  0  0  0  0  0
  151.5590  141.1234  158.7941 C   0  0  0  0  0  0  0  0  0  0  0  0
  151.7190  142.3951  159.6416 C   0  0  0  0  0  0  0  0  0  0  0  0
  151.0371  143.6069  158.9780 C   0  0  1  0  0  0  0  0  0  0  0  0
  151.1972  144.8756  159.8273 C   0  0  0  0  0  0  0  0  0  0  0  0
  151.5787  143.8140  157.5481 C   0  0  0  0  0  0  0  0  0  0  0  0
  147.6619  140.8641  157.7925 C   0  0  0  0  0  0  0  0  0  0  0  0
  148.6402  140.1188  157.8351 O   0  0  0  0  0  0  0  0  0  0  0  0
  146.8958  141.1162  158.8922 N   0  5  0  0  0  0  0  0  0  0  0  0
  144.3512  143.0563  159.9581 H   0  0  0  0  0  0  0  0  0  0  0  0
  145.6976  142.4192  160.9067 H   0  0  0  0  0  0  0  0  0  0  0  0
  144.4373  141.3261  160.3148 H   0  0  0  0  0  0  0  0  0  0  0  0
  145.3572  142.3828  154.5610 H   0  0  0  0  0  0  0  0  0  0  0  0
  146.4980  143.6976  154.8865 H   0  0  0  0  0  0  0  0  0  0  0  0
  144.8719  143.7511  155.5619 H   0  0  0  0  0  0  0  0  0  0  0  0
  147.8936  140.2669  154.8673 H   0  0  0  0  0  0  0  0  0  0  0  0
  147.7754  141.9479  154.4964 H   0  0  0  0  0  0  0  0  0  0  0  0
  149.3499  142.7648  156.8794 H   0  0  0  0  0  0  0  0  0  0  0  0
  151.9777  142.7156  155.7362 H   0  0  0  0  0  0  0  0  0  0  0  0
  151.9347  140.4297  156.7725 H   0  0  0  0  0  0  0  0  0  0  0  0
  153.1721  141.4795  157.4102 H   0  0  0  0  0  0  0  0  0  0  0  0
  150.5070  140.8372  158.7587 H   0  0  0  0  0  0  0  0  0  0  0  0
  152.0859  140.2947  159.2678 H   0  0  0  0  0  0  0  0  0  0  0  0
  151.2988  142.2265  160.6337 H   0  0  0  0  0  0  0  0  0  0  0  0
  152.7800  142.6023  159.7876 H   0  0  0  0  0  0  0  0  0  0  0  0
  149.9688  143.3964  158.9096 H   0  0  0  0  0  0  0  0  0  0  0  0
  152.2469  145.1488  159.9396 H   0  0  0  0  0  0  0  0  0  0  0  0
  150.7809  144.7351  160.8253 H   0  0  0  0  0  0  0  0  0  0  0  0
  150.6797  145.7201  159.3715 H   0  0  0  0  0  0  0  0  0  0  0  0
  152.6314  144.0946  157.6012 H   0  0  0  0  0  0  0  0  0  0  0  0
  151.0707  144.6540  157.0724 H   0  0  0  0  0  0  0  0  0  0  0  0
  1  2  1  0  0  0  0
  1 21  1  0  0  0  0
  1 22  1  0  0  0  0
  1 23  1  0  0  0  0
  2 20  1  0  0  0  0
  2  3  2  0  0  0  0
  3  4  1  0  0  0  0
  4  5  1  0  0  0  0
  4  6  2  0  0  0  0
  5 24  1  0  0  0  0
  5 25  1  0  0  0  0
  5 26  1  0  0  0  0
  6  7  1  0  0  0  0
  6 18  1  0  0  0  0
  7  8  1  0  0  0  0
  7 27  1  0  0  0  0
  7 28  1  0  0  0  0
  8  9  2  0  0  0  0
  8 10  1  0  0  0  0
 10 11  1  0  0  0  0
 10 29  1  0  0  0  0
 11 17  1  0  0  0  0
 11 12  1  0  0  0  0
 11 30  1  0  0  0  0
 12 13  1  0  0  0  0
 12 31  1  0  0  0  0
 12 32  1  0  0  0  0
 13 14  1  0  0  0  0
 13 33  1  0  0  0  0
 13 34  1  0  0  0  0
 14 15  1  0  0  0  0
 14 35  1  0  0  0  0
 14 36  1  0  0  0  0
 15 16  1  0  0  0  0
 15 17  1  0  0  0  0
 15 37  1  0  0  0  0
 16 38  1  0  0  0  0
 16 39  1  0  0  0  0
 16 40  1  0  0  0  0
 17 41  1  0  0  0  0
 17 42  1  0  0  0  0
 18 19  2  0  0  0  0
 18 20  1  0  0  0  0
M  CHG  1  20  -1
M  END
> <s_m_source_file>
AV-unprocessed.smi

> <i_m_source_file_index>
2198

> <i_lp_mmshare_version>
43012

> <i_f3d_flags>
0

> <s_epik_input>
W0NIM11jMW5jKFtDSDNdKWMoYyg9TylbbkhdMSlbQ0gyXUMoPU8pW05IXVtDQEBIXTJbQ0gyXVtDSDJdW0NIMl1bQ0BASF0oW0NIM10pW0NIMl0y

> <s_epik_cmdline>
J2VwaWtfcHl0aG9uJywgJy1waCcsICc3LjAnLCAnLXRuJywgJzgnLCAnLW1hJywgJzIwMCcsICctbWV0YWxfYmluZGluZycsICctaW1hZScsICc8aW5maWxlLm1hZT4nLCAnLW9tYWUnLCAnPG91dGZpbGUubWFlPic=

> <r_lp_tautomer_probability>
0.839158

> <r_epik_Ionization_Penalty>
6.67193

> <r_epik_Ionization_Penalty_Charging>
7.66837e-08

> <r_epik_Ionization_Penalty_Neutral>
6.67193

> <r_epik_State_Penalty>
4.51643

> <r_epik_Charging_Adjusted_Penalty>
4.51643

> <i_epik_Tot_Q>
-1

> <i_epik_Tot_abs_Q>
1

> <r_epik_Metal_State_Penalty>
0.851582

> <b_epik_Metal_Only>
1

> <s_lp_Force_Field>
OPLS_2005

> <r_lp_Energy>
13.1445

> <b_lp_Chiralities_Consistent>
1

> <s_lp_Variant>
AV-unprocessed.smi:2198-9

> <Gold.Version>
5.8.1

> <Gold.Id.Protein>
6NUR|6NUR_protein|mol2

> <Gold.PLP.Fitness>
36.3425

> <Gold.PLP.PLP>
-30.2465

> <Gold.PLP.part.hbond>
-3.5292

> <Gold.PLP.part.metal>
0.0000

> <Gold.PLP.part.buried>
-7.3118

> <Gold.PLP.part.nonpolar>
-20.5191

> <Gold.PLP.part.repulsive>
0.2905

> <Gold.PLP.ligand.clash>
0.0000

> <Gold.PLP.ligand.torsion>
0.6036

> <Gold.PLP.Chemscore.Hbond>
2.4319

> <Gold.PLP.Chemscore.CHOScore>
0.0000

> <Gold.PLP.Chemscore.Metal>
0.0000

> <Gold.Chemscore.Hbonds>
donor molecule, donor type, donor heavy atom, donor atom, acceptor molecule, acceptor atom, score
      L1  H    10    29       P1  8028  0.03
      P1  H  6934  6946       L1    20  0.67
      P1  H  7989  7998       L1     9  0.86

> <Gold.PLP.Chemscore.Internal.Correction>
0.0076

> <Gold.Rescore>
     Score         DG    S(hbond)    S(metal)    S(lipo)     H(rot)  DE(clash)    DE(int)     intcor
     14.29     -17.11       1.69        0.00      82.84       1.45       1.27       1.55       ----

> <Gold.Chemscore.Fitness>
14.2883

> <Gold.Chemscore.DG>
-17.1080

> <Gold.Chemscore.ZeroCoef>
-5.4800

> <Gold.Chemscore.Hbond>
1.6871

> <Gold.Chemscore.Metal>
0.0000

> <Gold.Chemscore.Lipo>
82.8397

> <Gold.Chemscore.Internal_Hbond>
0.0000

> <Gold.Chemscore.DEClash>
1.2673

> <Gold.Chemscore.DEInternal>
1.5524

> <Gold.Chemscore.Rot>
1.4450

> <Gold.Chemscore.Internal.Correction>
   9.000000E+99

> <Gold.Chemscore.Hbonds>
donor molecule, donor type, donor heavy atom, donor atom, acceptor molecule, acceptor atom, score
      L1  H    10    29       P1  8028  0.03
      P1  H  6934  6946       L1    20  0.10
      P1  H  7989  7998       L1     9  0.85

> <Gold.Chemscore.Hbond.Weighted>
-5.6349

> <Gold.Chemscore.Metal.Weighted>
-0.0000

> <Gold.Chemscore.Lipo.Weighted>
-9.6922

> <Gold.Chemscore.Internal_Hbond.Weighted>
0.0000

> <Gold.Chemscore.DEClash.Weighted>
1.2673

> <Gold.Chemscore.DEInternal.Weighted>
1.5524

> <Gold.Chemscore.Rot.Weighted>
3.6992

> <Gold.Chemscore.Internal.Correction.Weighted>
   9.000000E+99

> <Gold.Protein.RotatedTorsions>
[ 6907 6896 6895 6894 ] final  -14.89 input  -60.11 | X-H torsion
[ 7974 7965 7964 7962 ] final   82.87 input  175.53 | X-H torsion
[ 8008 7997 7996 7995 ] final   75.10 input   59.86 | X-H torsion
[ 10167 10162 10161 10158 ] final   62.02 input  -65.29 | X-H torsion
[ 10718 10713 10712 10709 ] final  -64.81 input   66.30 | X-H torsion
[ 10763 10752 10751 10750 ] final  171.29 input  -60.55 | X-H torsion
[ 11005 11000 10999 10996 ] final   69.01 input  -57.11 | X-H torsion

> <Gold.Protein.ActiveResidues>
 VAL166  LYS551  ARG553  GLY616  TRP617  ASP618  TYR619  PRO620  LYS621  CYS622 
 ASP623  PHE694  ASN695  SER759  ASP760  ASP761  ALA762  ILE779  LEU786  VAL792 
 PHE793  MET794  SER795  GLU796  ALA797  LYS798  CYS799  TRP800  GLU811  SER814 

> <Gold.Protein.RotatedAtoms>
  151.3324  135.0844  159.9342 H   0  0  0  0  0  0  0  0  0  0  0  0  # atno 6907 bound_to 6896
  152.5231  133.9530  159.7691 H   0  0  0  0  0  0  0  0  0  0  0  0  # atno 6908 bound_to 6896
  150.9871  133.6134  159.2743 H   0  0  0  0  0  0  0  0  0  0  0  0  # atno 6909 bound_to 6896
  145.6193  139.2383  143.2147 H   0  0  0  0  0  0  0  0  0  0  0  0  # atno 7974 bound_to 7965
  155.8080  140.3474  155.5441 H   0  0  0  0  0  0  0  0  0  0  0  0  # atno 8008 bound_to 7997
  155.8469  140.0950  157.1719 H   0  0  0  0  0  0  0  0  0  0  0  0  # atno 8009 bound_to 7997
  154.4006  140.1384  156.3785 H   0  0  0  0  0  0  0  0  0  0  0  0  # atno 8010 bound_to 7997
  140.1484  144.4486  150.6772 H   0  0  0  0  0  0  0  0  0  0  0  0  # atno 10167 bound_to 10162
  156.0707  130.4238  150.1474 H   0  0  0  0  0  0  0  0  0  0  0  0  # atno 10718 bound_to 10713
  154.4097  135.2756  155.2044 H   0  0  0  0  0  0  0  0  0  0  0  0  # atno 10763 bound_to 10752
  154.4035  135.6039  153.5914 H   0  0  0  0  0  0  0  0  0  0  0  0  # atno 10764 bound_to 10752
  152.9831  135.5932  154.4377 H   0  0  0  0  0  0  0  0  0  0  0  0  # atno 10765 bound_to 10752
  139.9678  134.6951  156.0509 H   0  0  0  0  0  0  0  0  0  0  0  0  # atno 11005 bound_to 11000
  146.1443  140.7014  142.9352 LP  0  0  0  0  0  0  0  0  0  0  0  0  # atno 17320 bound_to 7965
  144.7237  140.4458  143.6989 LP  0  0  0  0  0  0  0  0  0  0  0  0  # atno 17321 bound_to 7965
  140.6717  143.2288  151.5607 LP  0  0  0  0  0  0  0  0  0  0  0  0  # atno 17342 bound_to 10162
  139.5438  144.2577  152.1402 LP  0  0  0  0  0  0  0  0  0  0  0  0  # atno 17343 bound_to 10162
  156.9525  130.9779  151.3495 LP  0  0  0  0  0  0  0  0  0  0  0  0  # atno 17370 bound_to 10713
  157.5775  130.8353  149.8476 LP  0  0  0  0  0  0  0  0  0  0  0  0  # atno 17371 bound_to 10713
  141.1358  133.6575  156.3589 LP  0  0  0  0  0  0  0  0  0  0  0  0  # atno 17394 bound_to 11000
  140.5359  134.6167  157.5365 LP  0  0  0  0  0  0  0  0  0  0  0  0  # atno 17395 bound_to 11000

$$$$
