AV-unprocessed.smi:653|AV-procd|sdf|3207|dock10
  -GOLD-   22720 0143D 1   1.00000     0.00000
 Structure written by MMmdl.
 44 45  0  0  0  0  0  0  0  0  1 V2000
  152.8554  143.5174  162.8565 C   0  0  0  0  0  0  0  0  0  0  0  0
  152.5141  143.5900  161.3827 C   0  0  0  0  0  0  0  0  0  0  0  0
  151.8944  144.7353  160.8401 C   0  0  0  0  0  0  0  0  0  0  0  0
  151.5998  144.7497  159.4632 C   0  0  0  0  0  0  0  0  0  0  0  0
  151.9343  143.6227  158.6842 C   0  0  0  0  0  0  0  0  0  0  0  0
  151.6290  143.5849  157.1973 C   0  0  0  0  0  0  0  0  0  0  0  0
  150.9996  142.2450  156.8136 C   0  0  0  0  0  0  0  0  0  0  0  0
  151.5676  141.1924  157.1036 O   0  0  0  0  0  0  0  0  0  0  0  0
  149.8261  142.2981  156.1642 N   0  0  0  0  0  0  0  0  0  0  0  0
  149.0697  141.1402  155.7015 C   0  0  0  0  0  0  0  0  0  0  0  0
  147.6164  141.1541  156.2153 C   0  0  1  0  0  0  0  0  0  0  0  0
  147.4836  141.3418  157.7143 C   0  0  0  0  0  0  0  0  0  0  0  0
  146.0309  141.7848  157.8405 C   0  0  0  0  0  0  0  0  0  0  0  0
  145.7680  142.5593  156.6754 O   0  0  0  0  0  0  0  0  0  0  0  0
  146.7806  142.3337  155.6954 C   0  0  2  0  0  0  0  0  0  0  0  0
  146.1693  142.1651  154.2856 C   0  0  0  0  0  0  0  0  0  0  0  0
  147.1592  141.4654  153.3410 C   0  0  0  0  0  0  0  0  0  0  0  0
  145.6764  143.4873  153.6693 C   0  0  0  0  0  0  0  0  0  0  0  0
  152.5560  142.5297  159.3246 C   0  0  0  0  0  0  0  0  0  0  0  0
  152.8414  142.5067  160.6440 N   0  0  0  0  0  0  0  0  0  0  0  0
  152.3321  144.2903  163.4200 H   0  0  0  0  0  0  0  0  0  0  0  0
  153.9272  143.6540  163.0017 H   0  0  0  0  0  0  0  0  0  0  0  0
  152.5727  142.5485  163.2696 H   0  0  0  0  0  0  0  0  0  0  0  0
  151.6481  145.5835  161.4618 H   0  0  0  0  0  0  0  0  0  0  0  0
  151.1216  145.6086  159.0152 H   0  0  0  0  0  0  0  0  0  0  0  0
  150.9517  144.4009  156.9417 H   0  0  0  0  0  0  0  0  0  0  0  0
  152.5421  143.7403  156.6211 H   0  0  0  0  0  0  0  0  0  0  0  0
  149.4338  143.2077  155.9675 H   0  0  0  0  0  0  0  0  0  0  0  0
  149.0842  141.1432  154.6112 H   0  0  0  0  0  0  0  0  0  0  0  0
  149.5738  140.2237  156.0119 H   0  0  0  0  0  0  0  0  0  0  0  0
  147.1321  140.2136  155.9548 H   0  0  0  0  0  0  0  0  0  0  0  0
  147.7004  140.4369  158.2827 H   0  0  0  0  0  0  0  0  0  0  0  0
  148.1483  142.1337  158.0623 H   0  0  0  0  0  0  0  0  0  0  0  0
  145.3684  140.9185  157.8372 H   0  0  0  0  0  0  0  0  0  0  0  0
  145.8426  142.3535  158.7514 H   0  0  0  0  0  0  0  0  0  0  0  0
  147.4148  143.2220  155.7029 H   0  0  0  0  0  0  0  0  0  0  0  0
  145.3050  141.5063  154.3776 H   0  0  0  0  0  0  0  0  0  0  0  0
  148.0569  142.0662  153.1915 H   0  0  0  0  0  0  0  0  0  0  0  0
  146.7113  141.2879  152.3628 H   0  0  0  0  0  0  0  0  0  0  0  0
  147.4685  140.4984  153.7388 H   0  0  0  0  0  0  0  0  0  0  0  0
  146.4871  144.2109  153.5779 H   0  0  0  0  0  0  0  0  0  0  0  0
  144.8848  143.9450  154.2611 H   0  0  0  0  0  0  0  0  0  0  0  0
  145.2703  143.3224  152.6711 H   0  0  0  0  0  0  0  0  0  0  0  0
  152.8270  141.6463  158.7651 H   0  0  0  0  0  0  0  0  0  0  0  0
  1  2  1  0  0  0  0
  1 21  1  0  0  0  0
  1 22  1  0  0  0  0
  1 23  1  0  0  0  0
  2 20  1  0  0  0  0
  2  3  2  0  0  0  0
  3  4  1  0  0  0  0
  3 24  1  0  0  0  0
  4  5  2  0  0  0  0
  4 25  1  0  0  0  0
  5  6  1  0  0  0  0
  5 19  1  0  0  0  0
  6  7  1  0  0  0  0
  6 26  1  0  0  0  0
  6 27  1  0  0  0  0
  7  8  2  0  0  0  0
  7  9  1  0  0  0  0
  9 10  1  0  0  0  0
  9 28  1  0  0  0  0
 10 11  1  0  0  0  0
 10 29  1  0  0  0  0
 10 30  1  0  0  0  0
 11 15  1  0  0  0  0
 11 12  1  0  0  0  0
 11 31  1  0  0  0  0
 12 13  1  0  0  0  0
 12 32  1  0  0  0  0
 12 33  1  0  0  0  0
 13 14  1  0  0  0  0
 13 34  1  0  0  0  0
 13 35  1  0  0  0  0
 14 15  1  0  0  0  0
 15 16  1  0  0  0  0
 15 36  1  0  0  0  0
 16 17  1  0  0  0  0
 16 18  1  0  0  0  0
 16 37  1  0  0  0  0
 17 38  1  0  0  0  0
 17 39  1  0  0  0  0
 17 40  1  0  0  0  0
 18 41  1  0  0  0  0
 18 42  1  0  0  0  0
 18 43  1  0  0  0  0
 19 20  2  0  0  0  0
 19 44  1  0  0  0  0
M  END
> <s_m_source_file>
AV-unprocessed.smi

> <i_m_source_file_index>
653

> <i_lp_mmshare_version>
43012

> <i_f3d_flags>
0

> <s_epik_input>
W0NIM11jMVtjSF1bY0hdYyhbY0hdbjEpW0NIMl1DKD1PKVtOSF1bQ0gyXVtDQEBIXTJbQ0gyXVtDSDJdT1tDQEhdMltDSF0oW0NIM10pW0NIM10=

> <s_epik_cmdline>
J2VwaWtfcHl0aG9uJywgJy1waCcsICc3LjAnLCAnLXRuJywgJzgnLCAnLW1hJywgJzIwMCcsICctbWV0YWxfYmluZGluZycsICctaW1hZScsICc8aW5maWxlLm1hZT4nLCAnLW9tYWUnLCAnPG91dGZpbGUubWFlPic=

> <r_epik_Ionization_Penalty>
0.0166429

> <r_epik_Ionization_Penalty_Charging>
0

> <r_epik_Ionization_Penalty_Neutral>
0.0166429

> <r_epik_State_Penalty>
0.0131478

> <r_epik_Charging_Adjusted_Penalty>
0.0131478

> <i_epik_Tot_Q>
0

> <i_epik_Tot_abs_Q>
0

> <r_epik_Metal_State_Penalty>
0.012786

> <b_epik_Metal_Only>
0

> <s_lp_Force_Field>
OPLS_2005

> <r_lp_Energy>
17.7281

> <b_lp_Chiralities_Consistent>
1

> <s_lp_Variant>
AV-unprocessed.smi:653-4

> <Gold.Version>
5.8.1

> <Gold.Id.Protein>
6NUR|6NUR_protein|mol2

> <Gold.PLP.Fitness>
45.3452

> <Gold.PLP.PLP>
-43.4026

> <Gold.PLP.part.hbond>
-1.0000

> <Gold.PLP.part.metal>
0.0000

> <Gold.PLP.part.buried>
-5.8057

> <Gold.PLP.part.nonpolar>
-36.5820

> <Gold.PLP.part.repulsive>
0.2406

> <Gold.PLP.ligand.clash>
0.0000

> <Gold.PLP.ligand.torsion>
0.5430

> <Gold.PLP.Chemscore.Hbond>
1.0000

> <Gold.PLP.Chemscore.CHOScore>
0.0000

> <Gold.PLP.Chemscore.Metal>
0.0000

> <Gold.Chemscore.Hbonds>
donor molecule, donor type, donor heavy atom, donor atom, acceptor molecule, acceptor atom, score
      L1  H     9    28       P1  8028  1.00

> <Gold.PLP.Chemscore.Internal.Correction>
0.0286

> <Gold.Rescore>
     Score         DG    S(hbond)    S(metal)    S(lipo)     H(rot)  DE(clash)    DE(int)     intcor
     15.94     -19.10       0.99        0.00     120.53       1.48       0.80       2.36       ----

> <Gold.Chemscore.Fitness>
15.9376

> <Gold.Chemscore.DG>
-19.0998

> <Gold.Chemscore.ZeroCoef>
-5.4800

> <Gold.Chemscore.Hbond>
0.9937

> <Gold.Chemscore.Metal>
0.0000

> <Gold.Chemscore.Lipo>
120.5315

> <Gold.Chemscore.Internal_Hbond>
0.0000

> <Gold.Chemscore.DEClash>
0.8026

> <Gold.Chemscore.DEInternal>
2.3596

> <Gold.Chemscore.Rot>
1.4850

> <Gold.Chemscore.Internal.Correction>
   9.000000E+99

> <Gold.Chemscore.Hbonds>
donor molecule, donor type, donor heavy atom, donor atom, acceptor molecule, acceptor atom, score
      L1  H     9    28       P1  8028  1.00

> <Gold.Chemscore.Hbond.Weighted>
-3.3191

> <Gold.Chemscore.Metal.Weighted>
-0.0000

> <Gold.Chemscore.Lipo.Weighted>
-14.1022

> <Gold.Chemscore.Internal_Hbond.Weighted>
0.0000

> <Gold.Chemscore.DEClash.Weighted>
0.8026

> <Gold.Chemscore.DEInternal.Weighted>
2.3596

> <Gold.Chemscore.Rot.Weighted>
3.8015

> <Gold.Chemscore.Internal.Correction.Weighted>
   9.000000E+99

> <Gold.Protein.RotatedTorsions>
[ 6907 6896 6895 6894 ] final   79.74 input  -60.11 | X-H torsion
[ 7974 7965 7964 7962 ] final -160.89 input  175.53 | X-H torsion
[ 8008 7997 7996 7995 ] final  -43.79 input   59.86 | X-H torsion
[ 10167 10162 10161 10158 ] final   89.37 input  -65.29 | X-H torsion
[ 10718 10713 10712 10709 ] final -122.43 input   66.30 | X-H torsion
[ 10763 10752 10751 10750 ] final -144.99 input  -60.55 | X-H torsion
[ 11005 11000 10999 10996 ] final  -53.16 input  -57.11 | X-H torsion

> <Gold.Protein.ActiveResidues>
 VAL166  LYS551  ARG553  GLY616  TRP617  ASP618  TYR619  PRO620  LYS621  CYS622 
 ASP623  PHE694  ASN695  SER759  ASP760  ASP761  ALA762  ILE779  LEU786  VAL792 
 PHE793  MET794  SER795  GLU796  ALA797  LYS798  CYS799  TRP800  GLU811  SER814 

> <Gold.Protein.RotatedAtoms>
  152.5210  134.3465  159.9235 H   0  0  0  0  0  0  0  0  0  0  0  0  # atno 6907 bound_to 6896
  151.3415  133.3954  159.2679 H   0  0  0  0  0  0  0  0  0  0  0  0  # atno 6908 bound_to 6896
  150.9800  134.9175  159.7896 H   0  0  0  0  0  0  0  0  0  0  0  0  # atno 6909 bound_to 6896
  144.7410  140.3477  143.6122 H   0  0  0  0  0  0  0  0  0  0  0  0  # atno 7974 bound_to 7965
  154.3997  140.1439  156.3577 H   0  0  0  0  0  0  0  0  0  0  0  0  # atno 8008 bound_to 7997
  155.8210  140.3469  155.5493 H   0  0  0  0  0  0  0  0  0  0  0  0  # atno 8009 bound_to 7997
  155.8288  140.0909  157.1796 H   0  0  0  0  0  0  0  0  0  0  0  0  # atno 8010 bound_to 7997
  139.8579  144.6559  150.9092 H   0  0  0  0  0  0  0  0  0  0  0  0  # atno 10167 bound_to 10162
  156.1418  130.6471  150.9782 H   0  0  0  0  0  0  0  0  0  0  0  0  # atno 10718 bound_to 10713
  154.8403  135.3425  154.6433 H   0  0  0  0  0  0  0  0  0  0  0  0  # atno 10763 bound_to 10752
  153.7045  135.6967  153.5058 H   0  0  0  0  0  0  0  0  0  0  0  0  # atno 10764 bound_to 10752
  153.2498  135.4357  155.0739 H   0  0  0  0  0  0  0  0  0  0  0  0  # atno 10765 bound_to 10752
  141.0962  133.6624  156.4132 H   0  0  0  0  0  0  0  0  0  0  0  0  # atno 11005 bound_to 11000
  145.7309  139.1736  143.2431 LP  0  0  0  0  0  0  0  0  0  0  0  0  # atno 17320 bound_to 7965
  146.1207  140.7313  142.9459 LP  0  0  0  0  0  0  0  0  0  0  0  0  # atno 17321 bound_to 7965
  140.7779  143.3770  151.1546 LP  0  0  0  0  0  0  0  0  0  0  0  0  # atno 17342 bound_to 10162
  139.7402  143.8937  152.3047 LP  0  0  0  0  0  0  0  0  0  0  0  0  # atno 17343 bound_to 10162
  157.6582  131.0885  150.7900 LP  0  0  0  0  0  0  0  0  0  0  0  0  # atno 17370 bound_to 10713
  156.7974  130.4910  149.5375 LP  0  0  0  0  0  0  0  0  0  0  0  0  # atno 17371 bound_to 10713
  140.5134  134.6373  157.5292 LP  0  0  0  0  0  0  0  0  0  0  0  0  # atno 17394 bound_to 11000
  139.9799  134.7154  155.9878 LP  0  0  0  0  0  0  0  0  0  0  0  0  # atno 17395 bound_to 11000

$$$$
