AV-unprocessed.smi:2282|AV-procd|sdf|9197|dock3
  -GOLD-   2272012413D 1   1.00000     0.00000
 Structure written by MMmdl.
 32 33  0  0  0  0  0  0  0  0  1 V2000
  151.9615  145.7064  160.1611 C   0  0  0  0  0  0  0  0  0  0  0  0
  152.0917  144.2043  159.9912 C   0  0  0  0  0  0  0  0  0  0  0  0
  152.5034  143.5259  161.0845 N   0  0  0  0  0  0  0  0  0  0  0  0
  152.6439  142.1883  160.9858 C   0  0  0  0  0  0  0  0  0  0  0  0
  152.3777  141.4662  159.8068 C   0  0  0  0  0  0  0  0  0  0  0  0
  151.9300  142.1713  158.6642 C   0  0  0  0  0  0  0  0  0  0  0  0
  151.6538  141.5436  157.4179 N   0  0  0  0  0  0  0  0  0  0  0  0
  152.0551  140.3386  156.9734 C   0  0  0  0  0  0  0  0  0  0  0  0
  152.7567  139.5541  157.6126 O   0  0  0  0  0  0  0  0  0  0  0  0
  151.5730  139.9586  155.5685 C   0  0  2  0  0  0  0  0  0  0  0  0
  150.0780  140.2339  155.3225 C   0  0  0  0  0  0  0  0  0  0  0  0
  149.4615  138.8501  155.2869 C   0  0  0  0  0  0  0  0  0  0  0  0
  150.6117  138.0108  154.7425 C   0  0  2  0  0  0  0  0  0  0  0  0
  150.4834  136.5111  155.0284 C   0  0  0  0  0  0  0  0  0  0  0  0
  151.7425  138.5511  155.4094 O   0  0  0  0  0  0  0  0  0  0  0  0
  151.7977  143.5769  158.7576 C   0  0  0  0  0  0  0  0  0  0  0  0
  151.2801  144.5105  157.3934 Cl  0  0  0  0  0  0  0  0  0  0  0  0
  150.9369  146.0225  159.9648 H   0  0  0  0  0  0  0  0  0  0  0  0
  152.6223  146.2250  159.4664 H   0  0  0  0  0  0  0  0  0  0  0  0
  152.2228  146.0206  161.1724 H   0  0  0  0  0  0  0  0  0  0  0  0
  152.9866  141.6770  161.8730 H   0  0  0  0  0  0  0  0  0  0  0  0
  152.5349  140.3989  159.7993 H   0  0  0  0  0  0  0  0  0  0  0  0
  151.0129  142.0426  156.8179 H   0  0  0  0  0  0  0  0  0  0  0  0
  152.1680  140.4756  154.8134 H   0  0  0  0  0  0  0  0  0  0  0  0
  149.6111  140.8719  156.0742 H   0  0  0  0  0  0  0  0  0  0  0  0
  149.9495  140.7237  154.3565 H   0  0  0  0  0  0  0  0  0  0  0  0
  149.2019  138.5325  156.2979 H   0  0  0  0  0  0  0  0  0  0  0  0
  148.5644  138.7978  154.6696 H   0  0  0  0  0  0  0  0  0  0  0  0
  150.7225  138.1829  153.6705 H   0  0  0  0  0  0  0  0  0  0  0  0
  149.5991  136.0956  154.5451 H   0  0  0  0  0  0  0  0  0  0  0  0
  150.4032  136.3180  156.0986 H   0  0  0  0  0  0  0  0  0  0  0  0
  151.3527  135.9684  154.6569 H   0  0  0  0  0  0  0  0  0  0  0  0
  1  2  1  0  0  0  0
  1 18  1  0  0  0  0
  1 19  1  0  0  0  0
  1 20  1  0  0  0  0
  2 16  1  0  0  0  0
  2  3  2  0  0  0  0
  3  4  1  0  0  0  0
  4  5  2  0  0  0  0
  4 21  1  0  0  0  0
  5  6  1  0  0  0  0
  5 22  1  0  0  0  0
  6  7  1  0  0  0  0
  6 16  2  0  0  0  0
  7  8  1  0  0  0  0
  7 23  1  0  0  0  0
  8  9  2  0  0  0  0
  8 10  1  0  0  0  0
 10 15  1  0  0  0  0
 10 11  1  0  0  0  0
 10 24  1  0  0  0  0
 11 12  1  0  0  0  0
 11 25  1  0  0  0  0
 11 26  1  0  0  0  0
 12 13  1  0  0  0  0
 12 27  1  0  0  0  0
 12 28  1  0  0  0  0
 13 14  1  0  0  0  0
 13 15  1  0  0  0  0
 13 29  1  0  0  0  0
 14 30  1  0  0  0  0
 14 31  1  0  0  0  0
 14 32  1  0  0  0  0
 16 17  1  0  0  0  0
M  END
> <s_m_source_file>
AV-unprocessed.smi

> <i_m_source_file_index>
2282

> <i_lp_mmshare_version>
43012

> <i_f3d_flags>
0

> <s_epik_input>
W0NIM11jMW5bY0hdW2NIXWMoYzFDbClbTkhdQyg9TylbQ0BASF0yW0NIMl1bQ0gyXVtDQEhdKE8yKVtDSDNd

> <s_epik_cmdline>
J2VwaWtfcHl0aG9uJywgJy1waCcsICc3LjAnLCAnLXRuJywgJzgnLCAnLW1hJywgJzIwMCcsICctbWV0YWxfYmluZGluZycsICctaW1hZScsICc8aW5maWxlLm1hZT4nLCAnLW9tYWUnLCAnPG91dGZpbGUubWFlPic=

> <r_epik_Ionization_Penalty>
0.00037231

> <r_epik_Ionization_Penalty_Charging>
0

> <r_epik_Ionization_Penalty_Neutral>
0.00037231

> <r_epik_State_Penalty>
0.000225113

> <r_epik_Charging_Adjusted_Penalty>
0.000225113

> <i_epik_Tot_Q>
0

> <i_epik_Tot_abs_Q>
0

> <r_epik_Metal_State_Penalty>
-0

> <b_epik_Metal_Only>
0

> <s_lp_Force_Field>
OPLS_2005

> <r_lp_Energy>
23.9667

> <b_lp_Chiralities_Consistent>
1

> <s_lp_Variant>
AV-unprocessed.smi:2282-3

> <Gold.Version>
5.8.1

> <Gold.Id.Protein>
6NUR|6NUR_protein|mol2

> <Gold.PLP.Fitness>
36.8698

> <Gold.PLP.PLP>
-34.7879

> <Gold.PLP.part.hbond>
-1.0000

> <Gold.PLP.part.metal>
0.0000

> <Gold.PLP.part.buried>
-0.6541

> <Gold.PLP.part.nonpolar>
-32.3930

> <Gold.PLP.part.repulsive>
0.1892

> <Gold.PLP.ligand.clash>
0.0000

> <Gold.PLP.ligand.torsion>
0.4629

> <Gold.PLP.Chemscore.Hbond>
1.0000

> <Gold.PLP.Chemscore.CHOScore>
0.0000

> <Gold.PLP.Chemscore.Metal>
0.0000

> <Gold.Chemscore.Hbonds>
donor molecule, donor type, donor heavy atom, donor atom, acceptor molecule, acceptor atom, score
      P1  H  7997  8010       L1     9  1.00

> <Gold.PLP.Chemscore.Internal.Correction>
0.0077

> <Gold.Rescore>
     Score         DG    S(hbond)    S(metal)    S(lipo)     H(rot)  DE(clash)    DE(int)     intcor
     15.16     -17.47       0.64        0.00     106.17       1.00       0.36       1.95       ----

> <Gold.Chemscore.Fitness>
15.1629

> <Gold.Chemscore.DG>
-17.4742

> <Gold.Chemscore.ZeroCoef>
-5.4800

> <Gold.Chemscore.Hbond>
0.6383

> <Gold.Chemscore.Metal>
0.0000

> <Gold.Chemscore.Lipo>
106.1721

> <Gold.Chemscore.Internal_Hbond>
0.0000

> <Gold.Chemscore.DEClash>
0.3610

> <Gold.Chemscore.DEInternal>
1.9502

> <Gold.Chemscore.Rot>
1.0000

> <Gold.Chemscore.Internal.Correction>
   9.000000E+99

> <Gold.Chemscore.Hbonds>
donor molecule, donor type, donor heavy atom, donor atom, acceptor molecule, acceptor atom, score
      P1  H  7997  8010       L1     9  0.37

> <Gold.Chemscore.Hbond.Weighted>
-2.1320

> <Gold.Chemscore.Metal.Weighted>
-0.0000

> <Gold.Chemscore.Lipo.Weighted>
-12.4221

> <Gold.Chemscore.Internal_Hbond.Weighted>
0.0000

> <Gold.Chemscore.DEClash.Weighted>
0.3610

> <Gold.Chemscore.DEInternal.Weighted>
1.9502

> <Gold.Chemscore.Rot.Weighted>
2.5600

> <Gold.Chemscore.Internal.Correction.Weighted>
   9.000000E+99

> <Gold.Protein.RotatedTorsions>
[ 6907 6896 6895 6894 ] final  120.85 input  -60.11 | X-H torsion
[ 7974 7965 7964 7962 ] final -110.11 input  175.53 | X-H torsion
[ 8008 7997 7996 7995 ] final   31.83 input   59.86 | X-H torsion
[ 10167 10162 10161 10158 ] final -126.88 input  -65.29 | X-H torsion
[ 10718 10713 10712 10709 ] final  -26.06 input   66.30 | X-H torsion
[ 10763 10752 10751 10750 ] final -140.61 input  -60.55 | X-H torsion
[ 11005 11000 10999 10996 ] final   49.06 input  -57.11 | X-H torsion

> <Gold.Protein.ActiveResidues>
 VAL166  LYS551  ARG553  GLY616  TRP617  ASP618  TYR619  PRO620  LYS621  CYS622 
 ASP623  PHE694  ASN695  SER759  ASP760  ASP761  ALA762  ILE779  LEU786  VAL792 
 PHE793  MET794  SER795  GLU796  ALA797  LYS798  CYS799  TRP800  GLU811  SER814 

> <Gold.Protein.RotatedAtoms>
  152.4367  133.7373  159.6620 H   0  0  0  0  0  0  0  0  0  0  0  0  # atno 6907 bound_to 6896
  150.8251  133.8174  159.3128 H   0  0  0  0  0  0  0  0  0  0  0  0  # atno 6908 bound_to 6896
  151.5845  135.1059  160.0076 H   0  0  0  0  0  0  0  0  0  0  0  0  # atno 6909 bound_to 6896
  145.1723  140.8931  143.3528 H   0  0  0  0  0  0  0  0  0  0  0  0  # atno 7974 bound_to 7965
  155.1127  140.3240  155.4517 H   0  0  0  0  0  0  0  0  0  0  0  0  # atno 8008 bound_to 7997
  156.2686  140.2041  156.6198 H   0  0  0  0  0  0  0  0  0  0  0  0  # atno 8009 bound_to 7997
  154.6744  140.0533  157.0187 H   0  0  0  0  0  0  0  0  0  0  0  0  # atno 8010 bound_to 7997
  139.9667  143.5890  152.2427 H   0  0  0  0  0  0  0  0  0  0  0  0  # atno 10167 bound_to 10162
  156.4561  130.4494  149.6958 H   0  0  0  0  0  0  0  0  0  0  0  0  # atno 10718 bound_to 10713
  154.8573  135.3548  154.5735 H   0  0  0  0  0  0  0  0  0  0  0  0  # atno 10763 bound_to 10752
  153.6347  135.7001  153.5267 H   0  0  0  0  0  0  0  0  0  0  0  0  # atno 10764 bound_to 10752
  153.3020  135.4203  155.1220 H   0  0  0  0  0  0  0  0  0  0  0  0  # atno 10765 bound_to 10752
  140.1136  134.4922  155.8656 H   0  0  0  0  0  0  0  0  0  0  0  0  # atno 11005 bound_to 11000
  145.0220  139.3415  143.6067 LP  0  0  0  0  0  0  0  0  0  0  0  0  # atno 17320 bound_to 7965
  146.3466  139.9525  142.8727 LP  0  0  0  0  0  0  0  0  0  0  0  0  # atno 17321 bound_to 7965
  139.6512  144.7660  151.2144 LP  0  0  0  0  0  0  0  0  0  0  0  0  # atno 17342 bound_to 10162
  140.7535  143.6158  150.8561 LP  0  0  0  0  0  0  0  0  0  0  0  0  # atno 17343 bound_to 10162
  156.3765  130.7557  151.2546 LP  0  0  0  0  0  0  0  0  0  0  0  0  # atno 17370 bound_to 10713
  157.7500  131.0308  150.4153 LP  0  0  0  0  0  0  0  0  0  0  0  0  # atno 17371 bound_to 10713
  141.2136  133.6736  156.6753 LP  0  0  0  0  0  0  0  0  0  0  0  0  # atno 17394 bound_to 11000
  140.3058  134.8127  157.4135 LP  0  0  0  0  0  0  0  0  0  0  0  0  # atno 17395 bound_to 11000

$$$$
