AV-unprocessed.smi:1884|AV-procd|sdf|7648|dock9
  -GOLD-   22720 9373D 1   1.00000     0.00000
 Structure written by MMmdl.
 41 43  0  0  0  0  0  0  0  0  2 V2000
  150.5343  140.8677  155.3777 C   0  0  0  0  0  0  0  0  0  0  0  0
  150.9645  141.5901  156.6100 C   0  0  0  0  0  0  0  0  0  0  0  0
  150.6981  142.8921  156.9112 N   0  3  0  0  0  0  0  0  0  0  0  0
  151.2611  143.2156  158.1465 C   0  0  0  0  0  0  0  0  0  0  0  0
  151.2557  144.4071  158.8654 C   0  0  0  0  0  0  0  0  0  0  0  0
  151.9263  144.4007  160.1060 C   0  0  0  0  0  0  0  0  0  0  0  0
  152.5676  143.2412  160.5879 C   0  0  0  0  0  0  0  0  0  0  0  0
  152.5673  142.0392  159.8498 C   0  0  0  0  0  0  0  0  0  0  0  0
  151.9032  142.0537  158.6230 C   0  0  0  0  0  0  0  0  0  0  0  0
  151.6949  141.0771  157.6408 N   0  0  0  0  0  0  0  0  0  0  0  0
  152.2477  139.7252  157.8213 C   0  0  0  0  0  0  0  0  0  0  0  0
  151.1684  138.6258  157.7668 C   0  0  2  0  0  0  0  0  0  0  0  0
  150.4519  138.5906  158.9843 O   0  0  0  0  0  0  0  0  0  0  0  0
  151.7607  137.2329  157.5091 C   0  0  0  0  0  0  0  0  0  0  0  0
  150.7289  136.2637  157.6394 O   0  0  0  0  0  0  0  0  0  0  0  0
  150.3274  135.5818  156.5111 C   0  0  0  0  0  0  0  0  0  0  0  0
  149.3023  134.6270  156.6716 C   0  0  0  0  0  0  0  0  0  0  0  0
  148.8293  133.8835  155.5730 C   0  0  0  0  0  0  0  0  0  0  0  0
  149.3809  134.0890  154.2931 C   0  0  0  0  0  0  0  0  0  0  0  0
  148.8946  133.3249  153.1567 C   0  0  0  0  0  0  0  0  0  0  0  0
  148.5075  132.7163  152.2519 N   0  0  0  0  0  0  0  0  0  0  0  0
  150.4061  135.0394  154.1197 C   0  0  0  0  0  0  0  0  0  0  0  0
  150.8778  135.7821  155.2198 C   0  0  0  0  0  0  0  0  0  0  0  0
  149.9404  141.5208  154.7376 H   0  0  0  0  0  0  0  0  0  0  0  0
  149.9311  139.9989  155.6412 H   0  0  0  0  0  0  0  0  0  0  0  0
  151.4054  140.5303  154.8159 H   0  0  0  0  0  0  0  0  0  0  0  0
  150.7637  145.2962  158.4989 H   0  0  0  0  0  0  0  0  0  0  0  0
  151.9484  145.3028  160.7006 H   0  0  0  0  0  0  0  0  0  0  0  0
  153.0696  143.2737  161.5442 H   0  0  0  0  0  0  0  0  0  0  0  0
  153.0578  141.1564  160.2324 H   0  0  0  0  0  0  0  0  0  0  0  0
  152.9781  139.5700  157.0265 H   0  0  0  0  0  0  0  0  0  0  0  0
  152.8087  139.6842  158.7551 H   0  0  0  0  0  0  0  0  0  0  0  0
  150.4529  138.8546  156.9762 H   0  0  0  0  0  0  0  0  0  0  0  0
  150.8306  137.9218  159.5340 H   0  0  0  0  0  0  0  0  0  0  0  0
  152.2078  137.1924  156.5141 H   0  0  0  0  0  0  0  0  0  0  0  0
  152.5436  137.0274  158.2417 H   0  0  0  0  0  0  0  0  0  0  0  0
  148.8725  134.4626  157.6490 H   0  0  0  0  0  0  0  0  0  0  0  0
  148.0425  133.1575  155.7202 H   0  0  0  0  0  0  0  0  0  0  0  0
  150.8372  135.2049  153.1427 H   0  0  0  0  0  0  0  0  0  0  0  0
  151.6646  136.5001  155.0455 H   0  0  0  0  0  0  0  0  0  0  0  0
  150.1690  143.5128  156.3123 H   0  0  0  0  0  0  0  0  0  0  0  0
  1  2  1  0  0  0  0
  1 24  1  0  0  0  0
  1 25  1  0  0  0  0
  1 26  1  0  0  0  0
  2 10  1  0  0  0  0
  2  3  2  0  0  0  0
  3  4  1  0  0  0  0
  3 41  1  0  0  0  0
  4  9  2  0  0  0  0
  4  5  1  0  0  0  0
  5  6  2  0  0  0  0
  5 27  1  0  0  0  0
  6  7  1  0  0  0  0
  6 28  1  0  0  0  0
  7  8  2  0  0  0  0
  7 29  1  0  0  0  0
  8  9  1  0  0  0  0
  8 30  1  0  0  0  0
  9 10  1  0  0  0  0
 10 11  1  0  0  0  0
 11 12  1  0  0  0  0
 11 31  1  0  0  0  0
 11 32  1  0  0  0  0
 12 13  1  0  0  0  0
 12 14  1  0  0  0  0
 12 33  1  0  0  0  0
 13 34  1  0  0  0  0
 14 15  1  0  0  0  0
 14 35  1  0  0  0  0
 14 36  1  0  0  0  0
 15 16  1  0  0  0  0
 16 23  1  0  0  0  0
 16 17  2  0  0  0  0
 17 18  1  0  0  0  0
 17 37  1  0  0  0  0
 18 19  2  0  0  0  0
 18 38  1  0  0  0  0
 19 20  1  0  0  0  0
 19 22  1  0  0  0  0
 20 21  3  0  0  0  0
 22 23  2  0  0  0  0
 22 39  1  0  0  0  0
 23 40  1  0  0  0  0
M  CHG  1   3   1
M  END
> <s_m_source_file>
AV-unprocessed.smi

> <i_m_source_file_index>
1884

> <i_lp_mmshare_version>
43012

> <i_f3d_flags>
0

> <s_epik_input>
W2NIXTFbY0hdW2NIXVtjSF1jKGMxMiluKGMobjIpW0NIM10pW0NIMl1bQ0BIXShbT0hdKVtDSDJdT2MzW2NIXVtjSF1jKEMjTilbY0hdW2NIXTM=

> <s_epik_cmdline>
J2VwaWtfcHl0aG9uJywgJy1waCcsICc3LjAnLCAnLXRuJywgJzgnLCAnLW1hJywgJzIwMCcsICctbWV0YWxfYmluZGluZycsICctaW1hZScsICc8aW5maWxlLm1hZT4nLCAnLW9tYWUnLCAnPG91dGZpbGUubWFlPic=

> <r_epik_Ionization_Penalty>
1.04791

> <r_epik_Ionization_Penalty_Charging>
1.04791

> <r_epik_Ionization_Penalty_Neutral>
2.3993e-06

> <r_epik_State_Penalty>
1.10051

> <r_epik_Charging_Adjusted_Penalty>
2.14841

> <i_epik_Tot_Q>
1

> <i_epik_Tot_abs_Q>
1

> <r_epik_Metal_State_Penalty>
5.09283

> <b_epik_Metal_Only>
0

> <s_lp_Force_Field>
OPLS_2005

> <r_lp_Energy>
18.2912

> <b_lp_Chiralities_Consistent>
1

> <s_lp_Variant>
AV-unprocessed.smi:1884-3

> <Gold.Version>
5.8.1

> <Gold.Id.Protein>
6NUR|6NUR_protein|mol2

> <Gold.PLP.Fitness>
50.3485

> <Gold.PLP.PLP>
-43.7364

> <Gold.PLP.part.hbond>
-3.0000

> <Gold.PLP.part.metal>
0.0000

> <Gold.PLP.part.buried>
-5.8152

> <Gold.PLP.part.nonpolar>
-36.3501

> <Gold.PLP.part.repulsive>
0.1826

> <Gold.PLP.ligand.clash>
0.0000

> <Gold.PLP.ligand.torsion>
0.5500

> <Gold.PLP.Chemscore.Hbond>
2.5491

> <Gold.PLP.Chemscore.CHOScore>
0.0000

> <Gold.PLP.Chemscore.Metal>
0.0000

> <Gold.Chemscore.Hbonds>
donor molecule, donor type, donor heavy atom, donor atom, acceptor molecule, acceptor atom, score
      L1  H     3    41       P1  8028  2.00

> <Gold.PLP.Chemscore.Internal.Correction>
0.0648

> <Gold.Rescore>
     Score         DG    S(hbond)    S(metal)    S(lipo)     H(rot)  DE(clash)    DE(int)     intcor
     15.40     -15.98       1.06        0.00     111.88       2.39       0.03       0.54       ----

> <Gold.Chemscore.Fitness>
15.4021

> <Gold.Chemscore.DG>
-15.9776

> <Gold.Chemscore.ZeroCoef>
-5.4800

> <Gold.Chemscore.Hbond>
1.0571

> <Gold.Chemscore.Metal>
0.0000

> <Gold.Chemscore.Lipo>
111.8778

> <Gold.Chemscore.Internal_Hbond>
0.0000

> <Gold.Chemscore.DEClash>
0.0323

> <Gold.Chemscore.DEInternal>
0.5432

> <Gold.Chemscore.Rot>
2.3917

> <Gold.Chemscore.Internal.Correction>
   9.000000E+99

> <Gold.Chemscore.Hbonds>
donor molecule, donor type, donor heavy atom, donor atom, acceptor molecule, acceptor atom, score
      L1  H     3    41       P1  8028  1.00
      P1  H  6896  6907       L1    15  0.02

> <Gold.Chemscore.Hbond.Weighted>
-3.5308

> <Gold.Chemscore.Metal.Weighted>
-0.0000

> <Gold.Chemscore.Lipo.Weighted>
-13.0897

> <Gold.Chemscore.Internal_Hbond.Weighted>
0.0000

> <Gold.Chemscore.DEClash.Weighted>
0.0323

> <Gold.Chemscore.DEInternal.Weighted>
0.5432

> <Gold.Chemscore.Rot.Weighted>
6.1229

> <Gold.Chemscore.Internal.Correction.Weighted>
   9.000000E+99

> <Gold.Protein.RotatedTorsions>
[ 6907 6896 6895 6894 ] final  -44.87 input  -60.11 | X-H torsion
[ 7974 7965 7964 7962 ] final  -14.48 input  175.53 | X-H torsion
[ 8008 7997 7996 7995 ] final  138.85 input   59.86 | X-H torsion
[ 10167 10162 10161 10158 ] final  132.84 input  -65.29 | X-H torsion
[ 10718 10713 10712 10709 ] final -105.11 input   66.30 | X-H torsion
[ 10763 10752 10751 10750 ] final -174.69 input  -60.55 | X-H torsion
[ 11005 11000 10999 10996 ] final -144.42 input  -57.11 | X-H torsion

> <Gold.Protein.ActiveResidues>
 VAL166  LYS551  ARG553  GLY616  TRP617  ASP618  TYR619  PRO620  LYS621  CYS622 
 ASP623  PHE694  ASN695  SER759  ASP760  ASP761  ALA762  ILE779  LEU786  VAL792 
 PHE793  MET794  SER795  GLU796  ALA797  LYS798  CYS799  TRP800  GLU811  SER814 

> <Gold.Protein.RotatedAtoms>
  150.9281  134.8697  159.7532 H   0  0  0  0  0  0  0  0  0  0  0  0  # atno 6907 bound_to 6896
  152.5025  134.4120  159.9461 H   0  0  0  0  0  0  0  0  0  0  0  0  # atno 6908 bound_to 6896
  151.4148  133.3676  159.2783 H   0  0  0  0  0  0  0  0  0  0  0  0  # atno 6909 bound_to 6896
  146.2072  140.3354  142.8403 H   0  0  0  0  0  0  0  0  0  0  0  0  # atno 7974 bound_to 7965
  156.2994  140.2383  156.4141 H   0  0  0  0  0  0  0  0  0  0  0  0  # atno 8008 bound_to 7997
  154.8414  140.0428  157.1564 H   0  0  0  0  0  0  0  0  0  0  0  0  # atno 8009 bound_to 7997
  154.9098  140.2989  155.5276 H   0  0  0  0  0  0  0  0  0  0  0  0  # atno 8010 bound_to 7997
  139.5322  144.6643  151.4910 H   0  0  0  0  0  0  0  0  0  0  0  0  # atno 10167 bound_to 10162
  156.0332  130.5548  150.7492 H   0  0  0  0  0  0  0  0  0  0  0  0  # atno 10718 bound_to 10713
  154.5932  135.2847  155.0613 H   0  0  0  0  0  0  0  0  0  0  0  0  # atno 10763 bound_to 10752
  154.1905  135.6441  153.5062 H   0  0  0  0  0  0  0  0  0  0  0  0  # atno 10764 bound_to 10752
  153.0129  135.5445  154.6626 H   0  0  0  0  0  0  0  0  0  0  0  0  # atno 10765 bound_to 10752
  140.8026  134.2838  157.4972 H   0  0  0  0  0  0  0  0  0  0  0  0  # atno 11005 bound_to 11000
  144.8823  140.7416  143.5979 LP  0  0  0  0  0  0  0  0  0  0  0  0  # atno 17320 bound_to 7965
  145.3274  139.1770  143.4555 LP  0  0  0  0  0  0  0  0  0  0  0  0  # atno 17321 bound_to 7965
  140.6507  143.8701  150.6783 LP  0  0  0  0  0  0  0  0  0  0  0  0  # atno 17342 bound_to 10162
  140.2065  143.3917  152.1751 LP  0  0  0  0  0  0  0  0  0  0  0  0  # atno 17343 bound_to 10162
  157.5041  131.0921  151.0279 LP  0  0  0  0  0  0  0  0  0  0  0  0  # atno 17370 bound_to 10713
  157.0651  130.5841  149.5392 LP  0  0  0  0  0  0  0  0  0  0  0  0  # atno 17371 bound_to 10713
  139.8720  134.9438  156.3864 LP  0  0  0  0  0  0  0  0  0  0  0  0  # atno 17394 bound_to 11000
  140.9279  133.7599  155.9987 LP  0  0  0  0  0  0  0  0  0  0  0  0  # atno 17395 bound_to 11000

$$$$
