AV-unprocessed.smi:2148|AV-procd|sdf|8748|dock3
  -GOLD-   2272011523D 1   1.00000     0.00000
 Structure written by MMmdl.
 44 45  0  0  0  0  0  0  0  0  1 V2000
  154.3830  134.9175  164.4270 C   0  0  0  0  0  0  0  0  0  0  0  0
  156.1180  135.1668  163.9607 S   0  0  0  0  0  0  0  0  0  0  0  0
  156.2104  136.9823  163.9206 C   0  0  2  0  0  0  0  0  0  0  0  0
  155.9015  137.5598  165.3111 C   0  0  0  0  0  0  0  0  0  0  0  0
  155.2887  137.5791  162.8487 C   0  0  0  0  0  0  0  0  0  0  0  0
  154.6287  136.8338  162.1247 O   0  0  0  0  0  0  0  0  0  0  0  0
  155.2919  138.9223  162.7578 N   0  0  0  0  0  0  0  0  0  0  0  0
  154.5767  139.7478  161.8500 C   0  0  0  0  0  0  0  0  0  0  0  0
  154.3710  141.0959  162.2012 C   0  0  0  0  0  0  0  0  0  0  0  0
  153.6609  141.9352  161.3225 C   0  0  0  0  0  0  0  0  0  0  0  0
  153.1629  141.4013  160.1113 C   0  0  0  0  0  0  0  0  0  0  0  0
  152.4645  142.2317  159.2094 N   0  0  0  0  0  0  0  0  0  0  0  0
  153.0922  143.5231  158.9430 C   0  0  0  0  0  0  0  0  0  0  0  0
  152.1223  144.4704  158.2099 C   0  0  2  0  0  0  0  0  0  0  0  0
  151.0339  145.0589  159.1254 C   0  0  0  0  0  0  0  0  0  0  0  0
  151.5716  143.8226  157.0611 O   0  0  0  0  0  0  0  0  0  0  0  0
  150.9113  142.5868  157.3312 C   0  0  1  0  0  0  0  0  0  0  0  0
  150.3893  142.0298  156.0030 C   0  0  0  0  0  0  0  0  0  0  0  0
  151.8910  141.6169  158.0155 C   0  0  0  0  0  0  0  0  0  0  0  0
  153.3359  140.0965  159.7868 N   0  0  0  0  0  0  0  0  0  0  0  0
  154.0203  139.2953  160.6304 C   0  0  0  0  0  0  0  0  0  0  0  0
  154.1491  133.8531  164.4363 H   0  0  0  0  0  0  0  0  0  0  0  0
  153.7214  135.4099  163.7143 H   0  0  0  0  0  0  0  0  0  0  0  0
  154.1872  135.3183  165.4214 H   0  0  0  0  0  0  0  0  0  0  0  0
  157.2413  137.2473  163.6805 H   0  0  0  0  0  0  0  0  0  0  0  0
  155.9313  138.6500  165.3048 H   0  0  0  0  0  0  0  0  0  0  0  0
  156.6336  137.2175  166.0430 H   0  0  0  0  0  0  0  0  0  0  0  0
  154.9162  137.2537  165.6647 H   0  0  0  0  0  0  0  0  0  0  0  0
  155.9451  139.4031  163.3590 H   0  0  0  0  0  0  0  0  0  0  0  0
  154.7569  141.4884  163.1308 H   0  0  0  0  0  0  0  0  0  0  0  0
  153.4978  142.9693  161.5882 H   0  0  0  0  0  0  0  0  0  0  0  0
  153.4456  144.0014  159.8557 H   0  0  0  0  0  0  0  0  0  0  0  0
  153.9718  143.3501  158.3213 H   0  0  0  0  0  0  0  0  0  0  0  0
  152.7039  145.3120  157.8327 H   0  0  0  0  0  0  0  0  0  0  0  0
  151.4814  145.6611  159.9163 H   0  0  0  0  0  0  0  0  0  0  0  0
  150.4361  144.2863  159.6082 H   0  0  0  0  0  0  0  0  0  0  0  0
  150.3581  145.7033  158.5627 H   0  0  0  0  0  0  0  0  0  0  0  0
  150.0552  142.7623  157.9828 H   0  0  0  0  0  0  0  0  0  0  0  0
  149.8636  141.0863  156.1522 H   0  0  0  0  0  0  0  0  0  0  0  0
  151.2051  141.8524  155.3016 H   0  0  0  0  0  0  0  0  0  0  0  0
  149.6943  142.7275  155.5354 H   0  0  0  0  0  0  0  0  0  0  0  0
  152.6954  141.3464  157.3298 H   0  0  0  0  0  0  0  0  0  0  0  0
  151.3650  140.6987  158.2810 H   0  0  0  0  0  0  0  0  0  0  0  0
  154.0987  138.2670  160.3133 H   0  0  0  0  0  0  0  0  0  0  0  0
  1  2  1  0  0  0  0
  1 22  1  0  0  0  0
  1 23  1  0  0  0  0
  1 24  1  0  0  0  0
  2  3  1  0  0  0  0
  3  4  1  0  0  0  0
  3  5  1  0  0  0  0
  3 25  1  0  0  0  0
  4 26  1  0  0  0  0
  4 27  1  0  0  0  0
  4 28  1  0  0  0  0
  5  6  2  0  0  0  0
  5  7  1  0  0  0  0
  7  8  1  0  0  0  0
  7 29  1  0  0  0  0
  8 21  1  0  0  0  0
  8  9  2  0  0  0  0
  9 10  1  0  0  0  0
  9 30  1  0  0  0  0
 10 11  2  0  0  0  0
 10 31  1  0  0  0  0
 11 12  1  0  0  0  0
 11 20  1  0  0  0  0
 12 19  1  0  0  0  0
 12 13  1  0  0  0  0
 13 14  1  0  0  0  0
 13 32  1  0  0  0  0
 13 33  1  0  0  0  0
 14 15  1  0  0  0  0
 14 16  1  0  0  0  0
 14 34  1  0  0  0  0
 15 35  1  0  0  0  0
 15 36  1  0  0  0  0
 15 37  1  0  0  0  0
 16 17  1  0  0  0  0
 17 18  1  0  0  0  0
 17 19  1  0  0  0  0
 17 38  1  0  0  0  0
 18 39  1  0  0  0  0
 18 40  1  0  0  0  0
 18 41  1  0  0  0  0
 19 42  1  0  0  0  0
 19 43  1  0  0  0  0
 20 21  2  0  0  0  0
 21 44  1  0  0  0  0
M  END
> <s_m_source_file>
AV-unprocessed.smi

> <i_m_source_file_index>
2148

> <i_lp_mmshare_version>
43012

> <i_f3d_flags>
0

> <s_epik_input>
W0NIM11TW0NASF0oW0NIM10pQyg9TylbTkhdYzFbY0hdW2NIXWMobltjSF0xKU4yW0NIMl1bQ0BASF0oW0NIM10pT1tDQEBIXShbQ0gzXSlbQ0gyXTI=

> <s_epik_cmdline>
J2VwaWtfcHl0aG9uJywgJy1waCcsICc3LjAnLCAnLXRuJywgJzgnLCAnLW1hJywgJzIwMCcsICctbWV0YWxfYmluZGluZycsICctaW1hZScsICc8aW5maWxlLm1hZT4nLCAnLW9tYWUnLCAnPG91dGZpbGUubWFlPic=

> <r_lp_tautomer_probability>
1

> <r_epik_Ionization_Penalty>
0.000646494

> <r_epik_Ionization_Penalty_Charging>
0

> <r_epik_Ionization_Penalty_Neutral>
0.000646494

> <r_epik_State_Penalty>
0.000408447

> <r_epik_Charging_Adjusted_Penalty>
0.000408447

> <i_epik_Tot_Q>
0

> <i_epik_Tot_abs_Q>
0

> <r_epik_Metal_State_Penalty>
-0

> <b_epik_Metal_Only>
0

> <s_lp_Force_Field>
OPLS_2005

> <r_lp_Energy>
25.6211

> <b_lp_Chiralities_Consistent>
1

> <s_lp_Variant>
AV-unprocessed.smi:2148-3

> <Gold.Version>
5.8.1

> <Gold.Id.Protein>
6NUR|6NUR_protein|mol2

> <Gold.PLP.Fitness>
39.0352

> <Gold.PLP.PLP>
-39.2821

> <Gold.PLP.part.hbond>
0.0000

> <Gold.PLP.part.metal>
0.0000

> <Gold.PLP.part.buried>
-2.6440

> <Gold.PLP.part.nonpolar>
-36.8278

> <Gold.PLP.part.repulsive>
0.1410

> <Gold.PLP.ligand.clash>
0.0000

> <Gold.PLP.ligand.torsion>
0.2945

> <Gold.PLP.Chemscore.Hbond>
0.0000

> <Gold.PLP.Chemscore.CHOScore>
0.0000

> <Gold.PLP.Chemscore.Metal>
0.0000

> <Gold.PLP.Chemscore.Internal.Correction>
0.3420

> <Gold.Rescore>
     Score         DG    S(hbond)    S(metal)    S(lipo)     H(rot)  DE(clash)    DE(int)     intcor
     14.29     -15.96       0.00        0.00     117.29       1.27       0.16       1.52       ----

> <Gold.Chemscore.Fitness>
14.2857

> <Gold.Chemscore.DG>
-15.9627

> <Gold.Chemscore.ZeroCoef>
-5.4800

> <Gold.Chemscore.Hbond>
0.0000

> <Gold.Chemscore.Metal>
0.0000

> <Gold.Chemscore.Lipo>
117.2931

> <Gold.Chemscore.Internal_Hbond>
0.0000

> <Gold.Chemscore.DEClash>
0.1567

> <Gold.Chemscore.DEInternal>
1.5203

> <Gold.Chemscore.Rot>
1.2659

> <Gold.Chemscore.Internal.Correction>
   9.000000E+99

> <Gold.Chemscore.Hbond.Weighted>
-0.0000

> <Gold.Chemscore.Metal.Weighted>
-0.0000

> <Gold.Chemscore.Lipo.Weighted>
-13.7233

> <Gold.Chemscore.Internal_Hbond.Weighted>
0.0000

> <Gold.Chemscore.DEClash.Weighted>
0.1567

> <Gold.Chemscore.DEInternal.Weighted>
1.5203

> <Gold.Chemscore.Rot.Weighted>
3.2406

> <Gold.Chemscore.Internal.Correction.Weighted>
   9.000000E+99

> <Gold.Protein.RotatedTorsions>
[ 6907 6896 6895 6894 ] final  124.82 input  -60.11 | X-H torsion
[ 7974 7965 7964 7962 ] final  132.67 input  175.53 | X-H torsion
[ 8008 7997 7996 7995 ] final -107.40 input   59.86 | X-H torsion
[ 10167 10162 10161 10158 ] final -104.27 input  -65.29 | X-H torsion
[ 10718 10713 10712 10709 ] final  174.97 input   66.30 | X-H torsion
[ 10763 10752 10751 10750 ] final -166.53 input  -60.55 | X-H torsion
[ 11005 11000 10999 10996 ] final  172.22 input  -57.11 | X-H torsion

> <Gold.Protein.ActiveResidues>
 VAL166  LYS551  ARG553  GLY616  TRP617  ASP618  TYR619  PRO620  LYS621  CYS622 
 ASP623  PHE694  ASN695  SER759  ASP760  ASP761  ALA762  ILE779  LEU786  VAL792 
 PHE793  MET794  SER795  GLU796  ALA797  LYS798  CYS799  TRP800  GLU811  SER814 

> <Gold.Protein.RotatedAtoms>
  152.4046  133.6869  159.6344 H   0  0  0  0  0  0  0  0  0  0  0  0  # atno 6907 bound_to 6896
  150.7932  133.8732  159.3273 H   0  0  0  0  0  0  0  0  0  0  0  0  # atno 6908 bound_to 6896
  151.6490  135.1005  160.0208 H   0  0  0  0  0  0  0  0  0  0  0  0  # atno 6909 bound_to 6896
  144.9944  139.4374  143.5323 H   0  0  0  0  0  0  0  0  0  0  0  0  # atno 7974 bound_to 7965
  154.9288  140.0405  157.2037 H   0  0  0  0  0  0  0  0  0  0  0  0  # atno 8008 bound_to 7997
  154.8181  140.2879  155.5784 H   0  0  0  0  0  0  0  0  0  0  0  0  # atno 8009 bound_to 7997
  156.2977  140.2524  156.3082 H   0  0  0  0  0  0  0  0  0  0  0  0  # atno 8010 bound_to 7997
  140.2111  143.3746  152.1050 H   0  0  0  0  0  0  0  0  0  0  0  0  # atno 10167 bound_to 10162
  156.9417  131.0003  151.2967 H   0  0  0  0  0  0  0  0  0  0  0  0  # atno 10718 bound_to 10713
  154.6823  135.2956  154.9595 H   0  0  0  0  0  0  0  0  0  0  0  0  # atno 10763 bound_to 10752
  154.0586  135.6634  153.4813 H   0  0  0  0  0  0  0  0  0  0  0  0  # atno 10764 bound_to 10752
  153.0556  135.5147  154.7873 H   0  0  0  0  0  0  0  0  0  0  0  0  # atno 10765 bound_to 10752
  140.3274  134.7386  157.4109 H   0  0  0  0  0  0  0  0  0  0  0  0  # atno 11005 bound_to 11000
  146.3438  139.9295  142.8755 LP  0  0  0  0  0  0  0  0  0  0  0  0  # atno 17320 bound_to 7965
  145.2240  140.9946  143.4029 LP  0  0  0  0  0  0  0  0  0  0  0  0  # atno 17321 bound_to 7965
  139.5180  144.6999  151.5523 LP  0  0  0  0  0  0  0  0  0  0  0  0  # atno 17342 bound_to 10162
  140.6323  143.9052  150.6616 LP  0  0  0  0  0  0  0  0  0  0  0  0  # atno 17343 bound_to 10162
  157.5780  130.8356  149.8483 LP  0  0  0  0  0  0  0  0  0  0  0  0  # atno 17370 bound_to 10713
  156.0401  130.3741  150.1457 LP  0  0  0  0  0  0  0  0  0  0  0  0  # atno 17371 bound_to 10713
  140.0890  134.5627  155.8463 LP  0  0  0  0  0  0  0  0  0  0  0  0  # atno 17394 bound_to 11000
  141.2072  133.6662  156.6289 LP  0  0  0  0  0  0  0  0  0  0  0  0  # atno 17395 bound_to 11000

$$$$
