AV-unprocessed.smi:2124|AV-procd|sdf|8661|dock4
  -GOLD-   2272011413D 1   1.00000     0.00000
 Structure written by MMmdl.
 47 49  0  0  0  0  0  0  0  0  1 V2000
  155.3245  133.8400  159.5425 C   0  0  0  0  0  0  0  0  0  0  0  0
  154.2663  134.9113  159.3933 C   0  0  0  0  0  0  0  0  0  0  0  0
  153.9851  135.5832  160.5715 N   0  0  0  0  0  0  0  0  0  0  0  0
  153.0317  136.5853  160.5333 C   0  0  0  0  0  0  0  0  0  0  0  0
  152.7824  137.2709  161.8654 C   0  0  0  0  0  0  0  0  0  0  0  0
  152.3890  136.8996  159.3799 C   0  0  0  0  0  0  0  0  0  0  0  0
  151.3258  137.9947  159.2968 C   0  0  0  0  0  0  0  0  0  0  0  0
  151.6950  139.2354  158.4790 C   0  0  0  0  0  0  0  0  0  0  0  0
  152.7670  139.2943  157.8759 O   0  0  0  0  0  0  0  0  0  0  0  0
  150.7867  140.2230  158.4675 N   0  0  0  0  0  0  0  0  0  0  0  0
  150.9274  141.4964  157.7632 C   0  0  1  0  0  0  0  0  0  0  0  0
  149.7663  141.6447  156.7623 C   0  0  0  0  0  0  0  0  0  0  0  0
  150.9854  142.6549  158.7900 C   0  0  1  0  0  0  0  0  0  0  0  0
  152.1656  142.5470  159.7899 C   0  0  0  0  0  0  0  0  0  0  0  0
  152.8672  143.9103  159.6622 C   0  0  2  0  0  0  0  0  0  0  0  0
  151.9707  145.0126  160.2549 C   0  0  0  0  0  0  0  0  0  0  0  0
  150.8475  145.1330  159.2084 C   0  0  0  0  0  0  0  0  0  0  0  0
  151.2290  144.0563  158.1739 C   0  0  1  0  0  0  0  0  0  0  0  0
  152.7504  144.1714  158.1672 C   0  0  0  0  0  0  0  0  0  0  0  0
  152.7276  136.1408  158.1530 C   0  0  0  0  0  0  0  0  0  0  0  0
  152.1707  136.3694  157.0800 O   0  0  0  0  0  0  0  0  0  0  0  0
  153.7069  135.1384  158.2439 N   0  0  0  0  0  0  0  0  0  0  0  0
  154.4382  135.3801  161.4510 H   0  0  0  0  0  0  0  0  0  0  0  0
  155.4751  133.3066  158.6029 H   0  0  0  0  0  0  0  0  0  0  0  0
  155.0285  133.1151  160.3014 H   0  0  0  0  0  0  0  0  0  0  0  0
  156.2748  134.2849  159.8389 H   0  0  0  0  0  0  0  0  0  0  0  0
  151.7344  137.1799  162.1516 H   0  0  0  0  0  0  0  0  0  0  0  0
  153.0317  138.3301  161.8010 H   0  0  0  0  0  0  0  0  0  0  0  0
  153.3860  136.8338  162.6619 H   0  0  0  0  0  0  0  0  0  0  0  0
  151.0278  138.3146  160.2958 H   0  0  0  0  0  0  0  0  0  0  0  0
  150.4230  137.5650  158.8625 H   0  0  0  0  0  0  0  0  0  0  0  0
  149.9356  140.0874  158.9935 H   0  0  0  0  0  0  0  0  0  0  0  0
  151.8641  141.4874  157.2037 H   0  0  0  0  0  0  0  0  0  0  0  0
  149.8722  142.5370  156.1471 H   0  0  0  0  0  0  0  0  0  0  0  0
  148.8059  141.7050  157.2750 H   0  0  0  0  0  0  0  0  0  0  0  0
  149.7238  140.7945  156.0803 H   0  0  0  0  0  0  0  0  0  0  0  0
  150.0441  142.6595  159.3423 H   0  0  0  0  0  0  0  0  0  0  0  0
  151.8298  142.3461  160.8079 H   0  0  0  0  0  0  0  0  0  0  0  0
  152.8586  141.7522  159.5099 H   0  0  0  0  0  0  0  0  0  0  0  0
  153.8849  143.9159  160.0535 H   0  0  0  0  0  0  0  0  0  0  0  0
  151.5932  144.7501  161.2437 H   0  0  0  0  0  0  0  0  0  0  0  0
  152.5154  145.9536  160.3423 H   0  0  0  0  0  0  0  0  0  0  0  0
  149.8575  144.9714  159.6366 H   0  0  0  0  0  0  0  0  0  0  0  0
  150.8545  146.1243  158.7537 H   0  0  0  0  0  0  0  0  0  0  0  0
  150.7581  144.2191  157.2055 H   0  0  0  0  0  0  0  0  0  0  0  0
  153.1092  145.1589  157.8718 H   0  0  0  0  0  0  0  0  0  0  0  0
  153.2449  143.4154  157.5553 H   0  0  0  0  0  0  0  0  0  0  0  0
  1 24  1  0  0  0  0
  1 25  1  0  0  0  0
  1 26  1  0  0  0  0
  1  2  1  0  0  0  0
  2  3  1  0  0  0  0
  2 22  2  0  0  0  0
  3  4  1  0  0  0  0
  3 23  1  0  0  0  0
  4  6  2  0  0  0  0
  4  5  1  0  0  0  0
  5 27  1  0  0  0  0
  5 28  1  0  0  0  0
  5 29  1  0  0  0  0
  6 20  1  0  0  0  0
  6  7  1  0  0  0  0
  7  8  1  0  0  0  0
  7 30  1  0  0  0  0
  7 31  1  0  0  0  0
  8  9  2  0  0  0  0
  8 10  1  0  0  0  0
 10 11  1  0  0  0  0
 10 32  1  0  0  0  0
 11 12  1  0  0  0  0
 11 13  1  0  0  0  0
 11 33  1  0  0  0  0
 12 34  1  0  0  0  0
 12 35  1  0  0  0  0
 12 36  1  0  0  0  0
 13 18  1  0  0  0  0
 13 14  1  0  0  0  0
 13 37  1  0  0  0  0
 14 15  1  0  0  0  0
 14 38  1  0  0  0  0
 14 39  1  0  0  0  0
 15 19  1  0  0  0  0
 15 16  1  0  0  0  0
 15 40  1  0  0  0  0
 16 17  1  0  0  0  0
 16 41  1  0  0  0  0
 16 42  1  0  0  0  0
 17 18  1  0  0  0  0
 17 43  1  0  0  0  0
 17 44  1  0  0  0  0
 18 19  1  0  0  0  0
 18 45  1  0  0  0  0
 19 46  1  0  0  0  0
 19 47  1  0  0  0  0
 20 21  2  0  0  0  0
 20 22  1  0  0  0  0
M  END
> <s_m_source_file>
AV-unprocessed.smi

> <i_m_source_file_index>
2124

> <i_lp_mmshare_version>
43012

> <i_f3d_flags>
0

> <s_epik_input>
W0NIM11jMW5jKFtDSDNdKWMoYyg9TylbbkhdMSlbQ0gyXUMoPU8pW05IXVtDQEhdKFtDSDNdKVtDQEhdKFtDSDJdW0NASF0yMylbQ0BIXShbQ0gyXTMpW0NIMl1bQ0gyXTI=

> <s_epik_cmdline>
J2VwaWtfcHl0aG9uJywgJy1waCcsICc3LjAnLCAnLXRuJywgJzgnLCAnLW1hJywgJzIwMCcsICctbWV0YWxfYmluZGluZycsICctaW1hZScsICc8aW5maWxlLm1hZT4nLCAnLW9tYWUnLCAnPG91dGZpbGUubWFlPic=

> <r_lp_tautomer_probability>
0.156392

> <r_epik_Ionization_Penalty>
0.0139374

> <r_epik_Ionization_Penalty_Charging>
0.0138122

> <r_epik_Ionization_Penalty_Neutral>
0.000125146

> <r_epik_State_Penalty>
1.15342

> <r_epik_Charging_Adjusted_Penalty>
1.16723

> <i_epik_Tot_Q>
0

> <i_epik_Tot_abs_Q>
0

> <r_epik_Metal_State_Penalty>
1.3173

> <b_epik_Metal_Only>
0

> <s_lp_Force_Field>
OPLS_2005

> <r_lp_Energy>
56.04

> <b_lp_Chiralities_Consistent>
1

> <s_lp_Variant>
AV-unprocessed.smi:2124-12

> <Gold.Version>
5.8.1

> <Gold.Id.Protein>
6NUR|6NUR_protein|mol2

> <Gold.PLP.Fitness>
45.6678

> <Gold.PLP.PLP>
-39.8194

> <Gold.PLP.part.hbond>
-1.9815

> <Gold.PLP.part.metal>
0.0000

> <Gold.PLP.part.buried>
-5.5560

> <Gold.PLP.part.nonpolar>
-32.4659

> <Gold.PLP.part.repulsive>
0.1921

> <Gold.PLP.ligand.clash>
0.0000

> <Gold.PLP.ligand.torsion>
0.0886

> <Gold.PLP.Chemscore.Hbond>
2.0000

> <Gold.PLP.Chemscore.CHOScore>
0.0000

> <Gold.PLP.Chemscore.Metal>
0.0000

> <Gold.Chemscore.Hbonds>
donor molecule, donor type, donor heavy atom, donor atom, acceptor molecule, acceptor atom, score
      P1  H  7997  8008       L1     9  0.55
      P1  H 10752 10764       L1    21  0.05

> <Gold.PLP.Chemscore.Internal.Correction>
0.0257

> <Gold.Rescore>
     Score         DG    S(hbond)    S(metal)    S(lipo)     H(rot)  DE(clash)    DE(int)     intcor
     21.23     -21.68       1.95        0.00     118.93       1.65       0.02       0.43       ----

> <Gold.Chemscore.Fitness>
21.2272

> <Gold.Chemscore.DG>
-21.6803

> <Gold.Chemscore.ZeroCoef>
-5.4800

> <Gold.Chemscore.Hbond>
1.9516

> <Gold.Chemscore.Metal>
0.0000

> <Gold.Chemscore.Lipo>
118.9288

> <Gold.Chemscore.Internal_Hbond>
0.0000

> <Gold.Chemscore.DEClash>
0.0246

> <Gold.Chemscore.DEInternal>
0.4284

> <Gold.Chemscore.Rot>
1.6534

> <Gold.Chemscore.Internal.Correction>
   9.000000E+99

> <Gold.Chemscore.Hbonds>
donor molecule, donor type, donor heavy atom, donor atom, acceptor molecule, acceptor atom, score
      P1  H  7997  8008       L1     9  0.54
      P1  H 10752 10764       L1    21  0.06

> <Gold.Chemscore.Hbond.Weighted>
-6.5182

> <Gold.Chemscore.Metal.Weighted>
-0.0000

> <Gold.Chemscore.Lipo.Weighted>
-13.9147

> <Gold.Chemscore.Internal_Hbond.Weighted>
0.0000

> <Gold.Chemscore.DEClash.Weighted>
0.0246

> <Gold.Chemscore.DEInternal.Weighted>
0.4284

> <Gold.Chemscore.Rot.Weighted>
4.2326

> <Gold.Chemscore.Internal.Correction.Weighted>
   9.000000E+99

> <Gold.Protein.RotatedTorsions>
[ 6907 6896 6895 6894 ] final   59.30 input  -60.11 | X-H torsion
[ 7974 7965 7964 7962 ] final  160.69 input  175.53 | X-H torsion
[ 8008 7997 7996 7995 ] final  -96.35 input   59.86 | X-H torsion
[ 10167 10162 10161 10158 ] final  -69.83 input  -65.29 | X-H torsion
[ 10718 10713 10712 10709 ] final   23.38 input   66.30 | X-H torsion
[ 10763 10752 10751 10750 ] final   -2.70 input  -60.55 | X-H torsion
[ 11005 11000 10999 10996 ] final   45.59 input  -57.11 | X-H torsion

> <Gold.Protein.ActiveResidues>
 VAL166  LYS551  ARG553  GLY616  TRP617  ASP618  TYR619  PRO620  LYS621  CYS622 
 ASP623  PHE694  ASN695  SER759  ASP760  ASP761  ALA762  ILE779  LEU786  VAL792 
 PHE793  MET794  SER795  GLU796  ALA797  LYS798  CYS799  TRP800  GLU811  SER814 

> <Gold.Protein.RotatedAtoms>
  152.3902  134.6453  160.0109 H   0  0  0  0  0  0  0  0  0  0  0  0  # atno 6907 bound_to 6896
  151.6689  133.3309  159.3200 H   0  0  0  0  0  0  0  0  0  0  0  0  # atno 6908 bound_to 6896
  150.7820  134.6816  159.6492 H   0  0  0  0  0  0  0  0  0  0  0  0  # atno 6909 bound_to 6896
  144.7723  139.7793  143.6292 H   0  0  0  0  0  0  0  0  0  0  0  0  # atno 7974 bound_to 7965
  154.7733  140.0472  157.1069 H   0  0  0  0  0  0  0  0  0  0  0  0  # atno 8008 bound_to 7997
  154.9793  140.3099  155.4934 H   0  0  0  0  0  0  0  0  0  0  0  0  # atno 8009 bound_to 7997
  156.2925  140.2239  156.4891 H   0  0  0  0  0  0  0  0  0  0  0  0  # atno 8010 bound_to 7997
  140.5400  143.2315  151.7106 H   0  0  0  0  0  0  0  0  0  0  0  0  # atno 10167 bound_to 10162
  157.1653  130.6735  149.6058 H   0  0  0  0  0  0  0  0  0  0  0  0  # atno 10718 bound_to 10713
  153.3615  135.6990  153.6709 H   0  0  0  0  0  0  0  0  0  0  0  0  # atno 10763 bound_to 10752
  153.5395  135.3575  155.2712 H   0  0  0  0  0  0  0  0  0  0  0  0  # atno 10764 bound_to 10752
  154.8669  135.4200  154.2873 H   0  0  0  0  0  0  0  0  0  0  0  0  # atno 10765 bound_to 10752
  140.1446  134.4539  155.8425 H   0  0  0  0  0  0  0  0  0  0  0  0  # atno 11005 bound_to 11000
  146.1879  139.5104  142.9824 LP  0  0  0  0  0  0  0  0  0  0  0  0  # atno 17320 bound_to 7965
  145.6286  141.0308  143.1875 LP  0  0  0  0  0  0  0  0  0  0  0  0  # atno 17321 bound_to 7965
  139.4985  144.3983  152.0208 LP  0  0  0  0  0  0  0  0  0  0  0  0  # atno 17342 bound_to 10162
  140.3091  144.3558  150.6038 LP  0  0  0  0  0  0  0  0  0  0  0  0  # atno 17343 bound_to 10162
  155.9747  130.4697  150.6406 LP  0  0  0  0  0  0  0  0  0  0  0  0  # atno 17370 bound_to 10713
  157.4094  131.0821  151.1235 LP  0  0  0  0  0  0  0  0  0  0  0  0  # atno 17371 bound_to 10713
  141.2191  133.6847  156.7309 LP  0  0  0  0  0  0  0  0  0  0  0  0  # atno 17394 bound_to 11000
  140.2680  134.8415  157.3821 LP  0  0  0  0  0  0  0  0  0  0  0  0  # atno 17395 bound_to 11000

$$$$
