AV-unprocessed.smi:3285|AV-procd|sdf|12584|dock5
  -GOLD-   2272018503D 1   1.00000     0.00000
 Structure written by MMmdl.
 45 46  0  0  0  0  0  0  0  0  2 V2000
  153.0231  138.8090  154.8169 C   0  0  0  0  0  0  0  0  0  0  0  0
  151.6470  138.2084  154.8532 C   0  0  0  0  0  0  0  0  0  0  0  0
  151.5180  136.8930  154.8659 N   0  0  0  0  0  0  0  0  0  0  0  0
  150.1433  136.6421  154.8966 O   0  0  0  0  0  0  0  0  0  0  0  0
  149.4895  137.8307  154.9012 C   0  0  0  0  0  0  0  0  0  0  0  0
  147.9995  137.7645  154.9386 C   0  0  0  0  0  0  0  0  0  0  0  0
  150.3834  138.8671  154.8785 C   0  0  0  0  0  0  0  0  0  0  0  0
  150.1117  140.3506  154.8831 C   0  0  0  0  0  0  0  0  0  0  0  0
  149.0037  140.7324  155.8765 C   0  0  0  0  0  0  0  0  0  0  0  0
  149.3308  141.9861  156.5892 N   0  3  0  0  0  0  0  0  0  0  0  0
  150.6329  142.0011  157.2899 C   0  0  2  0  0  0  0  0  0  0  0  0
  150.6685  140.8739  158.3330 C   0  0  0  0  0  0  0  0  0  0  0  0
  152.0007  140.8636  159.0944 C   0  0  0  0  0  0  0  0  0  0  0  0
  152.2846  142.2153  159.7795 C   0  0  1  0  0  0  0  0  0  0  0  0
  153.6236  142.1459  160.5350 C   0  0  0  0  0  0  0  0  0  0  0  0
  152.2318  143.3727  158.7469 C   0  0  2  0  0  0  0  0  0  0  0  0
  152.4480  144.7559  159.3864 C   0  0  0  0  0  0  0  0  0  0  0  0
  150.8964  143.3573  157.9731 C   0  0  0  0  0  0  0  0  0  0  0  0
  153.0054  139.8663  155.0804 H   0  0  0  0  0  0  0  0  0  0  0  0
  153.4600  138.7229  153.8220 H   0  0  0  0  0  0  0  0  0  0  0  0
  153.6915  138.3081  155.5177 H   0  0  0  0  0  0  0  0  0  0  0  0
  147.5582  138.7609  154.9284 H   0  0  0  0  0  0  0  0  0  0  0  0
  147.6589  137.2557  155.8404 H   0  0  0  0  0  0  0  0  0  0  0  0
  147.6156  137.2180  154.0771 H   0  0  0  0  0  0  0  0  0  0  0  0
  151.0175  140.9009  155.1393 H   0  0  0  0  0  0  0  0  0  0  0  0
  149.8382  140.6990  153.8868 H   0  0  0  0  0  0  0  0  0  0  0  0
  148.0574  140.8495  155.3465 H   0  0  0  0  0  0  0  0  0  0  0  0
  148.8694  139.9261  156.5974 H   0  0  0  0  0  0  0  0  0  0  0  0
  149.2948  142.7596  155.9408 H   0  0  0  0  0  0  0  0  0  0  0  0
  151.4180  141.8091  156.5566 H   0  0  0  0  0  0  0  0  0  0  0  0
  149.8466  140.9933  159.0407 H   0  0  0  0  0  0  0  0  0  0  0  0
  150.5199  139.9090  157.8464 H   0  0  0  0  0  0  0  0  0  0  0  0
  151.9828  140.0662  159.8383 H   0  0  0  0  0  0  0  0  0  0  0  0
  152.8111  140.6213  158.4052 H   0  0  0  0  0  0  0  0  0  0  0  0
  151.4996  142.3830  160.5188 H   0  0  0  0  0  0  0  0  0  0  0  0
  154.4639  142.0574  159.8459 H   0  0  0  0  0  0  0  0  0  0  0  0
  153.6514  141.2843  161.2026 H   0  0  0  0  0  0  0  0  0  0  0  0
  153.7864  143.0285  161.1529 H   0  0  0  0  0  0  0  0  0  0  0  0
  153.0340  143.2178  158.0236 H   0  0  0  0  0  0  0  0  0  0  0  0
  151.7219  144.9459  160.1776 H   0  0  0  0  0  0  0  0  0  0  0  0
  152.3459  145.5499  158.6461 H   0  0  0  0  0  0  0  0  0  0  0  0
  153.4451  144.8523  159.8154 H   0  0  0  0  0  0  0  0  0  0  0  0
  150.9093  144.1534  157.2286 H   0  0  0  0  0  0  0  0  0  0  0  0
  150.0769  143.5893  158.6555 H   0  0  0  0  0  0  0  0  0  0  0  0
  148.6123  142.1219  157.2862 H   0  0  0  0  0  0  0  0  0  0  0  0
  1  2  1  0  0  0  0
  1 19  1  0  0  0  0
  1 20  1  0  0  0  0
  1 21  1  0  0  0  0
  2  7  1  0  0  0  0
  2  3  2  0  0  0  0
  3  4  1  0  0  0  0
  4  5  1  0  0  0  0
  5  6  1  0  0  0  0
  5  7  2  0  0  0  0
  6 22  1  0  0  0  0
  6 23  1  0  0  0  0
  6 24  1  0  0  0  0
  7  8  1  0  0  0  0
  8  9  1  0  0  0  0
  8 25  1  0  0  0  0
  8 26  1  0  0  0  0
  9 10  1  0  0  0  0
  9 27  1  0  0  0  0
  9 28  1  0  0  0  0
 10 11  1  0  0  0  0
 10 29  1  0  0  0  0
 10 45  1  0  0  0  0
 11 18  1  0  0  0  0
 11 12  1  0  0  0  0
 11 30  1  0  0  0  0
 12 13  1  0  0  0  0
 12 31  1  0  0  0  0
 12 32  1  0  0  0  0
 13 14  1  0  0  0  0
 13 33  1  0  0  0  0
 13 34  1  0  0  0  0
 14 15  1  0  0  0  0
 14 16  1  0  0  0  0
 14 35  1  0  0  0  0
 15 36  1  0  0  0  0
 15 37  1  0  0  0  0
 15 38  1  0  0  0  0
 16 17  1  0  0  0  0
 16 18  1  0  0  0  0
 16 39  1  0  0  0  0
 17 40  1  0  0  0  0
 17 41  1  0  0  0  0
 17 42  1  0  0  0  0
 18 43  1  0  0  0  0
 18 44  1  0  0  0  0
M  CHG  1  10   1
M  END
> <s_m_source_file>
AV-unprocessed.smi

> <i_m_source_file_index>
3285

> <i_lp_mmshare_version>
43012

> <i_f3d_flags>
0

> <s_epik_input>
W0NIM11jMW5vYyhbQ0gzXSljMVtDSDJdW0NIMl1bTkhdW0NAQEhdMltDSDJdW0NIMl1bQ0BASF0oW0NIM10pW0NAQEhdKFtDSDNdKVtDSDJdMg==

> <s_epik_cmdline>
J2VwaWtfcHl0aG9uJywgJy1waCcsICc3LjAnLCAnLXRuJywgJzgnLCAnLW1hJywgJzIwMCcsICctbWV0YWxfYmluZGluZycsICctaW1hZScsICc8aW5maWxlLm1hZT4nLCAnLW9tYWUnLCAnPG91dGZpbGUubWFlPic=

> <r_lp_tautomer_probability>
1

> <r_epik_Ionization_Penalty>
0.000204615

> <r_epik_Ionization_Penalty_Charging>
0.000204615

> <r_epik_Ionization_Penalty_Neutral>
9.28663e-11

> <r_epik_State_Penalty>
-0

> <r_epik_Charging_Adjusted_Penalty>
0.000204615

> <i_epik_Tot_Q>
1

> <i_epik_Tot_abs_Q>
1

> <r_epik_Metal_State_Penalty>
-0

> <b_epik_Metal_Only>
0

> <s_lp_Force_Field>
OPLS_2005

> <r_lp_Energy>
12.3139

> <b_lp_Chiralities_Consistent>
1

> <s_lp_Variant>
AV-unprocessed.smi:3285-5

> <Gold.Version>
5.8.1

> <Gold.Id.Protein>
6NUR|6NUR_protein|mol2

> <Gold.PLP.Fitness>
46.5822

> <Gold.PLP.PLP>
-38.6146

> <Gold.PLP.part.hbond>
-2.0000

> <Gold.PLP.part.metal>
0.0000

> <Gold.PLP.part.buried>
-3.3246

> <Gold.PLP.part.nonpolar>
-34.4165

> <Gold.PLP.part.repulsive>
0.4664

> <Gold.PLP.ligand.clash>
0.0000

> <Gold.PLP.ligand.torsion>
0.5174

> <Gold.PLP.Chemscore.Hbond>
3.0000

> <Gold.PLP.Chemscore.CHOScore>
0.0000

> <Gold.PLP.Chemscore.Metal>
0.0000

> <Gold.Chemscore.Hbonds>
donor molecule, donor type, donor heavy atom, donor atom, acceptor molecule, acceptor atom, score
      L1  H    10    29       P1  8028  1.89
      P1  H 10752 10764       L1     3  1.00

> <Gold.PLP.Chemscore.Internal.Correction>
0.0023

> <Gold.Rescore>
     Score         DG    S(hbond)    S(metal)    S(lipo)     H(rot)  DE(clash)    DE(int)     intcor
     21.18     -21.81       1.87        0.00     115.77       1.35       0.07       0.56       ----

> <Gold.Chemscore.Fitness>
21.1799

> <Gold.Chemscore.DG>
-21.8126

> <Gold.Chemscore.ZeroCoef>
-5.4800

> <Gold.Chemscore.Hbond>
1.8665

> <Gold.Chemscore.Metal>
0.0000

> <Gold.Chemscore.Lipo>
115.7725

> <Gold.Chemscore.Internal_Hbond>
0.0000

> <Gold.Chemscore.DEClash>
0.0694

> <Gold.Chemscore.DEInternal>
0.5633

> <Gold.Chemscore.Rot>
1.3465

> <Gold.Chemscore.Internal.Correction>
   9.000000E+99

> <Gold.Chemscore.Hbonds>
donor molecule, donor type, donor heavy atom, donor atom, acceptor molecule, acceptor atom, score
      L1  H    10    29       P1  8028  0.86
      P1  H 10752 10764       L1     3  0.99

> <Gold.Chemscore.Hbond.Weighted>
-6.2342

> <Gold.Chemscore.Metal.Weighted>
-0.0000

> <Gold.Chemscore.Lipo.Weighted>
-13.5454

> <Gold.Chemscore.Internal_Hbond.Weighted>
0.0000

> <Gold.Chemscore.DEClash.Weighted>
0.0694

> <Gold.Chemscore.DEInternal.Weighted>
0.5633

> <Gold.Chemscore.Rot.Weighted>
3.4470

> <Gold.Chemscore.Internal.Correction.Weighted>
   9.000000E+99

> <Gold.Protein.RotatedTorsions>
[ 6907 6896 6895 6894 ] final -151.05 input  -60.11 | X-H torsion
[ 7974 7965 7964 7962 ] final  -31.62 input  175.53 | X-H torsion
[ 8008 7997 7996 7995 ] final  134.52 input   59.86 | X-H torsion
[ 10167 10162 10161 10158 ] final   43.83 input  -65.29 | X-H torsion
[ 10718 10713 10712 10709 ] final   13.72 input   66.30 | X-H torsion
[ 10763 10752 10751 10750 ] final  -66.50 input  -60.55 | X-H torsion
[ 11005 11000 10999 10996 ] final   65.22 input  -57.11 | X-H torsion

> <Gold.Protein.ActiveResidues>
 VAL166  LYS551  ARG553  GLY616  TRP617  ASP618  TYR619  PRO620  LYS621  CYS622 
 ASP623  PHE694  ASN695  SER759  ASP760  ASP761  ALA762  ILE779  LEU786  VAL792 
 PHE793  MET794  SER795  GLU796  ALA797  LYS798  CYS799  TRP800  GLU811  SER814 

> <Gold.Protein.RotatedAtoms>
  151.2074  133.4575  159.2597 H   0  0  0  0  0  0  0  0  0  0  0  0  # atno 6907 bound_to 6896
  151.1010  134.9972  159.8458 H   0  0  0  0  0  0  0  0  0  0  0  0  # atno 6908 bound_to 6896
  152.5443  134.2001  159.8761 H   0  0  0  0  0  0  0  0  0  0  0  0  # atno 6909 bound_to 6896
  146.1053  140.5690  142.8802 H   0  0  0  0  0  0  0  0  0  0  0  0  # atno 7974 bound_to 7965
  156.2999  140.2494  156.3431 H   0  0  0  0  0  0  0  0  0  0  0  0  # atno 8008 bound_to 7997
  154.9036  140.0405  157.1926 H   0  0  0  0  0  0  0  0  0  0  0  0  # atno 8009 bound_to 7997
  154.8476  140.2900  155.5623 H   0  0  0  0  0  0  0  0  0  0  0  0  # atno 8010 bound_to 7997
  140.3405  144.2476  150.6156 H   0  0  0  0  0  0  0  0  0  0  0  0  # atno 10167 bound_to 10162
  157.0287  130.6184  149.5732 H   0  0  0  0  0  0  0  0  0  0  0  0  # atno 10718 bound_to 10713
  154.3607  135.6116  153.5689 H   0  0  0  0  0  0  0  0  0  0  0  0  # atno 10763 bound_to 10752
  152.9793  135.5814  154.4636 H   0  0  0  0  0  0  0  0  0  0  0  0  # atno 10764 bound_to 10752
  154.4373  135.2849  155.1849 H   0  0  0  0  0  0  0  0  0  0  0  0  # atno 10765 bound_to 10752
  139.9908  134.6594  156.0094 H   0  0  0  0  0  0  0  0  0  0  0  0  # atno 11005 bound_to 11000
  144.7466  140.5084  143.6831 LP  0  0  0  0  0  0  0  0  0  0  0  0  # atno 17320 bound_to 7965
  145.5772  139.1486  143.3255 LP  0  0  0  0  0  0  0  0  0  0  0  0  # atno 17321 bound_to 7965
  140.5314  143.2242  151.8233 LP  0  0  0  0  0  0  0  0  0  0  0  0  # atno 17342 bound_to 10162
  139.4841  144.4716  151.9418 LP  0  0  0  0  0  0  0  0  0  0  0  0  # atno 17343 bound_to 10162
  156.0077  130.5165  150.7885 LP  0  0  0  0  0  0  0  0  0  0  0  0  # atno 17370 bound_to 10713
  157.5194  131.0930  151.0097 LP  0  0  0  0  0  0  0  0  0  0  0  0  # atno 17371 bound_to 10713
  141.1564  133.6542  156.4176 LP  0  0  0  0  0  0  0  0  0  0  0  0  # atno 17394 bound_to 11000
  140.4912  134.6574  157.5211 LP  0  0  0  0  0  0  0  0  0  0  0  0  # atno 17395 bound_to 11000

$$$$
