AV-unprocessed.smi:260|AV-procd|sdf|1978|dock2
  -GOLD-   2262021153D 1   1.00000     0.00000
 Structure written by MMmdl.
 53 56  0  0  0  0  0  0  0  0  1 V2000
  152.4337  130.9236  155.6102 C   0  0  0  0  0  0  0  0  0  0  0  0
  151.2712  131.7832  155.7694 N   0  0  0  0  0  0  0  0  0  0  0  0
  151.0760  132.6122  156.8073 C   0  0  0  0  0  0  0  0  0  0  0  0
  151.8840  132.6997  157.7329 O   0  0  0  0  0  0  0  0  0  0  0  0
  149.7859  133.4732  156.8360 C   0  0  2  0  0  0  0  0  0  0  0  0
  148.8619  132.9493  157.9526 C   0  0  0  0  0  0  0  0  0  0  0  0
  149.0569  133.5694  155.4762 C   0  0  0  0  0  0  0  0  0  0  0  0
  149.7960  134.6741  154.7100 C   0  0  0  0  0  0  0  0  0  0  0  0
  150.4456  135.4857  155.7295 N   0  0  0  0  0  0  0  0  0  0  0  0
  150.6851  136.8078  155.5296 C   0  0  0  0  0  0  0  0  0  0  0  0
  150.6948  137.2849  154.2565 N   0  0  0  0  0  0  0  0  0  0  0  0
  150.9310  138.5774  154.0164 C   0  0  0  0  0  0  0  0  0  0  0  0
  151.1737  139.5566  154.8888 N   0  0  0  0  0  0  0  0  0  0  0  0
  151.1517  139.0919  156.1701 C   0  0  0  0  0  0  0  0  0  0  0  0
  150.9160  137.7469  156.5784 C   0  0  0  0  0  0  0  0  0  0  0  0
  150.9623  137.6674  157.9667 N   0  0  0  0  0  0  0  0  0  0  0  0
  151.2207  138.8865  158.3533 C   0  0  0  0  0  0  0  0  0  0  0  0
  151.3542  139.8050  157.3385 N   0  0  0  0  0  0  0  0  0  0  0  0
  151.6447  141.2208  157.4864 C   0  0  0  0  0  0  0  0  0  0  0  0
  152.1002  141.5788  158.9145 C   0  0  1  0  0  0  0  0  0  0  0  0
  153.3242  140.9255  159.1912 O   0  0  0  0  0  0  0  0  0  0  0  0
  152.2929  143.0946  159.1033 C   0  0  2  0  0  0  0  0  0  0  0  0
  152.5285  143.5300  160.5509 C   0  0  0  0  0  0  0  0  0  0  0  0
  152.0533  144.9744  160.5740 C   0  0  0  0  0  0  0  0  0  0  0  0
  151.2309  145.1160  159.2904 C   0  0  0  0  0  0  0  0  0  0  0  0
  151.1001  143.7947  158.7847 O   0  0  0  0  0  0  0  0  0  0  0  0
  150.1474  134.9550  157.0545 C   0  0  0  0  0  0  0  0  0  0  0  0
  152.3242  130.3134  154.7138 H   0  0  0  0  0  0  0  0  0  0  0  0
  152.5463  130.2566  156.4660 H   0  0  0  0  0  0  0  0  0  0  0  0
  153.3425  131.5187  155.5099 H   0  0  0  0  0  0  0  0  0  0  0  0
  150.5714  131.7535  155.0422 H   0  0  0  0  0  0  0  0  0  0  0  0
  147.9563  133.5513  158.0341 H   0  0  0  0  0  0  0  0  0  0  0  0
  149.3530  132.9726  158.9263 H   0  0  0  0  0  0  0  0  0  0  0  0
  148.5534  131.9211  157.7603 H   0  0  0  0  0  0  0  0  0  0  0  0
  148.9983  132.6343  154.9182 H   0  0  0  0  0  0  0  0  0  0  0  0
  148.0271  133.8905  155.6400 H   0  0  0  0  0  0  0  0  0  0  0  0
  150.5589  134.2491  154.0570 H   0  0  0  0  0  0  0  0  0  0  0  0
  149.1030  135.2534  154.0988 H   0  0  0  0  0  0  0  0  0  0  0  0
  150.9261  138.8680  152.9763 H   0  0  0  0  0  0  0  0  0  0  0  0
  151.3243  139.1509  159.3958 H   0  0  0  0  0  0  0  0  0  0  0  0
  152.4054  141.5045  156.7580 H   0  0  0  0  0  0  0  0  0  0  0  0
  150.7438  141.7778  157.2263 H   0  0  0  0  0  0  0  0  0  0  0  0
  151.3585  141.2188  159.6290 H   0  0  0  0  0  0  0  0  0  0  0  0
  153.6849  141.2888  159.9855 H   0  0  0  0  0  0  0  0  0  0  0  0
  153.1002  143.4620  158.4662 H   0  0  0  0  0  0  0  0  0  0  0  0
  151.9146  142.9347  161.2281 H   0  0  0  0  0  0  0  0  0  0  0  0
  153.5687  143.4217  160.8586 H   0  0  0  0  0  0  0  0  0  0  0  0
  151.4544  145.1736  161.4633 H   0  0  0  0  0  0  0  0  0  0  0  0
  152.8924  145.6709  160.5708 H   0  0  0  0  0  0  0  0  0  0  0  0
  150.2538  145.5663  159.4660 H   0  0  0  0  0  0  0  0  0  0  0  0
  151.7622  145.7293  158.5610 H   0  0  0  0  0  0  0  0  0  0  0  0
  149.3033  135.4992  157.4813 H   0  0  0  0  0  0  0  0  0  0  0  0
  150.9971  135.0856  157.7262 H   0  0  0  0  0  0  0  0  0  0  0  0
  1  2  1  0  0  0  0
  1 28  1  0  0  0  0
  1 29  1  0  0  0  0
  1 30  1  0  0  0  0
  2  3  1  0  0  0  0
  2 31  1  0  0  0  0
  3  4  2  0  0  0  0
  3  5  1  0  0  0  0
  5 27  1  0  0  0  0
  5  6  1  0  0  0  0
  5  7  1  0  0  0  0
  6 32  1  0  0  0  0
  6 33  1  0  0  0  0
  6 34  1  0  0  0  0
  7  8  1  0  0  0  0
  7 35  1  0  0  0  0
  7 36  1  0  0  0  0
  8  9  1  0  0  0  0
  8 37  1  0  0  0  0
  8 38  1  0  0  0  0
  9 10  1  0  0  0  0
  9 27  1  0  0  0  0
 10 15  1  0  0  0  0
 10 11  2  0  0  0  0
 11 12  1  0  0  0  0
 12 13  2  0  0  0  0
 12 39  1  0  0  0  0
 13 14  1  0  0  0  0
 14 18  1  0  0  0  0
 14 15  2  0  0  0  0
 15 16  1  0  0  0  0
 16 17  2  0  0  0  0
 17 18  1  0  0  0  0
 17 40  1  0  0  0  0
 18 19  1  0  0  0  0
 19 20  1  0  0  0  0
 19 41  1  0  0  0  0
 19 42  1  0  0  0  0
 20 21  1  0  0  0  0
 20 22  1  0  0  0  0
 20 43  1  0  0  0  0
 21 44  1  0  0  0  0
 22 26  1  0  0  0  0
 22 23  1  0  0  0  0
 22 45  1  0  0  0  0
 23 24  1  0  0  0  0
 23 46  1  0  0  0  0
 23 47  1  0  0  0  0
 24 25  1  0  0  0  0
 24 48  1  0  0  0  0
 24 49  1  0  0  0  0
 25 26  1  0  0  0  0
 25 50  1  0  0  0  0
 25 51  1  0  0  0  0
 27 52  1  0  0  0  0
 27 53  1  0  0  0  0
M  END
> <s_m_source_file>
AV-unprocessed.smi

> <i_m_source_file_index>
260

> <i_lp_mmshare_version>
43012

> <i_f3d_flags>
0

> <s_epik_input>
W0NIM11bTkhdQyg9TylbQ0BAXTEoW0NIM10pW0NIMl1bQ0gyXU4oW0NIMl0xKWMobltjSF1uMiljKGMyMyluW2NIXW4zW0NIMl1bQ0BIXShbT0hdKVtDQEBIXTRbQ0gyXVtDSDJdW0NIMl1PNA==

> <s_epik_cmdline>
J2VwaWtfcHl0aG9uJywgJy1waCcsICc3LjAnLCAnLXRuJywgJzgnLCAnLW1hJywgJzIwMCcsICctbWV0YWxfYmluZGluZycsICctaW1hZScsICc8aW5maWxlLm1hZT4nLCAnLW9tYWUnLCAnPG91dGZpbGUubWFlPic=

> <r_lp_tautomer_probability>
1

> <r_epik_Ionization_Penalty>
0.00115068

> <r_epik_Ionization_Penalty_Charging>
0

> <r_epik_Ionization_Penalty_Neutral>
0.00115068

> <r_epik_State_Penalty>
0.000668876

> <r_epik_Charging_Adjusted_Penalty>
0.000668876

> <i_epik_Tot_Q>
0

> <i_epik_Tot_abs_Q>
0

> <r_epik_Metal_State_Penalty>
-0

> <b_epik_Metal_Only>
0

> <s_lp_Force_Field>
OPLS_2005

> <r_lp_Energy>
50.1788

> <b_lp_Chiralities_Consistent>
1

> <s_lp_Variant>
AV-unprocessed.smi:260-4

> <Gold.Version>
5.8.1

> <Gold.Id.Protein>
6NUR|6NUR_protein|mol2

> <Gold.PLP.Fitness>
46.7128

> <Gold.PLP.PLP>
-39.8650

> <Gold.PLP.part.hbond>
-2.0000

> <Gold.PLP.part.metal>
0.0000

> <Gold.PLP.part.buried>
-8.6119

> <Gold.PLP.part.nonpolar>
-31.2528

> <Gold.PLP.part.repulsive>
0.8873

> <Gold.PLP.ligand.clash>
0.0000

> <Gold.PLP.ligand.torsion>
0.6650

> <Gold.PLP.Chemscore.Hbond>
1.7000

> <Gold.PLP.Chemscore.CHOScore>
0.8951

> <Gold.PLP.Chemscore.Metal>
0.0000

> <Gold.Chemscore.Hbonds>
donor molecule, donor type, donor heavy atom, donor atom, acceptor molecule, acceptor atom, score
      P1  H  6896  6909       L1     4  1.00
      P1  H  7989  7998       L1    13  0.70
      L1  C    12    39       P1  7957  0.89

> <Gold.PLP.Chemscore.Internal.Correction>
0.3927

> <Gold.Rescore>
     Score         DG    S(hbond)    S(metal)    S(lipo)     H(rot)  DE(clash)    DE(int)     intcor
     11.12     -13.19       1.07        0.00      90.64       2.53       0.38       1.69       ----

> <Gold.Chemscore.Fitness>
11.1232

> <Gold.Chemscore.DG>
-13.1880

> <Gold.Chemscore.ZeroCoef>
-5.4800

> <Gold.Chemscore.Hbond>
1.0687

> <Gold.Chemscore.Metal>
0.0000

> <Gold.Chemscore.Lipo>
90.6394

> <Gold.Chemscore.Internal_Hbond>
0.0000

> <Gold.Chemscore.DEClash>
0.3779

> <Gold.Chemscore.DEInternal>
1.6868

> <Gold.Chemscore.Rot>
2.5259

> <Gold.Chemscore.Internal.Correction>
   9.000000E+99

> <Gold.Chemscore.Hbonds>
donor molecule, donor type, donor heavy atom, donor atom, acceptor molecule, acceptor atom, score
      P1  H  6896  6909       L1     4  0.95
      P1  H  7989  7998       L1    13  0.07

> <Gold.Chemscore.Hbond.Weighted>
-3.5695

> <Gold.Chemscore.Metal.Weighted>
-0.0000

> <Gold.Chemscore.Lipo.Weighted>
-10.6048

> <Gold.Chemscore.Internal_Hbond.Weighted>
0.0000

> <Gold.Chemscore.DEClash.Weighted>
0.3779

> <Gold.Chemscore.DEInternal.Weighted>
1.6868

> <Gold.Chemscore.Rot.Weighted>
6.4663

> <Gold.Chemscore.Internal.Correction.Weighted>
   9.000000E+99

> <Gold.Protein.RotatedTorsions>
[ 6907 6896 6895 6894 ] final  -63.66 input  -60.11 | X-H torsion
[ 7974 7965 7964 7962 ] final   98.79 input  175.53 | X-H torsion
[ 8008 7997 7996 7995 ] final   -3.08 input   59.86 | X-H torsion
[ 10167 10162 10161 10158 ] final -142.36 input  -65.29 | X-H torsion
[ 10718 10713 10712 10709 ] final   36.51 input   66.30 | X-H torsion
[ 10763 10752 10751 10750 ] final -175.48 input  -60.55 | X-H torsion
[ 11005 11000 10999 10996 ] final  -17.47 input  -57.11 | X-H torsion

> <Gold.Protein.ActiveResidues>
 VAL166  LYS551  ARG553  GLY616  TRP617  ASP618  TYR619  PRO620  LYS621  CYS622 
 ASP623  PHE694  ASN695  SER759  ASP760  ASP761  ALA762  ILE779  LEU786  VAL792 
 PHE793  MET794  SER795  GLU796  ALA797  LYS798  CYS799  TRP800  GLU811  SER814 

> <Gold.Protein.RotatedAtoms>
  150.7635  134.6405  159.6233 H   0  0  0  0  0  0  0  0  0  0  0  0  # atno 6907 bound_to 6896
  152.3654  134.6808  160.0202 H   0  0  0  0  0  0  0  0  0  0  0  0  # atno 6908 bound_to 6896
  151.7185  133.3277  159.3345 H   0  0  0  0  0  0  0  0  0  0  0  0  # atno 6909 bound_to 6896
  145.4074  139.2338  143.3267 H   0  0  0  0  0  0  0  0  0  0  0  0  # atno 7974 bound_to 7965
  154.6288  140.2518  155.7459 H   0  0  0  0  0  0  0  0  0  0  0  0  # atno 8008 bound_to 7997
  156.2468  140.2911  156.0550 H   0  0  0  0  0  0  0  0  0  0  0  0  # atno 8009 bound_to 7997
  155.1779  140.0388  157.2866 H   0  0  0  0  0  0  0  0  0  0  0  0  # atno 8010 bound_to 7997
  139.8096  143.7721  152.2663 H   0  0  0  0  0  0  0  0  0  0  0  0  # atno 10167 bound_to 10162
  157.3357  130.7521  149.6878 H   0  0  0  0  0  0  0  0  0  0  0  0  # atno 10718 bound_to 10713
  154.5839  135.2839  155.0704 H   0  0  0  0  0  0  0  0  0  0  0  0  # atno 10763 bound_to 10752
  154.2030  135.6421  153.5096 H   0  0  0  0  0  0  0  0  0  0  0  0  # atno 10764 bound_to 10752
  153.0097  135.5473  154.6502 H   0  0  0  0  0  0  0  0  0  0  0  0  # atno 10765 bound_to 10752
  140.8172  133.8096  155.9622 H   0  0  0  0  0  0  0  0  0  0  0  0  # atno 11005 bound_to 11000
  146.2722  140.4781  142.8810 LP  0  0  0  0  0  0  0  0  0  0  0  0  # atno 17320 bound_to 7965
  144.8332  140.6740  143.6277 LP  0  0  0  0  0  0  0  0  0  0  0  0  # atno 17321 bound_to 7965
  139.7866  144.7425  151.0014 LP  0  0  0  0  0  0  0  0  0  0  0  0  # atno 17342 bound_to 10162
  140.7818  143.4486  151.0446 LP  0  0  0  0  0  0  0  0  0  0  0  0  # atno 17343 bound_to 10162
  155.9701  130.4182  150.4316 LP  0  0  0  0  0  0  0  0  0  0  0  0  # atno 17370 bound_to 10713
  157.2356  131.0514  151.2467 LP  0  0  0  0  0  0  0  0  0  0  0  0  # atno 17371 bound_to 10713
  140.9137  134.2228  157.4970 LP  0  0  0  0  0  0  0  0  0  0  0  0  # atno 17394 bound_to 11000
  139.8710  134.9761  156.4910 LP  0  0  0  0  0  0  0  0  0  0  0  0  # atno 17395 bound_to 11000

$$$$
