AV-unprocessed.smi:1818|AV-procd|sdf|7380|dock8
  -GOLD-   22720 9 43D 1   1.00000     0.00000
 Structure written by MMmdl.
 36 37  0  0  0  0  0  0  0  0  1 V2000
  150.9261  139.6037  154.5274 N   0  0  0  0  0  0  0  0  0  0  0  0
  150.1860  140.3487  155.0136 C   0  0  0  0  0  0  0  0  0  0  0  0
  149.2426  141.3000  155.6340 C   0  0  0  0  0  0  0  0  0  0  0  0
  149.9524  142.5066  156.0707 N   0  0  0  0  0  0  0  0  0  0  0  0
  150.9735  142.5793  156.9414 C   0  0  0  0  0  0  0  0  0  0  0  0
  151.4437  141.6052  157.5274 O   0  0  0  0  0  0  0  0  0  0  0  0
  151.5635  143.9685  157.1805 C   0  0  0  0  0  0  0  0  0  0  0  0
  151.4406  144.3469  158.5755 N   0  0  0  0  0  0  0  0  0  0  0  0
  152.4570  144.4163  159.5200 C   0  0  0  0  0  0  0  0  0  0  0  0
  151.8694  144.8095  160.7013 C   0  0  0  0  0  0  0  0  0  0  0  0
  150.5012  144.9853  160.5084 N   0  0  0  0  0  0  0  0  0  0  0  0
  150.3212  144.6915  159.2273 C   0  0  0  0  0  0  0  0  0  0  0  0
  148.2374  141.7278  154.5358 C   0  0  0  0  0  0  0  0  0  0  0  0
  146.8939  142.2935  155.0300 C   0  0  0  0  0  0  0  0  0  0  0  0
  145.8358  141.1959  155.2438 C   0  0  0  0  0  0  0  0  0  0  0  0
  146.0635  140.3066  156.4762 C   0  0  0  0  0  0  0  0  0  0  0  0
  147.4453  139.6328  156.5429 C   0  0  0  0  0  0  0  0  0  0  0  0
  148.5680  140.6342  156.8620 C   0  0  0  0  0  0  0  0  0  0  0  0
  149.6459  143.3720  155.6510 H   0  0  0  0  0  0  0  0  0  0  0  0
  152.6162  143.9948  156.8950 H   0  0  0  0  0  0  0  0  0  0  0  0
  151.0432  144.7033  156.5645 H   0  0  0  0  0  0  0  0  0  0  0  0
  153.4848  144.1848  159.2818 H   0  0  0  0  0  0  0  0  0  0  0  0
  152.3217  144.9762  161.6677 H   0  0  0  0  0  0  0  0  0  0  0  0
  149.3515  144.7257  158.7518 H   0  0  0  0  0  0  0  0  0  0  0  0
  148.7152  142.4683  153.8921 H   0  0  0  0  0  0  0  0  0  0  0  0
  148.0367  140.8847  153.8728 H   0  0  0  0  0  0  0  0  0  0  0  0
  147.0238  142.9004  155.9266 H   0  0  0  0  0  0  0  0  0  0  0  0
  146.5131  142.9716  154.2657 H   0  0  0  0  0  0  0  0  0  0  0  0
  144.8580  141.6684  155.3421 H   0  0  0  0  0  0  0  0  0  0  0  0
  145.7697  140.5719  154.3518 H   0  0  0  0  0  0  0  0  0  0  0  0
  145.8980  140.8914  157.3820 H   0  0  0  0  0  0  0  0  0  0  0  0
  145.2960  139.5319  156.4849 H   0  0  0  0  0  0  0  0  0  0  0  0
  147.4133  138.8941  157.3444 H   0  0  0  0  0  0  0  0  0  0  0  0
  147.6596  139.0740  155.6314 H   0  0  0  0  0  0  0  0  0  0  0  0
  149.3349  140.1078  157.4318 H   0  0  0  0  0  0  0  0  0  0  0  0
  148.1853  141.3942  157.5452 H   0  0  0  0  0  0  0  0  0  0  0  0
  1  2  3  0  0  0  0
  2  3  1  0  0  0  0
  3 18  1  0  0  0  0
  3  4  1  0  0  0  0
  3 13  1  0  0  0  0
  4  5  1  0  0  0  0
  4 19  1  0  0  0  0
  5  6  2  0  0  0  0
  5  7  1  0  0  0  0
  7  8  1  0  0  0  0
  7 20  1  0  0  0  0
  7 21  1  0  0  0  0
  8 12  1  0  0  0  0
  8  9  1  0  0  0  0
  9 10  2  0  0  0  0
  9 22  1  0  0  0  0
 10 11  1  0  0  0  0
 10 23  1  0  0  0  0
 11 12  2  0  0  0  0
 12 24  1  0  0  0  0
 13 14  1  0  0  0  0
 13 25  1  0  0  0  0
 13 26  1  0  0  0  0
 14 15  1  0  0  0  0
 14 27  1  0  0  0  0
 14 28  1  0  0  0  0
 15 16  1  0  0  0  0
 15 29  1  0  0  0  0
 15 30  1  0  0  0  0
 16 17  1  0  0  0  0
 16 31  1  0  0  0  0
 16 32  1  0  0  0  0
 17 18  1  0  0  0  0
 17 33  1  0  0  0  0
 17 34  1  0  0  0  0
 18 35  1  0  0  0  0
 18 36  1  0  0  0  0
M  END
> <s_m_source_file>
AV-unprocessed.smi

> <i_m_source_file_index>
1818

> <i_lp_mmshare_version>
43012

> <i_f3d_flags>
0

> <s_epik_input>
W0NIMl0xW0NIMl1bQ0gyXVtDSDJdW0NIMl1bQ0gyXUMxKEMjTilbTkhdQyg9TylbQ0gyXW4yW2NIXVtjSF1uW2NIXTI=

> <s_epik_cmdline>
J2VwaWtfcHl0aG9uJywgJy1waCcsICc3LjAnLCAnLXRuJywgJzgnLCAnLW1hJywgJzIwMCcsICctbWV0YWxfYmluZGluZycsICctaW1hZScsICc8aW5maWxlLm1hZT4nLCAnLW9tYWUnLCAnPG91dGZpbGUubWFlPic=

> <r_lp_tautomer_probability>
1

> <r_epik_Ionization_Penalty>
0.21493

> <r_epik_Ionization_Penalty_Charging>
0.214927

> <r_epik_Ionization_Penalty_Neutral>
2.56273e-06

> <r_epik_State_Penalty>
0.205117

> <r_epik_Charging_Adjusted_Penalty>
0.420044

> <i_epik_Tot_Q>
0

> <i_epik_Tot_abs_Q>
0

> <r_epik_Metal_State_Penalty>
0.148888

> <b_epik_Metal_Only>
0

> <s_lp_Force_Field>
OPLS_2005

> <r_lp_Energy>
17.7076

> <b_lp_Chiralities_Consistent>
1

> <s_lp_Variant>
AV-unprocessed.smi:1818-1

> <Gold.Version>
5.8.1

> <Gold.Id.Protein>
6NUR|6NUR_protein|mol2

> <Gold.PLP.Fitness>
41.5869

> <Gold.PLP.PLP>
-33.9322

> <Gold.PLP.part.hbond>
-1.9065

> <Gold.PLP.part.metal>
0.0000

> <Gold.PLP.part.buried>
-3.1992

> <Gold.PLP.part.nonpolar>
-29.4357

> <Gold.PLP.part.repulsive>
0.4721

> <Gold.PLP.ligand.clash>
0.0000

> <Gold.PLP.ligand.torsion>
0.1535

> <Gold.PLP.Chemscore.Hbond>
1.6500

> <Gold.PLP.Chemscore.CHOScore>
1.0000

> <Gold.PLP.Chemscore.Metal>
0.0000

> <Gold.Chemscore.Hbonds>
donor molecule, donor type, donor heavy atom, donor atom, acceptor molecule, acceptor atom, score
      L1  H     4    19       P1  8028  1.00
      P1  H  7989  7998       L1     1  0.65
      L1  C    12    24       P1  8029  1.00

> <Gold.PLP.Chemscore.Internal.Correction>
0.0118

> <Gold.Rescore>
     Score         DG    S(hbond)    S(metal)    S(lipo)     H(rot)  DE(clash)    DE(int)     intcor
     11.21     -11.98       0.98        0.00      63.69       1.65       0.16       0.62       ----

> <Gold.Chemscore.Fitness>
11.2131

> <Gold.Chemscore.DG>
-11.9849

> <Gold.Chemscore.ZeroCoef>
-5.4800

> <Gold.Chemscore.Hbond>
0.9801

> <Gold.Chemscore.Metal>
0.0000

> <Gold.Chemscore.Lipo>
63.6947

> <Gold.Chemscore.Internal_Hbond>
0.0000

> <Gold.Chemscore.DEClash>
0.1559

> <Gold.Chemscore.DEInternal>
0.6158

> <Gold.Chemscore.Rot>
1.6488

> <Gold.Chemscore.Internal.Correction>
   9.000000E+99

> <Gold.Chemscore.Hbonds>
donor molecule, donor type, donor heavy atom, donor atom, acceptor molecule, acceptor atom, score
      L1  H     4    19       P1  8028  0.92
      P1  H  7989  7998       L1     1  0.06

> <Gold.Chemscore.Hbond.Weighted>
-3.2737

> <Gold.Chemscore.Metal.Weighted>
-0.0000

> <Gold.Chemscore.Lipo.Weighted>
-7.4523

> <Gold.Chemscore.Internal_Hbond.Weighted>
0.0000

> <Gold.Chemscore.DEClash.Weighted>
0.1559

> <Gold.Chemscore.DEInternal.Weighted>
0.6158

> <Gold.Chemscore.Rot.Weighted>
4.2210

> <Gold.Chemscore.Internal.Correction.Weighted>
   9.000000E+99

> <Gold.Protein.RotatedTorsions>
[ 6907 6896 6895 6894 ] final   73.42 input  -60.11 | X-H torsion
[ 7974 7965 7964 7962 ] final  -53.27 input  175.53 | X-H torsion
[ 8008 7997 7996 7995 ] final  -45.04 input   59.86 | X-H torsion
[ 10167 10162 10161 10158 ] final  -17.69 input  -65.29 | X-H torsion
[ 10718 10713 10712 10709 ] final -108.78 input   66.30 | X-H torsion
[ 10763 10752 10751 10750 ] final   15.71 input  -60.55 | X-H torsion
[ 11005 11000 10999 10996 ] final  -71.15 input  -57.11 | X-H torsion

> <Gold.Protein.ActiveResidues>
 VAL166  LYS551  ARG553  GLY616  TRP617  ASP618  TYR619  PRO620  LYS621  CYS622 
 ASP623  PHE694  ASN695  SER759  ASP760  ASP761  ALA762  ILE779  LEU786  VAL792 
 PHE793  MET794  SER795  GLU796  ALA797  LYS798  CYS799  TRP800  GLU811  SER814 

> <Gold.Protein.RotatedAtoms>
  152.4922  134.4423  159.9547 H   0  0  0  0  0  0  0  0  0  0  0  0  # atno 6907 bound_to 6896
  151.4408  133.3638  159.2789 H   0  0  0  0  0  0  0  0  0  0  0  0  # atno 6908 bound_to 6896
  150.9089  134.8528  159.7471 H   0  0  0  0  0  0  0  0  0  0  0  0  # atno 6909 bound_to 6896
  145.8987  140.8012  142.9754 H   0  0  0  0  0  0  0  0  0  0  0  0  # atno 7974 bound_to 7965
  154.3999  140.1407  156.3782 H   0  0  0  0  0  0  0  0  0  0  0  0  # atno 8008 bound_to 7997
  155.8029  140.3475  155.5392 H   0  0  0  0  0  0  0  0  0  0  0  0  # atno 8009 bound_to 7997
  155.8465  140.0935  157.1692 H   0  0  0  0  0  0  0  0  0  0  0  0  # atno 8010 bound_to 7997
  140.7250  143.4990  150.9893 H   0  0  0  0  0  0  0  0  0  0  0  0  # atno 10167 bound_to 10162
  156.0503  130.5730  150.8009 H   0  0  0  0  0  0  0  0  0  0  0  0  # atno 10718 bound_to 10713
  153.1500  135.6776  153.8897 H   0  0  0  0  0  0  0  0  0  0  0  0  # atno 10763 bound_to 10752
  153.8327  135.3115  155.3421 H   0  0  0  0  0  0  0  0  0  0  0  0  # atno 10764 bound_to 10752
  154.7854  135.4865  154.0021 H   0  0  0  0  0  0  0  0  0  0  0  0  # atno 10765 bound_to 10752
  141.1587  133.6809  156.6862 H   0  0  0  0  0  0  0  0  0  0  0  0  # atno 11005 bound_to 11000
  144.6734  140.1642  143.7420 LP  0  0  0  0  0  0  0  0  0  0  0  0  # atno 17320 bound_to 7965
  145.8819  139.2327  143.1600 LP  0  0  0  0  0  0  0  0  0  0  0  0  # atno 17321 bound_to 7965
  139.8699  143.7206  152.3167 LP  0  0  0  0  0  0  0  0  0  0  0  0  # atno 17342 bound_to 10162
  139.7451  144.7549  151.0592 LP  0  0  0  0  0  0  0  0  0  0  0  0  # atno 17343 bound_to 10162
  157.5422  131.0941  150.9812 LP  0  0  0  0  0  0  0  0  0  0  0  0  # atno 17370 bound_to 10713
  157.0091  130.5630  149.5319 LP  0  0  0  0  0  0  0  0  0  0  0  0  # atno 17371 bound_to 10713
  140.3065  134.8121  157.4141 LP  0  0  0  0  0  0  0  0  0  0  0  0  # atno 17394 bound_to 11000
  140.1216  134.5212  155.8179 LP  0  0  0  0  0  0  0  0  0  0  0  0  # atno 17395 bound_to 11000

$$$$
