AV-unprocessed.smi:2886|AV-procd|sdf|11087|dock5
  -GOLD-   2272015563D 1   1.00000     0.00000
 Structure written by MMmdl.
 28 30  0  0  0  0  0  0  0  0  1 V2000
  147.2905  139.4588  153.0481 O   0  0  0  0  0  0  0  0  0  0  0  0
  148.3415  139.6355  153.6613 C   0  0  0  0  0  0  0  0  0  0  0  0
  149.3573  138.7431  153.5942 N   0  0  0  0  0  0  0  0  0  0  0  0
  150.5672  138.8305  154.2386 N   0  0  0  0  0  0  0  0  0  0  0  0
  150.7919  139.8570  154.9855 C   0  0  0  0  0  0  0  0  0  0  0  0
  149.8204  140.9302  155.1694 C   0  0  0  0  0  0  0  0  0  0  0  0
  150.0627  142.0360  155.9749 N   0  0  0  0  0  0  0  0  0  0  0  0
  151.2477  142.3541  156.7594 C   0  0  2  0  0  0  0  0  0  0  0  0
  151.5549  141.2891  157.8152 C   0  0  0  0  0  0  0  0  0  0  0  0
  151.5711  142.1213  159.1038 C   0  0  1  0  0  0  0  0  0  0  0  0
  152.7737  143.0733  159.1674 C   0  0  0  0  0  0  0  0  0  0  0  0
  152.3806  144.1431  158.1486 C   0  0  0  0  0  0  0  0  0  0  0  0
  151.0406  143.6058  157.6281 C   0  0  2  0  0  0  0  0  0  0  0  0
  150.5271  143.0365  158.8218 O   0  0  0  0  0  0  0  0  0  0  0  0
  148.6317  140.7934  154.5183 C   0  0  0  0  0  0  0  0  0  0  0  0
  147.4006  142.0018  154.6733 Cl  0  0  0  0  0  0  0  0  0  0  0  0
  149.2490  137.9146  153.0271 H   0  0  0  0  0  0  0  0  0  0  0  0
  151.7333  139.9618  155.5236 H   0  0  0  0  0  0  0  0  0  0  0  0
  149.3855  142.7843  155.9250 H   0  0  0  0  0  0  0  0  0  0  0  0
  152.1000  142.5162  156.1004 H   0  0  0  0  0  0  0  0  0  0  0  0
  150.7691  140.5335  157.8631 H   0  0  0  0  0  0  0  0  0  0  0  0
  152.5024  140.7803  157.6350 H   0  0  0  0  0  0  0  0  0  0  0  0
  151.4216  141.5348  160.0106 H   0  0  0  0  0  0  0  0  0  0  0  0
  152.8729  143.5107  160.1615 H   0  0  0  0  0  0  0  0  0  0  0  0
  153.7103  142.5735  158.9181 H   0  0  0  0  0  0  0  0  0  0  0  0
  152.2448  145.1068  158.6408 H   0  0  0  0  0  0  0  0  0  0  0  0
  153.1184  144.2665  157.3554 H   0  0  0  0  0  0  0  0  0  0  0  0
  150.4077  144.3715  157.1781 H   0  0  0  0  0  0  0  0  0  0  0  0
  1  2  2  0  0  0  0
  2 15  1  0  0  0  0
  2  3  1  0  0  0  0
  3 17  1  0  0  0  0
  3  4  1  0  0  0  0
  4  5  2  0  0  0  0
  5  6  1  0  0  0  0
  5 18  1  0  0  0  0
  6  7  1  0  0  0  0
  6 15  2  0  0  0  0
  7  8  1  0  0  0  0
  7 19  1  0  0  0  0
  8 13  1  0  0  0  0
  8  9  1  0  0  0  0
  8 20  1  0  0  0  0
  9 10  1  0  0  0  0
  9 21  1  0  0  0  0
  9 22  1  0  0  0  0
 10 14  1  0  0  0  0
 10 11  1  0  0  0  0
 10 23  1  0  0  0  0
 11 12  1  0  0  0  0
 11 24  1  0  0  0  0
 11 25  1  0  0  0  0
 12 13  1  0  0  0  0
 12 26  1  0  0  0  0
 12 27  1  0  0  0  0
 13 14  1  0  0  0  0
 13 28  1  0  0  0  0
 15 16  1  0  0  0  0
M  END
> <s_m_source_file>
AV-unprocessed.smi

> <i_m_source_file_index>
2886

> <i_lp_mmshare_version>
43012

> <i_f3d_flags>
0

> <s_epik_input>
Tz1jMVtuSF1uW2NIXWMoYzFDbClbTkhdW0NASF0oW0NIMl1bQ0BASF0yMylbQ0BASF0oTzMpW0NIMl1bQ0gyXTI=

> <s_epik_cmdline>
J2VwaWtfcHl0aG9uJywgJy1waCcsICc3LjAnLCAnLXRuJywgJzgnLCAnLW1hJywgJzIwMCcsICctbWV0YWxfYmluZGluZycsICctaW1hZScsICc8aW5maWxlLm1hZT4nLCAnLW9tYWUnLCAnPG91dGZpbGUubWFlPic=

> <r_lp_tautomer_probability>
0.986175

> <r_epik_Ionization_Penalty>
0.000975594

> <r_epik_Ionization_Penalty_Charging>
0.000940184

> <r_epik_Ionization_Penalty_Neutral>
3.54099e-05

> <r_epik_State_Penalty>
0.00620319

> <r_epik_Charging_Adjusted_Penalty>
0.00714337

> <i_epik_Tot_Q>
0

> <i_epik_Tot_abs_Q>
0

> <r_epik_Metal_State_Penalty>
0.287699

> <b_epik_Metal_Only>
0

> <s_lp_Force_Field>
OPLS_2005

> <r_lp_Energy>
54.6963

> <b_lp_Chiralities_Consistent>
1

> <s_lp_Variant>
AV-unprocessed.smi:2886-1

> <Gold.Version>
5.8.1

> <Gold.Id.Protein>
6NUR|6NUR_protein|mol2

> <Gold.PLP.Fitness>
37.2318

> <Gold.PLP.PLP>
-31.2770

> <Gold.PLP.part.hbond>
-2.9514

> <Gold.PLP.part.metal>
0.0000

> <Gold.PLP.part.buried>
-0.4254

> <Gold.PLP.part.nonpolar>
-28.5783

> <Gold.PLP.part.repulsive>
0.9478

> <Gold.PLP.ligand.clash>
0.0000

> <Gold.PLP.ligand.torsion>
0.0193

> <Gold.PLP.Chemscore.Hbond>
1.9913

> <Gold.PLP.Chemscore.CHOScore>
0.0000

> <Gold.PLP.Chemscore.Metal>
0.0000

> <Gold.Chemscore.Hbonds>
donor molecule, donor type, donor heavy atom, donor atom, acceptor molecule, acceptor atom, score
      L1  H     3    17       P1  7948  0.99
      L1  H     7    19       P1  8028  1.00

> <Gold.PLP.Chemscore.Internal.Correction>
0.0196

> <Gold.Rescore>
     Score         DG    S(hbond)    S(metal)    S(lipo)     H(rot)  DE(clash)    DE(int)     intcor
     18.64     -18.82       1.66        0.00      88.42       1.00       0.17       0.02       ----

> <Gold.Chemscore.Fitness>
18.6365

> <Gold.Chemscore.DG>
-18.8236

> <Gold.Chemscore.ZeroCoef>
-5.4800

> <Gold.Chemscore.Hbond>
1.6642

> <Gold.Chemscore.Metal>
0.0000

> <Gold.Chemscore.Lipo>
88.4199

> <Gold.Chemscore.Internal_Hbond>
0.0000

> <Gold.Chemscore.DEClash>
0.1711

> <Gold.Chemscore.DEInternal>
0.0160

> <Gold.Chemscore.Rot>
1.0000

> <Gold.Chemscore.Internal.Correction>
   9.000000E+99

> <Gold.Chemscore.Hbonds>
donor molecule, donor type, donor heavy atom, donor atom, acceptor molecule, acceptor atom, score
      L1  H     3    17       P1  7948  0.90
      L1  H     7    19       P1  8028  0.91

> <Gold.Chemscore.Hbond.Weighted>
-5.5585

> <Gold.Chemscore.Metal.Weighted>
-0.0000

> <Gold.Chemscore.Lipo.Weighted>
-10.3451

> <Gold.Chemscore.Internal_Hbond.Weighted>
0.0000

> <Gold.Chemscore.DEClash.Weighted>
0.1711

> <Gold.Chemscore.DEInternal.Weighted>
0.0160

> <Gold.Chemscore.Rot.Weighted>
2.5600

> <Gold.Chemscore.Internal.Correction.Weighted>
   9.000000E+99

> <Gold.Protein.RotatedTorsions>
[ 6907 6896 6895 6894 ] final  117.69 input  -60.11 | X-H torsion
[ 7974 7965 7964 7962 ] final  141.12 input  175.53 | X-H torsion
[ 8008 7997 7996 7995 ] final  -20.51 input   59.86 | X-H torsion
[ 10167 10162 10161 10158 ] final    9.10 input  -65.29 | X-H torsion
[ 10718 10713 10712 10709 ] final  -68.88 input   66.30 | X-H torsion
[ 10763 10752 10751 10750 ] final    0.79 input  -60.55 | X-H torsion
[ 11005 11000 10999 10996 ] final -172.41 input  -57.11 | X-H torsion

> <Gold.Protein.ActiveResidues>
 VAL166  LYS551  ARG553  GLY616  TRP617  ASP618  TYR619  PRO620  LYS621  CYS622 
 ASP623  PHE694  ASN695  SER759  ASP760  ASP761  ALA762  ILE779  LEU786  VAL792 
 PHE793  MET794  SER795  GLU796  ALA797  LYS798  CYS799  TRP800  GLU811  SER814 

> <Gold.Protein.RotatedAtoms>
  152.4594  133.7791  159.6840 H   0  0  0  0  0  0  0  0  0  0  0  0  # atno 6907 bound_to 6896
  150.8533  133.7744  159.3024 H   0  0  0  0  0  0  0  0  0  0  0  0  # atno 6908 bound_to 6896
  151.5333  135.1071  159.9960 H   0  0  0  0  0  0  0  0  0  0  0  0  # atno 6909 bound_to 6896
  144.9125  139.5274  143.5702 H   0  0  0  0  0  0  0  0  0  0  0  0  # atno 7974 bound_to 7965
  154.4765  140.2060  155.9866 H   0  0  0  0  0  0  0  0  0  0  0  0  # atno 8008 bound_to 7997
  156.1097  140.3231  155.8025 H   0  0  0  0  0  0  0  0  0  0  0  0  # atno 8009 bound_to 7997
  155.4656  140.0527  157.2976 H   0  0  0  0  0  0  0  0  0  0  0  0  # atno 8010 bound_to 7997
  140.6275  143.8068  150.7252 H   0  0  0  0  0  0  0  0  0  0  0  0  # atno 10167 bound_to 10162
  156.0483  130.4302  150.2066 H   0  0  0  0  0  0  0  0  0  0  0  0  # atno 10718 bound_to 10713
  153.3162  135.6966  153.7071 H   0  0  0  0  0  0  0  0  0  0  0  0  # atno 10763 bound_to 10752
  153.5929  135.3476  155.2918 H   0  0  0  0  0  0  0  0  0  0  0  0  # atno 10764 bound_to 10752
  154.8587  135.4322  154.2314 H   0  0  0  0  0  0  0  0  0  0  0  0  # atno 10765 bound_to 10752
  140.4973  134.5927  157.4976 H   0  0  0  0  0  0  0  0  0  0  0  0  # atno 11005 bound_to 11000
  146.3165  139.7942  142.8979 LP  0  0  0  0  0  0  0  0  0  0  0  0  # atno 17320 bound_to 7965
  145.3431  141.0292  143.3381 LP  0  0  0  0  0  0  0  0  0  0  0  0  # atno 17321 bound_to 7965
  140.1672  143.4225  152.2026 LP  0  0  0  0  0  0  0  0  0  0  0  0  # atno 17342 bound_to 10162
  139.5493  144.7325  151.4484 LP  0  0  0  0  0  0  0  0  0  0  0  0  # atno 17343 bound_to 10162
  157.0153  130.9963  151.3355 LP  0  0  0  0  0  0  0  0  0  0  0  0  # atno 17370 bound_to 10713
  157.5382  130.8102  149.7997 LP  0  0  0  0  0  0  0  0  0  0  0  0  # atno 17371 bound_to 10713
  139.9734  134.7256  155.9997 LP  0  0  0  0  0  0  0  0  0  0  0  0  # atno 17394 bound_to 11000
  141.1453  133.6557  156.3850 LP  0  0  0  0  0  0  0  0  0  0  0  0  # atno 17395 bound_to 11000

$$$$
