AV-unprocessed.smi:1323|AV-procd|sdf|5466|dock5
  -GOLD-   22720 5 33D 1   1.00000     0.00000
 Structure written by MMmdl.
 45 46  0  0  0  0  0  0  0  0  1 V2000
  153.9351  141.4883  160.5332 C   0  0  0  0  0  0  0  0  0  0  0  0
  152.6836  142.2139  160.0140 C   0  0  1  0  0  0  0  0  0  0  0  0
  153.0511  143.4351  159.1442 C   0  0  0  0  0  0  0  0  0  0  0  0
  151.7981  144.1836  158.6611 C   0  0  0  0  0  0  0  0  0  0  0  0
  150.8253  143.2436  157.9316 C   0  0  0  0  0  0  0  0  0  0  0  0
  150.4676  142.0279  158.8002 C   0  0  0  0  0  0  0  0  0  0  0  0
  151.7319  141.2640  159.2520 C   0  0  1  0  0  0  0  0  0  0  0  0
  152.4638  140.7370  158.1517 O   0  0  0  0  0  0  0  0  0  0  0  0
  151.8637  139.6657  157.4411 C   0  0  0  0  0  0  0  0  0  0  0  0
  152.1835  138.3520  158.1715 C   0  0  0  0  0  0  0  0  0  0  0  0
  150.9904  137.5284  158.3499 N   0  0  0  0  0  0  0  0  0  0  0  0
  150.7447  136.7524  159.4178 C   0  0  0  0  0  0  0  0  0  0  0  0
  151.4978  136.6860  160.3903 O   0  0  0  0  0  0  0  0  0  0  0  0
  149.4398  135.9454  159.3934 C   0  0  0  0  0  0  0  0  0  0  0  0
  149.3946  134.9266  160.4554 N   0  0  0  0  0  0  0  0  0  0  0  0
  149.5650  133.5830  160.0651 C   0  0  0  0  0  0  0  0  0  0  0  0
  149.5097  132.5743  160.9491 C   0  0  0  0  0  0  0  0  0  0  0  0
  149.2661  132.8944  162.3357 C   0  0  0  0  0  0  0  0  0  0  0  0
  149.1055  134.1763  162.7203 C   0  0  0  0  0  0  0  0  0  0  0  0
  149.1735  135.2823  161.7584 C   0  0  0  0  0  0  0  0  0  0  0  0
  149.0402  136.4561  162.1040 O   0  0  0  0  0  0  0  0  0  0  0  0
  154.5494  141.1127  159.7141 H   0  0  0  0  0  0  0  0  0  0  0  0
  153.6644  140.6404  161.1628 H   0  0  0  0  0  0  0  0  0  0  0  0
  154.5550  142.1573  161.1305 H   0  0  0  0  0  0  0  0  0  0  0  0
  152.1469  142.5836  160.8890 H   0  0  0  0  0  0  0  0  0  0  0  0
  153.6866  144.1185  159.7083 H   0  0  0  0  0  0  0  0  0  0  0  0
  153.6384  143.1147  158.2824 H   0  0  0  0  0  0  0  0  0  0  0  0
  151.2938  144.6363  159.5158 H   0  0  0  0  0  0  0  0  0  0  0  0
  152.0859  145.0039  158.0029 H   0  0  0  0  0  0  0  0  0  0  0  0
  149.9202  143.7861  157.6578 H   0  0  0  0  0  0  0  0  0  0  0  0
  151.2724  142.8991  156.9992 H   0  0  0  0  0  0  0  0  0  0  0  0
  149.9222  142.3677  159.6815 H   0  0  0  0  0  0  0  0  0  0  0  0
  149.7794  141.3733  158.2667 H   0  0  0  0  0  0  0  0  0  0  0  0
  151.4436  140.4433  159.9108 H   0  0  0  0  0  0  0  0  0  0  0  0
  150.7831  139.8072  157.3944 H   0  0  0  0  0  0  0  0  0  0  0  0
  152.2367  139.6186  156.4181 H   0  0  0  0  0  0  0  0  0  0  0  0
  152.9589  137.7988  157.6388 H   0  0  0  0  0  0  0  0  0  0  0  0
  152.5887  138.5738  159.1588 H   0  0  0  0  0  0  0  0  0  0  0  0
  150.3162  137.5311  157.5983 H   0  0  0  0  0  0  0  0  0  0  0  0
  148.6071  136.6418  159.5011 H   0  0  0  0  0  0  0  0  0  0  0  0
  149.3029  135.4864  158.4123 H   0  0  0  0  0  0  0  0  0  0  0  0
  149.7321  133.4292  159.0089 H   0  0  0  0  0  0  0  0  0  0  0  0
  149.6369  131.5500  160.6306 H   0  0  0  0  0  0  0  0  0  0  0  0
  149.2094  132.1024  163.0679 H   0  0  0  0  0  0  0  0  0  0  0  0
  148.9212  134.3970  163.7615 H   0  0  0  0  0  0  0  0  0  0  0  0
  1  2  1  0  0  0  0
  1 22  1  0  0  0  0
  1 23  1  0  0  0  0
  1 24  1  0  0  0  0
  2  7  1  0  0  0  0
  2  3  1  0  0  0  0
  2 25  1  0  0  0  0
  3  4  1  0  0  0  0
  3 26  1  0  0  0  0
  3 27  1  0  0  0  0
  4  5  1  0  0  0  0
  4 28  1  0  0  0  0
  4 29  1  0  0  0  0
  5  6  1  0  0  0  0
  5 30  1  0  0  0  0
  5 31  1  0  0  0  0
  6  7  1  0  0  0  0
  6 32  1  0  0  0  0
  6 33  1  0  0  0  0
  7  8  1  0  0  0  0
  7 34  1  0  0  0  0
  8  9  1  0  0  0  0
  9 10  1  0  0  0  0
  9 35  1  0  0  0  0
  9 36  1  0  0  0  0
 10 11  1  0  0  0  0
 10 37  1  0  0  0  0
 10 38  1  0  0  0  0
 11 12  1  0  0  0  0
 11 39  1  0  0  0  0
 12 13  2  0  0  0  0
 12 14  1  0  0  0  0
 14 15  1  0  0  0  0
 14 40  1  0  0  0  0
 14 41  1  0  0  0  0
 15 20  1  0  0  0  0
 15 16  1  0  0  0  0
 16 17  2  0  0  0  0
 16 42  1  0  0  0  0
 17 18  1  0  0  0  0
 17 43  1  0  0  0  0
 18 19  2  0  0  0  0
 18 44  1  0  0  0  0
 19 20  1  0  0  0  0
 19 45  1  0  0  0  0
 20 21  2  0  0  0  0
M  END
> <s_m_source_file>
AV-unprocessed.smi

> <i_m_source_file_index>
1323

> <i_lp_mmshare_version>
43012

> <i_f3d_flags>
0

> <s_epik_input>
W0NIM11bQ0BASF0xW0NIMl1bQ0gyXVtDSDJdW0NIMl1bQ0BIXTFPW0NIMl1bQ0gyXVtOSF1DKD1PKVtDSDJdbjJbY0hdW2NIXVtjSF1bY0hdYzI9Tw==

> <s_epik_cmdline>
J2VwaWtfcHl0aG9uJywgJy1waCcsICc3LjAnLCAnLXRuJywgJzgnLCAnLW1hJywgJzIwMCcsICctbWV0YWxfYmluZGluZycsICctaW1hZScsICc8aW5maWxlLm1hZT4nLCAnLW9tYWUnLCAnPG91dGZpbGUubWFlPic=

> <r_lp_tautomer_probability>
1

> <r_epik_Ionization_Penalty>
4.02412e-07

> <r_epik_Ionization_Penalty_Charging>
3.74552e-07

> <r_epik_Ionization_Penalty_Neutral>
2.78599e-08

> <r_epik_State_Penalty>
-0

> <r_epik_Charging_Adjusted_Penalty>
3.74552e-07

> <i_epik_Tot_Q>
0

> <i_epik_Tot_abs_Q>
0

> <r_epik_Metal_State_Penalty>
-0

> <b_epik_Metal_Only>
0

> <s_lp_Force_Field>
OPLS_2005

> <r_lp_Energy>
18.6453

> <b_lp_Chiralities_Consistent>
1

> <s_lp_Variant>
AV-unprocessed.smi:1323-2

> <Gold.Version>
5.8.1

> <Gold.Id.Protein>
6NUR|6NUR_protein|mol2

> <Gold.PLP.Fitness>
50.6423

> <Gold.PLP.PLP>
-44.2903

> <Gold.PLP.part.hbond>
-4.0979

> <Gold.PLP.part.metal>
0.0000

> <Gold.PLP.part.buried>
-3.4799

> <Gold.PLP.part.nonpolar>
-38.1167

> <Gold.PLP.part.repulsive>
0.0935

> <Gold.PLP.ligand.clash>
0.0000

> <Gold.PLP.ligand.torsion>
1.0043

> <Gold.PLP.Chemscore.Hbond>
2.7520

> <Gold.PLP.Chemscore.CHOScore>
0.0000

> <Gold.PLP.Chemscore.Metal>
0.0000

> <Gold.Chemscore.Hbonds>
donor molecule, donor type, donor heavy atom, donor atom, acceptor molecule, acceptor atom, score
      P1  H  6931  6943       L1    21  1.00

> <Gold.PLP.Chemscore.Internal.Correction>
0.1048

> <Gold.Rescore>
     Score         DG    S(hbond)    S(metal)    S(lipo)     H(rot)  DE(clash)    DE(int)     intcor
     21.10     -21.96       2.75        0.00     104.87       1.94       0.00       0.86       ----

> <Gold.Chemscore.Fitness>
21.0981

> <Gold.Chemscore.DG>
-21.9601

> <Gold.Chemscore.ZeroCoef>
-5.4800

> <Gold.Chemscore.Hbond>
2.7475

> <Gold.Chemscore.Metal>
0.0000

> <Gold.Chemscore.Lipo>
104.8672

> <Gold.Chemscore.Internal_Hbond>
0.0000

> <Gold.Chemscore.DEClash>
0.0009

> <Gold.Chemscore.DEInternal>
0.8611

> <Gold.Chemscore.Rot>
1.9398

> <Gold.Chemscore.Internal.Correction>
   9.000000E+99

> <Gold.Chemscore.Hbonds>
donor molecule, donor type, donor heavy atom, donor atom, acceptor molecule, acceptor atom, score
      P1  H  6931  6943       L1    21  0.99

> <Gold.Chemscore.Hbond.Weighted>
-9.1766

> <Gold.Chemscore.Metal.Weighted>
-0.0000

> <Gold.Chemscore.Lipo.Weighted>
-12.2695

> <Gold.Chemscore.Internal_Hbond.Weighted>
0.0000

> <Gold.Chemscore.DEClash.Weighted>
0.0009

> <Gold.Chemscore.DEInternal.Weighted>
0.8611

> <Gold.Chemscore.Rot.Weighted>
4.9659

> <Gold.Chemscore.Internal.Correction.Weighted>
   9.000000E+99

> <Gold.Protein.RotatedTorsions>
[ 6907 6896 6895 6894 ] final   97.78 input  -60.11 | X-H torsion
[ 7974 7965 7964 7962 ] final  154.14 input  175.53 | X-H torsion
[ 8008 7997 7996 7995 ] final   47.81 input   59.86 | X-H torsion
[ 10167 10162 10161 10158 ] final  108.56 input  -65.29 | X-H torsion
[ 10718 10713 10712 10709 ] final  168.57 input   66.30 | X-H torsion
[ 10763 10752 10751 10750 ] final  125.48 input  -60.55 | X-H torsion
[ 11005 11000 10999 10996 ] final   -0.34 input  -57.11 | X-H torsion

> <Gold.Protein.ActiveResidues>
 VAL166  LYS551  ARG553  GLY616  TRP617  ASP618  TYR619  PRO620  LYS621  CYS622 
 ASP623  PHE694  ASN695  SER759  ASP760  ASP761  ALA762  ILE779  LEU786  VAL792 
 PHE793  MET794  SER795  GLU796  ALA797  LYS798  CYS799  TRP800  GLU811  SER814 

> <Gold.Protein.RotatedAtoms>
  152.5419  134.0681  159.8181 H   0  0  0  0  0  0  0  0  0  0  0  0  # atno 6907 bound_to 6896
  151.0799  133.5391  159.2628 H   0  0  0  0  0  0  0  0  0  0  0  0  # atno 6908 bound_to 6896
  151.2222  135.0531  159.9008 H   0  0  0  0  0  0  0  0  0  0  0  0  # atno 6909 bound_to 6896
  144.8108  139.6894  143.6142 H   0  0  0  0  0  0  0  0  0  0  0  0  # atno 7974 bound_to 7965
  155.3753  140.3426  155.4244 H   0  0  0  0  0  0  0  0  0  0  0  0  # atno 8008 bound_to 7997
  156.1640  140.1610  156.8597 H   0  0  0  0  0  0  0  0  0  0  0  0  # atno 8009 bound_to 7997
  154.5167  140.0776  156.8077 H   0  0  0  0  0  0  0  0  0  0  0  0  # atno 8010 bound_to 7997
  139.6836  144.7116  151.1471 H   0  0  0  0  0  0  0  0  0  0  0  0  # atno 10167 bound_to 10162
  157.0353  131.0271  151.2731 H   0  0  0  0  0  0  0  0  0  0  0  0  # atno 10718 bound_to 10713
  153.6781  135.3319  155.3171 H   0  0  0  0  0  0  0  0  0  0  0  0  # atno 10763 bound_to 10752
  154.8473  135.4402  154.1635 H   0  0  0  0  0  0  0  0  0  0  0  0  # atno 10764 bound_to 10752
  153.2644  135.6994  153.7621 H   0  0  0  0  0  0  0  0  0  0  0  0  # atno 10765 bound_to 10752
  140.6352  133.9539  155.8296 H   0  0  0  0  0  0  0  0  0  0  0  0  # atno 11005 bound_to 11000
  146.2406  139.5994  142.9494 LP  0  0  0  0  0  0  0  0  0  0  0  0  # atno 17320 bound_to 7965
  145.5328  141.0426  143.2373 LP  0  0  0  0  0  0  0  0  0  0  0  0  # atno 17321 bound_to 7965
  140.7660  143.5662  150.9045 LP  0  0  0  0  0  0  0  0  0  0  0  0  # atno 17342 bound_to 10162
  139.9335  143.6465  152.3070 LP  0  0  0  0  0  0  0  0  0  0  0  0  # atno 17343 bound_to 10162
  157.5147  130.7960  149.7743 LP  0  0  0  0  0  0  0  0  0  0  0  0  # atno 17370 bound_to 10713
  156.0056  130.3857  150.2444 LP  0  0  0  0  0  0  0  0  0  0  0  0  # atno 17371 bound_to 10713
  141.0646  134.0295  157.3611 LP  0  0  0  0  0  0  0  0  0  0  0  0  # atno 17394 bound_to 11000
  139.9101  135.0188  156.7654 LP  0  0  0  0  0  0  0  0  0  0  0  0  # atno 17395 bound_to 11000

$$$$
