AV-unprocessed.smi:755|AV-procd|sdf|3611|dock6
  -GOLD-   22720 1 03D 1   1.00000     0.00000
 Structure written by MMmdl.
 33 34  0  0  0  0  0  0  0  0  1 V2000
  152.7295  139.5961  155.3450 O   0  0  0  0  0  0  0  0  0  0  0  0
  151.5239  139.6487  155.5861 C   0  0  0  0  0  0  0  0  0  0  0  0
  150.5113  139.2546  154.5087 C   0  0  0  0  0  0  0  0  0  0  0  0
  149.2736  140.0038  154.6397 N   0  0  0  0  0  0  0  0  0  0  0  0
  148.0585  139.5652  155.1309 C   0  0  0  0  0  0  0  0  0  0  0  0
  147.2234  140.6366  155.0421 C   0  0  0  0  0  0  0  0  0  0  0  0
  145.5638  140.6937  155.5079 Cl  0  0  0  0  0  0  0  0  0  0  0  0
  147.9874  141.6962  154.4906 C   0  0  0  0  0  0  0  0  0  0  0  0
  149.2300  141.3041  154.2488 N   0  0  0  0  0  0  0  0  0  0  0  0
  151.0228  140.0316  156.7716 N   0  0  0  0  0  0  0  0  0  0  0  0
  151.8129  140.4182  157.9383 C   0  0  0  0  0  0  0  0  0  0  0  0
  151.5799  141.8772  158.3708 C   0  0  0  0  0  0  0  0  0  0  0  0
  150.8907  142.6233  157.6726 O   0  0  0  0  0  0  0  0  0  0  0  0
  152.1602  142.3019  159.5124 N   0  0  0  0  0  0  0  0  0  0  0  0
  152.0547  143.6477  160.0757 C   0  0  0  0  0  0  0  0  0  0  0  0
  152.6740  143.5621  161.4711 C   0  0  0  0  0  0  0  0  0  0  0  0
  153.6401  142.3890  161.3797 C   0  0  0  0  0  0  0  0  0  0  0  0
  152.9916  141.4510  160.3614 C   0  0  0  0  0  0  0  0  0  0  0  0
  150.9278  139.4416  153.5179 H   0  0  0  0  0  0  0  0  0  0  0  0
  150.3026  138.1855  154.5728 H   0  0  0  0  0  0  0  0  0  0  0  0
  147.9012  138.5581  155.4882 H   0  0  0  0  0  0  0  0  0  0  0  0
  147.6914  142.7096  154.2631 H   0  0  0  0  0  0  0  0  0  0  0  0
  150.0187  140.0386  156.8790 H   0  0  0  0  0  0  0  0  0  0  0  0
  151.6048  139.7421  158.7692 H   0  0  0  0  0  0  0  0  0  0  0  0
  152.8659  140.2926  157.6860 H   0  0  0  0  0  0  0  0  0  0  0  0
  152.6208  144.3405  159.4514 H   0  0  0  0  0  0  0  0  0  0  0  0
  151.0228  143.9978  160.1262 H   0  0  0  0  0  0  0  0  0  0  0  0
  153.1608  144.4891  161.7753 H   0  0  0  0  0  0  0  0  0  0  0  0
  151.8971  143.3368  162.2030 H   0  0  0  0  0  0  0  0  0  0  0  0
  154.6003  142.7373  160.9965 H   0  0  0  0  0  0  0  0  0  0  0  0
  153.8183  141.9103  162.3430 H   0  0  0  0  0  0  0  0  0  0  0  0
  152.3536  140.7226  160.8642 H   0  0  0  0  0  0  0  0  0  0  0  0
  153.7436  140.9054  159.7890 H   0  0  0  0  0  0  0  0  0  0  0  0
  1  2  2  0  0  0  0
  2  3  1  0  0  0  0
  2 10  1  0  0  0  0
  3  4  1  0  0  0  0
  3 19  1  0  0  0  0
  3 20  1  0  0  0  0
  4  9  1  0  0  0  0
  4  5  1  0  0  0  0
  5  6  2  0  0  0  0
  5 21  1  0  0  0  0
  6  7  1  0  0  0  0
  6  8  1  0  0  0  0
  8  9  2  0  0  0  0
  8 22  1  0  0  0  0
 10 11  1  0  0  0  0
 10 23  1  0  0  0  0
 11 12  1  0  0  0  0
 11 24  1  0  0  0  0
 11 25  1  0  0  0  0
 12 13  2  0  0  0  0
 12 14  1  0  0  0  0
 14 18  1  0  0  0  0
 14 15  1  0  0  0  0
 15 16  1  0  0  0  0
 15 26  1  0  0  0  0
 15 27  1  0  0  0  0
 16 17  1  0  0  0  0
 16 28  1  0  0  0  0
 16 29  1  0  0  0  0
 17 18  1  0  0  0  0
 17 30  1  0  0  0  0
 17 31  1  0  0  0  0
 18 32  1  0  0  0  0
 18 33  1  0  0  0  0
M  END
> <s_m_source_file>
AV-unprocessed.smi

> <i_m_source_file_index>
755

> <i_lp_mmshare_version>
43012

> <i_f3d_flags>
0

> <s_epik_input>
bjFbY0hdYyhDbClbY0hdbjFbQ0gyXUMoPU8pW05IXVtDSDJdQyg9TylOMltDSDJdW0NIMl1bQ0gyXVtDSDJdMg==

> <s_epik_cmdline>
J2VwaWtfcHl0aG9uJywgJy1waCcsICc3LjAnLCAnLXRuJywgJzgnLCAnLW1hJywgJzIwMCcsICctbWV0YWxfYmluZGluZycsICctaW1hZScsICc8aW5maWxlLm1hZT4nLCAnLW9tYWUnLCAnPG91dGZpbGUubWFlPic=

> <r_lp_tautomer_probability>
1

> <r_epik_Ionization_Penalty>
4.35059e-07

> <r_epik_Ionization_Penalty_Charging>
0

> <r_epik_Ionization_Penalty_Neutral>
4.35059e-07

> <r_epik_State_Penalty>
-0

> <r_epik_Charging_Adjusted_Penalty>
0

> <i_epik_Tot_Q>
0

> <i_epik_Tot_abs_Q>
0

> <r_epik_Metal_State_Penalty>
-0

> <b_epik_Metal_Only>
0

> <s_lp_Force_Field>
OPLS_2005

> <r_lp_Energy>
27.1331

> <b_lp_Chiralities_Consistent>
1

> <s_lp_Variant>
AV-unprocessed.smi:755-1

> <Gold.Version>
5.8.1

> <Gold.Id.Protein>
6NUR|6NUR_protein|mol2

> <Gold.PLP.Fitness>
44.0688

> <Gold.PLP.PLP>
-38.2304

> <Gold.PLP.part.hbond>
-3.3121

> <Gold.PLP.part.metal>
0.0000

> <Gold.PLP.part.buried>
-2.1882

> <Gold.PLP.part.nonpolar>
-32.5468

> <Gold.PLP.part.repulsive>
0.3750

> <Gold.PLP.ligand.clash>
0.0000

> <Gold.PLP.ligand.torsion>
0.6121

> <Gold.PLP.Chemscore.Hbond>
1.6141

> <Gold.PLP.Chemscore.CHOScore>
0.7392

> <Gold.PLP.Chemscore.Metal>
0.0000

> <Gold.Chemscore.Hbonds>
donor molecule, donor type, donor heavy atom, donor atom, acceptor molecule, acceptor atom, score
      P1  H  7997  8008       L1     1  1.00
      P1  H  8011  8017       L1     9  0.26
      L1  C     8    22       P1  8028  0.48

> <Gold.PLP.Chemscore.Internal.Correction>
0.0027

> <Gold.Rescore>
     Score         DG    S(hbond)    S(metal)    S(lipo)     H(rot)  DE(clash)    DE(int)     intcor
     13.61     -14.65       1.48        0.00      75.63       1.80       0.30       0.74       ----

> <Gold.Chemscore.Fitness>
13.6107

> <Gold.Chemscore.DG>
-14.6531

> <Gold.Chemscore.ZeroCoef>
-5.4800

> <Gold.Chemscore.Hbond>
1.4757

> <Gold.Chemscore.Metal>
0.0000

> <Gold.Chemscore.Lipo>
75.6334

> <Gold.Chemscore.Internal_Hbond>
0.0000

> <Gold.Chemscore.DEClash>
0.2986

> <Gold.Chemscore.DEInternal>
0.7438

> <Gold.Chemscore.Rot>
1.7988

> <Gold.Chemscore.Internal.Correction>
   9.000000E+99

> <Gold.Chemscore.Hbonds>
donor molecule, donor type, donor heavy atom, donor atom, acceptor molecule, acceptor atom, score
      P1  H  7997  8008       L1     1  1.00
      P1  H  8011  8017       L1     9  0.12

> <Gold.Chemscore.Hbond.Weighted>
-4.9288

> <Gold.Chemscore.Metal.Weighted>
-0.0000

> <Gold.Chemscore.Lipo.Weighted>
-8.8491

> <Gold.Chemscore.Internal_Hbond.Weighted>
0.0000

> <Gold.Chemscore.DEClash.Weighted>
0.2986

> <Gold.Chemscore.DEInternal.Weighted>
0.7438

> <Gold.Chemscore.Rot.Weighted>
4.6048

> <Gold.Chemscore.Internal.Correction.Weighted>
   9.000000E+99

> <Gold.Protein.RotatedTorsions>
[ 6907 6896 6895 6894 ] final   86.20 input  -60.11 | X-H torsion
[ 7974 7965 7964 7962 ] final   58.31 input  175.53 | X-H torsion
[ 8008 7997 7996 7995 ] final  -28.24 input   59.86 | X-H torsion
[ 10167 10162 10161 10158 ] final -156.06 input  -65.29 | X-H torsion
[ 10718 10713 10712 10709 ] final -102.81 input   66.30 | X-H torsion
[ 10763 10752 10751 10750 ] final  112.79 input  -60.55 | X-H torsion
[ 11005 11000 10999 10996 ] final -154.36 input  -57.11 | X-H torsion

> <Gold.Protein.ActiveResidues>
 VAL166  LYS551  ARG553  GLY616  TRP617  ASP618  TYR619  PRO620  LYS621  CYS622 
 ASP623  PHE694  ASN695  SER759  ASP760  ASP761  ALA762  ILE779  LEU786  VAL792 
 PHE793  MET794  SER795  GLU796  ALA797  LYS798  CYS799  TRP800  GLU811  SER814 

> <Gold.Protein.RotatedAtoms>
  152.5390  134.2468  159.8883 H   0  0  0  0  0  0  0  0  0  0  0  0  # atno 6907 bound_to 6896
  151.2433  133.4381  159.2616 H   0  0  0  0  0  0  0  0  0  0  0  0  # atno 6908 bound_to 6896
  151.0606  134.9748  159.8315 H   0  0  0  0  0  0  0  0  0  0  0  0  # atno 6909 bound_to 6896
  145.9195  139.3718  143.0487 H   0  0  0  0  0  0  0  0  0  0  0  0  # atno 7974 bound_to 7965
  154.4341  140.1850  156.1058 H   0  0  0  0  0  0  0  0  0  0  0  0  # atno 8008 bound_to 7997
  156.0256  140.3336  155.7059 H   0  0  0  0  0  0  0  0  0  0  0  0  # atno 8009 bound_to 7997
  155.5913  140.0631  157.2748 H   0  0  0  0  0  0  0  0  0  0  0  0  # atno 8010 bound_to 7997
  139.6881  143.9467  152.2371 H   0  0  0  0  0  0  0  0  0  0  0  0  # atno 10167 bound_to 10162
  156.0242  130.5437  150.7162 H   0  0  0  0  0  0  0  0  0  0  0  0  # atno 10718 bound_to 10713
  153.4830  135.3675  155.2452 H   0  0  0  0  0  0  0  0  0  0  0  0  # atno 10763 bound_to 10752
  154.8754  135.3959  154.3678 H   0  0  0  0  0  0  0  0  0  0  0  0  # atno 10764 bound_to 10752
  153.4285  135.7082  153.6312 H   0  0  0  0  0  0  0  0  0  0  0  0  # atno 10765 bound_to 10752
  140.6981  134.3967  157.5212 H   0  0  0  0  0  0  0  0  0  0  0  0  # atno 11005 bound_to 11000
  145.8568  140.9498  143.0721 LP  0  0  0  0  0  0  0  0  0  0  0  0  # atno 17320 bound_to 7965
  144.6751  140.0478  143.7479 LP  0  0  0  0  0  0  0  0  0  0  0  0  # atno 17321 bound_to 7965
  139.9276  144.6761  150.8397 LP  0  0  0  0  0  0  0  0  0  0  0  0  # atno 17342 bound_to 10162
  140.7674  143.3331  151.2366 LP  0  0  0  0  0  0  0  0  0  0  0  0  # atno 17343 bound_to 10162
  157.4788  131.0900  151.0560 LP  0  0  0  0  0  0  0  0  0  0  0  0  # atno 17370 bound_to 10713
  157.0999  130.5977  149.5458 LP  0  0  0  0  0  0  0  0  0  0  0  0  # atno 17371 bound_to 10713
  139.8904  134.8805  156.2370 LP  0  0  0  0  0  0  0  0  0  0  0  0  # atno 17394 bound_to 11000
  141.0186  133.7054  156.1230 LP  0  0  0  0  0  0  0  0  0  0  0  0  # atno 17395 bound_to 11000

$$$$
