AV-unprocessed.smi:330|AV-procd|sdf|2349|dock4
  -GOLD-   2262022263D 1   1.00000     0.00000
 Structure written by MMmdl.
 36 38  0  0  0  0  0  0  0  0  1 V2000
  148.3914  140.0239  154.1151 C   0  0  0  0  0  0  0  0  0  0  0  0
  149.6655  139.3374  154.5772 C   0  0  0  0  0  0  0  0  0  0  0  0
  149.9990  138.0664  154.3296 C   0  0  0  0  0  0  0  0  0  0  0  0
  151.5559  137.6348  154.9934 S   0  0  0  0  0  0  0  0  0  0  0  0
  151.7516  139.3027  155.6422 C   0  0  0  0  0  0  0  0  0  0  0  0
  152.7460  139.6614  156.2711 O   0  0  0  0  0  0  0  0  0  0  0  0
  150.6225  140.0520  155.3114 N   0  0  0  0  0  0  0  0  0  0  0  0
  150.4577  141.4585  155.7015 C   0  0  0  0  0  0  0  0  0  0  0  0
  150.6084  141.6911  157.2106 C   0  0  0  0  0  0  0  0  0  0  0  0
  149.9208  141.0684  158.0211 O   0  0  0  0  0  0  0  0  0  0  0  0
  151.5223  142.6057  157.5690 N   0  0  0  0  0  0  0  0  0  0  0  0
  151.8433  142.9970  158.9375 C   0  0  0  0  0  0  0  0  0  0  0  0
  151.9101  144.5055  159.1079 C   0  0  0  0  0  0  0  0  0  0  0  0
  151.9064  145.1432  160.4775 C   0  0  0  0  0  0  0  0  0  0  0  0
  150.7099  145.2994  159.5669 C   0  0  0  0  0  0  0  0  0  0  0  0
  153.1320  142.3526  159.4141 C   0  0  0  0  0  0  0  0  0  0  0  0
  153.1327  140.9717  160.0245 C   0  0  0  0  0  0  0  0  0  0  0  0
  153.4284  142.1792  160.8852 C   0  0  0  0  0  0  0  0  0  0  0  0
  147.9146  139.4448  153.3237 H   0  0  0  0  0  0  0  0  0  0  0  0
  148.5913  141.0187  153.7170 H   0  0  0  0  0  0  0  0  0  0  0  0
  147.6868  140.1114  154.9422 H   0  0  0  0  0  0  0  0  0  0  0  0
  149.4129  137.3469  153.7774 H   0  0  0  0  0  0  0  0  0  0  0  0
  151.1597  142.0926  155.1594 H   0  0  0  0  0  0  0  0  0  0  0  0
  149.4673  141.8060  155.4035 H   0  0  0  0  0  0  0  0  0  0  0  0
  152.0380  143.0686  156.8348 H   0  0  0  0  0  0  0  0  0  0  0  0
  151.0510  142.6300  159.5933 H   0  0  0  0  0  0  0  0  0  0  0  0
  152.5408  144.9946  158.3675 H   0  0  0  0  0  0  0  0  0  0  0  0
  151.7906  144.4950  161.3438 H   0  0  0  0  0  0  0  0  0  0  0  0
  152.5416  146.0135  160.6278 H   0  0  0  0  0  0  0  0  0  0  0  0
  150.5484  146.2729  159.1086 H   0  0  0  0  0  0  0  0  0  0  0  0
  149.8067  144.7520  159.8292 H   0  0  0  0  0  0  0  0  0  0  0  0
  153.9907  142.5885  158.7880 H   0  0  0  0  0  0  0  0  0  0  0  0
  152.1727  140.4784  160.1641 H   0  0  0  0  0  0  0  0  0  0  0  0
  153.9632  140.3139  159.7760 H   0  0  0  0  0  0  0  0  0  0  0  0
  154.4559  142.3261  161.2112 H   0  0  0  0  0  0  0  0  0  0  0  0
  152.6648  142.4799  161.5998 H   0  0  0  0  0  0  0  0  0  0  0  0
  1  2  1  0  0  0  0
  1 19  1  0  0  0  0
  1 20  1  0  0  0  0
  1 21  1  0  0  0  0
  2  7  1  0  0  0  0
  2  3  2  0  0  0  0
  3  4  1  0  0  0  0
  3 22  1  0  0  0  0
  4  5  1  0  0  0  0
  5  6  2  0  0  0  0
  5  7  1  0  0  0  0
  7  8  1  0  0  0  0
  8  9  1  0  0  0  0
  8 23  1  0  0  0  0
  8 24  1  0  0  0  0
  9 10  2  0  0  0  0
  9 11  1  0  0  0  0
 11 12  1  0  0  0  0
 11 25  1  0  0  0  0
 12 13  1  0  0  0  0
 12 16  1  0  0  0  0
 12 26  1  0  0  0  0
 13 15  1  0  0  0  0
 13 14  1  0  0  0  0
 13 27  1  0  0  0  0
 14 15  1  0  0  0  0
 14 28  1  0  0  0  0
 14 29  1  0  0  0  0
 15 30  1  0  0  0  0
 15 31  1  0  0  0  0
 16 18  1  0  0  0  0
 16 17  1  0  0  0  0
 16 32  1  0  0  0  0
 17 18  1  0  0  0  0
 17 33  1  0  0  0  0
 17 34  1  0  0  0  0
 18 35  1  0  0  0  0
 18 36  1  0  0  0  0
M  END
> <s_m_source_file>
AV-unprocessed.smi

> <i_m_source_file_index>
330

> <i_lp_mmshare_version>
43012

> <i_f3d_flags>
0

> <s_epik_input>
W0NIM11jMVtjSF1zYyg9TyluMVtDSDJdQyg9TylbTkhdW0NIXShbQ0hdMltDSDJdW0NIMl0yKVtDSF0zW0NIMl1bQ0gyXTM=

> <s_epik_cmdline>
J2VwaWtfcHl0aG9uJywgJy1waCcsICc3LjAnLCAnLXRuJywgJzgnLCAnLW1hJywgJzIwMCcsICctbWV0YWxfYmluZGluZycsICctaW1hZScsICc8aW5maWxlLm1hZT4nLCAnLW9tYWUnLCAnPG91dGZpbGUubWFlPic=

> <r_lp_tautomer_probability>
1

> <r_epik_Ionization_Penalty>
1.36851e-06

> <r_epik_Ionization_Penalty_Charging>
1.26835e-06

> <r_epik_Ionization_Penalty_Neutral>
1.00162e-07

> <r_epik_State_Penalty>
-0

> <r_epik_Charging_Adjusted_Penalty>
1.26835e-06

> <i_epik_Tot_Q>
0

> <i_epik_Tot_abs_Q>
0

> <r_epik_Metal_State_Penalty>
-0

> <b_epik_Metal_Only>
0

> <s_lp_Force_Field>
OPLS_2005

> <r_lp_Energy>
27.3766

> <b_lp_Chiralities_Consistent>
1

> <s_lp_Variant>
AV-unprocessed.smi:330-1

> <Gold.Version>
5.8.1

> <Gold.Id.Protein>
6NUR|6NUR_protein|mol2

> <Gold.PLP.Fitness>
50.8381

> <Gold.PLP.PLP>
-45.3979

> <Gold.PLP.part.hbond>
-1.0000

> <Gold.PLP.part.metal>
0.0000

> <Gold.PLP.part.buried>
-2.5670

> <Gold.PLP.part.nonpolar>
-41.7506

> <Gold.PLP.part.repulsive>
0.0603

> <Gold.PLP.ligand.clash>
0.0000

> <Gold.PLP.ligand.torsion>
1.3570

> <Gold.PLP.Chemscore.Hbond>
1.0000

> <Gold.PLP.Chemscore.CHOScore>
1.0000

> <Gold.PLP.Chemscore.Metal>
0.0000

> <Gold.Chemscore.Hbonds>
donor molecule, donor type, donor heavy atom, donor atom, acceptor molecule, acceptor atom, score
      P1  H  7997  8010       L1     6  1.00
      L1  C     3    22       P1  7948  1.00

> <Gold.PLP.Chemscore.Internal.Correction>
2.1543

> <Gold.Rescore>
     Score         DG    S(hbond)    S(metal)    S(lipo)     H(rot)  DE(clash)    DE(int)     intcor
     16.25     -17.54       1.00        0.00     111.59       1.69       0.11       1.18       ----

> <Gold.Chemscore.Fitness>
16.2534

> <Gold.Chemscore.DG>
-17.5434

> <Gold.Chemscore.ZeroCoef>
-5.4800

> <Gold.Chemscore.Hbond>
0.9960

> <Gold.Chemscore.Metal>
0.0000

> <Gold.Chemscore.Lipo>
111.5864

> <Gold.Chemscore.Internal_Hbond>
0.0000

> <Gold.Chemscore.DEClash>
0.1091

> <Gold.Chemscore.DEInternal>
1.1809

> <Gold.Chemscore.Rot>
1.6871

> <Gold.Chemscore.Internal.Correction>
   9.000000E+99

> <Gold.Chemscore.Hbonds>
donor molecule, donor type, donor heavy atom, donor atom, acceptor molecule, acceptor atom, score
      P1  H  7997  8010       L1     6  0.98

> <Gold.Chemscore.Hbond.Weighted>
-3.3267

> <Gold.Chemscore.Metal.Weighted>
-0.0000

> <Gold.Chemscore.Lipo.Weighted>
-13.0556

> <Gold.Chemscore.Internal_Hbond.Weighted>
0.0000

> <Gold.Chemscore.DEClash.Weighted>
0.1091

> <Gold.Chemscore.DEInternal.Weighted>
1.1809

> <Gold.Chemscore.Rot.Weighted>
4.3189

> <Gold.Chemscore.Internal.Correction.Weighted>
   9.000000E+99

> <Gold.Protein.RotatedTorsions>
[ 6907 6896 6895 6894 ] final   56.26 input  -60.11 | X-H torsion
[ 7974 7965 7964 7962 ] final   32.70 input  175.53 | X-H torsion
[ 8008 7997 7996 7995 ] final   92.36 input   59.86 | X-H torsion
[ 10167 10162 10161 10158 ] final  179.21 input  -65.29 | X-H torsion
[ 10718 10713 10712 10709 ] final -160.97 input   66.30 | X-H torsion
[ 10763 10752 10751 10750 ] final  115.67 input  -60.55 | X-H torsion
[ 11005 11000 10999 10996 ] final   20.61 input  -57.11 | X-H torsion

> <Gold.Protein.ActiveResidues>
 VAL166  LYS551  ARG553  GLY616  TRP617  ASP618  TYR619  PRO620  LYS621  CYS622 
 ASP623  PHE694  ASN695  SER759  ASP760  ASP761  ALA762  ILE779  LEU786  VAL792 
 PHE793  MET794  SER795  GLU796  ALA797  LYS798  CYS799  TRP800  GLU811  SER814 

> <Gold.Protein.RotatedAtoms>
  152.3619  134.6860  160.0204 H   0  0  0  0  0  0  0  0  0  0  0  0  # atno 6907 bound_to 6896
  151.7181  133.3308  159.3316 H   0  0  0  0  0  0  0  0  0  0  0  0  # atno 6908 bound_to 6896
  150.7611  134.6407  159.6280 H   0  0  0  0  0  0  0  0  0  0  0  0  # atno 6909 bound_to 6896
  146.1469  139.6493  142.9125 H   0  0  0  0  0  0  0  0  0  0  0  0  # atno 7974 bound_to 7965
  156.0344  140.3326  155.7175 H   0  0  0  0  0  0  0  0  0  0  0  0  # atno 8008 bound_to 7997
  155.5836  140.0639  157.2794 H   0  0  0  0  0  0  0  0  0  0  0  0  # atno 8009 bound_to 7997
  154.4367  140.1839  156.0990 H   0  0  0  0  0  0  0  0  0  0  0  0  # atno 8010 bound_to 7997
  139.5326  144.2588  152.0724 H   0  0  0  0  0  0  0  0  0  0  0  0  # atno 10167 bound_to 10162
  156.5897  130.8765  151.2886 H   0  0  0  0  0  0  0  0  0  0  0  0  # atno 10718 bound_to 10713
  153.5257  135.3588  155.2652 H   0  0  0  0  0  0  0  0  0  0  0  0  # atno 10763 bound_to 10752
  154.8731  135.4056  154.3209 H   0  0  0  0  0  0  0  0  0  0  0  0  # atno 10764 bound_to 10752
  153.3888  135.7071  153.6577 H   0  0  0  0  0  0  0  0  0  0  0  0  # atno 10765 bound_to 10752
  140.4007  134.1721  155.7664 H   0  0  0  0  0  0  0  0  0  0  0  0  # atno 11005 bound_to 11000
  145.4915  141.0438  143.2590 LP  0  0  0  0  0  0  0  0  0  0  0  0  # atno 17320 bound_to 7965
  144.7857  139.6431  143.7135 LP  0  0  0  0  0  0  0  0  0  0  0  0  # atno 17321 bound_to 7965
  140.2054  144.4616  150.6411 LP  0  0  0  0  0  0  0  0  0  0  0  0  # atno 17342 bound_to 10162
  140.6514  143.2226  151.6068 LP  0  0  0  0  0  0  0  0  0  0  0  0  # atno 17343 bound_to 10162
  157.7307  130.9689  150.1843 LP  0  0  0  0  0  0  0  0  0  0  0  0  # atno 17370 bound_to 10713
  156.2560  130.3705  149.8181 LP  0  0  0  0  0  0  0  0  0  0  0  0  # atno 17371 bound_to 10713
  141.1858  133.8316  157.1093 LP  0  0  0  0  0  0  0  0  0  0  0  0  # atno 17394 bound_to 11000
  140.0338  134.9888  157.0832 LP  0  0  0  0  0  0  0  0  0  0  0  0  # atno 17395 bound_to 11000

$$$$
