AV-unprocessed.smi:926|AV-procd|sdf|4186|dock7
  -GOLD-   22720 2 93D 1   1.00000     0.00000
 Structure written by MMmdl.
 37 39  0  0  0  0  0  0  0  0  1 V2000
  153.0189  139.6417  155.4539 O   0  0  0  0  0  0  0  0  0  0  0  0
  151.9545  139.1440  155.8254 C   0  0  0  0  0  0  0  0  0  0  0  0
  151.0303  138.4159  154.8420 C   0  0  0  0  0  0  0  0  0  0  0  0
  149.9575  139.2601  154.3445 N   0  0  0  0  0  0  0  0  0  0  0  0
  148.7810  138.9519  153.7942 C   0  0  0  0  0  0  0  0  0  0  0  0
  148.0912  140.0364  153.4754 N   0  0  0  0  0  0  0  0  0  0  0  0
  148.9274  141.0680  153.8687 N   0  0  0  0  0  0  0  0  0  0  0  0
  150.0362  140.6134  154.3853 N   0  0  0  0  0  0  0  0  0  0  0  0
  151.5295  139.1911  157.0971 N   0  0  0  0  0  0  0  0  0  0  0  0
  152.2503  139.8239  158.1950 C   0  0  0  0  0  0  0  0  0  0  0  0
  151.4228  140.9490  158.8405 C   0  0  0  0  0  0  0  0  0  0  0  0
  151.7196  142.3409  158.2479 C   0  0  1  0  0  0  0  0  0  0  0  0
  150.5823  143.3653  158.4513 C   0  0  0  0  0  0  0  0  0  0  0  0
  151.3159  144.5819  159.0459 C   0  0  1  0  0  0  0  0  0  0  0  0
  151.6998  144.2761  160.5057 C   0  0  0  0  0  0  0  0  0  0  0  0
  152.8539  143.2695  160.3479 C   0  0  0  0  0  0  0  0  0  0  0  0
  152.9472  143.0943  158.8181 C   0  0  2  0  0  0  0  0  0  0  0  0
  152.6672  144.5163  158.3428 C   0  0  0  0  0  0  0  0  0  0  0  0
  151.6141  138.0623  153.9914 H   0  0  0  0  0  0  0  0  0  0  0  0
  150.5985  137.5381  155.3258 H   0  0  0  0  0  0  0  0  0  0  0  0
  148.4357  137.9424  153.6261 H   0  0  0  0  0  0  0  0  0  0  0  0
  150.6445  138.7589  157.3208 H   0  0  0  0  0  0  0  0  0  0  0  0
  152.5254  139.0704  158.9346 H   0  0  0  0  0  0  0  0  0  0  0  0
  153.1837  140.2274  157.8018 H   0  0  0  0  0  0  0  0  0  0  0  0
  150.3631  140.7312  158.7017 H   0  0  0  0  0  0  0  0  0  0  0  0
  151.5778  140.9583  159.9192 H   0  0  0  0  0  0  0  0  0  0  0  0
  151.8744  142.2165  157.1745 H   0  0  0  0  0  0  0  0  0  0  0  0
  150.1203  143.6174  157.4959 H   0  0  0  0  0  0  0  0  0  0  0  0
  149.7941  143.0034  159.1127 H   0  0  0  0  0  0  0  0  0  0  0  0
  150.7757  145.5210  158.9238 H   0  0  0  0  0  0  0  0  0  0  0  0
  152.0437  145.1764  161.0166 H   0  0  0  0  0  0  0  0  0  0  0  0
  150.8651  143.8660  161.0757 H   0  0  0  0  0  0  0  0  0  0  0  0
  153.7796  143.6961  160.7366 H   0  0  0  0  0  0  0  0  0  0  0  0
  152.6822  142.3368  160.8839 H   0  0  0  0  0  0  0  0  0  0  0  0
  153.9027  142.6892  158.4841 H   0  0  0  0  0  0  0  0  0  0  0  0
  152.5957  144.6068  157.2574 H   0  0  0  0  0  0  0  0  0  0  0  0
  153.3855  145.2487  158.7157 H   0  0  0  0  0  0  0  0  0  0  0  0
  1  2  2  0  0  0  0
  2  3  1  0  0  0  0
  2  9  1  0  0  0  0
  3  4  1  0  0  0  0
  3 19  1  0  0  0  0
  3 20  1  0  0  0  0
  4  8  1  0  0  0  0
  4  5  1  0  0  0  0
  5  6  2  0  0  0  0
  5 21  1  0  0  0  0
  6  7  1  0  0  0  0
  7  8  2  0  0  0  0
  9 10  1  0  0  0  0
  9 22  1  0  0  0  0
 10 11  1  0  0  0  0
 10 23  1  0  0  0  0
 10 24  1  0  0  0  0
 11 12  1  0  0  0  0
 11 25  1  0  0  0  0
 11 26  1  0  0  0  0
 12 17  1  0  0  0  0
 12 13  1  0  0  0  0
 12 27  1  0  0  0  0
 13 14  1  0  0  0  0
 13 28  1  0  0  0  0
 13 29  1  0  0  0  0
 14 18  1  0  0  0  0
 14 15  1  0  0  0  0
 14 30  1  0  0  0  0
 15 16  1  0  0  0  0
 15 31  1  0  0  0  0
 15 32  1  0  0  0  0
 16 17  1  0  0  0  0
 16 33  1  0  0  0  0
 16 34  1  0  0  0  0
 17 18  1  0  0  0  0
 17 35  1  0  0  0  0
 18 36  1  0  0  0  0
 18 37  1  0  0  0  0
M  END
> <s_m_source_file>
AV-unprocessed.smi

> <i_m_source_file_index>
926

> <i_lp_mmshare_version>
43012

> <i_f3d_flags>
0

> <s_epik_input>
bjFubltjSF1uMVtDSDJdQyg9TylbTkhdW0NIMl1bQ0gyXVtDQEhdKFtDSDJdW0NASF0yMylbQ0BIXShbQ0gyXTMpW0NIMl1bQ0gyXTI=

> <s_epik_cmdline>
J2VwaWtfcHl0aG9uJywgJy1waCcsICc3LjAnLCAnLXRuJywgJzgnLCAnLW1hJywgJzIwMCcsICctbWV0YWxfYmluZGluZycsICctaW1hZScsICc8aW5maWxlLm1hZT4nLCAnLW9tYWUnLCAnPG91dGZpbGUubWFlPic=

> <r_lp_tautomer_probability>
1

> <r_epik_Ionization_Penalty>
4.22645e-07

> <r_epik_Ionization_Penalty_Charging>
0

> <r_epik_Ionization_Penalty_Neutral>
4.22645e-07

> <r_epik_State_Penalty>
-0

> <r_epik_Charging_Adjusted_Penalty>
0

> <i_epik_Tot_Q>
0

> <i_epik_Tot_abs_Q>
0

> <r_epik_Metal_State_Penalty>
-0

> <b_epik_Metal_Only>
0

> <s_lp_Force_Field>
OPLS_2005

> <r_lp_Energy>
51.6894

> <b_lp_Chiralities_Consistent>
1

> <s_lp_Variant>
AV-unprocessed.smi:926-4

> <Gold.Version>
5.8.1

> <Gold.Id.Protein>
6NUR|6NUR_protein|mol2

> <Gold.PLP.Fitness>
46.2434

> <Gold.PLP.PLP>
-38.1264

> <Gold.PLP.part.hbond>
-3.4385

> <Gold.PLP.part.metal>
0.0000

> <Gold.PLP.part.buried>
-4.1365

> <Gold.PLP.part.nonpolar>
-33.4344

> <Gold.PLP.part.repulsive>
4.0131

> <Gold.PLP.ligand.clash>
0.0000

> <Gold.PLP.ligand.torsion>
1.0804

> <Gold.PLP.Chemscore.Hbond>
2.4275

> <Gold.PLP.Chemscore.CHOScore>
0.9933

> <Gold.PLP.Chemscore.Metal>
0.0000

> <Gold.Chemscore.Hbonds>
donor molecule, donor type, donor heavy atom, donor atom, acceptor molecule, acceptor atom, score
      P1  H  7989  7998       L1     8  0.80
      P1  H  7997  8010       L1     1  1.00
      P1  H  8011  8017       L1     7  0.46
      L1  C     5    21       P1  7948  1.00

> <Gold.PLP.Chemscore.Internal.Correction>
0.0152

> <Gold.Rescore>
     Score         DG    S(hbond)    S(metal)    S(lipo)     H(rot)  DE(clash)    DE(int)     intcor
     15.63     -17.14       1.80        0.00     103.81       2.54       0.26       1.24       ----

> <Gold.Chemscore.Fitness>
15.6347

> <Gold.Chemscore.DG>
-17.1358

> <Gold.Chemscore.ZeroCoef>
-5.4800

> <Gold.Chemscore.Hbond>
1.8029

> <Gold.Chemscore.Metal>
0.0000

> <Gold.Chemscore.Lipo>
103.8110

> <Gold.Chemscore.Internal_Hbond>
0.0000

> <Gold.Chemscore.DEClash>
0.2563

> <Gold.Chemscore.DEInternal>
1.2448

> <Gold.Chemscore.Rot>
2.5436

> <Gold.Chemscore.Internal.Correction>
   9.000000E+99

> <Gold.Chemscore.Hbonds>
donor molecule, donor type, donor heavy atom, donor atom, acceptor molecule, acceptor atom, score
      P1  H  7989  7998       L1     8  0.23
      P1  H  7997  8010       L1     1  0.97
      P1  H  8011  8017       L1     7  0.10

> <Gold.Chemscore.Hbond.Weighted>
-6.0216

> <Gold.Chemscore.Metal.Weighted>
-0.0000

> <Gold.Chemscore.Lipo.Weighted>
-12.1459

> <Gold.Chemscore.Internal_Hbond.Weighted>
0.0000

> <Gold.Chemscore.DEClash.Weighted>
0.2563

> <Gold.Chemscore.DEInternal.Weighted>
1.2448

> <Gold.Chemscore.Rot.Weighted>
6.5117

> <Gold.Chemscore.Internal.Correction.Weighted>
   9.000000E+99

> <Gold.Protein.RotatedTorsions>
[ 6907 6896 6895 6894 ] final  128.65 input  -60.11 | X-H torsion
[ 7974 7965 7964 7962 ] final  -58.05 input  175.53 | X-H torsion
[ 8008 7997 7996 7995 ] final   95.52 input   59.86 | X-H torsion
[ 10167 10162 10161 10158 ] final   16.23 input  -65.29 | X-H torsion
[ 10718 10713 10712 10709 ] final  -94.55 input   66.30 | X-H torsion
[ 10763 10752 10751 10750 ] final -147.09 input  -60.55 | X-H torsion
[ 11005 11000 10999 10996 ] final  -68.98 input  -57.11 | X-H torsion

> <Gold.Protein.ActiveResidues>
 VAL166  LYS551  ARG553  GLY616  TRP617  ASP618  TYR619  PRO620  LYS621  CYS622 
 ASP623  PHE694  ASN695  SER759  ASP760  ASP761  ALA762  ILE779  LEU786  VAL792 
 PHE793  MET794  SER795  GLU796  ALA797  LYS798  CYS799  TRP800  GLU811  SER814 

> <Gold.Protein.RotatedAtoms>
  152.3699  133.6406  159.6079 H   0  0  0  0  0  0  0  0  0  0  0  0  # atno 6907 bound_to 6896
  150.7661  133.9287  159.3429 H   0  0  0  0  0  0  0  0  0  0  0  0  # atno 6908 bound_to 6896
  151.7111  135.0913  160.0319 H   0  0  0  0  0  0  0  0  0  0  0  0  # atno 6909 bound_to 6896
  145.8439  140.8399  143.0020 H   0  0  0  0  0  0  0  0  0  0  0  0  # atno 7974 bound_to 7965
  156.0697  140.3285  155.7561 H   0  0  0  0  0  0  0  0  0  0  0  0  # atno 8008 bound_to 7997
  155.5324  140.0594  157.2903 H   0  0  0  0  0  0  0  0  0  0  0  0  # atno 8009 bound_to 7997
  154.4524  140.1925  156.0498 H   0  0  0  0  0  0  0  0  0  0  0  0  # atno 8010 bound_to 7997
  140.5812  143.8977  150.6791 H   0  0  0  0  0  0  0  0  0  0  0  0  # atno 10167 bound_to 10162
  156.0029  130.5072  150.5943 H   0  0  0  0  0  0  0  0  0  0  0  0  # atno 10718 bound_to 10713
  154.8303  135.3369  154.6764 H   0  0  0  0  0  0  0  0  0  0  0  0  # atno 10763 bound_to 10752
  153.7385  135.6947  153.4977 H   0  0  0  0  0  0  0  0  0  0  0  0  # atno 10764 bound_to 10752
  153.2261  135.4432  155.0495 H   0  0  0  0  0  0  0  0  0  0  0  0  # atno 10765 bound_to 10752
  141.1544  133.6753  156.6529 H   0  0  0  0  0  0  0  0  0  0  0  0  # atno 11005 bound_to 11000
  144.6732  140.0852  143.7467 LP  0  0  0  0  0  0  0  0  0  0  0  0  # atno 17320 bound_to 7965
  145.9434  139.2684  143.1255 LP  0  0  0  0  0  0  0  0  0  0  0  0  # atno 17321 bound_to 7965
  140.2477  143.3616  152.1433 LP  0  0  0  0  0  0  0  0  0  0  0  0  # atno 17342 bound_to 10162
  139.5171  144.6987  151.5557 LP  0  0  0  0  0  0  0  0  0  0  0  0  # atno 17343 bound_to 10162
  157.3802  131.0780  151.1483 LP  0  0  0  0  0  0  0  0  0  0  0  0  # atno 17370 bound_to 10713
  157.2208  130.6480  149.5810 LP  0  0  0  0  0  0  0  0  0  0  0  0  # atno 17371 bound_to 10713
  140.3307  134.7931  157.4323 LP  0  0  0  0  0  0  0  0  0  0  0  0  # atno 17394 bound_to 11000
  140.1019  134.5461  155.8344 LP  0  0  0  0  0  0  0  0  0  0  0  0  # atno 17395 bound_to 11000

$$$$
