AV-unprocessed.smi:994|AV-procd|sdf|4344|dock3
  -GOLD-   22720 2243D 1   1.00000     0.00000
 Structure written by MMmdl.
 37 38  0  0  0  0  0  0  0  0  2 V2000
  151.8435  139.4765  158.5163 O   0  0  0  0  0  0  0  0  0  0  0  0
  151.7815  140.4371  157.7483 C   0  0  0  0  0  0  0  0  0  0  0  0
  151.3482  140.3432  156.4818 N   0  0  0  0  0  0  0  0  0  0  0  0
  150.9121  139.1140  155.8188 C   0  0  1  0  0  0  0  0  0  0  0  0
  150.3362  139.4717  154.4298 C   0  0  0  0  0  0  0  0  0  0  0  0
  148.9676  140.1148  154.4328 C   0  0  0  0  0  0  0  0  0  0  0  0
  148.5763  141.3496  154.9147 C   0  0  0  0  0  0  0  0  0  0  0  0
  147.2175  141.4504  154.6770 N   0  0  0  0  0  0  0  0  0  0  0  0
  146.8405  140.3155  154.0878 C   0  0  0  0  0  0  0  0  0  0  0  0
  147.8427  139.4645  153.9116 N   0  0  0  0  0  0  0  0  0  0  0  0
  152.1159  138.1797  155.6202 C   0  0  0  0  0  0  0  0  0  0  0  0
  153.2256  138.5945  156.0200 O   0  0  0  0  0  0  0  0  0  0  0  0
  151.9107  137.0695  155.0794 O   0  5  0  0  0  0  0  0  0  0  0  0
  152.1973  141.8357  158.2227 C   0  0  0  0  0  0  0  0  0  0  0  0
  152.6308  141.8132  159.7040 C   0  0  0  0  0  0  0  0  0  0  0  0
  153.0298  143.2161  160.1917 C   0  0  0  0  0  0  0  0  0  0  0  0
  151.8931  144.2270  159.9711 C   0  0  0  0  0  0  0  0  0  0  0  0
  151.4515  144.2531  158.4992 C   0  0  0  0  0  0  0  0  0  0  0  0
  151.0526  142.8500  158.0134 C   0  0  0  0  0  0  0  0  0  0  0  0
  146.6233  142.2334  154.9081 H   0  0  0  0  0  0  0  0  0  0  0  0
  151.3476  141.1808  155.9186 H   0  0  0  0  0  0  0  0  0  0  0  0
  150.1507  138.6025  156.4111 H   0  0  0  0  0  0  0  0  0  0  0  0
  151.0168  140.1427  153.9027 H   0  0  0  0  0  0  0  0  0  0  0  0
  150.2633  138.5708  153.8188 H   0  0  0  0  0  0  0  0  0  0  0  0
  149.1385  142.1397  155.3908 H   0  0  0  0  0  0  0  0  0  0  0  0
  145.8242  140.1089  153.7860 H   0  0  0  0  0  0  0  0  0  0  0  0
  153.0514  142.1604  157.6254 H   0  0  0  0  0  0  0  0  0  0  0  0
  151.8205  141.4334  160.3285 H   0  0  0  0  0  0  0  0  0  0  0  0
  153.4694  141.1284  159.8386 H   0  0  0  0  0  0  0  0  0  0  0  0
  153.2958  143.1802  161.2484 H   0  0  0  0  0  0  0  0  0  0  0  0
  153.9222  143.5473  159.6589 H   0  0  0  0  0  0  0  0  0  0  0  0
  151.0431  143.9647  160.6022 H   0  0  0  0  0  0  0  0  0  0  0  0
  152.2137  145.2219  160.2814 H   0  0  0  0  0  0  0  0  0  0  0  0
  150.6149  144.9410  158.3744 H   0  0  0  0  0  0  0  0  0  0  0  0
  152.2634  144.6373  157.8805 H   0  0  0  0  0  0  0  0  0  0  0  0
  150.7789  142.8941  156.9582 H   0  0  0  0  0  0  0  0  0  0  0  0
  150.1594  142.5260  158.5502 H   0  0  0  0  0  0  0  0  0  0  0  0
  1  2  2  0  0  0  0
  2  3  1  0  0  0  0
  2 14  1  0  0  0  0
  3  4  1  0  0  0  0
  3 21  1  0  0  0  0
  4  5  1  0  0  0  0
  4 11  1  0  0  0  0
  4 22  1  0  0  0  0
  5  6  1  0  0  0  0
  5 23  1  0  0  0  0
  5 24  1  0  0  0  0
  6 10  1  0  0  0  0
  6  7  2  0  0  0  0
  7  8  1  0  0  0  0
  7 25  1  0  0  0  0
  8 20  1  0  0  0  0
  8  9  1  0  0  0  0
  9 10  2  0  0  0  0
  9 26  1  0  0  0  0
 11 12  2  0  0  0  0
 11 13  1  0  0  0  0
 14 19  1  0  0  0  0
 14 15  1  0  0  0  0
 14 27  1  0  0  0  0
 15 16  1  0  0  0  0
 15 28  1  0  0  0  0
 15 29  1  0  0  0  0
 16 17  1  0  0  0  0
 16 30  1  0  0  0  0
 16 31  1  0  0  0  0
 17 18  1  0  0  0  0
 17 32  1  0  0  0  0
 17 33  1  0  0  0  0
 18 19  1  0  0  0  0
 18 34  1  0  0  0  0
 18 35  1  0  0  0  0
 19 36  1  0  0  0  0
 19 37  1  0  0  0  0
M  CHG  1  13  -1
M  END
> <s_m_source_file>
AV-unprocessed.smi

> <i_m_source_file_index>
994

> <i_lp_mmshare_version>
43012

> <i_f3d_flags>
0

> <s_epik_input>
W0NIMl0xW0NIMl1bQ0gyXVtDSDJdW0NIMl1bQ0hdMUMoPU8pW05IXVtDQEBIXShDKD1PKVtPSF0pW0NIMl1jMltjSF1bbkhdW2NIXW4y

> <s_epik_cmdline>
J2VwaWtfcHl0aG9uJywgJy1waCcsICc3LjAnLCAnLXRuJywgJzgnLCAnLW1hJywgJzIwMCcsICctbWV0YWxfYmluZGluZycsICctaW1hZScsICc8aW5maWxlLm1hZT4nLCAnLW9tYWUnLCAnPG91dGZpbGUubWFlPic=

> <r_lp_tautomer_probability>
0.5

> <r_epik_Ionization_Penalty>
0.836077

> <r_epik_Ionization_Penalty_Charging>
0.836077

> <r_epik_Ionization_Penalty_Neutral>
7.85059e-08

> <r_epik_State_Penalty>
0.938582

> <r_epik_Charging_Adjusted_Penalty>
1.77466

> <i_epik_Tot_Q>
-1

> <i_epik_Tot_abs_Q>
1

> <r_epik_Metal_State_Penalty>
0.523638

> <b_epik_Metal_Only>
0

> <s_lp_Force_Field>
OPLS_2005

> <r_lp_Energy>
9.68515

> <b_lp_Chiralities_Consistent>
1

> <s_lp_Variant>
AV-unprocessed.smi:994-6

> <Gold.Version>
5.8.1

> <Gold.Id.Protein>
6NUR|6NUR_protein|mol2

> <Gold.PLP.Fitness>
53.7517

> <Gold.PLP.PLP>
-36.1339

> <Gold.PLP.part.hbond>
-2.0000

> <Gold.PLP.part.metal>
0.0000

> <Gold.PLP.part.buried>
-4.2451

> <Gold.PLP.part.nonpolar>
-31.2007

> <Gold.PLP.part.repulsive>
0.4684

> <Gold.PLP.ligand.clash>
0.0000

> <Gold.PLP.ligand.torsion>
0.2274

> <Gold.PLP.Chemscore.Hbond>
3.9840

> <Gold.PLP.Chemscore.CHOScore>
2.0000

> <Gold.PLP.Chemscore.Metal>
0.0000

> <Gold.Chemscore.Hbonds>
donor molecule, donor type, donor heavy atom, donor atom, acceptor molecule, acceptor atom, score
      P1  H  7997  8010       L1    12  1.92
      P1  H 10752 10765       L1    13  1.92
      L1  C     7    25       P1  8028  0.82
      L1  C     9    26       P1 10175  0.98

> <Gold.PLP.Chemscore.Internal.Correction>
0.1205

> <Gold.Rescore>
     Score         DG    S(hbond)    S(metal)    S(lipo)     H(rot)  DE(clash)    DE(int)     intcor
     14.98     -15.79       1.87        0.00      92.98       2.66       0.03       0.78       ----

> <Gold.Chemscore.Fitness>
14.9827

> <Gold.Chemscore.DG>
-15.7902

> <Gold.Chemscore.ZeroCoef>
-5.4800

> <Gold.Chemscore.Hbond>
1.8673

> <Gold.Chemscore.Metal>
0.0000

> <Gold.Chemscore.Lipo>
92.9753

> <Gold.Chemscore.Internal_Hbond>
0.0000

> <Gold.Chemscore.DEClash>
0.0297

> <Gold.Chemscore.DEInternal>
0.7778

> <Gold.Chemscore.Rot>
2.6581

> <Gold.Chemscore.Internal.Correction>
   9.000000E+99

> <Gold.Chemscore.Hbonds>
donor molecule, donor type, donor heavy atom, donor atom, acceptor molecule, acceptor atom, score
      P1  H  7997  8010       L1    12  0.92
      P1  H 10752 10765       L1    13  0.92

> <Gold.Chemscore.Hbond.Weighted>
-6.2369

> <Gold.Chemscore.Metal.Weighted>
-0.0000

> <Gold.Chemscore.Lipo.Weighted>
-10.8781

> <Gold.Chemscore.Internal_Hbond.Weighted>
0.0000

> <Gold.Chemscore.DEClash.Weighted>
0.0297

> <Gold.Chemscore.DEInternal.Weighted>
0.7778

> <Gold.Chemscore.Rot.Weighted>
6.8048

> <Gold.Chemscore.Internal.Correction.Weighted>
   9.000000E+99

> <Gold.Protein.RotatedTorsions>
[ 6907 6896 6895 6894 ] final  -58.97 input  -60.11 | X-H torsion
[ 7974 7965 7964 7962 ] final  -70.10 input  175.53 | X-H torsion
[ 8008 7997 7996 7995 ] final   86.35 input   59.86 | X-H torsion
[ 10167 10162 10161 10158 ] final  -40.90 input  -65.29 | X-H torsion
[ 10718 10713 10712 10709 ] final    8.25 input   66.30 | X-H torsion
[ 10763 10752 10751 10750 ] final  169.60 input  -60.55 | X-H torsion
[ 11005 11000 10999 10996 ] final  -47.16 input  -57.11 | X-H torsion

> <Gold.Protein.ActiveResidues>
 VAL166  LYS551  ARG553  GLY616  TRP617  ASP618  TYR619  PRO620  LYS621  CYS622 
 ASP623  PHE694  ASN695  SER759  ASP760  ASP761  ALA762  ILE779  LEU786  VAL792 
 PHE793  MET794  SER795  GLU796  ALA797  LYS798  CYS799  TRP800  GLU811  SER814 

> <Gold.Protein.RotatedAtoms>
  150.7966  134.7030  159.6560 H   0  0  0  0  0  0  0  0  0  0  0  0  # atno 6907 bound_to 6896
  152.4079  134.6172  160.0051 H   0  0  0  0  0  0  0  0  0  0  0  0  # atno 6908 bound_to 6896
  151.6424  133.3288  159.3169 H   0  0  0  0  0  0  0  0  0  0  0  0  # atno 6909 bound_to 6896
  145.6953  140.9137  143.0760 H   0  0  0  0  0  0  0  0  0  0  0  0  # atno 7974 bound_to 7965
  155.9617  140.3393  155.6496 H   0  0  0  0  0  0  0  0  0  0  0  0  # atno 8008 bound_to 7997
  155.6790  140.0735  157.2510 H   0  0  0  0  0  0  0  0  0  0  0  0  # atno 8009 bound_to 7997
  154.4145  140.1678  156.1949 H   0  0  0  0  0  0  0  0  0  0  0  0  # atno 8010 bound_to 7997
  140.7020  143.3126  151.2990 H   0  0  0  0  0  0  0  0  0  0  0  0  # atno 10167 bound_to 10162
  156.9488  130.5889  149.5655 H   0  0  0  0  0  0  0  0  0  0  0  0  # atno 10718 bound_to 10713
  154.3855  135.2753  155.2186 H   0  0  0  0  0  0  0  0  0  0  0  0  # atno 10763 bound_to 10752
  154.4274  135.5985  153.6051 H   0  0  0  0  0  0  0  0  0  0  0  0  # atno 10764 bound_to 10752
  152.9833  135.5987  154.4103 H   0  0  0  0  0  0  0  0  0  0  0  0  # atno 10765 bound_to 10752
  141.0623  133.6705  156.3258 H   0  0  0  0  0  0  0  0  0  0  0  0  # atno 11005 bound_to 11000
  144.6984  139.8876  143.7451 LP  0  0  0  0  0  0  0  0  0  0  0  0  # atno 17320 bound_to 7965
  146.0846  139.3834  143.0443 LP  0  0  0  0  0  0  0  0  0  0  0  0  # atno 17321 bound_to 7965
  139.6554  144.0286  152.2656 LP  0  0  0  0  0  0  0  0  0  0  0  0  # atno 17342 bound_to 10162
  139.9836  144.6411  150.7878 LP  0  0  0  0  0  0  0  0  0  0  0  0  # atno 17343 bound_to 10162
  156.0372  130.5458  150.8682 LP  0  0  0  0  0  0  0  0  0  0  0  0  # atno 17370 bound_to 10713
  157.5736  131.0946  150.9380 LP  0  0  0  0  0  0  0  0  0  0  0  0  # atno 17371 bound_to 10713
  140.5843  134.5714  157.5486 LP  0  0  0  0  0  0  0  0  0  0  0  0  # atno 17394 bound_to 11000
  139.9444  134.7728  156.0597 LP  0  0  0  0  0  0  0  0  0  0  0  0  # atno 17395 bound_to 11000

$$$$
