AV-unprocessed.smi:2518|AV-procd|sdf|9901|dock2
  -GOLD-   2272013533D 1   1.00000     0.00000
 Structure written by MMmdl.
 41 43  0  0  0  0  0  0  0  0  1 V2000
  152.1379  145.2985  158.8835 C   0  0  0  0  0  0  0  0  0  0  0  0
  152.0528  143.7862  158.8760 C   0  0  0  0  0  0  0  0  0  0  0  0
  151.4385  143.1093  157.8038 C   0  0  0  0  0  0  0  0  0  0  0  0
  151.3635  141.7032  157.8072 C   0  0  0  0  0  0  0  0  0  0  0  0
  151.8963  140.9531  158.8756 C   0  0  0  0  0  0  0  0  0  0  0  0
  151.7760  139.5822  158.7979 O   0  0  0  0  0  0  0  0  0  0  0  0
  150.7092  139.0414  158.0290 C   0  0  0  0  0  0  0  0  0  0  0  0
  150.2191  137.7507  158.7030 C   0  0  2  0  0  0  0  0  0  0  0  0
  151.3153  136.8631  158.8129 O   0  0  0  0  0  0  0  0  0  0  0  0
  149.0935  137.0732  157.8961 C   0  0  0  0  0  0  0  0  0  0  0  0
  148.8452  135.7044  158.3238 N   0  0  0  0  0  0  0  0  0  0  0  0
  148.9932  134.6906  157.4322 N   0  0  0  0  0  0  0  0  0  0  0  0
  148.6917  133.5769  158.0964 C   0  0  0  0  0  0  0  0  0  0  0  0
  148.3351  133.8422  159.4469 C   0  0  0  0  0  0  0  0  0  0  0  0
  147.9235  133.0288  160.5857 C   0  0  0  0  0  0  0  0  0  0  0  0
  147.6599  133.6284  161.7040 N   0  0  0  0  0  0  0  0  0  0  0  0
  147.7636  135.0182  161.8300 N   0  0  0  0  0  0  0  0  0  0  0  0
  147.4234  135.5097  163.1647 C   0  0  0  0  0  0  0  0  0  0  0  0
  148.1502  135.8678  160.8284 C   0  0  0  0  0  0  0  0  0  0  0  0
  148.2513  137.0883  160.9536 O   0  0  0  0  0  0  0  0  0  0  0  0
  148.4485  135.1899  159.5430 C   0  0  0  0  0  0  0  0  0  0  0  0
  152.5152  141.6406  159.9501 C   0  0  0  0  0  0  0  0  0  0  0  0
  152.5903  143.0471  159.9480 C   0  0  0  0  0  0  0  0  0  0  0  0
  151.7033  145.7267  157.9796 H   0  0  0  0  0  0  0  0  0  0  0  0
  153.1784  145.6181  158.9451 H   0  0  0  0  0  0  0  0  0  0  0  0
  151.6030  145.7023  159.7434 H   0  0  0  0  0  0  0  0  0  0  0  0
  151.0220  143.6636  156.9756 H   0  0  0  0  0  0  0  0  0  0  0  0
  150.8893  141.1943  156.9810 H   0  0  0  0  0  0  0  0  0  0  0  0
  149.8967  139.7698  158.0087 H   0  0  0  0  0  0  0  0  0  0  0  0
  151.0111  138.8478  156.9978 H   0  0  0  0  0  0  0  0  0  0  0  0
  149.8481  137.9784  159.7033 H   0  0  0  0  0  0  0  0  0  0  0  0
  152.0371  137.2186  158.3169 H   0  0  0  0  0  0  0  0  0  0  0  0
  148.1663  137.6364  158.0110 H   0  0  0  0  0  0  0  0  0  0  0  0
  149.3193  137.0842  156.8304 H   0  0  0  0  0  0  0  0  0  0  0  0
  148.7393  132.6287  157.5818 H   0  0  0  0  0  0  0  0  0  0  0  0
  147.8412  131.9461  160.4919 H   0  0  0  0  0  0  0  0  0  0  0  0
  147.4173  136.5972  163.2457 H   0  0  0  0  0  0  0  0  0  0  0  0
  148.1374  135.1291  163.8960 H   0  0  0  0  0  0  0  0  0  0  0  0
  146.4312  135.1593  163.4520 H   0  0  0  0  0  0  0  0  0  0  0  0
  152.9414  141.1119  160.7890 H   0  0  0  0  0  0  0  0  0  0  0  0
  153.0631  143.5584  160.7739 H   0  0  0  0  0  0  0  0  0  0  0  0
  1  2  1  0  0  0  0
  1 24  1  0  0  0  0
  1 25  1  0  0  0  0
  1 26  1  0  0  0  0
  2 23  1  0  0  0  0
  2  3  2  0  0  0  0
  3  4  1  0  0  0  0
  3 27  1  0  0  0  0
  4  5  2  0  0  0  0
  4 28  1  0  0  0  0
  5  6  1  0  0  0  0
  5 22  1  0  0  0  0
  6  7  1  0  0  0  0
  7  8  1  0  0  0  0
  7 29  1  0  0  0  0
  7 30  1  0  0  0  0
  8  9  1  0  0  0  0
  8 10  1  0  0  0  0
  8 31  1  0  0  0  0
  9 32  1  0  0  0  0
 10 11  1  0  0  0  0
 10 33  1  0  0  0  0
 10 34  1  0  0  0  0
 11 21  1  0  0  0  0
 11 12  1  0  0  0  0
 12 13  2  0  0  0  0
 13 14  1  0  0  0  0
 13 35  1  0  0  0  0
 14 21  2  0  0  0  0
 14 15  1  0  0  0  0
 15 16  2  0  0  0  0
 15 36  1  0  0  0  0
 16 17  1  0  0  0  0
 17 18  1  0  0  0  0
 17 19  1  0  0  0  0
 18 37  1  0  0  0  0
 18 38  1  0  0  0  0
 18 39  1  0  0  0  0
 19 20  2  0  0  0  0
 19 21  1  0  0  0  0
 22 23  2  0  0  0  0
 22 40  1  0  0  0  0
 23 41  1  0  0  0  0
M  END
> <s_m_source_file>
AV-unprocessed.smi

> <i_m_source_file_index>
2518

> <i_lp_mmshare_version>
43012

> <i_f3d_flags>
0

> <s_epik_input>
W0NIM11jMVtjSF1bY0hdYyhbY0hdW2NIXTEpT1tDSDJdW0NASF0oW09IXSlbQ0gyXW4obltjSF0yKWMoYzIzKWMoPU8pbihbQ0gzXSluW2NIXTM=

> <s_epik_cmdline>
J2VwaWtfcHl0aG9uJywgJy1waCcsICc3LjAnLCAnLXRuJywgJzgnLCAnLW1hJywgJzIwMCcsICctbWV0YWxfYmluZGluZycsICctaW1hZScsICc8aW5maWxlLm1hZT4nLCAnLW9tYWUnLCAnPG91dGZpbGUubWFlPic=

> <r_lp_tautomer_probability>
1

> <r_epik_Ionization_Penalty>
2.246e-06

> <r_epik_Ionization_Penalty_Charging>
1.41975e-10

> <r_epik_Ionization_Penalty_Neutral>
2.24586e-06

> <r_epik_State_Penalty>
-0

> <r_epik_Charging_Adjusted_Penalty>
1.41975e-10

> <i_epik_Tot_Q>
0

> <i_epik_Tot_abs_Q>
0

> <r_epik_Metal_State_Penalty>
-0

> <b_epik_Metal_Only>
0

> <s_lp_Force_Field>
OPLS_2005

> <r_lp_Energy>
32.1328

> <b_lp_Chiralities_Consistent>
1

> <s_lp_Variant>
AV-unprocessed.smi:2518-1

> <Gold.Version>
5.8.1

> <Gold.Id.Protein>
6NUR|6NUR_protein|mol2

> <Gold.PLP.Fitness>
51.1384

> <Gold.PLP.PLP>
-44.5442

> <Gold.PLP.part.hbond>
-3.0000

> <Gold.PLP.part.metal>
0.0000

> <Gold.PLP.part.buried>
-5.9971

> <Gold.PLP.part.nonpolar>
-35.6123

> <Gold.PLP.part.repulsive>
0.0000

> <Gold.PLP.ligand.clash>
0.0002

> <Gold.PLP.ligand.torsion>
0.6937

> <Gold.PLP.Chemscore.Hbond>
2.6320

> <Gold.PLP.Chemscore.CHOScore>
0.0000

> <Gold.PLP.Chemscore.Metal>
0.0000

> <Gold.Chemscore.Hbonds>
donor molecule, donor type, donor heavy atom, donor atom, acceptor molecule, acceptor atom, score
      P1  H  6896  6908       L1     9  0.94
      P1  H  6931  6943       L1    20  0.99
      P1  H  6934  6947       L1    20  0.36

> <Gold.PLP.Chemscore.Internal.Correction>
0.0858

> <Gold.Rescore>
     Score         DG    S(hbond)    S(metal)    S(lipo)     H(rot)  DE(clash)    DE(int)     intcor
     20.79     -21.46       2.66        0.00     112.04       2.35       0.33       0.35       ----

> <Gold.Chemscore.Fitness>
20.7877

> <Gold.Chemscore.DG>
-21.4646

> <Gold.Chemscore.ZeroCoef>
-5.4800

> <Gold.Chemscore.Hbond>
2.6616

> <Gold.Chemscore.Metal>
0.0000

> <Gold.Chemscore.Lipo>
112.0378

> <Gold.Chemscore.Internal_Hbond>
0.0000

> <Gold.Chemscore.DEClash>
0.3314

> <Gold.Chemscore.DEInternal>
0.3455

> <Gold.Chemscore.Rot>
2.3490

> <Gold.Chemscore.Internal.Correction>
   9.000000E+99

> <Gold.Chemscore.Hbonds>
donor molecule, donor type, donor heavy atom, donor atom, acceptor molecule, acceptor atom, score
      P1  H  6896  6908       L1     9  0.84
      P1  H  6931  6943       L1    20  0.94
      P1  H  6934  6947       L1    20  0.36

> <Gold.Chemscore.Hbond.Weighted>
-8.8897

> <Gold.Chemscore.Metal.Weighted>
-0.0000

> <Gold.Chemscore.Lipo.Weighted>
-13.1084

> <Gold.Chemscore.Internal_Hbond.Weighted>
0.0000

> <Gold.Chemscore.DEClash.Weighted>
0.3314

> <Gold.Chemscore.DEInternal.Weighted>
0.3455

> <Gold.Chemscore.Rot.Weighted>
6.0136

> <Gold.Chemscore.Internal.Correction.Weighted>
   9.000000E+99

> <Gold.Protein.RotatedTorsions>
[ 6907 6896 6895 6894 ] final -138.65 input  -60.11 | X-H torsion
[ 7974 7965 7964 7962 ] final   69.23 input  175.53 | X-H torsion
[ 8008 7997 7996 7995 ] final  110.01 input   59.86 | X-H torsion
[ 10167 10162 10161 10158 ] final  101.49 input  -65.29 | X-H torsion
[ 10718 10713 10712 10709 ] final   63.02 input   66.30 | X-H torsion
[ 10763 10752 10751 10750 ] final   -6.41 input  -60.55 | X-H torsion
[ 11005 11000 10999 10996 ] final  -18.44 input  -57.11 | X-H torsion

> <Gold.Protein.ActiveResidues>
 VAL166  LYS551  ARG553  GLY616  TRP617  ASP618  TYR619  PRO620  LYS621  CYS622 
 ASP623  PHE694  ASN695  SER759  ASP760  ASP761  ALA762  ILE779  LEU786  VAL792 
 PHE793  MET794  SER795  GLU796  ALA797  LYS798  CYS799  TRP800  GLU811  SER814 

> <Gold.Protein.RotatedAtoms>
  151.0377  133.5734  159.2654 H   0  0  0  0  0  0  0  0  0  0  0  0  # atno 6907 bound_to 6896
  151.2792  135.0708  159.9173 H   0  0  0  0  0  0  0  0  0  0  0  0  # atno 6908 bound_to 6896
  152.5358  134.0094  159.7985 H   0  0  0  0  0  0  0  0  0  0  0  0  # atno 6909 bound_to 6896
  145.7930  139.2943  143.1199 H   0  0  0  0  0  0  0  0  0  0  0  0  # atno 7974 bound_to 7965
  156.2022  140.3047  155.9550 H   0  0  0  0  0  0  0  0  0  0  0  0  # atno 8008 bound_to 7997
  155.2928  140.0443  157.3041 H   0  0  0  0  0  0  0  0  0  0  0  0  # atno 8009 bound_to 7997
  154.5585  140.2313  155.8381 H   0  0  0  0  0  0  0  0  0  0  0  0  # atno 8010 bound_to 7997
  139.7433  144.7005  151.0542 H   0  0  0  0  0  0  0  0  0  0  0  0  # atno 10167 bound_to 10162
  157.5942  130.9082  149.9662 H   0  0  0  0  0  0  0  0  0  0  0  0  # atno 10718 bound_to 10713
  153.4119  135.7008  153.6353 H   0  0  0  0  0  0  0  0  0  0  0  0  # atno 10763 bound_to 10752
  153.4844  135.3686  155.2459 H   0  0  0  0  0  0  0  0  0  0  0  0  # atno 10764 bound_to 10752
  154.8717  135.4073  154.3473 H   0  0  0  0  0  0  0  0  0  0  0  0  # atno 10765 bound_to 10752
  140.8268  133.8027  155.9716 H   0  0  0  0  0  0  0  0  0  0  0  0  # atno 11005 bound_to 11000
  145.9957  140.8564  143.0044 LP  0  0  0  0  0  0  0  0  0  0  0  0  # atno 17320 bound_to 7965
  144.6779  140.2280  143.7358 LP  0  0  0  0  0  0  0  0  0  0  0  0  # atno 17321 bound_to 7965
  140.7789  143.4897  150.9909 LP  0  0  0  0  0  0  0  0  0  0  0  0  # atno 17342 bound_to 10162
  139.8585  143.7345  152.3174 LP  0  0  0  0  0  0  0  0  0  0  0  0  # atno 17343 bound_to 10162
  156.1001  130.3656  150.0233 LP  0  0  0  0  0  0  0  0  0  0  0  0  # atno 17370 bound_to 10713
  156.8350  130.9405  151.3635 LP  0  0  0  0  0  0  0  0  0  0  0  0  # atno 17371 bound_to 10713
  140.9041  134.2342  157.5025 LP  0  0  0  0  0  0  0  0  0  0  0  0  # atno 17394 bound_to 11000
  139.8706  134.9720  156.4757 LP  0  0  0  0  0  0  0  0  0  0  0  0  # atno 17395 bound_to 11000

$$$$
