AV-unprocessed.smi:103|AV-procd|sdf|977|dock2
  -GOLD-   2262017533D 1   1.00000     0.00000
 Structure written by MMmdl.
 53 55  0  0  0  0  0  0  0  0  1 V2000
  152.7378  142.9775  159.9320 C   0  0  0  0  0  0  0  0  0  0  0  0
  151.4447  142.2296  160.2296 C   0  0  0  0  0  0  0  0  0  0  0  0
  150.7028  142.5769  161.1491 O   0  0  0  0  0  0  0  0  0  0  0  0
  151.2398  141.1963  159.3909 O   0  0  0  0  0  0  0  0  0  0  0  0
  150.0163  140.4740  159.4240 C   0  0  0  0  0  0  0  0  0  0  0  0
  149.9261  139.4915  158.2401 C   0  0  2  0  0  0  0  0  0  0  0  0
  148.8327  138.5996  158.4176 O   0  0  0  0  0  0  0  0  0  0  0  0
  149.2240  137.5440  159.2354 C   0  0  1  0  0  0  0  0  0  0  0  0
  148.4880  136.3149  158.7940 N   0  0  0  0  0  0  0  0  0  0  0  0
  147.5608  135.5546  159.4771 C   0  0  0  0  0  0  0  0  0  0  0  0
  146.9183  135.8842  161.1135 S   0  0  0  0  0  0  0  0  0  0  0  0
  145.8924  134.3898  161.4233 C   0  0  0  0  0  0  0  0  0  0  0  0
  148.0664  135.8881  162.0338 O   0  0  0  0  0  0  0  0  0  0  0  0
  146.0407  137.0598  161.0086 O   0  0  0  0  0  0  0  0  0  0  0  0
  147.0315  134.5530  158.8286 N   0  0  0  0  0  0  0  0  0  0  0  0
  147.6931  134.5844  157.6089 C   0  0  0  0  0  0  0  0  0  0  0  0
  147.6438  133.7831  156.4404 C   0  0  0  0  0  0  0  0  0  0  0  0
  146.8383  132.7193  156.3171 N   0  0  0  0  0  0  0  0  0  0  0  0
  148.4484  134.1043  155.4007 N   0  0  0  0  0  0  0  0  0  0  0  0
  149.2598  135.1621  155.4984 C   0  0  0  0  0  0  0  0  0  0  0  0
  149.4119  136.0053  156.5222 N   0  0  0  0  0  0  0  0  0  0  0  0
  148.6041  135.6785  157.5734 C   0  0  0  0  0  0  0  0  0  0  0  0
  150.7588  137.4152  159.1251 C   0  0  1  0  0  0  0  0  0  0  0  0
  151.1925  136.1417  158.6480 O   0  0  0  0  0  0  0  0  0  0  0  0
  152.4968  135.8806  158.4665 C   0  0  0  0  0  0  0  0  0  0  0  0
  152.7304  134.8675  157.3544 C   0  0  0  0  0  0  0  0  0  0  0  0
  153.4325  136.3679  159.0997 O   0  0  0  0  0  0  0  0  0  0  0  0
  151.1334  138.5475  158.1704 C   0  0  1  0  0  0  0  0  0  0  0  0
  151.2861  138.0672  156.8376 O   0  0  0  0  0  0  0  0  0  0  0  0
  151.3504  138.9198  155.8029 C   0  0  0  0  0  0  0  0  0  0  0  0
  151.3435  138.1990  154.4618 C   0  0  0  0  0  0  0  0  0  0  0  0
  151.4030  140.1474  155.8760 O   0  0  0  0  0  0  0  0  0  0  0  0
  152.5163  143.9473  159.4863 H   0  0  0  0  0  0  0  0  0  0  0  0
  153.3641  142.4142  159.2397 H   0  0  0  0  0  0  0  0  0  0  0  0
  153.3008  143.1394  160.8513 H   0  0  0  0  0  0  0  0  0  0  0  0
  150.0048  139.9076  160.3554 H   0  0  0  0  0  0  0  0  0  0  0  0
  149.1545  141.1419  159.4627 H   0  0  0  0  0  0  0  0  0  0  0  0
  149.8050  140.0568  157.3152 H   0  0  0  0  0  0  0  0  0  0  0  0
  148.8878  137.7429  160.2505 H   0  0  0  0  0  0  0  0  0  0  0  0
  145.4296  134.4660  162.4068 H   0  0  0  0  0  0  0  0  0  0  0  0
  146.5236  133.5021  161.3867 H   0  0  0  0  0  0  0  0  0  0  0  0
  145.1162  134.3132  160.6624 H   0  0  0  0  0  0  0  0  0  0  0  0
  146.2300  132.4587  157.0799 H   0  0  0  0  0  0  0  0  0  0  0  0
  146.8404  132.1811  155.4627 H   0  0  0  0  0  0  0  0  0  0  0  0
  149.8745  135.3630  154.6334 H   0  0  0  0  0  0  0  0  0  0  0  0
  151.1741  137.6403  160.1084 H   0  0  0  0  0  0  0  0  0  0  0  0
  152.2100  133.9359  157.5773 H   0  0  0  0  0  0  0  0  0  0  0  0
  153.7939  134.6521  157.2486 H   0  0  0  0  0  0  0  0  0  0  0  0
  152.3593  135.2551  156.4056 H   0  0  0  0  0  0  0  0  0  0  0  0
  152.0540  139.0331  158.4984 H   0  0  0  0  0  0  0  0  0  0  0  0
  152.2069  137.5381  154.3832 H   0  0  0  0  0  0  0  0  0  0  0  0
  151.3792  138.9149  153.6404 H   0  0  0  0  0  0  0  0  0  0  0  0
  150.4384  137.6001  154.3600 H   0  0  0  0  0  0  0  0  0  0  0  0
  1  2  1  0  0  0  0
  1 33  1  0  0  0  0
  1 34  1  0  0  0  0
  1 35  1  0  0  0  0
  2  3  2  0  0  0  0
  2  4  1  0  0  0  0
  4  5  1  0  0  0  0
  5  6  1  0  0  0  0
  5 36  1  0  0  0  0
  5 37  1  0  0  0  0
  6 28  1  0  0  0  0
  6  7  1  0  0  0  0
  6 38  1  0  0  0  0
  7  8  1  0  0  0  0
  8  9  1  0  0  0  0
  8 23  1  0  0  0  0
  8 39  1  0  0  0  0
  9 22  1  0  0  0  0
  9 10  1  0  0  0  0
 10 11  1  0  0  0  0
 10 15  2  0  0  0  0
 11 12  1  0  0  0  0
 11 13  2  0  0  0  0
 11 14  2  0  0  0  0
 12 40  1  0  0  0  0
 12 41  1  0  0  0  0
 12 42  1  0  0  0  0
 15 16  1  0  0  0  0
 16 22  2  0  0  0  0
 16 17  1  0  0  0  0
 17 18  1  0  0  0  0
 17 19  2  0  0  0  0
 18 43  1  0  0  0  0
 18 44  1  0  0  0  0
 19 20  1  0  0  0  0
 20 21  2  0  0  0  0
 20 45  1  0  0  0  0
 21 22  1  0  0  0  0
 23 24  1  0  0  0  0
 23 28  1  0  0  0  0
 23 46  1  0  0  0  0
 24 25  1  0  0  0  0
 25 26  1  0  0  0  0
 25 27  2  0  0  0  0
 26 47  1  0  0  0  0
 26 48  1  0  0  0  0
 26 49  1  0  0  0  0
 28 29  1  0  0  0  0
 28 50  1  0  0  0  0
 29 30  1  0  0  0  0
 30 31  1  0  0  0  0
 30 32  2  0  0  0  0
 31 51  1  0  0  0  0
 31 52  1  0  0  0  0
 31 53  1  0  0  0  0
M  END
> <s_m_source_file>
AV-unprocessed.smi

> <i_m_source_file_index>
103

> <i_lp_mmshare_version>
43012

> <i_f3d_flags>
0

> <s_epik_input>
W0NIM11DKD1PKU9bQ0gyXVtDQEBIXTFPW0NASF0oW0NAQEhdKE9DKD1PKVtDSDNdKVtDQEhdMU9DKD1PKVtDSDNdKW4oYyhuMilTKD1PKSg9TylbQ0gzXSljKGMyMyluW2NIXW5jM1tOSDJd

> <s_epik_cmdline>
J2VwaWtfcHl0aG9uJywgJy1waCcsICc3LjAnLCAnLXRuJywgJzgnLCAnLW1hJywgJzIwMCcsICctbWV0YWxfYmluZGluZycsICctaW1hZScsICc8aW5maWxlLm1hZT4nLCAnLW9tYWUnLCAnPG91dGZpbGUubWFlPic=

> <r_lp_tautomer_probability>
1

> <r_epik_Ionization_Penalty>
1.51338e-05

> <r_epik_Ionization_Penalty_Charging>
0

> <r_epik_Ionization_Penalty_Neutral>
1.51338e-05

> <r_epik_State_Penalty>
-0

> <r_epik_Charging_Adjusted_Penalty>
0

> <i_epik_Tot_Q>
0

> <i_epik_Tot_abs_Q>
0

> <r_epik_Metal_State_Penalty>
-0

> <b_epik_Metal_Only>
0

> <s_epik_Chemistry_Notes>
This compound has an ester and may undergo hydrolysis at high or low pH. This compound contains an acetal/aminal-like group ( X-CH(R)-Y where X, Y are N, S, or O) that may be acid/base labile, releasing an aldehyde.

> <s_lp_Force_Field>
OPLS_2005

> <r_lp_Energy>
14.6626

> <b_lp_Chiralities_Consistent>
1

> <s_lp_Variant>
AV-unprocessed.smi:103-1

> <Gold.Version>
5.8.1

> <Gold.Id.Protein>
6NUR|6NUR_protein|mol2

> <Gold.PLP.Fitness>
43.8524

> <Gold.PLP.PLP>
-36.4428

> <Gold.PLP.part.hbond>
-4.5294

> <Gold.PLP.part.metal>
0.0000

> <Gold.PLP.part.buried>
-7.5450

> <Gold.PLP.part.nonpolar>
-25.6387

> <Gold.PLP.part.repulsive>
0.2324

> <Gold.PLP.ligand.clash>
0.0000

> <Gold.PLP.ligand.torsion>
1.8566

> <Gold.PLP.Chemscore.Hbond>
2.9263

> <Gold.PLP.Chemscore.CHOScore>
0.0000

> <Gold.PLP.Chemscore.Metal>
0.0000

> <Gold.Chemscore.Hbonds>
donor molecule, donor type, donor heavy atom, donor atom, acceptor molecule, acceptor atom, score
      P1  H  6933  6945       L1     3  0.01
      P1  H  6934  6947       L1    14  0.42

> <Gold.PLP.Chemscore.Internal.Correction>
2.3441

> <Gold.Rescore>
     Score         DG    S(hbond)    S(metal)    S(lipo)     H(rot)  DE(clash)    DE(int)     intcor
     -0.02      -9.07       2.66        0.00      47.69       4.25       0.19       8.90       ----

> <Gold.Chemscore.Fitness>
-0.0217

> <Gold.Chemscore.DG>
-9.0712

> <Gold.Chemscore.ZeroCoef>
-5.4800

> <Gold.Chemscore.Hbond>
2.6587

> <Gold.Chemscore.Metal>
0.0000

> <Gold.Chemscore.Lipo>
47.6905

> <Gold.Chemscore.Internal_Hbond>
0.0000

> <Gold.Chemscore.DEClash>
0.1883

> <Gold.Chemscore.DEInternal>
8.9046

> <Gold.Chemscore.Rot>
4.2456

> <Gold.Chemscore.Internal.Correction>
   9.000000E+99

> <Gold.Chemscore.Hbonds>
donor molecule, donor type, donor heavy atom, donor atom, acceptor molecule, acceptor atom, score
      P1  H  6933  6945       L1     3  0.06
      P1  H  6934  6947       L1    14  0.37
      P1  H  7989  7998       L1    32  0.01

> <Gold.Chemscore.Hbond.Weighted>
-8.8801

> <Gold.Chemscore.Metal.Weighted>
-0.0000

> <Gold.Chemscore.Lipo.Weighted>
-5.5798

> <Gold.Chemscore.Internal_Hbond.Weighted>
0.0000

> <Gold.Chemscore.DEClash.Weighted>
0.1883

> <Gold.Chemscore.DEInternal.Weighted>
8.9046

> <Gold.Chemscore.Rot.Weighted>
10.8687

> <Gold.Chemscore.Internal.Correction.Weighted>
   9.000000E+99

> <Gold.Protein.RotatedTorsions>
[ 6907 6896 6895 6894 ] final  -53.73 input  -60.11 | X-H torsion
[ 7974 7965 7964 7962 ] final  -89.36 input  175.53 | X-H torsion
[ 8008 7997 7996 7995 ] final   94.20 input   59.86 | X-H torsion
[ 10167 10162 10161 10158 ] final    6.82 input  -65.29 | X-H torsion
[ 10718 10713 10712 10709 ] final  -60.87 input   66.30 | X-H torsion
[ 10763 10752 10751 10750 ] final -126.38 input  -60.55 | X-H torsion
[ 11005 11000 10999 10996 ] final   49.75 input  -57.11 | X-H torsion

> <Gold.Protein.ActiveResidues>
 VAL166  LYS551  ARG553  GLY616  TRP617  ASP618  TYR619  PRO620  LYS621  CYS622 
 ASP623  PHE694  ASN695  SER759  ASP760  ASP761  ALA762  ILE779  LEU786  VAL792 
 PHE793  MET794  SER795  GLU796  ALA797  LYS798  CYS799  TRP800  GLU811  SER814 

> <Gold.Protein.RotatedAtoms>
  150.8401  134.7690  159.6924 H   0  0  0  0  0  0  0  0  0  0  0  0  # atno 6907 bound_to 6896
  152.4490  134.5431  159.9854 H   0  0  0  0  0  0  0  0  0  0  0  0  # atno 6908 bound_to 6896
  151.5572  133.3370  159.3000 H   0  0  0  0  0  0  0  0  0  0  0  0  # atno 6909 bound_to 6896
  145.4409  140.9559  143.2076 H   0  0  0  0  0  0  0  0  0  0  0  0  # atno 7974 bound_to 7965
  156.0553  140.3303  155.7398 H   0  0  0  0  0  0  0  0  0  0  0  0  # atno 8008 bound_to 7997
  155.5538  140.0612  157.2861 H   0  0  0  0  0  0  0  0  0  0  0  0  # atno 8009 bound_to 7997
  154.4455  140.1889  156.0702 H   0  0  0  0  0  0  0  0  0  0  0  0  # atno 8010 bound_to 7997
  140.6407  143.7782  150.7423 H   0  0  0  0  0  0  0  0  0  0  0  0  # atno 10167 bound_to 10162
  156.0961  130.4193  150.0914 H   0  0  0  0  0  0  0  0  0  0  0  0  # atno 10718 bound_to 10713
  154.8745  135.3997  154.3421 H   0  0  0  0  0  0  0  0  0  0  0  0  # atno 10763 bound_to 10752
  153.4218  135.7023  153.6294 H   0  0  0  0  0  0  0  0  0  0  0  0  # atno 10764 bound_to 10752
  153.4953  135.3739  155.2482 H   0  0  0  0  0  0  0  0  0  0  0  0  # atno 10765 bound_to 10752
  140.1076  134.4998  155.8706 H   0  0  0  0  0  0  0  0  0  0  0  0  # atno 11005 bound_to 11000
  144.8122  139.5941  143.7024 LP  0  0  0  0  0  0  0  0  0  0  0  0  # atno 17320 bound_to 7965
  146.2557  139.6297  142.9397 LP  0  0  0  0  0  0  0  0  0  0  0  0  # atno 17321 bound_to 7965
  140.1412  143.4439  152.2192 LP  0  0  0  0  0  0  0  0  0  0  0  0  # atno 17342 bound_to 10162
  139.5616  144.7409  151.4139 LP  0  0  0  0  0  0  0  0  0  0  0  0  # atno 17343 bound_to 10162
  156.8913  130.9589  151.3588 LP  0  0  0  0  0  0  0  0  0  0  0  0  # atno 17370 bound_to 10713
  157.6122  130.8591  149.8970 LP  0  0  0  0  0  0  0  0  0  0  0  0  # atno 17371 bound_to 10713
  141.2122  133.6716  156.6641 LP  0  0  0  0  0  0  0  0  0  0  0  0  # atno 17394 bound_to 11000
  140.3135  134.8067  157.4195 LP  0  0  0  0  0  0  0  0  0  0  0  0  # atno 17395 bound_to 11000

$$$$
