AV-unprocessed.smi:2027|AV-procd|sdf|8210|dock1
  -GOLD-   2272010473D 1   1.00000     0.00000
 Structure written by MMmdl.
 49 51  0  0  0  0  0  0  0  0  1 V2000
  153.7297  142.0216  162.3738 C   0  0  0  0  0  0  0  0  0  0  0  0
  153.1117  141.8879  160.9932 C   0  0  0  0  0  0  0  0  0  0  0  0
  153.4736  140.7883  160.1814 C   0  0  0  0  0  0  0  0  0  0  0  0
  152.9233  140.6286  158.8904 C   0  0  0  0  0  0  0  0  0  0  0  0
  153.1291  139.6468  157.9353 N   0  0  0  0  0  0  0  0  0  0  0  0
  152.3338  140.0570  156.9505 C   0  0  0  0  0  0  0  0  0  0  0  0
  151.6395  141.1923  157.1557 N   0  0  0  0  0  0  0  0  0  0  0  0
  150.7154  141.8483  156.2522 C   0  0  0  0  0  0  0  0  0  0  0  0
  149.9213  140.8310  155.4080 C   0  0  1  0  0  0  0  0  0  0  0  0
  149.2088  139.9743  156.2762 O   0  0  0  0  0  0  0  0  0  0  0  0
  148.9215  141.5055  154.4458 C   0  0  0  0  0  0  0  0  0  0  0  0
  147.6780  140.7615  154.2256 N   0  0  0  0  0  0  0  0  0  0  0  0
  147.9306  139.5786  153.4088 C   0  0  0  0  0  0  0  0  0  0  0  0
  146.6183  141.5860  153.6364 C   0  0  0  0  0  0  0  0  0  0  0  0
  145.9306  142.4628  154.6490 C   0  0  0  0  0  0  0  0  0  0  0  0
  146.1884  142.5547  156.0464 C   0  0  0  0  0  0  0  0  0  0  0  0
  145.3852  143.4065  156.6632 N   0  0  0  0  0  0  0  0  0  0  0  0
  144.5880  143.8845  155.6857 N   0  0  0  0  0  0  0  0  0  0  0  0
  143.5614  144.8523  156.0082 C   0  0  0  0  0  0  0  0  0  0  0  0
  144.8927  143.3324  154.4612 C   0  0  0  0  0  0  0  0  0  0  0  0
  151.9956  141.6077  158.4325 C   0  0  0  0  0  0  0  0  0  0  0  0
  151.6267  142.7048  159.2298 C   0  0  0  0  0  0  0  0  0  0  0  0
  152.1831  142.8485  160.5170 C   0  0  0  0  0  0  0  0  0  0  0  0
  151.7750  144.0379  161.3686 C   0  0  0  0  0  0  0  0  0  0  0  0
  154.4779  141.2484  162.5516 H   0  0  0  0  0  0  0  0  0  0  0  0
  152.9632  141.9306  163.1438 H   0  0  0  0  0  0  0  0  0  0  0  0
  154.2188  142.9897  162.4832 H   0  0  0  0  0  0  0  0  0  0  0  0
  154.1797  140.0561  160.5446 H   0  0  0  0  0  0  0  0  0  0  0  0
  152.2531  139.5029  156.0266 H   0  0  0  0  0  0  0  0  0  0  0  0
  150.0475  142.4970  156.8206 H   0  0  0  0  0  0  0  0  0  0  0  0
  151.3056  142.5022  155.6095 H   0  0  0  0  0  0  0  0  0  0  0  0
  150.6087  140.1959  154.8514 H   0  0  0  0  0  0  0  0  0  0  0  0
  148.7165  140.5062  156.8828 H   0  0  0  0  0  0  0  0  0  0  0  0
  148.6835  142.5075  154.8066 H   0  0  0  0  0  0  0  0  0  0  0  0
  149.4287  141.6454  153.4899 H   0  0  0  0  0  0  0  0  0  0  0  0
  147.0275  138.9795  153.2901 H   0  0  0  0  0  0  0  0  0  0  0  0
  148.6830  138.9406  153.8737 H   0  0  0  0  0  0  0  0  0  0  0  0
  148.2880  139.8553  152.4160 H   0  0  0  0  0  0  0  0  0  0  0  0
  147.0271  142.2296  152.8610 H   0  0  0  0  0  0  0  0  0  0  0  0
  145.9009  140.9447  153.1223 H   0  0  0  0  0  0  0  0  0  0  0  0
  146.9299  142.0269  156.6280 H   0  0  0  0  0  0  0  0  0  0  0  0
  143.1851  145.3144  155.0950 H   0  0  0  0  0  0  0  0  0  0  0  0
  143.9707  145.6298  156.6546 H   0  0  0  0  0  0  0  0  0  0  0  0
  142.7372  144.3555  156.5204 H   0  0  0  0  0  0  0  0  0  0  0  0
  144.3496  143.5959  153.5653 H   0  0  0  0  0  0  0  0  0  0  0  0
  150.9220  143.4300  158.8515 H   0  0  0  0  0  0  0  0  0  0  0  0
  150.9888  144.6204  160.8869 H   0  0  0  0  0  0  0  0  0  0  0  0
  152.6276  144.6967  161.5352 H   0  0  0  0  0  0  0  0  0  0  0  0
  151.3978  143.7067  162.3363 H   0  0  0  0  0  0  0  0  0  0  0  0
  1  2  1  0  0  0  0
  1 25  1  0  0  0  0
  1 26  1  0  0  0  0
  1 27  1  0  0  0  0
  2 23  1  0  0  0  0
  2  3  2  0  0  0  0
  3  4  1  0  0  0  0
  3 28  1  0  0  0  0
  4 21  2  0  0  0  0
  4  5  1  0  0  0  0
  5  6  2  0  0  0  0
  6  7  1  0  0  0  0
  6 29  1  0  0  0  0
  7  8  1  0  0  0  0
  7 21  1  0  0  0  0
  8  9  1  0  0  0  0
  8 30  1  0  0  0  0
  8 31  1  0  0  0  0
  9 10  1  0  0  0  0
  9 11  1  0  0  0  0
  9 32  1  0  0  0  0
 10 33  1  0  0  0  0
 11 12  1  0  0  0  0
 11 34  1  0  0  0  0
 11 35  1  0  0  0  0
 12 13  1  0  0  0  0
 12 14  1  0  0  0  0
 13 36  1  0  0  0  0
 13 37  1  0  0  0  0
 13 38  1  0  0  0  0
 14 15  1  0  0  0  0
 14 39  1  0  0  0  0
 14 40  1  0  0  0  0
 15 20  2  0  0  0  0
 15 16  1  0  0  0  0
 16 17  2  0  0  0  0
 16 41  1  0  0  0  0
 17 18  1  0  0  0  0
 18 19  1  0  0  0  0
 18 20  1  0  0  0  0
 19 42  1  0  0  0  0
 19 43  1  0  0  0  0
 19 44  1  0  0  0  0
 20 45  1  0  0  0  0
 21 22  1  0  0  0  0
 22 23  2  0  0  0  0
 22 46  1  0  0  0  0
 23 24  1  0  0  0  0
 24 47  1  0  0  0  0
 24 48  1  0  0  0  0
 24 49  1  0  0  0  0
M  END
> <s_m_source_file>
AV-unprocessed.smi

> <i_m_source_file_index>
2027

> <i_lp_mmshare_version>
43012

> <i_f3d_flags>
0

> <s_epik_input>
W0NIM11jKFtjSF0xKWMoW0NIM10pW2NIXWMoYzEyKW4oW2NIXW4yKVtDSDJdW0NASF0oW09IXSlbQ0gyXU4oW0NIM10pW0NIMl1jM1tjSF1ubihbQ0gzXSlbY0hdMw==

> <s_epik_cmdline>
J2VwaWtfcHl0aG9uJywgJy1waCcsICc3LjAnLCAnLXRuJywgJzgnLCAnLW1hJywgJzIwMCcsICctbWV0YWxfYmluZGluZycsICctaW1hZScsICc8aW5maWxlLm1hZT4nLCAnLW9tYWUnLCAnPG91dGZpbGUubWFlPic=

> <r_lp_tautomer_probability>
1

> <r_epik_Ionization_Penalty>
0.374241

> <r_epik_Ionization_Penalty_Charging>
0

> <r_epik_Ionization_Penalty_Neutral>
0.374241

> <r_epik_State_Penalty>
0.350767

> <r_epik_Charging_Adjusted_Penalty>
0.350767

> <i_epik_Tot_Q>
0

> <i_epik_Tot_abs_Q>
0

> <r_epik_Metal_State_Penalty>
0.343203

> <b_epik_Metal_Only>
0

> <s_lp_Force_Field>
OPLS_2005

> <r_lp_Energy>
13.5697

> <b_lp_Chiralities_Consistent>
1

> <s_lp_Variant>
AV-unprocessed.smi:2027-2

> <Gold.Version>
5.8.1

> <Gold.Id.Protein>
6NUR|6NUR_protein|mol2

> <Gold.PLP.Fitness>
52.8918

> <Gold.PLP.PLP>
-48.9564

> <Gold.PLP.part.hbond>
-1.0000

> <Gold.PLP.part.metal>
0.0000

> <Gold.PLP.part.buried>
-2.6824

> <Gold.PLP.part.nonpolar>
-45.0786

> <Gold.PLP.part.repulsive>
0.2963

> <Gold.PLP.ligand.clash>
0.0000

> <Gold.PLP.ligand.torsion>
1.1344

> <Gold.PLP.Chemscore.Hbond>
0.9272

> <Gold.PLP.Chemscore.CHOScore>
1.0000

> <Gold.PLP.Chemscore.Metal>
0.0000

> <Gold.Chemscore.Hbonds>
donor molecule, donor type, donor heavy atom, donor atom, acceptor molecule, acceptor atom, score
      P1  H  7997  8009       L1     5  0.94
      L1  C    20    45       P1 10174  0.95

> <Gold.PLP.Chemscore.Internal.Correction>
0.4226

> <Gold.Rescore>
     Score         DG    S(hbond)    S(metal)    S(lipo)     H(rot)  DE(clash)    DE(int)     intcor
     14.78     -16.10       0.42        0.00     131.64       2.42       0.26       1.07       ----

> <Gold.Chemscore.Fitness>
14.7792

> <Gold.Chemscore.DG>
-16.1023

> <Gold.Chemscore.ZeroCoef>
-5.4800

> <Gold.Chemscore.Hbond>
0.4238

> <Gold.Chemscore.Metal>
0.0000

> <Gold.Chemscore.Lipo>
131.6362

> <Gold.Chemscore.Internal_Hbond>
0.0000

> <Gold.Chemscore.DEClash>
0.2572

> <Gold.Chemscore.DEInternal>
1.0660

> <Gold.Chemscore.Rot>
2.4198

> <Gold.Chemscore.Internal.Correction>
   9.000000E+99

> <Gold.Chemscore.Hbonds>
donor molecule, donor type, donor heavy atom, donor atom, acceptor molecule, acceptor atom, score
      P1  H  7997  8009       L1     5  0.11

> <Gold.Chemscore.Hbond.Weighted>
-1.4157

> <Gold.Chemscore.Metal.Weighted>
-0.0000

> <Gold.Chemscore.Lipo.Weighted>
-15.4014

> <Gold.Chemscore.Internal_Hbond.Weighted>
0.0000

> <Gold.Chemscore.DEClash.Weighted>
0.2572

> <Gold.Chemscore.DEInternal.Weighted>
1.0660

> <Gold.Chemscore.Rot.Weighted>
6.1948

> <Gold.Chemscore.Internal.Correction.Weighted>
   9.000000E+99

> <Gold.Protein.RotatedTorsions>
[ 6907 6896 6895 6894 ] final   -3.69 input  -60.11 | X-H torsion
[ 7974 7965 7964 7962 ] final   64.92 input  175.53 | X-H torsion
[ 8008 7997 7996 7995 ] final  141.66 input   59.86 | X-H torsion
[ 10167 10162 10161 10158 ] final  157.57 input  -65.29 | X-H torsion
[ 10718 10713 10712 10709 ] final  -78.25 input   66.30 | X-H torsion
[ 10763 10752 10751 10750 ] final   43.90 input  -60.55 | X-H torsion
[ 11005 11000 10999 10996 ] final    8.18 input  -57.11 | X-H torsion

> <Gold.Protein.ActiveResidues>
 VAL166  LYS551  ARG553  GLY616  TRP617  ASP618  TYR619  PRO620  LYS621  CYS622 
 ASP623  PHE694  ASN695  SER759  ASP760  ASP761  ALA762  ILE779  LEU786  VAL792 
 PHE793  MET794  SER795  GLU796  ALA797  LYS798  CYS799  TRP800  GLU811  SER814 

> <Gold.Protein.RotatedAtoms>
  151.5097  135.1064  159.9850 H   0  0  0  0  0  0  0  0  0  0  0  0  # atno 6907 bound_to 6896
  152.4666  133.7934  159.6924 H   0  0  0  0  0  0  0  0  0  0  0  0  # atno 6908 bound_to 6896
  150.8654  133.7519  159.3004 H   0  0  0  0  0  0  0  0  0  0  0  0  # atno 6909 bound_to 6896
  145.8445  139.3216  143.0911 H   0  0  0  0  0  0  0  0  0  0  0  0  # atno 7974 bound_to 7965
  156.2962  140.2309  156.4601 H   0  0  0  0  0  0  0  0  0  0  0  0  # atno 8008 bound_to 7997
  154.8026  140.0447  157.1305 H   0  0  0  0  0  0  0  0  0  0  0  0  # atno 8009 bound_to 7997
  154.9516  140.3042  155.5076 H   0  0  0  0  0  0  0  0  0  0  0  0  # atno 8010 bound_to 7997
  139.4823  144.4905  151.8315 H   0  0  0  0  0  0  0  0  0  0  0  0  # atno 10167 bound_to 10162
  156.0122  130.4513  150.3468 H   0  0  0  0  0  0  0  0  0  0  0  0  # atno 10718 bound_to 10713
  152.9851  135.6087  154.3187 H   0  0  0  0  0  0  0  0  0  0  0  0  # atno 10763 bound_to 10752
  154.2898  135.2775  155.2661 H   0  0  0  0  0  0  0  0  0  0  0  0  # atno 10764 bound_to 10752
  154.4962  135.5879  153.6553 H   0  0  0  0  0  0  0  0  0  0  0  0  # atno 10765 bound_to 10752
  140.5399  134.0384  155.7901 H   0  0  0  0  0  0  0  0  0  0  0  0  # atno 11005 bound_to 11000
  145.9427  140.8967  143.0299 LP  0  0  0  0  0  0  0  0  0  0  0  0  # atno 17320 bound_to 7965
  144.6732  140.1571  143.7425 LP  0  0  0  0  0  0  0  0  0  0  0  0  # atno 17321 bound_to 7965
  140.4389  144.2014  150.5890 LP  0  0  0  0  0  0  0  0  0  0  0  0  # atno 17342 bound_to 10162
  140.4704  143.2415  151.9097 LP  0  0  0  0  0  0  0  0  0  0  0  0  # atno 17343 bound_to 10162
  157.1562  131.0333  151.2862 LP  0  0  0  0  0  0  0  0  0  0  0  0  # atno 17370 bound_to 10713
  157.4350  130.7512  149.7022 LP  0  0  0  0  0  0  0  0  0  0  0  0  # atno 17371 bound_to 10713
  141.1233  133.9425  157.2686 LP  0  0  0  0  0  0  0  0  0  0  0  0  # atno 17394 bound_to 11000
  139.9509  135.0175  156.8992 LP  0  0  0  0  0  0  0  0  0  0  0  0  # atno 17395 bound_to 11000

$$$$
