AV-unprocessed.smi:3345|AV-procd|sdf|12900|dock4
  -GOLD-   2272019313D 1   1.00000     0.00000
 Structure written by MMmdl.
 40 41  0  0  0  0  0  0  0  0  1 V2000
  147.8424  134.2460  155.5469 C   0  0  0  0  0  0  0  0  0  0  0  0
  148.5890  134.0767  154.2147 C   0  0  1  0  0  0  0  0  0  0  0  0
  149.0523  132.6182  154.0060 C   0  0  0  0  0  0  0  0  0  0  0  0
  149.9456  132.0943  155.0397 N   0  0  0  0  0  0  0  0  0  0  0  0
  149.2320  131.6792  156.2456 C   0  0  0  0  0  0  0  0  0  0  0  0
  150.1899  131.1589  157.3316 C   0  0  0  0  0  0  0  0  0  0  0  0
  151.1626  132.1545  157.6309 O   0  0  0  0  0  0  0  0  0  0  0  0
  151.9146  132.5468  156.4874 C   0  0  0  0  0  0  0  0  0  0  0  0
  150.9604  133.0775  155.4035 C   0  0  0  0  0  0  0  0  0  0  0  0
  147.6987  134.4762  153.1271 N   0  0  0  0  0  0  0  0  0  0  0  0
  146.4687  133.9861  152.9043 C   0  0  0  0  0  0  0  0  0  0  0  0
  145.9403  133.1348  153.6202 O   0  0  0  0  0  0  0  0  0  0  0  0
  145.7291  134.5366  151.6769 C   0  0  2  0  0  0  0  0  0  0  0  0
  144.5115  135.3945  152.0763 C   0  0  0  0  0  0  0  0  0  0  0  0
  145.3779  133.4430  150.7780 N   0  0  0  0  0  0  0  0  0  0  0  0
  144.1831  133.0656  150.3174 C   0  0  0  0  0  0  0  0  0  0  0  0
  144.2288  132.0523  149.4639 N   0  0  0  0  0  0  0  0  0  0  0  0
  145.5786  131.8471  149.4267 C   0  0  0  0  0  0  0  0  0  0  0  0
  146.3138  132.6594  150.1854 N   0  0  0  0  0  0  0  0  0  0  0  0
  148.4804  133.9812  156.3906 H   0  0  0  0  0  0  0  0  0  0  0  0
  146.9548  133.6135  155.5889 H   0  0  0  0  0  0  0  0  0  0  0  0
  147.5231  135.2788  155.6913 H   0  0  0  0  0  0  0  0  0  0  0  0
  149.4690  134.7221  154.2479 H   0  0  0  0  0  0  0  0  0  0  0  0
  148.1609  131.9896  153.9946 H   0  0  0  0  0  0  0  0  0  0  0  0
  149.5006  132.4962  153.0184 H   0  0  0  0  0  0  0  0  0  0  0  0
  148.6564  132.5169  156.6420 H   0  0  0  0  0  0  0  0  0  0  0  0
  148.5175  130.8916  156.0087 H   0  0  0  0  0  0  0  0  0  0  0  0
  149.6377  130.9149  158.2391 H   0  0  0  0  0  0  0  0  0  0  0  0
  150.6855  130.2442  157.0024 H   0  0  0  0  0  0  0  0  0  0  0  0
  152.6282  133.3185  156.7763 H   0  0  0  0  0  0  0  0  0  0  0  0
  152.4918  131.6994  156.1137 H   0  0  0  0  0  0  0  0  0  0  0  0
  151.5392  133.3560  154.5220 H   0  0  0  0  0  0  0  0  0  0  0  0
  150.4803  133.9895  155.7620 H   0  0  0  0  0  0  0  0  0  0  0  0
  148.0500  135.1755  152.4892 H   0  0  0  0  0  0  0  0  0  0  0  0
  146.4150  135.1864  151.1303 H   0  0  0  0  0  0  0  0  0  0  0  0
  144.8151  136.2376  152.6978 H   0  0  0  0  0  0  0  0  0  0  0  0
  143.7701  134.8238  152.6373 H   0  0  0  0  0  0  0  0  0  0  0  0
  144.0171  135.8013  151.1937 H   0  0  0  0  0  0  0  0  0  0  0  0
  143.2606  133.5461  150.6084 H   0  0  0  0  0  0  0  0  0  0  0  0
  146.0337  131.0801  148.8172 H   0  0  0  0  0  0  0  0  0  0  0  0
  1  2  1  0  0  0  0
  1 20  1  0  0  0  0
  1 21  1  0  0  0  0
  1 22  1  0  0  0  0
  2  3  1  0  0  0  0
  2 10  1  0  0  0  0
  2 23  1  0  0  0  0
  3  4  1  0  0  0  0
  3 24  1  0  0  0  0
  3 25  1  0  0  0  0
  4  9  1  0  0  0  0
  4  5  1  0  0  0  0
  5  6  1  0  0  0  0
  5 26  1  0  0  0  0
  5 27  1  0  0  0  0
  6  7  1  0  0  0  0
  6 28  1  0  0  0  0
  6 29  1  0  0  0  0
  7  8  1  0  0  0  0
  8  9  1  0  0  0  0
  8 30  1  0  0  0  0
  8 31  1  0  0  0  0
  9 32  1  0  0  0  0
  9 33  1  0  0  0  0
 10 11  1  0  0  0  0
 10 34  1  0  0  0  0
 11 12  2  0  0  0  0
 11 13  1  0  0  0  0
 13 14  1  0  0  0  0
 13 15  1  0  0  0  0
 13 35  1  0  0  0  0
 14 36  1  0  0  0  0
 14 37  1  0  0  0  0
 14 38  1  0  0  0  0
 15 19  1  0  0  0  0
 15 16  1  0  0  0  0
 16 17  2  0  0  0  0
 16 39  1  0  0  0  0
 17 18  1  0  0  0  0
 18 19  2  0  0  0  0
 18 40  1  0  0  0  0
M  END
> <s_m_source_file>
AV-unprocessed.smi

> <i_m_source_file_index>
3345

> <i_lp_mmshare_version>
43012

> <i_f3d_flags>
0

> <s_epik_input>
W0NIMl0xW0NIMl1PW0NIMl1bQ0gyXU4xW0NIMl1bQ0BASF0oW0NIM10pW05IXUMoPU8pW0NASF0oW0NIM10pbjJbY0hdbltjSF1uMg==

> <s_epik_cmdline>
J2VwaWtfcHl0aG9uJywgJy1waCcsICc3LjAnLCAnLXRuJywgJzgnLCAnLW1hJywgJzIwMCcsICctbWV0YWxfYmluZGluZycsICctaW1hZScsICc8aW5maWxlLm1hZT4nLCAnLW9tYWUnLCAnPG91dGZpbGUubWFlPic=

> <r_lp_tautomer_probability>
1

> <r_epik_Ionization_Penalty>
0.211373

> <r_epik_Ionization_Penalty_Charging>
0

> <r_epik_Ionization_Penalty_Neutral>
0.211373

> <r_epik_State_Penalty>
0.201459

> <r_epik_Charging_Adjusted_Penalty>
0.201459

> <i_epik_Tot_Q>
0

> <i_epik_Tot_abs_Q>
0

> <r_epik_Metal_State_Penalty>
0.201458

> <b_epik_Metal_Only>
0

> <s_lp_Force_Field>
OPLS_2005

> <r_lp_Energy>
31.9378

> <b_lp_Chiralities_Consistent>
1

> <s_lp_Variant>
AV-unprocessed.smi:3345-2

> <Gold.Version>
5.8.1

> <Gold.Id.Protein>
6NUR|6NUR_protein|mol2

> <Gold.PLP.Fitness>
36.1140

> <Gold.PLP.PLP>
-26.7811

> <Gold.PLP.part.hbond>
-2.9623

> <Gold.PLP.part.metal>
0.0000

> <Gold.PLP.part.buried>
-5.8796

> <Gold.PLP.part.nonpolar>
-19.4497

> <Gold.PLP.part.repulsive>
0.5064

> <Gold.PLP.ligand.clash>
0.0000

> <Gold.PLP.ligand.torsion>
0.3056

> <Gold.PLP.Chemscore.Hbond>
2.2332

> <Gold.PLP.Chemscore.CHOScore>
1.0000

> <Gold.PLP.Chemscore.Metal>
0.0000

> <Gold.Chemscore.Hbonds>
donor molecule, donor type, donor heavy atom, donor atom, acceptor molecule, acceptor atom, score
      L1  H    10    34       P1  7948  0.91
      P1  H  6896  6909       L1     7  1.00
      P1  H 10785 10796       L1    17  0.25
      L1  C    16    39       P1 10186  0.73

> <Gold.PLP.Chemscore.Internal.Correction>
0.2445

> <Gold.Rescore>
     Score         DG    S(hbond)    S(metal)    S(lipo)     H(rot)  DE(clash)    DE(int)     intcor
     10.01     -11.61       2.49        0.00      36.83       2.54       0.02       1.58       ----

> <Gold.Chemscore.Fitness>
10.0107

> <Gold.Chemscore.DG>
-11.6144

> <Gold.Chemscore.ZeroCoef>
-5.4800

> <Gold.Chemscore.Hbond>
2.4898

> <Gold.Chemscore.Metal>
0.0000

> <Gold.Chemscore.Lipo>
36.8288

> <Gold.Chemscore.Internal_Hbond>
0.0000

> <Gold.Chemscore.DEClash>
0.0231

> <Gold.Chemscore.DEInternal>
1.5805

> <Gold.Chemscore.Rot>
2.5353

> <Gold.Chemscore.Internal.Correction>
   9.000000E+99

> <Gold.Chemscore.Hbonds>
donor molecule, donor type, donor heavy atom, donor atom, acceptor molecule, acceptor atom, score
      L1  H    10    34       P1  7948  0.82
      P1  H  6896  6909       L1     7  0.82
      P1  H 10785 10796       L1    17  0.15

> <Gold.Chemscore.Hbond.Weighted>
-8.3159

> <Gold.Chemscore.Metal.Weighted>
-0.0000

> <Gold.Chemscore.Lipo.Weighted>
-4.3090

> <Gold.Chemscore.Internal_Hbond.Weighted>
0.0000

> <Gold.Chemscore.DEClash.Weighted>
0.0231

> <Gold.Chemscore.DEInternal.Weighted>
1.5805

> <Gold.Chemscore.Rot.Weighted>
6.4905

> <Gold.Chemscore.Internal.Correction.Weighted>
   9.000000E+99

> <Gold.Protein.RotatedTorsions>
[ 6907 6896 6895 6894 ] final  -50.80 input  -60.11 | X-H torsion
[ 7974 7965 7964 7962 ] final   -5.63 input  175.53 | X-H torsion
[ 8008 7997 7996 7995 ] final -120.82 input   59.86 | X-H torsion
[ 10167 10162 10161 10158 ] final   93.35 input  -65.29 | X-H torsion
[ 10718 10713 10712 10709 ] final  103.78 input   66.30 | X-H torsion
[ 10763 10752 10751 10750 ] final   48.25 input  -60.55 | X-H torsion
[ 11005 11000 10999 10996 ] final   29.10 input  -57.11 | X-H torsion

> <Gold.Protein.ActiveResidues>
 VAL166  LYS551  ARG553  GLY616  TRP617  ASP618  TYR619  PRO620  LYS621  CYS622 
 ASP623  PHE694  ASN695  SER759  ASP760  ASP761  ALA762  ILE779  LEU786  VAL792 
 PHE793  MET794  SER795  GLU796  ALA797  LYS798  CYS799  TRP800  GLU811  SER814 

> <Gold.Protein.RotatedAtoms>
  150.8672  134.8038  159.7127 H   0  0  0  0  0  0  0  0  0  0  0  0  # atno 6907 bound_to 6896
  152.4689  134.5005  159.9733 H   0  0  0  0  0  0  0  0  0  0  0  0  # atno 6908 bound_to 6896
  151.5099  133.3448  159.2919 H   0  0  0  0  0  0  0  0  0  0  0  0  # atno 6909 bound_to 6896
  146.2348  140.2050  142.8334 H   0  0  0  0  0  0  0  0  0  0  0  0  # atno 7974 bound_to 7965
  155.1379  140.0401  157.2791 H   0  0  0  0  0  0  0  0  0  0  0  0  # atno 8008 bound_to 7997
  154.6494  140.2565  155.7204 H   0  0  0  0  0  0  0  0  0  0  0  0  # atno 8009 bound_to 7997
  156.2570  140.2839  156.0921 H   0  0  0  0  0  0  0  0  0  0  0  0  # atno 8010 bound_to 7997
  139.8188  144.6740  150.9545 H   0  0  0  0  0  0  0  0  0  0  0  0  # atno 10167 bound_to 10162
  157.6761  131.0787  150.5607 H   0  0  0  0  0  0  0  0  0  0  0  0  # atno 10718 bound_to 10713
  152.9793  135.5950  154.3896 H   0  0  0  0  0  0  0  0  0  0  0  0  # atno 10763 bound_to 10752
  154.3552  135.2767  155.2352 H   0  0  0  0  0  0  0  0  0  0  0  0  # atno 10764 bound_to 10752
  154.4373  135.6021  153.6162 H   0  0  0  0  0  0  0  0  0  0  0  0  # atno 10765 bound_to 10752
  140.3086  134.2675  155.7739 H   0  0  0  0  0  0  0  0  0  0  0  0  # atno 11005 bound_to 11000
  144.9751  140.8406  143.5431 LP  0  0  0  0  0  0  0  0  0  0  0  0  # atno 17320 bound_to 7965
  145.2037  139.2239  143.5179 LP  0  0  0  0  0  0  0  0  0  0  0  0  # atno 17321 bound_to 7965
  140.7814  143.4112  151.0990 LP  0  0  0  0  0  0  0  0  0  0  0  0  # atno 17342 bound_to 10162
  139.7774  143.8406  152.3131 LP  0  0  0  0  0  0  0  0  0  0  0  0  # atno 17343 bound_to 10162
  156.5910  130.4329  149.5937 LP  0  0  0  0  0  0  0  0  0  0  0  0  # atno 17370 bound_to 10713
  156.2583  130.6948  151.1708 LP  0  0  0  0  0  0  0  0  0  0  0  0  # atno 17371 bound_to 10713
  141.2113  133.7693  156.9873 LP  0  0  0  0  0  0  0  0  0  0  0  0  # atno 17394 bound_to 11000
  140.1045  134.9515  157.1973 LP  0  0  0  0  0  0  0  0  0  0  0  0  # atno 17395 bound_to 11000

$$$$
