AV-unprocessed.smi:464|AV-procd|sdf|2638|dock2
  -GOLD-   2262023 43D 1   1.00000     0.00000
 Structure written by MMmdl.
 24 25  0  0  0  0  0  0  0  0  2 V2000
  153.2444  136.5476  159.7927 O   0  0  0  0  0  0  0  0  0  0  0  0
  153.3308  137.7614  159.9651 C   0  0  0  0  0  0  0  0  0  0  0  0
  152.6310  138.5610  159.1309 N   0  0  0  0  0  0  0  0  0  0  0  0
  152.6663  139.9520  159.2454 C   0  0  0  0  0  0  0  0  0  0  0  0
  153.4042  140.5583  160.1987 C   0  0  0  0  0  0  0  0  0  0  0  0
  153.4625  141.9371  160.3359 N   0  0  0  0  0  0  0  0  0  0  0  0
  153.3943  142.6138  161.6234 C   0  0  0  0  0  0  0  0  0  0  0  0
  152.1548  143.5245  161.6784 C   0  0  0  0  0  0  0  0  0  0  0  0
  152.1809  144.4333  160.5808 O   0  0  0  0  0  0  0  0  0  0  0  0
  152.1617  143.7584  159.3256 C   0  0  0  0  0  0  0  0  0  0  0  0
  153.4018  142.8543  159.2067 C   0  0  0  0  0  0  0  0  0  0  0  0
  154.1700  139.7010  161.1172 C   0  0  0  0  0  0  0  0  0  0  0  0
  154.8555  140.2073  162.0058 O   0  0  0  0  0  0  0  0  0  0  0  0
  154.0873  138.3467  160.9437 N   0  5  0  0  0  0  0  0  0  0  0  0
  152.0647  138.1568  158.3993 H   0  0  0  0  0  0  0  0  0  0  0  0
  152.0646  140.4735  158.5161 H   0  0  0  0  0  0  0  0  0  0  0  0
  153.3604  141.8838  162.4332 H   0  0  0  0  0  0  0  0  0  0  0  0
  154.3018  143.2017  161.7642 H   0  0  0  0  0  0  0  0  0  0  0  0
  151.2363  142.9361  161.6554 H   0  0  0  0  0  0  0  0  0  0  0  0
  152.1455  144.0915  162.6093 H   0  0  0  0  0  0  0  0  0  0  0  0
  151.2438  143.1768  159.2273 H   0  0  0  0  0  0  0  0  0  0  0  0
  152.1568  144.4979  158.5247 H   0  0  0  0  0  0  0  0  0  0  0  0
  154.3098  143.4580  159.1895 H   0  0  0  0  0  0  0  0  0  0  0  0
  153.3724  142.2984  158.2686 H   0  0  0  0  0  0  0  0  0  0  0  0
  1  2  2  0  0  0  0
  2 14  1  0  0  0  0
  2  3  1  0  0  0  0
  3 15  1  0  0  0  0
  3  4  1  0  0  0  0
  4  5  2  0  0  0  0
  4 16  1  0  0  0  0
  5  6  1  0  0  0  0
  5 12  1  0  0  0  0
  6 11  1  0  0  0  0
  6  7  1  0  0  0  0
  7  8  1  0  0  0  0
  7 17  1  0  0  0  0
  7 18  1  0  0  0  0
  8  9  1  0  0  0  0
  8 19  1  0  0  0  0
  8 20  1  0  0  0  0
  9 10  1  0  0  0  0
 10 11  1  0  0  0  0
 10 21  1  0  0  0  0
 10 22  1  0  0  0  0
 11 23  1  0  0  0  0
 11 24  1  0  0  0  0
 12 13  2  0  0  0  0
 12 14  1  0  0  0  0
M  CHG  1  14  -1
M  END
> <s_m_source_file>
AV-unprocessed.smi

> <i_m_source_file_index>
464

> <i_lp_mmshare_version>
43012

> <i_f3d_flags>
0

> <s_epik_input>
Tz1jMVtuSF1bY0hdYyhjKD1PKVtuSF0xKU4yW0NIMl1bQ0gyXU9bQ0gyXVtDSDJdMg==

> <s_epik_cmdline>
J2VwaWtfcHl0aG9uJywgJy1waCcsICc3LjAnLCAnLXRuJywgJzgnLCAnLW1hJywgJzIwMCcsICctbWV0YWxfYmluZGluZycsICctaW1hZScsICc8aW5maWxlLm1hZT4nLCAnLW9tYWUnLCAnPG91dGZpbGUubWFlPic=

> <r_lp_tautomer_probability>
0.999801

> <r_epik_Ionization_Penalty>
3.03283

> <r_epik_Ionization_Penalty_Charging>
1.33068e-05

> <r_epik_Ionization_Penalty_Neutral>
3.03282

> <r_epik_State_Penalty>
3.03418

> <r_epik_Charging_Adjusted_Penalty>
3.03419

> <i_epik_Tot_Q>
-1

> <i_epik_Tot_abs_Q>
1

> <r_epik_Metal_State_Penalty>
0.478531

> <b_epik_Metal_Only>
1

> <s_lp_Force_Field>
OPLS_2005

> <r_lp_Energy>
27.0677

> <b_lp_Chiralities_Consistent>
1

> <s_lp_Variant>
AV-unprocessed.smi:464-3

> <Gold.Version>
5.8.1

> <Gold.Id.Protein>
6NUR|6NUR_protein|mol2

> <Gold.PLP.Fitness>
31.8833

> <Gold.PLP.PLP>
-29.2736

> <Gold.PLP.part.hbond>
-1.0000

> <Gold.PLP.part.metal>
0.0000

> <Gold.PLP.part.buried>
-4.5135

> <Gold.PLP.part.nonpolar>
-22.4791

> <Gold.PLP.part.repulsive>
0.1939

> <Gold.PLP.ligand.clash>
0.0000

> <Gold.PLP.ligand.torsion>
0.5883

> <Gold.PLP.Chemscore.Hbond>
1.0000

> <Gold.PLP.Chemscore.CHOScore>
0.0000

> <Gold.PLP.Chemscore.Metal>
0.0000

> <Gold.Chemscore.Hbonds>
donor molecule, donor type, donor heavy atom, donor atom, acceptor molecule, acceptor atom, score
      P1  H  6896  6908       L1     1  1.00

> <Gold.PLP.Chemscore.Internal.Correction>
0.7863

> <Gold.Rescore>
     Score         DG    S(hbond)    S(metal)    S(lipo)     H(rot)  DE(clash)    DE(int)     intcor
     14.44     -16.33       1.00        0.00      64.16       0.00       0.04       1.84       ----

> <Gold.Chemscore.Fitness>
14.4426

> <Gold.Chemscore.DG>
-16.3264

> <Gold.Chemscore.ZeroCoef>
-5.4800

> <Gold.Chemscore.Hbond>
1.0000

> <Gold.Chemscore.Metal>
0.0000

> <Gold.Chemscore.Lipo>
64.1570

> <Gold.Chemscore.Internal_Hbond>
0.0000

> <Gold.Chemscore.DEClash>
0.0396

> <Gold.Chemscore.DEInternal>
1.8441

> <Gold.Chemscore.Rot>
0.0000

> <Gold.Chemscore.Internal.Correction>
   9.000000E+99

> <Gold.Chemscore.Hbonds>
donor molecule, donor type, donor heavy atom, donor atom, acceptor molecule, acceptor atom, score
      P1  H  6896  6908       L1     1  1.00

> <Gold.Chemscore.Hbond.Weighted>
-3.3400

> <Gold.Chemscore.Metal.Weighted>
-0.0000

> <Gold.Chemscore.Lipo.Weighted>
-7.5064

> <Gold.Chemscore.Internal_Hbond.Weighted>
0.0000

> <Gold.Chemscore.DEClash.Weighted>
0.0396

> <Gold.Chemscore.DEInternal.Weighted>
1.8441

> <Gold.Chemscore.Rot.Weighted>
0.0000

> <Gold.Chemscore.Internal.Correction.Weighted>
   9.000000E+99

> <Gold.Protein.RotatedTorsions>
[ 6907 6896 6895 6894 ] final  -83.64 input  -60.11 | X-H torsion
[ 7974 7965 7964 7962 ] final -123.12 input  175.53 | X-H torsion
[ 8008 7997 7996 7995 ] final   -0.54 input   59.86 | X-H torsion
[ 10167 10162 10161 10158 ] final -163.22 input  -65.29 | X-H torsion
[ 10718 10713 10712 10709 ] final  -86.90 input   66.30 | X-H torsion
[ 10763 10752 10751 10750 ] final  151.51 input  -60.55 | X-H torsion
[ 11005 11000 10999 10996 ] final   -6.89 input  -57.11 | X-H torsion

> <Gold.Protein.ActiveResidues>
 VAL166  LYS551  ARG553  GLY616  TRP617  ASP618  TYR619  PRO620  LYS621  CYS622 
 ASP623  PHE694  ASN695  SER759  ASP760  ASP761  ALA762  ILE779  LEU786  VAL792 
 PHE793  MET794  SER795  GLU796  ALA797  LYS798  CYS799  TRP800  GLU811  SER814 

> <Gold.Protein.RotatedAtoms>
  150.6883  134.3481  159.4896 H   0  0  0  0  0  0  0  0  0  0  0  0  # atno 6907 bound_to 6896
  152.1325  134.9121  160.0567 H   0  0  0  0  0  0  0  0  0  0  0  0  # atno 6908 bound_to 6896
  152.0285  133.3893  159.4324 H   0  0  0  0  0  0  0  0  0  0  0  0  # atno 6909 bound_to 6896
  145.0221  140.7997  143.4375 H   0  0  0  0  0  0  0  0  0  0  0  0  # atno 7974 bound_to 7965
  154.6569  140.2581  155.7152 H   0  0  0  0  0  0  0  0  0  0  0  0  # atno 8008 bound_to 7997
  156.2601  140.2856  156.0946 H   0  0  0  0  0  0  0  0  0  0  0  0  # atno 8009 bound_to 7997
  155.1367  140.0379  157.2778 H   0  0  0  0  0  0  0  0  0  0  0  0  # atno 8010 bound_to 7997
  139.6336  144.0393  152.2036 H   0  0  0  0  0  0  0  0  0  0  0  0  # atno 10167 bound_to 10162
  155.9987  130.4781  150.4784 H   0  0  0  0  0  0  0  0  0  0  0  0  # atno 10718 bound_to 10713
  154.1050  135.2843  155.3243 H   0  0  0  0  0  0  0  0  0  0  0  0  # atno 10763 bound_to 10752
  154.6529  135.5362  153.7927 H   0  0  0  0  0  0  0  0  0  0  0  0  # atno 10764 bound_to 10752
  153.0365  135.6514  154.1212 H   0  0  0  0  0  0  0  0  0  0  0  0  # atno 10765 bound_to 10752
  140.7068  133.8942  155.8722 H   0  0  0  0  0  0  0  0  0  0  0  0  # atno 11005 bound_to 11000
  145.1882  139.2315  143.5256 LP  0  0  0  0  0  0  0  0  0  0  0  0  # atno 17320 bound_to 7965
  146.3487  140.1672  142.8590 LP  0  0  0  0  0  0  0  0  0  0  0  0  # atno 17321 bound_to 7965
  140.0064  144.6255  150.7685 LP  0  0  0  0  0  0  0  0  0  0  0  0  # atno 17342 bound_to 10162
  140.7453  143.2873  151.3428 LP  0  0  0  0  0  0  0  0  0  0  0  0  # atno 17343 bound_to 10162
  157.2792  131.0603  151.2209 LP  0  0  0  0  0  0  0  0  0  0  0  0  # atno 17370 bound_to 10713
  157.3261  130.6961  149.6297 LP  0  0  0  0  0  0  0  0  0  0  0  0  # atno 17371 bound_to 10713
  141.0118  134.1010  157.4214 LP  0  0  0  0  0  0  0  0  0  0  0  0  # atno 17394 bound_to 11000
  139.8882  135.0096  156.6606 LP  0  0  0  0  0  0  0  0  0  0  0  0  # atno 17395 bound_to 11000

$$$$
