AV-unprocessed.smi:2310|AV-procd|sdf|9256|dock7
  -GOLD-   2272012473D 1   1.00000     0.00000
 Structure written by MMmdl.
 45 46  0  0  0  0  0  0  0  0  1 V2000
  148.5384  131.6791  153.9357 C   0  0  0  0  0  0  0  0  0  0  0  0
  148.4855  133.1646  154.3207 C   0  0  0  0  0  0  0  0  0  0  0  0
  149.3439  133.5198  155.5493 C   0  0  1  0  0  0  0  0  0  0  0  0
  150.5449  132.5707  155.6829 C   0  0  0  0  0  0  0  0  0  0  0  0
  151.1594  132.5942  157.0200 C   0  0  0  0  0  0  0  0  0  0  0  0
  151.6432  132.6130  158.0705 N   0  0  0  0  0  0  0  0  0  0  0  0
  149.8190  134.9012  155.4566 N   0  0  0  0  0  0  0  0  0  0  0  0
  150.2379  135.6582  156.4816 C   0  0  0  0  0  0  0  0  0  0  0  0
  150.2539  135.2740  157.6507 O   0  0  0  0  0  0  0  0  0  0  0  0
  150.6088  136.8800  156.0611 N   0  0  0  0  0  0  0  0  0  0  0  0
  151.1052  137.9692  156.8316 C   0  0  0  0  0  0  0  0  0  0  0  0
  150.6200  138.2738  158.1266 C   0  0  0  0  0  0  0  0  0  0  0  0
  151.1776  139.3539  158.8349 C   0  0  0  0  0  0  0  0  0  0  0  0
  152.2150  140.0951  158.2374 C   0  0  0  0  0  0  0  0  0  0  0  0
  152.7731  141.1707  158.9448 N   0  0  0  0  0  0  0  0  0  0  0  0
  151.8636  142.2680  159.2315 C   0  0  0  0  0  0  0  0  0  0  0  0
  152.5612  143.1041  160.3070 C   0  0  0  0  0  0  0  0  0  0  0  0
  153.5561  142.1423  160.9682 C   0  0  0  0  0  0  0  0  0  0  0  0
  153.3862  140.8198  160.2151 C   0  0  0  0  0  0  0  0  0  0  0  0
  152.6968  139.8039  157.0067 N   0  0  0  0  0  0  0  0  0  0  0  0
  152.1618  138.7682  156.3235 C   0  0  0  0  0  0  0  0  0  0  0  0
  152.7883  138.5369  154.9573 C   0  0  0  0  0  0  0  0  0  0  0  0
  147.9592  131.4931  153.0311 H   0  0  0  0  0  0  0  0  0  0  0  0
  148.1309  131.0446  154.7231 H   0  0  0  0  0  0  0  0  0  0  0  0
  149.5633  131.3595  153.7451 H   0  0  0  0  0  0  0  0  0  0  0  0
  148.8245  133.7546  153.4683 H   0  0  0  0  0  0  0  0  0  0  0  0
  147.4493  133.4564  154.4964 H   0  0  0  0  0  0  0  0  0  0  0  0
  148.7246  133.3880  156.4383 H   0  0  0  0  0  0  0  0  0  0  0  0
  150.2360  131.5431  155.4898 H   0  0  0  0  0  0  0  0  0  0  0  0
  151.3150  132.8165  154.9512 H   0  0  0  0  0  0  0  0  0  0  0  0
  149.8349  135.3105  154.5339 H   0  0  0  0  0  0  0  0  0  0  0  0
  150.4512  137.0794  155.0842 H   0  0  0  0  0  0  0  0  0  0  0  0
  149.8430  137.6921  158.5974 H   0  0  0  0  0  0  0  0  0  0  0  0
  150.8177  139.6018  159.8228 H   0  0  0  0  0  0  0  0  0  0  0  0
  151.6612  142.8548  158.3351 H   0  0  0  0  0  0  0  0  0  0  0  0
  150.9123  141.8914  159.6104 H   0  0  0  0  0  0  0  0  0  0  0  0
  153.0982  143.9362  159.8499 H   0  0  0  0  0  0  0  0  0  0  0  0
  151.8478  143.5199  161.0191 H   0  0  0  0  0  0  0  0  0  0  0  0
  154.5725  142.5198  160.8499 H   0  0  0  0  0  0  0  0  0  0  0  0
  153.3690  142.0212  162.0355 H   0  0  0  0  0  0  0  0  0  0  0  0
  152.7393  140.1472  160.7802 H   0  0  0  0  0  0  0  0  0  0  0  0
  154.3427  140.3183  160.0641 H   0  0  0  0  0  0  0  0  0  0  0  0
  152.3155  137.7352  154.3919 H   0  0  0  0  0  0  0  0  0  0  0  0
  153.8435  138.2875  155.0701 H   0  0  0  0  0  0  0  0  0  0  0  0
  152.7194  139.4456  154.3582 H   0  0  0  0  0  0  0  0  0  0  0  0
  1  2  1  0  0  0  0
  1 23  1  0  0  0  0
  1 24  1  0  0  0  0
  1 25  1  0  0  0  0
  2  3  1  0  0  0  0
  2 26  1  0  0  0  0
  2 27  1  0  0  0  0
  3  4  1  0  0  0  0
  3  7  1  0  0  0  0
  3 28  1  0  0  0  0
  4  5  1  0  0  0  0
  4 29  1  0  0  0  0
  4 30  1  0  0  0  0
  5  6  3  0  0  0  0
  7  8  1  0  0  0  0
  7 31  1  0  0  0  0
  8  9  2  0  0  0  0
  8 10  1  0  0  0  0
 10 11  1  0  0  0  0
 10 32  1  0  0  0  0
 11 21  1  0  0  0  0
 11 12  2  0  0  0  0
 12 13  1  0  0  0  0
 12 33  1  0  0  0  0
 13 14  2  0  0  0  0
 13 34  1  0  0  0  0
 14 15  1  0  0  0  0
 14 20  1  0  0  0  0
 15 19  1  0  0  0  0
 15 16  1  0  0  0  0
 16 17  1  0  0  0  0
 16 35  1  0  0  0  0
 16 36  1  0  0  0  0
 17 18  1  0  0  0  0
 17 37  1  0  0  0  0
 17 38  1  0  0  0  0
 18 19  1  0  0  0  0
 18 39  1  0  0  0  0
 18 40  1  0  0  0  0
 19 41  1  0  0  0  0
 19 42  1  0  0  0  0
 20 21  2  0  0  0  0
 21 22  1  0  0  0  0
 22 43  1  0  0  0  0
 22 44  1  0  0  0  0
 22 45  1  0  0  0  0
M  END
> <s_m_source_file>
AV-unprocessed.smi

> <i_m_source_file_index>
2310

> <i_lp_mmshare_version>
43012

> <i_f3d_flags>
0

> <s_epik_input>
TiNDW0NIMl1bQ0BASF0oW0NIMl1bQ0gzXSlbTkhdQyg9TylbTkhdYzFbY0hdW2NIXWMobmMxW0NIM10pTjJbQ0gyXVtDSDJdW0NIMl1bQ0gyXTI=

> <s_epik_cmdline>
J2VwaWtfcHl0aG9uJywgJy1waCcsICc3LjAnLCAnLXRuJywgJzgnLCAnLW1hJywgJzIwMCcsICctbWV0YWxfYmluZGluZycsICctaW1hZScsICc8aW5maWxlLm1hZT4nLCAnLW9tYWUnLCAnPG91dGZpbGUubWFlPic=

> <r_lp_tautomer_probability>
1

> <r_epik_Ionization_Penalty>
0.281354

> <r_epik_Ionization_Penalty_Charging>
0

> <r_epik_Ionization_Penalty_Neutral>
0.281354

> <r_epik_State_Penalty>
0.273364

> <r_epik_Charging_Adjusted_Penalty>
0.273364

> <i_epik_Tot_Q>
0

> <i_epik_Tot_abs_Q>
0

> <r_epik_Metal_State_Penalty>
0.18752

> <b_epik_Metal_Only>
0

> <s_lp_Force_Field>
OPLS_2005

> <r_lp_Energy>
36.0303

> <b_lp_Chiralities_Consistent>
1

> <s_lp_Variant>
AV-unprocessed.smi:2310-2

> <Gold.Version>
5.8.1

> <Gold.Id.Protein>
6NUR|6NUR_protein|mol2

> <Gold.PLP.Fitness>
43.2908

> <Gold.PLP.PLP>
-38.7224

> <Gold.PLP.part.hbond>
-3.0000

> <Gold.PLP.part.metal>
0.0000

> <Gold.PLP.part.buried>
-5.2392

> <Gold.PLP.part.nonpolar>
-29.9976

> <Gold.PLP.part.repulsive>
0.1077

> <Gold.PLP.ligand.clash>
0.0000

> <Gold.PLP.ligand.torsion>
1.0846

> <Gold.PLP.Chemscore.Hbond>
2.2298

> <Gold.PLP.Chemscore.CHOScore>
0.0000

> <Gold.PLP.Chemscore.Metal>
0.0000

> <Gold.Chemscore.Hbonds>
donor molecule, donor type, donor heavy atom, donor atom, acceptor molecule, acceptor atom, score
      P1  H  6896  6908       L1     6  0.67
      P1  H  6896  6909       L1     9  0.59
      P1  H  7997  8010       L1    20  1.00

> <Gold.PLP.Chemscore.Internal.Correction>
0.0480

> <Gold.Rescore>
     Score         DG    S(hbond)    S(metal)    S(lipo)     H(rot)  DE(clash)    DE(int)     intcor
     17.60     -19.77       2.61        0.00      83.66       1.65       0.00       2.17       ----

> <Gold.Chemscore.Fitness>
17.5952

> <Gold.Chemscore.DG>
-19.7654

> <Gold.Chemscore.ZeroCoef>
-5.4800

> <Gold.Chemscore.Hbond>
2.6124

> <Gold.Chemscore.Metal>
0.0000

> <Gold.Chemscore.Lipo>
83.6554

> <Gold.Chemscore.Internal_Hbond>
0.0000

> <Gold.Chemscore.DEClash>
0.0021

> <Gold.Chemscore.DEInternal>
2.1681

> <Gold.Chemscore.Rot>
1.6514

> <Gold.Chemscore.Internal.Correction>
   9.000000E+99

> <Gold.Chemscore.Hbonds>
donor molecule, donor type, donor heavy atom, donor atom, acceptor molecule, acceptor atom, score
      P1  H  6896  6908       L1     6  0.64
      P1  H  6896  6909       L1     9  0.57
      P1  H  7997  8010       L1    20  0.69

> <Gold.Chemscore.Hbond.Weighted>
-8.7253

> <Gold.Chemscore.Metal.Weighted>
-0.0000

> <Gold.Chemscore.Lipo.Weighted>
-9.7877

> <Gold.Chemscore.Internal_Hbond.Weighted>
0.0000

> <Gold.Chemscore.DEClash.Weighted>
0.0021

> <Gold.Chemscore.DEInternal.Weighted>
2.1681

> <Gold.Chemscore.Rot.Weighted>
4.2276

> <Gold.Chemscore.Internal.Correction.Weighted>
   9.000000E+99

> <Gold.Protein.RotatedTorsions>
[ 6907 6896 6895 6894 ] final   53.27 input  -60.11 | X-H torsion
[ 7974 7965 7964 7962 ] final  151.94 input  175.53 | X-H torsion
[ 8008 7997 7996 7995 ] final   75.31 input   59.86 | X-H torsion
[ 10167 10162 10161 10158 ] final  -27.09 input  -65.29 | X-H torsion
[ 10718 10713 10712 10709 ] final  -69.52 input   66.30 | X-H torsion
[ 10763 10752 10751 10750 ] final  134.40 input  -60.55 | X-H torsion
[ 11005 11000 10999 10996 ] final  179.17 input  -57.11 | X-H torsion

> <Gold.Protein.ActiveResidues>
 VAL166  LYS551  ARG553  GLY616  TRP617  ASP618  TYR619  PRO620  LYS621  CYS622 
 ASP623  PHE694  ASN695  SER759  ASP760  ASP761  ALA762  ILE779  LEU786  VAL792 
 PHE793  MET794  SER795  GLU796  ALA797  LYS798  CYS799  TRP800  GLU811  SER814 

> <Gold.Protein.RotatedAtoms>
  152.3319  134.7248  160.0286 H   0  0  0  0  0  0  0  0  0  0  0  0  # atno 6907 bound_to 6896
  151.7661  133.3332  159.3439 H   0  0  0  0  0  0  0  0  0  0  0  0  # atno 6908 bound_to 6896
  150.7428  134.5993  159.6072 H   0  0  0  0  0  0  0  0  0  0  0  0  # atno 6909 bound_to 6896
  144.8257  139.6603  143.6081 H   0  0  0  0  0  0  0  0  0  0  0  0  # atno 7974 bound_to 7965
  155.8110  140.3473  155.5457 H   0  0  0  0  0  0  0  0  0  0  0  0  # atno 8008 bound_to 7997
  155.8441  140.0946  157.1736 H   0  0  0  0  0  0  0  0  0  0  0  0  # atno 8009 bound_to 7997
  154.4006  140.1389  156.3751 H   0  0  0  0  0  0  0  0  0  0  0  0  # atno 8010 bound_to 7997
  140.7279  143.4122  151.1086 H   0  0  0  0  0  0  0  0  0  0  0  0  # atno 10167 bound_to 10162
  156.0451  130.4314  150.2159 H   0  0  0  0  0  0  0  0  0  0  0  0  # atno 10718 bound_to 10713
  153.8230  135.3114  155.3412 H   0  0  0  0  0  0  0  0  0  0  0  0  # atno 10763 bound_to 10752
  154.8005  135.4730  154.0267 H   0  0  0  0  0  0  0  0  0  0  0  0  # atno 10764 bound_to 10752
  153.1681  135.6873  153.8736 H   0  0  0  0  0  0  0  0  0  0  0  0  # atno 10765 bound_to 10752
  140.4032  134.6758  157.4573 H   0  0  0  0  0  0  0  0  0  0  0  0  # atno 11005 bound_to 11000
  146.2562  139.6308  142.9393 LP  0  0  0  0  0  0  0  0  0  0  0  0  # atno 17320 bound_to 7965
  145.5006  141.0437  143.2542 LP  0  0  0  0  0  0  0  0  0  0  0  0  # atno 17321 bound_to 7965
  139.7757  143.8428  152.3129 LP  0  0  0  0  0  0  0  0  0  0  0  0  # atno 17342 bound_to 10162
  139.8362  144.7231  150.9388 LP  0  0  0  0  0  0  0  0  0  0  0  0  # atno 17343 bound_to 10162
  157.0250  130.9990  151.3329 LP  0  0  0  0  0  0  0  0  0  0  0  0  # atno 17370 bound_to 10713
  157.5317  130.8063  149.7925 LP  0  0  0  0  0  0  0  0  0  0  0  0  # atno 17371 bound_to 10713
  140.0321  134.6391  155.9092 LP  0  0  0  0  0  0  0  0  0  0  0  0  # atno 17394 bound_to 11000
  141.1849  133.6554  156.5175 LP  0  0  0  0  0  0  0  0  0  0  0  0  # atno 17395 bound_to 11000

$$$$
