AV-unprocessed.smi:1067|AV-procd|sdf|4673|dock3
  -GOLD-   22720 3183D 1   1.00000     0.00000
 Structure written by MMmdl.
 51 53  0  0  0  0  0  0  0  0  2 V2000
  147.3474  136.0498  153.7998 N   0  0  0  0  0  0  0  0  0  0  0  0
  146.0312  136.1722  153.6007 C   0  0  0  0  0  0  0  0  0  0  0  0
  145.2320  135.9324  154.5050 O   0  0  0  0  0  0  0  0  0  0  0  0
  145.5327  136.6447  152.2047 C   0  0  0  0  0  0  0  0  0  0  0  0
  146.1093  138.0572  151.9077 C   0  0  0  0  0  0  0  0  0  0  0  0
  147.4049  138.3076  152.5434 N   0  0  0  0  0  0  0  0  0  0  0  0
  147.6937  139.3367  153.3529 C   0  0  0  0  0  0  0  0  0  0  0  0
  146.8798  140.2026  153.6731 O   0  0  0  0  0  0  0  0  0  0  0  0
  148.9812  139.3044  153.7377 N   0  0  0  0  0  0  0  0  0  0  0  0
  149.6579  140.1771  154.6326 C   0  0  0  0  0  0  0  0  0  0  0  0
  150.8123  139.6917  155.2822 C   0  0  0  0  0  0  0  0  0  0  0  0
  151.5021  140.5151  156.1957 C   0  0  0  0  0  0  0  0  0  0  0  0
  151.0237  141.8194  156.4630 C   0  0  0  0  0  0  0  0  0  0  0  0
  151.6594  142.6974  157.3615 N   0  0  0  0  0  0  0  0  0  0  0  0
  151.3268  144.1128  157.4035 C   0  0  0  0  0  0  0  0  0  0  0  0
  152.0863  144.6526  158.6144 C   0  0  0  0  0  0  0  0  0  0  0  0
  152.0941  143.4639  159.5756 C   0  0  0  0  0  0  0  0  0  0  0  0
  152.1429  142.2376  158.6563 C   0  0  0  0  0  0  0  0  0  0  0  0
  149.9088  142.2423  155.8205 N   0  3  0  0  0  0  0  0  0  0  0  0
  149.2193  141.4878  154.9378 C   0  0  0  0  0  0  0  0  0  0  0  0
  145.9621  135.6767  151.0677 C   0  0  0  0  0  0  0  0  0  0  0  0
  145.2431  134.3155  151.1435 C   0  0  0  0  0  0  0  0  0  0  0  0
  143.8351  134.5112  151.0984 O   0  0  0  0  0  0  0  0  0  0  0  0
  143.3472  135.2840  152.1883 C   0  0  0  0  0  0  0  0  0  0  0  0
  143.9800  136.6893  152.1604 C   0  0  0  0  0  0  0  0  0  0  0  0
  147.6913  135.7475  154.6998 H   0  0  0  0  0  0  0  0  0  0  0  0
  147.9931  136.2622  153.0534 H   0  0  0  0  0  0  0  0  0  0  0  0
  146.1636  138.2121  150.8287 H   0  0  0  0  0  0  0  0  0  0  0  0
  145.4225  138.8209  152.2744 H   0  0  0  0  0  0  0  0  0  0  0  0
  148.1426  137.6522  152.3305 H   0  0  0  0  0  0  0  0  0  0  0  0
  149.5519  138.5864  153.3160 H   0  0  0  0  0  0  0  0  0  0  0  0
  151.1748  138.6941  155.0805 H   0  0  0  0  0  0  0  0  0  0  0  0
  152.3915  140.1365  156.6771 H   0  0  0  0  0  0  0  0  0  0  0  0
  151.6171  144.6241  156.4852 H   0  0  0  0  0  0  0  0  0  0  0  0
  150.2511  144.2310  157.5414 H   0  0  0  0  0  0  0  0  0  0  0  0
  153.1091  144.9026  158.3295 H   0  0  0  0  0  0  0  0  0  0  0  0
  151.6267  145.5445  159.0413 H   0  0  0  0  0  0  0  0  0  0  0  0
  152.9226  143.4947  160.2837 H   0  0  0  0  0  0  0  0  0  0  0  0
  151.1657  143.4547  160.1483 H   0  0  0  0  0  0  0  0  0  0  0  0
  151.5385  141.4251  159.0606 H   0  0  0  0  0  0  0  0  0  0  0  0
  153.1669  141.8806  158.5425 H   0  0  0  0  0  0  0  0  0  0  0  0
  148.3409  141.9626  154.5270 H   0  0  0  0  0  0  0  0  0  0  0  0
  145.7257  136.1285  150.1031 H   0  0  0  0  0  0  0  0  0  0  0  0
  147.0425  135.5286  151.0548 H   0  0  0  0  0  0  0  0  0  0  0  0
  145.5341  133.6954  150.2955 H   0  0  0  0  0  0  0  0  0  0  0  0
  145.5174  133.7634  152.0432 H   0  0  0  0  0  0  0  0  0  0  0  0
  142.2638  135.3638  152.0990 H   0  0  0  0  0  0  0  0  0  0  0  0
  143.5463  134.7726  153.1311 H   0  0  0  0  0  0  0  0  0  0  0  0
  143.5747  137.2869  152.9780 H   0  0  0  0  0  0  0  0  0  0  0  0
  143.6591  137.1916  151.2468 H   0  0  0  0  0  0  0  0  0  0  0  0
  149.5658  143.1826  156.0172 H   0  0  0  0  0  0  0  0  0  0  0  0
  1  2  1  0  0  0  0
  1 26  1  0  0  0  0
  1 27  1  0  0  0  0
  2  3  2  0  0  0  0
  2  4  1  0  0  0  0
  4 25  1  0  0  0  0
  4  5  1  0  0  0  0
  4 21  1  0  0  0  0
  5  6  1  0  0  0  0
  5 28  1  0  0  0  0
  5 29  1  0  0  0  0
  6  7  1  0  0  0  0
  6 30  1  0  0  0  0
  7  8  2  0  0  0  0
  7  9  1  0  0  0  0
  9 10  1  0  0  0  0
  9 31  1  0  0  0  0
 10 20  1  0  0  0  0
 10 11  2  0  0  0  0
 11 12  1  0  0  0  0
 11 32  1  0  0  0  0
 12 13  2  0  0  0  0
 12 33  1  0  0  0  0
 13 14  1  0  0  0  0
 13 19  1  0  0  0  0
 14 18  1  0  0  0  0
 14 15  1  0  0  0  0
 15 16  1  0  0  0  0
 15 34  1  0  0  0  0
 15 35  1  0  0  0  0
 16 17  1  0  0  0  0
 16 36  1  0  0  0  0
 16 37  1  0  0  0  0
 17 18  1  0  0  0  0
 17 38  1  0  0  0  0
 17 39  1  0  0  0  0
 18 40  1  0  0  0  0
 18 41  1  0  0  0  0
 19 20  2  0  0  0  0
 19 51  1  0  0  0  0
 20 42  1  0  0  0  0
 21 22  1  0  0  0  0
 21 43  1  0  0  0  0
 21 44  1  0  0  0  0
 22 23  1  0  0  0  0
 22 45  1  0  0  0  0
 22 46  1  0  0  0  0
 23 24  1  0  0  0  0
 24 25  1  0  0  0  0
 24 47  1  0  0  0  0
 24 48  1  0  0  0  0
 25 49  1  0  0  0  0
 25 50  1  0  0  0  0
M  CHG  1  19   1
M  END
> <s_m_source_file>
AV-unprocessed.smi

> <i_m_source_file_index>
1067

> <i_lp_mmshare_version>
43012

> <i_f3d_flags>
0

> <s_epik_input>
W0NIMl0xW0NIMl1PW0NIMl1bQ0gyXUMxKEMoPU8pW05IMl0pW0NIMl1bTkhdQyg9TylbTkhdYzJbY0hdW2NIXWMobltjSF0yKU4zW0NIMl1bQ0gyXVtDSDJdW0NIMl0z

> <s_epik_cmdline>
J2VwaWtfcHl0aG9uJywgJy1waCcsICc3LjAnLCAnLXRuJywgJzgnLCAnLW1hJywgJzIwMCcsICctbWV0YWxfYmluZGluZycsICctaW1hZScsICc8aW5maWxlLm1hZT4nLCAnLW9tYWUnLCAnPG91dGZpbGUubWFlPic=

> <r_lp_tautomer_probability>
0.999994

> <r_epik_Ionization_Penalty>
1.13762

> <r_epik_Ionization_Penalty_Charging>
1.1376

> <r_epik_Ionization_Penalty_Neutral>
1.9017e-05

> <r_epik_State_Penalty>
1.19785

> <r_epik_Charging_Adjusted_Penalty>
2.33545

> <i_epik_Tot_Q>
1

> <i_epik_Tot_abs_Q>
1

> <r_epik_Metal_State_Penalty>
1.2801

> <b_epik_Metal_Only>
0

> <s_lp_Force_Field>
OPLS_2005

> <r_lp_Energy>
40.299

> <b_lp_Chiralities_Consistent>
1

> <s_lp_Variant>
AV-unprocessed.smi:1067-2

> <Gold.Version>
5.8.1

> <Gold.Id.Protein>
6NUR|6NUR_protein|mol2

> <Gold.PLP.Fitness>
57.4824

> <Gold.PLP.PLP>
-47.4633

> <Gold.PLP.part.hbond>
-4.5071

> <Gold.PLP.part.metal>
0.0000

> <Gold.PLP.part.buried>
-2.7330

> <Gold.PLP.part.nonpolar>
-41.3580

> <Gold.PLP.part.repulsive>
0.6536

> <Gold.PLP.ligand.clash>
0.0000

> <Gold.PLP.ligand.torsion>
1.1151

> <Gold.PLP.Chemscore.Hbond>
4.0000

> <Gold.PLP.Chemscore.CHOScore>
0.0000

> <Gold.PLP.Chemscore.Metal>
0.0000

> <Gold.Chemscore.Hbonds>
donor molecule, donor type, donor heavy atom, donor atom, acceptor molecule, acceptor atom, score
      L1  H     1    27       P1  7948  0.99
      L1  H     6    30       P1  7948  1.00
      L1  H    19    51       P1  8028  2.00

> <Gold.PLP.Chemscore.Internal.Correction>
0.2494

> <Gold.Rescore>
     Score         DG    S(hbond)    S(metal)    S(lipo)     H(rot)  DE(clash)    DE(int)     intcor
     18.96     -23.09       2.98        0.00     105.38       1.83       0.10       4.04       ----

> <Gold.Chemscore.Fitness>
18.9560

> <Gold.Chemscore.DG>
-23.0934

> <Gold.Chemscore.ZeroCoef>
-5.4800

> <Gold.Chemscore.Hbond>
2.9833

> <Gold.Chemscore.Metal>
0.0000

> <Gold.Chemscore.Lipo>
105.3827

> <Gold.Chemscore.Internal_Hbond>
0.0000

> <Gold.Chemscore.DEClash>
0.0998

> <Gold.Chemscore.DEInternal>
4.0376

> <Gold.Chemscore.Rot>
1.8283

> <Gold.Chemscore.Internal.Correction>
   9.000000E+99

> <Gold.Chemscore.Hbonds>
donor molecule, donor type, donor heavy atom, donor atom, acceptor molecule, acceptor atom, score
      L1  H     1    27       P1  7948  0.92
      L1  H     6    30       P1  7948  1.00
      L1  H    19    51       P1  8028  0.99

> <Gold.Chemscore.Hbond.Weighted>
-9.9642

> <Gold.Chemscore.Metal.Weighted>
-0.0000

> <Gold.Chemscore.Lipo.Weighted>
-12.3298

> <Gold.Chemscore.Internal_Hbond.Weighted>
0.0000

> <Gold.Chemscore.DEClash.Weighted>
0.0998

> <Gold.Chemscore.DEInternal.Weighted>
4.0376

> <Gold.Chemscore.Rot.Weighted>
4.6805

> <Gold.Chemscore.Internal.Correction.Weighted>
   9.000000E+99

> <Gold.Protein.RotatedTorsions>
[ 6907 6896 6895 6894 ] final -147.68 input  -60.11 | X-H torsion
[ 7974 7965 7964 7962 ] final   -9.95 input  175.53 | X-H torsion
[ 8008 7997 7996 7995 ] final   42.68 input   59.86 | X-H torsion
[ 10167 10162 10161 10158 ] final  -48.82 input  -65.29 | X-H torsion
[ 10718 10713 10712 10709 ] final   34.97 input   66.30 | X-H torsion
[ 10763 10752 10751 10750 ] final  -61.36 input  -60.55 | X-H torsion
[ 11005 11000 10999 10996 ] final   96.85 input  -57.11 | X-H torsion

> <Gold.Protein.ActiveResidues>
 VAL166  LYS551  ARG553  GLY616  TRP617  ASP618  TYR619  PRO620  LYS621  CYS622 
 ASP623  PHE694  ASN695  SER759  ASP760  ASP761  ALA762  ILE779  LEU786  VAL792 
 PHE793  MET794  SER795  GLU796  ALA797  LYS798  CYS799  TRP800  GLU811  SER814 

> <Gold.Protein.RotatedAtoms>
  151.1592  133.4856  159.2594 H   0  0  0  0  0  0  0  0  0  0  0  0  # atno 6907 bound_to 6896
  151.1473  135.0209  159.8662 H   0  0  0  0  0  0  0  0  0  0  0  0  # atno 6908 bound_to 6896
  152.5463  134.1479  159.8559 H   0  0  0  0  0  0  0  0  0  0  0  0  # atno 6909 bound_to 6896
  146.2236  140.2692  142.8356 H   0  0  0  0  0  0  0  0  0  0  0  0  # atno 7974 bound_to 7965
  155.2901  140.3378  155.4253 H   0  0  0  0  0  0  0  0  0  0  0  0  # atno 8008 bound_to 7997
  156.2050  140.1747  156.7859 H   0  0  0  0  0  0  0  0  0  0  0  0  # atno 8009 bound_to 7997
  154.5608  140.0687  156.8800 H   0  0  0  0  0  0  0  0  0  0  0  0  # atno 8010 bound_to 7997
  140.6713  143.2724  151.4126 H   0  0  0  0  0  0  0  0  0  0  0  0  # atno 10167 bound_to 10162
  157.3169  130.7428  149.6760 H   0  0  0  0  0  0  0  0  0  0  0  0  # atno 10718 bound_to 10713
  154.2833  135.6267  153.5356 H   0  0  0  0  0  0  0  0  0  0  0  0  # atno 10763 bound_to 10752
  152.9862  135.5638  154.5471 H   0  0  0  0  0  0  0  0  0  0  0  0  # atno 10764 bound_to 10752
  154.5066  135.2875  155.1353 H   0  0  0  0  0  0  0  0  0  0  0  0  # atno 10765 bound_to 10752
  139.8779  134.8971  156.4220 H   0  0  0  0  0  0  0  0  0  0  0  0  # atno 11005 bound_to 11000
  144.9281  140.7944  143.5706 LP  0  0  0  0  0  0  0  0  0  0  0  0  # atno 17320 bound_to 7965
  145.2634  139.1983  143.4880 LP  0  0  0  0  0  0  0  0  0  0  0  0  # atno 17321 bound_to 7965
  139.5983  144.1349  152.2170 LP  0  0  0  0  0  0  0  0  0  0  0  0  # atno 17342 bound_to 10162
  140.0725  144.5767  150.7181 LP  0  0  0  0  0  0  0  0  0  0  0  0  # atno 17343 bound_to 10162
  155.9682  130.4234  150.4563 LP  0  0  0  0  0  0  0  0  0  0  0  0  # atno 17370 bound_to 10713
  157.2571  131.0559  151.2343 LP  0  0  0  0  0  0  0  0  0  0  0  0  # atno 17371 bound_to 10713
  140.9127  133.7700  155.9811 LP  0  0  0  0  0  0  0  0  0  0  0  0  # atno 17394 bound_to 11000
  140.8528  134.2933  157.5268 LP  0  0  0  0  0  0  0  0  0  0  0  0  # atno 17395 bound_to 11000

$$$$
