AV-unprocessed.smi:287|AV-procd|sdf|2188|dock1
  -GOLD-   2262021573D 1   1.00000     0.00000
 Structure written by MMmdl.
 55 58  0  0  0  0  0  0  0  0  1 V2000
  157.4192  130.4966  153.8883 C   0  0  0  0  0  0  0  0  0  0  0  0
  156.0551  130.3332  154.4653 C   0  0  0  0  0  0  0  0  0  0  0  0
  155.0041  129.5091  154.1858 C   0  0  0  0  0  0  0  0  0  0  0  0
  153.9581  129.8267  155.1034 C   0  0  0  0  0  0  0  0  0  0  0  0
  152.5854  129.1717  155.1687 C   0  0  2  0  0  0  0  0  0  0  0  0
  152.3429  128.6209  156.5833 C   0  0  0  0  0  0  0  0  0  0  0  0
  152.4705  128.0579  154.3037 O   0  0  0  0  0  0  0  0  0  0  0  0
  151.4437  130.1347  154.7709 C   0  0  0  0  0  0  0  0  0  0  0  0
  151.2209  131.1909  155.7502 N   0  0  0  0  0  0  0  0  0  0  0  0
  150.6678  132.3677  155.3884 C   0  0  0  0  0  0  0  0  0  0  0  0
  149.7339  132.2967  154.4097 N   0  0  0  0  0  0  0  0  0  0  0  0
  149.1244  133.4051  153.9794 C   0  0  0  0  0  0  0  0  0  0  0  0
  149.2989  134.6642  154.3850 N   0  0  0  0  0  0  0  0  0  0  0  0
  150.2406  134.7437  155.3691 C   0  0  0  0  0  0  0  0  0  0  0  0
  150.9691  133.6546  155.9263 C   0  0  0  0  0  0  0  0  0  0  0  0
  151.8352  134.1387  156.9015 N   0  0  0  0  0  0  0  0  0  0  0  0
  151.6293  135.4277  156.9117 C   0  0  0  0  0  0  0  0  0  0  0  0
  150.6878  135.8772  156.0114 N   0  0  0  0  0  0  0  0  0  0  0  0
  150.1980  137.2729  155.7595 C   0  0  1  0  0  0  0  0  0  0  0  0
  150.5051  138.0566  156.8735 O   0  0  0  0  0  0  0  0  0  0  0  0
  151.6746  138.8234  156.6092 C   0  0  2  0  0  0  0  0  0  0  0  0
  151.8100  140.0031  157.5874 C   0  0  0  0  0  0  0  0  0  0  0  0
  152.9234  139.8036  158.4321 O   0  0  0  0  0  0  0  0  0  0  0  0
  151.4824  139.2024  155.1361 C   0  0  2  0  0  0  0  0  0  0  0  0
  150.5870  140.2922  155.0068 O   0  0  0  0  0  0  0  0  0  0  0  0
  150.8794  137.9370  154.5358 C   0  0  1  0  0  0  0  0  0  0  0  0
  151.9054  137.1561  153.9466 O   0  0  0  0  0  0  0  0  0  0  0  0
  154.4614  130.8526  155.8661 C   0  0  0  0  0  0  0  0  0  0  0  0
  153.9130  131.6778  156.9828 C   0  0  0  0  0  0  0  0  0  0  0  0
  155.7343  131.1607  155.4911 O   0  0  0  0  0  0  0  0  0  0  0  0
  149.1172  137.1671  155.6581 H   0  0  0  0  0  0  0  0  0  0  0  0
  152.5520  138.1775  156.6811 H   0  0  0  0  0  0  0  0  0  0  0  0
  152.4248  139.4848  154.6645 H   0  0  0  0  0  0  0  0  0  0  0  0
  150.1310  138.1567  153.7733 H   0  0  0  0  0  0  0  0  0  0  0  0
  157.6252  129.7211  153.1503 H   0  0  0  0  0  0  0  0  0  0  0  0
  158.1792  130.4315  154.6672 H   0  0  0  0  0  0  0  0  0  0  0  0
  157.5175  131.4652  153.3982 H   0  0  0  0  0  0  0  0  0  0  0  0
  154.9886  128.7562  153.4118 H   0  0  0  0  0  0  0  0  0  0  0  0
  152.3796  129.4173  157.3275 H   0  0  0  0  0  0  0  0  0  0  0  0
  153.0979  127.8823  156.8562 H   0  0  0  0  0  0  0  0  0  0  0  0
  151.3665  128.1414  156.6652 H   0  0  0  0  0  0  0  0  0  0  0  0
  153.0098  128.2130  153.5437 H   0  0  0  0  0  0  0  0  0  0  0  0
  151.6294  130.5658  153.7859 H   0  0  0  0  0  0  0  0  0  0  0  0
  150.5186  129.5616  154.6973 H   0  0  0  0  0  0  0  0  0  0  0  0
  151.5251  130.9862  156.6914 H   0  0  0  0  0  0  0  0  0  0  0  0
  148.3940  133.2622  153.1968 H   0  0  0  0  0  0  0  0  0  0  0  0
  152.1636  136.0827  157.5844 H   0  0  0  0  0  0  0  0  0  0  0  0
  151.9794  140.9291  157.0367 H   0  0  0  0  0  0  0  0  0  0  0  0
  150.9050  140.1371  158.1809 H   0  0  0  0  0  0  0  0  0  0  0  0
  152.8578  138.9434  158.8180 H   0  0  0  0  0  0  0  0  0  0  0  0
  150.6597  140.8329  155.7784 H   0  0  0  0  0  0  0  0  0  0  0  0
  151.5555  136.7419  153.1720 H   0  0  0  0  0  0  0  0  0  0  0  0
  152.9126  132.0381  156.7427 H   0  0  0  0  0  0  0  0  0  0  0  0
  154.5427  132.5463  157.1776 H   0  0  0  0  0  0  0  0  0  0  0  0
  153.8524  131.0929  157.9006 H   0  0  0  0  0  0  0  0  0  0  0  0
  1  2  1  0  0  0  0
  1 35  1  0  0  0  0
  1 36  1  0  0  0  0
  1 37  1  0  0  0  0
  2 30  1  0  0  0  0
  2  3  2  0  0  0  0
  3  4  1  0  0  0  0
  3 38  1  0  0  0  0
  4  5  1  0  0  0  0
  4 28  2  0  0  0  0
  5  6  1  0  0  0  0
  5  7  1  0  0  0  0
  5  8  1  0  0  0  0
  6 39  1  0  0  0  0
  6 40  1  0  0  0  0
  6 41  1  0  0  0  0
  7 42  1  0  0  0  0
  8  9  1  0  0  0  0
  8 43  1  0  0  0  0
  8 44  1  0  0  0  0
  9 10  1  0  0  0  0
  9 45  1  0  0  0  0
 10 15  1  0  0  0  0
 10 11  2  0  0  0  0
 11 12  1  0  0  0  0
 12 13  2  0  0  0  0
 12 46  1  0  0  0  0
 13 14  1  0  0  0  0
 14 18  1  0  0  0  0
 14 15  2  0  0  0  0
 15 16  1  0  0  0  0
 16 17  2  0  0  0  0
 17 18  1  0  0  0  0
 17 47  1  0  0  0  0
 18 19  1  0  0  0  0
 19 31  1  0  0  0  0
 19 26  1  0  0  0  0
 19 20  1  0  0  0  0
 20 21  1  0  0  0  0
 21 32  1  0  0  0  0
 21 22  1  0  0  0  0
 21 24  1  0  0  0  0
 22 23  1  0  0  0  0
 22 48  1  0  0  0  0
 22 49  1  0  0  0  0
 23 50  1  0  0  0  0
 24 33  1  0  0  0  0
 24 25  1  0  0  0  0
 24 26  1  0  0  0  0
 25 51  1  0  0  0  0
 26 34  1  0  0  0  0
 26 27  1  0  0  0  0
 27 52  1  0  0  0  0
 28 29  1  0  0  0  0
 28 30  1  0  0  0  0
 29 53  1  0  0  0  0
 29 54  1  0  0  0  0
 29 55  1  0  0  0  0
M  END
> <s_m_source_file>
AV-unprocessed.smi

> <i_m_source_file_index>
287

> <i_lp_mmshare_version>
43012

> <i_f3d_flags>
0

> <s_epik_input>
W0NIM11jMVtjSF1jKGMobzEpW0NIM10pW0NAQF0oW0NIM10pKFtPSF0pW0NIMl1bTkhdYyhuW2NIXW4yKWMoYzIzKW5bY0hdbjNbQ0BASF00T1tDQEhdKFtDSDJdW09IXSlbQ0BASF0oW09IXSlbQ0BIXTRbT0hd

> <s_epik_cmdline>
J2VwaWtfcHl0aG9uJywgJy1waCcsICc3LjAnLCAnLXRuJywgJzgnLCAnLW1hJywgJzIwMCcsICctbWV0YWxfYmluZGluZycsICctaW1hZScsICc8aW5maWxlLm1hZT4nLCAnLW9tYWUnLCAnPG91dGZpbGUubWFlPic=

> <r_lp_tautomer_probability>
1

> <r_epik_Ionization_Penalty>
0.000992612

> <r_epik_Ionization_Penalty_Charging>
0

> <r_epik_Ionization_Penalty_Neutral>
0.000992612

> <r_epik_State_Penalty>
-0

> <r_epik_Charging_Adjusted_Penalty>
0

> <i_epik_Tot_Q>
0

> <i_epik_Tot_abs_Q>
0

> <r_epik_Metal_State_Penalty>
-0

> <b_epik_Metal_Only>
0

> <s_epik_Chemistry_Notes>
This compound contains an acetal/aminal-like group ( X-CH(R)-Y where X, Y are N, S, or O) that may be acid/base labile, releasing an aldehyde.

> <s_lp_Force_Field>
OPLS_2005

> <r_lp_Energy>
43.0869

> <b_lp_Chiralities_Consistent>
1

> <s_lp_Variant>
AV-unprocessed.smi:287-12

> <Gold.Version>
5.8.1

> <Gold.Id.Protein>
6NUR|6NUR_protein|mol2

> <Gold.PLP.Fitness>
54.1282

> <Gold.PLP.PLP>
-45.2554

> <Gold.PLP.part.hbond>
-5.8689

> <Gold.PLP.part.metal>
0.0000

> <Gold.PLP.part.buried>
-8.1196

> <Gold.PLP.part.nonpolar>
-33.8167

> <Gold.PLP.part.repulsive>
1.6463

> <Gold.PLP.ligand.clash>
0.0000

> <Gold.PLP.ligand.torsion>
1.8915

> <Gold.PLP.Chemscore.Hbond>
4.0940

> <Gold.PLP.Chemscore.CHOScore>
0.0000

> <Gold.PLP.Chemscore.Metal>
0.0000

> <Gold.Chemscore.Hbonds>
donor molecule, donor type, donor heavy atom, donor atom, acceptor molecule, acceptor atom, score
      L1  H     7    42       P1 10737  0.26
      L1  H    27    52       P1  7949  1.00
      P1  H  7989  7998       L1    25  0.40
      P1  H  7997  8009       L1    23  0.22
      P1  H 10752 10765       L1    27  0.59

> <Gold.PLP.Chemscore.Internal.Correction>
0.3738

> <Gold.Rescore>
     Score         DG    S(hbond)    S(metal)    S(lipo)     H(rot)  DE(clash)    DE(int)     intcor
      8.83     -12.01       3.28        0.00      77.53       5.27       0.42       2.77       ----

> <Gold.Chemscore.Fitness>
8.8259

> <Gold.Chemscore.DG>
-12.0116

> <Gold.Chemscore.ZeroCoef>
-5.4800

> <Gold.Chemscore.Hbond>
3.2768

> <Gold.Chemscore.Metal>
0.0000

> <Gold.Chemscore.Lipo>
77.5316

> <Gold.Chemscore.Internal_Hbond>
0.0000

> <Gold.Chemscore.DEClash>
0.4157

> <Gold.Chemscore.DEInternal>
2.7701

> <Gold.Chemscore.Rot>
5.2672

> <Gold.Chemscore.Internal.Correction>
   9.000000E+99

> <Gold.Chemscore.Hbonds>
donor molecule, donor type, donor heavy atom, donor atom, acceptor molecule, acceptor atom, score
      L1  H     7    42       P1 10737  0.06
      L1  H    27    52       P1  7949  0.93
      P1  H  7989  7998       L1    25  0.01
      P1  H  7997  8009       L1    23  0.14
      P1  H 10752 10765       L1    27  0.05

> <Gold.Chemscore.Hbond.Weighted>
-10.9444

> <Gold.Chemscore.Metal.Weighted>
-0.0000

> <Gold.Chemscore.Lipo.Weighted>
-9.0712

> <Gold.Chemscore.Internal_Hbond.Weighted>
0.0000

> <Gold.Chemscore.DEClash.Weighted>
0.4157

> <Gold.Chemscore.DEInternal.Weighted>
2.7701

> <Gold.Chemscore.Rot.Weighted>
13.4839

> <Gold.Chemscore.Internal.Correction.Weighted>
   9.000000E+99

> <Gold.Protein.RotatedTorsions>
[ 6907 6896 6895 6894 ] final   55.10 input  -60.11 | X-H torsion
[ 7974 7965 7964 7962 ] final   52.31 input  175.53 | X-H torsion
[ 8008 7997 7996 7995 ] final  130.03 input   59.86 | X-H torsion
[ 10167 10162 10161 10158 ] final -149.59 input  -65.29 | X-H torsion
[ 10718 10713 10712 10709 ] final  -50.38 input   66.30 | X-H torsion
[ 10763 10752 10751 10750 ] final  169.32 input  -60.55 | X-H torsion
[ 11005 11000 10999 10996 ] final  -50.36 input  -57.11 | X-H torsion

> <Gold.Protein.ActiveResidues>
 VAL166  LYS551  ARG553  GLY616  TRP617  ASP618  TYR619  PRO620  LYS621  CYS622 
 ASP623  PHE694  ASN695  SER759  ASP760  ASP761  ALA762  ILE779  LEU786  VAL792 
 PHE793  MET794  SER795  GLU796  ALA797  LYS798  CYS799  TRP800  GLU811  SER814 

> <Gold.Protein.RotatedAtoms>
  152.3505  134.7012  160.0237 H   0  0  0  0  0  0  0  0  0  0  0  0  # atno 6907 bound_to 6896
  151.7367  133.3314  159.3363 H   0  0  0  0  0  0  0  0  0  0  0  0  # atno 6908 bound_to 6896
  150.7537  134.6248  159.6199 H   0  0  0  0  0  0  0  0  0  0  0  0  # atno 6909 bound_to 6896
  145.9826  139.4258  143.0122 H   0  0  0  0  0  0  0  0  0  0  0  0  # atno 7974 bound_to 7965
  156.2947  140.2606  156.2696 H   0  0  0  0  0  0  0  0  0  0  0  0  # atno 8008 bound_to 7997
  154.9708  140.0391  157.2252 H   0  0  0  0  0  0  0  0  0  0  0  0  # atno 8009 bound_to 7997
  154.7860  140.2803  155.6032 H   0  0  0  0  0  0  0  0  0  0  0  0  # atno 8010 bound_to 7997
  139.7429  143.8635  152.2567 H   0  0  0  0  0  0  0  0  0  0  0  0  # atno 10167 bound_to 10162
  156.1806  130.4150  149.9512 H   0  0  0  0  0  0  0  0  0  0  0  0  # atno 10718 bound_to 10713
  154.3815  135.2753  155.2209 H   0  0  0  0  0  0  0  0  0  0  0  0  # atno 10763 bound_to 10752
  154.4313  135.5976  153.6074 H   0  0  0  0  0  0  0  0  0  0  0  0  # atno 10764 bound_to 10752
  152.9834  135.5996  154.4058 H   0  0  0  0  0  0  0  0  0  0  0  0  # atno 10765 bound_to 10752
  141.0811  133.6653  156.3720 H   0  0  0  0  0  0  0  0  0  0  0  0  # atno 11005 bound_to 11000
  145.7747  140.9882  143.1131 LP  0  0  0  0  0  0  0  0  0  0  0  0  # atno 17320 bound_to 7965
  144.6866  139.9490  143.7477 LP  0  0  0  0  0  0  0  0  0  0  0  0  # atno 17321 bound_to 7965
  139.8591  144.7126  150.9122 LP  0  0  0  0  0  0  0  0  0  0  0  0  # atno 17342 bound_to 10162
  140.7788  143.3833  151.1438 LP  0  0  0  0  0  0  0  0  0  0  0  0  # atno 17343 bound_to 10162
  156.7284  130.9034  151.3624 LP  0  0  0  0  0  0  0  0  0  0  0  0  # atno 17370 bound_to 10713
  157.6865  130.9191  150.0401 LP  0  0  0  0  0  0  0  0  0  0  0  0  # atno 17371 bound_to 10713
  140.5465  134.6069  157.5395 LP  0  0  0  0  0  0  0  0  0  0  0  0  # atno 17394 bound_to 11000
  139.9625  134.7427  156.0206 LP  0  0  0  0  0  0  0  0  0  0  0  0  # atno 17395 bound_to 11000

$$$$
