AV-unprocessed.smi:2151|AV-procd|sdf|8760|dock3
  -GOLD-   2272011533D 1   1.00000     0.00000
 Structure written by MMmdl.
 39 40  0  0  0  0  0  0  0  0  1 V2000
  151.3050  137.3437  154.5630 C   0  0  0  0  0  0  0  0  0  0  0  0
  151.0527  138.8164  154.9180 C   0  0  2  0  0  0  0  0  0  0  0  0
  151.0542  138.9589  156.3729 N   0  0  0  0  0  0  0  0  0  0  0  0
  152.1410  139.0223  157.1579 C   0  0  0  0  0  0  0  0  0  0  0  0
  153.2928  138.9310  156.7315 O   0  0  0  0  0  0  0  0  0  0  0  0
  151.8737  139.2108  158.6578 C   0  0  0  0  0  0  0  0  0  0  0  0
  152.3960  140.4835  159.1828 N   0  0  0  0  0  0  0  0  0  0  0  0
  151.7704  141.6657  158.7408 C   0  0  0  0  0  0  0  0  0  0  0  0
  152.1571  142.8929  159.1392 C   0  0  0  0  0  0  0  0  0  0  0  0
  151.4192  144.1472  158.6972 C   0  0  0  0  0  0  0  0  0  0  0  0
  151.9098  145.2302  159.3004 F   0  0  0  0  0  0  0  0  0  0  0  0
  151.5504  144.3099  157.3815 F   0  0  0  0  0  0  0  0  0  0  0  0
  150.1178  144.0650  158.9773 F   0  0  0  0  0  0  0  0  0  0  0  0
  153.2523  142.9477  160.0875 C   0  0  0  0  0  0  0  0  0  0  0  0
  153.8525  141.8258  160.5313 C   0  0  0  0  0  0  0  0  0  0  0  0
  153.4291  140.4991  160.0779 C   0  0  0  0  0  0  0  0  0  0  0  0
  153.9675  139.4665  160.4787 O   0  0  0  0  0  0  0  0  0  0  0  0
  149.7205  139.3276  154.3307 C   0  0  1  0  0  0  0  0  0  0  0  0
  148.4614  138.6882  154.9218 C   0  0  0  0  0  0  0  0  0  0  0  0
  147.4194  139.7432  154.6318 C   0  0  0  0  0  0  0  0  0  0  0  0
  148.2033  141.0280  154.8801 C   0  0  0  0  0  0  0  0  0  0  0  0
  149.5637  140.7229  154.5822 O   0  0  0  0  0  0  0  0  0  0  0  0
  151.3433  137.2001  153.4829 H   0  0  0  0  0  0  0  0  0  0  0  0
  150.5180  136.6988  154.9558 H   0  0  0  0  0  0  0  0  0  0  0  0
  152.2551  136.9986  154.9719 H   0  0  0  0  0  0  0  0  0  0  0  0
  151.8660  139.4023  154.4862 H   0  0  0  0  0  0  0  0  0  0  0  0
  150.1509  139.0392  156.8169 H   0  0  0  0  0  0  0  0  0  0  0  0
  150.8008  139.1428  158.8487 H   0  0  0  0  0  0  0  0  0  0  0  0
  152.3122  138.3651  159.1892 H   0  0  0  0  0  0  0  0  0  0  0  0
  150.9427  141.5100  158.0641 H   0  0  0  0  0  0  0  0  0  0  0  0
  153.6001  143.9051  160.4465 H   0  0  0  0  0  0  0  0  0  0  0  0
  154.6664  141.9047  161.2374 H   0  0  0  0  0  0  0  0  0  0  0  0
  149.7104  139.1847  153.2487 H   0  0  0  0  0  0  0  0  0  0  0  0
  148.2245  137.7204  154.4785 H   0  0  0  0  0  0  0  0  0  0  0  0
  148.5657  138.5550  155.9996 H   0  0  0  0  0  0  0  0  0  0  0  0
  147.1103  139.6862  153.5872 H   0  0  0  0  0  0  0  0  0  0  0  0
  146.5311  139.6563  155.2581 H   0  0  0  0  0  0  0  0  0  0  0  0
  147.8394  141.8589  154.2752 H   0  0  0  0  0  0  0  0  0  0  0  0
  148.1370  141.3185  155.9293 H   0  0  0  0  0  0  0  0  0  0  0  0
  1  2  1  0  0  0  0
  1 23  1  0  0  0  0
  1 24  1  0  0  0  0
  1 25  1  0  0  0  0
  2  3  1  0  0  0  0
  2 18  1  0  0  0  0
  2 26  1  0  0  0  0
  3  4  1  0  0  0  0
  3 27  1  0  0  0  0
  4  5  2  0  0  0  0
  4  6  1  0  0  0  0
  6  7  1  0  0  0  0
  6 28  1  0  0  0  0
  6 29  1  0  0  0  0
  7 16  1  0  0  0  0
  7  8  1  0  0  0  0
  8  9  2  0  0  0  0
  8 30  1  0  0  0  0
  9 10  1  0  0  0  0
  9 14  1  0  0  0  0
 10 11  1  0  0  0  0
 10 12  1  0  0  0  0
 10 13  1  0  0  0  0
 14 15  2  0  0  0  0
 14 31  1  0  0  0  0
 15 16  1  0  0  0  0
 15 32  1  0  0  0  0
 16 17  2  0  0  0  0
 18 22  1  0  0  0  0
 18 19  1  0  0  0  0
 18 33  1  0  0  0  0
 19 20  1  0  0  0  0
 19 34  1  0  0  0  0
 19 35  1  0  0  0  0
 20 21  1  0  0  0  0
 20 36  1  0  0  0  0
 20 37  1  0  0  0  0
 21 22  1  0  0  0  0
 21 38  1  0  0  0  0
 21 39  1  0  0  0  0
M  END
> <s_m_source_file>
AV-unprocessed.smi

> <i_m_source_file_index>
2151

> <i_lp_mmshare_version>
43012

> <i_f3d_flags>
0

> <s_epik_input>
TzFbQ0gyXVtDSDJdW0NIMl1bQ0BIXTFbQ0BIXShbQ0gzXSlbTkhdQyg9TylbQ0gyXW4yW2NIXWMoQyhGKShGKUYpW2NIXVtjSF1jMj1P

> <s_epik_cmdline>
J2VwaWtfcHl0aG9uJywgJy1waCcsICc3LjAnLCAnLXRuJywgJzgnLCAnLW1hJywgJzIwMCcsICctbWV0YWxfYmluZGluZycsICctaW1hZScsICc8aW5maWxlLm1hZT4nLCAnLW9tYWUnLCAnPG91dGZpbGUubWFlPic=

> <r_lp_tautomer_probability>
1

> <r_epik_Ionization_Penalty>
4.20109e-08

> <r_epik_Ionization_Penalty_Charging>
1.89977e-08

> <r_epik_Ionization_Penalty_Neutral>
2.30132e-08

> <r_epik_State_Penalty>
-0

> <r_epik_Charging_Adjusted_Penalty>
1.89977e-08

> <i_epik_Tot_Q>
0

> <i_epik_Tot_abs_Q>
0

> <r_epik_Metal_State_Penalty>
-0

> <b_epik_Metal_Only>
0

> <s_lp_Force_Field>
OPLS_2005

> <r_lp_Energy>
29.4657

> <b_lp_Chiralities_Consistent>
1

> <s_lp_Variant>
AV-unprocessed.smi:2151-3

> <Gold.Version>
5.8.1

> <Gold.Id.Protein>
6NUR|6NUR_protein|mol2

> <Gold.PLP.Fitness>
52.9897

> <Gold.PLP.PLP>
-50.7961

> <Gold.PLP.part.hbond>
-1.9785

> <Gold.PLP.part.metal>
0.0000

> <Gold.PLP.part.buried>
-4.7139

> <Gold.PLP.part.nonpolar>
-43.4790

> <Gold.PLP.part.repulsive>
0.2082

> <Gold.PLP.ligand.clash>
0.0000

> <Gold.PLP.ligand.torsion>
0.4396

> <Gold.PLP.Chemscore.Hbond>
1.0000

> <Gold.PLP.Chemscore.CHOScore>
0.0000

> <Gold.PLP.Chemscore.Metal>
0.0000

> <Gold.Chemscore.Hbonds>
donor molecule, donor type, donor heavy atom, donor atom, acceptor molecule, acceptor atom, score
      P1  H  7989  7998       L1    22  0.04
      P1  H  7997  8009       L1     5  1.00

> <Gold.PLP.Chemscore.Internal.Correction>
0.0727

> <Gold.Rescore>
     Score         DG    S(hbond)    S(metal)    S(lipo)     H(rot)  DE(clash)    DE(int)     intcor
     14.96     -15.30       0.97        0.00      96.17       1.82       0.00       0.34       ----

> <Gold.Chemscore.Fitness>
14.9585

> <Gold.Chemscore.DG>
-15.3010

> <Gold.Chemscore.ZeroCoef>
-5.4800

> <Gold.Chemscore.Hbond>
0.9687

> <Gold.Chemscore.Metal>
0.0000

> <Gold.Chemscore.Lipo>
96.1715

> <Gold.Chemscore.Internal_Hbond>
0.0000

> <Gold.Chemscore.DEClash>
0.0047

> <Gold.Chemscore.DEInternal>
0.3378

> <Gold.Chemscore.Rot>
1.8228

> <Gold.Chemscore.Internal.Correction>
   9.000000E+99

> <Gold.Chemscore.Hbonds>
donor molecule, donor type, donor heavy atom, donor atom, acceptor molecule, acceptor atom, score
      P1  H  7997  8009       L1     5  0.96

> <Gold.Chemscore.Hbond.Weighted>
-3.2354

> <Gold.Chemscore.Metal.Weighted>
-0.0000

> <Gold.Chemscore.Lipo.Weighted>
-11.2521

> <Gold.Chemscore.Internal_Hbond.Weighted>
0.0000

> <Gold.Chemscore.DEClash.Weighted>
0.0047

> <Gold.Chemscore.DEInternal.Weighted>
0.3378

> <Gold.Chemscore.Rot.Weighted>
4.6665

> <Gold.Chemscore.Internal.Correction.Weighted>
   9.000000E+99

> <Gold.Protein.RotatedTorsions>
[ 6907 6896 6895 6894 ] final -120.19 input  -60.11 | X-H torsion
[ 7974 7965 7964 7962 ] final  -89.89 input  175.53 | X-H torsion
[ 8008 7997 7996 7995 ] final -173.14 input   59.86 | X-H torsion
[ 10167 10162 10161 10158 ] final   61.20 input  -65.29 | X-H torsion
[ 10718 10713 10712 10709 ] final  103.16 input   66.30 | X-H torsion
[ 10763 10752 10751 10750 ] final -178.38 input  -60.55 | X-H torsion
[ 11005 11000 10999 10996 ] final   54.92 input  -57.11 | X-H torsion

> <Gold.Protein.ActiveResidues>
 VAL166  LYS551  ARG553  GLY616  TRP617  ASP618  TYR619  PRO620  LYS621  CYS622 
 ASP623  PHE694  ASN695  SER759  ASP760  ASP761  ALA762  ILE779  LEU786  VAL792 
 PHE793  MET794  SER795  GLU796  ALA797  LYS798  CYS799  TRP800  GLU811  SER814 

> <Gold.Protein.RotatedAtoms>
  150.8371  133.7996  159.3075 H   0  0  0  0  0  0  0  0  0  0  0  0  # atno 6907 bound_to 6896
  151.5708  135.1061  160.0004 H   0  0  0  0  0  0  0  0  0  0  0  0  # atno 6908 bound_to 6896
  152.4441  133.7462  159.6725 H   0  0  0  0  0  0  0  0  0  0  0  0  # atno 6909 bound_to 6896
  145.4338  140.9557  143.2113 H   0  0  0  0  0  0  0  0  0  0  0  0  # atno 7974 bound_to 7965
  155.9536  140.1131  157.0956 H   0  0  0  0  0  0  0  0  0  0  0  0  # atno 8008 bound_to 7997
  154.4115  140.1196  156.5151 H   0  0  0  0  0  0  0  0  0  0  0  0  # atno 8009 bound_to 7997
  155.6811  140.3473  155.4858 H   0  0  0  0  0  0  0  0  0  0  0  0  # atno 8010 bound_to 7997
  140.1573  144.4404  150.6727 H   0  0  0  0  0  0  0  0  0  0  0  0  # atno 10167 bound_to 10162
  157.6781  131.0772  150.5513 H   0  0  0  0  0  0  0  0  0  0  0  0  # atno 10718 bound_to 10713
  154.5484  135.2811  155.1032 H   0  0  0  0  0  0  0  0  0  0  0  0  # atno 10763 bound_to 10752
  154.2487  135.6343  153.5236 H   0  0  0  0  0  0  0  0  0  0  0  0  # atno 10764 bound_to 10752
  152.9996  135.5577  154.6043 H   0  0  0  0  0  0  0  0  0  0  0  0  # atno 10765 bound_to 10752
  140.0648  134.5552  155.9112 H   0  0  0  0  0  0  0  0  0  0  0  0  # atno 11005 bound_to 11000
  144.8166  139.5866  143.7006 LP  0  0  0  0  0  0  0  0  0  0  0  0  # atno 17320 bound_to 7965
  146.2593  139.6374  142.9373 LP  0  0  0  0  0  0  0  0  0  0  0  0  # atno 17321 bound_to 7965
  140.6665  143.2270  151.5731 LP  0  0  0  0  0  0  0  0  0  0  0  0  # atno 17342 bound_to 10162
  139.5397  144.2681  152.1326 LP  0  0  0  0  0  0  0  0  0  0  0  0  # atno 17343 bound_to 10162
  156.5817  130.4306  149.5974 LP  0  0  0  0  0  0  0  0  0  0  0  0  # atno 17370 bound_to 10713
  156.2655  130.6987  151.1769 LP  0  0  0  0  0  0  0  0  0  0  0  0  # atno 17371 bound_to 10713
  141.1988  133.6603  156.5811 LP  0  0  0  0  0  0  0  0  0  0  0  0  # atno 17394 bound_to 11000
  140.3716  134.7601  157.4602 LP  0  0  0  0  0  0  0  0  0  0  0  0  # atno 17395 bound_to 11000

$$$$
