AV-unprocessed.smi:100|AV-procd|sdf|906|dock8
  -GOLD-   2262017403D 1   1.00000     0.00000
 Structure written by MMmdl.
 31 33  0  0  0  0  0  0  0  0  1 V2000
  150.8182  137.7173  153.7152 N   0  0  0  0  0  0  0  0  0  0  0  0
  151.5111  138.1893  154.7609 C   0  0  0  0  0  0  0  0  0  0  0  0
  152.4555  137.3950  155.3174 N   0  0  0  0  0  0  0  0  0  0  0  0
  153.1604  137.8436  156.3612 C   0  0  0  0  0  0  0  0  0  0  0  0
  153.0759  139.0236  156.9809 N   0  0  0  0  0  0  0  0  0  0  0  0
  152.1234  139.8231  156.4189 C   0  0  0  0  0  0  0  0  0  0  0  0
  151.3016  139.4797  155.3099 C   0  0  0  0  0  0  0  0  0  0  0  0
  150.4481  140.5324  155.0094 N   0  0  0  0  0  0  0  0  0  0  0  0
  150.7505  141.4436  155.8949 C   0  0  0  0  0  0  0  0  0  0  0  0
  151.7498  141.1019  156.7802 N   0  0  0  0  0  0  0  0  0  0  0  0
  152.3029  141.9347  157.8907 C   0  0  1  0  0  0  0  0  0  0  0  0
  151.7605  143.2161  157.7896 O   0  0  0  0  0  0  0  0  0  0  0  0
  151.5484  143.7560  159.0952 C   0  0  1  0  0  0  0  0  0  0  0  0
  150.1029  144.2762  159.2306 C   0  0  0  0  0  0  0  0  0  0  0  0
  149.1829  143.5566  158.4358 O   0  0  0  0  0  0  0  0  0  0  0  0
  151.9700  142.6643  160.0912 C   0  0  2  0  0  0  0  0  0  0  0  0
  153.2366  142.9066  160.4425 F   0  0  0  0  0  0  0  0  0  0  0  0
  151.8792  141.3953  159.2559 C   0  0  2  0  0  0  0  0  0  0  0  0
  152.7364  140.3928  159.7658 O   0  0  0  0  0  0  0  0  0  0  0  0
  150.1086  138.2910  153.2825 H   0  0  0  0  0  0  0  0  0  0  0  0
  151.0071  136.7905  153.3623 H   0  0  0  0  0  0  0  0  0  0  0  0
  153.8975  137.1607  156.7570 H   0  0  0  0  0  0  0  0  0  0  0  0
  150.2498  142.4006  155.9250 H   0  0  0  0  0  0  0  0  0  0  0  0
  153.3837  141.9679  157.7404 H   0  0  0  0  0  0  0  0  0  0  0  0
  152.2138  144.6153  159.1919 H   0  0  0  0  0  0  0  0  0  0  0  0
  149.7781  144.1750  160.2662 H   0  0  0  0  0  0  0  0  0  0  0  0
  150.0512  145.3376  158.9860 H   0  0  0  0  0  0  0  0  0  0  0  0
  148.7475  144.1632  157.8565 H   0  0  0  0  0  0  0  0  0  0  0  0
  151.3777  142.6343  161.0062 H   0  0  0  0  0  0  0  0  0  0  0  0
  150.8497  141.0379  159.2130 H   0  0  0  0  0  0  0  0  0  0  0  0
  153.5532  140.7975  160.0151 H   0  0  0  0  0  0  0  0  0  0  0  0
  1  2  1  0  0  0  0
  1 20  1  0  0  0  0
  1 21  1  0  0  0  0
  2  7  1  0  0  0  0
  2  3  2  0  0  0  0
  3  4  1  0  0  0  0
  4  5  2  0  0  0  0
  4 22  1  0  0  0  0
  5  6  1  0  0  0  0
  6 10  1  0  0  0  0
  6  7  2  0  0  0  0
  7  8  1  0  0  0  0
  8  9  2  0  0  0  0
  9 10  1  0  0  0  0
  9 23  1  0  0  0  0
 10 11  1  0  0  0  0
 11 18  1  0  0  0  0
 11 12  1  0  0  0  0
 11 24  1  0  0  0  0
 12 13  1  0  0  0  0
 13 14  1  0  0  0  0
 13 16  1  0  0  0  0
 13 25  1  0  0  0  0
 14 15  1  0  0  0  0
 14 26  1  0  0  0  0
 14 27  1  0  0  0  0
 15 28  1  0  0  0  0
 16 17  1  0  0  0  0
 16 18  1  0  0  0  0
 16 29  1  0  0  0  0
 18 19  1  0  0  0  0
 18 30  1  0  0  0  0
 19 31  1  0  0  0  0
M  END
> <s_m_source_file>
AV-unprocessed.smi

> <i_m_source_file_index>
100

> <i_lp_mmshare_version>
43012

> <i_f3d_flags>
0

> <s_epik_input>
bjFbY0hdbmMoW05IMl0pYyhjMTIpbltjSF1uMltDQEBIXTNPW0NAQEhdKFtDSDJdW09IXSlbQ0BIXShGKVtDQEhdM1tPSF0=

> <s_epik_cmdline>
J2VwaWtfcHl0aG9uJywgJy1waCcsICc3LjAnLCAnLXRuJywgJzgnLCAnLW1hJywgJzIwMCcsICctbWV0YWxfYmluZGluZycsICctaW1hZScsICc8aW5maWxlLm1hZT4nLCAnLW9tYWUnLCAnPG91dGZpbGUubWFlPic=

> <r_lp_tautomer_probability>
1

> <r_epik_Ionization_Penalty>
0.000750324

> <r_epik_Ionization_Penalty_Charging>
0

> <r_epik_Ionization_Penalty_Neutral>
0.000750324

> <r_epik_State_Penalty>
-0

> <r_epik_Charging_Adjusted_Penalty>
0

> <i_epik_Tot_Q>
0

> <i_epik_Tot_abs_Q>
0

> <r_epik_Metal_State_Penalty>
-0

> <b_epik_Metal_Only>
0

> <s_epik_Chemistry_Notes>
This compound contains an acetal/aminal-like group ( X-CH(R)-Y where X, Y are N, S, or O) that may be acid/base labile, releasing an aldehyde.

> <s_lp_Force_Field>
OPLS_2005

> <r_lp_Energy>
36.265

> <b_lp_Chiralities_Consistent>
1

> <s_lp_Variant>
AV-unprocessed.smi:100-10

> <Gold.Version>
5.8.1

> <Gold.Id.Protein>
6NUR|6NUR_protein|mol2

> <Gold.PLP.Fitness>
43.8892

> <Gold.PLP.PLP>
-33.3676

> <Gold.PLP.part.hbond>
-7.0000

> <Gold.PLP.part.metal>
0.0000

> <Gold.PLP.part.buried>
-4.5653

> <Gold.PLP.part.nonpolar>
-20.8073

> <Gold.PLP.part.repulsive>
0.2903

> <Gold.PLP.ligand.clash>
0.0000

> <Gold.PLP.ligand.torsion>
0.5459

> <Gold.PLP.Chemscore.Hbond>
3.1144

> <Gold.PLP.Chemscore.CHOScore>
0.7526

> <Gold.PLP.Chemscore.Metal>
0.0000

> <Gold.Chemscore.Hbonds>
donor molecule, donor type, donor heavy atom, donor atom, acceptor molecule, acceptor atom, score
      L1  H     1    21       P1  7949  0.67
      L1  H    15    28       P1  8029  0.48
      P1  H  7989  7998       L1     8  0.29
      P1  H  7997  8009       L1     5  1.00
      P1  H 10752 10763       L1     3  0.64
      L1  C     9    23       P1  8028  0.57

> <Gold.PLP.Chemscore.Internal.Correction>
0.0124

> <Gold.Rescore>
     Score         DG    S(hbond)    S(metal)    S(lipo)     H(rot)  DE(clash)    DE(int)     intcor
      6.12      -6.52       1.40        0.00      38.77       3.19       0.09       0.31       ----

> <Gold.Chemscore.Fitness>
6.1229

> <Gold.Chemscore.DG>
-6.5201

> <Gold.Chemscore.ZeroCoef>
-5.4800

> <Gold.Chemscore.Hbond>
1.3983

> <Gold.Chemscore.Metal>
0.0000

> <Gold.Chemscore.Lipo>
38.7738

> <Gold.Chemscore.Internal_Hbond>
0.0000

> <Gold.Chemscore.DEClash>
0.0891

> <Gold.Chemscore.DEInternal>
0.3080

> <Gold.Chemscore.Rot>
3.1901

> <Gold.Chemscore.Internal.Correction>
   9.000000E+99

> <Gold.Chemscore.Hbonds>
donor molecule, donor type, donor heavy atom, donor atom, acceptor molecule, acceptor atom, score
      L1  H     1    21       P1  7949  0.19
      L1  H    15    28       P1  8029  0.02
      P1  H  7997  8009       L1     5  0.27
      P1  H 10752 10763       L1     3  0.55

> <Gold.Chemscore.Hbond.Weighted>
-4.6702

> <Gold.Chemscore.Metal.Weighted>
-0.0000

> <Gold.Chemscore.Lipo.Weighted>
-4.5365

> <Gold.Chemscore.Internal_Hbond.Weighted>
0.0000

> <Gold.Chemscore.DEClash.Weighted>
0.0891

> <Gold.Chemscore.DEInternal.Weighted>
0.3080

> <Gold.Chemscore.Rot.Weighted>
8.1667

> <Gold.Chemscore.Internal.Correction.Weighted>
   9.000000E+99

> <Gold.Protein.RotatedTorsions>
[ 6907 6896 6895 6894 ] final  -89.40 input  -60.11 | X-H torsion
[ 7974 7965 7964 7962 ] final   -6.19 input  175.53 | X-H torsion
[ 8008 7997 7996 7995 ] final  165.17 input   59.86 | X-H torsion
[ 10167 10162 10161 10158 ] final   20.23 input  -65.29 | X-H torsion
[ 10718 10713 10712 10709 ] final  -33.62 input   66.30 | X-H torsion
[ 10763 10752 10751 10750 ] final   67.21 input  -60.55 | X-H torsion
[ 11005 11000 10999 10996 ] final  -60.07 input  -57.11 | X-H torsion

> <Gold.Protein.ActiveResidues>
 VAL166  LYS551  ARG553  GLY616  TRP617  ASP618  TYR619  PRO620  LYS621  CYS622 
 ASP623  PHE694  ASN695  SER759  ASP760  ASP761  ALA762  ILE779  LEU786  VAL792 
 PHE793  MET794  SER795  GLU796  ALA797  LYS798  CYS799  TRP800  GLU811  SER814 

> <Gold.Protein.RotatedAtoms>
  150.6873  134.2592  159.4542 H   0  0  0  0  0  0  0  0  0  0  0  0  # atno 6907 bound_to 6896
  152.0524  134.9643  160.0584 H   0  0  0  0  0  0  0  0  0  0  0  0  # atno 6908 bound_to 6896
  152.1102  133.4262  159.4664 H   0  0  0  0  0  0  0  0  0  0  0  0  # atno 6909 bound_to 6896
  146.2336  140.2133  142.8336 H   0  0  0  0  0  0  0  0  0  0  0  0  # atno 7974 bound_to 7965
  156.1822  140.1677  156.8253 H   0  0  0  0  0  0  0  0  0  0  0  0  # atno 8008 bound_to 7997
  154.5373  140.0744  156.8482 H   0  0  0  0  0  0  0  0  0  0  0  0  # atno 8009 bound_to 7997
  155.3286  140.3377  155.4242 H   0  0  0  0  0  0  0  0  0  0  0  0  # atno 8010 bound_to 7997
  140.5519  143.9493  150.6584 H   0  0  0  0  0  0  0  0  0  0  0  0  # atno 10167 bound_to 10162
  156.3604  130.4323  149.7629 H   0  0  0  0  0  0  0  0  0  0  0  0  # atno 10718 bound_to 10713
  153.0175  135.5292  154.6943 H   0  0  0  0  0  0  0  0  0  0  0  0  # atno 10763 bound_to 10752
  154.6069  135.2874  155.0476 H   0  0  0  0  0  0  0  0  0  0  0  0  # atno 10764 bound_to 10752
  154.1512  135.6562  153.5016 H   0  0  0  0  0  0  0  0  0  0  0  0  # atno 10765 bound_to 10752
  141.1273  133.6620  156.5167 H   0  0  0  0  0  0  0  0  0  0  0  0  # atno 11005 bound_to 11000
  144.9689  140.8349  143.5467 LP  0  0  0  0  0  0  0  0  0  0  0  0  # atno 17320 bound_to 7965
  145.2112  139.2204  143.5142 LP  0  0  0  0  0  0  0  0  0  0  0  0  # atno 17321 bound_to 7965
  140.2922  143.3317  152.1052 LP  0  0  0  0  0  0  0  0  0  0  0  0  # atno 17342 bound_to 10162
  139.5031  144.6748  151.6154 LP  0  0  0  0  0  0  0  0  0  0  0  0  # atno 17343 bound_to 10162
  156.4795  130.8034  151.3049 LP  0  0  0  0  0  0  0  0  0  0  0  0  # atno 17370 bound_to 10713
  157.7473  131.0010  150.2948 LP  0  0  0  0  0  0  0  0  0  0  0  0  # atno 17371 bound_to 10713
  140.4325  134.7088  157.4949 LP  0  0  0  0  0  0  0  0  0  0  0  0  # atno 17394 bound_to 11000
  140.0284  134.6443  155.9141 LP  0  0  0  0  0  0  0  0  0  0  0  0  # atno 17395 bound_to 11000

$$$$
