AV-unprocessed.smi:1276|AV-procd|sdf|5344|dock5
  -GOLD-   22720 4473D 1   1.00000     0.00000
 Structure written by MMmdl.
 44 45  0  0  0  0  0  0  0  0  1 V2000
  146.0478  137.6847  156.3125 C   0  0  0  0  0  0  0  0  0  0  0  0
  146.9259  138.7275  155.6754 C   0  0  0  0  0  0  0  0  0  0  0  0
  148.1868  138.4548  155.5963 N   0  0  0  0  0  0  0  0  0  0  0  0
  149.0817  139.3452  155.0349 N   0  0  0  0  0  0  0  0  0  0  0  0
  150.4776  138.8831  155.0498 C   0  0  0  0  0  0  0  0  0  0  0  0
  151.4377  139.8746  155.7235 C   0  0  0  0  0  0  0  0  0  0  0  0
  152.5415  140.1155  155.2326 O   0  0  0  0  0  0  0  0  0  0  0  0
  150.9863  140.4611  156.8433 N   0  0  0  0  0  0  0  0  0  0  0  0
  151.7221  141.4327  157.6503 C   0  0  0  0  0  0  0  0  0  0  0  0
  151.9713  140.8083  159.0399 C   0  0  0  0  0  0  0  0  0  0  0  0
  152.4183  141.7561  160.1681 C   0  0  0  0  0  0  0  0  0  0  0  0
  153.3289  142.9201  159.7474 C   0  0  0  0  0  0  0  0  0  0  0  0
  152.5364  144.1418  159.2531 C   0  0  0  0  0  0  0  0  0  0  0  0
  151.9221  143.9874  157.8542 C   0  0  0  0  0  0  0  0  0  0  0  0
  150.9768  142.7853  157.6801 C   0  0  0  0  0  0  0  0  0  0  0  0
  148.7445  140.5593  154.5119 C   0  0  0  0  0  0  0  0  0  0  0  0
  149.5761  141.3200  154.0142 O   0  0  0  0  0  0  0  0  0  0  0  0
  147.3142  140.8609  154.6036 C   0  0  0  0  0  0  0  0  0  0  0  0
  146.9190  142.1251  154.0714 C   0  0  0  0  0  0  0  0  0  0  0  0
  146.5807  143.1485  153.6494 N   0  0  0  0  0  0  0  0  0  0  0  0
  146.4267  139.9975  155.1578 C   0  0  0  0  0  0  0  0  0  0  0  0
  144.9325  140.2640  155.2785 C   0  0  0  0  0  0  0  0  0  0  0  0
  145.3050  137.3194  155.6033 H   0  0  0  0  0  0  0  0  0  0  0  0
  145.5212  138.0955  157.1740 H   0  0  0  0  0  0  0  0  0  0  0  0
  146.6229  136.8247  156.6590 H   0  0  0  0  0  0  0  0  0  0  0  0
  150.5537  137.9304  155.5770 H   0  0  0  0  0  0  0  0  0  0  0  0
  150.8141  138.6804  154.0313 H   0  0  0  0  0  0  0  0  0  0  0  0
  150.0652  140.2073  157.1693 H   0  0  0  0  0  0  0  0  0  0  0  0
  152.6952  141.5856  157.1796 H   0  0  0  0  0  0  0  0  0  0  0  0
  151.0715  140.2937  159.3807 H   0  0  0  0  0  0  0  0  0  0  0  0
  152.7239  140.0271  158.9238 H   0  0  0  0  0  0  0  0  0  0  0  0
  151.5384  142.1545  160.6751 H   0  0  0  0  0  0  0  0  0  0  0  0
  152.9332  141.1592  160.9219 H   0  0  0  0  0  0  0  0  0  0  0  0
  153.8995  143.2312  160.6232 H   0  0  0  0  0  0  0  0  0  0  0  0
  154.0662  142.5998  159.0106 H   0  0  0  0  0  0  0  0  0  0  0  0
  151.7550  144.3915  159.9718 H   0  0  0  0  0  0  0  0  0  0  0  0
  153.2038  145.0040  159.2357 H   0  0  0  0  0  0  0  0  0  0  0  0
  151.3677  144.8986  157.6268 H   0  0  0  0  0  0  0  0  0  0  0  0
  152.7172  143.9370  157.1094 H   0  0  0  0  0  0  0  0  0  0  0  0
  150.4560  142.9300  156.7323 H   0  0  0  0  0  0  0  0  0  0  0  0
  150.1996  142.7851  158.4452 H   0  0  0  0  0  0  0  0  0  0  0  0
  144.6463  141.2177  154.8365 H   0  0  0  0  0  0  0  0  0  0  0  0
  144.6319  140.2851  156.3264 H   0  0  0  0  0  0  0  0  0  0  0  0
  144.3612  139.4858  154.7719 H   0  0  0  0  0  0  0  0  0  0  0  0
  1  2  1  0  0  0  0
  1 23  1  0  0  0  0
  1 24  1  0  0  0  0
  1 25  1  0  0  0  0
  2 21  1  0  0  0  0
  2  3  2  0  0  0  0
  3  4  1  0  0  0  0
  4  5  1  0  0  0  0
  4 16  1  0  0  0  0
  5  6  1  0  0  0  0
  5 26  1  0  0  0  0
  5 27  1  0  0  0  0
  6  7  2  0  0  0  0
  6  8  1  0  0  0  0
  8  9  1  0  0  0  0
  8 28  1  0  0  0  0
  9 15  1  0  0  0  0
  9 10  1  0  0  0  0
  9 29  1  0  0  0  0
 10 11  1  0  0  0  0
 10 30  1  0  0  0  0
 10 31  1  0  0  0  0
 11 12  1  0  0  0  0
 11 32  1  0  0  0  0
 11 33  1  0  0  0  0
 12 13  1  0  0  0  0
 12 34  1  0  0  0  0
 12 35  1  0  0  0  0
 13 14  1  0  0  0  0
 13 36  1  0  0  0  0
 13 37  1  0  0  0  0
 14 15  1  0  0  0  0
 14 38  1  0  0  0  0
 14 39  1  0  0  0  0
 15 40  1  0  0  0  0
 15 41  1  0  0  0  0
 16 17  2  0  0  0  0
 16 18  1  0  0  0  0
 18 19  1  0  0  0  0
 18 21  2  0  0  0  0
 19 20  3  0  0  0  0
 21 22  1  0  0  0  0
 22 42  1  0  0  0  0
 22 43  1  0  0  0  0
 22 44  1  0  0  0  0
M  END
> <s_m_source_file>
AV-unprocessed.smi

> <i_m_source_file_index>
1276

> <i_lp_mmshare_version>
43012

> <i_f3d_flags>
0

> <s_epik_input>
TiNDYyhjMVtDSDNdKWMoPU8pbihuYzFbQ0gzXSlbQ0gyXUMoPU8pW05IXVtDSF0yW0NIMl1bQ0gyXVtDSDJdW0NIMl1bQ0gyXVtDSDJdMg==

> <s_epik_cmdline>
J2VwaWtfcHl0aG9uJywgJy1waCcsICc3LjAnLCAnLXRuJywgJzgnLCAnLW1hJywgJzIwMCcsICctbWV0YWxfYmluZGluZycsICctaW1hZScsICc8aW5maWxlLm1hZT4nLCAnLW9tYWUnLCAnPG91dGZpbGUubWFlPic=

> <r_lp_tautomer_probability>
1

> <r_epik_Ionization_Penalty>
2.02378e-08

> <r_epik_Ionization_Penalty_Charging>
2.27609e-11

> <r_epik_Ionization_Penalty_Neutral>
2.0215e-08

> <r_epik_State_Penalty>
-0

> <r_epik_Charging_Adjusted_Penalty>
2.27609e-11

> <i_epik_Tot_Q>
0

> <i_epik_Tot_abs_Q>
0

> <r_epik_Metal_State_Penalty>
-0

> <b_epik_Metal_Only>
0

> <s_lp_Force_Field>
OPLS_2005

> <r_lp_Energy>
30.1422

> <b_lp_Chiralities_Consistent>
1

> <s_lp_Variant>
AV-unprocessed.smi:1276-1

> <Gold.Version>
5.8.1

> <Gold.Id.Protein>
6NUR|6NUR_protein|mol2

> <Gold.PLP.Fitness>
43.7902

> <Gold.PLP.PLP>
-38.1673

> <Gold.PLP.part.hbond>
-4.2168

> <Gold.PLP.part.metal>
0.0000

> <Gold.PLP.part.buried>
-1.0062

> <Gold.PLP.part.nonpolar>
-32.7576

> <Gold.PLP.part.repulsive>
0.5247

> <Gold.PLP.ligand.clash>
0.0000

> <Gold.PLP.ligand.torsion>
0.2840

> <Gold.PLP.Chemscore.Hbond>
2.0556

> <Gold.PLP.Chemscore.CHOScore>
0.0000

> <Gold.PLP.Chemscore.Metal>
0.0000

> <Gold.Chemscore.Hbonds>
donor molecule, donor type, donor heavy atom, donor atom, acceptor molecule, acceptor atom, score
      P1  H  7989  7998       L1     7  0.29
      P1  H  7997  8008       L1     7  1.00
      P1  H  8011  8017       L1    17  0.75

> <Gold.PLP.Chemscore.Internal.Correction>
0.0240

> <Gold.Rescore>
     Score         DG    S(hbond)    S(metal)    S(lipo)     H(rot)  DE(clash)    DE(int)     intcor
     16.03     -18.15       1.91        0.00      85.65       1.46       0.57       1.55       ----

> <Gold.Chemscore.Fitness>
16.0286

> <Gold.Chemscore.DG>
-18.1464

> <Gold.Chemscore.ZeroCoef>
-5.4800

> <Gold.Chemscore.Hbond>
1.9122

> <Gold.Chemscore.Metal>
0.0000

> <Gold.Chemscore.Lipo>
85.6511

> <Gold.Chemscore.Internal_Hbond>
0.0000

> <Gold.Chemscore.DEClash>
0.5720

> <Gold.Chemscore.DEInternal>
1.5458

> <Gold.Chemscore.Rot>
1.4615

> <Gold.Chemscore.Internal.Correction>
   9.000000E+99

> <Gold.Chemscore.Hbonds>
donor molecule, donor type, donor heavy atom, donor atom, acceptor molecule, acceptor atom, score
      P1  H  7989  7998       L1    17  0.22
      P1  H  7997  8008       L1     7  0.95
      P1  H  8011  8017       L1    17  0.70

> <Gold.Chemscore.Hbond.Weighted>
-6.3866

> <Gold.Chemscore.Metal.Weighted>
-0.0000

> <Gold.Chemscore.Lipo.Weighted>
-10.0212

> <Gold.Chemscore.Internal_Hbond.Weighted>
0.0000

> <Gold.Chemscore.DEClash.Weighted>
0.5720

> <Gold.Chemscore.DEInternal.Weighted>
1.5458

> <Gold.Chemscore.Rot.Weighted>
3.7414

> <Gold.Chemscore.Internal.Correction.Weighted>
   9.000000E+99

> <Gold.Protein.RotatedTorsions>
[ 6907 6896 6895 6894 ] final -164.97 input  -60.11 | X-H torsion
[ 7974 7965 7964 7962 ] final  175.64 input  175.53 | X-H torsion
[ 8008 7997 7996 7995 ] final  -17.29 input   59.86 | X-H torsion
[ 10167 10162 10161 10158 ] final -167.82 input  -65.29 | X-H torsion
[ 10718 10713 10712 10709 ] final   95.42 input   66.30 | X-H torsion
[ 10763 10752 10751 10750 ] final  120.53 input  -60.55 | X-H torsion
[ 11005 11000 10999 10996 ] final   56.35 input  -57.11 | X-H torsion

> <Gold.Protein.ActiveResidues>
 VAL166  LYS551  ARG553  GLY616  TRP617  ASP618  TYR619  PRO620  LYS621  CYS622 
 ASP623  PHE694  ASN695  SER759  ASP760  ASP761  ALA762  ILE779  LEU786  VAL792 
 PHE793  MET794  SER795  GLU796  ALA797  LYS798  CYS799  TRP800  GLU811  SER814 

> <Gold.Protein.RotatedAtoms>
  151.4203  133.3700  159.2755 H   0  0  0  0  0  0  0  0  0  0  0  0  # atno 6907 bound_to 6896
  150.9298  134.8715  159.7554 H   0  0  0  0  0  0  0  0  0  0  0  0  # atno 6908 bound_to 6896
  152.5022  134.4147  159.9512 H   0  0  0  0  0  0  0  0  0  0  0  0  # atno 6909 bound_to 6896
  144.7198  139.9977  143.6440 H   0  0  0  0  0  0  0  0  0  0  0  0  # atno 7974 bound_to 7965
  154.4989  140.2147  155.9387 H   0  0  0  0  0  0  0  0  0  0  0  0  # atno 8008 bound_to 7997
  156.1408  140.3180  155.8460 H   0  0  0  0  0  0  0  0  0  0  0  0  # atno 8009 bound_to 7997
  155.4124  140.0491  157.3021 H   0  0  0  0  0  0  0  0  0  0  0  0  # atno 8010 bound_to 7997
  139.6025  144.0981  152.1758 H   0  0  0  0  0  0  0  0  0  0  0  0  # atno 10167 bound_to 10162
  157.6939  131.0545  150.4336 H   0  0  0  0  0  0  0  0  0  0  0  0  # atno 10718 bound_to 10713
  153.5999  135.3450  155.2942 H   0  0  0  0  0  0  0  0  0  0  0  0  # atno 10763 bound_to 10752
  154.8638  135.4225  154.2424 H   0  0  0  0  0  0  0  0  0  0  0  0  # atno 10764 bound_to 10752
  153.3250  135.7040  153.7069 H   0  0  0  0  0  0  0  0  0  0  0  0  # atno 10765 bound_to 10752
  140.0536  134.5702  155.9234 H   0  0  0  0  0  0  0  0  0  0  0  0  # atno 11005 bound_to 11000
  146.0360  139.3378  143.0726 LP  0  0  0  0  0  0  0  0  0  0  0  0  # atno 17320 bound_to 7965
  145.8393  140.9589  143.0807 LP  0  0  0  0  0  0  0  0  0  0  0  0  # atno 17321 bound_to 7965
  140.0581  144.5879  150.7284 LP  0  0  0  0  0  0  0  0  0  0  0  0  # atno 17342 bound_to 10162
  140.7260  143.2637  151.4118 LP  0  0  0  0  0  0  0  0  0  0  0  0  # atno 17343 bound_to 10162
  156.4701  130.4051  149.6523 LP  0  0  0  0  0  0  0  0  0  0  0  0  # atno 17370 bound_to 10713
  156.3607  130.7480  151.2451 LP  0  0  0  0  0  0  0  0  0  0  0  0  # atno 17371 bound_to 10713
  141.1942  133.6582  156.5582 LP  0  0  0  0  0  0  0  0  0  0  0  0  # atno 17394 bound_to 11000
  140.3879  134.7466  157.4703 LP  0  0  0  0  0  0  0  0  0  0  0  0  # atno 17395 bound_to 11000

$$$$
