AV-unprocessed.smi:274|AV-procd|sdf|2058|dock1
  -GOLD-   2262021303D 1   1.00000     0.00000
 Structure written by MMmdl.
 50 53  0  0  0  0  0  0  0  0  1 V2000
  151.7390  141.6757  156.3275 C   0  0  0  0  0  0  0  0  0  0  0  0
  150.2046  141.7729  156.4456 C   0  0  0  0  0  0  0  0  0  0  0  0
  149.8483  142.3408  157.8336 C   0  0  0  0  0  0  0  0  0  0  0  0
  149.4755  140.4248  156.1420 C   0  0  2  0  0  0  0  0  0  0  0  0
  149.6830  139.9606  154.6803 C   0  0  0  0  0  0  0  0  0  0  0  0
  150.7246  139.3908  154.3615 O   0  0  0  0  0  0  0  0  0  0  0  0
  148.7010  140.1618  153.7831 N   0  0  0  0  0  0  0  0  0  0  0  0
  147.3950  140.7668  154.0481 C   0  0  0  0  0  0  0  0  0  0  0  0
  147.2417  141.3077  155.4839 C   0  0  0  0  0  0  0  0  0  0  0  0
  148.0370  140.5320  156.4381 N   0  0  0  0  0  0  0  0  0  0  0  0
  147.4581  139.4512  157.0326 C   0  0  0  0  0  0  0  0  0  0  0  0
  146.1465  139.1733  156.8014 N   0  0  0  0  0  0  0  0  0  0  0  0
  145.5662  138.1107  157.3655 C   0  0  0  0  0  0  0  0  0  0  0  0
  146.1016  137.2070  158.1869 N   0  0  0  0  0  0  0  0  0  0  0  0
  147.4134  137.4825  158.4355 C   0  0  0  0  0  0  0  0  0  0  0  0
  148.1624  138.5719  157.9054 C   0  0  0  0  0  0  0  0  0  0  0  0
  149.4632  138.5266  158.3929 N   0  0  0  0  0  0  0  0  0  0  0  0
  149.4852  137.4684  159.1555 C   0  0  0  0  0  0  0  0  0  0  0  0
  148.2943  136.7844  159.2431 N   0  0  0  0  0  0  0  0  0  0  0  0
  148.0375  135.5808  160.0189 C   0  0  0  0  0  0  0  0  0  0  0  0
  147.2409  135.8453  161.3174 C   0  0  1  0  0  0  0  0  0  0  0  0
  147.4989  137.1691  161.7537 O   0  0  0  0  0  0  0  0  0  0  0  0
  145.7323  135.6671  161.1719 C   0  0  0  0  0  0  0  0  0  0  0  0
  145.3133  135.1786  162.5511 C   0  0  0  0  0  0  0  0  0  0  0  0
  146.3715  134.3041  162.9035 O   0  0  0  0  0  0  0  0  0  0  0  0
  147.5988  134.8761  162.4619 C   0  0  0  0  0  0  0  0  0  0  0  0
  152.1373  140.8964  156.9783 H   0  0  0  0  0  0  0  0  0  0  0  0
  152.2139  142.6156  156.6102 H   0  0  0  0  0  0  0  0  0  0  0  0
  152.0602  141.4603  155.3091 H   0  0  0  0  0  0  0  0  0  0  0  0
  149.8849  142.5121  155.7104 H   0  0  0  0  0  0  0  0  0  0  0  0
  150.1642  141.6661  158.6289 H   0  0  0  0  0  0  0  0  0  0  0  0
  148.7783  142.5147  157.9458 H   0  0  0  0  0  0  0  0  0  0  0  0
  150.3424  143.2979  158.0021 H   0  0  0  0  0  0  0  0  0  0  0  0
  149.9334  139.6570  156.7660 H   0  0  0  0  0  0  0  0  0  0  0  0
  148.8650  139.8444  152.8389 H   0  0  0  0  0  0  0  0  0  0  0  0
  147.1998  141.5553  153.3210 H   0  0  0  0  0  0  0  0  0  0  0  0
  146.6470  139.9937  153.8709 H   0  0  0  0  0  0  0  0  0  0  0  0
  147.5896  142.3396  155.5169 H   0  0  0  0  0  0  0  0  0  0  0  0
  146.1906  141.3562  155.7730 H   0  0  0  0  0  0  0  0  0  0  0  0
  144.5243  137.9632  157.1230 H   0  0  0  0  0  0  0  0  0  0  0  0
  150.3748  137.1588  159.6845 H   0  0  0  0  0  0  0  0  0  0  0  0
  147.4970  134.8764  159.3854 H   0  0  0  0  0  0  0  0  0  0  0  0
  148.9943  135.1104  160.2498 H   0  0  0  0  0  0  0  0  0  0  0  0
  147.1243  137.2790  162.6145 H   0  0  0  0  0  0  0  0  0  0  0  0
  145.2083  136.5697  160.8547 H   0  0  0  0  0  0  0  0  0  0  0  0
  145.5129  134.8838  160.4457 H   0  0  0  0  0  0  0  0  0  0  0  0
  145.2623  136.0039  163.2627 H   0  0  0  0  0  0  0  0  0  0  0  0
  144.3516  134.6650  162.5438 H   0  0  0  0  0  0  0  0  0  0  0  0
  148.2649  134.0767  162.1354 H   0  0  0  0  0  0  0  0  0  0  0  0
  148.0861  135.3849  163.2952 H   0  0  0  0  0  0  0  0  0  0  0  0
  1  2  1  0  0  0  0
  1 27  1  0  0  0  0
  1 28  1  0  0  0  0
  1 29  1  0  0  0  0
  2  3  1  0  0  0  0
  2  4  1  0  0  0  0
  2 30  1  0  0  0  0
  3 31  1  0  0  0  0
  3 32  1  0  0  0  0
  3 33  1  0  0  0  0
  4 10  1  0  0  0  0
  4  5  1  0  0  0  0
  4 34  1  0  0  0  0
  5  6  2  0  0  0  0
  5  7  1  0  0  0  0
  7  8  1  0  0  0  0
  7 35  1  0  0  0  0
  8  9  1  0  0  0  0
  8 36  1  0  0  0  0
  8 37  1  0  0  0  0
  9 10  1  0  0  0  0
  9 38  1  0  0  0  0
  9 39  1  0  0  0  0
 10 11  1  0  0  0  0
 11 16  1  0  0  0  0
 11 12  2  0  0  0  0
 12 13  1  0  0  0  0
 13 14  2  0  0  0  0
 13 40  1  0  0  0  0
 14 15  1  0  0  0  0
 15 19  1  0  0  0  0
 15 16  2  0  0  0  0
 16 17  1  0  0  0  0
 17 18  2  0  0  0  0
 18 19  1  0  0  0  0
 18 41  1  0  0  0  0
 19 20  1  0  0  0  0
 20 21  1  0  0  0  0
 20 42  1  0  0  0  0
 20 43  1  0  0  0  0
 21 26  1  0  0  0  0
 21 22  1  0  0  0  0
 21 23  1  0  0  0  0
 22 44  1  0  0  0  0
 23 24  1  0  0  0  0
 23 45  1  0  0  0  0
 23 46  1  0  0  0  0
 24 25  1  0  0  0  0
 24 47  1  0  0  0  0
 24 48  1  0  0  0  0
 25 26  1  0  0  0  0
 26 49  1  0  0  0  0
 26 50  1  0  0  0  0
M  END
> <s_m_source_file>
AV-unprocessed.smi

> <i_m_source_file_index>
274

> <i_lp_mmshare_version>
43012

> <i_f3d_flags>
0

> <s_epik_input>
W0NIM11bQ0hdKFtDSDNdKVtDQEBIXTFDKD1PKVtOSF1bQ0gyXVtDSDJdTjFjKG5bY0hdbjIpYyhjMjMpbltjSF1uM1tDSDJdW0NAQF00KFtPSF0pW0NIMl1bQ0gyXU9bQ0gyXTQ=

> <s_epik_cmdline>
J2VwaWtfcHl0aG9uJywgJy1waCcsICc3LjAnLCAnLXRuJywgJzgnLCAnLW1hJywgJzIwMCcsICctbWV0YWxfYmluZGluZycsICctaW1hZScsICc8aW5maWxlLm1hZT4nLCAnLW9tYWUnLCAnPG91dGZpbGUubWFlPic=

> <r_lp_tautomer_probability>
1

> <r_epik_Ionization_Penalty>
0.000690079

> <r_epik_Ionization_Penalty_Charging>
0

> <r_epik_Ionization_Penalty_Neutral>
0.000690079

> <r_epik_State_Penalty>
0.000321372

> <r_epik_Charging_Adjusted_Penalty>
0.000321372

> <i_epik_Tot_Q>
0

> <i_epik_Tot_abs_Q>
0

> <r_epik_Metal_State_Penalty>
-0

> <b_epik_Metal_Only>
0

> <s_lp_Force_Field>
OPLS_2005

> <r_lp_Energy>
40.3696

> <b_lp_Chiralities_Consistent>
1

> <s_lp_Variant>
AV-unprocessed.smi:274-1

> <Gold.Version>
5.8.1

> <Gold.Id.Protein>
6NUR|6NUR_protein|mol2

> <Gold.PLP.Fitness>
40.7468

> <Gold.PLP.PLP>
-31.3402

> <Gold.PLP.part.hbond>
-4.5537

> <Gold.PLP.part.metal>
0.0000

> <Gold.PLP.part.buried>
-7.8476

> <Gold.PLP.part.nonpolar>
-19.5454

> <Gold.PLP.part.repulsive>
0.2778

> <Gold.PLP.ligand.clash>
0.0000

> <Gold.PLP.ligand.torsion>
1.1104

> <Gold.PLP.Chemscore.Hbond>
3.7600

> <Gold.PLP.Chemscore.CHOScore>
0.0000

> <Gold.PLP.Chemscore.Metal>
0.0000

> <Gold.Chemscore.Hbonds>
donor molecule, donor type, donor heavy atom, donor atom, acceptor molecule, acceptor atom, score
      L1  H     7    35       P1  7957  1.00
      P1  H  6931  6943       L1    22  0.96
      P1  H  6934  6947       L1    22  0.74
      P1  H  7989  7998       L1     6  1.00

> <Gold.PLP.Chemscore.Internal.Correction>
0.3475

> <Gold.Rescore>
     Score         DG    S(hbond)    S(metal)    S(lipo)     H(rot)  DE(clash)    DE(int)     intcor
     13.54     -17.47       2.87        0.00      67.36       2.14       1.66       2.27       ----

> <Gold.Chemscore.Fitness>
13.5396

> <Gold.Chemscore.DG>
-17.4660

> <Gold.Chemscore.ZeroCoef>
-5.4800

> <Gold.Chemscore.Hbond>
2.8715

> <Gold.Chemscore.Metal>
0.0000

> <Gold.Chemscore.Lipo>
67.3617

> <Gold.Chemscore.Internal_Hbond>
0.0000

> <Gold.Chemscore.DEClash>
1.6577

> <Gold.Chemscore.DEInternal>
2.2687

> <Gold.Chemscore.Rot>
2.1431

> <Gold.Chemscore.Internal.Correction>
   9.000000E+99

> <Gold.Chemscore.Hbonds>
donor molecule, donor type, donor heavy atom, donor atom, acceptor molecule, acceptor atom, score
      L1  H     7    35       P1  7957  0.96
      P1  H  6931  6943       L1    22  0.24
      P1  H  6934  6947       L1    22  0.21
      P1  H  7989  7998       L1     6  0.25

> <Gold.Chemscore.Hbond.Weighted>
-9.5909

> <Gold.Chemscore.Metal.Weighted>
-0.0000

> <Gold.Chemscore.Lipo.Weighted>
-7.8813

> <Gold.Chemscore.Internal_Hbond.Weighted>
0.0000

> <Gold.Chemscore.DEClash.Weighted>
1.6577

> <Gold.Chemscore.DEInternal.Weighted>
2.2687

> <Gold.Chemscore.Rot.Weighted>
5.4863

> <Gold.Chemscore.Internal.Correction.Weighted>
   9.000000E+99

> <Gold.Protein.RotatedTorsions>
[ 6907 6896 6895 6894 ] final  -21.22 input  -60.11 | X-H torsion
[ 7974 7965 7964 7962 ] final   57.17 input  175.53 | X-H torsion
[ 8008 7997 7996 7995 ] final  129.36 input   59.86 | X-H torsion
[ 10167 10162 10161 10158 ] final  -29.10 input  -65.29 | X-H torsion
[ 10718 10713 10712 10709 ] final  106.17 input   66.30 | X-H torsion
[ 10763 10752 10751 10750 ] final  -90.75 input  -60.55 | X-H torsion
[ 11005 11000 10999 10996 ] final  -84.05 input  -57.11 | X-H torsion

> <Gold.Protein.ActiveResidues>
 VAL166  LYS551  ARG553  GLY616  TRP617  ASP618  TYR619  PRO620  LYS621  CYS622 
 ASP623  PHE694  ASN695  SER759  ASP760  ASP761  ALA762  ILE779  LEU786  VAL792 
 PHE793  MET794  SER795  GLU796  ALA797  LYS798  CYS799  TRP800  GLU811  SER814 

> <Gold.Protein.RotatedAtoms>
  151.2366  135.0574  159.9008 H   0  0  0  0  0  0  0  0  0  0  0  0  # atno 6907 bound_to 6896
  152.5398  134.0479  159.8107 H   0  0  0  0  0  0  0  0  0  0  0  0  # atno 6908 bound_to 6896
  151.0667  133.5451  159.2661 H   0  0  0  0  0  0  0  0  0  0  0  0  # atno 6909 bound_to 6896
  145.9320  139.3815  143.0415 H   0  0  0  0  0  0  0  0  0  0  0  0  # atno 7974 bound_to 7965
  156.2934  140.2622  156.2586 H   0  0  0  0  0  0  0  0  0  0  0  0  # atno 8008 bound_to 7997
  154.9811  140.0390  157.2296 H   0  0  0  0  0  0  0  0  0  0  0  0  # atno 8009 bound_to 7997
  154.7771  140.2788  155.6097 H   0  0  0  0  0  0  0  0  0  0  0  0  # atno 8010 bound_to 7997
  140.7264  143.3956  151.1354 H   0  0  0  0  0  0  0  0  0  0  0  0  # atno 10167 bound_to 10162
  157.6678  131.0844  150.5967 H   0  0  0  0  0  0  0  0  0  0  0  0  # atno 10718 bound_to 10713
  154.6690  135.5293  153.8113 H   0  0  0  0  0  0  0  0  0  0  0  0  # atno 10763 bound_to 10752
  153.0489  135.6524  154.0755 H   0  0  0  0  0  0  0  0  0  0  0  0  # atno 10764 bound_to 10752
  154.0656  135.2958  155.3297 H   0  0  0  0  0  0  0  0  0  0  0  0  # atno 10765 bound_to 10752
  141.1653  133.7326  156.8810 H   0  0  0  0  0  0  0  0  0  0  0  0  # atno 11005 bound_to 11000
  145.8414  140.9578  143.0797 LP  0  0  0  0  0  0  0  0  0  0  0  0  # atno 17320 bound_to 7965
  144.6766  140.0289  143.7483 LP  0  0  0  0  0  0  0  0  0  0  0  0  # atno 17321 bound_to 7965
  139.7567  143.8696  152.3090 LP  0  0  0  0  0  0  0  0  0  0  0  0  # atno 17342 bound_to 10162
  139.8568  144.7137  150.9147 LP  0  0  0  0  0  0  0  0  0  0  0  0  # atno 17343 bound_to 10162
  156.6267  130.4421  149.5802 LP  0  0  0  0  0  0  0  0  0  0  0  0  # atno 17370 bound_to 10713
  156.2313  130.6796  151.1466 LP  0  0  0  0  0  0  0  0  0  0  0  0  # atno 17371 bound_to 10713
  140.1715  134.9097  157.2838 LP  0  0  0  0  0  0  0  0  0  0  0  0  # atno 17394 bound_to 11000
  140.2497  134.3697  155.7447 LP  0  0  0  0  0  0  0  0  0  0  0  0  # atno 17395 bound_to 11000

$$$$
