AV-unprocessed.smi:2886|AV-procd|sdf|11087|dock2
  -GOLD-   2272015563D 1   1.00000     0.00000
 Structure written by MMmdl.
 28 30  0  0  0  0  0  0  0  0  1 V2000
  147.3007  139.4541  153.0196 O   0  0  0  0  0  0  0  0  0  0  0  0
  148.3496  139.6353  153.6351 C   0  0  0  0  0  0  0  0  0  0  0  0
  149.3698  138.7478  153.5694 N   0  0  0  0  0  0  0  0  0  0  0  0
  150.5779  138.8403  154.2164 N   0  0  0  0  0  0  0  0  0  0  0  0
  150.7962  139.8673  154.9645 C   0  0  0  0  0  0  0  0  0  0  0  0
  149.8193  140.9358  155.1472 C   0  0  0  0  0  0  0  0  0  0  0  0
  150.0547  142.0421  155.9541 N   0  0  0  0  0  0  0  0  0  0  0  0
  151.2366  142.3652  156.7412 C   0  0  2  0  0  0  0  0  0  0  0  0
  151.5710  141.2806  157.7684 C   0  0  0  0  0  0  0  0  0  0  0  0
  151.5761  142.0803  159.0775 C   0  0  1  0  0  0  0  0  0  0  0  0
  152.7588  143.0555  159.1601 C   0  0  0  0  0  0  0  0  0  0  0  0
  152.3385  144.1420  158.1703 C   0  0  0  0  0  0  0  0  0  0  0  0
  151.0076  143.5900  157.6421 C   0  0  2  0  0  0  0  0  0  0  0  0
  150.5119  142.9802  158.8233 O   0  0  0  0  0  0  0  0  0  0  0  0
  148.6326  140.7939  154.4936 C   0  0  0  0  0  0  0  0  0  0  0  0
  147.3955  141.9964  154.6469 Cl  0  0  0  0  0  0  0  0  0  0  0  0
  149.2665  137.9192  153.0014 H   0  0  0  0  0  0  0  0  0  0  0  0
  151.7359  139.9762  155.5047 H   0  0  0  0  0  0  0  0  0  0  0  0
  149.3741  142.7873  155.9033 H   0  0  0  0  0  0  0  0  0  0  0  0
  152.0822  142.5617  156.0828 H   0  0  0  0  0  0  0  0  0  0  0  0
  150.8014  140.5077  157.8006 H   0  0  0  0  0  0  0  0  0  0  0  0
  152.5281  140.7966  157.5714 H   0  0  0  0  0  0  0  0  0  0  0  0
  151.4433  141.4681  159.9699 H   0  0  0  0  0  0  0  0  0  0  0  0
  152.8537  143.4697  160.1644 H   0  0  0  0  0  0  0  0  0  0  0  0
  153.7045  142.5819  158.8942 H   0  0  0  0  0  0  0  0  0  0  0  0
  152.1851  145.0900  158.6872 H   0  0  0  0  0  0  0  0  0  0  0  0
  153.0698  144.3009  157.3772 H   0  0  0  0  0  0  0  0  0  0  0  0
  150.3567  144.3533  157.2143 H   0  0  0  0  0  0  0  0  0  0  0  0
  1  2  2  0  0  0  0
  2 15  1  0  0  0  0
  2  3  1  0  0  0  0
  3 17  1  0  0  0  0
  3  4  1  0  0  0  0
  4  5  2  0  0  0  0
  5  6  1  0  0  0  0
  5 18  1  0  0  0  0
  6  7  1  0  0  0  0
  6 15  2  0  0  0  0
  7  8  1  0  0  0  0
  7 19  1  0  0  0  0
  8 13  1  0  0  0  0
  8  9  1  0  0  0  0
  8 20  1  0  0  0  0
  9 10  1  0  0  0  0
  9 21  1  0  0  0  0
  9 22  1  0  0  0  0
 10 14  1  0  0  0  0
 10 11  1  0  0  0  0
 10 23  1  0  0  0  0
 11 12  1  0  0  0  0
 11 24  1  0  0  0  0
 11 25  1  0  0  0  0
 12 13  1  0  0  0  0
 12 26  1  0  0  0  0
 12 27  1  0  0  0  0
 13 14  1  0  0  0  0
 13 28  1  0  0  0  0
 15 16  1  0  0  0  0
M  END
> <s_m_source_file>
AV-unprocessed.smi

> <i_m_source_file_index>
2886

> <i_lp_mmshare_version>
43012

> <i_f3d_flags>
0

> <s_epik_input>
Tz1jMVtuSF1uW2NIXWMoYzFDbClbTkhdW0NASF0oW0NIMl1bQ0BASF0yMylbQ0BASF0oTzMpW0NIMl1bQ0gyXTI=

> <s_epik_cmdline>
J2VwaWtfcHl0aG9uJywgJy1waCcsICc3LjAnLCAnLXRuJywgJzgnLCAnLW1hJywgJzIwMCcsICctbWV0YWxfYmluZGluZycsICctaW1hZScsICc8aW5maWxlLm1hZT4nLCAnLW9tYWUnLCAnPG91dGZpbGUubWFlPic=

> <r_lp_tautomer_probability>
0.986175

> <r_epik_Ionization_Penalty>
0.000975594

> <r_epik_Ionization_Penalty_Charging>
0.000940184

> <r_epik_Ionization_Penalty_Neutral>
3.54099e-05

> <r_epik_State_Penalty>
0.00620319

> <r_epik_Charging_Adjusted_Penalty>
0.00714337

> <i_epik_Tot_Q>
0

> <i_epik_Tot_abs_Q>
0

> <r_epik_Metal_State_Penalty>
0.287699

> <b_epik_Metal_Only>
0

> <s_lp_Force_Field>
OPLS_2005

> <r_lp_Energy>
54.6963

> <b_lp_Chiralities_Consistent>
1

> <s_lp_Variant>
AV-unprocessed.smi:2886-1

> <Gold.Version>
5.8.1

> <Gold.Id.Protein>
6NUR|6NUR_protein|mol2

> <Gold.PLP.Fitness>
37.3126

> <Gold.PLP.PLP>
-31.3572

> <Gold.PLP.part.hbond>
-2.9979

> <Gold.PLP.part.metal>
0.0000

> <Gold.PLP.part.buried>
0.0265

> <Gold.PLP.part.nonpolar>
-28.9459

> <Gold.PLP.part.repulsive>
1.1991

> <Gold.PLP.ligand.clash>
0.0000

> <Gold.PLP.ligand.torsion>
0.0321

> <Gold.PLP.Chemscore.Hbond>
2.0000

> <Gold.PLP.Chemscore.CHOScore>
0.0000

> <Gold.PLP.Chemscore.Metal>
0.0000

> <Gold.Chemscore.Hbonds>
donor molecule, donor type, donor heavy atom, donor atom, acceptor molecule, acceptor atom, score
      L1  H     3    17       P1  7948  1.00
      L1  H     7    19       P1  8028  1.00

> <Gold.PLP.Chemscore.Internal.Correction>
0.0196

> <Gold.Rescore>
     Score         DG    S(hbond)    S(metal)    S(lipo)     H(rot)  DE(clash)    DE(int)     intcor
     18.50     -19.54       1.77        0.00      91.48       1.00       1.02       0.02       ----

> <Gold.Chemscore.Fitness>
18.5009

> <Gold.Chemscore.DG>
-19.5385

> <Gold.Chemscore.ZeroCoef>
-5.4800

> <Gold.Chemscore.Hbond>
1.7711

> <Gold.Chemscore.Metal>
0.0000

> <Gold.Chemscore.Lipo>
91.4784

> <Gold.Chemscore.Internal_Hbond>
0.0000

> <Gold.Chemscore.DEClash>
1.0164

> <Gold.Chemscore.DEInternal>
0.0212

> <Gold.Chemscore.Rot>
1.0000

> <Gold.Chemscore.Internal.Correction>
   9.000000E+99

> <Gold.Chemscore.Hbonds>
donor molecule, donor type, donor heavy atom, donor atom, acceptor molecule, acceptor atom, score
      L1  H     3    17       P1  7948  0.91
      L1  H     7    19       P1  8028  0.92

> <Gold.Chemscore.Hbond.Weighted>
-5.9155

> <Gold.Chemscore.Metal.Weighted>
-0.0000

> <Gold.Chemscore.Lipo.Weighted>
-10.7030

> <Gold.Chemscore.Internal_Hbond.Weighted>
0.0000

> <Gold.Chemscore.DEClash.Weighted>
1.0164

> <Gold.Chemscore.DEInternal.Weighted>
0.0212

> <Gold.Chemscore.Rot.Weighted>
2.5600

> <Gold.Chemscore.Internal.Correction.Weighted>
   9.000000E+99

> <Gold.Protein.RotatedTorsions>
[ 6907 6896 6895 6894 ] final  175.11 input  -60.11 | X-H torsion
[ 7974 7965 7964 7962 ] final  -42.67 input  175.53 | X-H torsion
[ 8008 7997 7996 7995 ] final  -60.50 input   59.86 | X-H torsion
[ 10167 10162 10161 10158 ] final -105.58 input  -65.29 | X-H torsion
[ 10718 10713 10712 10709 ] final -123.03 input   66.30 | X-H torsion
[ 10763 10752 10751 10750 ] final   65.11 input  -60.55 | X-H torsion
[ 11005 11000 10999 10996 ] final  -21.63 input  -57.11 | X-H torsion

> <Gold.Protein.ActiveResidues>
 VAL166  LYS551  ARG553  GLY616  TRP617  ASP618  TYR619  PRO620  LYS621  CYS622 
 ASP623  PHE694  ASN695  SER759  ASP760  ASP761  ALA762  ILE779  LEU786  VAL792 
 PHE793  MET794  SER795  GLU796  ALA797  LYS798  CYS799  TRP800  GLU811  SER814 

> <Gold.Protein.RotatedAtoms>
  151.7415  133.3322  159.3366 H   0  0  0  0  0  0  0  0  0  0  0  0  # atno 6907 bound_to 6896
  150.7571  134.6274  159.6177 H   0  0  0  0  0  0  0  0  0  0  0  0  # atno 6908 bound_to 6896
  152.3527  134.6985  160.0283 H   0  0  0  0  0  0  0  0  0  0  0  0  # atno 6909 bound_to 6896
  146.0093  140.6983  142.9232 H   0  0  0  0  0  0  0  0  0  0  0  0  # atno 7974 bound_to 7965
  154.4402  140.1038  156.6284 H   0  0  0  0  0  0  0  0  0  0  0  0  # atno 8008 bound_to 7997
  155.5632  140.3488  155.4478 H   0  0  0  0  0  0  0  0  0  0  0  0  # atno 8009 bound_to 7997
  156.0445  140.1289  157.0109 H   0  0  0  0  0  0  0  0  0  0  0  0  # atno 8010 bound_to 7997
  140.1970  143.3848  152.1160 H   0  0  0  0  0  0  0  0  0  0  0  0  # atno 10167 bound_to 10162
  156.1468  130.6505  150.9853 H   0  0  0  0  0  0  0  0  0  0  0  0  # atno 10718 bound_to 10713
  153.0083  135.5368  154.6616 H   0  0  0  0  0  0  0  0  0  0  0  0  # atno 10763 bound_to 10752
  154.5823  135.2851  155.0722 H   0  0  0  0  0  0  0  0  0  0  0  0  # atno 10764 bound_to 10752
  154.1846  135.6510  153.5096 H   0  0  0  0  0  0  0  0  0  0  0  0  # atno 10765 bound_to 10752
  140.8579  133.7809  156.0041 H   0  0  0  0  0  0  0  0  0  0  0  0  # atno 11005 bound_to 11000
  144.6947  140.3370  143.7206 LP  0  0  0  0  0  0  0  0  0  0  0  0  # atno 17320 bound_to 7965
  145.7367  139.1752  143.2399 LP  0  0  0  0  0  0  0  0  0  0  0  0  # atno 17321 bound_to 7965
  139.5232  144.7069  151.5327 LP  0  0  0  0  0  0  0  0  0  0  0  0  # atno 17342 bound_to 10162
  140.6417  143.8876  150.6698 LP  0  0  0  0  0  0  0  0  0  0  0  0  # atno 17343 bound_to 10162
  157.6623  131.0878  150.7810 LP  0  0  0  0  0  0  0  0  0  0  0  0  # atno 17370 bound_to 10713
  156.7881  130.4881  149.5389 LP  0  0  0  0  0  0  0  0  0  0  0  0  # atno 17371 bound_to 10713
  140.8716  134.2720  157.5188 LP  0  0  0  0  0  0  0  0  0  0  0  0  # atno 17394 bound_to 11000
  139.8706  134.9570  156.4255 LP  0  0  0  0  0  0  0  0  0  0  0  0  # atno 17395 bound_to 11000

$$$$
