AV-unprocessed.smi:1935|AV-procd|sdf|7827|dock3
  -GOLD-   22720 9573D 1   1.00000     0.00000
 Structure written by MMmdl.
 52 54  0  0  0  0  0  0  0  0  1 V2000
  155.6129  140.8091  164.1044 O   0  0  0  0  0  0  0  0  0  0  0  0
  155.5267  139.9389  163.2377 C   0  0  0  0  0  0  0  0  0  0  0  0
  154.8359  140.0887  162.0992 N   0  0  0  0  0  0  0  0  0  0  0  0
  154.0658  141.2724  161.7387 C   0  0  0  0  0  0  0  0  0  0  0  0
  154.1468  141.5496  160.2266 C   0  0  0  0  0  0  0  0  0  0  0  0
  152.8474  141.9641  159.6858 N   0  0  0  0  0  0  0  0  0  0  0  0
  152.2007  143.1000  160.3609 C   0  0  0  0  0  0  0  0  0  0  0  0
  152.1889  144.3981  159.5217 C   0  0  0  0  0  0  0  0  0  0  0  0
  152.1378  144.2182  157.9914 C   0  0  0  0  0  0  0  0  0  0  0  0
  151.0131  143.2950  157.4768 C   0  0  0  0  0  0  0  0  0  0  0  0
  150.9457  141.8756  158.0905 C   0  0  0  0  0  0  0  0  0  0  0  0
  152.2893  141.3446  158.6171 C   0  0  0  0  0  0  0  0  0  0  0  0
  152.8096  140.3829  158.0516 O   0  0  0  0  0  0  0  0  0  0  0  0
  156.0805  138.7176  163.3122 N   0  0  0  0  0  0  0  0  0  0  0  0
  156.8175  138.1667  164.3965 C   0  0  0  0  0  0  0  0  0  0  0  0
  157.6597  138.9779  165.1949 C   0  0  0  0  0  0  0  0  0  0  0  0
  158.4301  138.3831  166.2088 C   0  0  0  0  0  0  0  0  0  0  0  0
  158.3425  136.9913  166.3792 C   0  0  0  0  0  0  0  0  0  0  0  0
  157.5543  136.2041  165.6199 N   0  0  0  0  0  0  0  0  0  0  0  0
  156.7934  136.7646  164.6471 C   0  0  0  0  0  0  0  0  0  0  0  0
  155.9701  135.8923  163.8976 N   0  0  0  0  0  0  0  0  0  0  0  0
  154.5413  136.1861  163.8257 C   0  0  0  0  0  0  0  0  0  0  0  0
  153.8187  134.8349  163.8328 C   0  0  0  0  0  0  0  0  0  0  0  0
  154.8896  133.8507  163.3732 C   0  0  0  0  0  0  0  0  0  0  0  0
  156.1581  134.4476  163.9757 C   0  0  0  0  0  0  0  0  0  0  0  0
  154.8234  139.3200  161.4450 H   0  0  0  0  0  0  0  0  0  0  0  0
  153.0290  141.1616  162.0612 H   0  0  0  0  0  0  0  0  0  0  0  0
  154.4737  142.1183  162.2929 H   0  0  0  0  0  0  0  0  0  0  0  0
  154.8958  142.3178  160.0293 H   0  0  0  0  0  0  0  0  0  0  0  0
  154.5040  140.6629  159.6996 H   0  0  0  0  0  0  0  0  0  0  0  0
  151.1798  142.8240  160.6254 H   0  0  0  0  0  0  0  0  0  0  0  0
  152.6735  143.3004  161.3233 H   0  0  0  0  0  0  0  0  0  0  0  0
  151.3528  145.0184  159.8455 H   0  0  0  0  0  0  0  0  0  0  0  0
  153.0872  144.9698  159.7574 H   0  0  0  0  0  0  0  0  0  0  0  0
  152.0282  145.1987  157.5269 H   0  0  0  0  0  0  0  0  0  0  0  0
  153.1015  143.8471  157.6396 H   0  0  0  0  0  0  0  0  0  0  0  0
  150.0524  143.7862  157.6345 H   0  0  0  0  0  0  0  0  0  0  0  0
  151.1186  143.2032  156.3953 H   0  0  0  0  0  0  0  0  0  0  0  0
  150.2156  141.8516  158.8993 H   0  0  0  0  0  0  0  0  0  0  0  0
  150.5554  141.1821  157.3445 H   0  0  0  0  0  0  0  0  0  0  0  0
  155.8408  138.0706  162.5752 H   0  0  0  0  0  0  0  0  0  0  0  0
  157.7416  140.0414  165.0280 H   0  0  0  0  0  0  0  0  0  0  0  0
  159.0817  138.9783  166.8312 H   0  0  0  0  0  0  0  0  0  0  0  0
  158.9242  136.4954  167.1420 H   0  0  0  0  0  0  0  0  0  0  0  0
  154.2087  136.8198  164.6492 H   0  0  0  0  0  0  0  0  0  0  0  0
  154.3371  136.7101  162.8917 H   0  0  0  0  0  0  0  0  0  0  0  0
  153.5097  134.5896  164.8497 H   0  0  0  0  0  0  0  0  0  0  0  0
  152.9307  134.8263  163.2003 H   0  0  0  0  0  0  0  0  0  0  0  0
  154.7025  132.8285  163.7030 H   0  0  0  0  0  0  0  0  0  0  0  0
  154.9555  133.8517  162.2843 H   0  0  0  0  0  0  0  0  0  0  0  0
  157.0511  134.1325  163.4355 H   0  0  0  0  0  0  0  0  0  0  0  0
  156.2517  134.1255  165.0134 H   0  0  0  0  0  0  0  0  0  0  0  0
  1  2  2  0  0  0  0
  2  3  1  0  0  0  0
  2 14  1  0  0  0  0
  3  4  1  0  0  0  0
  3 26  1  0  0  0  0
  4  5  1  0  0  0  0
  4 27  1  0  0  0  0
  4 28  1  0  0  0  0
  5  6  1  0  0  0  0
  5 29  1  0  0  0  0
  5 30  1  0  0  0  0
  6 12  1  0  0  0  0
  6  7  1  0  0  0  0
  7  8  1  0  0  0  0
  7 31  1  0  0  0  0
  7 32  1  0  0  0  0
  8  9  1  0  0  0  0
  8 33  1  0  0  0  0
  8 34  1  0  0  0  0
  9 10  1  0  0  0  0
  9 35  1  0  0  0  0
  9 36  1  0  0  0  0
 10 11  1  0  0  0  0
 10 37  1  0  0  0  0
 10 38  1  0  0  0  0
 11 12  1  0  0  0  0
 11 39  1  0  0  0  0
 11 40  1  0  0  0  0
 12 13  2  0  0  0  0
 14 15  1  0  0  0  0
 14 41  1  0  0  0  0
 15 20  1  0  0  0  0
 15 16  2  0  0  0  0
 16 17  1  0  0  0  0
 16 42  1  0  0  0  0
 17 18  2  0  0  0  0
 17 43  1  0  0  0  0
 18 19  1  0  0  0  0
 18 44  1  0  0  0  0
 19 20  2  0  0  0  0
 20 21  1  0  0  0  0
 21 25  1  0  0  0  0
 21 22  1  0  0  0  0
 22 23  1  0  0  0  0
 22 45  1  0  0  0  0
 22 46  1  0  0  0  0
 23 24  1  0  0  0  0
 23 47  1  0  0  0  0
 23 48  1  0  0  0  0
 24 25  1  0  0  0  0
 24 49  1  0  0  0  0
 24 50  1  0  0  0  0
 25 51  1  0  0  0  0
 25 52  1  0  0  0  0
M  END
> <s_m_source_file>
AV-unprocessed.smi

> <i_m_source_file_index>
1935

> <i_lp_mmshare_version>
43012

> <i_f3d_flags>
0

> <s_epik_input>
Tz1DMVtDSDJdW0NIMl1bQ0gyXVtDSDJdW0NIMl1OMVtDSDJdW0NIMl1bTkhdQyg9TylbTkhdYzJbY0hdW2NIXVtjSF1uYzJOM1tDSDJdW0NIMl1bQ0gyXVtDSDJdMw==

> <s_epik_cmdline>
J2VwaWtfcHl0aG9uJywgJy1waCcsICc3LjAnLCAnLXRuJywgJzgnLCAnLW1hJywgJzIwMCcsICctbWV0YWxfYmluZGluZycsICctaW1hZScsICc8aW5maWxlLm1hZT4nLCAnLW9tYWUnLCAnPG91dGZpbGUubWFlPic=

> <r_lp_tautomer_probability>
1

> <r_epik_Ionization_Penalty>
0.0963547

> <r_epik_Ionization_Penalty_Charging>
0

> <r_epik_Ionization_Penalty_Neutral>
0.0963547

> <r_epik_State_Penalty>
0.0859578

> <r_epik_Charging_Adjusted_Penalty>
0.0859578

> <i_epik_Tot_Q>
0

> <i_epik_Tot_abs_Q>
0

> <r_epik_Metal_State_Penalty>
0.0738802

> <b_epik_Metal_Only>
0

> <s_lp_Force_Field>
OPLS_2005

> <r_lp_Energy>
50.6255

> <b_lp_Chiralities_Consistent>
1

> <s_lp_Variant>
AV-unprocessed.smi:1935-1

> <Gold.Version>
5.8.1

> <Gold.Id.Protein>
6NUR|6NUR_protein|mol2

> <Gold.PLP.Fitness>
45.0810

> <Gold.PLP.PLP>
-43.9012

> <Gold.PLP.part.hbond>
-1.7195

> <Gold.PLP.part.metal>
0.0000

> <Gold.PLP.part.buried>
-3.1459

> <Gold.PLP.part.nonpolar>
-38.4034

> <Gold.PLP.part.repulsive>
0.1395

> <Gold.PLP.ligand.clash>
0.0000

> <Gold.PLP.ligand.torsion>
0.8998

> <Gold.PLP.Chemscore.Hbond>
0.8800

> <Gold.PLP.Chemscore.CHOScore>
0.0000

> <Gold.PLP.Chemscore.Metal>
0.0000

> <Gold.Chemscore.Hbonds>
donor molecule, donor type, donor heavy atom, donor atom, acceptor molecule, acceptor atom, score
      P1  H  7997  8009       L1    13  0.80

> <Gold.PLP.Chemscore.Internal.Correction>
0.3393

> <Gold.Rescore>
     Score         DG    S(hbond)    S(metal)    S(lipo)     H(rot)  DE(clash)    DE(int)     intcor
     14.89     -17.39       0.91        0.00     111.31       1.63       0.40       2.10       ----

> <Gold.Chemscore.Fitness>
14.8904

> <Gold.Chemscore.DG>
-17.3872

> <Gold.Chemscore.ZeroCoef>
-5.4800

> <Gold.Chemscore.Hbond>
0.9122

> <Gold.Chemscore.Metal>
0.0000

> <Gold.Chemscore.Lipo>
111.3122

> <Gold.Chemscore.Internal_Hbond>
0.0000

> <Gold.Chemscore.DEClash>
0.3997

> <Gold.Chemscore.DEInternal>
2.0971

> <Gold.Chemscore.Rot>
1.6262

> <Gold.Chemscore.Internal.Correction>
   9.000000E+99

> <Gold.Chemscore.Hbonds>
donor molecule, donor type, donor heavy atom, donor atom, acceptor molecule, acceptor atom, score
      P1  H  7997  8009       L1    13  0.77

> <Gold.Chemscore.Hbond.Weighted>
-3.0468

> <Gold.Chemscore.Metal.Weighted>
-0.0000

> <Gold.Chemscore.Lipo.Weighted>
-13.0235

> <Gold.Chemscore.Internal_Hbond.Weighted>
0.0000

> <Gold.Chemscore.DEClash.Weighted>
0.3997

> <Gold.Chemscore.DEInternal.Weighted>
2.0971

> <Gold.Chemscore.Rot.Weighted>
4.1632

> <Gold.Chemscore.Internal.Correction.Weighted>
   9.000000E+99

> <Gold.Protein.RotatedTorsions>
[ 6907 6896 6895 6894 ] final   59.45 input  -60.11 | X-H torsion
[ 7974 7965 7964 7962 ] final -151.14 input  175.53 | X-H torsion
[ 8008 7997 7996 7995 ] final  157.90 input   59.86 | X-H torsion
[ 10167 10162 10161 10158 ] final   37.01 input  -65.29 | X-H torsion
[ 10718 10713 10712 10709 ] final  -11.79 input   66.30 | X-H torsion
[ 10763 10752 10751 10750 ] final   66.83 input  -60.55 | X-H torsion
[ 11005 11000 10999 10996 ] final -166.05 input  -57.11 | X-H torsion

> <Gold.Protein.ActiveResidues>
 VAL166  LYS551  ARG553  GLY616  TRP617  ASP618  TYR619  PRO620  LYS621  CYS622 
 ASP623  PHE694  ASN695  SER759  ASP760  ASP761  ALA762  ILE779  LEU786  VAL792 
 PHE793  MET794  SER795  GLU796  ALA797  LYS798  CYS799  TRP800  GLU811  SER814 

> <Gold.Protein.RotatedAtoms>
  152.3916  134.6432  160.0105 H   0  0  0  0  0  0  0  0  0  0  0  0  # atno 6907 bound_to 6896
  151.6664  133.3309  159.3194 H   0  0  0  0  0  0  0  0  0  0  0  0  # atno 6908 bound_to 6896
  150.7831  134.6836  159.6502 H   0  0  0  0  0  0  0  0  0  0  0  0  # atno 6909 bound_to 6896
  144.7867  140.4837  143.5801 H   0  0  0  0  0  0  0  0  0  0  0  0  # atno 7974 bound_to 7965
  156.2336  140.1873  156.7179 H   0  0  0  0  0  0  0  0  0  0  0  0  # atno 8008 bound_to 7997
  154.6065  140.0628  156.9465 H   0  0  0  0  0  0  0  0  0  0  0  0  # atno 8009 bound_to 7997
  155.2086  140.3298  155.4334 H   0  0  0  0  0  0  0  0  0  0  0  0  # atno 8010 bound_to 7997
  140.4074  144.1640  150.6137 H   0  0  0  0  0  0  0  0  0  0  0  0  # atno 10167 bound_to 10162
  156.6540  130.4963  149.6052 H   0  0  0  0  0  0  0  0  0  0  0  0  # atno 10718 bound_to 10713
  153.0158  135.5306  154.6884 H   0  0  0  0  0  0  0  0  0  0  0  0  # atno 10763 bound_to 10752
  154.6025  135.2870  155.0522 H   0  0  0  0  0  0  0  0  0  0  0  0  # atno 10764 bound_to 10752
  154.1573  135.6553  153.5030 H   0  0  0  0  0  0  0  0  0  0  0  0  # atno 10765 bound_to 10752
  140.5689  134.5258  157.5158 H   0  0  0  0  0  0  0  0  0  0  0  0  # atno 11005 bound_to 11000
  145.5904  139.1495  143.3185 LP  0  0  0  0  0  0  0  0  0  0  0  0  # atno 17320 bound_to 7965
  146.2101  140.6030  142.9063 LP  0  0  0  0  0  0  0  0  0  0  0  0  # atno 17321 bound_to 7965
  140.4675  143.2425  151.9135 LP  0  0  0  0  0  0  0  0  0  0  0  0  # atno 17342 bound_to 10162
  139.4783  144.5404  151.8536 LP  0  0  0  0  0  0  0  0  0  0  0  0  # atno 17343 bound_to 10162
  156.2062  130.6651  151.1221 LP  0  0  0  0  0  0  0  0  0  0  0  0  # atno 17370 bound_to 10713
  157.7131  131.0724  150.6426 LP  0  0  0  0  0  0  0  0  0  0  0  0  # atno 17371 bound_to 10713
  139.9371  134.7854  156.0773 LP  0  0  0  0  0  0  0  0  0  0  0  0  # atno 17394 bound_to 11000
  141.1069  133.6657  156.2884 LP  0  0  0  0  0  0  0  0  0  0  0  0  # atno 17395 bound_to 11000

$$$$
