AV-unprocessed.smi:160|AV-procd|sdf|1370|dock2
  -GOLD-   2262019 93D 1   1.00000     0.00000
 Structure written by MMmdl.
 28 29  0  0  0  0  0  0  0  0  2 V2000
  153.4581  139.3366  154.4456 N   0  5  0  0  0  0  0  0  0  0  0  0
  152.6292  138.4620  155.0552 C   0  0  0  0  0  0  0  0  0  0  0  0
  152.9091  137.3157  155.4055 O   0  0  0  0  0  0  0  0  0  0  0  0
  151.2396  138.9956  155.3088 C   0  0  0  0  0  0  0  0  0  0  0  0
  150.3242  138.3489  156.0969 N   0  0  0  0  0  0  0  0  0  0  0  0
  149.3158  139.2027  155.9919 C   0  0  0  0  0  0  0  0  0  0  0  0
  149.5617  140.2501  155.1962 N   0  0  0  0  0  0  0  0  0  0  0  0
  148.7314  141.4559  154.8721 C   0  0  1  0  0  0  0  0  0  0  0  0
  148.4357  141.4333  153.5038 O   0  0  0  0  0  0  0  0  0  0  0  0
  147.1093  140.9693  153.2682 C   0  0  1  0  0  0  0  0  0  0  0  0
  147.0892  139.4276  153.1408 C   0  0  0  0  0  0  0  0  0  0  0  0
  147.4471  139.0536  151.8278 O   0  0  0  0  0  0  0  0  0  0  0  0
  146.3717  141.5489  154.4831 C   0  0  1  0  0  0  0  0  0  0  0  0
  145.1671  140.8693  154.7780 O   0  0  0  0  0  0  0  0  0  0  0  0
  147.3811  141.4262  155.6187 C   0  0  2  0  0  0  0  0  0  0  0  0
  147.2452  142.5215  156.5020 O   0  0  0  0  0  0  0  0  0  0  0  0
  150.8451  140.1499  154.7690 N   0  0  0  0  0  0  0  0  0  0  0  0
  149.3738  142.3015  155.1210 H   0  0  0  0  0  0  0  0  0  0  0  0
  146.7152  141.4118  152.3523 H   0  0  0  0  0  0  0  0  0  0  0  0
  146.1511  142.5995  154.2853 H   0  0  0  0  0  0  0  0  0  0  0  0
  147.2485  140.4828  156.1493 H   0  0  0  0  0  0  0  0  0  0  0  0
  153.8692  139.0714  153.5425 H   0  0  0  0  0  0  0  0  0  0  0  0
  148.3800  139.0597  156.5116 H   0  0  0  0  0  0  0  0  0  0  0  0
  147.7366  138.9343  153.8635 H   0  0  0  0  0  0  0  0  0  0  0  0
  146.0842  139.0408  153.3070 H   0  0  0  0  0  0  0  0  0  0  0  0
  148.3419  139.3159  151.6745 H   0  0  0  0  0  0  0  0  0  0  0  0
  144.7626  140.6148  153.9627 H   0  0  0  0  0  0  0  0  0  0  0  0
  147.9869  143.0955  156.3851 H   0  0  0  0  0  0  0  0  0  0  0  0
  1  2  1  0  0  0  0
  1 22  1  0  0  0  0
  2  3  2  0  0  0  0
  2  4  1  0  0  0  0
  4 17  2  0  0  0  0
  4  5  1  0  0  0  0
  5  6  2  0  0  0  0
  6  7  1  0  0  0  0
  6 23  1  0  0  0  0
  7  8  1  0  0  0  0
  7 17  1  0  0  0  0
  8 18  1  0  0  0  0
  8 15  1  0  0  0  0
  8  9  1  0  0  0  0
  9 10  1  0  0  0  0
 10 19  1  0  0  0  0
 10 11  1  0  0  0  0
 10 13  1  0  0  0  0
 11 12  1  0  0  0  0
 11 24  1  0  0  0  0
 11 25  1  0  0  0  0
 12 26  1  0  0  0  0
 13 20  1  0  0  0  0
 13 14  1  0  0  0  0
 13 15  1  0  0  0  0
 14 27  1  0  0  0  0
 15 21  1  0  0  0  0
 15 16  1  0  0  0  0
 16 28  1  0  0  0  0
M  CHG  1   1  -1
M  END
> <s_m_source_file>
AV-unprocessed.smi

> <i_m_source_file_index>
160

> <i_lp_mmshare_version>
43012

> <i_f3d_flags>
0

> <s_epik_input>
W05IMl1DKD1PKWMxbltjSF1uKG4xKVtDQEBIXTJPW0NASF0oW0NIMl1bT0hdKVtDQEBIXShbT0hdKVtDQEhdMltPSF0=

> <s_epik_cmdline>
J2VwaWtfcHl0aG9uJywgJy1waCcsICc3LjAnLCAnLXRuJywgJzgnLCAnLW1hJywgJzIwMCcsICctbWV0YWxfYmluZGluZycsICctaW1hZScsICc8aW5maWxlLm1hZT4nLCAnLW9tYWUnLCAnPG91dGZpbGUubWFlPic=

> <r_lp_tautomer_probability>
1

> <r_epik_Ionization_Penalty>
6.6993

> <r_epik_Ionization_Penalty_Charging>
6.6993

> <r_epik_Ionization_Penalty_Neutral>
6.01698e-06

> <r_epik_State_Penalty>
6.69929

> <r_epik_Charging_Adjusted_Penalty>
13.3986

> <i_epik_Tot_Q>
-1

> <i_epik_Tot_abs_Q>
1

> <r_epik_Metal_State_Penalty>
2.62798

> <b_epik_Metal_Only>
1

> <s_epik_Chemistry_Notes>
This compound contains an acetal/aminal-like group ( X-CH(R)-Y where X, Y are N, S, or O) that may be acid/base labile, releasing an aldehyde.

> <s_lp_Force_Field>
OPLS_2005

> <r_lp_Energy>
41.818

> <b_lp_Chiralities_Consistent>
1

> <s_lp_Variant>
AV-unprocessed.smi:160-28

> <Gold.Version>
5.8.1

> <Gold.Id.Protein>
6NUR|6NUR_protein|mol2

> <Gold.PLP.Fitness>
48.5408

> <Gold.PLP.PLP>
-27.4808

> <Gold.PLP.part.hbond>
-8.9067

> <Gold.PLP.part.metal>
0.0000

> <Gold.PLP.part.buried>
-3.7511

> <Gold.PLP.part.nonpolar>
-16.6292

> <Gold.PLP.part.repulsive>
1.4495

> <Gold.PLP.ligand.clash>
0.0000

> <Gold.PLP.ligand.torsion>
0.3200

> <Gold.PLP.Chemscore.Hbond>
7.2093

> <Gold.PLP.Chemscore.CHOScore>
0.0000

> <Gold.PLP.Chemscore.Metal>
0.0000

> <Gold.Chemscore.Hbonds>
donor molecule, donor type, donor heavy atom, donor atom, acceptor molecule, acceptor atom, score
      L1  H    12    26       P1  7957  0.96
      L1  H    14    27       P1 10175  1.00
      L1  H    16    28       P1  8028  1.00
      P1  H  7989  7998       L1    17  1.00
      P1  H  7997  8008       L1     1  2.00
      P1  H  8011  8017       L1     9  0.73
      P1  H 10752 10764       L1     3  0.40

> <Gold.PLP.Chemscore.Internal.Correction>
0.0722

> <Gold.Rescore>
     Score         DG    S(hbond)    S(metal)    S(lipo)     H(rot)  DE(clash)    DE(int)     intcor
     14.14     -16.17       5.43        0.00      24.87       4.04       1.66       0.37       ----

> <Gold.Chemscore.Fitness>
14.1443

> <Gold.Chemscore.DG>
-16.1750

> <Gold.Chemscore.ZeroCoef>
-5.4800

> <Gold.Chemscore.Hbond>
5.4276

> <Gold.Chemscore.Metal>
0.0000

> <Gold.Chemscore.Lipo>
24.8696

> <Gold.Chemscore.Internal_Hbond>
0.0000

> <Gold.Chemscore.DEClash>
1.6598

> <Gold.Chemscore.DEInternal>
0.3708

> <Gold.Chemscore.Rot>
4.0403

> <Gold.Chemscore.Internal.Correction>
   9.000000E+99

> <Gold.Chemscore.Hbonds>
donor molecule, donor type, donor heavy atom, donor atom, acceptor molecule, acceptor atom, score
      L1  H    12    26       P1  7957  0.90
      L1  H    14    27       P1 10175  0.99
      L1  H    16    28       P1  8028  0.28
      P1  H  7989  7998       L1    17  0.99
      P1  H  7997  8008       L1     1  0.54
      P1  H  8011  8017       L1     9  0.63
      P1  H 10752 10764       L1     3  0.40

> <Gold.Chemscore.Hbond.Weighted>
-18.1283

> <Gold.Chemscore.Metal.Weighted>
-0.0000

> <Gold.Chemscore.Lipo.Weighted>
-2.9097

> <Gold.Chemscore.Internal_Hbond.Weighted>
0.0000

> <Gold.Chemscore.DEClash.Weighted>
1.6598

> <Gold.Chemscore.DEInternal.Weighted>
0.3708

> <Gold.Chemscore.Rot.Weighted>
10.3431

> <Gold.Chemscore.Internal.Correction.Weighted>
   9.000000E+99

> <Gold.Protein.RotatedTorsions>
[ 6907 6896 6895 6894 ] final  155.55 input  -60.11 | X-H torsion
[ 7974 7965 7964 7962 ] final  -33.75 input  175.53 | X-H torsion
[ 8008 7997 7996 7995 ] final  -14.88 input   59.86 | X-H torsion
[ 10167 10162 10161 10158 ] final   95.04 input  -65.29 | X-H torsion
[ 10718 10713 10712 10709 ] final   42.72 input   66.30 | X-H torsion
[ 10763 10752 10751 10750 ] final  -29.14 input  -60.55 | X-H torsion
[ 11005 11000 10999 10996 ] final -105.53 input  -57.11 | X-H torsion

> <Gold.Protein.ActiveResidues>
 VAL166  LYS551  ARG553  GLY616  TRP617  ASP618  TYR619  PRO620  LYS621  CYS622 
 ASP623  PHE694  ASN695  SER759  ASP760  ASP761  ALA762  ILE779  LEU786  VAL792 
 PHE793  MET794  SER795  GLU796  ALA797  LYS798  CYS799  TRP800  GLU811  SER814 

> <Gold.Protein.RotatedAtoms>
  152.0425  133.3983  159.4342 H   0  0  0  0  0  0  0  0  0  0  0  0  # atno 6907 bound_to 6896
  150.6875  134.3399  159.4872 H   0  0  0  0  0  0  0  0  0  0  0  0  # atno 6908 bound_to 6896
  152.1199  134.9213  160.0614 H   0  0  0  0  0  0  0  0  0  0  0  0  # atno 6909 bound_to 6896
  146.0885  140.5954  142.8875 H   0  0  0  0  0  0  0  0  0  0  0  0  # atno 7974 bound_to 7965
  154.5174  140.2211  155.9039 H   0  0  0  0  0  0  0  0  0  0  0  0  # atno 8008 bound_to 7997
  156.1624  140.3139  155.8795 H   0  0  0  0  0  0  0  0  0  0  0  0  # atno 8009 bound_to 7997
  155.3725  140.0467  157.3036 H   0  0  0  0  0  0  0  0  0  0  0  0  # atno 8010 bound_to 7997
  139.8026  144.6807  150.9745 H   0  0  0  0  0  0  0  0  0  0  0  0  # atno 10167 bound_to 10162
  157.4080  130.7898  149.7405 H   0  0  0  0  0  0  0  0  0  0  0  0  # atno 10718 bound_to 10713
  153.7599  135.6920  153.4928 H   0  0  0  0  0  0  0  0  0  0  0  0  # atno 10763 bound_to 10752
  153.1946  135.4458  155.0190 H   0  0  0  0  0  0  0  0  0  0  0  0  # atno 10764 bound_to 10752
  154.8157  135.3398  154.7114 H   0  0  0  0  0  0  0  0  0  0  0  0  # atno 10765 bound_to 10752
  141.1049  133.8816  157.1745 H   0  0  0  0  0  0  0  0  0  0  0  0  # atno 11005 bound_to 11000
  144.7343  140.4764  143.6915 LP  0  0  0  0  0  0  0  0  0  0  0  0  # atno 17320 bound_to 7965
  145.6083  139.1510  143.3090 LP  0  0  0  0  0  0  0  0  0  0  0  0  # atno 17321 bound_to 7965
  140.7820  143.4266  151.0759 LP  0  0  0  0  0  0  0  0  0  0  0  0  # atno 17342 bound_to 10162
  139.7937  143.8182  152.3155 LP  0  0  0  0  0  0  0  0  0  0  0  0  # atno 17343 bound_to 10162
  155.9842  130.3993  150.3323 LP  0  0  0  0  0  0  0  0  0  0  0  0  # atno 17370 bound_to 10713
  157.1458  131.0308  151.2907 LP  0  0  0  0  0  0  0  0  0  0  0  0  # atno 17371 bound_to 10713
  139.9915  135.0063  156.9985 LP  0  0  0  0  0  0  0  0  0  0  0  0  # atno 17394 bound_to 11000
  140.4928  134.1176  155.7236 LP  0  0  0  0  0  0  0  0  0  0  0  0  # atno 17395 bound_to 11000

$$$$
