AV-unprocessed.smi:305|AV-procd|sdf|2280|dock9
  -GOLD-   2262022183D 1   1.00000     0.00000
 Structure written by MMmdl.
 47 49  0  0  0  0  0  0  0  0  1 V2000
  155.4979  137.1451  163.5740 C   0  0  0  0  0  0  0  0  0  0  0  0
  155.4107  137.0503  162.0492 C   0  0  0  0  0  0  0  0  0  0  0  0
  154.8534  138.2517  161.5439 O   0  0  0  0  0  0  0  0  0  0  0  0
  155.7863  139.3183  161.5219 C   0  0  0  0  0  0  0  0  0  0  0  0
  155.4254  140.2684  160.3728 C   0  0  0  0  0  0  0  0  0  0  0  0
  154.1959  139.8626  159.7017 N   0  0  0  0  0  0  0  0  0  0  0  0
  153.0172  140.5334  159.6320 C   0  0  0  0  0  0  0  0  0  0  0  0
  152.8451  141.7871  160.2571 N   0  0  0  0  0  0  0  0  0  0  0  0
  153.4336  142.0376  161.4450 N   0  0  0  0  0  0  0  0  0  0  0  0
  153.0751  143.2732  161.7498 C   0  0  0  0  0  0  0  0  0  0  0  0
  153.5716  143.8902  163.0259 C   0  0  0  0  0  0  0  0  0  0  0  0
  152.2254  143.8507  160.7620 C   0  0  0  0  0  0  0  0  0  0  0  0
  151.6181  145.2265  160.7635 C   0  0  0  0  0  0  0  0  0  0  0  0
  152.0988  142.8658  159.8200 C   0  0  0  0  0  0  0  0  0  0  0  0
  151.3390  142.8471  158.5323 C   0  0  0  0  0  0  0  0  0  0  0  0
  152.0627  139.9224  158.9239 N   0  0  0  0  0  0  0  0  0  0  0  0
  152.6854  138.7502  158.5180 C   0  0  0  0  0  0  0  0  0  0  0  0
  153.9628  138.6959  158.9754 C   0  0  0  0  0  0  0  0  0  0  0  0
  154.8552  137.5646  158.6967 C   0  0  0  0  0  0  0  0  0  0  0  0
  156.0127  137.4990  159.1047 O   0  0  0  0  0  0  0  0  0  0  0  0
  154.2695  136.5994  157.9469 N   0  0  0  0  0  0  0  0  0  0  0  0
  152.9923  136.5886  157.4557 C   0  0  0  0  0  0  0  0  0  0  0  0
  152.5982  135.6321  156.7886 O   0  0  0  0  0  0  0  0  0  0  0  0
  152.1920  137.6671  157.7356 N   0  0  0  0  0  0  0  0  0  0  0  0
  150.8172  137.7077  157.2344 C   0  0  0  0  0  0  0  0  0  0  0  0
  154.8398  135.7959  157.7270 H   0  0  0  0  0  0  0  0  0  0  0  0
  155.9252  136.2355  163.9967 H   0  0  0  0  0  0  0  0  0  0  0  0
  154.5106  137.2872  164.0142 H   0  0  0  0  0  0  0  0  0  0  0  0
  156.1256  137.9827  163.8787 H   0  0  0  0  0  0  0  0  0  0  0  0
  156.4050  136.8912  161.6290 H   0  0  0  0  0  0  0  0  0  0  0  0
  154.7909  136.1988  161.7650 H   0  0  0  0  0  0  0  0  0  0  0  0
  155.7670  139.8502  162.4740 H   0  0  0  0  0  0  0  0  0  0  0  0
  156.7954  138.9269  161.3868 H   0  0  0  0  0  0  0  0  0  0  0  0
  155.3143  141.2864  160.7471 H   0  0  0  0  0  0  0  0  0  0  0  0
  156.2319  140.3094  159.6411 H   0  0  0  0  0  0  0  0  0  0  0  0
  154.0144  144.8684  162.8385 H   0  0  0  0  0  0  0  0  0  0  0  0
  154.3309  143.2718  163.5064 H   0  0  0  0  0  0  0  0  0  0  0  0
  152.7555  144.0255  163.7358 H   0  0  0  0  0  0  0  0  0  0  0  0
  150.5797  145.2105  160.4318 H   0  0  0  0  0  0  0  0  0  0  0  0
  152.1576  145.9026  160.1000 H   0  0  0  0  0  0  0  0  0  0  0  0
  151.6264  145.6757  161.7566 H   0  0  0  0  0  0  0  0  0  0  0  0
  151.0029  143.8471  158.2589 H   0  0  0  0  0  0  0  0  0  0  0  0
  150.4602  142.2073  158.6126 H   0  0  0  0  0  0  0  0  0  0  0  0
  151.9587  142.4712  157.7182 H   0  0  0  0  0  0  0  0  0  0  0  0
  150.7994  137.5885  156.1504 H   0  0  0  0  0  0  0  0  0  0  0  0
  150.3146  138.6474  157.4633 H   0  0  0  0  0  0  0  0  0  0  0  0
  150.2275  136.9032  157.6761 H   0  0  0  0  0  0  0  0  0  0  0  0
  1  2  1  0  0  0  0
  1 27  1  0  0  0  0
  1 28  1  0  0  0  0
  1 29  1  0  0  0  0
  2  3  1  0  0  0  0
  2 30  1  0  0  0  0
  2 31  1  0  0  0  0
  3  4  1  0  0  0  0
  4  5  1  0  0  0  0
  4 32  1  0  0  0  0
  4 33  1  0  0  0  0
  5  6  1  0  0  0  0
  5 34  1  0  0  0  0
  5 35  1  0  0  0  0
  6 18  1  0  0  0  0
  6  7  1  0  0  0  0
  7  8  1  0  0  0  0
  7 16  2  0  0  0  0
  8 14  1  0  0  0  0
  8  9  1  0  0  0  0
  9 10  2  0  0  0  0
 10 11  1  0  0  0  0
 10 12  1  0  0  0  0
 11 36  1  0  0  0  0
 11 37  1  0  0  0  0
 11 38  1  0  0  0  0
 12 13  1  0  0  0  0
 12 14  2  0  0  0  0
 13 39  1  0  0  0  0
 13 40  1  0  0  0  0
 13 41  1  0  0  0  0
 14 15  1  0  0  0  0
 15 42  1  0  0  0  0
 15 43  1  0  0  0  0
 15 44  1  0  0  0  0
 16 17  1  0  0  0  0
 17 24  1  0  0  0  0
 17 18  2  0  0  0  0
 18 19  1  0  0  0  0
 19 20  2  0  0  0  0
 19 21  1  0  0  0  0
 21 26  1  0  0  0  0
 21 22  1  0  0  0  0
 22 23  2  0  0  0  0
 22 24  1  0  0  0  0
 24 25  1  0  0  0  0
 25 45  1  0  0  0  0
 25 46  1  0  0  0  0
 25 47  1  0  0  0  0
M  END
> <s_m_source_file>
AV-unprocessed.smi

> <i_m_source_file_index>
305

> <i_lp_mmshare_version>
43012

> <i_f3d_flags>
0

> <s_epik_input>
W0NIM11uMWMoPU8pW25IXWMoPU8pYyhjMTIpbihbQ0gyXVtDSDJdT1tDSDJdW0NIM10pYyhuMiktbjNuYyhbQ0gzXSljKFtDSDNdKWMzW0NIM10=

> <s_epik_cmdline>
J2VwaWtfcHl0aG9uJywgJy1waCcsICc3LjAnLCAnLXRuJywgJzgnLCAnLW1hJywgJzIwMCcsICctbWV0YWxfYmluZGluZycsICctaW1hZScsICc8aW5maWxlLm1hZT4nLCAnLW9tYWUnLCAnPG91dGZpbGUubWFlPic=

> <r_lp_tautomer_probability>
1

> <r_epik_Ionization_Penalty>
0.00243297

> <r_epik_Ionization_Penalty_Charging>
0.000715499

> <r_epik_Ionization_Penalty_Neutral>
0.00171747

> <r_epik_State_Penalty>
-0

> <r_epik_Charging_Adjusted_Penalty>
0.000715499

> <i_epik_Tot_Q>
0

> <i_epik_Tot_abs_Q>
0

> <r_epik_Metal_State_Penalty>
0.258225

> <b_epik_Metal_Only>
0

> <s_lp_Force_Field>
OPLS_2005

> <r_lp_Energy>
25.4323

> <b_lp_Chiralities_Consistent>
1

> <s_lp_Variant>
AV-unprocessed.smi:305-1

> <Gold.Version>
5.8.1

> <Gold.Id.Protein>
6NUR|6NUR_protein|mol2

> <Gold.PLP.Fitness>
46.5131

> <Gold.PLP.PLP>
-45.3617

> <Gold.PLP.part.hbond>
-1.0000

> <Gold.PLP.part.metal>
0.0000

> <Gold.PLP.part.buried>
-6.0826

> <Gold.PLP.part.nonpolar>
-37.9807

> <Gold.PLP.part.repulsive>
0.1561

> <Gold.PLP.ligand.clash>
0.0000

> <Gold.PLP.ligand.torsion>
1.1497

> <Gold.PLP.Chemscore.Hbond>
1.0000

> <Gold.PLP.Chemscore.CHOScore>
0.0000

> <Gold.PLP.Chemscore.Metal>
0.0000

> <Gold.Chemscore.Hbonds>
donor molecule, donor type, donor heavy atom, donor atom, acceptor molecule, acceptor atom, score
      P1  H 10752 10764       L1    23  1.00

> <Gold.PLP.Chemscore.Internal.Correction>
0.4507

> <Gold.Rescore>
     Score         DG    S(hbond)    S(metal)    S(lipo)     H(rot)  DE(clash)    DE(int)     intcor
     10.52     -17.13       1.00        0.00     107.12       1.65       1.79       4.82       ----

> <Gold.Chemscore.Fitness>
10.5206

> <Gold.Chemscore.DG>
-17.1310

> <Gold.Chemscore.ZeroCoef>
-5.4800

> <Gold.Chemscore.Hbond>
0.9985

> <Gold.Chemscore.Metal>
0.0000

> <Gold.Chemscore.Lipo>
107.1176

> <Gold.Chemscore.Internal_Hbond>
0.0000

> <Gold.Chemscore.DEClash>
1.7935

> <Gold.Chemscore.DEInternal>
4.8169

> <Gold.Chemscore.Rot>
1.6471

> <Gold.Chemscore.Internal.Correction>
   9.000000E+99

> <Gold.Chemscore.Hbonds>
donor molecule, donor type, donor heavy atom, donor atom, acceptor molecule, acceptor atom, score
      P1  H 10752 10764       L1    23  0.95

> <Gold.Chemscore.Hbond.Weighted>
-3.3349

> <Gold.Chemscore.Metal.Weighted>
-0.0000

> <Gold.Chemscore.Lipo.Weighted>
-12.5328

> <Gold.Chemscore.Internal_Hbond.Weighted>
0.0000

> <Gold.Chemscore.DEClash.Weighted>
1.7935

> <Gold.Chemscore.DEInternal.Weighted>
4.8169

> <Gold.Chemscore.Rot.Weighted>
4.2167

> <Gold.Chemscore.Internal.Correction.Weighted>
   9.000000E+99

> <Gold.Protein.RotatedTorsions>
[ 6907 6896 6895 6894 ] final   56.11 input  -60.11 | X-H torsion
[ 7974 7965 7964 7962 ] final   81.61 input  175.53 | X-H torsion
[ 8008 7997 7996 7995 ] final    2.80 input   59.86 | X-H torsion
[ 10167 10162 10161 10158 ] final  -61.85 input  -65.29 | X-H torsion
[ 10718 10713 10712 10709 ] final -133.27 input   66.30 | X-H torsion
[ 10763 10752 10751 10750 ] final  -22.96 input  -60.55 | X-H torsion
[ 11005 11000 10999 10996 ] final   15.02 input  -57.11 | X-H torsion

> <Gold.Protein.ActiveResidues>
 VAL166  LYS551  ARG553  GLY616  TRP617  ASP618  TYR619  PRO620  LYS621  CYS622 
 ASP623  PHE694  ASN695  SER759  ASP760  ASP761  ALA762  ILE779  LEU786  VAL792 
 PHE793  MET794  SER795  GLU796  ALA797  LYS798  CYS799  TRP800  GLU811  SER814 

> <Gold.Protein.RotatedAtoms>
  152.3604  134.6880  160.0208 H   0  0  0  0  0  0  0  0  0  0  0  0  # atno 6907 bound_to 6896
  151.7205  133.3309  159.3322 H   0  0  0  0  0  0  0  0  0  0  0  0  # atno 6908 bound_to 6896
  150.7601  134.6387  159.6270 H   0  0  0  0  0  0  0  0  0  0  0  0  # atno 6909 bound_to 6896
  145.6359  139.2415  143.2058 H   0  0  0  0  0  0  0  0  0  0  0  0  # atno 7974 bound_to 7965
  154.6960  140.2663  155.6766 H   0  0  0  0  0  0  0  0  0  0  0  0  # atno 8008 bound_to 7997
  156.2748  140.2782  156.1477 H   0  0  0  0  0  0  0  0  0  0  0  0  # atno 8009 bound_to 7997
  155.0831  140.0373  157.2635 H   0  0  0  0  0  0  0  0  0  0  0  0  # atno 8010 bound_to 7997
  140.5978  143.2354  151.5996 H   0  0  0  0  0  0  0  0  0  0  0  0  # atno 10167 bound_to 10162
  156.2432  130.7108  151.0978 H   0  0  0  0  0  0  0  0  0  0  0  0  # atno 10718 bound_to 10713
  153.6602  135.6977  153.5180 H   0  0  0  0  0  0  0  0  0  0  0  0  # atno 10763 bound_to 10752
  153.2637  135.4236  155.0919 H   0  0  0  0  0  0  0  0  0  0  0  0  # atno 10764 bound_to 10752
  154.8454  135.3561  154.6147 H   0  0  0  0  0  0  0  0  0  0  0  0  # atno 10765 bound_to 10752
  140.4630  134.1108  155.7719 H   0  0  0  0  0  0  0  0  0  0  0  0  # atno 11005 bound_to 11000
  146.1319  140.7173  142.9408 LP  0  0  0  0  0  0  0  0  0  0  0  0  # atno 17320 bound_to 7965
  144.7176  140.4262  143.7033 LP  0  0  0  0  0  0  0  0  0  0  0  0  # atno 17321 bound_to 7965
  139.5270  144.3029  152.1058 LP  0  0  0  0  0  0  0  0  0  0  0  0  # atno 17342 bound_to 10162
  140.2204  144.4472  150.6344 LP  0  0  0  0  0  0  0  0  0  0  0  0  # atno 17343 bound_to 10162
  157.7184  131.0696  150.6235 LP  0  0  0  0  0  0  0  0  0  0  0  0  # atno 17370 bound_to 10713
  156.6310  130.4432  149.5787 LP  0  0  0  0  0  0  0  0  0  0  0  0  # atno 17371 bound_to 10713
  141.1612  133.8789  157.1842 LP  0  0  0  0  0  0  0  0  0  0  0  0  # atno 17394 bound_to 11000
  139.9933  135.0056  157.0025 LP  0  0  0  0  0  0  0  0  0  0  0  0  # atno 17395 bound_to 11000

$$$$
