AV-unprocessed.smi:290|AV-procd|sdf|2233|dock5
  -GOLD-   2262022 93D 1   1.00000     0.00000
 Structure written by MMmdl.
 59 62  0  0  0  0  0  0  0  0  2 V2000
  153.2329  142.8439  160.7265 C   0  0  0  0  0  0  0  0  0  0  0  0
  152.7325  143.1945  159.3156 C   0  0  2  0  0  0  0  0  0  0  0  0
  152.4386  144.5872  159.2687 O   0  0  0  0  0  0  0  0  0  0  0  0
  151.4309  144.8042  158.2982 C   0  0  0  0  0  0  0  0  0  0  0  0
  150.4955  143.6281  158.5362 C   0  0  0  0  0  0  0  0  0  0  0  0
  151.4466  142.4658  158.8285 C   0  0  2  0  0  0  0  0  0  0  0  0
  150.8631  141.6721  159.8475 O   0  0  0  0  0  0  0  0  0  0  0  0
  151.6825  141.5075  157.6260 C   0  0  0  0  0  0  0  0  0  0  0  0
  150.4778  140.9724  157.0038 N   0  0  0  0  0  0  0  0  0  0  0  0
  149.1753  141.1793  157.4038 C   0  0  0  0  0  0  0  0  0  0  0  0
  148.2655  140.5906  156.6762 N   0  0  0  0  0  0  0  0  0  0  0  0
  148.9941  139.9477  155.6834 C   0  0  0  0  0  0  0  0  0  0  0  0
  148.6494  139.1371  154.5653 C   0  0  0  0  0  0  0  0  0  0  0  0
  147.3885  138.7943  154.2231 N   0  0  0  0  0  0  0  0  0  0  0  0
  146.9017  139.3904  152.9877 C   0  0  0  0  0  0  0  0  0  0  0  0
  146.3826  138.2393  152.1344 C   0  0  0  0  0  0  0  0  0  0  0  0
  146.0292  137.1392  153.1453 C   0  0  1  0  0  0  0  0  0  0  0  0
  146.0179  135.7964  152.4872 N   0  3  1  0  0  0  0  0  0  0  0  0
  145.9939  134.6386  153.4131 C   0  0  0  0  0  0  0  0  0  0  0  0
  144.9629  135.6781  151.4439 C   0  0  0  0  0  0  0  0  0  0  0  0
  144.8216  134.2357  150.9308 C   0  0  0  0  0  0  0  0  0  0  0  0
  144.0096  134.2106  149.7754 O   0  0  0  0  0  0  0  0  0  0  0  0
  147.1143  137.3583  154.2285 C   0  0  2  0  0  0  0  0  0  0  0  0
  146.7148  136.9257  155.6545 C   0  0  0  0  0  0  0  0  0  0  0  0
  149.6506  138.6791  153.7761 N   0  0  0  0  0  0  0  0  0  0  0  0
  150.9182  138.9932  154.0590 C   0  0  0  0  0  0  0  0  0  0  0  0
  151.3903  139.7343  155.0638 N   0  0  0  0  0  0  0  0  0  0  0  0
  150.3842  140.1907  155.8640 C   0  0  0  0  0  0  0  0  0  0  0  0
  145.0485  137.3453  153.5786 H   0  0  0  0  0  0  0  0  0  0  0  0
  148.0197  136.8252  153.9343 H   0  0  0  0  0  0  0  0  0  0  0  0
  153.4759  141.7841  160.8067 H   0  0  0  0  0  0  0  0  0  0  0  0
  152.4864  143.0799  161.4856 H   0  0  0  0  0  0  0  0  0  0  0  0
  154.1343  143.4075  160.9671 H   0  0  0  0  0  0  0  0  0  0  0  0
  153.5508  143.0208  158.6203 H   0  0  0  0  0  0  0  0  0  0  0  0
  150.9400  145.7674  158.4363 H   0  0  0  0  0  0  0  0  0  0  0  0
  151.8647  144.7789  157.2980 H   0  0  0  0  0  0  0  0  0  0  0  0
  149.8868  143.8536  159.4137 H   0  0  0  0  0  0  0  0  0  0  0  0
  149.8073  143.4471  157.7126 H   0  0  0  0  0  0  0  0  0  0  0  0
  150.5972  142.2394  160.5551 H   0  0  0  0  0  0  0  0  0  0  0  0
  152.2632  142.0169  156.8553 H   0  0  0  0  0  0  0  0  0  0  0  0
  152.2900  140.6587  157.9443 H   0  0  0  0  0  0  0  0  0  0  0  0
  148.9153  141.7849  158.2601 H   0  0  0  0  0  0  0  0  0  0  0  0
  146.0860  140.0680  153.2420 H   0  0  0  0  0  0  0  0  0  0  0  0
  147.6566  139.9731  152.4574 H   0  0  0  0  0  0  0  0  0  0  0  0
  145.5441  138.5473  151.5097 H   0  0  0  0  0  0  0  0  0  0  0  0
  147.1812  137.8969  151.4740 H   0  0  0  0  0  0  0  0  0  0  0  0
  145.1233  134.6801  154.0687 H   0  0  0  0  0  0  0  0  0  0  0  0
  146.8981  134.5989  154.0196 H   0  0  0  0  0  0  0  0  0  0  0  0
  145.9508  133.6966  152.8674 H   0  0  0  0  0  0  0  0  0  0  0  0
  144.0124  136.0281  151.8497 H   0  0  0  0  0  0  0  0  0  0  0  0
  145.1680  136.3255  150.5916 H   0  0  0  0  0  0  0  0  0  0  0  0
  145.7886  133.7860  150.7069 H   0  0  0  0  0  0  0  0  0  0  0  0
  144.3517  133.6133  151.6927 H   0  0  0  0  0  0  0  0  0  0  0  0
  144.5640  134.2758  149.0121 H   0  0  0  0  0  0  0  0  0  0  0  0
  146.5201  135.8598  155.7405 H   0  0  0  0  0  0  0  0  0  0  0  0
  145.8182  137.4502  155.9864 H   0  0  0  0  0  0  0  0  0  0  0  0
  147.5080  137.1547  156.3668 H   0  0  0  0  0  0  0  0  0  0  0  0
  151.6608  138.5925  153.3845 H   0  0  0  0  0  0  0  0  0  0  0  0
  146.8980  135.7366  151.9943 H   0  0  0  0  0  0  0  0  0  0  0  0
  1  2  1  0  0  0  0
  1 31  1  0  0  0  0
  1 32  1  0  0  0  0
  1 33  1  0  0  0  0
  2  6  1  0  0  0  0
  2  3  1  0  0  0  0
  2 34  1  0  0  0  0
  3  4  1  0  0  0  0
  4  5  1  0  0  0  0
  4 35  1  0  0  0  0
  4 36  1  0  0  0  0
  5  6  1  0  0  0  0
  5 37  1  0  0  0  0
  5 38  1  0  0  0  0
  6  7  1  0  0  0  0
  6  8  1  0  0  0  0
  7 39  1  0  0  0  0
  8  9  1  0  0  0  0
  8 40  1  0  0  0  0
  8 41  1  0  0  0  0
  9 28  1  0  0  0  0
  9 10  1  0  0  0  0
 10 11  2  0  0  0  0
 10 42  1  0  0  0  0
 11 12  1  0  0  0  0
 12 28  2  0  0  0  0
 12 13  1  0  0  0  0
 13 14  1  0  0  0  0
 13 25  2  0  0  0  0
 14 23  1  0  0  0  0
 14 15  1  0  0  0  0
 15 16  1  0  0  0  0
 15 43  1  0  0  0  0
 15 44  1  0  0  0  0
 16 17  1  0  0  0  0
 16 45  1  0  0  0  0
 16 46  1  0  0  0  0
 17 29  1  0  0  0  0
 17 18  1  0  0  0  0
 17 23  1  0  0  0  0
 18 19  1  0  0  0  0
 18 20  1  0  0  0  0
 18 59  1  0  0  0  0
 19 47  1  0  0  0  0
 19 48  1  0  0  0  0
 19 49  1  0  0  0  0
 20 21  1  0  0  0  0
 20 50  1  0  0  0  0
 20 51  1  0  0  0  0
 21 22  1  0  0  0  0
 21 52  1  0  0  0  0
 21 53  1  0  0  0  0
 22 54  1  0  0  0  0
 23 30  1  0  0  0  0
 23 24  1  0  0  0  0
 24 55  1  0  0  0  0
 24 56  1  0  0  0  0
 24 57  1  0  0  0  0
 25 26  1  0  0  0  0
 26 27  2  0  0  0  0
 26 58  1  0  0  0  0
 27 28  1  0  0  0  0
M  CHG  1  18   1
M  END
> <s_m_source_file>
AV-unprocessed.smi

> <i_m_source_file_index>
290

> <i_lp_mmshare_version>
43012

> <i_f3d_flags>
0

> <s_epik_input>
W0NIMl0xW0NIMl1PW0NAQEhdKFtDSDNdKVtDQEBdMShbT0hdKVtDSDJdbihbY0hdbjIpYyhjMjMpbltjSF1uYzNONFtDSDJdW0NIMl1bQ0BIXShbQ0BIXTRbQ0gzXSlOKFtDSDNdKVtDSDJdW0NIMl1bT0hd

> <s_epik_cmdline>
J2VwaWtfcHl0aG9uJywgJy1waCcsICc3LjAnLCAnLXRuJywgJzgnLCAnLW1hJywgJzIwMCcsICctbWV0YWxfYmluZGluZycsICctaW1hZScsICc8aW5maWxlLm1hZT4nLCAnLW9tYWUnLCAnPG91dGZpbGUubWFlPic=

> <r_lp_tautomer_probability>
1

> <r_epik_Ionization_Penalty>
0.0036983

> <r_epik_Ionization_Penalty_Charging>
0.0032725

> <r_epik_Ionization_Penalty_Neutral>
0.000425798

> <r_epik_State_Penalty>
-0

> <r_epik_Charging_Adjusted_Penalty>
0.0032725

> <i_epik_Tot_Q>
1

> <i_epik_Tot_abs_Q>
1

> <r_epik_Metal_State_Penalty>
-0

> <b_epik_Metal_Only>
0

> <s_lp_Force_Field>
OPLS_2005

> <r_lp_Energy>
66.0364

> <b_lp_Chiralities_Consistent>
1

> <s_lp_Variant>
AV-unprocessed.smi:290-19

> <Gold.Version>
5.8.1

> <Gold.Id.Protein>
6NUR|6NUR_protein|mol2

> <Gold.PLP.Fitness>
50.4138

> <Gold.PLP.PLP>
-41.7951

> <Gold.PLP.part.hbond>
-4.6710

> <Gold.PLP.part.metal>
0.0000

> <Gold.PLP.part.buried>
-2.7840

> <Gold.PLP.part.nonpolar>
-35.8029

> <Gold.PLP.part.repulsive>
1.6053

> <Gold.PLP.ligand.clash>
0.0000

> <Gold.PLP.ligand.torsion>
0.3411

> <Gold.PLP.Chemscore.Hbond>
3.0000

> <Gold.PLP.Chemscore.CHOScore>
0.0000

> <Gold.PLP.Chemscore.Metal>
0.0000

> <Gold.Chemscore.Hbonds>
donor molecule, donor type, donor heavy atom, donor atom, acceptor molecule, acceptor atom, score
      L1  H    18    59       P1  7948  1.69
      L1  H    22    54       P1  7921  0.70

> <Gold.PLP.Chemscore.Internal.Correction>
0.3009

> <Gold.Rescore>
     Score         DG    S(hbond)    S(metal)    S(lipo)     H(rot)  DE(clash)    DE(int)     intcor
     11.39     -14.99       2.00        0.00     104.46       3.67       1.92       1.68       ----

> <Gold.Chemscore.Fitness>
11.3852

> <Gold.Chemscore.DG>
-14.9897

> <Gold.Chemscore.ZeroCoef>
-5.4800

> <Gold.Chemscore.Hbond>
1.9975

> <Gold.Chemscore.Metal>
0.0000

> <Gold.Chemscore.Lipo>
104.4641

> <Gold.Chemscore.Internal_Hbond>
0.0000

> <Gold.Chemscore.DEClash>
1.9213

> <Gold.Chemscore.DEInternal>
1.6831

> <Gold.Chemscore.Rot>
3.6658

> <Gold.Chemscore.Internal.Correction>
   9.000000E+99

> <Gold.Chemscore.Hbonds>
donor molecule, donor type, donor heavy atom, donor atom, acceptor molecule, acceptor atom, score
      L1  H    18    59       P1  7948  0.80
      L1  H    22    54       P1  7921  0.69

> <Gold.Chemscore.Hbond.Weighted>
-6.6718

> <Gold.Chemscore.Metal.Weighted>
-0.0000

> <Gold.Chemscore.Lipo.Weighted>
-12.2223

> <Gold.Chemscore.Internal_Hbond.Weighted>
0.0000

> <Gold.Chemscore.DEClash.Weighted>
1.9213

> <Gold.Chemscore.DEInternal.Weighted>
1.6831

> <Gold.Chemscore.Rot.Weighted>
9.3844

> <Gold.Chemscore.Internal.Correction.Weighted>
   9.000000E+99

> <Gold.Protein.RotatedTorsions>
[ 6907 6896 6895 6894 ] final  -70.36 input  -60.11 | X-H torsion
[ 7974 7965 7964 7962 ] final -141.31 input  175.53 | X-H torsion
[ 8008 7997 7996 7995 ] final -130.79 input   59.86 | X-H torsion
[ 10167 10162 10161 10158 ] final   -7.93 input  -65.29 | X-H torsion
[ 10718 10713 10712 10709 ] final  173.35 input   66.30 | X-H torsion
[ 10763 10752 10751 10750 ] final   87.91 input  -60.55 | X-H torsion
[ 11005 11000 10999 10996 ] final  123.68 input  -57.11 | X-H torsion

> <Gold.Protein.ActiveResidues>
 VAL166  LYS551  ARG553  GLY616  TRP617  ASP618  TYR619  PRO620  LYS621  CYS622 
 ASP623  PHE694  ASN695  SER759  ASP760  ASP761  ALA762  ILE779  LEU786  VAL792 
 PHE793  MET794  SER795  GLU796  ALA797  LYS798  CYS799  TRP800  GLU811  SER814 

> <Gold.Protein.RotatedAtoms>
  150.7261  134.5464  159.5772 H   0  0  0  0  0  0  0  0  0  0  0  0  # atno 6907 bound_to 6896
  152.2962  134.7661  160.0376 H   0  0  0  0  0  0  0  0  0  0  0  0  # atno 6908 bound_to 6896
  151.8258  133.3365  159.3635 H   0  0  0  0  0  0  0  0  0  0  0  0  # atno 6909 bound_to 6896
  144.8529  140.6095  143.5378 H   0  0  0  0  0  0  0  0  0  0  0  0  # atno 7974 bound_to 7965
  155.3016  140.0453  157.3030 H   0  0  0  0  0  0  0  0  0  0  0  0  # atno 8008 bound_to 7997
  154.5483  140.2309  155.8493 H   0  0  0  0  0  0  0  0  0  0  0  0  # atno 8009 bound_to 7997
  156.1944  140.3042  155.9404 H   0  0  0  0  0  0  0  0  0  0  0  0  # atno 8010 bound_to 7997
  140.7044  143.6025  150.8784 H   0  0  0  0  0  0  0  0  0  0  0  0  # atno 10167 bound_to 10162
  156.9656  131.0074  151.2917 H   0  0  0  0  0  0  0  0  0  0  0  0  # atno 10718 bound_to 10713
  153.1715  135.4526  154.9908 H   0  0  0  0  0  0  0  0  0  0  0  0  # atno 10763 bound_to 10752
  154.7969  135.3241  154.7648 H   0  0  0  0  0  0  0  0  0  0  0  0  # atno 10764 bound_to 10752
  153.8123  135.6953  153.4894 H   0  0  0  0  0  0  0  0  0  0  0  0  # atno 10765 bound_to 10752
  139.9324  134.9641  156.8296 H   0  0  0  0  0  0  0  0  0  0  0  0  # atno 11005 bound_to 11000
  145.4464  139.1529  143.3942 LP  0  0  0  0  0  0  0  0  0  0  0  0  # atno 17320 bound_to 7965
  146.2799  140.4588  142.8780 LP  0  0  0  0  0  0  0  0  0  0  0  0  # atno 17321 bound_to 7965
  139.9749  143.6015  152.2962 LP  0  0  0  0  0  0  0  0  0  0  0  0  # atno 17342 bound_to 10162
  139.6615  144.7662  151.1953 LP  0  0  0  0  0  0  0  0  0  0  0  0  # atno 17343 bound_to 10162
  157.5628  130.8257  149.8288 LP  0  0  0  0  0  0  0  0  0  0  0  0  # atno 17370 bound_to 10713
  156.0304  130.3766  150.1704 LP  0  0  0  0  0  0  0  0  0  0  0  0  # atno 17371 bound_to 10713
  140.6167  134.0032  155.7600 LP  0  0  0  0  0  0  0  0  0  0  0  0  # atno 17394 bound_to 11000
  141.0919  133.9903  157.3222 LP  0  0  0  0  0  0  0  0  0  0  0  0  # atno 17395 bound_to 11000

$$$$
