AV-unprocessed.smi:1405|AV-procd|sdf|5707|dock9
  -GOLD-   22720 5343D 1   1.00000     0.00000
 Structure written by MMmdl.
 49 52  0  0  0  0  0  0  0  0  1 V2000
  146.1427  132.0472  155.4111 O   0  0  0  0  0  0  0  0  0  0  0  0
  146.5338  133.1859  155.1567 C   0  0  0  0  0  0  0  0  0  0  0  0
  147.0259  133.5064  153.7344 C   0  0  0  0  0  0  0  0  0  0  0  0
  146.1056  133.1080  152.6560 N   0  0  0  0  0  0  0  0  0  0  0  0
  146.4808  132.1336  151.7416 C   0  0  0  0  0  0  0  0  0  0  0  0
  145.6846  131.7149  150.7294 C   0  0  0  0  0  0  0  0  0  0  0  0
  144.3550  132.2878  150.5498 C   0  0  0  0  0  0  0  0  0  0  0  0
  143.5613  131.9749  149.6652 O   0  0  0  0  0  0  0  0  0  0  0  0
  144.0136  133.2637  151.4898 N   0  0  0  0  0  0  0  0  0  0  0  0
  144.8286  133.6994  152.5358 C   0  0  0  0  0  0  0  0  0  0  0  0
  144.4260  134.5620  153.3152 O   0  0  0  0  0  0  0  0  0  0  0  0
  146.5539  134.1683  156.0737 N   0  0  0  0  0  0  0  0  0  0  0  0
  146.1519  134.0294  157.4675 C   0  0  0  0  0  0  0  0  0  0  0  0
  147.2915  134.4516  158.4181 C   0  0  0  0  0  0  0  0  0  0  0  0
  146.8860  134.7635  159.8814 C   0  0  0  0  0  0  0  0  0  0  0  0
  145.6757  135.7346  159.9468 C   0  0  0  0  0  0  0  0  0  0  0  0
  145.2619  135.9820  161.4140 C   0  0  2  0  0  0  0  0  0  0  0  0
  146.4455  136.6016  162.1868 C   0  0  0  0  0  0  0  0  0  0  0  0
  147.6427  135.6278  162.1510 C   0  0  1  0  0  0  0  0  0  0  0  0
  147.2432  134.2920  162.8102 C   0  0  0  0  0  0  0  0  0  0  0  0
  146.0584  133.6804  162.0350 C   0  0  1  0  0  0  0  0  0  0  0  0
  144.8569  134.6469  162.0715 C   0  0  0  0  0  0  0  0  0  0  0  0
  146.4752  133.4335  160.5701 C   0  0  0  0  0  0  0  0  0  0  0  0
  148.0629  135.3795  160.6858 C   0  0  0  0  0  0  0  0  0  0  0  0
  143.1013  133.6884  151.4061 H   0  0  0  0  0  0  0  0  0  0  0  0
  147.2402  134.5751  153.6723 H   0  0  0  0  0  0  0  0  0  0  0  0
  147.9917  133.0181  153.5966 H   0  0  0  0  0  0  0  0  0  0  0  0
  147.4565  131.6787  151.8382 H   0  0  0  0  0  0  0  0  0  0  0  0
  146.0332  130.9511  150.0493 H   0  0  0  0  0  0  0  0  0  0  0  0
  146.8901  135.0754  155.7846 H   0  0  0  0  0  0  0  0  0  0  0  0
  145.2758  134.6598  157.6144 H   0  0  0  0  0  0  0  0  0  0  0  0
  145.8351  133.0033  157.6546 H   0  0  0  0  0  0  0  0  0  0  0  0
  148.0482  133.6655  158.4272 H   0  0  0  0  0  0  0  0  0  0  0  0
  147.7853  135.3276  157.9945 H   0  0  0  0  0  0  0  0  0  0  0  0
  145.9205  136.6904  159.4838 H   0  0  0  0  0  0  0  0  0  0  0  0
  144.8331  135.3291  159.3849 H   0  0  0  0  0  0  0  0  0  0  0  0
  144.4152  136.6686  161.4394 H   0  0  0  0  0  0  0  0  0  0  0  0
  146.7241  137.5601  161.7472 H   0  0  0  0  0  0  0  0  0  0  0  0
  146.1568  136.8082  163.2182 H   0  0  0  0  0  0  0  0  0  0  0  0
  148.4797  136.0635  162.6975 H   0  0  0  0  0  0  0  0  0  0  0  0
  148.0896  133.6040  162.8135 H   0  0  0  0  0  0  0  0  0  0  0  0
  146.9705  134.4512  163.8543 H   0  0  0  0  0  0  0  0  0  0  0  0
  145.7752  132.7334  162.4955 H   0  0  0  0  0  0  0  0  0  0  0  0
  144.5358  134.8133  163.1006 H   0  0  0  0  0  0  0  0  0  0  0  0
  144.0045  134.2111  161.5488 H   0  0  0  0  0  0  0  0  0  0  0  0
  145.6518  132.9652  160.0287 H   0  0  0  0  0  0  0  0  0  0  0  0
  147.3010  132.7212  160.5393 H   0  0  0  0  0  0  0  0  0  0  0  0
  148.9304  134.7190  160.6537 H   0  0  0  0  0  0  0  0  0  0  0  0
  148.3802  136.3246  160.2450 H   0  0  0  0  0  0  0  0  0  0  0  0
  1  2  2  0  0  0  0
  2  3  1  0  0  0  0
  2 12  1  0  0  0  0
  3  4  1  0  0  0  0
  3 26  1  0  0  0  0
  3 27  1  0  0  0  0
  4 10  1  0  0  0  0
  4  5  1  0  0  0  0
  5  6  2  0  0  0  0
  5 28  1  0  0  0  0
  6  7  1  0  0  0  0
  6 29  1  0  0  0  0
  7  8  2  0  0  0  0
  7  9  1  0  0  0  0
  9 25  1  0  0  0  0
  9 10  1  0  0  0  0
 10 11  2  0  0  0  0
 12 13  1  0  0  0  0
 12 30  1  0  0  0  0
 13 14  1  0  0  0  0
 13 31  1  0  0  0  0
 13 32  1  0  0  0  0
 14 15  1  0  0  0  0
 14 33  1  0  0  0  0
 14 34  1  0  0  0  0
 15 23  1  0  0  0  0
 15 24  1  0  0  0  0
 15 16  1  0  0  0  0
 16 17  1  0  0  0  0
 16 35  1  0  0  0  0
 16 36  1  0  0  0  0
 17 22  1  0  0  0  0
 17 18  1  0  0  0  0
 17 37  1  0  0  0  0
 18 19  1  0  0  0  0
 18 38  1  0  0  0  0
 18 39  1  0  0  0  0
 19 20  1  0  0  0  0
 19 24  1  0  0  0  0
 19 40  1  0  0  0  0
 20 21  1  0  0  0  0
 20 41  1  0  0  0  0
 20 42  1  0  0  0  0
 21 22  1  0  0  0  0
 21 23  1  0  0  0  0
 21 43  1  0  0  0  0
 22 44  1  0  0  0  0
 22 45  1  0  0  0  0
 23 46  1  0  0  0  0
 23 47  1  0  0  0  0
 24 48  1  0  0  0  0
 24 49  1  0  0  0  0
M  END
> <s_m_source_file>
AV-unprocessed.smi

> <i_m_source_file_index>
1405

> <i_lp_mmshare_version>
43012

> <i_f3d_flags>
0

> <s_epik_input>
Tz1jMVtuSF1jKD1PKVtjSF1bY0hdbjFbQ0gyXUMoPU8pW05IXVtDSDJdW0NIMl1DMjNbQ0gyXVtDQEBIXTRbQ0gyXVtDQEhdKFtDSDJdMylbQ0gyXVtDQEBIXShbQ0gyXTQpW0NIMl0y

> <s_epik_cmdline>
J2VwaWtfcHl0aG9uJywgJy1waCcsICc3LjAnLCAnLXRuJywgJzgnLCAnLW1hJywgJzIwMCcsICctbWV0YWxfYmluZGluZycsICctaW1hZScsICc8aW5maWxlLm1hZT4nLCAnLW9tYWUnLCAnPG91dGZpbGUubWFlPic=

> <r_lp_tautomer_probability>
0.999537

> <r_epik_Ionization_Penalty>
0.00301971

> <r_epik_Ionization_Penalty_Charging>
0.00301969

> <r_epik_Ionization_Penalty_Neutral>
2.18059e-08

> <r_epik_State_Penalty>
0.00212114

> <r_epik_Charging_Adjusted_Penalty>
0.00514083

> <i_epik_Tot_Q>
0

> <i_epik_Tot_abs_Q>
0

> <r_epik_Metal_State_Penalty>
0.361473

> <b_epik_Metal_Only>
0

> <s_lp_Force_Field>
OPLS_2005

> <r_lp_Energy>
33.2851

> <b_lp_Chiralities_Consistent>
1

> <s_lp_Variant>
AV-unprocessed.smi:1405-1

> <Gold.Version>
5.8.1

> <Gold.Id.Protein>
6NUR|6NUR_protein|mol2

> <Gold.PLP.Fitness>
39.6498

> <Gold.PLP.PLP>
-34.1903

> <Gold.PLP.part.hbond>
-1.0000

> <Gold.PLP.part.metal>
0.0000

> <Gold.PLP.part.buried>
-6.2444

> <Gold.PLP.part.nonpolar>
-28.1153

> <Gold.PLP.part.repulsive>
0.4141

> <Gold.PLP.ligand.clash>
0.0000

> <Gold.PLP.ligand.torsion>
0.2539

> <Gold.PLP.Chemscore.Hbond>
0.9833

> <Gold.PLP.Chemscore.CHOScore>
1.0000

> <Gold.PLP.Chemscore.Metal>
0.0000

> <Gold.Chemscore.Hbonds>
donor molecule, donor type, donor heavy atom, donor atom, acceptor molecule, acceptor atom, score
      P1  H 10785 10796       L1     8  0.85
      L1  C     5    28       P1 10747  1.00

> <Gold.PLP.Chemscore.Internal.Correction>
0.0174

> <Gold.Rescore>
     Score         DG    S(hbond)    S(metal)    S(lipo)     H(rot)  DE(clash)    DE(int)     intcor
     12.69     -13.01       0.93        0.00      85.44       2.18       0.05       0.28       ----

> <Gold.Chemscore.Fitness>
12.6861

> <Gold.Chemscore.DG>
-13.0078

> <Gold.Chemscore.ZeroCoef>
-5.4800

> <Gold.Chemscore.Hbond>
0.9314

> <Gold.Chemscore.Metal>
0.0000

> <Gold.Chemscore.Lipo>
85.4427

> <Gold.Chemscore.Internal_Hbond>
0.0000

> <Gold.Chemscore.DEClash>
0.0456

> <Gold.Chemscore.DEInternal>
0.2761

> <Gold.Chemscore.Rot>
2.1797

> <Gold.Chemscore.Internal.Correction>
   9.000000E+99

> <Gold.Chemscore.Hbonds>
donor molecule, donor type, donor heavy atom, donor atom, acceptor molecule, acceptor atom, score
      P1  H 10785 10796       L1     8  0.79

> <Gold.Chemscore.Hbond.Weighted>
-3.1109

> <Gold.Chemscore.Metal.Weighted>
-0.0000

> <Gold.Chemscore.Lipo.Weighted>
-9.9968

> <Gold.Chemscore.Internal_Hbond.Weighted>
0.0000

> <Gold.Chemscore.DEClash.Weighted>
0.0456

> <Gold.Chemscore.DEInternal.Weighted>
0.2761

> <Gold.Chemscore.Rot.Weighted>
5.5799

> <Gold.Chemscore.Internal.Correction.Weighted>
   9.000000E+99

> <Gold.Protein.RotatedTorsions>
[ 6907 6896 6895 6894 ] final  124.26 input  -60.11 | X-H torsion
[ 7974 7965 7964 7962 ] final   78.99 input  175.53 | X-H torsion
[ 8008 7997 7996 7995 ] final   97.99 input   59.86 | X-H torsion
[ 10167 10162 10161 10158 ] final  -91.60 input  -65.29 | X-H torsion
[ 10718 10713 10712 10709 ] final  -60.64 input   66.30 | X-H torsion
[ 10763 10752 10751 10750 ] final   31.19 input  -60.55 | X-H torsion
[ 11005 11000 10999 10996 ] final    1.95 input  -57.11 | X-H torsion

> <Gold.Protein.ActiveResidues>
 VAL166  LYS551  ARG553  GLY616  TRP617  ASP618  TYR619  PRO620  LYS621  CYS622 
 ASP623  PHE694  ASN695  SER759  ASP760  ASP761  ALA762  ILE779  LEU786  VAL792 
 PHE793  MET794  SER795  GLU796  ALA797  LYS798  CYS799  TRP800  GLU811  SER814 

> <Gold.Protein.RotatedAtoms>
  152.4093  133.6937  159.6383 H   0  0  0  0  0  0  0  0  0  0  0  0  # atno 6907 bound_to 6896
  150.7974  133.8653  159.3252 H   0  0  0  0  0  0  0  0  0  0  0  0  # atno 6908 bound_to 6896
  151.6400  135.1015  160.0191 H   0  0  0  0  0  0  0  0  0  0  0  0  # atno 6909 bound_to 6896
  145.6699  139.2494  143.1874 H   0  0  0  0  0  0  0  0  0  0  0  0  # atno 7974 bound_to 7965
  156.0958  140.3250  155.7876 H   0  0  0  0  0  0  0  0  0  0  0  0  # atno 8008 bound_to 7997
  155.4920  140.0562  157.2969 H   0  0  0  0  0  0  0  0  0  0  0  0  # atno 8009 bound_to 7997
  154.4666  140.1992  156.0119 H   0  0  0  0  0  0  0  0  0  0  0  0  # atno 8010 bound_to 7997
  140.3432  143.2930  151.9811 H   0  0  0  0  0  0  0  0  0  0  0  0  # atno 10167 bound_to 10162
  156.0977  130.4190  150.0882 H   0  0  0  0  0  0  0  0  0  0  0  0  # atno 10718 bound_to 10713
  153.0329  135.6445  154.1161 H   0  0  0  0  0  0  0  0  0  0  0  0  # atno 10763 bound_to 10752
  154.0880  135.2868  155.3279 H   0  0  0  0  0  0  0  0  0  0  0  0  # atno 10764 bound_to 10752
  154.6484  135.5434  153.7936 H   0  0  0  0  0  0  0  0  0  0  0  0  # atno 10765 bound_to 10752
  140.6097  133.9759  155.8171 H   0  0  0  0  0  0  0  0  0  0  0  0  # atno 11005 bound_to 11000
  146.1054  140.7494  142.9529 LP  0  0  0  0  0  0  0  0  0  0  0  0  # atno 17320 bound_to 7965
  144.7060  140.3853  143.7118 LP  0  0  0  0  0  0  0  0  0  0  0  0  # atno 17321 bound_to 7965
  139.4837  144.6139  151.7383 LP  0  0  0  0  0  0  0  0  0  0  0  0  # atno 17342 bound_to 10162
  140.5289  144.0762  150.6047 LP  0  0  0  0  0  0  0  0  0  0  0  0  # atno 17343 bound_to 10162
  156.8877  130.9578  151.3592 LP  0  0  0  0  0  0  0  0  0  0  0  0  # atno 17370 bound_to 10713
  157.6141  130.8605  149.8999 LP  0  0  0  0  0  0  0  0  0  0  0  0  # atno 17371 bound_to 10713
  141.0816  134.0053  157.3377 LP  0  0  0  0  0  0  0  0  0  0  0  0  # atno 17394 bound_to 11000
  139.9197  135.0199  156.8018 LP  0  0  0  0  0  0  0  0  0  0  0  0  # atno 17395 bound_to 11000

$$$$
