AV-unprocessed.smi:1305|AV-procd|sdf|5433|dock5
  -GOLD-   22720 4593D 1   1.00000     0.00000
 Structure written by MMmdl.
 32 33  0  0  0  0  0  0  0  0  1 V2000
  152.5008  144.6878  158.1706 C   0  0  0  0  0  0  0  0  0  0  0  0
  151.2801  143.9649  158.7497 C   0  0  0  0  0  0  0  0  0  0  0  0
  151.5881  142.5157  159.1455 C   0  0  0  0  0  0  0  0  0  0  0  0
  151.6438  141.4297  157.6898 S   0  0  0  0  0  0  0  0  0  0  0  0
  149.9425  141.4656  157.2021 C   0  0  0  0  0  0  0  0  0  0  0  0
  148.9527  141.9723  157.9442 N   0  0  0  0  0  0  0  0  0  0  0  0
  147.8026  141.7861  157.2126 N   0  0  0  0  0  0  0  0  0  0  0  0
  148.1953  141.2000  156.0804 C   0  0  0  0  0  0  0  0  0  0  0  0
  147.2502  140.7789  154.9994 C   0  0  0  0  0  0  0  0  0  0  0  0
  147.5479  141.0728  153.5458 C   0  0  0  0  0  0  0  0  0  0  0  0
  146.4210  141.7916  154.2391 C   0  0  0  0  0  0  0  0  0  0  0  0
  149.5224  140.9615  156.0212 N   0  0  0  0  0  0  0  0  0  0  0  0
  150.2936  140.3184  154.9624 C   0  0  0  0  0  0  0  0  0  0  0  0
  149.8791  138.8593  154.7517 C   0  0  0  0  0  0  0  0  0  0  0  0
  149.4913  138.4972  153.5259 N   0  0  0  0  0  0  0  0  0  0  0  0
  149.9210  138.0621  155.6859 O   0  0  0  0  0  0  0  0  0  0  0  0
  152.2515  145.7129  157.8963 H   0  0  0  0  0  0  0  0  0  0  0  0
  152.8691  144.1843  157.2765 H   0  0  0  0  0  0  0  0  0  0  0  0
  153.3157  144.7256  158.8939 H   0  0  0  0  0  0  0  0  0  0  0  0
  150.9180  144.5126  159.6203 H   0  0  0  0  0  0  0  0  0  0  0  0
  150.4726  143.9794  158.0170 H   0  0  0  0  0  0  0  0  0  0  0  0
  152.5468  142.4683  159.6630 H   0  0  0  0  0  0  0  0  0  0  0  0
  150.8256  142.1483  159.8331 H   0  0  0  0  0  0  0  0  0  0  0  0
  146.7860  139.8255  155.2438 H   0  0  0  0  0  0  0  0  0  0  0  0
  148.4397  141.6521  153.3160 H   0  0  0  0  0  0  0  0  0  0  0  0
  147.2881  140.3074  152.8175 H   0  0  0  0  0  0  0  0  0  0  0  0
  145.4051  141.5088  153.9722 H   0  0  0  0  0  0  0  0  0  0  0  0
  146.5668  142.8458  154.4655 H   0  0  0  0  0  0  0  0  0  0  0  0
  150.1739  140.8738  154.0321 H   0  0  0  0  0  0  0  0  0  0  0  0
  151.3535  140.3688  155.2149 H   0  0  0  0  0  0  0  0  0  0  0  0
  149.2104  137.5440  153.3457 H   0  0  0  0  0  0  0  0  0  0  0  0
  149.4807  139.1798  152.7819 H   0  0  0  0  0  0  0  0  0  0  0  0
  1  2  1  0  0  0  0
  1 17  1  0  0  0  0
  1 18  1  0  0  0  0
  1 19  1  0  0  0  0
  2  3  1  0  0  0  0
  2 20  1  0  0  0  0
  2 21  1  0  0  0  0
  3  4  1  0  0  0  0
  3 22  1  0  0  0  0
  3 23  1  0  0  0  0
  4  5  1  0  0  0  0
  5 12  1  0  0  0  0
  5  6  2  0  0  0  0
  6  7  1  0  0  0  0
  7  8  2  0  0  0  0
  8  9  1  0  0  0  0
  8 12  1  0  0  0  0
  9 11  1  0  0  0  0
  9 10  1  0  0  0  0
  9 24  1  0  0  0  0
 10 11  1  0  0  0  0
 10 25  1  0  0  0  0
 10 26  1  0  0  0  0
 11 27  1  0  0  0  0
 11 28  1  0  0  0  0
 12 13  1  0  0  0  0
 13 14  1  0  0  0  0
 13 29  1  0  0  0  0
 13 30  1  0  0  0  0
 14 15  1  0  0  0  0
 14 16  2  0  0  0  0
 15 31  1  0  0  0  0
 15 32  1  0  0  0  0
M  END
> <s_m_source_file>
AV-unprocessed.smi

> <i_m_source_file_index>
1305

> <i_lp_mmshare_version>
43012

> <i_f3d_flags>
0

> <s_epik_input>
W0NIM11bQ0gyXVtDSDJdU2Mxbm5jKFtDSF0yW0NIMl1bQ0gyXTIpbjFbQ0gyXUMoPU8pW05IMl0=

> <s_epik_cmdline>
J2VwaWtfcHl0aG9uJywgJy1waCcsICc3LjAnLCAnLXRuJywgJzgnLCAnLW1hJywgJzIwMCcsICctbWV0YWxfYmluZGluZycsICctaW1hZScsICc8aW5maWxlLm1hZT4nLCAnLW9tYWUnLCAnPG91dGZpbGUubWFlPic=

> <r_lp_tautomer_probability>
1

> <r_epik_Ionization_Penalty>
4.21319e-06

> <r_epik_Ionization_Penalty_Charging>
0

> <r_epik_Ionization_Penalty_Neutral>
4.21319e-06

> <r_epik_State_Penalty>
-0

> <r_epik_Charging_Adjusted_Penalty>
0

> <i_epik_Tot_Q>
0

> <i_epik_Tot_abs_Q>
0

> <r_epik_Metal_State_Penalty>
-0

> <b_epik_Metal_Only>
0

> <s_lp_Force_Field>
OPLS_2005

> <r_lp_Energy>
5.08374

> <b_lp_Chiralities_Consistent>
1

> <s_lp_Variant>
AV-unprocessed.smi:1305-1

> <Gold.Version>
5.8.1

> <Gold.Id.Protein>
6NUR|6NUR_protein|mol2

> <Gold.PLP.Fitness>
35.5857

> <Gold.PLP.PLP>
-30.2205

> <Gold.PLP.part.hbond>
-2.0000

> <Gold.PLP.part.metal>
0.0000

> <Gold.PLP.part.buried>
-3.5522

> <Gold.PLP.part.nonpolar>
-25.7756

> <Gold.PLP.part.repulsive>
0.4250

> <Gold.PLP.ligand.clash>
0.0000

> <Gold.PLP.ligand.torsion>
0.3795

> <Gold.PLP.Chemscore.Hbond>
1.9920

> <Gold.PLP.Chemscore.CHOScore>
0.0000

> <Gold.PLP.Chemscore.Metal>
0.0000

> <Gold.Chemscore.Hbonds>
donor molecule, donor type, donor heavy atom, donor atom, acceptor molecule, acceptor atom, score
      L1  H    15    31       P1  7948  0.82
      L1  H    15    32       P1  7957  1.00

> <Gold.PLP.Chemscore.Internal.Correction>
0.1483

> <Gold.Rescore>
     Score         DG    S(hbond)    S(metal)    S(lipo)     H(rot)  DE(clash)    DE(int)     intcor
     11.41     -13.25       1.88        0.00      68.91       2.57       1.27       0.56       ----

> <Gold.Chemscore.Fitness>
11.4128

> <Gold.Chemscore.DG>
-13.2452

> <Gold.Chemscore.ZeroCoef>
-5.4800

> <Gold.Chemscore.Hbond>
1.8800

> <Gold.Chemscore.Metal>
0.0000

> <Gold.Chemscore.Lipo>
68.9145

> <Gold.Chemscore.Internal_Hbond>
0.0000

> <Gold.Chemscore.DEClash>
1.2732

> <Gold.Chemscore.DEInternal>
0.5592

> <Gold.Chemscore.Rot>
2.5691

> <Gold.Chemscore.Internal.Correction>
   9.000000E+99

> <Gold.Chemscore.Hbonds>
donor molecule, donor type, donor heavy atom, donor atom, acceptor molecule, acceptor atom, score
      L1  H    15    31       P1  7948  0.79
      L1  H    15    32       P1  7957  0.99

> <Gold.Chemscore.Hbond.Weighted>
-6.2792

> <Gold.Chemscore.Metal.Weighted>
-0.0000

> <Gold.Chemscore.Lipo.Weighted>
-8.0630

> <Gold.Chemscore.Internal_Hbond.Weighted>
0.0000

> <Gold.Chemscore.DEClash.Weighted>
1.2732

> <Gold.Chemscore.DEInternal.Weighted>
0.5592

> <Gold.Chemscore.Rot.Weighted>
6.5770

> <Gold.Chemscore.Internal.Correction.Weighted>
   9.000000E+99

> <Gold.Protein.RotatedTorsions>
[ 6907 6896 6895 6894 ] final   17.10 input  -60.11 | X-H torsion
[ 7974 7965 7964 7962 ] final -135.39 input  175.53 | X-H torsion
[ 8008 7997 7996 7995 ] final  -64.95 input   59.86 | X-H torsion
[ 10167 10162 10161 10158 ] final -157.92 input  -65.29 | X-H torsion
[ 10718 10713 10712 10709 ] final  -81.14 input   66.30 | X-H torsion
[ 10763 10752 10751 10750 ] final  158.61 input  -60.55 | X-H torsion
[ 11005 11000 10999 10996 ] final  116.52 input  -57.11 | X-H torsion

> <Gold.Protein.ActiveResidues>
 VAL166  LYS551  ARG553  GLY616  TRP617  ASP618  TYR619  PRO620  LYS621  CYS622 
 ASP623  PHE694  ASN695  SER759  ASP760  ASP761  ALA762  ILE779  LEU786  VAL792 
 PHE793  MET794  SER795  GLU796  ALA797  LYS798  CYS799  TRP800  GLU811  SER814 

> <Gold.Protein.RotatedAtoms>
  151.8444  135.0579  160.0451 H   0  0  0  0  0  0  0  0  0  0  0  0  # atno 6907 bound_to 6896
  152.2784  133.5443  159.5491 H   0  0  0  0  0  0  0  0  0  0  0  0  # atno 6908 bound_to 6896
  150.7179  134.0514  159.3842 H   0  0  0  0  0  0  0  0  0  0  0  0  # atno 6909 bound_to 6896
  144.9018  140.6781  143.5080 H   0  0  0  0  0  0  0  0  0  0  0  0  # atno 7974 bound_to 7965
  154.4642  140.0943  156.6975 H   0  0  0  0  0  0  0  0  0  0  0  0  # atno 8008 bound_to 7997
  155.4906  140.3470  155.4336 H   0  0  0  0  0  0  0  0  0  0  0  0  # atno 8009 bound_to 7997
  156.0926  140.1401  156.9561 H   0  0  0  0  0  0  0  0  0  0  0  0  # atno 8010 bound_to 7997
  139.6732  143.9708  152.2296 H   0  0  0  0  0  0  0  0  0  0  0  0  # atno 10167 bound_to 10162
  156.0056  130.4595  150.3907 H   0  0  0  0  0  0  0  0  0  0  0  0  # atno 10718 bound_to 10713
  154.2188  135.2783  155.2932 H   0  0  0  0  0  0  0  0  0  0  0  0  # atno 10763 bound_to 10752
  154.5719  135.5616  153.7106 H   0  0  0  0  0  0  0  0  0  0  0  0  # atno 10764 bound_to 10752
  153.0046  135.6323  154.2327 H   0  0  0  0  0  0  0  0  0  0  0  0  # atno 10765 bound_to 10752
  139.9044  134.9599  156.7211 H   0  0  0  0  0  0  0  0  0  0  0  0  # atno 11005 bound_to 11000
  145.3603  139.1683  143.4387 LP  0  0  0  0  0  0  0  0  0  0  0  0  # atno 17320 bound_to 7965
  146.3112  140.3664  142.8670 LP  0  0  0  0  0  0  0  0  0  0  0  0  # atno 17321 bound_to 7965
  139.9478  144.6640  150.8202 LP  0  0  0  0  0  0  0  0  0  0  0  0  # atno 17342 bound_to 10162
  140.7626  143.3202  151.2640 LP  0  0  0  0  0  0  0  0  0  0  0  0  # atno 17343 bound_to 10162
  157.1982  131.0431  151.2664 LP  0  0  0  0  0  0  0  0  0  0  0  0  # atno 17370 bound_to 10713
  157.4000  130.7328  149.6760 LP  0  0  0  0  0  0  0  0  0  0  0  0  # atno 17371 bound_to 10713
  140.7000  133.9315  155.8018 LP  0  0  0  0  0  0  0  0  0  0  0  0  # atno 17394 bound_to 11000
  141.0379  134.0664  157.3938 LP  0  0  0  0  0  0  0  0  0  0  0  0  # atno 17395 bound_to 11000

$$$$
