AV-unprocessed.smi:240|AV-procd|sdf|1830|dock6
  -GOLD-   2262020433D 1   1.00000     0.00000
 Structure written by MMmdl.
 55 59  0  0  0  0  0  0  0  0  1 V2000
  150.1131  139.7544  153.7837 O   0  0  0  0  0  0  0  0  0  0  0  0
  148.9560  139.6453  154.5925 C   0  0  2  0  0  0  0  0  0  0  0  0
  147.7379  140.0500  153.7556 C   0  0  0  0  0  0  0  0  0  0  0  0
  147.5794  141.5633  153.9425 C   0  0  0  0  0  0  0  0  0  0  0  0
  148.5698  141.9647  155.0423 C   0  0  0  0  0  0  0  0  0  0  0  0
  148.9823  140.6628  155.7550 C   0  0  2  0  0  0  0  0  0  0  0  0
  150.2907  140.7588  156.6118 C   0  0  1  0  0  0  0  0  0  0  0  0
  150.5556  142.2289  157.0339 C   0  0  0  0  0  0  0  0  0  0  0  0
  151.7160  142.3340  157.8492 O   0  0  0  0  0  0  0  0  0  0  0  0
  151.5748  141.6070  159.0591 C   0  0  0  0  0  0  0  0  0  0  0  0
  151.4062  140.1245  158.7138 C   0  0  0  0  0  0  0  0  0  0  0  0
  150.2581  139.9331  157.8320 N   0  0  0  0  0  0  0  0  0  0  0  0
  150.0052  138.6151  157.6828 C   0  0  0  0  0  0  0  0  0  0  0  0
  149.3334  137.9981  158.6855 N   0  0  0  0  0  0  0  0  0  0  0  0
  149.0440  136.6968  158.5918 C   0  0  0  0  0  0  0  0  0  0  0  0
  149.3307  135.8462  157.6036 N   0  0  0  0  0  0  0  0  0  0  0  0
  150.0211  136.4621  156.6012 C   0  0  0  0  0  0  0  0  0  0  0  0
  150.4021  137.8325  156.5617 C   0  0  0  0  0  0  0  0  0  0  0  0
  151.0909  138.1008  155.3852 N   0  0  0  0  0  0  0  0  0  0  0  0
  151.1114  136.9543  154.7618 C   0  0  0  0  0  0  0  0  0  0  0  0
  150.4939  135.9151  155.4211 N   0  0  0  0  0  0  0  0  0  0  0  0
  150.3657  134.5437  154.9521 C   0  0  0  0  0  0  0  0  0  0  0  0
  148.9272  134.1680  154.5275 C   0  0  1  0  0  0  0  0  0  0  0  0
  148.2652  135.3307  154.0592 O   0  0  0  0  0  0  0  0  0  0  0  0
  148.8550  133.0966  153.4432 C   0  0  0  0  0  0  0  0  0  0  0  0
  147.5602  132.3669  153.7721 C   0  0  0  0  0  0  0  0  0  0  0  0
  147.5810  132.3235  155.1884 O   0  0  0  0  0  0  0  0  0  0  0  0
  148.0917  133.5615  155.6728 C   0  0  0  0  0  0  0  0  0  0  0  0
  149.8772  139.5510  152.8911 H   0  0  0  0  0  0  0  0  0  0  0  0
  148.8534  138.6147  154.9271 H   0  0  0  0  0  0  0  0  0  0  0  0
  147.8291  139.7638  152.7069 H   0  0  0  0  0  0  0  0  0  0  0  0
  146.8515  139.5486  154.1466 H   0  0  0  0  0  0  0  0  0  0  0  0
  147.7917  142.1028  153.0189 H   0  0  0  0  0  0  0  0  0  0  0  0
  146.5559  141.8030  154.2332 H   0  0  0  0  0  0  0  0  0  0  0  0
  149.4438  142.4277  154.5819 H   0  0  0  0  0  0  0  0  0  0  0  0
  148.1338  142.6943  155.7257 H   0  0  0  0  0  0  0  0  0  0  0  0
  148.1641  140.4087  156.4314 H   0  0  0  0  0  0  0  0  0  0  0  0
  151.1399  140.4410  156.0064 H   0  0  0  0  0  0  0  0  0  0  0  0
  150.7264  142.8605  156.1628 H   0  0  0  0  0  0  0  0  0  0  0  0
  149.6952  142.6436  157.5623 H   0  0  0  0  0  0  0  0  0  0  0  0
  152.4655  141.7537  159.6700 H   0  0  0  0  0  0  0  0  0  0  0  0
  150.7247  141.9786  159.6337 H   0  0  0  0  0  0  0  0  0  0  0  0
  152.3128  139.7596  158.2296 H   0  0  0  0  0  0  0  0  0  0  0  0
  151.2760  139.5473  159.6305 H   0  0  0  0  0  0  0  0  0  0  0  0
  148.5035  136.2772  159.4275 H   0  0  0  0  0  0  0  0  0  0  0  0
  151.5825  136.8333  153.7970 H   0  0  0  0  0  0  0  0  0  0  0  0
  151.0529  134.4023  154.1167 H   0  0  0  0  0  0  0  0  0  0  0  0
  150.7097  133.8783  155.7451 H   0  0  0  0  0  0  0  0  0  0  0  0
  148.4387  135.4220  153.1346 H   0  0  0  0  0  0  0  0  0  0  0  0
  148.8828  133.4926  152.4270 H   0  0  0  0  0  0  0  0  0  0  0  0
  149.6835  132.3957  153.5496 H   0  0  0  0  0  0  0  0  0  0  0  0
  146.6913  132.9321  153.4315 H   0  0  0  0  0  0  0  0  0  0  0  0
  147.5163  131.3671  153.3396 H   0  0  0  0  0  0  0  0  0  0  0  0
  148.6881  133.3727  156.5660 H   0  0  0  0  0  0  0  0  0  0  0  0
  147.2637  134.2091  155.9657 H   0  0  0  0  0  0  0  0  0  0  0  0
  1  2  1  0  0  0  0
  1 29  1  0  0  0  0
  2  6  1  0  0  0  0
  2  3  1  0  0  0  0
  2 30  1  0  0  0  0
  3  4  1  0  0  0  0
  3 31  1  0  0  0  0
  3 32  1  0  0  0  0
  4  5  1  0  0  0  0
  4 33  1  0  0  0  0
  4 34  1  0  0  0  0
  5  6  1  0  0  0  0
  5 35  1  0  0  0  0
  5 36  1  0  0  0  0
  6  7  1  0  0  0  0
  6 37  1  0  0  0  0
  7 12  1  0  0  0  0
  7  8  1  0  0  0  0
  7 38  1  0  0  0  0
  8  9  1  0  0  0  0
  8 39  1  0  0  0  0
  8 40  1  0  0  0  0
  9 10  1  0  0  0  0
 10 11  1  0  0  0  0
 10 41  1  0  0  0  0
 10 42  1  0  0  0  0
 11 12  1  0  0  0  0
 11 43  1  0  0  0  0
 11 44  1  0  0  0  0
 12 13  1  0  0  0  0
 13 18  1  0  0  0  0
 13 14  2  0  0  0  0
 14 15  1  0  0  0  0
 15 16  2  0  0  0  0
 15 45  1  0  0  0  0
 16 17  1  0  0  0  0
 17 21  1  0  0  0  0
 17 18  2  0  0  0  0
 18 19  1  0  0  0  0
 19 20  2  0  0  0  0
 20 21  1  0  0  0  0
 20 46  1  0  0  0  0
 21 22  1  0  0  0  0
 22 23  1  0  0  0  0
 22 47  1  0  0  0  0
 22 48  1  0  0  0  0
 23 28  1  0  0  0  0
 23 24  1  0  0  0  0
 23 25  1  0  0  0  0
 24 49  1  0  0  0  0
 25 26  1  0  0  0  0
 25 50  1  0  0  0  0
 25 51  1  0  0  0  0
 26 27  1  0  0  0  0
 26 52  1  0  0  0  0
 26 53  1  0  0  0  0
 27 28  1  0  0  0  0
 28 54  1  0  0  0  0
 28 55  1  0  0  0  0
M  END
> <s_m_source_file>
AV-unprocessed.smi

> <i_m_source_file_index>
240

> <i_lp_mmshare_version>
43012

> <i_f3d_flags>
0

> <s_epik_input>
W09IXVtDQEBIXTFbQ0gyXVtDSDJdW0NIMl1bQ0BIXTFbQ0BASF0yW0NIMl1PW0NIMl1bQ0gyXU4yYyhuW2NIXW4zKWMoYzM0KW5bY0hdbjRbQ0gyXVtDQEBdNShbT0hdKVtDSDJdW0NIMl1PW0NIMl01

> <s_epik_cmdline>
J2VwaWtfcHl0aG9uJywgJy1waCcsICc3LjAnLCAnLXRuJywgJzgnLCAnLW1hJywgJzIwMCcsICctbWV0YWxfYmluZGluZycsICctaW1hZScsICc8aW5maWxlLm1hZT4nLCAnLW9tYWUnLCAnPG91dGZpbGUubWFlPic=

> <r_lp_tautomer_probability>
1

> <r_epik_Ionization_Penalty>
0.000130618

> <r_epik_Ionization_Penalty_Charging>
0

> <r_epik_Ionization_Penalty_Neutral>
0.000130618

> <r_epik_State_Penalty>
-0

> <r_epik_Charging_Adjusted_Penalty>
0

> <i_epik_Tot_Q>
0

> <i_epik_Tot_abs_Q>
0

> <r_epik_Metal_State_Penalty>
-0

> <b_epik_Metal_Only>
0

> <s_lp_Force_Field>
OPLS_2005

> <r_lp_Energy>
63.9037

> <b_lp_Chiralities_Consistent>
1

> <s_lp_Variant>
AV-unprocessed.smi:240-7

> <Gold.Version>
5.8.1

> <Gold.Id.Protein>
6NUR|6NUR_protein|mol2

> <Gold.PLP.Fitness>
42.4440

> <Gold.PLP.PLP>
-35.0343

> <Gold.PLP.part.hbond>
-2.8909

> <Gold.PLP.part.metal>
0.0000

> <Gold.PLP.part.buried>
-2.9249

> <Gold.PLP.part.nonpolar>
-29.4210

> <Gold.PLP.part.repulsive>
0.0913

> <Gold.PLP.ligand.clash>
0.0000

> <Gold.PLP.ligand.torsion>
2.3001

> <Gold.PLP.Chemscore.Hbond>
2.8960

> <Gold.PLP.Chemscore.CHOScore>
1.0000

> <Gold.PLP.Chemscore.Metal>
0.0000

> <Gold.Chemscore.Hbonds>
donor molecule, donor type, donor heavy atom, donor atom, acceptor molecule, acceptor atom, score
      L1  H     1    29       P1  7957  1.00
      L1  H    24    49       P1  7948  1.00
      P1  H  7989  7998       L1     1  0.85
      L1  C    20    46       P1  7949  1.00

> <Gold.PLP.Chemscore.Internal.Correction>
0.3219

> <Gold.Rescore>
     Score         DG    S(hbond)    S(metal)    S(lipo)     H(rot)  DE(clash)    DE(int)     intcor
      7.76     -15.06       2.30        0.00      82.00       3.00       1.46       5.85       ----

> <Gold.Chemscore.Fitness>
7.7556

> <Gold.Chemscore.DG>
-15.0580

> <Gold.Chemscore.ZeroCoef>
-5.4800

> <Gold.Chemscore.Hbond>
2.2976

> <Gold.Chemscore.Metal>
0.0000

> <Gold.Chemscore.Lipo>
82.0011

> <Gold.Chemscore.Internal_Hbond>
0.0000

> <Gold.Chemscore.DEClash>
1.4570

> <Gold.Chemscore.DEInternal>
5.8455

> <Gold.Chemscore.Rot>
3.0039

> <Gold.Chemscore.Internal.Correction>
   9.000000E+99

> <Gold.Chemscore.Hbonds>
donor molecule, donor type, donor heavy atom, donor atom, acceptor molecule, acceptor atom, score
      L1  H     1    29       P1  7957  0.96
      L1  H    24    49       P1  7948  0.93
      P1  H  7989  7998       L1     1  0.19

> <Gold.Chemscore.Hbond.Weighted>
-7.6738

> <Gold.Chemscore.Metal.Weighted>
-0.0000

> <Gold.Chemscore.Lipo.Weighted>
-9.5941

> <Gold.Chemscore.Internal_Hbond.Weighted>
0.0000

> <Gold.Chemscore.DEClash.Weighted>
1.4570

> <Gold.Chemscore.DEInternal.Weighted>
5.8455

> <Gold.Chemscore.Rot.Weighted>
7.6899

> <Gold.Chemscore.Internal.Correction.Weighted>
   9.000000E+99

> <Gold.Protein.RotatedTorsions>
[ 6907 6896 6895 6894 ] final  -77.98 input  -60.11 | X-H torsion
[ 7974 7965 7964 7962 ] final  119.60 input  175.53 | X-H torsion
[ 8008 7997 7996 7995 ] final   93.36 input   59.86 | X-H torsion
[ 10167 10162 10161 10158 ] final  -74.56 input  -65.29 | X-H torsion
[ 10718 10713 10712 10709 ] final  -39.68 input   66.30 | X-H torsion
[ 10763 10752 10751 10750 ] final  149.18 input  -60.55 | X-H torsion
[ 11005 11000 10999 10996 ] final   58.12 input  -57.11 | X-H torsion

> <Gold.Protein.ActiveResidues>
 VAL166  LYS551  ARG553  GLY616  TRP617  ASP618  TYR619  PRO620  LYS621  CYS622 
 ASP623  PHE694  ASN695  SER759  ASP760  ASP761  ALA762  ILE779  LEU786  VAL792 
 PHE793  MET794  SER795  GLU796  ALA797  LYS798  CYS799  TRP800  GLU811  SER814 

> <Gold.Protein.RotatedAtoms>
  150.6984  134.4341  159.5261 H   0  0  0  0  0  0  0  0  0  0  0  0  # atno 6907 bound_to 6896
  152.2062  134.8540  160.0511 H   0  0  0  0  0  0  0  0  0  0  0  0  # atno 6908 bound_to 6896
  151.9442  133.3612  159.4013 H   0  0  0  0  0  0  0  0  0  0  0  0  # atno 6909 bound_to 6896
  145.1411  139.3267  143.4615 H   0  0  0  0  0  0  0  0  0  0  0  0  # atno 7974 bound_to 7965
  156.0459  140.3314  155.7296 H   0  0  0  0  0  0  0  0  0  0  0  0  # atno 8008 bound_to 7997
  155.5675  140.0624  157.2832 H   0  0  0  0  0  0  0  0  0  0  0  0  # atno 8009 bound_to 7997
  154.4413  140.1866  156.0833 H   0  0  0  0  0  0  0  0  0  0  0  0  # atno 8010 bound_to 7997
  140.5017  143.2360  151.7742 H   0  0  0  0  0  0  0  0  0  0  0  0  # atno 10167 bound_to 10162
  156.2897  130.4227  149.8251 H   0  0  0  0  0  0  0  0  0  0  0  0  # atno 10718 bound_to 10713
  154.0669  135.2869  155.3315 H   0  0  0  0  0  0  0  0  0  0  0  0  # atno 10763 bound_to 10752
  154.6772  135.5277  153.8218 H   0  0  0  0  0  0  0  0  0  0  0  0  # atno 10764 bound_to 10752
  153.0500  135.6572  154.0854 H   0  0  0  0  0  0  0  0  0  0  0  0  # atno 10765 bound_to 10752
  140.0401  134.5885  155.9393 H   0  0  0  0  0  0  0  0  0  0  0  0  # atno 11005 bound_to 11000
  146.3505  140.1449  142.8593 LP  0  0  0  0  0  0  0  0  0  0  0  0  # atno 17320 bound_to 7965
  145.0531  140.9032  143.4983 LP  0  0  0  0  0  0  0  0  0  0  0  0  # atno 17321 bound_to 7965
  139.4873  144.4513  151.9650 LP  0  0  0  0  0  0  0  0  0  0  0  0  # atno 17342 bound_to 10162
  140.3602  144.2982  150.5934 LP  0  0  0  0  0  0  0  0  0  0  0  0  # atno 17343 bound_to 10162
  156.5668  130.8407  151.3345 LP  0  0  0  0  0  0  0  0  0  0  0  0  # atno 17370 bound_to 10713
  157.7339  130.9737  150.2001 LP  0  0  0  0  0  0  0  0  0  0  0  0  # atno 17371 bound_to 10713
  141.1878  133.6561  156.5299 LP  0  0  0  0  0  0  0  0  0  0  0  0  # atno 17394 bound_to 11000
  140.4083  134.7295  157.4821 LP  0  0  0  0  0  0  0  0  0  0  0  0  # atno 17395 bound_to 11000

$$$$
