AV-unprocessed.smi:2861|AV-procd|sdf|11007|dock7
  -GOLD-   2272015463D 1   1.00000     0.00000
 Structure written by MMmdl.
 33 35  0  0  0  0  0  0  0  0  1 V2000
  149.2526  138.6596  154.5500 O   0  0  0  0  0  0  0  0  0  0  0  0
  149.8035  139.7557  154.4376 C   0  0  0  0  0  0  0  0  0  0  0  0
  151.2723  139.9341  154.8390 C   0  0  0  0  0  0  0  0  0  0  0  0
  151.4102  140.8979  155.9834 C   0  0  0  0  0  0  0  0  0  0  0  0
  150.8854  142.1651  156.0646 C   0  0  0  0  0  0  0  0  0  0  0  0
  151.2916  142.9456  157.5686 S   0  0  0  0  0  0  0  0  0  0  0  0
  152.1670  141.4929  158.0479 C   0  0  0  0  0  0  0  0  0  0  0  0
  152.8510  141.3626  159.2936 N   0  0  0  0  0  0  0  0  0  0  0  0
  152.5659  142.2565  160.4096 C   0  0  0  0  0  0  0  0  0  0  0  0
  153.6324  141.9603  161.4697 C   0  0  0  0  0  0  0  0  0  0  0  0
  154.2616  140.6328  161.0520 C   0  0  0  0  0  0  0  0  0  0  0  0
  153.7785  140.4440  159.6236 C   0  0  0  0  0  0  0  0  0  0  0  0
  154.2148  139.5407  158.9106 O   0  0  0  0  0  0  0  0  0  0  0  0
  152.1314  140.5264  157.1228 N   0  0  0  0  0  0  0  0  0  0  0  0
  149.1795  140.8502  153.9767 N   0  0  0  0  0  0  0  0  0  0  0  0
  147.8184  140.9115  153.5509 C   0  0  0  0  0  0  0  0  0  0  0  0
  147.2310  142.2782  153.2722 C   0  0  0  0  0  0  0  0  0  0  0  0
  146.8109  141.5212  154.5017 C   0  0  0  0  0  0  0  0  0  0  0  0
  151.7036  138.9690  155.1091 H   0  0  0  0  0  0  0  0  0  0  0  0
  151.8259  140.2848  153.9671 H   0  0  0  0  0  0  0  0  0  0  0  0
  150.2923  142.6874  155.3289 H   0  0  0  0  0  0  0  0  0  0  0  0
  152.5960  143.3030  160.1029 H   0  0  0  0  0  0  0  0  0  0  0  0
  151.5677  142.0426  160.7942 H   0  0  0  0  0  0  0  0  0  0  0  0
  154.3903  142.7449  161.4689 H   0  0  0  0  0  0  0  0  0  0  0  0
  153.2061  141.9158  162.4725 H   0  0  0  0  0  0  0  0  0  0  0  0
  155.3505  140.6578  161.1054 H   0  0  0  0  0  0  0  0  0  0  0  0
  153.8989  139.8093  161.6679 H   0  0  0  0  0  0  0  0  0  0  0  0
  149.7090  141.7085  153.9251 H   0  0  0  0  0  0  0  0  0  0  0  0
  147.4531  140.0998  152.9230 H   0  0  0  0  0  0  0  0  0  0  0  0
  147.8710  143.1473  153.4130 H   0  0  0  0  0  0  0  0  0  0  0  0
  146.5104  142.3577  152.4607 H   0  0  0  0  0  0  0  0  0  0  0  0
  145.8100  141.0945  154.5119 H   0  0  0  0  0  0  0  0  0  0  0  0
  147.1714  141.8844  155.4622 H   0  0  0  0  0  0  0  0  0  0  0  0
  1  2  2  0  0  0  0
  2  3  1  0  0  0  0
  2 15  1  0  0  0  0
  3  4  1  0  0  0  0
  3 19  1  0  0  0  0
  3 20  1  0  0  0  0
  4 14  1  0  0  0  0
  4  5  2  0  0  0  0
  5  6  1  0  0  0  0
  5 21  1  0  0  0  0
  6  7  1  0  0  0  0
  7  8  1  0  0  0  0
  7 14  2  0  0  0  0
  8 12  1  0  0  0  0
  8  9  1  0  0  0  0
  9 10  1  0  0  0  0
  9 22  1  0  0  0  0
  9 23  1  0  0  0  0
 10 11  1  0  0  0  0
 10 24  1  0  0  0  0
 10 25  1  0  0  0  0
 11 12  1  0  0  0  0
 11 26  1  0  0  0  0
 11 27  1  0  0  0  0
 12 13  2  0  0  0  0
 15 16  1  0  0  0  0
 15 28  1  0  0  0  0
 16 18  1  0  0  0  0
 16 17  1  0  0  0  0
 16 29  1  0  0  0  0
 17 18  1  0  0  0  0
 17 30  1  0  0  0  0
 17 31  1  0  0  0  0
 18 32  1  0  0  0  0
 18 33  1  0  0  0  0
M  END
> <s_m_source_file>
AV-unprocessed.smi

> <i_m_source_file_index>
2861

> <i_lp_mmshare_version>
43012

> <i_f3d_flags>
0

> <s_epik_input>
W0NIMl0xW0NIMl1bQ0hdMVtOSF1DKD1PKVtDSDJdYzJbY0hdc2MobjIpTjNbQ0gyXVtDSDJdW0NIMl1DMz1P

> <s_epik_cmdline>
J2VwaWtfcHl0aG9uJywgJy1waCcsICc3LjAnLCAnLXRuJywgJzgnLCAnLW1hJywgJzIwMCcsICctbWV0YWxfYmluZGluZycsICctaW1hZScsICc8aW5maWxlLm1hZT4nLCAnLW9tYWUnLCAnPG91dGZpbGUubWFlPic=

> <r_lp_tautomer_probability>
1

> <r_epik_Ionization_Penalty>
2.96745e-05

> <r_epik_Ionization_Penalty_Charging>
0

> <r_epik_Ionization_Penalty_Neutral>
2.96745e-05

> <r_epik_State_Penalty>
-0

> <r_epik_Charging_Adjusted_Penalty>
0

> <i_epik_Tot_Q>
0

> <i_epik_Tot_abs_Q>
0

> <r_epik_Metal_State_Penalty>
-0

> <b_epik_Metal_Only>
0

> <s_lp_Force_Field>
OPLS_2005

> <r_lp_Energy>
30.3521

> <b_lp_Chiralities_Consistent>
1

> <s_lp_Variant>
AV-unprocessed.smi:2861-1

> <Gold.Version>
5.8.1

> <Gold.Id.Protein>
6NUR|6NUR_protein|mol2

> <Gold.PLP.Fitness>
43.3689

> <Gold.PLP.PLP>
-38.1000

> <Gold.PLP.part.hbond>
-1.7996

> <Gold.PLP.part.metal>
0.0000

> <Gold.PLP.part.buried>
-3.6097

> <Gold.PLP.part.nonpolar>
-32.6844

> <Gold.PLP.part.repulsive>
0.3026

> <Gold.PLP.ligand.clash>
0.0086

> <Gold.PLP.ligand.torsion>
0.3642

> <Gold.PLP.Chemscore.Hbond>
1.0000

> <Gold.PLP.Chemscore.CHOScore>
0.9881

> <Gold.PLP.Chemscore.Metal>
0.0000

> <Gold.Chemscore.Hbonds>
donor molecule, donor type, donor heavy atom, donor atom, acceptor molecule, acceptor atom, score
      P1  H  7997  8010       L1    13  1.00
      L1  C     5    21       P1  8028  0.97

> <Gold.PLP.Chemscore.Internal.Correction>
0.0417

> <Gold.Rescore>
     Score         DG    S(hbond)    S(metal)    S(lipo)     H(rot)  DE(clash)    DE(int)     intcor
     12.11     -14.64       0.98        0.00      82.96       1.49       0.19       2.34       ----

> <Gold.Chemscore.Fitness>
12.1149

> <Gold.Chemscore.DG>
-14.6420

> <Gold.Chemscore.ZeroCoef>
-5.4800

> <Gold.Chemscore.Hbond>
0.9805

> <Gold.Chemscore.Metal>
0.0000

> <Gold.Chemscore.Lipo>
82.9609

> <Gold.Chemscore.Internal_Hbond>
0.0000

> <Gold.Chemscore.DEClash>
0.1897

> <Gold.Chemscore.DEInternal>
2.3374

> <Gold.Chemscore.Rot>
1.4920

> <Gold.Chemscore.Internal.Correction>
   9.000000E+99

> <Gold.Chemscore.Hbonds>
donor molecule, donor type, donor heavy atom, donor atom, acceptor molecule, acceptor atom, score
      P1  H  7997  8010       L1    13  0.94

> <Gold.Chemscore.Hbond.Weighted>
-3.2750

> <Gold.Chemscore.Metal.Weighted>
-0.0000

> <Gold.Chemscore.Lipo.Weighted>
-9.7064

> <Gold.Chemscore.Internal_Hbond.Weighted>
0.0000

> <Gold.Chemscore.DEClash.Weighted>
0.1897

> <Gold.Chemscore.DEInternal.Weighted>
2.3374

> <Gold.Chemscore.Rot.Weighted>
3.8194

> <Gold.Chemscore.Internal.Correction.Weighted>
   9.000000E+99

> <Gold.Protein.RotatedTorsions>
[ 6907 6896 6895 6894 ] final  -46.10 input  -60.11 | X-H torsion
[ 7974 7965 7964 7962 ] final   -8.93 input  175.53 | X-H torsion
[ 8008 7997 7996 7995 ] final   14.89 input   59.86 | X-H torsion
[ 10167 10162 10161 10158 ] final   99.41 input  -65.29 | X-H torsion
[ 10718 10713 10712 10709 ] final -143.33 input   66.30 | X-H torsion
[ 10763 10752 10751 10750 ] final  -53.18 input  -60.55 | X-H torsion
[ 11005 11000 10999 10996 ] final  144.31 input  -57.11 | X-H torsion

> <Gold.Protein.ActiveResidues>
 VAL166  LYS551  ARG553  GLY616  TRP617  ASP618  TYR619  PRO620  LYS621  CYS622 
 ASP623  PHE694  ASN695  SER759  ASP760  ASP761  ALA762  ILE779  LEU786  VAL792 
 PHE793  MET794  SER795  GLU796  ALA797  LYS798  CYS799  TRP800  GLU811  SER814 

> <Gold.Protein.RotatedAtoms>
  150.9149  134.8566  159.7449 H   0  0  0  0  0  0  0  0  0  0  0  0  # atno 6907 bound_to 6896
  152.4963  134.4304  159.9520 H   0  0  0  0  0  0  0  0  0  0  0  0  # atno 6908 bound_to 6896
  151.4343  133.3622  159.2808 H   0  0  0  0  0  0  0  0  0  0  0  0  # atno 6909 bound_to 6896
  146.2266  140.2542  142.8348 H   0  0  0  0  0  0  0  0  0  0  0  0  # atno 7974 bound_to 7965
  154.8549  140.2935  155.5575 H   0  0  0  0  0  0  0  0  0  0  0  0  # atno 8008 bound_to 7997
  156.3018  140.2489  156.3446 H   0  0  0  0  0  0  0  0  0  0  0  0  # atno 8009 bound_to 7997
  154.8981  140.0392  157.1866 H   0  0  0  0  0  0  0  0  0  0  0  0  # atno 8010 bound_to 7997
  139.7620  144.6951  151.0279 H   0  0  0  0  0  0  0  0  0  0  0  0  # atno 10167 bound_to 10162
  156.3566  130.7716  151.1877 H   0  0  0  0  0  0  0  0  0  0  0  0  # atno 10718 bound_to 10713
  154.1547  135.6484  153.4971 H   0  0  0  0  0  0  0  0  0  0  0  0  # atno 10763 bound_to 10752
  153.0127  135.5346  154.6772 H   0  0  0  0  0  0  0  0  0  0  0  0  # atno 10764 bound_to 10752
  154.6069  135.2949  155.0446 H   0  0  0  0  0  0  0  0  0  0  0  0  # atno 10765 bound_to 10752
  140.0622  134.9198  157.1204 H   0  0  0  0  0  0  0  0  0  0  0  0  # atno 11005 bound_to 11000
  144.9389  140.8056  143.5643 LP  0  0  0  0  0  0  0  0  0  0  0  0  # atno 17320 bound_to 7965
  145.2492  139.2039  143.4951 LP  0  0  0  0  0  0  0  0  0  0  0  0  # atno 17321 bound_to 7965
  140.7808  143.4686  151.0177 LP  0  0  0  0  0  0  0  0  0  0  0  0  # atno 17342 bound_to 10162
  139.8372  143.7611  152.3180 LP  0  0  0  0  0  0  0  0  0  0  0  0  # atno 17343 bound_to 10162
  157.7468  131.0412  150.4635 LP  0  0  0  0  0  0  0  0  0  0  0  0  # atno 17370 bound_to 10713
  156.4839  130.4080  149.6446 LP  0  0  0  0  0  0  0  0  0  0  0  0  # atno 17371 bound_to 10713
  140.3753  134.2346  155.7175 LP  0  0  0  0  0  0  0  0  0  0  0  0  # atno 17394 bound_to 11000
  141.1978  133.8051  157.0612 LP  0  0  0  0  0  0  0  0  0  0  0  0  # atno 17395 bound_to 11000

$$$$
