AV-unprocessed.smi:1408|AV-procd|sdf|5726|dock8
  -GOLD-   22720 5363D 1   1.00000     0.00000
 Structure written by MMmdl.
 41 42  0  0  0  0  0  0  0  0  1 V2000
  146.1213  134.1294  150.8597 C   0  0  0  0  0  0  0  0  0  0  0  0
  146.2944  132.7791  151.5364 C   0  0  0  0  0  0  0  0  0  0  0  0
  145.5629  131.6700  151.0606 C   0  0  0  0  0  0  0  0  0  0  0  0
  145.7234  130.4224  151.6874 C   0  0  0  0  0  0  0  0  0  0  0  0
  146.6147  130.3363  152.7705 C   0  0  0  0  0  0  0  0  0  0  0  0
  147.3177  131.3908  153.2313 N   0  0  0  0  0  0  0  0  0  0  0  0
  147.1744  132.6025  152.6379 C   0  0  0  0  0  0  0  0  0  0  0  0
  147.8830  133.7591  153.0715 N   0  0  0  0  0  0  0  0  0  0  0  0
  148.2742  134.0841  154.3166 C   0  0  0  0  0  0  0  0  0  0  0  0
  148.0889  133.4015  155.3245 O   0  0  0  0  0  0  0  0  0  0  0  0
  148.9052  135.2676  154.3329 N   0  0  0  0  0  0  0  0  0  0  0  0
  149.4395  135.9201  155.5251 C   0  0  0  0  0  0  0  0  0  0  0  0
  148.8110  137.3118  155.6849 C   0  0  0  0  0  0  0  0  0  0  0  0
  149.3888  138.0510  156.9048 C   0  0  0  0  0  0  0  0  0  0  0  0
  150.8636  138.1157  156.8573 N   0  0  0  0  0  0  0  0  0  0  0  0
  151.6541  139.5839  156.3583 S   0  0  0  0  0  0  0  0  0  0  0  0
  151.3044  140.7657  157.7237 C   0  0  0  0  0  0  0  0  0  0  0  0
  153.1025  139.3288  156.3318 O   0  0  0  0  0  0  0  0  0  0  0  0
  150.9770  140.0699  155.1463 O   0  0  0  0  0  0  0  0  0  0  0  0
  151.5315  136.8134  156.6582 C   0  0  0  0  0  0  0  0  0  0  0  0
  150.9683  136.0628  155.4381 C   0  0  0  0  0  0  0  0  0  0  0  0
  145.4051  134.0739  150.0393 H   0  0  0  0  0  0  0  0  0  0  0  0
  147.0712  134.4766  150.4523 H   0  0  0  0  0  0  0  0  0  0  0  0
  145.7574  134.8699  151.5725 H   0  0  0  0  0  0  0  0  0  0  0  0
  144.8857  131.7709  150.2252 H   0  0  0  0  0  0  0  0  0  0  0  0
  145.1779  129.5548  151.3472 H   0  0  0  0  0  0  0  0  0  0  0  0
  146.7682  129.3967  153.2806 H   0  0  0  0  0  0  0  0  0  0  0  0
  148.1114  134.4210  152.3451 H   0  0  0  0  0  0  0  0  0  0  0  0
  149.0154  135.7596  153.4585 H   0  0  0  0  0  0  0  0  0  0  0  0
  149.1840  135.3244  156.4039 H   0  0  0  0  0  0  0  0  0  0  0  0
  148.9747  137.9000  154.7824 H   0  0  0  0  0  0  0  0  0  0  0  0
  147.7300  137.2207  155.7963 H   0  0  0  0  0  0  0  0  0  0  0  0
  148.9661  139.0527  156.9766 H   0  0  0  0  0  0  0  0  0  0  0  0
  149.0976  137.5291  157.8170 H   0  0  0  0  0  0  0  0  0  0  0  0
  151.7670  141.7246  157.4911 H   0  0  0  0  0  0  0  0  0  0  0  0
  151.7212  140.3893  158.6562 H   0  0  0  0  0  0  0  0  0  0  0  0
  150.2298  140.9076  157.8255 H   0  0  0  0  0  0  0  0  0  0  0  0
  152.6077  136.9500  156.5555 H   0  0  0  0  0  0  0  0  0  0  0  0
  151.3834  136.2112  157.5553 H   0  0  0  0  0  0  0  0  0  0  0  0
  151.4341  135.0786  155.3756 H   0  0  0  0  0  0  0  0  0  0  0  0
  151.2404  136.5853  154.5216 H   0  0  0  0  0  0  0  0  0  0  0  0
  1  2  1  0  0  0  0
  1 22  1  0  0  0  0
  1 23  1  0  0  0  0
  1 24  1  0  0  0  0
  2  7  1  0  0  0  0
  2  3  2  0  0  0  0
  3  4  1  0  0  0  0
  3 25  1  0  0  0  0
  4  5  2  0  0  0  0
  4 26  1  0  0  0  0
  5  6  1  0  0  0  0
  5 27  1  0  0  0  0
  6  7  2  0  0  0  0
  7  8  1  0  0  0  0
  8  9  1  0  0  0  0
  8 28  1  0  0  0  0
  9 10  2  0  0  0  0
  9 11  1  0  0  0  0
 11 12  1  0  0  0  0
 11 29  1  0  0  0  0
 12 21  1  0  0  0  0
 12 13  1  0  0  0  0
 12 30  1  0  0  0  0
 13 14  1  0  0  0  0
 13 31  1  0  0  0  0
 13 32  1  0  0  0  0
 14 15  1  0  0  0  0
 14 33  1  0  0  0  0
 14 34  1  0  0  0  0
 15 16  1  0  0  0  0
 15 20  1  0  0  0  0
 16 17  1  0  0  0  0
 16 18  2  0  0  0  0
 16 19  2  0  0  0  0
 17 35  1  0  0  0  0
 17 36  1  0  0  0  0
 17 37  1  0  0  0  0
 20 21  1  0  0  0  0
 20 38  1  0  0  0  0
 20 39  1  0  0  0  0
 21 40  1  0  0  0  0
 21 41  1  0  0  0  0
M  END
> <s_m_source_file>
AV-unprocessed.smi

> <i_m_source_file_index>
1408

> <i_lp_mmshare_version>
43012

> <i_f3d_flags>
0

> <s_epik_input>
W0NIM11jMVtjSF1bY0hdW2NIXW5jMVtOSF1DKD1PKVtOSF1bQ0hdMltDSDJdW0NIMl1OKFMoPU8pKD1PKVtDSDNdKVtDSDJdW0NIMl0y

> <s_epik_cmdline>
J2VwaWtfcHl0aG9uJywgJy1waCcsICc3LjAnLCAnLXRuJywgJzgnLCAnLW1hJywgJzIwMCcsICctbWV0YWxfYmluZGluZycsICctaW1hZScsICc8aW5maWxlLm1hZT4nLCAnLW9tYWUnLCAnPG91dGZpbGUubWFlPic=

> <r_lp_tautomer_probability>
1

> <r_epik_Ionization_Penalty>
5.70787e-05

> <r_epik_Ionization_Penalty_Charging>
0

> <r_epik_Ionization_Penalty_Neutral>
5.70787e-05

> <r_epik_State_Penalty>
-0

> <r_epik_Charging_Adjusted_Penalty>
0

> <i_epik_Tot_Q>
0

> <i_epik_Tot_abs_Q>
0

> <r_epik_Metal_State_Penalty>
-0

> <b_epik_Metal_Only>
0

> <s_lp_Force_Field>
OPLS_2005

> <r_lp_Energy>
5.75517

> <b_lp_Chiralities_Consistent>
1

> <s_lp_Variant>
AV-unprocessed.smi:1408-1

> <Gold.Version>
5.8.1

> <Gold.Id.Protein>
6NUR|6NUR_protein|mol2

> <Gold.PLP.Fitness>
39.5078

> <Gold.PLP.PLP>
-28.3311

> <Gold.PLP.part.hbond>
-3.7783

> <Gold.PLP.part.metal>
0.0000

> <Gold.PLP.part.buried>
-5.1976

> <Gold.PLP.part.nonpolar>
-20.0476

> <Gold.PLP.part.repulsive>
0.1630

> <Gold.PLP.ligand.clash>
0.0000

> <Gold.PLP.ligand.torsion>
1.3158

> <Gold.PLP.Chemscore.Hbond>
3.9192

> <Gold.PLP.Chemscore.CHOScore>
0.0000

> <Gold.PLP.Chemscore.Metal>
0.0000

> <Gold.Chemscore.Hbonds>
donor molecule, donor type, donor heavy atom, donor atom, acceptor molecule, acceptor atom, score
      L1  H     8    28       P1  7948  0.91
      L1  H    11    29       P1  7948  1.00
      P1  H  7989  7998       L1    19  1.00
      P1  H  7997  8009       L1    18  0.98

> <Gold.PLP.Chemscore.Internal.Correction>
2.0506

> <Gold.Rescore>
     Score         DG    S(hbond)    S(metal)    S(lipo)     H(rot)  DE(clash)    DE(int)     intcor
     17.22     -19.57       3.00        0.00      56.60       1.00       0.02       2.33       ----

> <Gold.Chemscore.Fitness>
17.2183

> <Gold.Chemscore.DG>
-19.5672

> <Gold.Chemscore.ZeroCoef>
-5.4800

> <Gold.Chemscore.Hbond>
3.0015

> <Gold.Chemscore.Metal>
0.0000

> <Gold.Chemscore.Lipo>
56.5998

> <Gold.Chemscore.Internal_Hbond>
0.0000

> <Gold.Chemscore.DEClash>
0.0163

> <Gold.Chemscore.DEInternal>
2.3325

> <Gold.Chemscore.Rot>
1.0000

> <Gold.Chemscore.Internal.Correction>
   9.000000E+99

> <Gold.Chemscore.Hbonds>
donor molecule, donor type, donor heavy atom, donor atom, acceptor molecule, acceptor atom, score
      L1  H     8    28       P1  7948  0.19
      L1  H    11    29       P1  7948  0.85
      P1  H  7989  7998       L1    19  0.99
      P1  H  7997  8009       L1    18  0.88

> <Gold.Chemscore.Hbond.Weighted>
-10.0250

> <Gold.Chemscore.Metal.Weighted>
-0.0000

> <Gold.Chemscore.Lipo.Weighted>
-6.6222

> <Gold.Chemscore.Internal_Hbond.Weighted>
0.0000

> <Gold.Chemscore.DEClash.Weighted>
0.0163

> <Gold.Chemscore.DEInternal.Weighted>
2.3325

> <Gold.Chemscore.Rot.Weighted>
2.5600

> <Gold.Chemscore.Internal.Correction.Weighted>
   9.000000E+99

> <Gold.Protein.RotatedTorsions>
[ 6907 6896 6895 6894 ] final  -59.40 input  -60.11 | X-H torsion
[ 7974 7965 7964 7962 ] final -159.03 input  175.53 | X-H torsion
[ 8008 7997 7996 7995 ] final  174.31 input   59.86 | X-H torsion
[ 10167 10162 10161 10158 ] final  139.23 input  -65.29 | X-H torsion
[ 10718 10713 10712 10709 ] final -176.63 input   66.30 | X-H torsion
[ 10763 10752 10751 10750 ] final  -35.66 input  -60.55 | X-H torsion
[ 11005 11000 10999 10996 ] final   -1.01 input  -57.11 | X-H torsion

> <Gold.Protein.ActiveResidues>
 VAL166  LYS551  ARG553  GLY616  TRP617  ASP618  TYR619  PRO620  LYS621  CYS622 
 ASP623  PHE694  ASN695  SER759  ASP760  ASP761  ALA762  ILE779  LEU786  VAL792 
 PHE793  MET794  SER795  GLU796  ALA797  LYS798  CYS799  TRP800  GLU811  SER814 

> <Gold.Protein.RotatedAtoms>
  150.7934  134.6974  159.6530 H   0  0  0  0  0  0  0  0  0  0  0  0  # atno 6907 bound_to 6896
  152.4042  134.6231  160.0066 H   0  0  0  0  0  0  0  0  0  0  0  0  # atno 6908 bound_to 6896
  151.6493  133.3285  159.3184 H   0  0  0  0  0  0  0  0  0  0  0  0  # atno 6909 bound_to 6896
  144.7482  140.3744  143.6069 H   0  0  0  0  0  0  0  0  0  0  0  0  # atno 7974 bound_to 7965
  156.0987  140.1438  156.9496 H   0  0  0  0  0  0  0  0  0  0  0  0  # atno 8008 bound_to 7997
  154.4688  140.0917  156.7137 H   0  0  0  0  0  0  0  0  0  0  0  0  # atno 8009 bound_to 7997
  155.4797  140.3444  155.4340 H   0  0  0  0  0  0  0  0  0  0  0  0  # atno 8010 bound_to 7997
  139.5085  144.6307  151.5825 H   0  0  0  0  0  0  0  0  0  0  0  0  # atno 10167 bound_to 10162
  156.8174  130.9608  151.3113 H   0  0  0  0  0  0  0  0  0  0  0  0  # atno 10718 bound_to 10713
  153.8669  135.6834  153.4778 H   0  0  0  0  0  0  0  0  0  0  0  0  # atno 10763 bound_to 10752
  153.1310  135.4698  154.9346 H   0  0  0  0  0  0  0  0  0  0  0  0  # atno 10764 bound_to 10752
  154.7732  135.3245  154.8095 H   0  0  0  0  0  0  0  0  0  0  0  0  # atno 10765 bound_to 10752
  140.6425  133.9476  155.8334 H   0  0  0  0  0  0  0  0  0  0  0  0  # atno 11005 bound_to 11000
  145.7044  139.1669  143.2574 LP  0  0  0  0  0  0  0  0  0  0  0  0  # atno 17320 bound_to 7965
  146.1392  140.7080  142.9375 LP  0  0  0  0  0  0  0  0  0  0  0  0  # atno 17321 bound_to 7965
  140.6038  143.9561  150.6404 LP  0  0  0  0  0  0  0  0  0  0  0  0  # atno 17342 bound_to 10162
  140.2781  143.3408  152.1176 LP  0  0  0  0  0  0  0  0  0  0  0  0  # atno 17343 bound_to 10162
  157.6474  130.8856  149.9566 LP  0  0  0  0  0  0  0  0  0  0  0  0  # atno 17370 bound_to 10713
  156.1008  130.3656  150.0221 LP  0  0  0  0  0  0  0  0  0  0  0  0  # atno 17371 bound_to 10713
  141.0596  134.0366  157.3676 LP  0  0  0  0  0  0  0  0  0  0  0  0  # atno 17394 bound_to 11000
  139.9075  135.0183  156.7548 LP  0  0  0  0  0  0  0  0  0  0  0  0  # atno 17395 bound_to 11000

$$$$
