AV-unprocessed.smi:1119|AV-procd|sdf|4817|dock8
  -GOLD-   22720 3373D 1   1.00000     0.00000
 Structure written by MMmdl.
 31 32  0  0  0  0  0  0  0  0  1 V2000
  147.1578  141.3974  153.7825 C   0  0  0  0  0  0  0  0  0  0  0  0
  148.2431  141.6853  154.6575 O   0  0  0  0  0  0  0  0  0  0  0  0
  149.2641  140.7607  154.7679 C   0  0  0  0  0  0  0  0  0  0  0  0
  149.1620  139.6004  154.0716 N   0  0  0  0  0  0  0  0  0  0  0  0
  150.1560  138.6953  154.1807 C   0  0  0  0  0  0  0  0  0  0  0  0
  151.2920  138.8921  154.9871 C   0  0  0  0  0  0  0  0  0  0  0  0
  151.4009  140.0947  155.7096 C   0  0  0  0  0  0  0  0  0  0  0  0
  150.3725  141.0609  155.5936 C   0  0  0  0  0  0  0  0  0  0  0  0
  150.3760  142.2952  156.2996 N   0  0  0  0  0  0  0  0  0  0  0  0
  151.0846  142.6262  157.3923 C   0  0  0  0  0  0  0  0  0  0  0  0
  151.8963  141.8957  157.9608 O   0  0  0  0  0  0  0  0  0  0  0  0
  150.8136  143.8787  157.7845 N   0  0  0  0  0  0  0  0  0  0  0  0
  151.4395  144.5527  158.9147 C   0  0  0  0  0  0  0  0  0  0  0  0
  151.4643  143.7474  160.1994 C   0  0  0  0  0  0  0  0  0  0  0  0
  152.2036  144.2430  161.4207 C   0  0  0  0  0  0  0  0  0  0  0  0
  152.7338  143.0607  160.6467 C   0  0  0  0  0  0  0  0  0  0  0  0
  146.4494  142.2252  153.8024 H   0  0  0  0  0  0  0  0  0  0  0  0
  146.6241  140.4978  154.0921 H   0  0  0  0  0  0  0  0  0  0  0  0
  147.4962  141.2774  152.7521 H   0  0  0  0  0  0  0  0  0  0  0  0
  150.0391  137.7843  153.6127 H   0  0  0  0  0  0  0  0  0  0  0  0
  152.0602  138.1360  155.0540 H   0  0  0  0  0  0  0  0  0  0  0  0
  152.2578  140.2463  156.3475 H   0  0  0  0  0  0  0  0  0  0  0  0
  149.8259  143.0324  155.8836 H   0  0  0  0  0  0  0  0  0  0  0  0
  150.1342  144.4073  157.2573 H   0  0  0  0  0  0  0  0  0  0  0  0
  152.4693  144.7756  158.6354 H   0  0  0  0  0  0  0  0  0  0  0  0
  150.9581  145.5160  159.0930 H   0  0  0  0  0  0  0  0  0  0  0  0
  150.5459  143.1933  160.3847 H   0  0  0  0  0  0  0  0  0  0  0  0
  152.7474  145.1822  161.3386 H   0  0  0  0  0  0  0  0  0  0  0  0
  151.7522  144.0496  162.3917 H   0  0  0  0  0  0  0  0  0  0  0  0
  152.6395  142.0776  161.1035 H   0  0  0  0  0  0  0  0  0  0  0  0
  153.6322  143.2143  160.0518 H   0  0  0  0  0  0  0  0  0  0  0  0
  1  2  1  0  0  0  0
  1 17  1  0  0  0  0
  1 18  1  0  0  0  0
  1 19  1  0  0  0  0
  2  3  1  0  0  0  0
  3  8  1  0  0  0  0
  3  4  2  0  0  0  0
  4  5  1  0  0  0  0
  5  6  2  0  0  0  0
  5 20  1  0  0  0  0
  6  7  1  0  0  0  0
  6 21  1  0  0  0  0
  7  8  2  0  0  0  0
  7 22  1  0  0  0  0
  8  9  1  0  0  0  0
  9 10  1  0  0  0  0
  9 23  1  0  0  0  0
 10 11  2  0  0  0  0
 10 12  1  0  0  0  0
 12 13  1  0  0  0  0
 12 24  1  0  0  0  0
 13 14  1  0  0  0  0
 13 25  1  0  0  0  0
 13 26  1  0  0  0  0
 14 16  1  0  0  0  0
 14 15  1  0  0  0  0
 14 27  1  0  0  0  0
 15 16  1  0  0  0  0
 15 28  1  0  0  0  0
 15 29  1  0  0  0  0
 16 30  1  0  0  0  0
 16 31  1  0  0  0  0
M  END
> <s_m_source_file>
AV-unprocessed.smi

> <i_m_source_file_index>
1119

> <i_lp_mmshare_version>
43012

> <i_f3d_flags>
0

> <s_epik_input>
W0NIM11PYzFuW2NIXVtjSF1bY0hdYzFbTkhdQyg9TylbTkhdW0NIMl1bQ0hdMltDSDJdW0NIMl0y

> <s_epik_cmdline>
J2VwaWtfcHl0aG9uJywgJy1waCcsICc3LjAnLCAnLXRuJywgJzgnLCAnLW1hJywgJzIwMCcsICctbWV0YWxfYmluZGluZycsICctaW1hZScsICc8aW5maWxlLm1hZT4nLCAnLW9tYWUnLCAnPG91dGZpbGUubWFlPic=

> <r_lp_tautomer_probability>
1

> <r_epik_Ionization_Penalty>
9.92152e-05

> <r_epik_Ionization_Penalty_Charging>
0

> <r_epik_Ionization_Penalty_Neutral>
9.92152e-05

> <r_epik_State_Penalty>
-0

> <r_epik_Charging_Adjusted_Penalty>
0

> <i_epik_Tot_Q>
0

> <i_epik_Tot_abs_Q>
0

> <r_epik_Metal_State_Penalty>
-0

> <b_epik_Metal_Only>
0

> <s_lp_Force_Field>
OPLS_2005

> <r_lp_Energy>
14.7926

> <b_lp_Chiralities_Consistent>
1

> <s_lp_Variant>
AV-unprocessed.smi:1119-1

> <Gold.Version>
5.8.1

> <Gold.Id.Protein>
6NUR|6NUR_protein|mol2

> <Gold.PLP.Fitness>
46.5675

> <Gold.PLP.PLP>
-37.9863

> <Gold.PLP.part.hbond>
-2.0000

> <Gold.PLP.part.metal>
0.0000

> <Gold.PLP.part.buried>
-5.8576

> <Gold.PLP.part.nonpolar>
-31.7907

> <Gold.PLP.part.repulsive>
1.4485

> <Gold.PLP.ligand.clash>
0.0000

> <Gold.PLP.ligand.torsion>
0.4598

> <Gold.PLP.Chemscore.Hbond>
2.0000

> <Gold.PLP.Chemscore.CHOScore>
0.9860

> <Gold.PLP.Chemscore.Metal>
0.0000

> <Gold.Chemscore.Hbonds>
donor molecule, donor type, donor heavy atom, donor atom, acceptor molecule, acceptor atom, score
      L1  H     9    23       P1  8028  1.00
      L1  H    12    24       P1  8028  1.00
      L1  C     5    20       P1  7948  0.98

> <Gold.PLP.Chemscore.Internal.Correction>
0.5426

> <Gold.Rescore>
     Score         DG    S(hbond)    S(metal)    S(lipo)     H(rot)  DE(clash)    DE(int)     intcor
     15.48     -17.19       1.73        0.00      82.51       1.45       0.05       1.65       ----

> <Gold.Chemscore.Fitness>
15.4823

> <Gold.Chemscore.DG>
-17.1861

> <Gold.Chemscore.ZeroCoef>
-5.4800

> <Gold.Chemscore.Hbond>
1.7257

> <Gold.Chemscore.Metal>
0.0000

> <Gold.Chemscore.Lipo>
82.5070

> <Gold.Chemscore.Internal_Hbond>
0.0000

> <Gold.Chemscore.DEClash>
0.0540

> <Gold.Chemscore.DEInternal>
1.6498

> <Gold.Chemscore.Rot>
1.4497

> <Gold.Chemscore.Internal.Correction>
   9.000000E+99

> <Gold.Chemscore.Hbonds>
donor molecule, donor type, donor heavy atom, donor atom, acceptor molecule, acceptor atom, score
      L1  H     9    23       P1  8028  0.99
      L1  H    12    24       P1  8028  0.51

> <Gold.Chemscore.Hbond.Weighted>
-5.7639

> <Gold.Chemscore.Metal.Weighted>
-0.0000

> <Gold.Chemscore.Lipo.Weighted>
-9.6533

> <Gold.Chemscore.Internal_Hbond.Weighted>
0.0000

> <Gold.Chemscore.DEClash.Weighted>
0.0540

> <Gold.Chemscore.DEInternal.Weighted>
1.6498

> <Gold.Chemscore.Rot.Weighted>
3.7111

> <Gold.Chemscore.Internal.Correction.Weighted>
   9.000000E+99

> <Gold.Protein.RotatedTorsions>
[ 6907 6896 6895 6894 ] final -170.20 input  -60.11 | X-H torsion
[ 7974 7965 7964 7962 ] final  -88.78 input  175.53 | X-H torsion
[ 8008 7997 7996 7995 ] final   97.15 input   59.86 | X-H torsion
[ 10167 10162 10161 10158 ] final -125.88 input  -65.29 | X-H torsion
[ 10718 10713 10712 10709 ] final  -29.77 input   66.30 | X-H torsion
[ 10763 10752 10751 10750 ] final  -95.13 input  -60.55 | X-H torsion
[ 11005 11000 10999 10996 ] final  -86.42 input  -57.11 | X-H torsion

> <Gold.Protein.ActiveResidues>
 VAL166  LYS551  ARG553  GLY616  TRP617  ASP618  TYR619  PRO620  LYS621  CYS622 
 ASP623  PHE694  ASN695  SER759  ASP760  ASP761  ALA762  ILE779  LEU786  VAL792 
 PHE793  MET794  SER795  GLU796  ALA797  LYS798  CYS799  TRP800  GLU811  SER814 

> <Gold.Protein.RotatedAtoms>
  151.5039  133.3498  159.2873 H   0  0  0  0  0  0  0  0  0  0  0  0  # atno 6907 bound_to 6896
  150.8755  134.8139  159.7197 H   0  0  0  0  0  0  0  0  0  0  0  0  # atno 6908 bound_to 6896
  152.4728  134.4929  159.9753 H   0  0  0  0  0  0  0  0  0  0  0  0  # atno 6909 bound_to 6896
  145.4486  140.9560  143.2035 H   0  0  0  0  0  0  0  0  0  0  0  0  # atno 7974 bound_to 7965
  156.0871  140.3262  155.7768 H   0  0  0  0  0  0  0  0  0  0  0  0  # atno 8008 bound_to 7997
  155.5057  140.0573  157.2949 H   0  0  0  0  0  0  0  0  0  0  0  0  # atno 8009 bound_to 7997
  154.4616  140.1969  156.0246 H   0  0  0  0  0  0  0  0  0  0  0  0  # atno 8010 bound_to 7997
  139.9774  143.5780  152.2391 H   0  0  0  0  0  0  0  0  0  0  0  0  # atno 10167 bound_to 10162
  156.4083  130.4403  149.7271 H   0  0  0  0  0  0  0  0  0  0  0  0  # atno 10718 bound_to 10713
  154.7120  135.5132  153.8681 H   0  0  0  0  0  0  0  0  0  0  0  0  # atno 10763 bound_to 10752
  153.0789  135.6625  154.0096 H   0  0  0  0  0  0  0  0  0  0  0  0  # atno 10764 bound_to 10752
  153.9936  135.3017  155.3389 H   0  0  0  0  0  0  0  0  0  0  0  0  # atno 10765 bound_to 10752
  141.1630  133.7453  156.9158 H   0  0  0  0  0  0  0  0  0  0  0  0  # atno 11005 bound_to 11000
  144.8076  139.6022  143.7044 LP  0  0  0  0  0  0  0  0  0  0  0  0  # atno 17320 bound_to 7965
  146.2517  139.6214  142.9422 LP  0  0  0  0  0  0  0  0  0  0  0  0  # atno 17321 bound_to 7965
  139.6435  144.7656  151.2290 LP  0  0  0  0  0  0  0  0  0  0  0  0  # atno 17342 bound_to 10162
  140.7501  143.6277  150.8453 LP  0  0  0  0  0  0  0  0  0  0  0  0  # atno 17343 bound_to 10162
  156.4260  130.7792  151.2810 LP  0  0  0  0  0  0  0  0  0  0  0  0  # atno 17370 bound_to 10713
  157.7506  131.0168  150.3561 LP  0  0  0  0  0  0  0  0  0  0  0  0  # atno 17371 bound_to 10713
  140.1485  134.9246  157.2562 LP  0  0  0  0  0  0  0  0  0  0  0  0  # atno 17394 bound_to 11000
  140.2751  134.3415  155.7361 LP  0  0  0  0  0  0  0  0  0  0  0  0  # atno 17395 bound_to 11000

$$$$
