AV-unprocessed.smi:1652|AV-procd|sdf|6639|dock5
  -GOLD-   22720 7343D 1   1.00000     0.00000
 Structure written by MMmdl.
 38 40  0  0  0  0  0  0  0  0  1 V2000
  153.4601  138.0828  159.8540 O   0  0  0  0  0  0  0  0  0  0  0  0
  153.1024  139.2488  159.6842 C   0  0  0  0  0  0  0  0  0  0  0  0
  153.7073  140.3919  160.3854 C   0  0  0  0  0  0  0  0  0  0  0  0
  154.8366  140.1096  161.3730 C   0  0  0  0  0  0  0  0  0  0  0  0
  154.8204  140.9626  162.3981 F   0  0  0  0  0  0  0  0  0  0  0  0
  154.7309  138.8761  161.8686 F   0  0  0  0  0  0  0  0  0  0  0  0
  156.0217  140.2171  160.7714 F   0  0  0  0  0  0  0  0  0  0  0  0
  153.2579  141.6488  160.1506 C   0  0  0  0  0  0  0  0  0  0  0  0
  152.1802  141.8765  159.2093 C   0  0  0  0  0  0  0  0  0  0  0  0
  151.6270  143.2402  158.9087 C   0  0  0  0  0  0  0  0  0  0  0  0
  152.4555  144.3191  158.2493 C   0  0  0  0  0  0  0  0  0  0  0  0
  152.0477  144.4580  159.6980 C   0  0  0  0  0  0  0  0  0  0  0  0
  151.6552  140.8733  158.5904 N   0  0  0  0  0  0  0  0  0  0  0  0
  152.1007  139.5855  158.8193 N   0  0  0  0  0  0  0  0  0  0  0  0
  151.3791  138.5624  158.0516 C   0  0  0  0  0  0  0  0  0  0  0  0
  151.6853  138.6474  156.5403 C   0  0  2  0  0  0  0  0  0  0  0  0
  152.9794  139.1883  156.3602 O   0  0  0  0  0  0  0  0  0  0  0  0
  150.6345  139.4789  155.8192 C   0  0  0  0  0  0  0  0  0  0  0  0
  149.7507  138.8603  154.9087 C   0  0  0  0  0  0  0  0  0  0  0  0
  148.7686  139.6204  154.2441 C   0  0  0  0  0  0  0  0  0  0  0  0
  148.6628  141.0034  154.4875 C   0  0  0  0  0  0  0  0  0  0  0  0
  147.7182  141.7334  153.8487 F   0  0  0  0  0  0  0  0  0  0  0  0
  149.5390  141.6257  155.3971 C   0  0  0  0  0  0  0  0  0  0  0  0
  150.5205  140.8659  156.0628 C   0  0  0  0  0  0  0  0  0  0  0  0
  153.6899  142.4998  160.6552 H   0  0  0  0  0  0  0  0  0  0  0  0
  150.5805  143.1756  158.6162 H   0  0  0  0  0  0  0  0  0  0  0  0
  153.5054  144.1146  158.0471 H   0  0  0  0  0  0  0  0  0  0  0  0
  151.9579  144.9588  157.5234 H   0  0  0  0  0  0  0  0  0  0  0  0
  151.2803  145.1918  159.9361 H   0  0  0  0  0  0  0  0  0  0  0  0
  152.8251  144.3359  160.4502 H   0  0  0  0  0  0  0  0  0  0  0  0
  151.7099  137.5906  158.4236 H   0  0  0  0  0  0  0  0  0  0  0  0
  150.3033  138.5770  158.2361 H   0  0  0  0  0  0  0  0  0  0  0  0
  151.6845  137.6466  156.1058 H   0  0  0  0  0  0  0  0  0  0  0  0
  153.4573  138.6315  155.7649 H   0  0  0  0  0  0  0  0  0  0  0  0
  149.8202  137.7994  154.7179 H   0  0  0  0  0  0  0  0  0  0  0  0
  148.0951  139.1417  153.5486 H   0  0  0  0  0  0  0  0  0  0  0  0
  149.4572  142.6861  155.5861 H   0  0  0  0  0  0  0  0  0  0  0  0
  151.1846  141.3509  156.7634 H   0  0  0  0  0  0  0  0  0  0  0  0
  1  2  2  0  0  0  0
  2 14  1  0  0  0  0
  2  3  1  0  0  0  0
  3  4  1  0  0  0  0
  3  8  2  0  0  0  0
  4  5  1  0  0  0  0
  4  6  1  0  0  0  0
  4  7  1  0  0  0  0
  8  9  1  0  0  0  0
  8 25  1  0  0  0  0
  9 10  1  0  0  0  0
  9 13  2  0  0  0  0
 10 12  1  0  0  0  0
 10 11  1  0  0  0  0
 10 26  1  0  0  0  0
 11 12  1  0  0  0  0
 11 27  1  0  0  0  0
 11 28  1  0  0  0  0
 12 29  1  0  0  0  0
 12 30  1  0  0  0  0
 13 14  1  0  0  0  0
 14 15  1  0  0  0  0
 15 16  1  0  0  0  0
 15 31  1  0  0  0  0
 15 32  1  0  0  0  0
 16 17  1  0  0  0  0
 16 18  1  0  0  0  0
 16 33  1  0  0  0  0
 17 34  1  0  0  0  0
 18 24  1  0  0  0  0
 18 19  2  0  0  0  0
 19 20  1  0  0  0  0
 19 35  1  0  0  0  0
 20 21  2  0  0  0  0
 20 36  1  0  0  0  0
 21 22  1  0  0  0  0
 21 23  1  0  0  0  0
 23 24  2  0  0  0  0
 23 37  1  0  0  0  0
 24 38  1  0  0  0  0
M  END
> <s_m_source_file>
AV-unprocessed.smi

> <i_m_source_file_index>
1652

> <i_lp_mmshare_version>
43012

> <i_f3d_flags>
0

> <s_epik_input>
Tz1jMWMoQyhGKShGKUYpW2NIXWMoW0NIXTJbQ0gyXVtDSDJdMilubjFbQ0gyXVtDQEhdKFtPSF0pYzNbY0hdW2NIXWMoRilbY0hdW2NIXTM=

> <s_epik_cmdline>
J2VwaWtfcHl0aG9uJywgJy1waCcsICc3LjAnLCAnLXRuJywgJzgnLCAnLW1hJywgJzIwMCcsICctbWV0YWxfYmluZGluZycsICctaW1hZScsICc8aW5maWxlLm1hZT4nLCAnLW9tYWUnLCAnPG91dGZpbGUubWFlPic=

> <r_lp_tautomer_probability>
1

> <r_epik_Ionization_Penalty>
9.17026e-08

> <r_epik_Ionization_Penalty_Charging>
9.677e-10

> <r_epik_Ionization_Penalty_Neutral>
9.07349e-08

> <r_epik_State_Penalty>
-0

> <r_epik_Charging_Adjusted_Penalty>
9.677e-10

> <i_epik_Tot_Q>
0

> <i_epik_Tot_abs_Q>
0

> <r_epik_Metal_State_Penalty>
-0

> <b_epik_Metal_Only>
0

> <s_lp_Force_Field>
OPLS_2005

> <r_lp_Energy>
34.1346

> <b_lp_Chiralities_Consistent>
1

> <s_lp_Variant>
AV-unprocessed.smi:1652-1

> <Gold.Version>
5.8.1

> <Gold.Id.Protein>
6NUR|6NUR_protein|mol2

> <Gold.PLP.Fitness>
48.0616

> <Gold.PLP.PLP>
-48.9872

> <Gold.PLP.part.hbond>
-1.0000

> <Gold.PLP.part.metal>
0.0000

> <Gold.PLP.part.buried>
-1.6854

> <Gold.PLP.part.nonpolar>
-46.4588

> <Gold.PLP.part.repulsive>
0.0000

> <Gold.PLP.ligand.clash>
0.0002

> <Gold.PLP.ligand.torsion>
1.7701

> <Gold.PLP.Chemscore.Hbond>
0.6500

> <Gold.PLP.Chemscore.CHOScore>
0.0000

> <Gold.PLP.Chemscore.Metal>
0.0000

> <Gold.Chemscore.Hbonds>
donor molecule, donor type, donor heavy atom, donor atom, acceptor molecule, acceptor atom, score
      P1  H  7997  8008       L1    17  0.50

> <Gold.PLP.Chemscore.Internal.Correction>
0.6647

> <Gold.Rescore>
     Score         DG    S(hbond)    S(metal)    S(lipo)     H(rot)  DE(clash)    DE(int)     intcor
      9.99     -14.76       0.21        0.00     121.40       2.20       0.22       4.56       ----

> <Gold.Chemscore.Fitness>
9.9850

> <Gold.Chemscore.DG>
-14.7574

> <Gold.Chemscore.ZeroCoef>
-5.4800

> <Gold.Chemscore.Hbond>
0.2114

> <Gold.Chemscore.Metal>
0.0000

> <Gold.Chemscore.Lipo>
121.4037

> <Gold.Chemscore.Internal_Hbond>
0.0000

> <Gold.Chemscore.DEClash>
0.2163

> <Gold.Chemscore.DEInternal>
4.5561

> <Gold.Chemscore.Rot>
2.2003

> <Gold.Chemscore.Internal.Correction>
   9.000000E+99

> <Gold.Chemscore.Hbonds>
donor molecule, donor type, donor heavy atom, donor atom, acceptor molecule, acceptor atom, score
      P1  H  7997  8008       L1    17  0.02

> <Gold.Chemscore.Hbond.Weighted>
-0.7060

> <Gold.Chemscore.Metal.Weighted>
-0.0000

> <Gold.Chemscore.Lipo.Weighted>
-14.2042

> <Gold.Chemscore.Internal_Hbond.Weighted>
0.0000

> <Gold.Chemscore.DEClash.Weighted>
0.2163

> <Gold.Chemscore.DEInternal.Weighted>
4.5561

> <Gold.Chemscore.Rot.Weighted>
5.6328

> <Gold.Chemscore.Internal.Correction.Weighted>
   9.000000E+99

> <Gold.Protein.RotatedTorsions>
[ 6907 6896 6895 6894 ] final   18.47 input  -60.11 | X-H torsion
[ 7974 7965 7964 7962 ] final   35.75 input  175.53 | X-H torsion
[ 8008 7997 7996 7995 ] final  -63.07 input   59.86 | X-H torsion
[ 10167 10162 10161 10158 ] final    5.50 input  -65.29 | X-H torsion
[ 10718 10713 10712 10709 ] final  133.30 input   66.30 | X-H torsion
[ 10763 10752 10751 10750 ] final   -5.67 input  -60.55 | X-H torsion
[ 11005 11000 10999 10996 ] final -130.01 input  -57.11 | X-H torsion

> <Gold.Protein.ActiveResidues>
 VAL166  LYS551  ARG553  GLY616  TRP617  ASP618  TYR619  PRO620  LYS621  CYS622 
 ASP623  PHE694  ASN695  SER759  ASP760  ASP761  ALA762  ILE779  LEU786  VAL792 
 PHE793  MET794  SER795  GLU796  ALA797  LYS798  CYS799  TRP800  GLU811  SER814 

> <Gold.Protein.RotatedAtoms>
  151.8658  135.0507  160.0473 H   0  0  0  0  0  0  0  0  0  0  0  0  # atno 6907 bound_to 6896
  152.2627  133.5307  159.5400 H   0  0  0  0  0  0  0  0  0  0  0  0  # atno 6908 bound_to 6896
  150.7122  134.0724  159.3911 H   0  0  0  0  0  0  0  0  0  0  0  0  # atno 6909 bound_to 6896
  146.1260  139.6103  142.9258 H   0  0  0  0  0  0  0  0  0  0  0  0  # atno 7974 bound_to 7965
  154.4534  140.0982  156.6685 H   0  0  0  0  0  0  0  0  0  0  0  0  # atno 8008 bound_to 7997
  155.5214  140.3479  155.4389 H   0  0  0  0  0  0  0  0  0  0  0  0  # atno 8009 bound_to 7997
  156.0728  140.1353  156.9797 H   0  0  0  0  0  0  0  0  0  0  0  0  # atno 8010 bound_to 7997
  140.6479  143.7618  150.7527 H   0  0  0  0  0  0  0  0  0  0  0  0  # atno 10167 bound_to 10162
  157.4786  131.1084  150.9710 H   0  0  0  0  0  0  0  0  0  0  0  0  # atno 10718 bound_to 10713
  153.4018  135.7005  153.6421 H   0  0  0  0  0  0  0  0  0  0  0  0  # atno 10763 bound_to 10752
  153.4951  135.3664  155.2512 H   0  0  0  0  0  0  0  0  0  0  0  0  # atno 10764 bound_to 10752
  154.8711  135.4098  154.3354 H   0  0  0  0  0  0  0  0  0  0  0  0  # atno 10765 bound_to 10752
  140.9383  134.1228  157.4174 H   0  0  0  0  0  0  0  0  0  0  0  0  # atno 11005 bound_to 11000
  145.5364  141.0424  143.2355 LP  0  0  0  0  0  0  0  0  0  0  0  0  # atno 17320 bound_to 7965
  144.7643  139.6882  143.7221 LP  0  0  0  0  0  0  0  0  0  0  0  0  # atno 17321 bound_to 7965
  140.1262  143.4567  152.2282 LP  0  0  0  0  0  0  0  0  0  0  0  0  # atno 17342 bound_to 10162
  139.5691  144.7452  151.3941 LP  0  0  0  0  0  0  0  0  0  0  0  0  # atno 17343 bound_to 10162
  157.0451  130.5764  149.5362 LP  0  0  0  0  0  0  0  0  0  0  0  0  # atno 17370 bound_to 10713
  156.0110  130.5201  150.7987 LP  0  0  0  0  0  0  0  0  0  0  0  0  # atno 17371 bound_to 10713
  139.8813  135.0028  156.6148 LP  0  0  0  0  0  0  0  0  0  0  0  0  # atno 17394 bound_to 11000
  140.7769  133.8692  155.8536 LP  0  0  0  0  0  0  0  0  0  0  0  0  # atno 17395 bound_to 11000

$$$$
