AV-unprocessed.smi:2317|AV-procd|sdf|9272|dock5
  -GOLD-   2272012493D 1   1.00000     0.00000
 Structure written by MMmdl.
 37 38  0  0  0  0  0  0  0  0  1 V2000
  144.8683  137.3475  152.9517 O   0  0  0  0  0  0  0  0  0  0  0  0
  146.0121  137.0149  152.6430 C   0  0  0  0  0  0  0  0  0  0  0  0
  147.0733  137.8275  152.7544 N   0  0  0  0  0  0  0  0  0  0  0  0
  147.0478  139.1932  153.2723 C   0  0  0  0  0  0  0  0  0  0  0  0
  148.1155  139.4326  154.3642 C   0  0  1  0  0  0  0  0  0  0  0  0
  149.3444  138.5019  154.2400 C   0  0  0  0  0  0  0  0  0  0  0  0
  150.3617  138.7494  155.3660 C   0  0  0  0  0  0  0  0  0  0  0  0
  150.8018  140.2196  155.4129 C   0  0  0  0  0  0  0  0  0  0  0  0
  149.5909  141.1595  155.5402 C   0  0  0  0  0  0  0  0  0  0  0  0
  148.5507  140.9180  154.4291 C   0  0  1  0  0  0  0  0  0  0  0  0
  149.0866  141.3503  153.1920 O   0  0  0  0  0  0  0  0  0  0  0  0
  146.3696  135.8206  152.1399 N   0  0  0  0  0  0  0  0  0  0  0  0
  145.5660  134.6764  151.8762 C   0  0  0  0  0  0  0  0  0  0  0  0
  144.1577  134.7011  151.7268 C   0  0  0  0  0  0  0  0  0  0  0  0
  143.4825  133.4880  151.4834 C   0  0  0  0  0  0  0  0  0  0  0  0
  144.1058  132.2945  151.3907 N   0  0  0  0  0  0  0  0  0  0  0  0
  145.4465  132.2725  151.5442 C   0  0  0  0  0  0  0  0  0  0  0  0
  146.2165  133.4268  151.7905 C   0  0  0  0  0  0  0  0  0  0  0  0
  147.5600  133.3324  151.9395 F   0  0  0  0  0  0  0  0  0  0  0  0
  147.9732  137.4712  152.4676 H   0  0  0  0  0  0  0  0  0  0  0  0
  147.1556  139.9173  152.4632 H   0  0  0  0  0  0  0  0  0  0  0  0
  146.0552  139.3579  153.6923 H   0  0  0  0  0  0  0  0  0  0  0  0
  147.6421  139.2055  155.3210 H   0  0  0  0  0  0  0  0  0  0  0  0
  149.0364  137.4571  154.2736 H   0  0  0  0  0  0  0  0  0  0  0  0
  149.8246  138.6479  153.2716 H   0  0  0  0  0  0  0  0  0  0  0  0
  149.9207  138.4705  156.3237 H   0  0  0  0  0  0  0  0  0  0  0  0
  151.2315  138.1067  155.2278 H   0  0  0  0  0  0  0  0  0  0  0  0
  151.4827  140.3764  156.2500 H   0  0  0  0  0  0  0  0  0  0  0  0
  151.3641  140.4617  154.5103 H   0  0  0  0  0  0  0  0  0  0  0  0
  149.1195  141.0011  156.5110 H   0  0  0  0  0  0  0  0  0  0  0  0
  149.9213  142.1990  155.5300 H   0  0  0  0  0  0  0  0  0  0  0  0
  147.6764  141.5381  154.6307 H   0  0  0  0  0  0  0  0  0  0  0  0
  149.0296  140.6380  152.5736 H   0  0  0  0  0  0  0  0  0  0  0  0
  147.3394  135.7280  151.8752 H   0  0  0  0  0  0  0  0  0  0  0  0
  143.5818  135.6097  151.8030 H   0  0  0  0  0  0  0  0  0  0  0  0
  142.4091  133.4760  151.3660 H   0  0  0  0  0  0  0  0  0  0  0  0
  145.9202  131.3048  151.4711 H   0  0  0  0  0  0  0  0  0  0  0  0
  1  2  2  0  0  0  0
  2  3  1  0  0  0  0
  2 12  1  0  0  0  0
  3  4  1  0  0  0  0
  3 20  1  0  0  0  0
  4  5  1  0  0  0  0
  4 21  1  0  0  0  0
  4 22  1  0  0  0  0
  5 10  1  0  0  0  0
  5  6  1  0  0  0  0
  5 23  1  0  0  0  0
  6  7  1  0  0  0  0
  6 24  1  0  0  0  0
  6 25  1  0  0  0  0
  7  8  1  0  0  0  0
  7 26  1  0  0  0  0
  7 27  1  0  0  0  0
  8  9  1  0  0  0  0
  8 28  1  0  0  0  0
  8 29  1  0  0  0  0
  9 10  1  0  0  0  0
  9 30  1  0  0  0  0
  9 31  1  0  0  0  0
 10 11  1  0  0  0  0
 10 32  1  0  0  0  0
 11 33  1  0  0  0  0
 12 13  1  0  0  0  0
 12 34  1  0  0  0  0
 13 18  1  0  0  0  0
 13 14  2  0  0  0  0
 14 15  1  0  0  0  0
 14 35  1  0  0  0  0
 15 16  2  0  0  0  0
 15 36  1  0  0  0  0
 16 17  1  0  0  0  0
 17 18  2  0  0  0  0
 17 37  1  0  0  0  0
 18 19  1  0  0  0  0
M  END
> <s_m_source_file>
AV-unprocessed.smi

> <i_m_source_file_index>
2317

> <i_lp_mmshare_version>
43012

> <i_f3d_flags>
0

> <s_epik_input>
RmMxW2NIXW5bY0hdW2NIXWMxW05IXUMoPU8pW05IXVtDSDJdW0NAQEhdMltDSDJdW0NIMl1bQ0gyXVtDSDJdW0NASF0yW09IXQ==

> <s_epik_cmdline>
J2VwaWtfcHl0aG9uJywgJy1waCcsICc3LjAnLCAnLXRuJywgJzgnLCAnLW1hJywgJzIwMCcsICctbWV0YWxfYmluZGluZycsICctaW1hZScsICc8aW5maWxlLm1hZT4nLCAnLW9tYWUnLCAnPG91dGZpbGUubWFlPic=

> <r_epik_Ionization_Penalty>
0.00317647

> <r_epik_Ionization_Penalty_Charging>
0

> <r_epik_Ionization_Penalty_Neutral>
0.00317647

> <r_epik_State_Penalty>
0.0022093

> <r_epik_Charging_Adjusted_Penalty>
0.0022093

> <i_epik_Tot_Q>
0

> <i_epik_Tot_abs_Q>
0

> <r_epik_Metal_State_Penalty>
-0

> <b_epik_Metal_Only>
0

> <s_lp_Force_Field>
OPLS_2005

> <r_lp_Energy>
21.0871

> <b_lp_Chiralities_Consistent>
1

> <s_lp_Variant>
AV-unprocessed.smi:2317-2

> <Gold.Version>
5.8.1

> <Gold.Id.Protein>
6NUR|6NUR_protein|mol2

> <Gold.PLP.Fitness>
45.9466

> <Gold.PLP.PLP>
-32.2767

> <Gold.PLP.part.hbond>
-4.4761

> <Gold.PLP.part.metal>
0.0000

> <Gold.PLP.part.buried>
-3.1006

> <Gold.PLP.part.nonpolar>
-25.1357

> <Gold.PLP.part.repulsive>
0.4732

> <Gold.PLP.ligand.clash>
0.0000

> <Gold.PLP.ligand.torsion>
0.5157

> <Gold.PLP.Chemscore.Hbond>
3.8960

> <Gold.PLP.Chemscore.CHOScore>
1.0000

> <Gold.PLP.Chemscore.Metal>
0.0000

> <Gold.Chemscore.Hbonds>
donor molecule, donor type, donor heavy atom, donor atom, acceptor molecule, acceptor atom, score
      L1  H     3    20       P1  7948  1.00
      L1  H    11    33       P1  7957  0.88
      L1  H    12    34       P1  7948  1.00
      P1  H  8011  8017       L1    11  1.00
      L1  C    15    36       P1 10186  1.00

> <Gold.PLP.Chemscore.Internal.Correction>
0.0133

> <Gold.Rescore>
     Score         DG    S(hbond)    S(metal)    S(lipo)     H(rot)  DE(clash)    DE(int)     intcor
     18.41     -19.97       3.31        0.00      68.46       1.79       0.02       1.53       ----

> <Gold.Chemscore.Fitness>
18.4124

> <Gold.Chemscore.DG>
-19.9660

> <Gold.Chemscore.ZeroCoef>
-5.4800

> <Gold.Chemscore.Hbond>
3.3075

> <Gold.Chemscore.Metal>
0.0000

> <Gold.Chemscore.Lipo>
68.4565

> <Gold.Chemscore.Internal_Hbond>
0.0000

> <Gold.Chemscore.DEClash>
0.0214

> <Gold.Chemscore.DEInternal>
1.5322

> <Gold.Chemscore.Rot>
1.7853

> <Gold.Chemscore.Internal.Correction>
   9.000000E+99

> <Gold.Chemscore.Hbonds>
donor molecule, donor type, donor heavy atom, donor atom, acceptor molecule, acceptor atom, score
      L1  H     3    20       P1  7948  0.96
      L1  H    11    33       P1  7957  0.86
      L1  H    12    34       P1  7948  0.98
      P1  H  8011  8017       L1    11  0.23

> <Gold.Chemscore.Hbond.Weighted>
-11.0470

> <Gold.Chemscore.Metal.Weighted>
-0.0000

> <Gold.Chemscore.Lipo.Weighted>
-8.0094

> <Gold.Chemscore.Internal_Hbond.Weighted>
0.0000

> <Gold.Chemscore.DEClash.Weighted>
0.0214

> <Gold.Chemscore.DEInternal.Weighted>
1.5322

> <Gold.Chemscore.Rot.Weighted>
4.5704

> <Gold.Chemscore.Internal.Correction.Weighted>
   9.000000E+99

> <Gold.Protein.RotatedTorsions>
[ 6907 6896 6895 6894 ] final   26.54 input  -60.11 | X-H torsion
[ 7974 7965 7964 7962 ] final  -23.18 input  175.53 | X-H torsion
[ 8008 7997 7996 7995 ] final   89.92 input   59.86 | X-H torsion
[ 10167 10162 10161 10158 ] final   48.93 input  -65.29 | X-H torsion
[ 10718 10713 10712 10709 ] final  107.89 input   66.30 | X-H torsion
[ 10763 10752 10751 10750 ] final  -47.27 input  -60.55 | X-H torsion
[ 11005 11000 10999 10996 ] final  145.69 input  -57.11 | X-H torsion

> <Gold.Protein.ActiveResidues>
 VAL166  LYS551  ARG553  GLY616  TRP617  ASP618  TYR619  PRO620  LYS621  CYS622 
 ASP623  PHE694  ASN695  SER759  ASP760  ASP761  ALA762  ILE779  LEU786  VAL792 
 PHE793  MET794  SER795  GLU796  ALA797  LYS798  CYS799  TRP800  GLU811  SER814 

> <Gold.Protein.RotatedAtoms>
  151.9889  134.9989  160.0560 H   0  0  0  0  0  0  0  0  0  0  0  0  # atno 6907 bound_to 6896
  152.1627  133.4587  159.4877 H   0  0  0  0  0  0  0  0  0  0  0  0  # atno 6908 bound_to 6896
  150.6890  134.1970  159.4350 H   0  0  0  0  0  0  0  0  0  0  0  0  # atno 6909 bound_to 6896
  146.1631  140.4581  142.8563 H   0  0  0  0  0  0  0  0  0  0  0  0  # atno 7974 bound_to 7965
  156.0058  140.3355  155.6891 H   0  0  0  0  0  0  0  0  0  0  0  0  # atno 8008 bound_to 7997
  155.6227  140.0677  157.2691 H   0  0  0  0  0  0  0  0  0  0  0  0  # atno 8009 bound_to 7997
  154.4264  140.1774  156.1376 H   0  0  0  0  0  0  0  0  0  0  0  0  # atno 8010 bound_to 7997
  140.2881  144.3078  150.6247 H   0  0  0  0  0  0  0  0  0  0  0  0  # atno 10167 bound_to 10162
  157.6610  131.0882  150.6223 H   0  0  0  0  0  0  0  0  0  0  0  0  # atno 10718 bound_to 10713
  154.0586  135.6621  153.4809 H   0  0  0  0  0  0  0  0  0  0  0  0  # atno 10763 bound_to 10752
  153.0436  135.5129  154.7681 H   0  0  0  0  0  0  0  0  0  0  0  0  # atno 10764 bound_to 10752
  154.6710  135.3029  154.9708 H   0  0  0  0  0  0  0  0  0  0  0  0  # atno 10765 bound_to 10752
  140.0733  134.9139  157.1380 H   0  0  0  0  0  0  0  0  0  0  0  0  # atno 11005 bound_to 11000
  144.8055  140.6292  143.6450 LP  0  0  0  0  0  0  0  0  0  0  0  0  # atno 17320 bound_to 7965
  145.4536  139.1520  143.3905 LP  0  0  0  0  0  0  0  0  0  0  0  0  # atno 17321 bound_to 7965
  140.5755  143.2177  151.7523 LP  0  0  0  0  0  0  0  0  0  0  0  0  # atno 17342 bound_to 10162
  139.4945  144.4156  152.0034 LP  0  0  0  0  0  0  0  0  0  0  0  0  # atno 17343 bound_to 10162
  156.6526  130.4489  149.5714 LP  0  0  0  0  0  0  0  0  0  0  0  0  # atno 17370 bound_to 10713
  156.2126  130.6688  151.1285 LP  0  0  0  0  0  0  0  0  0  0  0  0  # atno 17371 bound_to 10713
  140.3595  134.2509  155.7188 LP  0  0  0  0  0  0  0  0  0  0  0  0  # atno 17394 bound_to 11000
  141.2020  133.7949  157.0413 LP  0  0  0  0  0  0  0  0  0  0  0  0  # atno 17395 bound_to 11000

$$$$
