AV-unprocessed.smi:1047|AV-procd|sdf|4579|dock8
  -GOLD-   22720 3 43D 1   1.00000     0.00000
 Structure written by MMmdl.
 56 58  0  0  0  0  0  0  0  0  2 V2000
  145.5179  134.2849  151.3049 C   0  0  0  0  0  0  0  0  0  0  0  0
  145.5661  135.8193  151.2806 C   0  0  0  0  0  0  0  0  0  0  0  0
  146.2823  136.3858  152.4507 N   0  3  2  0  0  0  0  0  0  0  0  0
  145.9573  135.7090  153.7304 C   0  0  0  0  0  0  0  0  0  0  0  0
  146.7516  136.3364  154.8876 C   0  0  0  0  0  0  0  0  0  0  0  0
  146.4881  137.7326  154.9449 O   0  0  0  0  0  0  0  0  0  0  0  0
  146.9016  138.4070  153.7606 C   0  0  2  0  0  0  0  0  0  0  0  0
  146.6687  139.9124  153.9577 C   0  0  0  0  0  0  0  0  0  0  0  0
  147.7356  140.6915  153.3381 N   0  0  0  0  0  0  0  0  0  0  0  0
  148.3533  141.6577  154.2420 C   0  0  0  0  0  0  0  0  0  0  0  0
  149.3904  140.9757  155.1556 C   0  0  1  0  0  0  0  0  0  0  0  0
  149.9687  139.8995  154.4468 O   0  0  0  0  0  0  0  0  0  0  0  0
  150.5403  141.9046  155.5918 C   0  0  0  0  0  0  0  0  0  0  0  0
  151.3301  141.3507  156.6765 N   0  0  0  0  0  0  0  0  0  0  0  0
  151.9257  140.1432  156.7081 C   0  0  0  0  0  0  0  0  0  0  0  0
  152.6073  139.8288  157.8058 N   0  0  0  0  0  0  0  0  0  0  0  0
  152.4400  140.9685  158.5738 C   0  0  0  0  0  0  0  0  0  0  0  0
  152.9190  141.2818  159.8646 C   0  0  0  0  0  0  0  0  0  0  0  0
  152.6210  142.5252  160.4662 C   0  0  0  0  0  0  0  0  0  0  0  0
  153.1567  142.8206  161.8561 C   0  0  0  0  0  0  0  0  0  0  0  0
  151.8328  143.4788  159.7733 C   0  0  0  0  0  0  0  0  0  0  0  0
  151.5024  144.8227  160.3982 C   0  0  0  0  0  0  0  0  0  0  0  0
  151.3443  143.1811  158.4840 C   0  0  0  0  0  0  0  0  0  0  0  0
  151.6477  141.9405  157.8956 C   0  0  0  0  0  0  0  0  0  0  0  0
  146.0869  137.8502  152.5770 C   0  0  0  0  0  0  0  0  0  0  0  0
  145.0687  133.9023  150.3882 H   0  0  0  0  0  0  0  0  0  0  0  0
  144.9239  133.9067  152.1364 H   0  0  0  0  0  0  0  0  0  0  0  0
  146.5188  133.8596  151.3831 H   0  0  0  0  0  0  0  0  0  0  0  0
  146.0817  136.1219  150.3681 H   0  0  0  0  0  0  0  0  0  0  0  0
  144.5593  136.2354  151.2191 H   0  0  0  0  0  0  0  0  0  0  0  0
  144.8874  135.7921  153.9275 H   0  0  0  0  0  0  0  0  0  0  0  0
  146.1907  134.6463  153.6708 H   0  0  0  0  0  0  0  0  0  0  0  0
  146.4575  135.8829  155.8342 H   0  0  0  0  0  0  0  0  0  0  0  0
  147.8220  136.1593  154.7693 H   0  0  0  0  0  0  0  0  0  0  0  0
  147.9638  138.2275  153.5820 H   0  0  0  0  0  0  0  0  0  0  0  0
  145.7146  140.1916  153.5088 H   0  0  0  0  0  0  0  0  0  0  0  0
  146.5932  140.1428  155.0212 H   0  0  0  0  0  0  0  0  0  0  0  0
  148.4464  140.0651  152.9728 H   0  0  0  0  0  0  0  0  0  0  0  0
  148.8152  142.4726  153.6828 H   0  0  0  0  0  0  0  0  0  0  0  0
  147.5708  142.1094  154.8519 H   0  0  0  0  0  0  0  0  0  0  0  0
  148.8985  140.5809  156.0460 H   0  0  0  0  0  0  0  0  0  0  0  0
  150.0505  139.1651  155.0359 H   0  0  0  0  0  0  0  0  0  0  0  0
  151.2093  142.0967  154.7515 H   0  0  0  0  0  0  0  0  0  0  0  0
  150.1493  142.8739  155.9035 H   0  0  0  0  0  0  0  0  0  0  0  0
  151.8513  139.4549  155.8786 H   0  0  0  0  0  0  0  0  0  0  0  0
  153.5202  140.5555  160.3915 H   0  0  0  0  0  0  0  0  0  0  0  0
  153.8474  143.6635  161.8266 H   0  0  0  0  0  0  0  0  0  0  0  0
  153.6899  141.9635  162.2684 H   0  0  0  0  0  0  0  0  0  0  0  0
  152.3414  143.0644  162.5375 H   0  0  0  0  0  0  0  0  0  0  0  0
  150.9392  145.4536  159.7098 H   0  0  0  0  0  0  0  0  0  0  0  0
  152.4151  145.3549  160.6669 H   0  0  0  0  0  0  0  0  0  0  0  0
  150.9013  144.6876  161.2975 H   0  0  0  0  0  0  0  0  0  0  0  0
  150.7409  143.8983  157.9475 H   0  0  0  0  0  0  0  0  0  0  0  0
  146.4001  138.3413  151.6547 H   0  0  0  0  0  0  0  0  0  0  0  0
  145.0258  138.0670  152.7123 H   0  0  0  0  0  0  0  0  0  0  0  0
  147.2683  136.2449  152.2825 H   0  0  0  0  0  0  0  0  0  0  0  0
  1  2  1  0  0  0  0
  1 26  1  0  0  0  0
  1 27  1  0  0  0  0
  1 28  1  0  0  0  0
  2  3  1  0  0  0  0
  2 29  1  0  0  0  0
  2 30  1  0  0  0  0
  3 25  1  0  0  0  0
  3  4  1  0  0  0  0
  3 56  1  0  0  0  0
  4  5  1  0  0  0  0
  4 31  1  0  0  0  0
  4 32  1  0  0  0  0
  5  6  1  0  0  0  0
  5 33  1  0  0  0  0
  5 34  1  0  0  0  0
  6  7  1  0  0  0  0
  7  8  1  0  0  0  0
  7 25  1  0  0  0  0
  7 35  1  0  0  0  0
  8  9  1  0  0  0  0
  8 36  1  0  0  0  0
  8 37  1  0  0  0  0
  9 10  1  0  0  0  0
  9 38  1  0  0  0  0
 10 11  1  0  0  0  0
 10 39  1  0  0  0  0
 10 40  1  0  0  0  0
 11 12  1  0  0  0  0
 11 13  1  0  0  0  0
 11 41  1  0  0  0  0
 12 42  1  0  0  0  0
 13 14  1  0  0  0  0
 13 43  1  0  0  0  0
 13 44  1  0  0  0  0
 14 24  1  0  0  0  0
 14 15  1  0  0  0  0
 15 16  2  0  0  0  0
 15 45  1  0  0  0  0
 16 17  1  0  0  0  0
 17 24  2  0  0  0  0
 17 18  1  0  0  0  0
 18 19  2  0  0  0  0
 18 46  1  0  0  0  0
 19 20  1  0  0  0  0
 19 21  1  0  0  0  0
 20 47  1  0  0  0  0
 20 48  1  0  0  0  0
 20 49  1  0  0  0  0
 21 22  1  0  0  0  0
 21 23  2  0  0  0  0
 22 50  1  0  0  0  0
 22 51  1  0  0  0  0
 22 52  1  0  0  0  0
 23 24  1  0  0  0  0
 23 53  1  0  0  0  0
 25 54  1  0  0  0  0
 25 55  1  0  0  0  0
M  CHG  1   3   1
M  END
> <s_m_source_file>
AV-unprocessed.smi

> <i_m_source_file_index>
1047

> <i_lp_mmshare_version>
43012

> <i_f3d_flags>
0

> <s_epik_input>
W0NIM11bQ0gyXU4xW0NIMl1bQ0gyXU9bQ0BIXShbQ0gyXTEpW0NIMl1bTkhdW0NIMl1bQ0BIXShbT0hdKVtDSDJdbihbY0hdbjIpYyhjMjMpW2NIXWMoW0NIM10pYyhbY0hdMylbQ0gzXQ==

> <s_epik_cmdline>
J2VwaWtfcHl0aG9uJywgJy1waCcsICc3LjAnLCAnLXRuJywgJzgnLCAnLW1hJywgJzIwMCcsICctbWV0YWxfYmluZGluZycsICctaW1hZScsICc8aW5maWxlLm1hZT4nLCAnLW9tYWUnLCAnPG91dGZpbGUubWFlPic=

> <r_epik_Ionization_Penalty>
1.19246

> <r_epik_Ionization_Penalty_Charging>
0.210041

> <r_epik_Ionization_Penalty_Neutral>
0.982415

> <r_epik_State_Penalty>
1.57595

> <r_epik_Charging_Adjusted_Penalty>
1.78599

> <i_epik_Tot_Q>
1

> <i_epik_Tot_abs_Q>
1

> <r_epik_Metal_State_Penalty>
1.46172

> <b_epik_Metal_Only>
0

> <s_lp_Force_Field>
OPLS_2005

> <r_lp_Energy>
30.8486

> <b_lp_Chiralities_Consistent>
1

> <s_lp_Variant>
AV-unprocessed.smi:1047-20

> <Gold.Version>
5.8.1

> <Gold.Id.Protein>
6NUR|6NUR_protein|mol2

> <Gold.PLP.Fitness>
61.0553

> <Gold.PLP.PLP>
-49.8571

> <Gold.PLP.part.hbond>
-4.6682

> <Gold.PLP.part.metal>
0.0000

> <Gold.PLP.part.buried>
-3.7145

> <Gold.PLP.part.nonpolar>
-40.8329

> <Gold.PLP.part.repulsive>
0.1236

> <Gold.PLP.ligand.clash>
0.0000

> <Gold.PLP.ligand.torsion>
1.5780

> <Gold.PLP.Chemscore.Hbond>
4.7263

> <Gold.PLP.Chemscore.CHOScore>
0.0000

> <Gold.PLP.Chemscore.Metal>
0.0000

> <Gold.Chemscore.Hbonds>
donor molecule, donor type, donor heavy atom, donor atom, acceptor molecule, acceptor atom, score
      L1  H     3    56       P1  7948  2.00
      L1  H     9    38       P1  7957  0.46
      P1  H  7989  7998       L1    12  0.73
      P1  H  7997  8008       L1    16  0.64

> <Gold.PLP.Chemscore.Internal.Correction>
0.1755

> <Gold.Rescore>
     Score         DG    S(hbond)    S(metal)    S(lipo)     H(rot)  DE(clash)    DE(int)     intcor
     20.66     -23.57       2.78        0.00     132.63       2.62       0.23       2.68       ----

> <Gold.Chemscore.Fitness>
20.6595

> <Gold.Chemscore.DG>
-23.5651

> <Gold.Chemscore.ZeroCoef>
-5.4800

> <Gold.Chemscore.Hbond>
2.7774

> <Gold.Chemscore.Metal>
0.0000

> <Gold.Chemscore.Lipo>
132.6340

> <Gold.Chemscore.Internal_Hbond>
0.0000

> <Gold.Chemscore.DEClash>
0.2280

> <Gold.Chemscore.DEInternal>
2.6776

> <Gold.Chemscore.Rot>
2.6209

> <Gold.Chemscore.Internal.Correction>
   9.000000E+99

> <Gold.Chemscore.Hbonds>
donor molecule, donor type, donor heavy atom, donor atom, acceptor molecule, acceptor atom, score
      L1  H     3    56       P1  7948  1.00
      L1  H     9    38       P1  7957  0.47
      P1  H  7989  7998       L1    12  0.21
      P1  H  7997  8008       L1    16  0.04

> <Gold.Chemscore.Hbond.Weighted>
-9.2766

> <Gold.Chemscore.Metal.Weighted>
-0.0000

> <Gold.Chemscore.Lipo.Weighted>
-15.5182

> <Gold.Chemscore.Internal_Hbond.Weighted>
0.0000

> <Gold.Chemscore.DEClash.Weighted>
0.2280

> <Gold.Chemscore.DEInternal.Weighted>
2.6776

> <Gold.Chemscore.Rot.Weighted>
6.7096

> <Gold.Chemscore.Internal.Correction.Weighted>
   9.000000E+99

> <Gold.Protein.RotatedTorsions>
[ 6907 6896 6895 6894 ] final  -16.17 input  -60.11 | X-H torsion
[ 7974 7965 7964 7962 ] final   38.05 input  175.53 | X-H torsion
[ 8008 7997 7996 7995 ] final  -79.43 input   59.86 | X-H torsion
[ 10167 10162 10161 10158 ] final -168.80 input  -65.29 | X-H torsion
[ 10718 10713 10712 10709 ] final   31.72 input   66.30 | X-H torsion
[ 10763 10752 10751 10750 ] final  -41.80 input  -60.55 | X-H torsion
[ 11005 11000 10999 10996 ] final -127.84 input  -57.11 | X-H torsion

> <Gold.Protein.ActiveResidues>
 VAL166  LYS551  ARG553  GLY616  TRP617  ASP618  TYR619  PRO620  LYS621  CYS622 
 ASP623  PHE694  ASN695  SER759  ASP760  ASP761  ALA762  ILE779  LEU786  VAL792 
 PHE793  MET794  SER795  GLU796  ALA797  LYS798  CYS799  TRP800  GLU811  SER814 

> <Gold.Protein.RotatedAtoms>
  151.3128  135.0798  159.9277 H   0  0  0  0  0  0  0  0  0  0  0  0  # atno 6907 bound_to 6896
  152.5274  133.9719  159.7776 H   0  0  0  0  0  0  0  0  0  0  0  0  # atno 6908 bound_to 6896
  151.0025  133.5990  159.2723 H   0  0  0  0  0  0  0  0  0  0  0  0  # atno 6909 bound_to 6896
  146.1092  139.5820  142.9364 H   0  0  0  0  0  0  0  0  0  0  0  0  # atno 7974 bound_to 7965
  154.5784  140.0678  156.9068 H   0  0  0  0  0  0  0  0  0  0  0  0  # atno 8008 bound_to 7997
  155.2507  140.3351  155.4264 H   0  0  0  0  0  0  0  0  0  0  0  0  # atno 8009 bound_to 7997
  156.2171  140.1783  156.7549 H   0  0  0  0  0  0  0  0  0  0  0  0  # atno 8010 bound_to 7997
  139.5962  144.1106  152.1692 H   0  0  0  0  0  0  0  0  0  0  0  0  # atno 10167 bound_to 10162
  157.2760  130.7231  149.6530 H   0  0  0  0  0  0  0  0  0  0  0  0  # atno 10718 bound_to 10713
  153.9684  135.6731  153.4746 H   0  0  0  0  0  0  0  0  0  0  0  0  # atno 10763 bound_to 10752
  153.0804  135.4926  154.8488 H   0  0  0  0  0  0  0  0  0  0  0  0  # atno 10764 bound_to 10752
  154.7233  135.3122  154.8973 H   0  0  0  0  0  0  0  0  0  0  0  0  # atno 10765 bound_to 10752
  140.9566  134.0993  157.4010 H   0  0  0  0  0  0  0  0  0  0  0  0  # atno 11005 bound_to 11000
  145.5699  141.0395  143.2180 LP  0  0  0  0  0  0  0  0  0  0  0  0  # atno 17320 bound_to 7965
  144.7496  139.7228  143.7278 LP  0  0  0  0  0  0  0  0  0  0  0  0  # atno 17321 bound_to 7965
  140.0692  144.5793  150.7204 LP  0  0  0  0  0  0  0  0  0  0  0  0  # atno 17342 bound_to 10162
  140.7214  143.2592  151.4266 LP  0  0  0  0  0  0  0  0  0  0  0  0  # atno 17343 bound_to 10162
  155.9664  130.4352  150.5084 LP  0  0  0  0  0  0  0  0  0  0  0  0  # atno 17370 bound_to 10713
  157.3018  131.0646  151.2063 LP  0  0  0  0  0  0  0  0  0  0  0  0  # atno 17371 bound_to 10713
  139.8864  135.0081  156.6498 LP  0  0  0  0  0  0  0  0  0  0  0  0  # atno 17394 bound_to 11000
  140.7527  133.8884  155.8359 LP  0  0  0  0  0  0  0  0  0  0  0  0  # atno 17395 bound_to 11000

$$$$
