AV-unprocessed.smi:1338|AV-procd|sdf|5501|dock2
  -GOLD-   22720 5 83D 1   1.00000     0.00000
 Structure written by MMmdl.
 39 40  0  0  0  0  0  0  0  0  2 V2000
  148.4293  140.1684  153.7859 C   0  0  0  0  0  0  0  0  0  0  0  0
  149.4690  139.8099  154.8263 C   0  0  0  0  0  0  0  0  0  0  0  0
  149.0894  139.4714  155.9992 N   0  0  0  0  0  0  0  0  0  0  0  0
  150.0506  139.1328  156.9667 C   0  0  0  0  0  0  0  0  0  0  0  0
  149.5067  138.7400  158.3295 C   0  0  0  0  0  0  0  0  0  0  0  0
  151.3835  139.1608  156.6778 C   0  0  0  0  0  0  0  0  0  0  0  0
  152.4670  138.7954  157.6915 C   0  0  0  0  0  0  0  0  0  0  0  0
  152.9386  139.9417  158.5877 C   0  0  0  0  0  0  0  0  0  0  0  0
  153.7505  139.7276  159.4875 O   0  0  0  0  0  0  0  0  0  0  0  0
  152.4229  141.1540  158.3309 N   0  0  0  0  0  0  0  0  0  0  0  0
  152.7435  142.3791  159.0559 C   0  0  0  0  0  0  0  0  0  0  0  0
  152.4347  142.2186  160.5594 C   0  0  0  0  0  0  0  0  0  0  0  0
  152.6894  143.5248  161.3287 C   0  0  0  0  0  0  0  0  0  0  0  0
  151.8935  144.6921  160.7247 C   0  0  0  0  0  0  0  0  0  0  0  0
  152.2049  144.8593  159.2290 C   0  0  0  0  0  0  0  0  0  0  0  0
  151.9489  143.5550  158.4566 C   0  0  0  0  0  0  0  0  0  0  0  0
  151.7793  139.5620  155.3156 C   0  0  0  0  0  0  0  0  0  0  0  0
  152.9683  139.6157  155.0038 O   0  0  0  0  0  0  0  0  0  0  0  0
  150.7866  139.8687  154.4325 N   0  5  0  0  0  0  0  0  0  0  0  0
  147.4388  140.2570  154.2341 H   0  0  0  0  0  0  0  0  0  0  0  0
  148.3891  139.3986  153.0148 H   0  0  0  0  0  0  0  0  0  0  0  0
  148.6754  141.1198  153.3131 H   0  0  0  0  0  0  0  0  0  0  0  0
  149.8204  137.7301  158.5931 H   0  0  0  0  0  0  0  0  0  0  0  0
  148.4164  138.7628  158.3406 H   0  0  0  0  0  0  0  0  0  0  0  0
  149.8620  139.4281  159.0965 H   0  0  0  0  0  0  0  0  0  0  0  0
  152.0966  137.9807  158.3142 H   0  0  0  0  0  0  0  0  0  0  0  0
  153.3398  138.3757  157.1906 H   0  0  0  0  0  0  0  0  0  0  0  0
  151.7648  141.2344  157.5695 H   0  0  0  0  0  0  0  0  0  0  0  0
  153.8071  142.5939  158.9346 H   0  0  0  0  0  0  0  0  0  0  0  0
  151.3942  141.9188  160.6925 H   0  0  0  0  0  0  0  0  0  0  0  0
  153.0428  141.4203  160.9866 H   0  0  0  0  0  0  0  0  0  0  0  0
  152.4224  143.3957  162.3779 H   0  0  0  0  0  0  0  0  0  0  0  0
  153.7547  143.7584  161.3074 H   0  0  0  0  0  0  0  0  0  0  0  0
  150.8255  144.5153  160.8590 H   0  0  0  0  0  0  0  0  0  0  0  0
  152.1234  145.6147  161.2583 H   0  0  0  0  0  0  0  0  0  0  0  0
  151.5991  145.6637  158.8108 H   0  0  0  0  0  0  0  0  0  0  0  0
  153.2460  145.1594  159.1041 H   0  0  0  0  0  0  0  0  0  0  0  0
  152.2170  143.6910  157.4081 H   0  0  0  0  0  0  0  0  0  0  0  0
  150.8817  143.3290  158.4757 H   0  0  0  0  0  0  0  0  0  0  0  0
  1  2  1  0  0  0  0
  1 20  1  0  0  0  0
  1 21  1  0  0  0  0
  1 22  1  0  0  0  0
  2 19  1  0  0  0  0
  2  3  2  0  0  0  0
  3  4  1  0  0  0  0
  4  5  1  0  0  0  0
  4  6  2  0  0  0  0
  5 23  1  0  0  0  0
  5 24  1  0  0  0  0
  5 25  1  0  0  0  0
  6  7  1  0  0  0  0
  6 17  1  0  0  0  0
  7  8  1  0  0  0  0
  7 26  1  0  0  0  0
  7 27  1  0  0  0  0
  8  9  2  0  0  0  0
  8 10  1  0  0  0  0
 10 11  1  0  0  0  0
 10 28  1  0  0  0  0
 11 16  1  0  0  0  0
 11 12  1  0  0  0  0
 11 29  1  0  0  0  0
 12 13  1  0  0  0  0
 12 30  1  0  0  0  0
 12 31  1  0  0  0  0
 13 14  1  0  0  0  0
 13 32  1  0  0  0  0
 13 33  1  0  0  0  0
 14 15  1  0  0  0  0
 14 34  1  0  0  0  0
 14 35  1  0  0  0  0
 15 16  1  0  0  0  0
 15 36  1  0  0  0  0
 15 37  1  0  0  0  0
 16 38  1  0  0  0  0
 16 39  1  0  0  0  0
 17 18  2  0  0  0  0
 17 19  1  0  0  0  0
M  CHG  1  19  -1
M  END
> <s_m_source_file>
AV-unprocessed.smi

> <i_m_source_file_index>
1338

> <i_lp_mmshare_version>
43012

> <i_f3d_flags>
0

> <s_epik_input>
W0NIM11jMW5jKFtDSDNdKWMoYyg9TylbbkhdMSlbQ0gyXUMoPU8pW05IXVtDSF0yW0NIMl1bQ0gyXVtDSDJdW0NIMl1bQ0gyXTI=

> <s_epik_cmdline>
J2VwaWtfcHl0aG9uJywgJy1waCcsICc3LjAnLCAnLXRuJywgJzgnLCAnLW1hJywgJzIwMCcsICctbWV0YWxfYmluZGluZycsICctaW1hZScsICc8aW5maWxlLm1hZT4nLCAnLW9tYWUnLCAnPG91dGZpbGUubWFlPic=

> <r_lp_tautomer_probability>
0.839158

> <r_epik_Ionization_Penalty>
6.66811

> <r_epik_Ionization_Penalty_Charging>
7.5907e-08

> <r_epik_Ionization_Penalty_Neutral>
6.66811

> <r_epik_State_Penalty>
4.51402

> <r_epik_Charging_Adjusted_Penalty>
4.51402

> <i_epik_Tot_Q>
-1

> <i_epik_Tot_abs_Q>
1

> <r_epik_Metal_State_Penalty>
0.85041

> <b_epik_Metal_Only>
1

> <s_lp_Force_Field>
OPLS_2005

> <r_lp_Energy>
13.4348

> <b_lp_Chiralities_Consistent>
1

> <s_lp_Variant>
AV-unprocessed.smi:1338-3

> <Gold.Version>
5.8.1

> <Gold.Id.Protein>
6NUR|6NUR_protein|mol2

> <Gold.PLP.Fitness>
42.9330

> <Gold.PLP.PLP>
-37.6993

> <Gold.PLP.part.hbond>
-3.0000

> <Gold.PLP.part.metal>
0.0000

> <Gold.PLP.part.buried>
-1.4775

> <Gold.PLP.part.nonpolar>
-32.8925

> <Gold.PLP.part.repulsive>
0.2182

> <Gold.PLP.ligand.clash>
0.0000

> <Gold.PLP.ligand.torsion>
0.3850

> <Gold.PLP.Chemscore.Hbond>
2.0000

> <Gold.PLP.Chemscore.CHOScore>
0.0000

> <Gold.PLP.Chemscore.Metal>
0.0000

> <Gold.Chemscore.Hbonds>
donor molecule, donor type, donor heavy atom, donor atom, acceptor molecule, acceptor atom, score
      P1  H  7989  7998       L1    19  0.90
      P1  H  7997  8010       L1    18  1.00

> <Gold.PLP.Chemscore.Internal.Correction>
0.0037

> <Gold.Rescore>
     Score         DG    S(hbond)    S(metal)    S(lipo)     H(rot)  DE(clash)    DE(int)     intcor
     16.54     -18.79       1.82        0.00      93.88       1.46       0.71       1.54       ----

> <Gold.Chemscore.Fitness>
16.5412

> <Gold.Chemscore.DG>
-18.7913

> <Gold.Chemscore.ZeroCoef>
-5.4800

> <Gold.Chemscore.Hbond>
1.8151

> <Gold.Chemscore.Metal>
0.0000

> <Gold.Chemscore.Lipo>
93.8826

> <Gold.Chemscore.Internal_Hbond>
0.0000

> <Gold.Chemscore.DEClash>
0.7066

> <Gold.Chemscore.DEInternal>
1.5434

> <Gold.Chemscore.Rot>
1.4591

> <Gold.Chemscore.Internal.Correction>
   9.000000E+99

> <Gold.Chemscore.Hbonds>
donor molecule, donor type, donor heavy atom, donor atom, acceptor molecule, acceptor atom, score
      P1  H  7989  7998       L1    19  0.18
      P1  H  7997  8010       L1    18  1.00

> <Gold.Chemscore.Hbond.Weighted>
-6.0624

> <Gold.Chemscore.Metal.Weighted>
-0.0000

> <Gold.Chemscore.Lipo.Weighted>
-10.9843

> <Gold.Chemscore.Internal_Hbond.Weighted>
0.0000

> <Gold.Chemscore.DEClash.Weighted>
0.7066

> <Gold.Chemscore.DEInternal.Weighted>
1.5434

> <Gold.Chemscore.Rot.Weighted>
3.7353

> <Gold.Chemscore.Internal.Correction.Weighted>
   9.000000E+99

> <Gold.Protein.RotatedTorsions>
[ 6907 6896 6895 6894 ] final  178.11 input  -60.11 | X-H torsion
[ 7974 7965 7964 7962 ] final  -15.57 input  175.53 | X-H torsion
[ 8008 7997 7996 7995 ] final   97.44 input   59.86 | X-H torsion
[ 10167 10162 10161 10158 ] final  135.98 input  -65.29 | X-H torsion
[ 10718 10713 10712 10709 ] final  -44.62 input   66.30 | X-H torsion
[ 10763 10752 10751 10750 ] final -150.28 input  -60.55 | X-H torsion
[ 11005 11000 10999 10996 ] final   68.07 input  -57.11 | X-H torsion

> <Gold.Protein.ActiveResidues>
 VAL166  LYS551  ARG553  GLY616  TRP617  ASP618  TYR619  PRO620  LYS621  CYS622 
 ASP623  PHE694  ASN695  SER759  ASP760  ASP761  ALA762  ILE779  LEU786  VAL792 
 PHE793  MET794  SER795  GLU796  ALA797  LYS798  CYS799  TRP800  GLU811  SER814 

> <Gold.Protein.RotatedAtoms>
  151.6932  133.3311  159.3247 H   0  0  0  0  0  0  0  0  0  0  0  0  # atno 6907 bound_to 6896
  150.7769  134.6680  159.6385 H   0  0  0  0  0  0  0  0  0  0  0  0  # atno 6908 bound_to 6896
  152.3814  134.6587  160.0193 H   0  0  0  0  0  0  0  0  0  0  0  0  # atno 6909 bound_to 6896
  146.2026  140.3512  142.8418 H   0  0  0  0  0  0  0  0  0  0  0  0  # atno 7974 bound_to 7965
  156.0902  140.3258  155.7805 H   0  0  0  0  0  0  0  0  0  0  0  0  # atno 8008 bound_to 7997
  155.5009  140.0569  157.2956 H   0  0  0  0  0  0  0  0  0  0  0  0  # atno 8009 bound_to 7997
  154.4633  140.1977  156.0202 H   0  0  0  0  0  0  0  0  0  0  0  0  # atno 8010 bound_to 7997
  139.5197  144.6489  151.5361 H   0  0  0  0  0  0  0  0  0  0  0  0  # atno 10167 bound_to 10162
  156.2367  130.4176  149.8809 H   0  0  0  0  0  0  0  0  0  0  0  0  # atno 10718 bound_to 10713
  154.8128  135.3288  154.7258 H   0  0  0  0  0  0  0  0  0  0  0  0  # atno 10763 bound_to 10752
  153.7905  135.6911  153.4877 H   0  0  0  0  0  0  0  0  0  0  0  0  # atno 10764 bound_to 10752
  153.1920  135.4547  155.0108 H   0  0  0  0  0  0  0  0  0  0  0  0  # atno 10765 bound_to 10752
  139.9733  134.6864  156.0404 H   0  0  0  0  0  0  0  0  0  0  0  0  # atno 11005 bound_to 11000
  144.8718  140.7282  143.6042 LP  0  0  0  0  0  0  0  0  0  0  0  0  # atno 17320 bound_to 7965
  145.3431  139.1726  143.4475 LP  0  0  0  0  0  0  0  0  0  0  0  0  # atno 17321 bound_to 7965
  140.6285  143.9122  150.6585 LP  0  0  0  0  0  0  0  0  0  0  0  0  # atno 17342 bound_to 10162
  140.2419  143.3658  152.1480 LP  0  0  0  0  0  0  0  0  0  0  0  0  # atno 17343 bound_to 10162
  156.6405  130.8703  151.3513 LP  0  0  0  0  0  0  0  0  0  0  0  0  # atno 17370 bound_to 10713
  157.7157  130.9495  150.1248 LP  0  0  0  0  0  0  0  0  0  0  0  0  # atno 17371 bound_to 10713
  141.1411  133.6564  156.3734 LP  0  0  0  0  0  0  0  0  0  0  0  0  # atno 17394 bound_to 11000
  140.5248  134.6270  157.5330 LP  0  0  0  0  0  0  0  0  0  0  0  0  # atno 17395 bound_to 11000

$$$$
