AV-unprocessed.smi:1807|AV-procd|sdf|7301|dock9
  -GOLD-   22720 8553D 1   1.00000     0.00000
 Structure written by MMmdl.
 44 45  0  0  0  0  0  0  0  0  1 V2000
  151.5158  144.9832  158.1563 C   0  0  0  0  0  0  0  0  0  0  0  0
  151.5485  143.5553  158.7295 C   0  0  2  0  0  0  0  0  0  0  0  0
  152.6871  143.4097  159.7595 C   0  0  0  0  0  0  0  0  0  0  0  0
  152.7353  141.9981  160.3637 C   0  0  0  0  0  0  0  0  0  0  0  0
  152.8696  140.9330  159.2672 C   0  0  0  0  0  0  0  0  0  0  0  0
  151.7368  141.0590  158.2396 C   0  0  0  0  0  0  0  0  0  0  0  0
  151.6721  142.4744  157.6270 C   0  0  1  0  0  0  0  0  0  0  0  0
  150.5390  142.5487  156.7086 N   0  0  0  0  0  0  0  0  0  0  0  0
  150.2733  141.6720  155.7289 C   0  0  0  0  0  0  0  0  0  0  0  0
  151.0121  140.7295  155.4408 O   0  0  0  0  0  0  0  0  0  0  0  0
  148.9645  141.8972  154.9628 C   0  0  0  0  0  0  0  0  0  0  0  0
  147.7983  141.8683  155.8397 N   0  0  0  0  0  0  0  0  0  0  0  0
  146.5816  142.4025  155.3935 C   0  0  0  0  0  0  0  0  0  0  0  0
  146.4314  142.9635  154.0961 C   0  0  0  0  0  0  0  0  0  0  0  0
  145.1127  143.3192  154.0605 C   0  0  0  0  0  0  0  0  0  0  0  0
  144.5554  142.9752  155.2768 N   0  0  0  0  0  0  0  0  0  0  0  0
  143.1801  143.1297  155.7177 C   0  0  0  0  0  0  0  0  0  0  0  0
  142.5326  141.7784  156.0350 C   0  0  0  0  0  0  0  0  0  0  0  0
  142.4949  140.8703  155.0558 N   0  0  0  0  0  0  0  0  0  0  0  0
  142.0614  141.5605  157.1488 O   0  0  0  0  0  0  0  0  0  0  0  0
  145.4666  142.4259  156.1086 N   0  0  0  0  0  0  0  0  0  0  0  0
  152.4186  145.2003  157.5851 H   0  0  0  0  0  0  0  0  0  0  0  0
  151.4414  145.7233  158.9534 H   0  0  0  0  0  0  0  0  0  0  0  0
  150.6608  145.1337  157.4968 H   0  0  0  0  0  0  0  0  0  0  0  0
  150.6068  143.3937  159.2566 H   0  0  0  0  0  0  0  0  0  0  0  0
  153.6436  143.6328  159.2846 H   0  0  0  0  0  0  0  0  0  0  0  0
  152.5634  144.1413  160.5587 H   0  0  0  0  0  0  0  0  0  0  0  0
  153.5693  141.9201  161.0617 H   0  0  0  0  0  0  0  0  0  0  0  0
  151.8286  141.8159  160.9420 H   0  0  0  0  0  0  0  0  0  0  0  0
  153.8328  141.0393  158.7663 H   0  0  0  0  0  0  0  0  0  0  0  0
  152.8585  139.9372  159.7114 H   0  0  0  0  0  0  0  0  0  0  0  0
  151.8709  140.3120  157.4563 H   0  0  0  0  0  0  0  0  0  0  0  0
  150.7873  140.8275  158.7239 H   0  0  0  0  0  0  0  0  0  0  0  0
  152.5956  142.6586  157.0741 H   0  0  0  0  0  0  0  0  0  0  0  0
  149.8769  143.2947  156.8647 H   0  0  0  0  0  0  0  0  0  0  0  0
  148.9926  142.8393  154.4126 H   0  0  0  0  0  0  0  0  0  0  0  0
  148.8577  141.1060  154.2208 H   0  0  0  0  0  0  0  0  0  0  0  0
  147.9442  141.7366  156.8300 H   0  0  0  0  0  0  0  0  0  0  0  0
  147.1667  143.0754  153.3130 H   0  0  0  0  0  0  0  0  0  0  0  0
  144.5279  143.7764  153.2762 H   0  0  0  0  0  0  0  0  0  0  0  0
  143.1603  143.7718  156.5997 H   0  0  0  0  0  0  0  0  0  0  0  0
  142.6107  143.6372  154.9382 H   0  0  0  0  0  0  0  0  0  0  0  0
  142.0722  139.9682  155.2186 H   0  0  0  0  0  0  0  0  0  0  0  0
  142.8856  141.0933  154.1518 H   0  0  0  0  0  0  0  0  0  0  0  0
  1  2  1  0  0  0  0
  1 22  1  0  0  0  0
  1 23  1  0  0  0  0
  1 24  1  0  0  0  0
  2  7  1  0  0  0  0
  2  3  1  0  0  0  0
  2 25  1  0  0  0  0
  3  4  1  0  0  0  0
  3 26  1  0  0  0  0
  3 27  1  0  0  0  0
  4  5  1  0  0  0  0
  4 28  1  0  0  0  0
  4 29  1  0  0  0  0
  5  6  1  0  0  0  0
  5 30  1  0  0  0  0
  5 31  1  0  0  0  0
  6  7  1  0  0  0  0
  6 32  1  0  0  0  0
  6 33  1  0  0  0  0
  7  8  1  0  0  0  0
  7 34  1  0  0  0  0
  8  9  1  0  0  0  0
  8 35  1  0  0  0  0
  9 10  2  0  0  0  0
  9 11  1  0  0  0  0
 11 12  1  0  0  0  0
 11 36  1  0  0  0  0
 11 37  1  0  0  0  0
 12 13  1  0  0  0  0
 12 38  1  0  0  0  0
 13 21  2  0  0  0  0
 13 14  1  0  0  0  0
 14 15  2  0  0  0  0
 14 39  1  0  0  0  0
 15 16  1  0  0  0  0
 15 40  1  0  0  0  0
 16 17  1  0  0  0  0
 16 21  1  0  0  0  0
 17 18  1  0  0  0  0
 17 41  1  0  0  0  0
 17 42  1  0  0  0  0
 18 19  1  0  0  0  0
 18 20  2  0  0  0  0
 19 43  1  0  0  0  0
 19 44  1  0  0  0  0
M  END
> <s_m_source_file>
AV-unprocessed.smi

> <i_m_source_file_index>
1807

> <i_lp_mmshare_version>
43012

> <i_f3d_flags>
0

> <s_epik_input>
W0NIM11bQ0BASF0xW0NIMl1bQ0gyXVtDSDJdW0NIMl1bQ0BIXTFbTkhdQyg9TylbQ0gyXVtOSF1jMltjSF1bY0hdbihuMilbQ0gyXUMoPU8pW05IMl0=

> <s_epik_cmdline>
J2VwaWtfcHl0aG9uJywgJy1waCcsICc3LjAnLCAnLXRuJywgJzgnLCAnLW1hJywgJzIwMCcsICctbWV0YWxfYmluZGluZycsICctaW1hZScsICc8aW5maWxlLm1hZT4nLCAnLW9tYWUnLCAnPG91dGZpbGUubWFlPic=

> <r_lp_tautomer_probability>
1

> <r_epik_Ionization_Penalty>
0.000167642

> <r_epik_Ionization_Penalty_Charging>
0

> <r_epik_Ionization_Penalty_Neutral>
0.000167642

> <r_epik_State_Penalty>
-0

> <r_epik_Charging_Adjusted_Penalty>
0

> <i_epik_Tot_Q>
0

> <i_epik_Tot_abs_Q>
0

> <r_epik_Metal_State_Penalty>
-0

> <b_epik_Metal_Only>
0

> <s_lp_Force_Field>
OPLS_2005

> <r_lp_Energy>
5.76299

> <b_lp_Chiralities_Consistent>
1

> <s_lp_Variant>
AV-unprocessed.smi:1807-1

> <Gold.Version>
5.8.1

> <Gold.Id.Protein>
6NUR|6NUR_protein|mol2

> <Gold.PLP.Fitness>
47.0248

> <Gold.PLP.PLP>
-37.9266

> <Gold.PLP.part.hbond>
-4.0977

> <Gold.PLP.part.metal>
0.0000

> <Gold.PLP.part.buried>
-2.9362

> <Gold.PLP.part.nonpolar>
-31.4682

> <Gold.PLP.part.repulsive>
0.2390

> <Gold.PLP.ligand.clash>
0.0000

> <Gold.PLP.ligand.torsion>
0.1964

> <Gold.PLP.Chemscore.Hbond>
2.4267

> <Gold.PLP.Chemscore.CHOScore>
0.7323

> <Gold.PLP.Chemscore.Metal>
0.0000

> <Gold.Chemscore.Hbonds>
donor molecule, donor type, donor heavy atom, donor atom, acceptor molecule, acceptor atom, score
      L1  H     8    35       P1  8028  0.60
      L1  H    19    44       P1 10175  0.99
      P1  H  7989  7998       L1    10  0.82
      L1  C    15    40       P1 10174  0.74

> <Gold.PLP.Chemscore.Internal.Correction>
0.0142

> <Gold.Rescore>
     Score         DG    S(hbond)    S(metal)    S(lipo)     H(rot)  DE(clash)    DE(int)     intcor
     14.43     -17.15       2.24        0.00      93.38       2.64       1.21       1.51       ----

> <Gold.Chemscore.Fitness>
14.4315

> <Gold.Chemscore.DG>
-17.1509

> <Gold.Chemscore.ZeroCoef>
-5.4800

> <Gold.Chemscore.Hbond>
2.2442

> <Gold.Chemscore.Metal>
0.0000

> <Gold.Chemscore.Lipo>
93.3804

> <Gold.Chemscore.Internal_Hbond>
0.0000

> <Gold.Chemscore.DEClash>
1.2123

> <Gold.Chemscore.DEInternal>
1.5071

> <Gold.Chemscore.Rot>
2.6369

> <Gold.Chemscore.Internal.Correction>
   9.000000E+99

> <Gold.Chemscore.Hbonds>
donor molecule, donor type, donor heavy atom, donor atom, acceptor molecule, acceptor atom, score
      L1  H     8    35       P1  8028  0.58
      L1  H    19    44       P1 10175  0.24
      P1  H  7989  7998       L1    10  0.56

> <Gold.Chemscore.Hbond.Weighted>
-7.4958

> <Gold.Chemscore.Metal.Weighted>
-0.0000

> <Gold.Chemscore.Lipo.Weighted>
-10.9255

> <Gold.Chemscore.Internal_Hbond.Weighted>
0.0000

> <Gold.Chemscore.DEClash.Weighted>
1.2123

> <Gold.Chemscore.DEInternal.Weighted>
1.5071

> <Gold.Chemscore.Rot.Weighted>
6.7504

> <Gold.Chemscore.Internal.Correction.Weighted>
   9.000000E+99

> <Gold.Protein.RotatedTorsions>
[ 6907 6896 6895 6894 ] final -104.07 input  -60.11 | X-H torsion
[ 7974 7965 7964 7962 ] final -142.11 input  175.53 | X-H torsion
[ 8008 7997 7996 7995 ] final   45.31 input   59.86 | X-H torsion
[ 10167 10162 10161 10158 ] final -169.71 input  -65.29 | X-H torsion
[ 10718 10713 10712 10709 ] final  -42.48 input   66.30 | X-H torsion
[ 10763 10752 10751 10750 ] final  120.01 input  -60.55 | X-H torsion
[ 11005 11000 10999 10996 ] final  -33.39 input  -57.11 | X-H torsion

> <Gold.Protein.ActiveResidues>
 VAL166  LYS551  ARG553  GLY616  TRP617  ASP618  TYR619  PRO620  LYS621  CYS622 
 ASP623  PHE694  ASN695  SER759  ASP760  ASP761  ALA762  ILE779  LEU786  VAL792 
 PHE793  MET794  SER795  GLU796  ALA797  LYS798  CYS799  TRP800  GLU811  SER814 

> <Gold.Protein.RotatedAtoms>
  150.7269  134.0334  159.3740 H   0  0  0  0  0  0  0  0  0  0  0  0  # atno 6907 bound_to 6896
  151.8304  135.0621  160.0445 H   0  0  0  0  0  0  0  0  0  0  0  0  # atno 6908 bound_to 6896
  152.2937  133.5551  159.5610 H   0  0  0  0  0  0  0  0  0  0  0  0  # atno 6909 bound_to 6896
  144.8468  140.5998  143.5416 H   0  0  0  0  0  0  0  0  0  0  0  0  # atno 7974 bound_to 7965
  155.3338  140.3404  155.4239 H   0  0  0  0  0  0  0  0  0  0  0  0  # atno 8008 bound_to 7997
  156.1848  140.1676  156.8242 H   0  0  0  0  0  0  0  0  0  0  0  0  # atno 8009 bound_to 7997
  154.5374  140.0732  156.8434 H   0  0  0  0  0  0  0  0  0  0  0  0  # atno 8010 bound_to 7997
  139.5906  144.1222  152.1629 H   0  0  0  0  0  0  0  0  0  0  0  0  # atno 10167 bound_to 10162
  156.2592  130.4195  149.8561 H   0  0  0  0  0  0  0  0  0  0  0  0  # atno 10718 bound_to 10713
  153.5918  135.3464  155.2913 H   0  0  0  0  0  0  0  0  0  0  0  0  # atno 10763 bound_to 10752
  154.8651  135.4206  154.2508 H   0  0  0  0  0  0  0  0  0  0  0  0  # atno 10764 bound_to 10752
  153.3317  135.7044  153.7013 H   0  0  0  0  0  0  0  0  0  0  0  0  # atno 10765 bound_to 10752
  140.9631  133.7153  156.1402 H   0  0  0  0  0  0  0  0  0  0  0  0  # atno 11005 bound_to 11000
  145.4580  139.1516  143.3882 LP  0  0  0  0  0  0  0  0  0  0  0  0  # atno 17320 bound_to 7965
  146.2751  140.4709  142.8799 LP  0  0  0  0  0  0  0  0  0  0  0  0  # atno 17321 bound_to 7965
  140.0795  144.5712  150.7132 LP  0  0  0  0  0  0  0  0  0  0  0  0  # atno 17342 bound_to 10162
  140.7169  143.2553  151.4403 LP  0  0  0  0  0  0  0  0  0  0  0  0  # atno 17343 bound_to 10162
  156.6083  130.8576  151.3448 LP  0  0  0  0  0  0  0  0  0  0  0  0  # atno 17370 bound_to 10713
  157.7244  130.9602  150.1572 LP  0  0  0  0  0  0  0  0  0  0  0  0  # atno 17371 bound_to 10713
  140.7438  134.4120  157.5551 LP  0  0  0  0  0  0  0  0  0  0  0  0  # atno 17394 bound_to 11000
  139.8885  134.8855  156.2471 LP  0  0  0  0  0  0  0  0  0  0  0  0  # atno 17395 bound_to 11000

$$$$
