AV-unprocessed.smi:2973|AV-procd|sdf|11340|dock9
  -GOLD-   2272016253D 1   1.00000     0.00000
 Structure written by MMmdl.
 49 51  0  0  0  0  0  0  0  0  1 V2000
  149.9740  133.0877  155.1087 C   0  0  0  0  0  0  0  0  0  0  0  0
  148.6751  133.9167  155.1969 C   0  0  1  0  0  0  0  0  0  0  0  0
  147.6383  133.2123  156.0986 C   0  0  0  0  0  0  0  0  0  0  0  0
  146.3011  133.9689  156.1235 C   0  0  0  0  0  0  0  0  0  0  0  0
  146.4882  135.4269  156.5658 C   0  0  0  0  0  0  0  0  0  0  0  0
  147.5199  136.1497  155.6810 C   0  0  0  0  0  0  0  0  0  0  0  0
  148.8801  135.4109  155.6038 C   0  0  2  0  0  0  0  0  0  0  0  0
  149.7533  136.0944  154.6654 N   0  0  0  0  0  0  0  0  0  0  0  0
  150.8556  136.5952  155.2366 C   0  0  0  0  0  0  0  0  0  0  0  0
  151.7364  137.2211  154.6492 O   0  0  0  0  0  0  0  0  0  0  0  0
  150.8269  136.2928  156.5462 N   0  0  0  0  0  0  0  0  0  0  0  0
  151.8651  136.6885  157.5071 C   0  0  0  0  0  0  0  0  0  0  0  0
  152.3927  138.1139  157.2896 C   0  0  0  0  0  0  0  0  0  0  0  0
  153.5605  138.3170  156.9534 O   0  0  0  0  0  0  0  0  0  0  0  0
  151.5025  139.0987  157.4808 N   0  0  0  0  0  0  0  0  0  0  0  0
  151.7803  140.5224  157.3307 C   0  0  0  0  0  0  0  0  0  0  0  0
  152.5263  141.0873  158.5512 C   0  0  0  0  0  0  0  0  0  0  0  0
  152.1253  142.5180  158.8574 C   0  0  0  0  0  0  0  0  0  0  0  0
  152.4433  143.1056  160.1009 C   0  0  0  0  0  0  0  0  0  0  0  0
  152.0517  144.4385  160.3327 C   0  0  0  0  0  0  0  0  0  0  0  0
  151.3627  145.1295  159.3174 C   0  0  0  0  0  0  0  0  0  0  0  0
  151.0947  144.4539  158.1101 C   0  0  0  0  0  0  0  0  0  0  0  0
  151.4649  143.1760  157.8780 N   0  0  0  0  0  0  0  0  0  0  0  0
  149.7177  135.6134  156.8689 C   0  0  0  0  0  0  0  0  0  0  0  0
  149.4044  135.2069  157.9880 O   0  0  0  0  0  0  0  0  0  0  0  0
  150.4551  132.9827  156.0816 H   0  0  0  0  0  0  0  0  0  0  0  0
  150.6946  133.5382  154.4261 H   0  0  0  0  0  0  0  0  0  0  0  0
  149.7675  132.0829  154.7392 H   0  0  0  0  0  0  0  0  0  0  0  0
  148.2566  133.9234  154.1892 H   0  0  0  0  0  0  0  0  0  0  0  0
  147.4666  132.1969  155.7400 H   0  0  0  0  0  0  0  0  0  0  0  0
  148.0225  133.1112  157.1139 H   0  0  0  0  0  0  0  0  0  0  0  0
  145.8502  133.9443  155.1306 H   0  0  0  0  0  0  0  0  0  0  0  0
  145.6021  133.4652  156.7917 H   0  0  0  0  0  0  0  0  0  0  0  0
  145.5333  135.9508  156.5195 H   0  0  0  0  0  0  0  0  0  0  0  0
  146.7984  135.4573  157.6102 H   0  0  0  0  0  0  0  0  0  0  0  0
  147.1097  136.2520  154.6753 H   0  0  0  0  0  0  0  0  0  0  0  0
  147.6587  137.1674  156.0496 H   0  0  0  0  0  0  0  0  0  0  0  0
  149.5336  136.1849  153.6841 H   0  0  0  0  0  0  0  0  0  0  0  0
  151.4830  136.6123  158.5264 H   0  0  0  0  0  0  0  0  0  0  0  0
  152.7016  135.9896  157.4523 H   0  0  0  0  0  0  0  0  0  0  0  0
  150.5647  138.8437  157.7554 H   0  0  0  0  0  0  0  0  0  0  0  0
  152.3863  140.6538  156.4339 H   0  0  0  0  0  0  0  0  0  0  0  0
  150.8510  141.0687  157.1599 H   0  0  0  0  0  0  0  0  0  0  0  0
  152.3327  140.4732  159.4320 H   0  0  0  0  0  0  0  0  0  0  0  0
  153.6029  141.0458  158.3809 H   0  0  0  0  0  0  0  0  0  0  0  0
  152.9748  142.5505  160.8601 H   0  0  0  0  0  0  0  0  0  0  0  0
  152.2760  144.9220  161.2720 H   0  0  0  0  0  0  0  0  0  0  0  0
  151.0469  146.1523  159.4600 H   0  0  0  0  0  0  0  0  0  0  0  0
  150.5697  144.9533  157.3092 H   0  0  0  0  0  0  0  0  0  0  0  0
  1  2  1  0  0  0  0
  1 26  1  0  0  0  0
  1 27  1  0  0  0  0
  1 28  1  0  0  0  0
  2  7  1  0  0  0  0
  2  3  1  0  0  0  0
  2 29  1  0  0  0  0
  3  4  1  0  0  0  0
  3 30  1  0  0  0  0
  3 31  1  0  0  0  0
  4  5  1  0  0  0  0
  4 32  1  0  0  0  0
  4 33  1  0  0  0  0
  5  6  1  0  0  0  0
  5 34  1  0  0  0  0
  5 35  1  0  0  0  0
  6  7  1  0  0  0  0
  6 36  1  0  0  0  0
  6 37  1  0  0  0  0
  7 24  1  0  0  0  0
  7  8  1  0  0  0  0
  8  9  1  0  0  0  0
  8 38  1  0  0  0  0
  9 10  2  0  0  0  0
  9 11  1  0  0  0  0
 11 12  1  0  0  0  0
 11 24  1  0  0  0  0
 12 13  1  0  0  0  0
 12 39  1  0  0  0  0
 12 40  1  0  0  0  0
 13 14  2  0  0  0  0
 13 15  1  0  0  0  0
 15 16  1  0  0  0  0
 15 41  1  0  0  0  0
 16 17  1  0  0  0  0
 16 42  1  0  0  0  0
 16 43  1  0  0  0  0
 17 18  1  0  0  0  0
 17 44  1  0  0  0  0
 17 45  1  0  0  0  0
 18 23  1  0  0  0  0
 18 19  2  0  0  0  0
 19 20  1  0  0  0  0
 19 46  1  0  0  0  0
 20 21  2  0  0  0  0
 20 47  1  0  0  0  0
 21 22  1  0  0  0  0
 21 48  1  0  0  0  0
 22 23  2  0  0  0  0
 22 49  1  0  0  0  0
 24 25  2  0  0  0  0
M  END
> <s_m_source_file>
AV-unprocessed.smi

> <i_m_source_file_index>
2973

> <i_lp_mmshare_version>
43012

> <i_f3d_flags>
0

> <s_epik_input>
W0NIMl0xW0NIMl1bQ0gyXVtDSDJdW0NAQEhdKFtDSDNdKVtDQF0xMltOSF1DKD1PKU4oQzI9TylbQ0gyXUMoPU8pW05IXVtDSDJdW0NIMl1jM1tjSF1bY0hdW2NIXVtjSF1uMw==

> <s_epik_cmdline>
J2VwaWtfcHl0aG9uJywgJy1waCcsICc3LjAnLCAnLXRuJywgJzgnLCAnLW1hJywgJzIwMCcsICctbWV0YWxfYmluZGluZycsICctaW1hZScsICc8aW5maWxlLm1hZT4nLCAnLW9tYWUnLCAnPG91dGZpbGUubWFlPic=

> <r_lp_tautomer_probability>
1

> <r_epik_Ionization_Penalty>
0.0245152

> <r_epik_Ionization_Penalty_Charging>
0

> <r_epik_Ionization_Penalty_Neutral>
0.0245152

> <r_epik_State_Penalty>
0.0198648

> <r_epik_Charging_Adjusted_Penalty>
0.0198648

> <i_epik_Tot_Q>
0

> <i_epik_Tot_abs_Q>
0

> <r_epik_Metal_State_Penalty>
0.0400162

> <b_epik_Metal_Only>
0

> <s_lp_Force_Field>
OPLS_2005

> <r_lp_Energy>
16.769

> <b_lp_Chiralities_Consistent>
1

> <s_lp_Variant>
AV-unprocessed.smi:2973-4

> <Gold.Version>
5.8.1

> <Gold.Id.Protein>
6NUR|6NUR_protein|mol2

> <Gold.PLP.Fitness>
47.5718

> <Gold.PLP.PLP>
-35.4367

> <Gold.PLP.part.hbond>
-4.0000

> <Gold.PLP.part.metal>
0.0000

> <Gold.PLP.part.buried>
-6.9183

> <Gold.PLP.part.nonpolar>
-26.3352

> <Gold.PLP.part.repulsive>
0.2924

> <Gold.PLP.ligand.clash>
0.0000

> <Gold.PLP.ligand.torsion>
0.8397

> <Gold.PLP.Chemscore.Hbond>
3.6000

> <Gold.PLP.Chemscore.CHOScore>
1.0000

> <Gold.PLP.Chemscore.Metal>
0.0000

> <Gold.Chemscore.Hbonds>
donor molecule, donor type, donor heavy atom, donor atom, acceptor molecule, acceptor atom, score
      L1  H     8    38       P1  7948  1.00
      P1  H  6896  6909       L1    25  0.84
      P1  H  7997  8008       L1    14  0.70
      P1  H 10752 10765       L1    10  0.93
      L1  C    22    49       P1  8028  1.00

> <Gold.PLP.Chemscore.Internal.Correction>
0.0145

> <Gold.Rescore>
     Score         DG    S(hbond)    S(metal)    S(lipo)     H(rot)  DE(clash)    DE(int)     intcor
     18.93     -21.05       2.89        0.00      91.02       1.86       0.02       2.10       ----

> <Gold.Chemscore.Fitness>
18.9273

> <Gold.Chemscore.DG>
-21.0471

> <Gold.Chemscore.ZeroCoef>
-5.4800

> <Gold.Chemscore.Hbond>
2.8946

> <Gold.Chemscore.Metal>
0.0000

> <Gold.Chemscore.Lipo>
91.0169

> <Gold.Chemscore.Internal_Hbond>
0.0000

> <Gold.Chemscore.DEClash>
0.0243

> <Gold.Chemscore.DEInternal>
2.0955

> <Gold.Chemscore.Rot>
1.8553

> <Gold.Chemscore.Internal.Correction>
   9.000000E+99

> <Gold.Chemscore.Hbonds>
donor molecule, donor type, donor heavy atom, donor atom, acceptor molecule, acceptor atom, score
      L1  H     8    38       P1  7948  0.55
      P1  H  6896  6909       L1    25  0.81
      P1  H  7997  8008       L1    14  0.67
      P1  H 10752 10765       L1    10  0.19

> <Gold.Chemscore.Hbond.Weighted>
-9.6678

> <Gold.Chemscore.Metal.Weighted>
-0.0000

> <Gold.Chemscore.Lipo.Weighted>
-10.6490

> <Gold.Chemscore.Internal_Hbond.Weighted>
0.0000

> <Gold.Chemscore.DEClash.Weighted>
0.0243

> <Gold.Chemscore.DEInternal.Weighted>
2.0955

> <Gold.Chemscore.Rot.Weighted>
4.7497

> <Gold.Chemscore.Internal.Correction.Weighted>
   9.000000E+99

> <Gold.Protein.RotatedTorsions>
[ 6907 6896 6895 6894 ] final   31.51 input  -60.11 | X-H torsion
[ 7974 7965 7964 7962 ] final   98.43 input  175.53 | X-H torsion
[ 8008 7997 7996 7995 ] final  -90.34 input   59.86 | X-H torsion
[ 10167 10162 10161 10158 ] final  -82.08 input  -65.29 | X-H torsion
[ 10718 10713 10712 10709 ] final  -33.17 input   66.30 | X-H torsion
[ 10763 10752 10751 10750 ] final  155.66 input  -60.55 | X-H torsion
[ 11005 11000 10999 10996 ] final  -57.55 input  -57.11 | X-H torsion

> <Gold.Protein.ActiveResidues>
 VAL166  LYS551  ARG553  GLY616  TRP617  ASP618  TYR619  PRO620  LYS621  CYS622 
 ASP623  PHE694  ASN695  SER759  ASP760  ASP761  ALA762  ILE779  LEU786  VAL792 
 PHE793  MET794  SER795  GLU796  ALA797  LYS798  CYS799  TRP800  GLU811  SER814 

> <Gold.Protein.RotatedAtoms>
  152.0613  134.9592  160.0574 H   0  0  0  0  0  0  0  0  0  0  0  0  # atno 6907 bound_to 6896
  152.0955  133.4217  159.4571 H   0  0  0  0  0  0  0  0  0  0  0  0  # atno 6908 bound_to 6896
  150.6838  134.2741  159.4644 H   0  0  0  0  0  0  0  0  0  0  0  0  # atno 6909 bound_to 6896
  145.4123  139.2332  143.3241 H   0  0  0  0  0  0  0  0  0  0  0  0  # atno 7974 bound_to 7965
  154.6974  140.0531  157.0424 H   0  0  0  0  0  0  0  0  0  0  0  0  # atno 8008 bound_to 7997
  155.0732  140.3202  155.4605 H   0  0  0  0  0  0  0  0  0  0  0  0  # atno 8009 bound_to 7997
  156.2748  140.2078  156.5860 H   0  0  0  0  0  0  0  0  0  0  0  0  # atno 8010 bound_to 7997
  140.4353  143.2534  151.8703 H   0  0  0  0  0  0  0  0  0  0  0  0  # atno 10167 bound_to 10162
  156.3660  130.4331  149.7585 H   0  0  0  0  0  0  0  0  0  0  0  0  # atno 10718 bound_to 10713
  154.1720  135.2804  155.3078 H   0  0  0  0  0  0  0  0  0  0  0  0  # atno 10763 bound_to 10752
  154.6068  135.5512  153.7435 H   0  0  0  0  0  0  0  0  0  0  0  0  # atno 10764 bound_to 10752
  153.0162  135.6405  154.1860 H   0  0  0  0  0  0  0  0  0  0  0  0  # atno 10765 bound_to 10752
  141.1169  133.6610  156.4786 H   0  0  0  0  0  0  0  0  0  0  0  0  # atno 11005 bound_to 11000
  146.2698  140.4836  142.8819 LP  0  0  0  0  0  0  0  0  0  0  0  0  # atno 17320 bound_to 7965
  144.8301  140.6692  143.6297 LP  0  0  0  0  0  0  0  0  0  0  0  0  # atno 17321 bound_to 7965
  139.4786  144.5290  151.8694 LP  0  0  0  0  0  0  0  0  0  0  0  0  # atno 17342 bound_to 10162
  140.4381  144.2024  150.5890 LP  0  0  0  0  0  0  0  0  0  0  0  0  # atno 17343 bound_to 10162
  156.4730  130.8005  151.3023 LP  0  0  0  0  0  0  0  0  0  0  0  0  # atno 17370 bound_to 10713
  157.7479  131.0030  150.3020 LP  0  0  0  0  0  0  0  0  0  0  0  0  # atno 17371 bound_to 10713
  140.4619  134.6833  157.5089 LP  0  0  0  0  0  0  0  0  0  0  0  0  # atno 17394 bound_to 11000
  140.0098  134.6708  155.9398 LP  0  0  0  0  0  0  0  0  0  0  0  0  # atno 17395 bound_to 11000

$$$$
