AV-unprocessed.smi:3303|AV-procd|sdf|12676|dock5
  -GOLD-   2272019 13D 1   1.00000     0.00000
 Structure written by MMmdl.
 44 45  0  0  0  0  0  0  0  0  2 V2000
  152.3003  138.6542  155.4809 C   0  0  0  0  0  0  0  0  0  0  0  0
  151.2573  139.7044  155.0648 C   0  0  1  0  0  0  0  0  0  0  0  0
  149.9245  139.0621  154.6352 C   0  0  0  0  0  0  0  0  0  0  0  0
  148.9938  140.0703  154.1195 N   0  0  0  0  0  0  0  0  0  0  0  0
  147.8042  139.3617  153.6540 C   0  0  0  0  0  0  0  0  0  0  0  0
  148.6707  141.0692  155.1540 C   0  0  2  0  0  0  0  0  0  0  0  0
  147.6779  142.1312  154.6396 C   0  0  0  0  0  0  0  0  0  0  0  0
  149.9663  141.7685  155.6283 C   0  0  0  0  0  0  0  0  0  0  0  0
  151.0205  140.7783  156.1435 C   0  0  1  0  0  0  0  0  0  0  0  0
  150.5856  140.1841  157.4298 N   0  3  0  0  0  0  0  0  0  0  0  0
  151.5652  140.2940  158.5290 C   0  0  0  0  0  0  0  0  0  0  0  0
  152.1350  141.7160  158.6175 C   0  0  0  0  0  0  0  0  0  0  0  0
  152.4116  142.1348  160.0488 C   0  0  0  0  0  0  0  0  0  0  0  0
  153.2514  141.3609  160.8777 C   0  0  0  0  0  0  0  0  0  0  0  0
  153.4788  141.7986  162.1972 C   0  0  0  0  0  0  0  0  0  0  0  0
  152.8616  142.9867  162.6335 C   0  0  0  0  0  0  0  0  0  0  0  0
  152.0421  143.6887  161.7270 C   0  0  0  0  0  0  0  0  0  0  0  0
  151.8191  143.2786  160.4592 N   0  0  0  0  0  0  0  0  0  0  0  0
  151.9604  138.0594  156.3290 H   0  0  0  0  0  0  0  0  0  0  0  0
  153.2427  139.1264  155.7597 H   0  0  0  0  0  0  0  0  0  0  0  0
  152.5085  137.9662  154.6611 H   0  0  0  0  0  0  0  0  0  0  0  0
  151.6661  140.2115  154.1886 H   0  0  0  0  0  0  0  0  0  0  0  0
  150.1233  138.3276  153.8532 H   0  0  0  0  0  0  0  0  0  0  0  0
  149.4723  138.5214  155.4682 H   0  0  0  0  0  0  0  0  0  0  0  0
  147.1205  140.0292  153.1309 H   0  0  0  0  0  0  0  0  0  0  0  0
  147.2682  138.8974  154.4832 H   0  0  0  0  0  0  0  0  0  0  0  0
  148.0749  138.5787  152.9447 H   0  0  0  0  0  0  0  0  0  0  0  0
  148.2146  140.5581  156.0034 H   0  0  0  0  0  0  0  0  0  0  0  0
  147.5548  142.9326  155.3686 H   0  0  0  0  0  0  0  0  0  0  0  0
  146.6844  141.7181  154.4666 H   0  0  0  0  0  0  0  0  0  0  0  0
  148.0240  142.5842  153.7098 H   0  0  0  0  0  0  0  0  0  0  0  0
  150.3899  142.3384  154.7995 H   0  0  0  0  0  0  0  0  0  0  0  0
  149.7378  142.4981  156.4065 H   0  0  0  0  0  0  0  0  0  0  0  0
  151.9518  141.3254  156.3003 H   0  0  0  0  0  0  0  0  0  0  0  0
  149.7312  140.6397  157.7171 H   0  0  0  0  0  0  0  0  0  0  0  0
  151.0813  140.0301  159.4705 H   0  0  0  0  0  0  0  0  0  0  0  0
  152.3691  139.5752  158.3632 H   0  0  0  0  0  0  0  0  0  0  0  0
  153.0613  141.7849  158.0451 H   0  0  0  0  0  0  0  0  0  0  0  0
  151.4407  142.4251  158.1643 H   0  0  0  0  0  0  0  0  0  0  0  0
  153.7118  140.4536  160.5149 H   0  0  0  0  0  0  0  0  0  0  0  0
  154.1143  141.2329  162.8625 H   0  0  0  0  0  0  0  0  0  0  0  0
  153.0119  143.3516  163.6389 H   0  0  0  0  0  0  0  0  0  0  0  0
  151.5534  144.6034  162.0277 H   0  0  0  0  0  0  0  0  0  0  0  0
  150.3893  139.2060  157.2733 H   0  0  0  0  0  0  0  0  0  0  0  0
  1  2  1  0  0  0  0
  1 19  1  0  0  0  0
  1 20  1  0  0  0  0
  1 21  1  0  0  0  0
  2  9  1  0  0  0  0
  2  3  1  0  0  0  0
  2 22  1  0  0  0  0
  3  4  1  0  0  0  0
  3 23  1  0  0  0  0
  3 24  1  0  0  0  0
  4  5  1  0  0  0  0
  4  6  1  0  0  0  0
  5 25  1  0  0  0  0
  5 26  1  0  0  0  0
  5 27  1  0  0  0  0
  6  7  1  0  0  0  0
  6  8  1  0  0  0  0
  6 28  1  0  0  0  0
  7 29  1  0  0  0  0
  7 30  1  0  0  0  0
  7 31  1  0  0  0  0
  8  9  1  0  0  0  0
  8 32  1  0  0  0  0
  8 33  1  0  0  0  0
  9 10  1  0  0  0  0
  9 34  1  0  0  0  0
 10 11  1  0  0  0  0
 10 35  1  0  0  0  0
 10 44  1  0  0  0  0
 11 12  1  0  0  0  0
 11 36  1  0  0  0  0
 11 37  1  0  0  0  0
 12 13  1  0  0  0  0
 12 38  1  0  0  0  0
 12 39  1  0  0  0  0
 13 18  1  0  0  0  0
 13 14  2  0  0  0  0
 14 15  1  0  0  0  0
 14 40  1  0  0  0  0
 15 16  2  0  0  0  0
 15 41  1  0  0  0  0
 16 17  1  0  0  0  0
 16 42  1  0  0  0  0
 17 18  2  0  0  0  0
 17 43  1  0  0  0  0
M  CHG  1  10   1
M  END
> <s_m_source_file>
AV-unprocessed.smi

> <i_m_source_file_index>
3303

> <i_lp_mmshare_version>
43012

> <i_f3d_flags>
0

> <s_epik_input>
W0NIM11bQ0BASF0xW0NIMl1OKFtDSDNdKVtDQEBIXShbQ0gzXSlbQ0gyXVtDQEhdMVtOSF1bQ0gyXVtDSDJdYzJbY0hdW2NIXVtjSF1bY0hdbjI=

> <s_epik_cmdline>
J2VwaWtfcHl0aG9uJywgJy1waCcsICc3LjAnLCAnLXRuJywgJzgnLCAnLW1hJywgJzIwMCcsICctbWV0YWxfYmluZGluZycsICctaW1hZScsICc8aW5maWxlLm1hZT4nLCAnLW9tYWUnLCAnPG91dGZpbGUubWFlPic=

> <r_epik_Ionization_Penalty>
1.37325

> <r_epik_Ionization_Penalty_Charging>
0.000251572

> <r_epik_Ionization_Penalty_Neutral>
1.373

> <r_epik_State_Penalty>
1.46343

> <r_epik_Charging_Adjusted_Penalty>
1.46368

> <i_epik_Tot_Q>
1

> <i_epik_Tot_abs_Q>
1

> <r_epik_Metal_State_Penalty>
1.46331

> <b_epik_Metal_Only>
0

> <s_lp_Force_Field>
OPLS_2005

> <r_lp_Energy>
25.9316

> <b_lp_Chiralities_Consistent>
1

> <s_lp_Variant>
AV-unprocessed.smi:3303-20

> <Gold.Version>
5.8.1

> <Gold.Id.Protein>
6NUR|6NUR_protein|mol2

> <Gold.PLP.Fitness>
41.4608

> <Gold.PLP.PLP>
-43.4931

> <Gold.PLP.part.hbond>
0.0000

> <Gold.PLP.part.metal>
0.0000

> <Gold.PLP.part.buried>
-2.9235

> <Gold.PLP.part.nonpolar>
-40.5918

> <Gold.PLP.part.repulsive>
1.8604

> <Gold.PLP.ligand.clash>
0.0000

> <Gold.PLP.ligand.torsion>
1.0209

> <Gold.PLP.Chemscore.Hbond>
0.0000

> <Gold.PLP.Chemscore.CHOScore>
0.0000

> <Gold.PLP.Chemscore.Metal>
0.0000

> <Gold.PLP.Chemscore.Internal.Correction>
0.0095

> <Gold.Rescore>
     Score         DG    S(hbond)    S(metal)    S(lipo)     H(rot)  DE(clash)    DE(int)     intcor
     15.44     -16.63       0.00        0.00     124.41       1.33       0.17       1.02       ----

> <Gold.Chemscore.Fitness>
15.4409

> <Gold.Chemscore.DG>
-16.6313

> <Gold.Chemscore.ZeroCoef>
-5.4800

> <Gold.Chemscore.Hbond>
0.0000

> <Gold.Chemscore.Metal>
0.0000

> <Gold.Chemscore.Lipo>
124.4065

> <Gold.Chemscore.Internal_Hbond>
0.0000

> <Gold.Chemscore.DEClash>
0.1714

> <Gold.Chemscore.DEInternal>
1.0190

> <Gold.Chemscore.Rot>
1.3298

> <Gold.Chemscore.Internal.Correction>
   9.000000E+99

> <Gold.Chemscore.Hbond.Weighted>
-0.0000

> <Gold.Chemscore.Metal.Weighted>
-0.0000

> <Gold.Chemscore.Lipo.Weighted>
-14.5556

> <Gold.Chemscore.Internal_Hbond.Weighted>
0.0000

> <Gold.Chemscore.DEClash.Weighted>
0.1714

> <Gold.Chemscore.DEInternal.Weighted>
1.0190

> <Gold.Chemscore.Rot.Weighted>
3.4043

> <Gold.Chemscore.Internal.Correction.Weighted>
   9.000000E+99

> <Gold.Protein.RotatedTorsions>
[ 6907 6896 6895 6894 ] final  136.91 input  -60.11 | X-H torsion
[ 7974 7965 7964 7962 ] final  135.94 input  175.53 | X-H torsion
[ 8008 7997 7996 7995 ] final -106.33 input   59.86 | X-H torsion
[ 10167 10162 10161 10158 ] final  -28.71 input  -65.29 | X-H torsion
[ 10718 10713 10712 10709 ] final  -88.00 input   66.30 | X-H torsion
[ 10763 10752 10751 10750 ] final  176.06 input  -60.55 | X-H torsion
[ 11005 11000 10999 10996 ] final  -23.13 input  -57.11 | X-H torsion

> <Gold.Protein.ActiveResidues>
 VAL166  LYS551  ARG553  GLY616  TRP617  ASP618  TYR619  PRO620  LYS621  CYS622 
 ASP623  PHE694  ASN695  SER759  ASP760  ASP761  ALA762  ILE779  LEU786  VAL792 
 PHE793  MET794  SER795  GLU796  ALA797  LYS798  CYS799  TRP800  GLU811  SER814 

> <Gold.Protein.RotatedAtoms>
  152.2840  133.5498  159.5515 H   0  0  0  0  0  0  0  0  0  0  0  0  # atno 6907 bound_to 6896
  150.7208  134.0523  159.3811 H   0  0  0  0  0  0  0  0  0  0  0  0  # atno 6908 bound_to 6896
  151.8432  135.0583  160.0501 H   0  0  0  0  0  0  0  0  0  0  0  0  # atno 6909 bound_to 6896
  144.9614  139.4706  143.5478 H   0  0  0  0  0  0  0  0  0  0  0  0  # atno 7974 bound_to 7965
  154.9129  140.0409  157.1956 H   0  0  0  0  0  0  0  0  0  0  0  0  # atno 8008 bound_to 7997
  154.8330  140.2902  155.5688 H   0  0  0  0  0  0  0  0  0  0  0  0  # atno 8009 bound_to 7997
  156.2988  140.2497  156.3259 H   0  0  0  0  0  0  0  0  0  0  0  0  # atno 8010 bound_to 7997
  140.7267  143.3987  151.1302 H   0  0  0  0  0  0  0  0  0  0  0  0  # atno 10167 bound_to 10162
  155.9984  130.4820  150.4953 H   0  0  0  0  0  0  0  0  0  0  0  0  # atno 10718 bound_to 10713
  154.4761  135.2773  155.1606 H   0  0  0  0  0  0  0  0  0  0  0  0  # atno 10763 bound_to 10752
  154.3335  135.6185  153.5566 H   0  0  0  0  0  0  0  0  0  0  0  0  # atno 10764 bound_to 10752
  152.9869  135.5771  154.5152 H   0  0  0  0  0  0  0  0  0  0  0  0  # atno 10765 bound_to 10752
  140.8722  133.7712  156.0201 H   0  0  0  0  0  0  0  0  0  0  0  0  # atno 11005 bound_to 11000
  146.3354  139.8766  142.8831 LP  0  0  0  0  0  0  0  0  0  0  0  0  # atno 17320 bound_to 7965
  145.2694  141.0104  143.3780 LP  0  0  0  0  0  0  0  0  0  0  0  0  # atno 17321 bound_to 7965
  139.7604  143.8644  152.3099 LP  0  0  0  0  0  0  0  0  0  0  0  0  # atno 17342 bound_to 10162
  139.8528  144.7156  150.9193 LP  0  0  0  0  0  0  0  0  0  0  0  0  # atno 17343 bound_to 10162
  157.2943  131.0632  151.2112 LP  0  0  0  0  0  0  0  0  0  0  0  0  # atno 17370 bound_to 10713
  157.3114  130.6891  149.6217 LP  0  0  0  0  0  0  0  0  0  0  0  0  # atno 17371 bound_to 10713
  140.8559  134.2898  157.5255 LP  0  0  0  0  0  0  0  0  0  0  0  0  # atno 17394 bound_to 11000
  139.8713  134.9493  156.4020 LP  0  0  0  0  0  0  0  0  0  0  0  0  # atno 17395 bound_to 11000

$$$$
