AV-unprocessed.smi:475|AV-procd|sdf|2668|dock1
  -GOLD-   2262023 83D 1   1.00000     0.00000
 Structure written by MMmdl.
 40 42  0  0  0  0  0  0  0  0  2 V2000
  153.2826  138.7042  154.4073 C   0  0  0  0  0  0  0  0  0  0  0  0
  153.2077  139.1661  155.7441 O   0  0  0  0  0  0  0  0  0  0  0  0
  151.8741  139.2390  156.2210 C   0  0  0  0  0  0  0  0  0  0  0  0
  151.8470  139.9182  157.5977 C   0  0  0  0  0  0  0  0  0  0  0  0
  151.4015  141.3174  157.5201 N   0  0  0  0  0  0  0  0  0  0  0  0
  150.5754  141.9276  156.6256 C   0  0  0  0  0  0  0  0  0  0  0  0
  149.7832  141.1608  155.2494 S   0  0  0  0  0  0  0  0  0  0  0  0
  147.9997  141.3190  155.5651 C   0  0  0  0  0  0  0  0  0  0  0  0
  147.1928  141.6196  154.2976 C   0  0  0  0  0  0  0  0  0  0  0  0
  147.3866  140.9885  153.2577 O   0  0  0  0  0  0  0  0  0  0  0  0
  146.1978  142.6839  154.3806 C   0  0  0  0  0  0  0  0  0  0  0  0
  145.6733  143.5352  153.4453 C   0  0  0  0  0  0  0  0  0  0  0  0
  144.7267  144.3760  154.1041 C   0  0  0  0  0  0  0  0  0  0  0  0
  144.6940  144.0205  155.4246 C   0  0  0  0  0  0  0  0  0  0  0  0
  145.5942  142.9888  155.5836 N   0  0  0  0  0  0  0  0  0  0  0  0
  150.4704  143.2368  156.9849 N   0  3  0  0  0  0  0  0  0  0  0  0
  151.2369  143.4686  158.1283 C   0  0  0  0  0  0  0  0  0  0  0  0
  151.4447  144.6313  158.8641 C   0  0  0  0  0  0  0  0  0  0  0  0
  152.2875  144.5255  159.9900 C   0  0  0  0  0  0  0  0  0  0  0  0
  152.8845  143.2992  160.3479 C   0  0  0  0  0  0  0  0  0  0  0  0
  152.6677  142.1273  159.5937 C   0  0  0  0  0  0  0  0  0  0  0  0
  151.8358  142.2400  158.4797 C   0  0  0  0  0  0  0  0  0  0  0  0
  145.7872  142.5192  156.4573 H   0  0  0  0  0  0  0  0  0  0  0  0
  154.3248  138.6685  154.0903 H   0  0  0  0  0  0  0  0  0  0  0  0
  152.7470  139.3699  153.7292 H   0  0  0  0  0  0  0  0  0  0  0  0
  152.8675  137.6999  154.3131 H   0  0  0  0  0  0  0  0  0  0  0  0
  151.2576  139.8037  155.5201 H   0  0  0  0  0  0  0  0  0  0  0  0
  151.4495  138.2364  156.2942 H   0  0  0  0  0  0  0  0  0  0  0  0
  151.2067  139.3734  158.2915 H   0  0  0  0  0  0  0  0  0  0  0  0
  152.8456  139.9123  158.0357 H   0  0  0  0  0  0  0  0  0  0  0  0
  147.6339  140.3948  156.0128 H   0  0  0  0  0  0  0  0  0  0  0  0
  147.8365  142.1205  156.2857 H   0  0  0  0  0  0  0  0  0  0  0  0
  145.9380  143.5561  152.3983 H   0  0  0  0  0  0  0  0  0  0  0  0
  144.1322  145.1591  153.6568 H   0  0  0  0  0  0  0  0  0  0  0  0
  144.1213  144.3999  156.2581 H   0  0  0  0  0  0  0  0  0  0  0  0
  150.9865  145.5713  158.5938 H   0  0  0  0  0  0  0  0  0  0  0  0
  152.4779  145.4018  160.5928 H   0  0  0  0  0  0  0  0  0  0  0  0
  153.5215  143.2555  161.2196 H   0  0  0  0  0  0  0  0  0  0  0  0
  153.1261  141.1926  159.8806 H   0  0  0  0  0  0  0  0  0  0  0  0
  149.9144  143.9187  156.4855 H   0  0  0  0  0  0  0  0  0  0  0  0
  1  2  1  0  0  0  0
  1 24  1  0  0  0  0
  1 25  1  0  0  0  0
  1 26  1  0  0  0  0
  2  3  1  0  0  0  0
  3  4  1  0  0  0  0
  3 27  1  0  0  0  0
  3 28  1  0  0  0  0
  4  5  1  0  0  0  0
  4 29  1  0  0  0  0
  4 30  1  0  0  0  0
  5 22  1  0  0  0  0
  5  6  1  0  0  0  0
  6  7  1  0  0  0  0
  6 16  2  0  0  0  0
  7  8  1  0  0  0  0
  8  9  1  0  0  0  0
  8 31  1  0  0  0  0
  8 32  1  0  0  0  0
  9 10  2  0  0  0  0
  9 11  1  0  0  0  0
 11 15  1  0  0  0  0
 11 12  2  0  0  0  0
 12 13  1  0  0  0  0
 12 33  1  0  0  0  0
 13 14  2  0  0  0  0
 13 34  1  0  0  0  0
 14 15  1  0  0  0  0
 14 35  1  0  0  0  0
 15 23  1  0  0  0  0
 16 17  1  0  0  0  0
 16 40  1  0  0  0  0
 17 22  2  0  0  0  0
 17 18  1  0  0  0  0
 18 19  2  0  0  0  0
 18 36  1  0  0  0  0
 19 20  1  0  0  0  0
 19 37  1  0  0  0  0
 20 21  2  0  0  0  0
 20 38  1  0  0  0  0
 21 22  1  0  0  0  0
 21 39  1  0  0  0  0
M  CHG  1  16   1
M  END
> <s_m_source_file>
AV-unprocessed.smi

> <i_m_source_file_index>
475

> <i_lp_mmshare_version>
43012

> <i_f3d_flags>
0

> <s_epik_input>
W2NIXTFbY0hdW2NIXVtjSF1jKGMxMiluKFtDSDJdW0NIMl1PW0NIM10pYyhuMilTW0NIMl1DKD1PKWMzW2NIXVtjSF1bY0hdW25IXTM=

> <s_epik_cmdline>
J2VwaWtfcHl0aG9uJywgJy1waCcsICc3LjAnLCAnLXRuJywgJzgnLCAnLW1hJywgJzIwMCcsICctbWV0YWxfYmluZGluZycsICctaW1hZScsICc8aW5maWxlLm1hZT4nLCAnLW9tYWUnLCAnPG91dGZpbGUubWFlPic=

> <r_lp_tautomer_probability>
0.9999

> <r_epik_Ionization_Penalty>
2.12955

> <r_epik_Ionization_Penalty_Charging>
2.12955

> <r_epik_Ionization_Penalty_Neutral>
1.90655e-06

> <r_epik_State_Penalty>
2.26782

> <r_epik_Charging_Adjusted_Penalty>
4.39737

> <i_epik_Tot_Q>
1

> <i_epik_Tot_abs_Q>
1

> <r_epik_Metal_State_Penalty>
2.28582

> <b_epik_Metal_Only>
0

> <s_lp_Force_Field>
OPLS_2005

> <r_lp_Energy>
16.0961

> <b_lp_Chiralities_Consistent>
1

> <s_lp_Variant>
AV-unprocessed.smi:475-2

> <Gold.Version>
5.8.1

> <Gold.Id.Protein>
6NUR|6NUR_protein|mol2

> <Gold.PLP.Fitness>
58.3621

> <Gold.PLP.PLP>
-51.8085

> <Gold.PLP.part.hbond>
-2.0000

> <Gold.PLP.part.metal>
0.0000

> <Gold.PLP.part.buried>
-8.8948

> <Gold.PLP.part.nonpolar>
-42.2883

> <Gold.PLP.part.repulsive>
0.2096

> <Gold.PLP.ligand.clash>
0.0000

> <Gold.PLP.ligand.torsion>
1.4454

> <Gold.PLP.Chemscore.Hbond>
3.0000

> <Gold.PLP.Chemscore.CHOScore>
0.0000

> <Gold.PLP.Chemscore.Metal>
0.0000

> <Gold.Chemscore.Hbonds>
donor molecule, donor type, donor heavy atom, donor atom, acceptor molecule, acceptor atom, score
      L1  H    16    40       P1  8028  2.00
      P1  H  7997  8009       L1     2  1.00

> <Gold.PLP.Chemscore.Internal.Correction>
0.4444

> <Gold.Rescore>
     Score         DG    S(hbond)    S(metal)    S(lipo)     H(rot)  DE(clash)    DE(int)     intcor
     18.47     -20.67       1.96        0.00     119.88       2.10       0.06       2.14       ----

> <Gold.Chemscore.Fitness>
18.4694

> <Gold.Chemscore.DG>
-20.6714

> <Gold.Chemscore.ZeroCoef>
-5.4800

> <Gold.Chemscore.Hbond>
1.9621

> <Gold.Chemscore.Metal>
0.0000

> <Gold.Chemscore.Lipo>
119.8786

> <Gold.Chemscore.Internal_Hbond>
0.0000

> <Gold.Chemscore.DEClash>
0.0608

> <Gold.Chemscore.DEInternal>
2.1413

> <Gold.Chemscore.Rot>
2.1046

> <Gold.Chemscore.Internal.Correction>
   9.000000E+99

> <Gold.Chemscore.Hbonds>
donor molecule, donor type, donor heavy atom, donor atom, acceptor molecule, acceptor atom, score
      L1  H    16    40       P1  8028  0.93
      P1  H  7997  8009       L1     2  0.93

> <Gold.Chemscore.Hbond.Weighted>
-6.5534

> <Gold.Chemscore.Metal.Weighted>
-0.0000

> <Gold.Chemscore.Lipo.Weighted>
-14.0258

> <Gold.Chemscore.Internal_Hbond.Weighted>
0.0000

> <Gold.Chemscore.DEClash.Weighted>
0.0608

> <Gold.Chemscore.DEInternal.Weighted>
2.1413

> <Gold.Chemscore.Rot.Weighted>
5.3878

> <Gold.Chemscore.Internal.Correction.Weighted>
   9.000000E+99

> <Gold.Protein.RotatedTorsions>
[ 6907 6896 6895 6894 ] final -171.78 input  -60.11 | X-H torsion
[ 7974 7965 7964 7962 ] final  -71.95 input  175.53 | X-H torsion
[ 8008 7997 7996 7995 ] final -165.84 input   59.86 | X-H torsion
[ 10167 10162 10161 10158 ] final   42.37 input  -65.29 | X-H torsion
[ 10718 10713 10712 10709 ] final   96.92 input   66.30 | X-H torsion
[ 10763 10752 10751 10750 ] final  175.28 input  -60.55 | X-H torsion
[ 11005 11000 10999 10996 ] final  -73.49 input  -57.11 | X-H torsion

> <Gold.Protein.ActiveResidues>
 VAL166  LYS551  ARG553  GLY616  TRP617  ASP618  TYR619  PRO620  LYS621  CYS622 
 ASP623  PHE694  ASN695  SER759  ASP760  ASP761  ALA762  ILE779  LEU786  VAL792 
 PHE793  MET794  SER795  GLU796  ALA797  LYS798  CYS799  TRP800  GLU811  SER814 

> <Gold.Protein.RotatedAtoms>
  151.5294  133.3452  159.2915 H   0  0  0  0  0  0  0  0  0  0  0  0  # atno 6907 bound_to 6896
  150.8603  134.7955  159.7088 H   0  0  0  0  0  0  0  0  0  0  0  0  # atno 6908 bound_to 6896
  152.4624  134.5162  159.9820 H   0  0  0  0  0  0  0  0  0  0  0  0  # atno 6909 bound_to 6896
  145.6715  140.9219  143.0880 H   0  0  0  0  0  0  0  0  0  0  0  0  # atno 7974 bound_to 7965
  155.8555  140.0970  157.1647 H   0  0  0  0  0  0  0  0  0  0  0  0  # atno 8008 bound_to 7997
  154.3987  140.1375  156.3958 H   0  0  0  0  0  0  0  0  0  0  0  0  # atno 8009 bound_to 7997
  155.7915  140.3455  155.5354 H   0  0  0  0  0  0  0  0  0  0  0  0  # atno 8010 bound_to 7997
  140.3550  144.2301  150.6142 H   0  0  0  0  0  0  0  0  0  0  0  0  # atno 10167 bound_to 10162
  157.6920  131.0593  150.4565 H   0  0  0  0  0  0  0  0  0  0  0  0  # atno 10718 bound_to 10713
  154.4654  135.2769  155.1682 H   0  0  0  0  0  0  0  0  0  0  0  0  # atno 10763 bound_to 10752
  154.3453  135.6161  153.5620 H   0  0  0  0  0  0  0  0  0  0  0  0  # atno 10764 bound_to 10752
  152.9859  135.5798  154.5024 H   0  0  0  0  0  0  0  0  0  0  0  0  # atno 10765 bound_to 10752
  141.1623  133.6880  156.7219 H   0  0  0  0  0  0  0  0  0  0  0  0  # atno 11005 bound_to 11000
  144.7055  139.8579  143.7431 LP  0  0  0  0  0  0  0  0  0  0  0  0  # atno 17320 bound_to 7965
  146.1041  139.4039  143.0328 LP  0  0  0  0  0  0  0  0  0  0  0  0  # atno 17321 bound_to 7965
  140.5182  143.2272  151.8430 LP  0  0  0  0  0  0  0  0  0  0  0  0  # atno 17342 bound_to 10162
  139.4821  144.4869  151.9236 LP  0  0  0  0  0  0  0  0  0  0  0  0  # atno 17343 bound_to 10162
  156.4913  130.4096  149.6405 LP  0  0  0  0  0  0  0  0  0  0  0  0  # atno 17370 bound_to 10713
  156.3414  130.7384  151.2330 LP  0  0  0  0  0  0  0  0  0  0  0  0  # atno 17371 bound_to 10713
  140.2810  134.8317  157.3933 LP  0  0  0  0  0  0  0  0  0  0  0  0  # atno 17394 bound_to 11000
  140.1434  134.4943  155.8015 LP  0  0  0  0  0  0  0  0  0  0  0  0  # atno 17395 bound_to 11000

$$$$
