AV-unprocessed.smi:247|AV-procd|sdf|1891|dock9
  -GOLD-   2262020553D 1   1.00000     0.00000
 Structure written by MMmdl.
 61 65  0  0  0  0  0  0  0  0  1 V2000
  144.6885  133.9015  158.8881 O   0  0  0  0  0  0  0  0  0  0  0  0
  144.8816  134.9678  159.7968 C   0  0  0  0  0  0  0  0  0  0  0  0
  146.1991  134.8537  160.6132 C   0  0  0  0  0  0  0  0  0  0  0  0
  147.4040  134.8901  159.6205 C   0  0  0  0  0  0  0  0  0  0  0  0
  147.6647  136.1862  159.0094 N   0  0  0  0  0  0  0  0  0  0  0  0
  146.7611  136.9778  158.3377 C   0  0  0  0  0  0  0  0  0  0  0  0
  147.2379  138.1031  157.8822 N   0  0  0  0  0  0  0  0  0  0  0  0
  148.5671  138.1048  158.2911 C   0  0  0  0  0  0  0  0  0  0  0  0
  149.6560  139.0126  158.1374 C   0  0  0  0  0  0  0  0  0  0  0  0
  149.5564  140.1939  157.4700 N   0  0  0  0  0  0  0  0  0  0  0  0
  148.6962  140.2750  156.2953 C   0  0  0  0  0  0  0  0  0  0  0  0
  148.2005  141.7194  156.2373 C   0  0  0  0  0  0  0  0  0  0  0  0
  148.4178  142.2242  157.6615 C   0  0  0  0  0  0  0  0  0  0  0  0
  149.6980  141.5012  158.1186 C   0  0  2  0  0  0  0  0  0  0  0  0
  151.0211  142.2317  157.7052 C   0  0  1  0  0  0  0  0  0  0  0  0
  151.1173  143.6438  158.3346 C   0  0  0  0  0  0  0  0  0  0  0  0
  151.2235  143.5457  159.7530 O   0  0  0  0  0  0  0  0  0  0  0  0
  152.4267  142.9163  160.1836 C   0  0  0  0  0  0  0  0  0  0  0  0
  152.5204  141.4891  159.6202 C   0  0  0  0  0  0  0  0  0  0  0  0
  152.3440  141.5182  158.0960 C   0  0  1  0  0  0  0  0  0  0  0  0
  152.4917  140.2265  157.5430 O   0  0  0  0  0  0  0  0  0  0  0  0
  150.8463  138.6472  158.6817 N   0  0  0  0  0  0  0  0  0  0  0  0
  150.9698  137.4898  159.3363 C   0  0  0  0  0  0  0  0  0  0  0  0
  150.0451  136.5553  159.5581 N   0  0  0  0  0  0  0  0  0  0  0  0
  148.8483  136.9053  159.0063 C   0  0  0  0  0  0  0  0  0  0  0  0
  146.2707  135.9986  161.6569 C   0  0  0  0  0  0  0  0  0  0  0  0
  147.4297  135.8128  162.6521 C   0  0  0  0  0  0  0  0  0  0  0  0
  147.3037  134.5582  163.3103 O   0  0  0  0  0  0  0  0  0  0  0  0
  147.3784  133.4508  162.4203 C   0  0  0  0  0  0  0  0  0  0  0  0
  146.2311  133.5140  161.3936 C   0  0  0  0  0  0  0  0  0  0  0  0
  144.9449  133.0962  159.3107 H   0  0  0  0  0  0  0  0  0  0  0  0
  144.8663  135.8996  159.2307 H   0  0  0  0  0  0  0  0  0  0  0  0
  144.0161  134.9852  160.4590 H   0  0  0  0  0  0  0  0  0  0  0  0
  148.3273  134.5721  160.1023 H   0  0  0  0  0  0  0  0  0  0  0  0
  147.2389  134.1712  158.8166 H   0  0  0  0  0  0  0  0  0  0  0  0
  145.7312  136.6893  158.1869 H   0  0  0  0  0  0  0  0  0  0  0  0
  149.2378  140.0023  155.3893 H   0  0  0  0  0  0  0  0  0  0  0  0
  147.8501  139.5955  156.4065 H   0  0  0  0  0  0  0  0  0  0  0  0
  148.8122  142.2953  155.5420 H   0  0  0  0  0  0  0  0  0  0  0  0
  147.1622  141.7960  155.9137 H   0  0  0  0  0  0  0  0  0  0  0  0
  148.4421  143.3096  157.7210 H   0  0  0  0  0  0  0  0  0  0  0  0
  147.5842  141.8960  158.2840 H   0  0  0  0  0  0  0  0  0  0  0  0
  149.6668  141.4303  159.2051 H   0  0  0  0  0  0  0  0  0  0  0  0
  151.0176  142.3476  156.6208 H   0  0  0  0  0  0  0  0  0  0  0  0
  151.9830  144.1798  157.9419 H   0  0  0  0  0  0  0  0  0  0  0  0
  150.2610  144.2669  158.0881 H   0  0  0  0  0  0  0  0  0  0  0  0
  153.2853  143.5112  159.8684 H   0  0  0  0  0  0  0  0  0  0  0  0
  152.4423  142.8910  161.2732 H   0  0  0  0  0  0  0  0  0  0  0  0
  153.4832  141.0504  159.8837 H   0  0  0  0  0  0  0  0  0  0  0  0
  151.7587  140.8616  160.0812 H   0  0  0  0  0  0  0  0  0  0  0  0
  153.1702  142.0965  157.6796 H   0  0  0  0  0  0  0  0  0  0  0  0
  151.8002  140.0876  156.9144 H   0  0  0  0  0  0  0  0  0  0  0  0
  151.9507  137.2839  159.7390 H   0  0  0  0  0  0  0  0  0  0  0  0
  146.3385  136.9720  161.1726 H   0  0  0  0  0  0  0  0  0  0  0  0
  145.3477  136.0285  162.2365 H   0  0  0  0  0  0  0  0  0  0  0  0
  148.3999  135.8868  162.1605 H   0  0  0  0  0  0  0  0  0  0  0  0
  147.4007  136.6021  163.4034 H   0  0  0  0  0  0  0  0  0  0  0  0
  148.3547  133.4224  161.9361 H   0  0  0  0  0  0  0  0  0  0  0  0
  147.2989  132.5335  163.0039 H   0  0  0  0  0  0  0  0  0  0  0  0
  145.2989  133.3741  161.9415 H   0  0  0  0  0  0  0  0  0  0  0  0
  146.3008  132.6721  160.7040 H   0  0  0  0  0  0  0  0  0  0  0  0
  1  2  1  0  0  0  0
  1 31  1  0  0  0  0
  2  3  1  0  0  0  0
  2 32  1  0  0  0  0
  2 33  1  0  0  0  0
  3 30  1  0  0  0  0
  3  4  1  0  0  0  0
  3 26  1  0  0  0  0
  4  5  1  0  0  0  0
  4 34  1  0  0  0  0
  4 35  1  0  0  0  0
  5 25  1  0  0  0  0
  5  6  1  0  0  0  0
  6  7  2  0  0  0  0
  6 36  1  0  0  0  0
  7  8  1  0  0  0  0
  8 25  2  0  0  0  0
  8  9  1  0  0  0  0
  9 10  1  0  0  0  0
  9 22  2  0  0  0  0
 10 14  1  0  0  0  0
 10 11  1  0  0  0  0
 11 12  1  0  0  0  0
 11 37  1  0  0  0  0
 11 38  1  0  0  0  0
 12 13  1  0  0  0  0
 12 39  1  0  0  0  0
 12 40  1  0  0  0  0
 13 14  1  0  0  0  0
 13 41  1  0  0  0  0
 13 42  1  0  0  0  0
 14 15  1  0  0  0  0
 14 43  1  0  0  0  0
 15 20  1  0  0  0  0
 15 16  1  0  0  0  0
 15 44  1  0  0  0  0
 16 17  1  0  0  0  0
 16 45  1  0  0  0  0
 16 46  1  0  0  0  0
 17 18  1  0  0  0  0
 18 19  1  0  0  0  0
 18 47  1  0  0  0  0
 18 48  1  0  0  0  0
 19 20  1  0  0  0  0
 19 49  1  0  0  0  0
 19 50  1  0  0  0  0
 20 21  1  0  0  0  0
 20 51  1  0  0  0  0
 21 52  1  0  0  0  0
 22 23  1  0  0  0  0
 23 24  2  0  0  0  0
 23 53  1  0  0  0  0
 24 25  1  0  0  0  0
 26 27  1  0  0  0  0
 26 54  1  0  0  0  0
 26 55  1  0  0  0  0
 27 28  1  0  0  0  0
 27 56  1  0  0  0  0
 27 57  1  0  0  0  0
 28 29  1  0  0  0  0
 29 30  1  0  0  0  0
 29 58  1  0  0  0  0
 29 59  1  0  0  0  0
 30 60  1  0  0  0  0
 30 61  1  0  0  0  0
M  END
> <s_m_source_file>
AV-unprocessed.smi

> <i_m_source_file_index>
247

> <i_lp_mmshare_version>
43012

> <i_f3d_flags>
0

> <s_epik_input>
W0NIMl0xW0NIMl1PW0NIMl1bQ0gyXUMxKFtDSDJdW09IXSlbQ0gyXW4oW2NIXW4yKWMoYzIzKW5bY0hdbmMzTjRbQ0gyXVtDSDJdW0NIMl1bQ0BIXTRbQ0BASF01W0NIMl1PW0NIMl1bQ0gyXVtDQEhdNVtPSF0=

> <s_epik_cmdline>
J2VwaWtfcHl0aG9uJywgJy1waCcsICc3LjAnLCAnLXRuJywgJzgnLCAnLW1hJywgJzIwMCcsICctbWV0YWxfYmluZGluZycsICctaW1hZScsICc8aW5maWxlLm1hZT4nLCAnLW9tYWUnLCAnPG91dGZpbGUubWFlPic=

> <r_lp_tautomer_probability>
1

> <r_epik_Ionization_Penalty>
0.00362597

> <r_epik_Ionization_Penalty_Charging>
0

> <r_epik_Ionization_Penalty_Neutral>
0.00362597

> <r_epik_State_Penalty>
0.00241433

> <r_epik_Charging_Adjusted_Penalty>
0.00241433

> <i_epik_Tot_Q>
0

> <i_epik_Tot_abs_Q>
0

> <r_epik_Metal_State_Penalty>
-0

> <b_epik_Metal_Only>
0

> <s_lp_Force_Field>
OPLS_2005

> <r_lp_Energy>
63.0173

> <b_lp_Chiralities_Consistent>
1

> <s_lp_Variant>
AV-unprocessed.smi:247-4

> <Gold.Version>
5.8.1

> <Gold.Id.Protein>
6NUR|6NUR_protein|mol2

> <Gold.PLP.Fitness>
43.9526

> <Gold.PLP.PLP>
-39.7264

> <Gold.PLP.part.hbond>
-3.6602

> <Gold.PLP.part.metal>
0.0000

> <Gold.PLP.part.buried>
-6.1609

> <Gold.PLP.part.nonpolar>
-29.1472

> <Gold.PLP.part.repulsive>
0.0591

> <Gold.PLP.ligand.clash>
0.0000

> <Gold.PLP.ligand.torsion>
1.0279

> <Gold.PLP.Chemscore.Hbond>
1.9913

> <Gold.PLP.Chemscore.CHOScore>
0.0000

> <Gold.PLP.Chemscore.Metal>
0.0000

> <Gold.Chemscore.Hbonds>
donor molecule, donor type, donor heavy atom, donor atom, acceptor molecule, acceptor atom, score
      P1  H  6896  6908       L1    24  1.00
      P1  H  7997  8008       L1    21  0.88

> <Gold.PLP.Chemscore.Internal.Correction>
0.3082

> <Gold.Rescore>
     Score         DG    S(hbond)    S(metal)    S(lipo)     H(rot)  DE(clash)    DE(int)     intcor
      9.85     -15.57       1.65        0.00     103.60       2.94       0.77       4.96       ----

> <Gold.Chemscore.Fitness>
9.8468

> <Gold.Chemscore.DG>
-15.5736

> <Gold.Chemscore.ZeroCoef>
-5.4800

> <Gold.Chemscore.Hbond>
1.6482

> <Gold.Chemscore.Metal>
0.0000

> <Gold.Chemscore.Lipo>
103.5965

> <Gold.Chemscore.Internal_Hbond>
0.0000

> <Gold.Chemscore.DEClash>
0.7652

> <Gold.Chemscore.DEInternal>
4.9617

> <Gold.Chemscore.Rot>
2.9423

> <Gold.Chemscore.Internal.Correction>
   9.000000E+99

> <Gold.Chemscore.Hbonds>
donor molecule, donor type, donor heavy atom, donor atom, acceptor molecule, acceptor atom, score
      P1  H  6896  6908       L1    24  0.45
      P1  H  7997  8008       L1    21  0.48

> <Gold.Chemscore.Hbond.Weighted>
-5.5051

> <Gold.Chemscore.Metal.Weighted>
-0.0000

> <Gold.Chemscore.Lipo.Weighted>
-12.1208

> <Gold.Chemscore.Internal_Hbond.Weighted>
0.0000

> <Gold.Chemscore.DEClash.Weighted>
0.7652

> <Gold.Chemscore.DEInternal.Weighted>
4.9617

> <Gold.Chemscore.Rot.Weighted>
7.5323

> <Gold.Chemscore.Internal.Correction.Weighted>
   9.000000E+99

> <Gold.Protein.RotatedTorsions>
[ 6907 6896 6895 6894 ] final -154.49 input  -60.11 | X-H torsion
[ 7974 7965 7964 7962 ] final -151.59 input  175.53 | X-H torsion
[ 8008 7997 7996 7995 ] final  -68.04 input   59.86 | X-H torsion
[ 10167 10162 10161 10158 ] final  -55.85 input  -65.29 | X-H torsion
[ 10718 10713 10712 10709 ] final -145.79 input   66.30 | X-H torsion
[ 10763 10752 10751 10750 ] final  159.19 input  -60.55 | X-H torsion
[ 11005 11000 10999 10996 ] final   30.54 input  -57.11 | X-H torsion

> <Gold.Protein.ActiveResidues>
 VAL166  LYS551  ARG553  GLY616  TRP617  ASP618  TYR619  PRO620  LYS621  CYS622 
 ASP623  PHE694  ASN695  SER759  ASP760  ASP761  ALA762  ILE779  LEU786  VAL792 
 PHE793  MET794  SER795  GLU796  ALA797  LYS798  CYS799  TRP800  GLU811  SER814 

> <Gold.Protein.RotatedAtoms>
  151.2582  133.4315  159.2614 H   0  0  0  0  0  0  0  0  0  0  0  0  # atno 6907 bound_to 6896
  151.0555  134.9702  159.8243 H   0  0  0  0  0  0  0  0  0  0  0  0  # atno 6908 bound_to 6896
  152.5390  134.2535  159.8960 H   0  0  0  0  0  0  0  0  0  0  0  0  # atno 6909 bound_to 6896
  144.7841  140.4777  143.5818 H   0  0  0  0  0  0  0  0  0  0  0  0  # atno 7974 bound_to 7965
  154.4841  140.0880  156.7445 H   0  0  0  0  0  0  0  0  0  0  0  0  # atno 8008 bound_to 7997
  155.4396  140.3453  155.4270 H   0  0  0  0  0  0  0  0  0  0  0  0  # atno 8009 bound_to 7997
  156.1235  140.1481  156.9158 H   0  0  0  0  0  0  0  0  0  0  0  0  # atno 8010 bound_to 7997
  140.6351  143.2478  151.5140 H   0  0  0  0  0  0  0  0  0  0  0  0  # atno 10167 bound_to 10162
  156.3868  130.7865  151.2063 H   0  0  0  0  0  0  0  0  0  0  0  0  # atno 10718 bound_to 10713
  154.2279  135.2779  155.2901 H   0  0  0  0  0  0  0  0  0  0  0  0  # atno 10763 bound_to 10752
  154.5648  135.5636  153.7044 H   0  0  0  0  0  0  0  0  0  0  0  0  # atno 10764 bound_to 10752
  153.0027  135.6307  154.2420 H   0  0  0  0  0  0  0  0  0  0  0  0  # atno 10765 bound_to 10752
  140.2933  134.2839  155.7771 H   0  0  0  0  0  0  0  0  0  0  0  0  # atno 11005 bound_to 11000
  145.5969  139.1500  143.3151 LP  0  0  0  0  0  0  0  0  0  0  0  0  # atno 17320 bound_to 7965
  146.2064  140.6092  142.9079 LP  0  0  0  0  0  0  0  0  0  0  0  0  # atno 17321 bound_to 7965
  139.5562  144.2270  152.1616 LP  0  0  0  0  0  0  0  0  0  0  0  0  # atno 17342 bound_to 10162
  140.1524  144.5102  150.6679 LP  0  0  0  0  0  0  0  0  0  0  0  0  # atno 17343 bound_to 10162
  157.7496  131.0327  150.4240 LP  0  0  0  0  0  0  0  0  0  0  0  0  # atno 17370 bound_to 10713
  156.4494  130.4008  149.6645 LP  0  0  0  0  0  0  0  0  0  0  0  0  # atno 17371 bound_to 10713
  141.2142  133.7599  156.9657 LP  0  0  0  0  0  0  0  0  0  0  0  0  # atno 17394 bound_to 11000
  140.1175  134.9438  157.2156 LP  0  0  0  0  0  0  0  0  0  0  0  0  # atno 17395 bound_to 11000

$$$$
