AV-unprocessed.smi:153|AV-procd|sdf|1256|dock10
  -GOLD-   2262018493D 1   1.00000     0.00000
 Structure written by MMmdl.
 60 63  0  0  0  0  0  0  0  0  2 V2000
  151.6794  138.3535  158.7775 C   0  0  0  0  0  0  0  0  0  0  0  0
  152.3907  139.6498  158.3497 C   0  0  2  0  0  0  0  0  0  0  0  0
  153.0205  140.2598  159.4754 O   0  0  0  0  0  0  0  0  0  0  0  0
  152.4714  141.5496  159.6974 C   0  0  0  0  0  0  0  0  0  0  0  0
  152.0587  142.0152  158.3078 C   0  0  0  0  0  0  0  0  0  0  0  0
  151.5139  140.7403  157.6809 C   0  0  2  0  0  0  0  0  0  0  0  0
  150.1562  140.6071  158.0709 O   0  0  0  0  0  0  0  0  0  0  0  0
  151.5836  140.7638  156.1343 C   0  0  0  0  0  0  0  0  0  0  0  0
  151.2909  139.4771  155.5227 N   0  0  0  0  0  0  0  0  0  0  0  0
  152.0626  138.8120  154.5992 C   0  0  0  0  0  0  0  0  0  0  0  0
  151.5972  137.6545  154.2206 N   0  0  0  0  0  0  0  0  0  0  0  0
  150.4014  137.5111  154.9185 C   0  0  0  0  0  0  0  0  0  0  0  0
  149.3983  136.4957  154.9999 C   0  0  0  0  0  0  0  0  0  0  0  0
  149.4163  135.3131  154.3224 N   0  0  0  0  0  0  0  0  0  0  0  0
  150.6910  134.6841  153.9990 C   0  0  0  0  0  0  0  0  0  0  0  0
  148.2210  134.4673  154.3492 C   0  0  0  0  0  0  0  0  0  0  0  0
  147.4479  134.4903  153.0140 C   0  0  1  0  0  0  0  0  0  0  0  0
  147.2339  135.8389  152.6449 O   0  0  0  0  0  0  0  0  0  0  0  0
  148.2553  133.8266  151.8806 C   0  0  0  0  0  0  0  0  0  0  0  0
  147.3906  133.1166  150.9036 N   0  3  0  0  0  0  0  0  0  0  0  0
  146.3868  132.2456  151.5599 C   0  0  0  0  0  0  0  0  0  0  0  0
  145.5705  131.4803  150.5049 C   0  0  0  0  0  0  0  0  0  0  0  0
  144.9478  132.4056  149.6224 O   0  0  0  0  0  0  0  0  0  0  0  0
  145.8999  133.1951  148.9206 C   0  0  0  0  0  0  0  0  0  0  0  0
  146.7331  134.0142  149.9213 C   0  0  0  0  0  0  0  0  0  0  0  0
  148.3508  136.7333  155.8337 N   0  0  0  0  0  0  0  0  0  0  0  0
  148.2758  137.8667  156.5352 C   0  0  0  0  0  0  0  0  0  0  0  0
  149.1327  138.8869  156.5614 N   0  0  0  0  0  0  0  0  0  0  0  0
  150.1931  138.6614  155.7353 C   0  0  0  0  0  0  0  0  0  0  0  0
  151.1795  137.8775  157.9340 H   0  0  0  0  0  0  0  0  0  0  0  0
  150.9328  138.5417  159.5492 H   0  0  0  0  0  0  0  0  0  0  0  0
  152.3945  137.6381  159.1836 H   0  0  0  0  0  0  0  0  0  0  0  0
  153.2051  139.3855  157.6744 H   0  0  0  0  0  0  0  0  0  0  0  0
  151.6025  141.4634  160.3511 H   0  0  0  0  0  0  0  0  0  0  0  0
  153.1919  142.2170  160.1706 H   0  0  0  0  0  0  0  0  0  0  0  0
  151.3428  142.8380  158.3257 H   0  0  0  0  0  0  0  0  0  0  0  0
  152.9439  142.3557  157.7689 H   0  0  0  0  0  0  0  0  0  0  0  0
  149.6911  140.1464  157.3893 H   0  0  0  0  0  0  0  0  0  0  0  0
  150.8910  141.5044  155.7324 H   0  0  0  0  0  0  0  0  0  0  0  0
  152.5785  141.0701  155.8083 H   0  0  0  0  0  0  0  0  0  0  0  0
  152.9959  139.2067  154.2244 H   0  0  0  0  0  0  0  0  0  0  0  0
  151.3780  135.4037  153.5522 H   0  0  0  0  0  0  0  0  0  0  0  0
  150.5520  133.8769  153.2796 H   0  0  0  0  0  0  0  0  0  0  0  0
  151.1522  134.2612  154.8918 H   0  0  0  0  0  0  0  0  0  0  0  0
  148.4442  133.4464  154.6620 H   0  0  0  0  0  0  0  0  0  0  0  0
  147.5775  134.8640  155.1350 H   0  0  0  0  0  0  0  0  0  0  0  0
  146.4869  133.9912  153.1360 H   0  0  0  0  0  0  0  0  0  0  0  0
  147.7817  136.0375  151.8999 H   0  0  0  0  0  0  0  0  0  0  0  0
  148.8297  134.5995  151.3667 H   0  0  0  0  0  0  0  0  0  0  0  0
  148.9857  133.1257  152.2878 H   0  0  0  0  0  0  0  0  0  0  0  0
  146.8859  131.5356  152.2205 H   0  0  0  0  0  0  0  0  0  0  0  0
  145.7241  132.8515  152.1799 H   0  0  0  0  0  0  0  0  0  0  0  0
  146.2062  130.7935  149.9432 H   0  0  0  0  0  0  0  0  0  0  0  0
  144.8009  130.8784  150.9882 H   0  0  0  0  0  0  0  0  0  0  0  0
  146.5410  132.5570  148.3102 H   0  0  0  0  0  0  0  0  0  0  0  0
  145.3716  133.8611  148.2380 H   0  0  0  0  0  0  0  0  0  0  0  0
  146.0911  134.7237  150.4455 H   0  0  0  0  0  0  0  0  0  0  0  0
  147.4746  134.5974  149.3765 H   0  0  0  0  0  0  0  0  0  0  0  0
  147.4074  137.9678  157.1696 H   0  0  0  0  0  0  0  0  0  0  0  0
  148.0003  132.5010  150.3836 H   0  0  0  0  0  0  0  0  0  0  0  0
  1  2  1  0  0  0  0
  1 30  1  0  0  0  0
  1 31  1  0  0  0  0
  1 32  1  0  0  0  0
  2  6  1  0  0  0  0
  2  3  1  0  0  0  0
  2 33  1  0  0  0  0
  3  4  1  0  0  0  0
  4  5  1  0  0  0  0
  4 34  1  0  0  0  0
  4 35  1  0  0  0  0
  5  6  1  0  0  0  0
  5 36  1  0  0  0  0
  5 37  1  0  0  0  0
  6  7  1  0  0  0  0
  6  8  1  0  0  0  0
  7 38  1  0  0  0  0
  8  9  1  0  0  0  0
  8 39  1  0  0  0  0
  8 40  1  0  0  0  0
  9 29  1  0  0  0  0
  9 10  1  0  0  0  0
 10 11  2  0  0  0  0
 10 41  1  0  0  0  0
 11 12  1  0  0  0  0
 12 29  2  0  0  0  0
 12 13  1  0  0  0  0
 13 14  1  0  0  0  0
 13 26  2  0  0  0  0
 14 15  1  0  0  0  0
 14 16  1  0  0  0  0
 15 42  1  0  0  0  0
 15 43  1  0  0  0  0
 15 44  1  0  0  0  0
 16 17  1  0  0  0  0
 16 45  1  0  0  0  0
 16 46  1  0  0  0  0
 17 18  1  0  0  0  0
 17 19  1  0  0  0  0
 17 47  1  0  0  0  0
 18 48  1  0  0  0  0
 19 20  1  0  0  0  0
 19 49  1  0  0  0  0
 19 50  1  0  0  0  0
 20 25  1  0  0  0  0
 20 21  1  0  0  0  0
 20 60  1  0  0  0  0
 21 22  1  0  0  0  0
 21 51  1  0  0  0  0
 21 52  1  0  0  0  0
 22 23  1  0  0  0  0
 22 53  1  0  0  0  0
 22 54  1  0  0  0  0
 23 24  1  0  0  0  0
 24 25  1  0  0  0  0
 24 55  1  0  0  0  0
 24 56  1  0  0  0  0
 25 57  1  0  0  0  0
 25 58  1  0  0  0  0
 26 27  1  0  0  0  0
 27 28  2  0  0  0  0
 27 59  1  0  0  0  0
 28 29  1  0  0  0  0
M  CHG  1  20   1
M  END
> <s_m_source_file>
AV-unprocessed.smi

> <i_m_source_file_index>
153

> <i_lp_mmshare_version>
43012

> <i_f3d_flags>
0

> <s_epik_input>
W0NIMl0xW0NIMl1PW0NAQEhdKFtDSDNdKVtDQEBdMShbT0hdKVtDSDJdbihbY0hdbjIpYyhjMjMpbltjSF1uYzNOKFtDSDNdKVtDSDJdW0NASF0oW09IXSlbQ0gyXU40W0NIMl1bQ0gyXU9bQ0gyXVtDSDJdNA==

> <s_epik_cmdline>
J2VwaWtfcHl0aG9uJywgJy1waCcsICc3LjAnLCAnLXRuJywgJzgnLCAnLW1hJywgJzIwMCcsICctbWV0YWxfYmluZGluZycsICctaW1hZScsICc8aW5maWxlLm1hZT4nLCAnLW9tYWUnLCAnPG91dGZpbGUubWFlPic=

> <r_lp_tautomer_probability>
1

> <r_epik_Ionization_Penalty>
0.403509

> <r_epik_Ionization_Penalty_Charging>
0.40072

> <r_epik_Ionization_Penalty_Neutral>
0.00278876

> <r_epik_State_Penalty>
0.400058

> <r_epik_Charging_Adjusted_Penalty>
0.800778

> <i_epik_Tot_Q>
1

> <i_epik_Tot_abs_Q>
1

> <r_epik_Metal_State_Penalty>
0.400321

> <b_epik_Metal_Only>
0

> <s_lp_Force_Field>
OPLS_2005

> <r_lp_Energy>
47.9216

> <b_lp_Chiralities_Consistent>
1

> <s_lp_Variant>
AV-unprocessed.smi:153-7

> <Gold.Version>
5.8.1

> <Gold.Id.Protein>
6NUR|6NUR_protein|mol2

> <Gold.PLP.Fitness>
49.1030

> <Gold.PLP.PLP>
-42.5326

> <Gold.PLP.part.hbond>
-3.3477

> <Gold.PLP.part.metal>
0.0000

> <Gold.PLP.part.buried>
-8.7960

> <Gold.PLP.part.nonpolar>
-32.1337

> <Gold.PLP.part.repulsive>
0.3323

> <Gold.PLP.ligand.clash>
0.0000

> <Gold.PLP.ligand.torsion>
1.2261

> <Gold.PLP.Chemscore.Hbond>
2.7840

> <Gold.PLP.Chemscore.CHOScore>
0.0000

> <Gold.PLP.Chemscore.Metal>
0.0000

> <Gold.Chemscore.Hbonds>
donor molecule, donor type, donor heavy atom, donor atom, acceptor molecule, acceptor atom, score
      L1  H    18    48       P1  7948  0.05
      L1  H    20    60       P1 10747  1.00
      P1  H 10752 10765       L1    11  0.03

> <Gold.PLP.Chemscore.Internal.Correction>
0.6708

> <Gold.Rescore>
     Score         DG    S(hbond)    S(metal)    S(lipo)     H(rot)  DE(clash)    DE(int)     intcor
     10.70     -13.44       1.83        0.00      94.98       3.62       0.06       2.68       ----

> <Gold.Chemscore.Fitness>
10.7008

> <Gold.Chemscore.DG>
-13.4425

> <Gold.Chemscore.ZeroCoef>
-5.4800

> <Gold.Chemscore.Hbond>
1.8302

> <Gold.Chemscore.Metal>
0.0000

> <Gold.Chemscore.Lipo>
94.9761

> <Gold.Chemscore.Internal_Hbond>
0.0000

> <Gold.Chemscore.DEClash>
0.0578

> <Gold.Chemscore.DEInternal>
2.6840

> <Gold.Chemscore.Rot>
3.6182

> <Gold.Chemscore.Internal.Correction>
   9.000000E+99

> <Gold.Chemscore.Hbonds>
donor molecule, donor type, donor heavy atom, donor atom, acceptor molecule, acceptor atom, score
      L1  H    18    48       P1  7948  0.07
      L1  H    20    60       P1 10747  0.95
      P1  H 10752 10765       L1    11  0.06

> <Gold.Chemscore.Hbond.Weighted>
-6.1128

> <Gold.Chemscore.Metal.Weighted>
-0.0000

> <Gold.Chemscore.Lipo.Weighted>
-11.1122

> <Gold.Chemscore.Internal_Hbond.Weighted>
0.0000

> <Gold.Chemscore.DEClash.Weighted>
0.0578

> <Gold.Chemscore.DEInternal.Weighted>
2.6840

> <Gold.Chemscore.Rot.Weighted>
9.2625

> <Gold.Chemscore.Internal.Correction.Weighted>
   9.000000E+99

> <Gold.Protein.RotatedTorsions>
[ 6907 6896 6895 6894 ] final -153.98 input  -60.11 | X-H torsion
[ 7974 7965 7964 7962 ] final   41.19 input  175.53 | X-H torsion
[ 8008 7997 7996 7995 ] final  -92.63 input   59.86 | X-H torsion
[ 10167 10162 10161 10158 ] final  124.41 input  -65.29 | X-H torsion
[ 10718 10713 10712 10709 ] final   92.66 input   66.30 | X-H torsion
[ 10763 10752 10751 10750 ] final  168.98 input  -60.55 | X-H torsion
[ 11005 11000 10999 10996 ] final   56.04 input  -57.11 | X-H torsion

> <Gold.Protein.ActiveResidues>
 VAL166  LYS551  ARG553  GLY616  TRP617  ASP618  TYR619  PRO620  LYS621  CYS622 
 ASP623  PHE694  ASN695  SER759  ASP760  ASP761  ALA762  ILE779  LEU786  VAL792 
 PHE793  MET794  SER795  GLU796  ALA797  LYS798  CYS799  TRP800  GLU811  SER814 

> <Gold.Protein.RotatedAtoms>
  151.2507  133.4351  159.2611 H   0  0  0  0  0  0  0  0  0  0  0  0  # atno 6907 bound_to 6896
  151.0620  134.9743  159.8275 H   0  0  0  0  0  0  0  0  0  0  0  0  # atno 6908 bound_to 6896
  152.5399  134.2457  159.8932 H   0  0  0  0  0  0  0  0  0  0  0  0  # atno 6909 bound_to 6896
  146.0843  139.5444  142.9516 H   0  0  0  0  0  0  0  0  0  0  0  0  # atno 7974 bound_to 7965
  154.7255  140.0507  157.0679 H   0  0  0  0  0  0  0  0  0  0  0  0  # atno 8008 bound_to 7997
  155.0370  140.3164  155.4719 H   0  0  0  0  0  0  0  0  0  0  0  0  # atno 8009 bound_to 7997
  156.2828  140.2139  156.5493 H   0  0  0  0  0  0  0  0  0  0  0  0  # atno 8010 bound_to 7997
  139.5743  144.6955  151.3694 H   0  0  0  0  0  0  0  0  0  0  0  0  # atno 10167 bound_to 10162
  157.6958  131.0451  150.3916 H   0  0  0  0  0  0  0  0  0  0  0  0  # atno 10718 bound_to 10713
  154.3764  135.2753  155.2236 H   0  0  0  0  0  0  0  0  0  0  0  0  # atno 10763 bound_to 10752
  154.4362  135.5965  153.6103 H   0  0  0  0  0  0  0  0  0  0  0  0  # atno 10764 bound_to 10752
  152.9836  135.6007  154.4002 H   0  0  0  0  0  0  0  0  0  0  0  0  # atno 10765 bound_to 10752
  140.0560  134.5669  155.9207 H   0  0  0  0  0  0  0  0  0  0  0  0  # atno 11005 bound_to 11000
  145.6159  141.0331  143.1941 LP  0  0  0  0  0  0  0  0  0  0  0  0  # atno 17320 bound_to 7965
  144.7315  139.7712  143.7345 LP  0  0  0  0  0  0  0  0  0  0  0  0  # atno 17321 bound_to 7965
  140.7027  143.7592  150.7429 LP  0  0  0  0  0  0  0  0  0  0  0  0  # atno 17342 bound_to 10162
  140.1108  143.4701  152.2371 LP  0  0  0  0  0  0  0  0  0  0  0  0  # atno 17343 bound_to 10162
  156.4318  130.3973  149.6755 LP  0  0  0  0  0  0  0  0  0  0  0  0  # atno 17370 bound_to 10713
  156.3969  130.7655  151.2660 LP  0  0  0  0  0  0  0  0  0  0  0  0  # atno 17371 bound_to 10713
  141.1952  133.6586  156.5632 LP  0  0  0  0  0  0  0  0  0  0  0  0  # atno 17394 bound_to 11000
  140.3843  134.7496  157.4681 LP  0  0  0  0  0  0  0  0  0  0  0  0  # atno 17395 bound_to 11000

$$$$
