AV-unprocessed.smi:2519|AV-procd|sdf|9904|dock10
  -GOLD-   2272013543D 1   1.00000     0.00000
 Structure written by MMmdl.
 43 44  0  0  0  0  0  0  0  0  1 V2000
  151.4999  143.3003  157.0600 C   0  0  0  0  0  0  0  0  0  0  0  0
  150.3771  142.7366  156.3272 N   0  0  0  0  0  0  0  0  0  0  0  0
  150.4200  141.5859  155.6358 C   0  0  0  0  0  0  0  0  0  0  0  0
  151.4339  140.8909  155.5525 O   0  0  0  0  0  0  0  0  0  0  0  0
  149.1470  141.1898  154.9338 C   0  0  0  0  0  0  0  0  0  0  0  0
  148.1520  142.1581  154.6722 C   0  0  0  0  0  0  0  0  0  0  0  0
  146.9778  141.7592  154.0095 C   0  0  0  0  0  0  0  0  0  0  0  0
  146.8345  140.4117  153.6308 C   0  0  0  0  0  0  0  0  0  0  0  0
  147.8690  139.4978  153.9247 C   0  0  0  0  0  0  0  0  0  0  0  0
  147.6301  138.1616  153.5099 N   0  0  0  0  0  0  0  0  0  0  0  0
  146.4767  137.4648  153.5554 C   0  0  0  0  0  0  0  0  0  0  0  0
  145.4205  137.8881  154.0223 O   0  0  0  0  0  0  0  0  0  0  0  0
  146.5580  136.2267  153.0334 N   0  0  0  0  0  0  0  0  0  0  0  0
  145.5068  135.2128  152.9222 C   0  0  1  0  0  0  0  0  0  0  0  0
  144.2921  135.8170  152.1952 C   0  0  0  0  0  0  0  0  0  0  0  0
  143.1793  134.7756  152.0050 C   0  0  0  0  0  0  0  0  0  0  0  0
  143.6993  133.5341  151.2633 C   0  0  0  0  0  0  0  0  0  0  0  0
  144.9115  132.9077  151.9842 C   0  0  1  0  0  0  0  0  0  0  0  0
  145.4314  131.6492  151.2594 C   0  0  0  0  0  0  0  0  0  0  0  0
  146.4107  131.0711  151.9555 F   0  0  0  0  0  0  0  0  0  0  0  0
  144.4398  130.7724  151.1003 F   0  0  0  0  0  0  0  0  0  0  0  0
  145.8943  131.9758  150.0528 F   0  0  0  0  0  0  0  0  0  0  0  0
  146.0203  133.9651  152.1711 C   0  0  0  0  0  0  0  0  0  0  0  0
  148.9971  139.8954  154.5614 N   0  0  0  0  0  0  0  0  0  0  0  0
  151.1947  144.2217  157.5562 H   0  0  0  0  0  0  0  0  0  0  0  0
  152.3254  143.5324  156.3860 H   0  0  0  0  0  0  0  0  0  0  0  0
  151.8554  142.6046  157.8213 H   0  0  0  0  0  0  0  0  0  0  0  0
  149.5054  143.2475  156.3422 H   0  0  0  0  0  0  0  0  0  0  0  0
  148.2780  143.1888  154.9708 H   0  0  0  0  0  0  0  0  0  0  0  0
  146.1984  142.4754  153.7951 H   0  0  0  0  0  0  0  0  0  0  0  0
  145.9377  140.0875  153.1227 H   0  0  0  0  0  0  0  0  0  0  0  0
  148.4223  137.6854  153.1050 H   0  0  0  0  0  0  0  0  0  0  0  0
  147.4591  135.9592  152.6638 H   0  0  0  0  0  0  0  0  0  0  0  0
  145.1819  134.9203  153.9225 H   0  0  0  0  0  0  0  0  0  0  0  0
  143.9050  136.6687  152.7562 H   0  0  0  0  0  0  0  0  0  0  0  0
  144.5961  136.2015  151.2204 H   0  0  0  0  0  0  0  0  0  0  0  0
  142.7820  134.4823  152.9775 H   0  0  0  0  0  0  0  0  0  0  0  0
  142.3491  135.2172  151.4531 H   0  0  0  0  0  0  0  0  0  0  0  0
  142.8953  132.8032  151.1748 H   0  0  0  0  0  0  0  0  0  0  0  0
  143.9769  133.8101  150.2452 H   0  0  0  0  0  0  0  0  0  0  0  0
  144.5812  132.5968  152.9767 H   0  0  0  0  0  0  0  0  0  0  0  0
  146.4111  134.2604  151.1963 H   0  0  0  0  0  0  0  0  0  0  0  0
  146.8569  133.5228  152.7125 H   0  0  0  0  0  0  0  0  0  0  0  0
  1  2  1  0  0  0  0
  1 25  1  0  0  0  0
  1 26  1  0  0  0  0
  1 27  1  0  0  0  0
  2  3  1  0  0  0  0
  2 28  1  0  0  0  0
  3  4  2  0  0  0  0
  3  5  1  0  0  0  0
  5 24  1  0  0  0  0
  5  6  2  0  0  0  0
  6  7  1  0  0  0  0
  6 29  1  0  0  0  0
  7  8  2  0  0  0  0
  7 30  1  0  0  0  0
  8  9  1  0  0  0  0
  8 31  1  0  0  0  0
  9 10  1  0  0  0  0
  9 24  2  0  0  0  0
 10 11  1  0  0  0  0
 10 32  1  0  0  0  0
 11 12  2  0  0  0  0
 11 13  1  0  0  0  0
 13 14  1  0  0  0  0
 13 33  1  0  0  0  0
 14 23  1  0  0  0  0
 14 15  1  0  0  0  0
 14 34  1  0  0  0  0
 15 16  1  0  0  0  0
 15 35  1  0  0  0  0
 15 36  1  0  0  0  0
 16 17  1  0  0  0  0
 16 37  1  0  0  0  0
 16 38  1  0  0  0  0
 17 18  1  0  0  0  0
 17 39  1  0  0  0  0
 17 40  1  0  0  0  0
 18 19  1  0  0  0  0
 18 23  1  0  0  0  0
 18 41  1  0  0  0  0
 19 20  1  0  0  0  0
 19 21  1  0  0  0  0
 19 22  1  0  0  0  0
 23 42  1  0  0  0  0
 23 43  1  0  0  0  0
M  END
> <s_m_source_file>
AV-unprocessed.smi

> <i_m_source_file_index>
2519

> <i_lp_mmshare_version>
43012

> <i_f3d_flags>
0

> <s_epik_input>
W0NIM11bTkhdQyg9TyljMVtjSF1bY0hdW2NIXWMobjEpW05IXUMoPU8pW05IXVtDQEBIXTJbQ0gyXVtDSDJdW0NIMl1bQ0BASF0oQyhGKShGKUYpW0NIMl0y

> <s_epik_cmdline>
J2VwaWtfcHl0aG9uJywgJy1waCcsICc3LjAnLCAnLXRuJywgJzgnLCAnLW1hJywgJzIwMCcsICctbWV0YWxfYmluZGluZycsICctaW1hZScsICc8aW5maWxlLm1hZT4nLCAnLW9tYWUnLCAnPG91dGZpbGUubWFlPic=

> <r_lp_tautomer_probability>
1

> <r_epik_Ionization_Penalty>
3.74915e-05

> <r_epik_Ionization_Penalty_Charging>
0

> <r_epik_Ionization_Penalty_Neutral>
3.74915e-05

> <r_epik_State_Penalty>
-0

> <r_epik_Charging_Adjusted_Penalty>
0

> <i_epik_Tot_Q>
0

> <i_epik_Tot_abs_Q>
0

> <r_epik_Metal_State_Penalty>
-0

> <b_epik_Metal_Only>
0

> <s_lp_Force_Field>
OPLS_2005

> <r_lp_Energy>
27.1439

> <b_lp_Chiralities_Consistent>
1

> <s_lp_Variant>
AV-unprocessed.smi:2519-2

> <Gold.Version>
5.8.1

> <Gold.Id.Protein>
6NUR|6NUR_protein|mol2

> <Gold.PLP.Fitness>
44.9598

> <Gold.PLP.PLP>
-36.4865

> <Gold.PLP.part.hbond>
-4.0000

> <Gold.PLP.part.metal>
0.0000

> <Gold.PLP.part.buried>
-0.8269

> <Gold.PLP.part.nonpolar>
-31.4693

> <Gold.PLP.part.repulsive>
0.3722

> <Gold.PLP.ligand.clash>
0.0000

> <Gold.PLP.ligand.torsion>
0.5135

> <Gold.PLP.Chemscore.Hbond>
3.1586

> <Gold.PLP.Chemscore.CHOScore>
0.0000

> <Gold.PLP.Chemscore.Metal>
0.0000

> <Gold.Chemscore.Hbonds>
donor molecule, donor type, donor heavy atom, donor atom, acceptor molecule, acceptor atom, score
      L1  H     2    28       P1  8028  0.74
      L1  H    10    32       P1  7948  0.90
      L1  H    13    33       P1  7948  1.00
      P1  H  7989  7998       L1     4  0.60

> <Gold.PLP.Chemscore.Internal.Correction>
0.0244

> <Gold.Rescore>
     Score         DG    S(hbond)    S(metal)    S(lipo)     H(rot)  DE(clash)    DE(int)     intcor
     17.10     -20.44       2.65        0.00      74.05       1.00       1.62       1.72       ----

> <Gold.Chemscore.Fitness>
17.0977

> <Gold.Chemscore.DG>
-20.4420

> <Gold.Chemscore.ZeroCoef>
-5.4800

> <Gold.Chemscore.Hbond>
2.6521

> <Gold.Chemscore.Metal>
0.0000

> <Gold.Chemscore.Lipo>
74.0507

> <Gold.Chemscore.Internal_Hbond>
0.0000

> <Gold.Chemscore.DEClash>
1.6228

> <Gold.Chemscore.DEInternal>
1.7215

> <Gold.Chemscore.Rot>
1.0000

> <Gold.Chemscore.Internal.Correction>
   9.000000E+99

> <Gold.Chemscore.Hbonds>
donor molecule, donor type, donor heavy atom, donor atom, acceptor molecule, acceptor atom, score
      L1  H     2    28       P1  8028  0.74
      L1  H    10    32       P1  7948  0.86
      L1  H    13    33       P1  7948  0.98
      P1  H  7989  7998       L1     4  0.13

> <Gold.Chemscore.Hbond.Weighted>
-8.8581

> <Gold.Chemscore.Metal.Weighted>
-0.0000

> <Gold.Chemscore.Lipo.Weighted>
-8.6639

> <Gold.Chemscore.Internal_Hbond.Weighted>
0.0000

> <Gold.Chemscore.DEClash.Weighted>
1.6228

> <Gold.Chemscore.DEInternal.Weighted>
1.7215

> <Gold.Chemscore.Rot.Weighted>
2.5600

> <Gold.Chemscore.Internal.Correction.Weighted>
   9.000000E+99

> <Gold.Protein.RotatedTorsions>
[ 6907 6896 6895 6894 ] final   53.11 input  -60.11 | X-H torsion
[ 7974 7965 7964 7962 ] final  -90.27 input  175.53 | X-H torsion
[ 8008 7997 7996 7995 ] final  104.34 input   59.86 | X-H torsion
[ 10167 10162 10161 10158 ] final  141.13 input  -65.29 | X-H torsion
[ 10718 10713 10712 10709 ] final  -62.04 input   66.30 | X-H torsion
[ 10763 10752 10751 10750 ] final -125.06 input  -60.55 | X-H torsion
[ 11005 11000 10999 10996 ] final   76.64 input  -57.11 | X-H torsion

> <Gold.Protein.ActiveResidues>
 VAL166  LYS551  ARG553  GLY616  TRP617  ASP618  TYR619  PRO620  LYS621  CYS622 
 ASP623  PHE694  ASN695  SER759  ASP760  ASP761  ALA762  ILE779  LEU786  VAL792 
 PHE793  MET794  SER795  GLU796  ALA797  LYS798  CYS799  TRP800  GLU811  SER814 

> <Gold.Protein.RotatedAtoms>
  152.3303  134.7268  160.0291 H   0  0  0  0  0  0  0  0  0  0  0  0  # atno 6907 bound_to 6896
  151.7687  133.3334  159.3446 H   0  0  0  0  0  0  0  0  0  0  0  0  # atno 6908 bound_to 6896
  150.7419  134.5970  159.6061 H   0  0  0  0  0  0  0  0  0  0  0  0  # atno 6909 bound_to 6896
  145.4287  140.9555  143.2140 H   0  0  0  0  0  0  0  0  0  0  0  0  # atno 7974 bound_to 7965
  156.1564  140.3149  155.8734 H   0  0  0  0  0  0  0  0  0  0  0  0  # atno 8008 bound_to 7997
  155.3869  140.0491  157.3059 H   0  0  0  0  0  0  0  0  0  0  0  0  # atno 8009 bound_to 7997
  154.5105  140.2163  155.9176 H   0  0  0  0  0  0  0  0  0  0  0  0  # atno 8010 bound_to 7997
  139.5029  144.6191  151.6094 H   0  0  0  0  0  0  0  0  0  0  0  0  # atno 10167 bound_to 10162
  156.0882  130.4204  150.1078 H   0  0  0  0  0  0  0  0  0  0  0  0  # atno 10718 bound_to 10713
  154.8731  135.4042  154.3207 H   0  0  0  0  0  0  0  0  0  0  0  0  # atno 10763 bound_to 10752
  153.4036  135.7019  153.6414 H   0  0  0  0  0  0  0  0  0  0  0  0  # atno 10764 bound_to 10752
  153.5146  135.3700  155.2574 H   0  0  0  0  0  0  0  0  0  0  0  0  # atno 10765 bound_to 10752
  139.9289  134.7617  156.1420 H   0  0  0  0  0  0  0  0  0  0  0  0  # atno 11005 bound_to 11000
  144.8197  139.5814  143.6992 LP  0  0  0  0  0  0  0  0  0  0  0  0  # atno 17320 bound_to 7965
  146.2618  139.6428  142.9356 LP  0  0  0  0  0  0  0  0  0  0  0  0  # atno 17321 bound_to 7965
  140.5888  143.9817  150.6312 LP  0  0  0  0  0  0  0  0  0  0  0  0  # atno 17342 bound_to 10162
  140.2990  143.3273  152.0990 LP  0  0  0  0  0  0  0  0  0  0  0  0  # atno 17343 bound_to 10162
  156.9094  130.9647  151.3565 LP  0  0  0  0  0  0  0  0  0  0  0  0  # atno 17370 bound_to 10713
  157.6023  130.8521  149.8821 LP  0  0  0  0  0  0  0  0  0  0  0  0  # atno 17371 bound_to 10713
  141.0866  133.6732  156.2449 LP  0  0  0  0  0  0  0  0  0  0  0  0  # atno 17394 bound_to 11000
  140.6256  134.5316  157.5553 LP  0  0  0  0  0  0  0  0  0  0  0  0  # atno 17395 bound_to 11000

$$$$
