AV-unprocessed.smi:1809|AV-procd|sdf|7326|dock4
  -GOLD-   22720 8583D 1   1.00000     0.00000
 Structure written by MMmdl.
 39 41  0  0  0  0  0  0  0  0  3 V2000
  151.0919  141.2852  156.2427 C   0  0  0  0  0  0  0  0  0  0  0  0
  151.0183  139.9446  155.5957 C   0  0  0  0  0  0  0  0  0  0  0  0
  150.6340  139.7744  154.3286 N   0  0  0  0  0  0  0  0  0  0  0  0
  150.6432  138.4384  153.9547 N   0  0  0  0  0  0  0  0  0  0  0  0
  151.0246  137.6177  154.9435 C   0  0  0  0  0  0  0  0  0  0  0  0
  151.1042  136.2864  154.7817 N   0  5  0  0  0  0  0  0  0  0  0  0
  150.2173  135.4747  155.3989 C   0  0  0  0  0  0  0  0  0  0  0  0
  150.3356  134.9817  156.5233 O   0  0  0  0  0  0  0  0  0  0  0  0
  149.1270  135.2108  154.6652 N   0  0  0  0  0  0  0  0  0  0  0  0
  148.0215  134.3470  155.0644 C   0  0  0  0  0  0  0  0  0  0  0  0
  147.0868  134.0456  153.8806 C   0  0  1  0  0  0  0  0  0  0  0  0
  145.9700  133.0570  154.2648 C   0  0  0  0  0  0  0  0  0  0  0  0
  144.9983  132.8683  153.1622 N   0  3  2  0  0  0  0  0  0  0  0  0
  145.3956  131.9324  152.0870 C   0  0  0  0  0  0  0  0  0  0  0  0
  144.7471  132.4568  150.7959 C   0  0  0  0  0  0  0  0  0  0  0  0
  143.8925  133.6531  151.2261 C   0  0  0  0  0  0  0  0  0  0  0  0
  144.5402  134.1229  152.5294 C   0  0  2  0  0  0  0  0  0  0  0  0
  145.7171  135.0937  152.2798 C   0  0  0  0  0  0  0  0  0  0  0  0
  146.4757  135.2629  153.4679 O   0  0  0  0  0  0  0  0  0  0  0  0
  151.4285  138.4606  156.4394 S   0  0  0  0  0  0  0  0  0  0  0  0
  150.1048  141.5812  156.5977 H   0  0  0  0  0  0  0  0  0  0  0  0
  151.4477  142.0303  155.5307 H   0  0  0  0  0  0  0  0  0  0  0  0
  151.7768  141.2589  157.0904 H   0  0  0  0  0  0  0  0  0  0  0  0
  149.0691  135.6367  153.7517 H   0  0  0  0  0  0  0  0  0  0  0  0
  148.4149  133.4202  155.4853 H   0  0  0  0  0  0  0  0  0  0  0  0
  147.4697  134.8396  155.8653 H   0  0  0  0  0  0  0  0  0  0  0  0
  147.6749  133.6315  153.0600 H   0  0  0  0  0  0  0  0  0  0  0  0
  146.3842  132.0930  154.5632 H   0  0  0  0  0  0  0  0  0  0  0  0
  145.4256  133.4445  155.1270 H   0  0  0  0  0  0  0  0  0  0  0  0
  146.4797  131.8950  151.9734 H   0  0  0  0  0  0  0  0  0  0  0  0
  145.0540  130.9264  152.3328 H   0  0  0  0  0  0  0  0  0  0  0  0
  145.5223  132.7827  150.1012 H   0  0  0  0  0  0  0  0  0  0  0  0
  144.1542  131.6940  150.2901 H   0  0  0  0  0  0  0  0  0  0  0  0
  143.8389  134.4331  150.4658 H   0  0  0  0  0  0  0  0  0  0  0  0
  142.8738  133.3179  151.4268 H   0  0  0  0  0  0  0  0  0  0  0  0
  143.8094  134.6075  153.1781 H   0  0  0  0  0  0  0  0  0  0  0  0
  146.3681  134.7400  151.4787 H   0  0  0  0  0  0  0  0  0  0  0  0
  145.3372  136.0653  151.9635 H   0  0  0  0  0  0  0  0  0  0  0  0
  144.1742  132.4529  153.5728 H   0  0  0  0  0  0  0  0  0  0  0  0
  1  2  1  0  0  0  0
  1 21  1  0  0  0  0
  1 22  1  0  0  0  0
  1 23  1  0  0  0  0
  2 20  1  0  0  0  0
  2  3  2  0  0  0  0
  3  4  1  0  0  0  0
  4  5  2  0  0  0  0
  5  6  1  0  0  0  0
  5 20  1  0  0  0  0
  6  7  1  0  0  0  0
  7  8  2  0  0  0  0
  7  9  1  0  0  0  0
  9 10  1  0  0  0  0
  9 24  1  0  0  0  0
 10 11  1  0  0  0  0
 10 25  1  0  0  0  0
 10 26  1  0  0  0  0
 11 19  1  0  0  0  0
 11 12  1  0  0  0  0
 11 27  1  0  0  0  0
 12 13  1  0  0  0  0
 12 28  1  0  0  0  0
 12 29  1  0  0  0  0
 13 17  1  0  0  0  0
 13 14  1  0  0  0  0
 13 39  1  0  0  0  0
 14 15  1  0  0  0  0
 14 30  1  0  0  0  0
 14 31  1  0  0  0  0
 15 16  1  0  0  0  0
 15 32  1  0  0  0  0
 15 33  1  0  0  0  0
 16 17  1  0  0  0  0
 16 34  1  0  0  0  0
 16 35  1  0  0  0  0
 17 18  1  0  0  0  0
 17 36  1  0  0  0  0
 18 19  1  0  0  0  0
 18 37  1  0  0  0  0
 18 38  1  0  0  0  0
M  CHG  1   6  -1
M  CHG  1  13   1
M  END
> <s_m_source_file>
AV-unprocessed.smi

> <i_m_source_file_index>
1809

> <i_lp_mmshare_version>
43012

> <i_f3d_flags>
0

> <s_epik_input>
W0NIM11jMW5uYyhzMSlbTkhdQyg9TylbTkhdW0NIMl1bQ0BIXShbQ0gyXTIpT1tDSDJdW0NAQEhdKE4yMylbQ0gyXVtDSDJdW0NIMl0z

> <s_epik_cmdline>
J2VwaWtfcHl0aG9uJywgJy1waCcsICc3LjAnLCAnLXRuJywgJzgnLCAnLW1hJywgJzIwMCcsICctbWV0YWxfYmluZGluZycsICctaW1hZScsICc8aW5maWxlLm1hZT4nLCAnLW9tYWUnLCAnPG91dGZpbGUubWFlPic=

> <r_lp_tautomer_probability>
1

> <r_epik_Ionization_Penalty>
3.2601

> <r_epik_Ionization_Penalty_Charging>
3.1406

> <r_epik_Ionization_Penalty_Neutral>
0.119497

> <r_epik_State_Penalty>
3.08894

> <r_epik_Charging_Adjusted_Penalty>
6.22954

> <i_epik_Tot_Q>
0

> <i_epik_Tot_abs_Q>
2

> <r_epik_Metal_State_Penalty>
0.510807

> <b_epik_Metal_Only>
1

> <s_lp_Force_Field>
OPLS_2005

> <r_lp_Energy>
28.762

> <b_lp_Chiralities_Consistent>
1

> <s_lp_Variant>
AV-unprocessed.smi:1809-18

> <Gold.Version>
5.8.1

> <Gold.Id.Protein>
6NUR|6NUR_protein|mol2

> <Gold.PLP.Fitness>
41.5629

> <Gold.PLP.PLP>
-26.5285

> <Gold.PLP.part.hbond>
-4.0000

> <Gold.PLP.part.metal>
0.0000

> <Gold.PLP.part.buried>
-6.4532

> <Gold.PLP.part.nonpolar>
-18.4673

> <Gold.PLP.part.repulsive>
0.8041

> <Gold.PLP.ligand.clash>
0.0000

> <Gold.PLP.ligand.torsion>
1.4880

> <Gold.PLP.Chemscore.Hbond>
6.0000

> <Gold.PLP.Chemscore.CHOScore>
0.0000

> <Gold.PLP.Chemscore.Metal>
0.0000

> <Gold.Chemscore.Hbonds>
donor molecule, donor type, donor heavy atom, donor atom, acceptor molecule, acceptor atom, score
      L1  H     9    24       P1  7948  1.00
      L1  H    13    39       P1 10957  1.95
      P1  H  7989  7998       L1     3  1.00
      P1  H 10752 10765       L1     6  2.00

> <Gold.PLP.Chemscore.Internal.Correction>
0.0105

> <Gold.Rescore>
     Score         DG    S(hbond)    S(metal)    S(lipo)     H(rot)  DE(clash)    DE(int)     intcor
     17.24     -18.86       3.25        0.00      50.57       1.32       0.14       1.48       ----

> <Gold.Chemscore.Fitness>
17.2364

> <Gold.Chemscore.DG>
-18.8598

> <Gold.Chemscore.ZeroCoef>
-5.4800

> <Gold.Chemscore.Hbond>
3.2496

> <Gold.Chemscore.Metal>
0.0000

> <Gold.Chemscore.Lipo>
50.5723

> <Gold.Chemscore.Internal_Hbond>
0.0000

> <Gold.Chemscore.DEClash>
0.1449

> <Gold.Chemscore.DEInternal>
1.4786

> <Gold.Chemscore.Rot>
1.3246

> <Gold.Chemscore.Internal.Correction>
   9.000000E+99

> <Gold.Chemscore.Hbonds>
donor molecule, donor type, donor heavy atom, donor atom, acceptor molecule, acceptor atom, score
      L1  H     9    24       P1  7948  0.77
      L1  H    13    39       P1 10957  0.24
      P1  H  7989  7998       L1     3  0.38
      P1  H 10752 10765       L1     6  0.85

> <Gold.Chemscore.Hbond.Weighted>
-10.8538

> <Gold.Chemscore.Metal.Weighted>
-0.0000

> <Gold.Chemscore.Lipo.Weighted>
-5.9170

> <Gold.Chemscore.Internal_Hbond.Weighted>
0.0000

> <Gold.Chemscore.DEClash.Weighted>
0.1449

> <Gold.Chemscore.DEInternal.Weighted>
1.4786

> <Gold.Chemscore.Rot.Weighted>
3.3910

> <Gold.Chemscore.Internal.Correction.Weighted>
   9.000000E+99

> <Gold.Protein.RotatedTorsions>
[ 6907 6896 6895 6894 ] final    7.77 input  -60.11 | X-H torsion
[ 7974 7965 7964 7962 ] final  163.00 input  175.53 | X-H torsion
[ 8008 7997 7996 7995 ] final    1.25 input   59.86 | X-H torsion
[ 10167 10162 10161 10158 ] final  116.69 input  -65.29 | X-H torsion
[ 10718 10713 10712 10709 ] final  -41.17 input   66.30 | X-H torsion
[ 10763 10752 10751 10750 ] final  167.66 input  -60.55 | X-H torsion
[ 11005 11000 10999 10996 ] final  -80.52 input  -57.11 | X-H torsion

> <Gold.Protein.ActiveResidues>
 VAL166  LYS551  ARG553  GLY616  TRP617  ASP618  TYR619  PRO620  LYS621  CYS622 
 ASP623  PHE694  ASN695  SER759  ASP760  ASP761  ALA762  ILE779  LEU786  VAL792 
 PHE793  MET794  SER795  GLU796  ALA797  LYS798  CYS799  TRP800  GLU811  SER814 

> <Gold.Protein.RotatedAtoms>
  151.6953  135.0939  160.0240 H   0  0  0  0  0  0  0  0  0  0  0  0  # atno 6907 bound_to 6896
  152.3754  133.6470  159.6128 H   0  0  0  0  0  0  0  0  0  0  0  0  # atno 6908 bound_to 6896
  150.7705  133.9119  159.3413 H   0  0  0  0  0  0  0  0  0  0  0  0  # atno 6909 bound_to 6896
  144.7610  139.8120  143.6332 H   0  0  0  0  0  0  0  0  0  0  0  0  # atno 7974 bound_to 7965
  154.6776  140.2625  155.6942 H   0  0  0  0  0  0  0  0  0  0  0  0  # atno 8008 bound_to 7997
  156.2684  140.2817  156.1230 H   0  0  0  0  0  0  0  0  0  0  0  0  # atno 8009 bound_to 7997
  155.1078  140.0375  157.2705 H   0  0  0  0  0  0  0  0  0  0  0  0  # atno 8010 bound_to 7997
  139.6230  144.7104  151.2594 H   0  0  0  0  0  0  0  0  0  0  0  0  # atno 10167 bound_to 10162
  156.2733  130.4209  149.8414 H   0  0  0  0  0  0  0  0  0  0  0  0  # atno 10718 bound_to 10713
  154.3572  135.2753  155.2340 H   0  0  0  0  0  0  0  0  0  0  0  0  # atno 10763 bound_to 10752
  154.4544  135.5923  153.6216 H   0  0  0  0  0  0  0  0  0  0  0  0  # atno 10764 bound_to 10752
  152.9846  135.6049  154.3788 H   0  0  0  0  0  0  0  0  0  0  0  0  # atno 10765 bound_to 10752
  141.1668  133.7154  156.8286 H   0  0  0  0  0  0  0  0  0  0  0  0  # atno 11005 bound_to 11000
  146.1673  139.4809  142.9950 LP  0  0  0  0  0  0  0  0  0  0  0  0  # atno 17320 bound_to 7965
  145.6620  141.0238  143.1704 LP  0  0  0  0  0  0  0  0  0  0  0  0  # atno 17321 bound_to 7965
  140.7393  143.6621  150.8155 LP  0  0  0  0  0  0  0  0  0  0  0  0  # atno 17342 bound_to 10162
  140.0234  143.5518  152.2791 LP  0  0  0  0  0  0  0  0  0  0  0  0  # atno 17343 bound_to 10162
  156.5888  130.8497  151.3402 LP  0  0  0  0  0  0  0  0  0  0  0  0  # atno 17370 bound_to 10713
  157.7291  130.9666  150.1772 LP  0  0  0  0  0  0  0  0  0  0  0  0  # atno 17371 bound_to 10713
  140.2067  134.8857  157.3230 LP  0  0  0  0  0  0  0  0  0  0  0  0  # atno 17394 bound_to 11000
  140.2129  134.4116  155.7603 LP  0  0  0  0  0  0  0  0  0  0  0  0  # atno 17395 bound_to 11000

$$$$
