AV-unprocessed.smi:3109|AV-procd|sdf|11827|dock6
  -GOLD-   2272017203D 1   1.00000     0.00000
 Structure written by MMmdl.
 37 38  0  0  0  0  0  0  0  0  2 V2000
  147.7158  139.9631  153.7995 C   0  0  0  0  0  0  0  0  0  0  0  0
  148.4882  138.7745  153.9204 C   0  0  0  0  0  0  0  0  0  0  0  0
  149.5963  138.9569  154.6204 N   0  0  0  0  0  0  0  0  0  0  0  0
  149.5742  140.2644  154.9602 N   0  0  0  0  0  0  0  0  0  0  0  0
  150.6440  140.8255  155.7693 C   0  0  0  0  0  0  0  0  0  0  0  0
  150.1306  141.6152  156.9862 C   0  0  0  0  0  0  0  0  0  0  0  0
  150.8846  142.8747  157.1687 N   0  3  0  0  0  0  0  0  0  0  0  0
  151.2042  143.2292  158.5704 C   0  0  0  0  0  0  0  0  0  0  0  0
  151.6171  144.7145  158.6422 C   0  0  0  0  0  0  0  0  0  0  0  0
  151.2714  145.3764  159.9890 C   0  0  0  0  0  0  0  0  0  0  0  0
  152.1717  144.9731  161.1653 C   0  0  0  0  0  0  0  0  0  0  0  0
  152.2302  143.4620  161.4415 C   0  0  0  0  0  0  0  0  0  0  0  0
  153.0441  142.7017  160.3837 C   0  0  0  0  0  0  0  0  0  0  0  0
  152.2586  142.2490  159.1398 C   0  0  0  0  0  0  0  0  0  0  0  0
  148.4406  140.8930  154.4885 C   0  0  0  0  0  0  0  0  0  0  0  0
  146.7731  140.1080  153.2928 H   0  0  0  0  0  0  0  0  0  0  0  0
  148.2769  137.7916  153.5257 H   0  0  0  0  0  0  0  0  0  0  0  0
  151.2971  140.0150  156.0957 H   0  0  0  0  0  0  0  0  0  0  0  0
  151.2451  141.4745  155.1313 H   0  0  0  0  0  0  0  0  0  0  0  0
  149.0753  141.8509  156.8455 H   0  0  0  0  0  0  0  0  0  0  0  0
  150.1972  141.0008  157.8839 H   0  0  0  0  0  0  0  0  0  0  0  0
  151.7471  142.8183  156.6457 H   0  0  0  0  0  0  0  0  0  0  0  0
  150.2802  143.1180  159.1401 H   0  0  0  0  0  0  0  0  0  0  0  0
  152.6732  144.8416  158.4001 H   0  0  0  0  0  0  0  0  0  0  0  0
  151.0720  145.2674  157.8756 H   0  0  0  0  0  0  0  0  0  0  0  0
  151.3406  146.4582  159.8698 H   0  0  0  0  0  0  0  0  0  0  0  0
  150.2289  145.1779  160.2404 H   0  0  0  0  0  0  0  0  0  0  0  0
  153.1798  145.3570  161.0034 H   0  0  0  0  0  0  0  0  0  0  0  0
  151.8071  145.4773  162.0610 H   0  0  0  0  0  0  0  0  0  0  0  0
  152.7195  143.3224  162.4063 H   0  0  0  0  0  0  0  0  0  0  0  0
  151.2308  143.0390  161.5502 H   0  0  0  0  0  0  0  0  0  0  0  0
  153.8979  143.3075  160.0776 H   0  0  0  0  0  0  0  0  0  0  0  0
  153.4778  141.8136  160.8448 H   0  0  0  0  0  0  0  0  0  0  0  0
  151.7596  141.3093  159.3788 H   0  0  0  0  0  0  0  0  0  0  0  0
  152.9861  142.0029  158.3646 H   0  0  0  0  0  0  0  0  0  0  0  0
  148.2450  141.9383  154.6782 H   0  0  0  0  0  0  0  0  0  0  0  0
  150.3245  143.6207  156.7818 H   0  0  0  0  0  0  0  0  0  0  0  0
  1 15  2  0  0  0  0
  1  2  1  0  0  0  0
  1 16  1  0  0  0  0
  2  3  2  0  0  0  0
  2 17  1  0  0  0  0
  3  4  1  0  0  0  0
  4  5  1  0  0  0  0
  4 15  1  0  0  0  0
  5  6  1  0  0  0  0
  5 18  1  0  0  0  0
  5 19  1  0  0  0  0
  6  7  1  0  0  0  0
  6 20  1  0  0  0  0
  6 21  1  0  0  0  0
  7  8  1  0  0  0  0
  7 22  1  0  0  0  0
  7 37  1  0  0  0  0
  8 14  1  0  0  0  0
  8  9  1  0  0  0  0
  8 23  1  0  0  0  0
  9 10  1  0  0  0  0
  9 24  1  0  0  0  0
  9 25  1  0  0  0  0
 10 11  1  0  0  0  0
 10 26  1  0  0  0  0
 10 27  1  0  0  0  0
 11 12  1  0  0  0  0
 11 28  1  0  0  0  0
 11 29  1  0  0  0  0
 12 13  1  0  0  0  0
 12 30  1  0  0  0  0
 12 31  1  0  0  0  0
 13 14  1  0  0  0  0
 13 32  1  0  0  0  0
 13 33  1  0  0  0  0
 14 34  1  0  0  0  0
 14 35  1  0  0  0  0
 15 36  1  0  0  0  0
M  CHG  1   7   1
M  END
> <s_m_source_file>
AV-unprocessed.smi

> <i_m_source_file_index>
3109

> <i_lp_mmshare_version>
43012

> <i_f3d_flags>
0

> <s_epik_input>
W2NIXTFbY0hdW2NIXW5uMVtDSDJdW0NIMl1bTkhdW0NIXTJbQ0gyXVtDSDJdW0NIMl1bQ0gyXVtDSDJdW0NIMl0y

> <s_epik_cmdline>
J2VwaWtfcHl0aG9uJywgJy1waCcsICc3LjAnLCAnLXRuJywgJzgnLCAnLW1hJywgJzIwMCcsICctbWV0YWxfYmluZGluZycsICctaW1hZScsICc8aW5maWxlLm1hZT4nLCAnLW9tYWUnLCAnPG91dGZpbGUubWFlPic=

> <r_lp_tautomer_probability>
1

> <r_epik_Ionization_Penalty>
0.00143219

> <r_epik_Ionization_Penalty_Charging>
0.00142912

> <r_epik_Ionization_Penalty_Neutral>
3.07097e-06

> <r_epik_State_Penalty>
-0

> <r_epik_Charging_Adjusted_Penalty>
0.00142912

> <i_epik_Tot_Q>
1

> <i_epik_Tot_abs_Q>
1

> <r_epik_Metal_State_Penalty>
-0

> <b_epik_Metal_Only>
0

> <s_lp_Force_Field>
OPLS_2005

> <r_lp_Energy>
18.9936

> <b_lp_Chiralities_Consistent>
1

> <s_lp_Variant>
AV-unprocessed.smi:3109-1

> <Gold.Version>
5.8.1

> <Gold.Id.Protein>
6NUR|6NUR_protein|mol2

> <Gold.PLP.Fitness>
47.4300

> <Gold.PLP.PLP>
-38.0259

> <Gold.PLP.part.hbond>
-1.0000

> <Gold.PLP.part.metal>
0.0000

> <Gold.PLP.part.buried>
1.0597

> <Gold.PLP.part.nonpolar>
-36.9098

> <Gold.PLP.part.repulsive>
0.1722

> <Gold.PLP.ligand.clash>
0.0000

> <Gold.PLP.ligand.torsion>
0.7736

> <Gold.PLP.Chemscore.Hbond>
2.0000

> <Gold.PLP.Chemscore.CHOScore>
1.6426

> <Gold.PLP.Chemscore.Metal>
0.0000

> <Gold.Chemscore.Hbonds>
donor molecule, donor type, donor heavy atom, donor atom, acceptor molecule, acceptor atom, score
      L1  H     7    37       P1  8028  1.56
      L1  C     2    17       P1  7948  1.00

> <Gold.PLP.Chemscore.Internal.Correction>
0.0234

> <Gold.Rescore>
     Score         DG    S(hbond)    S(metal)    S(lipo)     H(rot)  DE(clash)    DE(int)     intcor
     16.95     -18.21       0.96        0.00     113.16       1.46       0.64       0.63       ----

> <Gold.Chemscore.Fitness>
16.9453

> <Gold.Chemscore.DG>
-18.2123

> <Gold.Chemscore.ZeroCoef>
-5.4800

> <Gold.Chemscore.Hbond>
0.9647

> <Gold.Chemscore.Metal>
0.0000

> <Gold.Chemscore.Lipo>
113.1595

> <Gold.Chemscore.Internal_Hbond>
0.0000

> <Gold.Chemscore.DEClash>
0.6412

> <Gold.Chemscore.DEInternal>
0.6257

> <Gold.Chemscore.Rot>
1.4568

> <Gold.Chemscore.Internal.Correction>
   9.000000E+99

> <Gold.Chemscore.Hbonds>
donor molecule, donor type, donor heavy atom, donor atom, acceptor molecule, acceptor atom, score
      L1  H     7    37       P1  8028  0.77

> <Gold.Chemscore.Hbond.Weighted>
-3.2220

> <Gold.Chemscore.Metal.Weighted>
-0.0000

> <Gold.Chemscore.Lipo.Weighted>
-13.2397

> <Gold.Chemscore.Internal_Hbond.Weighted>
0.0000

> <Gold.Chemscore.DEClash.Weighted>
0.6412

> <Gold.Chemscore.DEInternal.Weighted>
0.6257

> <Gold.Chemscore.Rot.Weighted>
3.7293

> <Gold.Chemscore.Internal.Correction.Weighted>
   9.000000E+99

> <Gold.Protein.RotatedTorsions>
[ 6907 6896 6895 6894 ] final   92.85 input  -60.11 | X-H torsion
[ 7974 7965 7964 7962 ] final -133.01 input  175.53 | X-H torsion
[ 8008 7997 7996 7995 ] final  -28.89 input   59.86 | X-H torsion
[ 10167 10162 10161 10158 ] final   77.90 input  -65.29 | X-H torsion
[ 10718 10713 10712 10709 ] final  -18.14 input   66.30 | X-H torsion
[ 10763 10752 10751 10750 ] final  111.14 input  -60.55 | X-H torsion
[ 11005 11000 10999 10996 ] final  130.72 input  -57.11 | X-H torsion

> <Gold.Protein.ActiveResidues>
 VAL166  LYS551  ARG553  GLY616  TRP617  ASP618  TYR619  PRO620  LYS621  CYS622 
 ASP623  PHE694  ASN695  SER759  ASP760  ASP761  ALA762  ILE779  LEU786  VAL792 
 PHE793  MET794  SER795  GLU796  ALA797  LYS798  CYS799  TRP800  GLU811  SER814 

> <Gold.Protein.RotatedAtoms>
  152.5453  134.1438  159.8489 H   0  0  0  0  0  0  0  0  0  0  0  0  # atno 6907 bound_to 6896
  151.1471  133.4925  159.2603 H   0  0  0  0  0  0  0  0  0  0  0  0  # atno 6908 bound_to 6896
  151.1511  135.0238  159.8723 H   0  0  0  0  0  0  0  0  0  0  0  0  # atno 6909 bound_to 6896
  144.9232  140.7040  143.4952 H   0  0  0  0  0  0  0  0  0  0  0  0  # atno 7974 bound_to 7965
  154.4313  140.1833  156.1161 H   0  0  0  0  0  0  0  0  0  0  0  0  # atno 8008 bound_to 7997
  156.0180  140.3344  155.6983 H   0  0  0  0  0  0  0  0  0  0  0  0  # atno 8009 bound_to 7997
  155.6017  140.0641  157.2722 H   0  0  0  0  0  0  0  0  0  0  0  0  # atno 8010 bound_to 7997
  139.9767  144.5856  150.7937 H   0  0  0  0  0  0  0  0  0  0  0  0  # atno 10167 bound_to 10162
  156.5637  130.4732  149.6395 H   0  0  0  0  0  0  0  0  0  0  0  0  # atno 10718 bound_to 10713
  153.4590  135.3726  155.2327 H   0  0  0  0  0  0  0  0  0  0  0  0  # atno 10763 bound_to 10752
  154.8757  135.3904  154.3947 H   0  0  0  0  0  0  0  0  0  0  0  0  # atno 10764 bound_to 10752
  153.4518  135.7085  153.6168 H   0  0  0  0  0  0  0  0  0  0  0  0  # atno 10765 bound_to 10752
  139.9688  134.9583  156.9334 H   0  0  0  0  0  0  0  0  0  0  0  0  # atno 11005 bound_to 11000
  145.3261  139.1773  143.4562 LP  0  0  0  0  0  0  0  0  0  0  0  0  # atno 17320 bound_to 7965
  146.3214  140.3285  142.8638 LP  0  0  0  0  0  0  0  0  0  0  0  0  # atno 17321 bound_to 7965
  140.7503  143.2954  151.3220 LP  0  0  0  0  0  0  0  0  0  0  0  0  # atno 17342 bound_to 10162
  139.6440  144.0485  152.2577 LP  0  0  0  0  0  0  0  0  0  0  0  0  # atno 17343 bound_to 10162
  156.2776  130.7053  151.1868 LP  0  0  0  0  0  0  0  0  0  0  0  0  # atno 17370 bound_to 10713
  157.7363  131.0563  150.5421 LP  0  0  0  0  0  0  0  0  0  0  0  0  # atno 17371 bound_to 10713
  140.5338  134.0787  155.7323 LP  0  0  0  0  0  0  0  0  0  0  0  0  # atno 17394 bound_to 11000
  141.1368  133.9208  157.2416 LP  0  0  0  0  0  0  0  0  0  0  0  0  # atno 17395 bound_to 11000

$$$$
