AV-unprocessed.smi:72|AV-procd|sdf|756|dock8
  -GOLD-   2262017 93D 1   1.00000     0.00000
 Structure written by MMmdl.
 29 30  0  0  0  0  0  0  0  0  1 V2000
  153.7884  137.4418  156.8223 N   0  0  0  0  0  0  0  0  0  0  0  0
  152.8874  138.4302  156.4864 C   0  0  0  0  0  0  0  0  0  0  0  0
  152.1877  138.2533  155.2856 N   0  0  0  0  0  0  0  0  0  0  0  0
  151.3331  139.1744  154.9705 C   0  0  0  0  0  0  0  0  0  0  0  0
  151.0996  140.3205  155.8364 N   0  0  0  0  0  0  0  0  0  0  0  0
  150.1200  141.4320  155.4891 C   0  0  1  0  0  0  0  0  0  0  0  0
  149.5807  141.2136  154.2173 O   0  0  0  0  0  0  0  0  0  0  0  0
  148.3173  140.5662  154.3346 C   0  0  2  0  0  0  0  0  0  0  0  0
  147.5126  140.6696  153.0274 C   0  0  0  0  0  0  0  0  0  0  0  0
  146.3944  139.8096  153.0818 O   0  0  0  0  0  0  0  0  0  0  0  0
  147.7128  141.2749  155.5503 C   0  0  2  0  0  0  0  0  0  0  0  0
  147.1294  142.5115  155.1695 O   0  0  0  0  0  0  0  0  0  0  0  0
  148.9244  141.4489  156.4686 C   0  0  2  0  0  0  0  0  0  0  0  0
  148.8503  142.6333  157.2396 O   0  0  0  0  0  0  0  0  0  0  0  0
  151.8779  140.4528  157.0205 C   0  0  0  0  0  0  0  0  0  0  0  0
  151.7432  141.4410  157.7418 O   0  0  0  0  0  0  0  0  0  0  0  0
  152.7824  139.4266  157.3172 N   0  0  0  0  0  0  0  0  0  0  0  0
  150.7172  142.3457  155.4833 H   0  0  0  0  0  0  0  0  0  0  0  0
  148.4662  139.5169  154.5963 H   0  0  0  0  0  0  0  0  0  0  0  0
  146.9379  140.6693  156.0216 H   0  0  0  0  0  0  0  0  0  0  0  0
  148.9914  140.5906  157.1390 H   0  0  0  0  0  0  0  0  0  0  0  0
  154.3497  137.4638  157.6612 H   0  0  0  0  0  0  0  0  0  0  0  0
  153.9502  136.6215  156.2568 H   0  0  0  0  0  0  0  0  0  0  0  0
  150.7514  139.1415  154.0495 H   0  0  0  0  0  0  0  0  0  0  0  0
  147.1371  141.6849  152.8964 H   0  0  0  0  0  0  0  0  0  0  0  0
  148.1288  140.4339  152.1591 H   0  0  0  0  0  0  0  0  0  0  0  0
  145.6796  140.2165  152.6167 H   0  0  0  0  0  0  0  0  0  0  0  0
  147.8165  143.1579  155.1122 H   0  0  0  0  0  0  0  0  0  0  0  0
  148.7510  143.3651  156.6495 H   0  0  0  0  0  0  0  0  0  0  0  0
  1  2  1  0  0  0  0
  1 22  1  0  0  0  0
  1 23  1  0  0  0  0
  2 17  2  0  0  0  0
  2  3  1  0  0  0  0
  3  4  2  0  0  0  0
  4  5  1  0  0  0  0
  4 24  1  0  0  0  0
  5  6  1  0  0  0  0
  5 15  1  0  0  0  0
  6 18  1  0  0  0  0
  6 13  1  0  0  0  0
  6  7  1  0  0  0  0
  7  8  1  0  0  0  0
  8 19  1  0  0  0  0
  8  9  1  0  0  0  0
  8 11  1  0  0  0  0
  9 10  1  0  0  0  0
  9 25  1  0  0  0  0
  9 26  1  0  0  0  0
 10 27  1  0  0  0  0
 11 20  1  0  0  0  0
 11 12  1  0  0  0  0
 11 13  1  0  0  0  0
 12 28  1  0  0  0  0
 13 21  1  0  0  0  0
 13 14  1  0  0  0  0
 14 29  1  0  0  0  0
 15 16  2  0  0  0  0
 15 17  1  0  0  0  0
M  END
> <s_m_source_file>
AV-unprocessed.smi

> <i_m_source_file_index>
72

> <i_lp_mmshare_version>
43012

> <i_f3d_flags>
0

> <s_epik_input>
W05IMl1jMW5bY0hdbihjKD1PKW4xKVtDQEBIXTJPW0NASF0oW0NIMl1bT0hdKVtDQEBIXShbT0hdKVtDQEhdMltPSF0=

> <s_epik_cmdline>
J2VwaWtfcHl0aG9uJywgJy1waCcsICc3LjAnLCAnLXRuJywgJzgnLCAnLW1hJywgJzIwMCcsICctbWV0YWxfYmluZGluZycsICctaW1hZScsICc8aW5maWxlLm1hZT4nLCAnLW9tYWUnLCAnPG91dGZpbGUubWFlPic=

> <r_lp_tautomer_probability>
4.77166e-05

> <r_epik_Ionization_Penalty>
1.3546

> <r_epik_Ionization_Penalty_Charging>
1.46833e-10

> <r_epik_Ionization_Penalty_Neutral>
1.3546

> <r_epik_State_Penalty>
3.51908

> <r_epik_Charging_Adjusted_Penalty>
3.51908

> <i_epik_Tot_Q>
0

> <i_epik_Tot_abs_Q>
0

> <r_epik_Metal_State_Penalty>
3.44088

> <b_epik_Metal_Only>
1

> <s_epik_Chemistry_Notes>
This compound contains an acetal/aminal-like group ( X-CH(R)-Y where X, Y are N, S, or O) that may be acid/base labile, releasing an aldehyde.

> <s_lp_Force_Field>
OPLS_2005

> <r_lp_Energy>
31.1202

> <b_lp_Chiralities_Consistent>
1

> <s_lp_Variant>
AV-unprocessed.smi:72-94

> <Gold.Version>
5.8.1

> <Gold.Id.Protein>
6NUR|6NUR_protein|mol2

> <Gold.PLP.Fitness>
38.0732

> <Gold.PLP.PLP>
-24.7718

> <Gold.PLP.part.hbond>
-6.0000

> <Gold.PLP.part.metal>
0.0000

> <Gold.PLP.part.buried>
1.0634

> <Gold.PLP.part.nonpolar>
-17.8094

> <Gold.PLP.part.repulsive>
1.0270

> <Gold.PLP.ligand.clash>
0.0000

> <Gold.PLP.ligand.torsion>
0.1967

> <Gold.PLP.Chemscore.Hbond>
4.5557

> <Gold.PLP.Chemscore.CHOScore>
0.0000

> <Gold.PLP.Chemscore.Metal>
0.0000

> <Gold.Chemscore.Hbonds>
donor molecule, donor type, donor heavy atom, donor atom, acceptor molecule, acceptor atom, score
      L1  H    10    27       P1 10175  0.96
      L1  H    12    28       P1  8028  1.00
      L1  H    14    29       P1  8028  1.00
      P1  H  7989  7998       L1     7  0.12
      P1  H  7997  8008       L1    17  0.60
      P1  H  8011  8017       L1     7  0.35

> <Gold.PLP.Chemscore.Internal.Correction>
0.0275

> <Gold.Rescore>
     Score         DG    S(hbond)    S(metal)    S(lipo)     H(rot)  DE(clash)    DE(int)     intcor
      7.26      -7.82       3.07        0.00      21.32       4.06       0.30       0.27       ----

> <Gold.Chemscore.Fitness>
7.2572

> <Gold.Chemscore.DG>
-7.8239

> <Gold.Chemscore.ZeroCoef>
-5.4800

> <Gold.Chemscore.Hbond>
3.0670

> <Gold.Chemscore.Metal>
0.0000

> <Gold.Chemscore.Lipo>
21.3155

> <Gold.Chemscore.Internal_Hbond>
0.0000

> <Gold.Chemscore.DEClash>
0.2985

> <Gold.Chemscore.DEInternal>
0.2682

> <Gold.Chemscore.Rot>
4.0600

> <Gold.Chemscore.Internal.Correction>
   9.000000E+99

> <Gold.Chemscore.Hbonds>
donor molecule, donor type, donor heavy atom, donor atom, acceptor molecule, acceptor atom, score
      L1  H    10    27       P1 10175  0.75
      L1  H    12    28       P1  8028  0.64
      L1  H    14    29       P1  8028  0.74
      P1  H  7997  8008       L1    17  0.03
      P1  H  8011  8017       L1     7  0.31

> <Gold.Chemscore.Hbond.Weighted>
-10.2436

> <Gold.Chemscore.Metal.Weighted>
-0.0000

> <Gold.Chemscore.Lipo.Weighted>
-2.4939

> <Gold.Chemscore.Internal_Hbond.Weighted>
0.0000

> <Gold.Chemscore.DEClash.Weighted>
0.2985

> <Gold.Chemscore.DEInternal.Weighted>
0.2682

> <Gold.Chemscore.Rot.Weighted>
10.3936

> <Gold.Chemscore.Internal.Correction.Weighted>
   9.000000E+99

> <Gold.Protein.RotatedTorsions>
[ 6907 6896 6895 6894 ] final   34.97 input  -60.11 | X-H torsion
[ 7974 7965 7964 7962 ] final  -77.42 input  175.53 | X-H torsion
[ 8008 7997 7996 7995 ] final  -79.05 input   59.86 | X-H torsion
[ 10167 10162 10161 10158 ] final   43.02 input  -65.29 | X-H torsion
[ 10718 10713 10712 10709 ] final  125.21 input   66.30 | X-H torsion
[ 10763 10752 10751 10750 ] final  -41.77 input  -60.55 | X-H torsion
[ 11005 11000 10999 10996 ] final -131.65 input  -57.11 | X-H torsion

> <Gold.Protein.ActiveResidues>
 VAL166  LYS551  ARG553  GLY616  TRP617  ASP618  TYR619  PRO620  LYS621  CYS622 
 ASP623  PHE694  ASN695  SER759  ASP760  ASP761  ALA762  ILE779  LEU786  VAL792 
 PHE793  MET794  SER795  GLU796  ALA797  LYS798  CYS799  TRP800  GLU811  SER814 

> <Gold.Protein.RotatedAtoms>
  152.1098  134.9283  160.0566 H   0  0  0  0  0  0  0  0  0  0  0  0  # atno 6907 bound_to 6896
  152.0465  133.3995  159.4367 H   0  0  0  0  0  0  0  0  0  0  0  0  # atno 6908 bound_to 6896
  150.6843  134.3277  159.4857 H   0  0  0  0  0  0  0  0  0  0  0  0  # atno 6909 bound_to 6896
  145.5999  140.9411  143.1246 H   0  0  0  0  0  0  0  0  0  0  0  0  # atno 7974 bound_to 7965
  154.5748  140.0684  156.9017 H   0  0  0  0  0  0  0  0  0  0  0  0  # atno 8008 bound_to 7997
  155.2569  140.3355  155.4258 H   0  0  0  0  0  0  0  0  0  0  0  0  # atno 8009 bound_to 7997
  156.2145  140.1773  156.7605 H   0  0  0  0  0  0  0  0  0  0  0  0  # atno 8010 bound_to 7997
  140.3486  144.2379  150.6148 H   0  0  0  0  0  0  0  0  0  0  0  0  # atno 10167 bound_to 10162
  157.5522  131.1093  150.8683 H   0  0  0  0  0  0  0  0  0  0  0  0  # atno 10718 bound_to 10713
  153.9681  135.6731  153.4746 H   0  0  0  0  0  0  0  0  0  0  0  0  # atno 10763 bound_to 10752
  153.0806  135.4925  154.8491 H   0  0  0  0  0  0  0  0  0  0  0  0  # atno 10764 bound_to 10752
  154.7235  135.3122  154.8970 H   0  0  0  0  0  0  0  0  0  0  0  0  # atno 10765 bound_to 10752
  140.9240  134.1407  157.4290 H   0  0  0  0  0  0  0  0  0  0  0  0  # atno 11005 bound_to 11000
  144.7314  139.7714  143.7345 LP  0  0  0  0  0  0  0  0  0  0  0  0  # atno 17320 bound_to 7965
  146.1584  139.4689  143.0004 LP  0  0  0  0  0  0  0  0  0  0  0  0  # atno 17321 bound_to 7965
  140.5241  143.2258  151.8343 LP  0  0  0  0  0  0  0  0  0  0  0  0  # atno 17342 bound_to 10162
  139.4829  144.4801  151.9317 LP  0  0  0  0  0  0  0  0  0  0  0  0  # atno 17343 bound_to 10162
  156.9204  130.5313  149.5279 LP  0  0  0  0  0  0  0  0  0  0  0  0  # atno 17370 bound_to 10713
  156.0586  130.5643  150.9146 LP  0  0  0  0  0  0  0  0  0  0  0  0  # atno 17371 bound_to 10713
  139.8781  134.9982  156.5885 LP  0  0  0  0  0  0  0  0  0  0  0  0  # atno 17394 bound_to 11000
  140.7950  133.8551  155.8678 LP  0  0  0  0  0  0  0  0  0  0  0  0  # atno 17395 bound_to 11000

$$$$
