AV-unprocessed.smi:2159|AV-procd|sdf|8791|dock9
  -GOLD-   2272011573D 1   1.00000     0.00000
 Structure written by MMmdl.
 47 49  0  0  0  0  0  0  0  0  1 V2000
  148.7202  139.8027  158.2883 O   0  0  0  0  0  0  0  0  0  0  0  0
  149.7190  139.3803  157.7055 C   0  0  0  0  0  0  0  0  0  0  0  0
  150.3098  140.1628  156.5319 C   0  0  0  0  0  0  0  0  0  0  0  0
  151.8196  140.4141  156.7135 C   0  0  0  0  0  0  0  0  0  0  0  0
  152.1009  141.0922  157.9803 N   0  0  0  0  0  0  0  0  0  0  0  0
  151.5502  142.2630  158.3530 C   0  0  0  0  0  0  0  0  0  0  0  0
  150.6775  142.8978  157.7618 O   0  0  0  0  0  0  0  0  0  0  0  0
  152.2407  142.7489  159.6186 C   0  0  1  0  0  0  0  0  0  0  0  0
  151.5057  143.5258  160.7120 C   0  0  0  0  0  0  0  0  0  0  0  0
  152.5518  143.8464  161.8125 C   0  0  0  0  0  0  0  0  0  0  0  0
  153.3675  142.6090  162.2907 C   0  0  0  0  0  0  0  0  0  0  0  0
  153.9306  141.7378  161.1363 C   0  0  0  0  0  0  0  0  0  0  0  0
  152.7644  141.4463  160.1911 C   0  0  2  0  0  0  0  0  0  0  0  0
  152.9207  140.6062  158.9320 C   0  0  0  0  0  0  0  0  0  0  0  0
  153.6337  139.6056  158.8609 O   0  0  0  0  0  0  0  0  0  0  0  0
  150.3285  138.2263  158.0215 N   0  0  0  0  0  0  0  0  0  0  0  0
  149.8520  137.2608  159.0093 C   0  0  0  0  0  0  0  0  0  0  0  0
  148.3122  137.1883  159.0684 C   0  0  0  0  0  0  0  0  0  0  0  0
  147.7730  136.5013  160.3130 C   0  0  0  0  0  0  0  0  0  0  0  0
  147.8282  135.0969  160.4370 C   0  0  0  0  0  0  0  0  0  0  0  0
  147.3625  134.5103  161.6295 C   0  0  0  0  0  0  0  0  0  0  0  0
  146.8612  135.3456  162.6465 C   0  0  0  0  0  0  0  0  0  0  0  0
  146.8464  136.7368  162.4244 C   0  0  0  0  0  0  0  0  0  0  0  0
  147.2918  137.3095  161.2857 N   0  0  0  0  0  0  0  0  0  0  0  0
  150.1269  139.6113  155.6090 H   0  0  0  0  0  0  0  0  0  0  0  0
  149.7846  141.1146  156.4367 H   0  0  0  0  0  0  0  0  0  0  0  0
  152.3675  139.4705  156.6791 H   0  0  0  0  0  0  0  0  0  0  0  0
  152.2044  141.0058  155.8807 H   0  0  0  0  0  0  0  0  0  0  0  0
  153.0723  143.3656  159.2696 H   0  0  0  0  0  0  0  0  0  0  0  0
  151.0771  144.4461  160.3142 H   0  0  0  0  0  0  0  0  0  0  0  0
  150.6825  142.9381  161.1206 H   0  0  0  0  0  0  0  0  0  0  0  0
  153.2484  144.5904  161.4241 H   0  0  0  0  0  0  0  0  0  0  0  0
  152.0596  144.3159  162.6647 H   0  0  0  0  0  0  0  0  0  0  0  0
  154.1817  142.9317  162.9402 H   0  0  0  0  0  0  0  0  0  0  0  0
  152.7193  141.9884  162.9107 H   0  0  0  0  0  0  0  0  0  0  0  0
  154.7332  142.2599  160.6139 H   0  0  0  0  0  0  0  0  0  0  0  0
  154.3522  140.8120  161.5295 H   0  0  0  0  0  0  0  0  0  0  0  0
  151.9810  140.9495  160.7681 H   0  0  0  0  0  0  0  0  0  0  0  0
  151.1436  137.9627  157.4868 H   0  0  0  0  0  0  0  0  0  0  0  0
  150.2546  136.2803  158.7543 H   0  0  0  0  0  0  0  0  0  0  0  0
  150.2458  137.4996  159.9987 H   0  0  0  0  0  0  0  0  0  0  0  0
  147.9003  138.1976  159.0181 H   0  0  0  0  0  0  0  0  0  0  0  0
  147.9363  136.6682  158.1867 H   0  0  0  0  0  0  0  0  0  0  0  0
  148.2310  134.4848  159.6436 H   0  0  0  0  0  0  0  0  0  0  0  0
  147.3943  133.4391  161.7634 H   0  0  0  0  0  0  0  0  0  0  0  0
  146.4984  134.9303  163.5749 H   0  0  0  0  0  0  0  0  0  0  0  0
  146.4720  137.4080  163.1834 H   0  0  0  0  0  0  0  0  0  0  0  0
  1  2  2  0  0  0  0
  2  3  1  0  0  0  0
  2 16  1  0  0  0  0
  3  4  1  0  0  0  0
  3 25  1  0  0  0  0
  3 26  1  0  0  0  0
  4  5  1  0  0  0  0
  4 27  1  0  0  0  0
  4 28  1  0  0  0  0
  5 14  1  0  0  0  0
  5  6  1  0  0  0  0
  6  7  2  0  0  0  0
  6  8  1  0  0  0  0
  8 13  1  0  0  0  0
  8  9  1  0  0  0  0
  8 29  1  0  0  0  0
  9 10  1  0  0  0  0
  9 30  1  0  0  0  0
  9 31  1  0  0  0  0
 10 11  1  0  0  0  0
 10 32  1  0  0  0  0
 10 33  1  0  0  0  0
 11 12  1  0  0  0  0
 11 34  1  0  0  0  0
 11 35  1  0  0  0  0
 12 13  1  0  0  0  0
 12 36  1  0  0  0  0
 12 37  1  0  0  0  0
 13 14  1  0  0  0  0
 13 38  1  0  0  0  0
 14 15  2  0  0  0  0
 16 17  1  0  0  0  0
 16 39  1  0  0  0  0
 17 18  1  0  0  0  0
 17 40  1  0  0  0  0
 17 41  1  0  0  0  0
 18 19  1  0  0  0  0
 18 42  1  0  0  0  0
 18 43  1  0  0  0  0
 19 24  1  0  0  0  0
 19 20  2  0  0  0  0
 20 21  1  0  0  0  0
 20 44  1  0  0  0  0
 21 22  2  0  0  0  0
 21 45  1  0  0  0  0
 22 23  1  0  0  0  0
 22 46  1  0  0  0  0
 23 24  2  0  0  0  0
 23 47  1  0  0  0  0
M  END
> <s_m_source_file>
AV-unprocessed.smi

> <i_m_source_file_index>
2159

> <i_lp_mmshare_version>
43012

> <i_f3d_flags>
0

> <s_epik_input>
bjFbY0hdW2NIXVtjSF1bY0hdYzFbQ0gyXVtDSDJdW05IXUMoPU8pW0NIMl1bQ0gyXU4oQzI9TylDKD1PKVtDQEhdKFtDQEBIXTIzKVtDSDJdW0NIMl1bQ0gyXVtDSDJdMw==

> <s_epik_cmdline>
J2VwaWtfcHl0aG9uJywgJy1waCcsICc3LjAnLCAnLXRuJywgJzgnLCAnLW1hJywgJzIwMCcsICctbWV0YWxfYmluZGluZycsICctaW1hZScsICc8aW5maWxlLm1hZT4nLCAnLW9tYWUnLCAnPG91dGZpbGUubWFlPic=

> <r_lp_tautomer_probability>
1

> <r_epik_Ionization_Penalty>
0.026624

> <r_epik_Ionization_Penalty_Charging>
0

> <r_epik_Ionization_Penalty_Neutral>
0.026624

> <r_epik_State_Penalty>
0.0217444

> <r_epik_Charging_Adjusted_Penalty>
0.0217444

> <i_epik_Tot_Q>
0

> <i_epik_Tot_abs_Q>
0

> <r_epik_Metal_State_Penalty>
0.0208054

> <b_epik_Metal_Only>
0

> <s_lp_Force_Field>
OPLS_2005

> <r_lp_Energy>
31.6251

> <b_lp_Chiralities_Consistent>
1

> <s_lp_Variant>
AV-unprocessed.smi:2159-1

> <Gold.Version>
5.8.1

> <Gold.Id.Protein>
6NUR|6NUR_protein|mol2

> <Gold.PLP.Fitness>
58.2016

> <Gold.PLP.PLP>
-50.6166

> <Gold.PLP.part.hbond>
-4.0000

> <Gold.PLP.part.metal>
0.0000

> <Gold.PLP.part.buried>
-5.5141

> <Gold.PLP.part.nonpolar>
-39.9196

> <Gold.PLP.part.repulsive>
0.2153

> <Gold.PLP.ligand.clash>
0.0000

> <Gold.PLP.ligand.torsion>
0.5354

> <Gold.PLP.Chemscore.Hbond>
2.8560

> <Gold.PLP.Chemscore.CHOScore>
0.0000

> <Gold.PLP.Chemscore.Metal>
0.0000

> <Gold.Chemscore.Hbonds>
donor molecule, donor type, donor heavy atom, donor atom, acceptor molecule, acceptor atom, score
      P1  H  6931  6943       L1    24  0.73
      P1  H  6934  6947       L1    24  1.00
      P1  H  7997  8009       L1    15  0.86

> <Gold.PLP.Chemscore.Internal.Correction>
0.0877

> <Gold.Rescore>
     Score         DG    S(hbond)    S(metal)    S(lipo)     H(rot)  DE(clash)    DE(int)     intcor
     18.12     -21.13       2.02        0.00     119.27       1.97       0.05       2.97       ----

> <Gold.Chemscore.Fitness>
18.1202

> <Gold.Chemscore.DG>
-21.1345

> <Gold.Chemscore.ZeroCoef>
-5.4800

> <Gold.Chemscore.Hbond>
2.0193

> <Gold.Chemscore.Metal>
0.0000

> <Gold.Chemscore.Lipo>
119.2685

> <Gold.Chemscore.Internal_Hbond>
0.0000

> <Gold.Chemscore.DEClash>
0.0459

> <Gold.Chemscore.DEInternal>
2.9685

> <Gold.Chemscore.Rot>
1.9704

> <Gold.Chemscore.Internal.Correction>
   9.000000E+99

> <Gold.Chemscore.Hbonds>
donor molecule, donor type, donor heavy atom, donor atom, acceptor molecule, acceptor atom, score
      P1  H  6931  6943       L1    24  0.08
      P1  H  6934  6947       L1    24  0.91
      P1  H  7997  8009       L1    15  0.37

> <Gold.Chemscore.Hbond.Weighted>
-6.7444

> <Gold.Chemscore.Metal.Weighted>
-0.0000

> <Gold.Chemscore.Lipo.Weighted>
-13.9544

> <Gold.Chemscore.Internal_Hbond.Weighted>
0.0000

> <Gold.Chemscore.DEClash.Weighted>
0.0459

> <Gold.Chemscore.DEInternal.Weighted>
2.9685

> <Gold.Chemscore.Rot.Weighted>
5.0443

> <Gold.Chemscore.Internal.Correction.Weighted>
   9.000000E+99

> <Gold.Protein.RotatedTorsions>
[ 6907 6896 6895 6894 ] final   97.92 input  -60.11 | X-H torsion
[ 7974 7965 7964 7962 ] final   45.44 input  175.53 | X-H torsion
[ 8008 7997 7996 7995 ] final  130.52 input   59.86 | X-H torsion
[ 10167 10162 10161 10158 ] final  -13.61 input  -65.29 | X-H torsion
[ 10718 10713 10712 10709 ] final -139.13 input   66.30 | X-H torsion
[ 10763 10752 10751 10750 ] final  -38.24 input  -60.55 | X-H torsion
[ 11005 11000 10999 10996 ] final   85.56 input  -57.11 | X-H torsion

> <Gold.Protein.ActiveResidues>
 VAL166  LYS551  ARG553  GLY616  TRP617  ASP618  TYR619  PRO620  LYS621  CYS622 
 ASP623  PHE694  ASN695  SER759  ASP760  ASP761  ALA762  ILE779  LEU786  VAL792 
 PHE793  MET794  SER795  GLU796  ALA797  LYS798  CYS799  TRP800  GLU811  SER814 

> <Gold.Protein.RotatedAtoms>
  152.5417  134.0660  159.8172 H   0  0  0  0  0  0  0  0  0  0  0  0  # atno 6907 bound_to 6896
  151.0781  133.5404  159.2630 H   0  0  0  0  0  0  0  0  0  0  0  0  # atno 6908 bound_to 6896
  151.2242  135.0538  159.9016 H   0  0  0  0  0  0  0  0  0  0  0  0  # atno 6909 bound_to 6896
  146.0479  139.4964  142.9736 H   0  0  0  0  0  0  0  0  0  0  0  0  # atno 7974 bound_to 7965
  156.2956  140.2594  156.2775 H   0  0  0  0  0  0  0  0  0  0  0  0  # atno 8008 bound_to 7997
  154.9634  140.0392  157.2219 H   0  0  0  0  0  0  0  0  0  0  0  0  # atno 8009 bound_to 7997
  154.7925  140.2814  155.5985 H   0  0  0  0  0  0  0  0  0  0  0  0  # atno 8010 bound_to 7997
  140.7185  143.5408  150.9411 H   0  0  0  0  0  0  0  0  0  0  0  0  # atno 10167 bound_to 10162
  156.3072  130.7462  151.1529 H   0  0  0  0  0  0  0  0  0  0  0  0  # atno 10718 bound_to 10713
  153.9096  135.6794  153.4751 H   0  0  0  0  0  0  0  0  0  0  0  0  # atno 10763 bound_to 10752
  153.1086  135.4794  154.8992 H   0  0  0  0  0  0  0  0  0  0  0  0  # atno 10764 bound_to 10752
  154.7534  135.3191  154.8471 H   0  0  0  0  0  0  0  0  0  0  0  0  # atno 10765 bound_to 10752
  139.8968  134.8295  156.2599 H   0  0  0  0  0  0  0  0  0  0  0  0  # atno 11005 bound_to 11000
  145.6774  141.0200  143.1625 LP  0  0  0  0  0  0  0  0  0  0  0  0  # atno 17320 bound_to 7965
  144.7107  139.8381  143.7415 LP  0  0  0  0  0  0  0  0  0  0  0  0  # atno 17321 bound_to 7965
  139.9130  143.6697  152.3111 LP  0  0  0  0  0  0  0  0  0  0  0  0  # atno 17342 bound_to 10162
  139.7087  144.7624  151.1150 LP  0  0  0  0  0  0  0  0  0  0  0  0  # atno 17343 bound_to 10162
  157.7382  131.0543  150.5306 LP  0  0  0  0  0  0  0  0  0  0  0  0  # atno 17370 bound_to 10713
  156.5441  130.4215  149.6139 LP  0  0  0  0  0  0  0  0  0  0  0  0  # atno 17371 bound_to 10713
  141.0169  133.7063  156.1203 LP  0  0  0  0  0  0  0  0  0  0  0  0  # atno 17394 bound_to 11000
  140.7289  134.4276  157.5568 LP  0  0  0  0  0  0  0  0  0  0  0  0  # atno 17395 bound_to 11000

$$$$
