AV-unprocessed.smi:1046|AV-procd|sdf|4556|dock5
  -GOLD-   22720 2593D 1   1.00000     0.00000
 Structure written by MMmdl.
 54 56  0  0  0  0  0  0  0  0  3 V2000
  153.2295  141.0385  159.1280 C   0  0  0  0  0  0  0  0  0  0  0  0
  152.1647  141.1092  158.0476 C   0  0  0  0  0  0  0  0  0  0  0  0
  152.1459  140.1225  157.0364 C   0  0  0  0  0  0  0  0  0  0  0  0
  151.1714  140.1504  156.0152 C   0  0  0  0  0  0  0  0  0  0  0  0
  150.9635  139.2951  154.9469 N   0  0  0  0  0  0  0  0  0  0  0  0
  149.9043  139.8467  154.3627 C   0  0  0  0  0  0  0  0  0  0  0  0
  149.3932  140.9547  154.9330 N   0  0  0  0  0  0  0  0  0  0  0  0
  148.2400  141.7129  154.4841 C   0  0  0  0  0  0  0  0  0  0  0  0
  147.3243  140.8968  153.5503 C   0  0  2  0  0  0  0  0  0  0  0  0
  146.2965  141.7539  153.0967 O   0  0  0  0  0  0  0  0  0  0  0  0
  146.6834  139.6673  154.2320 C   0  0  0  0  0  0  0  0  0  0  0  0
  145.8204  138.8843  153.3101 N   0  3  2  0  0  0  0  0  0  0  0  0
  145.1728  137.7344  153.9893 C   0  0  0  0  0  0  0  0  0  0  0  0
  144.2108  136.9969  153.0392 C   0  0  0  0  0  0  0  0  0  0  0  0
  144.8954  136.5495  151.8010 N   0  3  2  0  0  0  0  0  0  0  0  0
  145.7484  135.3456  151.9944 C   0  0  0  0  0  0  0  0  0  0  0  0
  145.9277  134.5383  150.6976 C   0  0  0  0  0  0  0  0  0  0  0  0
  144.8444  134.7809  149.8255 O   0  0  0  0  0  0  0  0  0  0  0  0
  145.5687  137.6885  151.1235 C   0  0  0  0  0  0  0  0  0  0  0  0
  146.5174  138.4549  152.0690 C   0  0  0  0  0  0  0  0  0  0  0  0
  150.2085  141.2016  156.0329 C   0  0  0  0  0  0  0  0  0  0  0  0
  150.2191  142.1916  157.0315 C   0  0  0  0  0  0  0  0  0  0  0  0
  151.1994  142.1481  158.0448 C   0  0  0  0  0  0  0  0  0  0  0  0
  151.2021  143.2201  159.1201 C   0  0  0  0  0  0  0  0  0  0  0  0
  153.8621  140.1588  159.0072 H   0  0  0  0  0  0  0  0  0  0  0  0
  152.7704  140.9860  160.1153 H   0  0  0  0  0  0  0  0  0  0  0  0
  153.8701  141.9198  159.0901 H   0  0  0  0  0  0  0  0  0  0  0  0
  152.8827  139.3325  157.0375 H   0  0  0  0  0  0  0  0  0  0  0  0
  149.4695  139.4162  153.4723 H   0  0  0  0  0  0  0  0  0  0  0  0
  147.6879  142.0563  155.3600 H   0  0  0  0  0  0  0  0  0  0  0  0
  148.5996  142.6078  153.9737 H   0  0  0  0  0  0  0  0  0  0  0  0
  147.9087  140.5887  152.6839 H   0  0  0  0  0  0  0  0  0  0  0  0
  145.4860  141.2676  153.0664 H   0  0  0  0  0  0  0  0  0  0  0  0
  147.4441  139.0021  154.6416 H   0  0  0  0  0  0  0  0  0  0  0  0
  146.0956  140.0145  155.0834 H   0  0  0  0  0  0  0  0  0  0  0  0
  145.9373  137.0518  154.3636 H   0  0  0  0  0  0  0  0  0  0  0  0
  144.6143  138.0888  154.8566 H   0  0  0  0  0  0  0  0  0  0  0  0
  143.7434  136.1508  153.5442 H   0  0  0  0  0  0  0  0  0  0  0  0
  143.3973  137.6671  152.7578 H   0  0  0  0  0  0  0  0  0  0  0  0
  146.7210  135.6312  152.3948 H   0  0  0  0  0  0  0  0  0  0  0  0
  145.2981  134.6909  152.7421 H   0  0  0  0  0  0  0  0  0  0  0  0
  146.8652  134.7690  150.1932 H   0  0  0  0  0  0  0  0  0  0  0  0
  145.9481  133.4727  150.9277 H   0  0  0  0  0  0  0  0  0  0  0  0
  145.1382  134.6550  148.9352 H   0  0  0  0  0  0  0  0  0  0  0  0
  146.1057  137.3534  150.2368 H   0  0  0  0  0  0  0  0  0  0  0  0
  144.7960  138.3699  150.7647 H   0  0  0  0  0  0  0  0  0  0  0  0
  146.9112  139.3218  151.5397 H   0  0  0  0  0  0  0  0  0  0  0  0
  147.3772  137.8364  152.3287 H   0  0  0  0  0  0  0  0  0  0  0  0
  149.4792  142.9780  157.0191 H   0  0  0  0  0  0  0  0  0  0  0  0
  150.4233  143.9627  158.9444 H   0  0  0  0  0  0  0  0  0  0  0  0
  152.1602  143.7400  159.1405 H   0  0  0  0  0  0  0  0  0  0  0  0
  151.0281  142.7763  160.1006 H   0  0  0  0  0  0  0  0  0  0  0  0
  145.0733  139.5053  153.0316 H   0  0  0  0  0  0  0  0  0  0  0  0
  144.1600  136.2396  151.1800 H   0  0  0  0  0  0  0  0  0  0  0  0
  1  2  1  0  0  0  0
  1 25  1  0  0  0  0
  1 26  1  0  0  0  0
  1 27  1  0  0  0  0
  2 23  1  0  0  0  0
  2  3  2  0  0  0  0
  3  4  1  0  0  0  0
  3 28  1  0  0  0  0
  4 21  2  0  0  0  0
  4  5  1  0  0  0  0
  5  6  2  0  0  0  0
  6  7  1  0  0  0  0
  6 29  1  0  0  0  0
  7  8  1  0  0  0  0
  7 21  1  0  0  0  0
  8  9  1  0  0  0  0
  8 30  1  0  0  0  0
  8 31  1  0  0  0  0
  9 10  1  0  0  0  0
  9 11  1  0  0  0  0
  9 32  1  0  0  0  0
 10 33  1  0  0  0  0
 11 12  1  0  0  0  0
 11 34  1  0  0  0  0
 11 35  1  0  0  0  0
 12 20  1  0  0  0  0
 12 13  1  0  0  0  0
 12 53  1  0  0  0  0
 13 14  1  0  0  0  0
 13 36  1  0  0  0  0
 13 37  1  0  0  0  0
 14 15  1  0  0  0  0
 14 38  1  0  0  0  0
 14 39  1  0  0  0  0
 15 16  1  0  0  0  0
 15 19  1  0  0  0  0
 15 54  1  0  0  0  0
 16 17  1  0  0  0  0
 16 40  1  0  0  0  0
 16 41  1  0  0  0  0
 17 18  1  0  0  0  0
 17 42  1  0  0  0  0
 17 43  1  0  0  0  0
 18 44  1  0  0  0  0
 19 20  1  0  0  0  0
 19 45  1  0  0  0  0
 19 46  1  0  0  0  0
 20 47  1  0  0  0  0
 20 48  1  0  0  0  0
 21 22  1  0  0  0  0
 22 23  2  0  0  0  0
 22 49  1  0  0  0  0
 23 24  1  0  0  0  0
 24 50  1  0  0  0  0
 24 51  1  0  0  0  0
 24 52  1  0  0  0  0
M  CHG  1  12   1
M  CHG  1  15   1
M  END
> <s_m_source_file>
AV-unprocessed.smi

> <i_m_source_file_index>
1046

> <i_lp_mmshare_version>
43012

> <i_f3d_flags>
0

> <s_epik_input>
W0NIM11jKFtjSF0xKWMoW0NIM10pW2NIXWMoYzEyKW4oW2NIXW4yKVtDSDJdW0NASF0oW09IXSlbQ0gyXU4zW0NIMl1bQ0gyXU4oW0NIMl1bQ0gyXTMpW0NIMl1bQ0gyXVtPSF0=

> <s_epik_cmdline>
J2VwaWtfcHl0aG9uJywgJy1waCcsICc3LjAnLCAnLXRuJywgJzgnLCAnLW1hJywgJzIwMCcsICctbWV0YWxfYmluZGluZycsICctaW1hZScsICc8aW5maWxlLm1hZT4nLCAnLW9tYWUnLCAnPG91dGZpbGUubWFlPic=

> <r_epik_Ionization_Penalty>
3.17398

> <r_epik_Ionization_Penalty_Charging>
3.09061

> <r_epik_Ionization_Penalty_Neutral>
0.0833726

> <r_epik_State_Penalty>
2.17606

> <r_epik_Charging_Adjusted_Penalty>
5.26667

> <i_epik_Tot_Q>
2

> <i_epik_Tot_abs_Q>
2

> <r_epik_Metal_State_Penalty>
2.08587

> <b_epik_Metal_Only>
0

> <s_lp_Force_Field>
OPLS_2005

> <r_lp_Energy>
31.2877

> <b_lp_Chiralities_Consistent>
1

> <s_lp_Variant>
AV-unprocessed.smi:1046-9

> <Gold.Version>
5.8.1

> <Gold.Id.Protein>
6NUR|6NUR_protein|mol2

> <Gold.PLP.Fitness>
52.6755

> <Gold.PLP.PLP>
-39.7358

> <Gold.PLP.part.hbond>
-3.8525

> <Gold.PLP.part.metal>
0.0000

> <Gold.PLP.part.buried>
3.7872

> <Gold.PLP.part.nonpolar>
-39.9745

> <Gold.PLP.part.repulsive>
0.0694

> <Gold.PLP.ligand.clash>
0.0000

> <Gold.PLP.ligand.torsion>
0.7432

> <Gold.PLP.Chemscore.Hbond>
3.7150

> <Gold.PLP.Chemscore.CHOScore>
1.0000

> <Gold.PLP.Chemscore.Metal>
0.0000

> <Gold.Chemscore.Hbonds>
donor molecule, donor type, donor heavy atom, donor atom, acceptor molecule, acceptor atom, score
      L1  H    10    33       P1 10175  0.78
      L1  H    12    53       P1 10175  2.00
      L1  H    18    44       P1  7921  1.00
      L1  C     6    29       P1  7957  1.00

> <Gold.PLP.Chemscore.Internal.Correction>
0.2813

> <Gold.Rescore>
     Score         DG    S(hbond)    S(metal)    S(lipo)     H(rot)  DE(clash)    DE(int)     intcor
     14.52     -16.85       2.24        0.00     105.11       3.28       1.61       0.72       ----

> <Gold.Chemscore.Fitness>
14.5163

> <Gold.Chemscore.DG>
-16.8517

> <Gold.Chemscore.ZeroCoef>
-5.4800

> <Gold.Chemscore.Hbond>
2.2387

> <Gold.Chemscore.Metal>
0.0000

> <Gold.Chemscore.Lipo>
105.1150

> <Gold.Chemscore.Internal_Hbond>
0.0000

> <Gold.Chemscore.DEClash>
1.6121

> <Gold.Chemscore.DEInternal>
0.7233

> <Gold.Chemscore.Rot>
3.2828

> <Gold.Chemscore.Internal.Correction>
   9.000000E+99

> <Gold.Chemscore.Hbonds>
donor molecule, donor type, donor heavy atom, donor atom, acceptor molecule, acceptor atom, score
      L1  H    10    33       P1 10175  0.11
      L1  H    12    53       P1 10175  1.00
      L1  H    18    44       P1  7921  0.99

> <Gold.Chemscore.Hbond.Weighted>
-7.4772

> <Gold.Chemscore.Metal.Weighted>
-0.0000

> <Gold.Chemscore.Lipo.Weighted>
-12.2985

> <Gold.Chemscore.Internal_Hbond.Weighted>
0.0000

> <Gold.Chemscore.DEClash.Weighted>
1.6121

> <Gold.Chemscore.DEInternal.Weighted>
0.7233

> <Gold.Chemscore.Rot.Weighted>
8.4039

> <Gold.Chemscore.Internal.Correction.Weighted>
   9.000000E+99

> <Gold.Protein.RotatedTorsions>
[ 6907 6896 6895 6894 ] final -152.17 input  -60.11 | X-H torsion
[ 7974 7965 7964 7962 ] final -115.81 input  175.53 | X-H torsion
[ 8008 7997 7996 7995 ] final  -92.31 input   59.86 | X-H torsion
[ 10167 10162 10161 10158 ] final  162.90 input  -65.29 | X-H torsion
[ 10718 10713 10712 10709 ] final -146.28 input   66.30 | X-H torsion
[ 10763 10752 10751 10750 ] final   19.35 input  -60.55 | X-H torsion
[ 11005 11000 10999 10996 ] final   47.51 input  -57.11 | X-H torsion

> <Gold.Protein.ActiveResidues>
 VAL166  LYS551  ARG553  GLY616  TRP617  ASP618  TYR619  PRO620  LYS621  CYS622 
 ASP623  PHE694  ASN695  SER759  ASP760  ASP761  ALA762  ILE779  LEU786  VAL792 
 PHE793  MET794  SER795  GLU796  ALA797  LYS798  CYS799  TRP800  GLU811  SER814 

> <Gold.Protein.RotatedAtoms>
  151.2239  133.4487  159.2601 H   0  0  0  0  0  0  0  0  0  0  0  0  # atno 6907 bound_to 6896
  151.0859  134.9886  159.8389 H   0  0  0  0  0  0  0  0  0  0  0  0  # atno 6908 bound_to 6896
  152.5429  134.2176  159.8827 H   0  0  0  0  0  0  0  0  0  0  0  0  # atno 6909 bound_to 6896
  145.1041  140.8570  143.3909 H   0  0  0  0  0  0  0  0  0  0  0  0  # atno 7974 bound_to 7965
  154.7216  140.0510  157.0644 H   0  0  0  0  0  0  0  0  0  0  0  0  # atno 8008 bound_to 7997
  155.0420  140.3169  155.4702 H   0  0  0  0  0  0  0  0  0  0  0  0  # atno 8009 bound_to 7997
  156.2818  140.2131  156.5544 H   0  0  0  0  0  0  0  0  0  0  0  0  # atno 8010 bound_to 7997
  139.4866  144.4391  151.8974 H   0  0  0  0  0  0  0  0  0  0  0  0  # atno 10167 bound_to 10162
  156.3930  130.7895  151.2099 H   0  0  0  0  0  0  0  0  0  0  0  0  # atno 10718 bound_to 10713
  153.1170  135.6710  153.9401 H   0  0  0  0  0  0  0  0  0  0  0  0  # atno 10763 bound_to 10752
  153.8928  135.3045  155.3449 H   0  0  0  0  0  0  0  0  0  0  0  0  # atno 10764 bound_to 10752
  154.7585  135.5000  153.9498 H   0  0  0  0  0  0  0  0  0  0  0  0  # atno 10765 bound_to 10752
  140.1273  134.4752  155.8549 H   0  0  0  0  0  0  0  0  0  0  0  0  # atno 11005 bound_to 11000
  145.0922  139.2882  143.5729 LP  0  0  0  0  0  0  0  0  0  0  0  0  # atno 17320 bound_to 7965
  146.3529  140.0463  142.8639 LP  0  0  0  0  0  0  0  0  0  0  0  0  # atno 17321 bound_to 7965
  140.3842  144.2697  150.5905 LP  0  0  0  0  0  0  0  0  0  0  0  0  # atno 17342 bound_to 10162
  140.5205  143.2267  151.8396 LP  0  0  0  0  0  0  0  0  0  0  0  0  # atno 17343 bound_to 10162
  157.7500  131.0310  150.4162 LP  0  0  0  0  0  0  0  0  0  0  0  0  # atno 17370 bound_to 10713
  156.4427  130.3995  149.6687 LP  0  0  0  0  0  0  0  0  0  0  0  0  # atno 17371 bound_to 10713
  141.2163  133.6782  156.7002 LP  0  0  0  0  0  0  0  0  0  0  0  0  # atno 17394 bound_to 11000
  140.2888  134.8257  157.3998 LP  0  0  0  0  0  0  0  0  0  0  0  0  # atno 17395 bound_to 11000

$$$$
