AV-unprocessed.smi:189|AV-procd|sdf|1478|dock8
  -GOLD-   2262019303D 1   1.00000     0.00000
 Structure written by MMmdl.
 53 57  0  0  0  0  0  0  0  0  1 V2000
  153.7666  139.6643  159.5811 C   0  0  0  0  0  0  0  0  0  0  0  0
  152.5844  140.6405  159.6652 C   0  0  1  0  0  0  0  0  0  0  0  0
  152.6212  141.5583  160.9114 C   0  0  0  0  0  0  0  0  0  0  0  0
  152.6142  142.9680  160.3208 C   0  0  2  0  0  0  0  0  0  0  0  0
  151.9377  144.0992  161.1044 C   0  0  0  0  0  0  0  0  0  0  0  0
  151.9809  145.3916  160.2604 C   0  0  0  0  0  0  0  0  0  0  0  0
  151.3990  145.1924  158.8409 C   0  0  0  0  0  0  0  0  0  0  0  0
  152.0323  143.9921  158.1056 C   0  0  0  0  0  0  0  0  0  0  0  0
  151.9090  142.7455  158.9945 C   0  0  1  0  0  0  0  0  0  0  0  0
  152.5242  141.5273  158.4996 N   0  0  0  0  0  0  0  0  0  0  0  0
  151.9697  140.9990  157.3859 C   0  0  0  0  0  0  0  0  0  0  0  0
  152.6893  140.0490  156.7407 N   0  0  0  0  0  0  0  0  0  0  0  0
  152.2066  139.4847  155.6298 C   0  0  0  0  0  0  0  0  0  0  0  0
  151.0494  139.7203  155.0081 N   0  0  0  0  0  0  0  0  0  0  0  0
  150.3218  140.6738  155.6576 C   0  0  0  0  0  0  0  0  0  0  0  0
  150.7043  141.3632  156.8425 C   0  0  0  0  0  0  0  0  0  0  0  0
  149.7117  142.2664  157.2050 N   0  0  0  0  0  0  0  0  0  0  0  0
  148.7948  142.1172  156.2889 C   0  0  0  0  0  0  0  0  0  0  0  0
  149.0754  141.1750  155.3251 N   0  0  0  0  0  0  0  0  0  0  0  0
  148.2346  140.8032  154.1979 C   0  0  0  0  0  0  0  0  0  0  0  0
  146.7211  140.8863  154.5060 C   0  0  1  0  0  0  0  0  0  0  0  0
  146.0114  140.1061  153.5597 O   0  0  0  0  0  0  0  0  0  0  0  0
  146.3421  140.4095  155.9058 C   0  0  0  0  0  0  0  0  0  0  0  0
  145.1567  141.2964  156.2594 C   0  0  0  0  0  0  0  0  0  0  0  0
  145.5416  142.5499  155.7225 O   0  0  0  0  0  0  0  0  0  0  0  0
  146.1690  142.3255  154.4642 C   0  0  0  0  0  0  0  0  0  0  0  0
  153.8037  139.0207  160.4601 H   0  0  0  0  0  0  0  0  0  0  0  0
  154.7153  140.1979  159.5163 H   0  0  0  0  0  0  0  0  0  0  0  0
  153.6852  139.0206  158.7047 H   0  0  0  0  0  0  0  0  0  0  0  0
  151.6704  140.0482  159.7165 H   0  0  0  0  0  0  0  0  0  0  0  0
  151.7331  141.3894  161.5217 H   0  0  0  0  0  0  0  0  0  0  0  0
  153.4952  141.3910  161.5418 H   0  0  0  0  0  0  0  0  0  0  0  0
  153.6511  143.2507  160.1267 H   0  0  0  0  0  0  0  0  0  0  0  0
  150.9035  143.8354  161.3294 H   0  0  0  0  0  0  0  0  0  0  0  0
  152.4406  144.2542  162.0592 H   0  0  0  0  0  0  0  0  0  0  0  0
  151.4424  146.1885  160.7738 H   0  0  0  0  0  0  0  0  0  0  0  0
  153.0150  145.7279  160.1760 H   0  0  0  0  0  0  0  0  0  0  0  0
  150.3223  145.0357  158.9165 H   0  0  0  0  0  0  0  0  0  0  0  0
  151.5345  146.1007  158.2533 H   0  0  0  0  0  0  0  0  0  0  0  0
  151.5339  143.8340  157.1487 H   0  0  0  0  0  0  0  0  0  0  0  0
  153.0808  144.1978  157.8857 H   0  0  0  0  0  0  0  0  0  0  0  0
  150.8510  142.5560  159.1827 H   0  0  0  0  0  0  0  0  0  0  0  0
  152.8381  138.7367  155.1738 H   0  0  0  0  0  0  0  0  0  0  0  0
  147.8802  142.6919  156.2940 H   0  0  0  0  0  0  0  0  0  0  0  0
  148.4831  141.4585  153.3619 H   0  0  0  0  0  0  0  0  0  0  0  0
  148.5025  139.7935  153.8839 H   0  0  0  0  0  0  0  0  0  0  0  0
  145.2805  140.6127  153.2403 H   0  0  0  0  0  0  0  0  0  0  0  0
  146.1160  139.3437  155.9634 H   0  0  0  0  0  0  0  0  0  0  0  0
  147.1518  140.6152  156.6067 H   0  0  0  0  0  0  0  0  0  0  0  0
  144.2443  140.9486  155.7723 H   0  0  0  0  0  0  0  0  0  0  0  0
  144.9775  141.3547  157.3333 H   0  0  0  0  0  0  0  0  0  0  0  0
  146.9530  143.0691  154.3174 H   0  0  0  0  0  0  0  0  0  0  0  0
  145.4385  142.4617  153.6649 H   0  0  0  0  0  0  0  0  0  0  0  0
  1  2  1  0  0  0  0
  1 27  1  0  0  0  0
  1 28  1  0  0  0  0
  1 29  1  0  0  0  0
  2 10  1  0  0  0  0
  2  3  1  0  0  0  0
  2 30  1  0  0  0  0
  3  4  1  0  0  0  0
  3 31  1  0  0  0  0
  3 32  1  0  0  0  0
  4  9  1  0  0  0  0
  4  5  1  0  0  0  0
  4 33  1  0  0  0  0
  5  6  1  0  0  0  0
  5 34  1  0  0  0  0
  5 35  1  0  0  0  0
  6  7  1  0  0  0  0
  6 36  1  0  0  0  0
  6 37  1  0  0  0  0
  7  8  1  0  0  0  0
  7 38  1  0  0  0  0
  7 39  1  0  0  0  0
  8  9  1  0  0  0  0
  8 40  1  0  0  0  0
  8 41  1  0  0  0  0
  9 10  1  0  0  0  0
  9 42  1  0  0  0  0
 10 11  1  0  0  0  0
 11 16  1  0  0  0  0
 11 12  2  0  0  0  0
 12 13  1  0  0  0  0
 13 14  2  0  0  0  0
 13 43  1  0  0  0  0
 14 15  1  0  0  0  0
 15 19  1  0  0  0  0
 15 16  2  0  0  0  0
 16 17  1  0  0  0  0
 17 18  2  0  0  0  0
 18 19  1  0  0  0  0
 18 44  1  0  0  0  0
 19 20  1  0  0  0  0
 20 21  1  0  0  0  0
 20 45  1  0  0  0  0
 20 46  1  0  0  0  0
 21 26  1  0  0  0  0
 21 22  1  0  0  0  0
 21 23  1  0  0  0  0
 22 47  1  0  0  0  0
 23 24  1  0  0  0  0
 23 48  1  0  0  0  0
 23 49  1  0  0  0  0
 24 25  1  0  0  0  0
 24 50  1  0  0  0  0
 24 51  1  0  0  0  0
 25 26  1  0  0  0  0
 26 52  1  0  0  0  0
 26 53  1  0  0  0  0
M  END
> <s_m_source_file>
AV-unprocessed.smi

> <i_m_source_file_index>
189

> <i_lp_mmshare_version>
43012

> <i_f3d_flags>
0

> <s_epik_input>
W0NIMl0xW0NIMl1bQ0gyXVtDSDJdW0NASF0oW0NASF0xMilOKFtDQEhdKFtDSDNdKVtDSDJdMiljKG5bY0hdbjMpYyhjMzQpbltjSF1uNFtDSDJdW0NAQF01KFtPSF0pW0NIMl1bQ0gyXU9bQ0gyXTU=

> <s_epik_cmdline>
J2VwaWtfcHl0aG9uJywgJy1waCcsICc3LjAnLCAnLXRuJywgJzgnLCAnLW1hJywgJzIwMCcsICctbWV0YWxfYmluZGluZycsICctaW1hZScsICc8aW5maWxlLm1hZT4nLCAnLW9tYWUnLCAnPG91dGZpbGUubWFlPic=

> <r_lp_tautomer_probability>
1

> <r_epik_Ionization_Penalty>
0.00594261

> <r_epik_Ionization_Penalty_Charging>
0

> <r_epik_Ionization_Penalty_Neutral>
0.00594261

> <r_epik_State_Penalty>
0.00429776

> <r_epik_Charging_Adjusted_Penalty>
0.00429776

> <i_epik_Tot_Q>
0

> <i_epik_Tot_abs_Q>
0

> <r_epik_Metal_State_Penalty>
-0

> <b_epik_Metal_Only>
0

> <s_lp_Force_Field>
OPLS_2005

> <r_lp_Energy>
58.2794

> <b_lp_Chiralities_Consistent>
1

> <s_lp_Variant>
AV-unprocessed.smi:189-4

> <Gold.Version>
5.8.1

> <Gold.Id.Protein>
6NUR|6NUR_protein|mol2

> <Gold.PLP.Fitness>
54.4670

> <Gold.PLP.PLP>
-46.6278

> <Gold.PLP.part.hbond>
-3.0000

> <Gold.PLP.part.metal>
0.0000

> <Gold.PLP.part.buried>
-2.8285

> <Gold.PLP.part.nonpolar>
-42.5775

> <Gold.PLP.part.repulsive>
0.6424

> <Gold.PLP.ligand.clash>
0.0000

> <Gold.PLP.ligand.torsion>
0.9108

> <Gold.PLP.Chemscore.Hbond>
2.9260

> <Gold.PLP.Chemscore.CHOScore>
0.2894

> <Gold.PLP.Chemscore.Metal>
0.0000

> <Gold.Chemscore.Hbonds>
donor molecule, donor type, donor heavy atom, donor atom, acceptor molecule, acceptor atom, score
      L1  H    22    47       P1 10175  0.88
      P1  H  7989  7998       L1    14  0.85
      P1  H  7997  8010       L1    12  1.00
      L1  C    18    44       P1  8028  0.33

> <Gold.PLP.Chemscore.Internal.Correction>
0.0146

> <Gold.Rescore>
     Score         DG    S(hbond)    S(metal)    S(lipo)     H(rot)  DE(clash)    DE(int)     intcor
     16.59     -20.25       1.79        0.00     119.47       2.03       1.46       2.20       ----

> <Gold.Chemscore.Fitness>
16.5871

> <Gold.Chemscore.DG>
-20.2470

> <Gold.Chemscore.ZeroCoef>
-5.4800

> <Gold.Chemscore.Hbond>
1.7918

> <Gold.Chemscore.Metal>
0.0000

> <Gold.Chemscore.Lipo>
119.4724

> <Gold.Chemscore.Internal_Hbond>
0.0000

> <Gold.Chemscore.DEClash>
1.4552

> <Gold.Chemscore.DEInternal>
2.2047

> <Gold.Chemscore.Rot>
2.0297

> <Gold.Chemscore.Internal.Correction>
   9.000000E+99

> <Gold.Chemscore.Hbonds>
donor molecule, donor type, donor heavy atom, donor atom, acceptor molecule, acceptor atom, score
      L1  H    22    47       P1 10175  0.78
      P1  H  7989  7998       L1    14  0.04
      P1  H  7997  8010       L1    12  0.74

> <Gold.Chemscore.Hbond.Weighted>
-5.9847

> <Gold.Chemscore.Metal.Weighted>
-0.0000

> <Gold.Chemscore.Lipo.Weighted>
-13.9783

> <Gold.Chemscore.Internal_Hbond.Weighted>
0.0000

> <Gold.Chemscore.DEClash.Weighted>
1.4552

> <Gold.Chemscore.DEInternal.Weighted>
2.2047

> <Gold.Chemscore.Rot.Weighted>
5.1960

> <Gold.Chemscore.Internal.Correction.Weighted>
   9.000000E+99

> <Gold.Protein.RotatedTorsions>
[ 6907 6896 6895 6894 ] final  -98.93 input  -60.11 | X-H torsion
[ 7974 7965 7964 7962 ] final  129.71 input  175.53 | X-H torsion
[ 8008 7997 7996 7995 ] final   54.97 input   59.86 | X-H torsion
[ 10167 10162 10161 10158 ] final  -99.80 input  -65.29 | X-H torsion
[ 10718 10713 10712 10709 ] final -176.42 input   66.30 | X-H torsion
[ 10763 10752 10751 10750 ] final -172.62 input  -60.55 | X-H torsion
[ 11005 11000 10999 10996 ] final  -93.31 input  -57.11 | X-H torsion

> <Gold.Protein.ActiveResidues>
 VAL166  LYS551  ARG553  GLY616  TRP617  ASP618  TYR619  PRO620  LYS621  CYS622 
 ASP623  PHE694  ASN695  SER759  ASP760  ASP761  ALA762  ILE779  LEU786  VAL792 
 PHE793  MET794  SER795  GLU796  ALA797  LYS798  CYS799  TRP800  GLU811  SER814 

> <Gold.Protein.RotatedAtoms>
  150.7063  134.1119  159.4002 H   0  0  0  0  0  0  0  0  0  0  0  0  # atno 6907 bound_to 6896
  151.9105  135.0338  160.0523 H   0  0  0  0  0  0  0  0  0  0  0  0  # atno 6908 bound_to 6896
  152.2339  133.5045  159.5268 H   0  0  0  0  0  0  0  0  0  0  0  0  # atno 6909 bound_to 6896
  145.0257  139.4091  143.5175 H   0  0  0  0  0  0  0  0  0  0  0  0  # atno 7974 bound_to 7965
  155.4935  140.3472  155.4359 H   0  0  0  0  0  0  0  0  0  0  0  0  # atno 8008 bound_to 7997
  156.0961  140.1423  156.9557 H   0  0  0  0  0  0  0  0  0  0  0  0  # atno 8009 bound_to 7997
  154.4664  140.0916  156.7010 H   0  0  0  0  0  0  0  0  0  0  0  0  # atno 8010 bound_to 7997
  140.2586  143.3423  152.0647 H   0  0  0  0  0  0  0  0  0  0  0  0  # atno 10167 bound_to 10162
  156.8143  130.9597  151.3114 H   0  0  0  0  0  0  0  0  0  0  0  0  # atno 10718 bound_to 10713
  154.6172  135.2871  155.0366 H   0  0  0  0  0  0  0  0  0  0  0  0  # atno 10763 bound_to 10752
  154.1574  135.6493  153.4981 H   0  0  0  0  0  0  0  0  0  0  0  0  # atno 10764 bound_to 10752
  153.0220  135.5370  154.6948 H   0  0  0  0  0  0  0  0  0  0  0  0  # atno 10765 bound_to 10752
  141.1500  133.7879  157.0141 H   0  0  0  0  0  0  0  0  0  0  0  0  # atno 11005 bound_to 11000
  146.3492  139.9780  142.8699 LP  0  0  0  0  0  0  0  0  0  0  0  0  # atno 17320 bound_to 7965
  145.1836  140.9779  143.4252 LP  0  0  0  0  0  0  0  0  0  0  0  0  # atno 17321 bound_to 7965
  139.5024  144.6733  151.6190 LP  0  0  0  0  0  0  0  0  0  0  0  0  # atno 17342 bound_to 10162
  140.5984  143.9655  150.6369 LP  0  0  0  0  0  0  0  0  0  0  0  0  # atno 17343 bound_to 10162
  157.6489  130.8868  149.9594 LP  0  0  0  0  0  0  0  0  0  0  0  0  # atno 17370 bound_to 10713
  156.1026  130.3655  150.0191 LP  0  0  0  0  0  0  0  0  0  0  0  0  # atno 17371 bound_to 10713
  140.0858  134.9621  157.1698 LP  0  0  0  0  0  0  0  0  0  0  0  0  # atno 17394 bound_to 11000
  140.3513  134.2595  155.7198 LP  0  0  0  0  0  0  0  0  0  0  0  0  # atno 17395 bound_to 11000

$$$$
