AV-unprocessed.smi:2282|AV-procd|sdf|9197|dock8
  -GOLD-   2272012413D 1   1.00000     0.00000
 Structure written by MMmdl.
 32 33  0  0  0  0  0  0  0  0  1 V2000
  153.1905  143.2851  162.7558 C   0  0  0  0  0  0  0  0  0  0  0  0
  153.2687  142.2644  161.6359 C   0  0  0  0  0  0  0  0  0  0  0  0
  154.0781  141.2072  161.8641 N   0  0  0  0  0  0  0  0  0  0  0  0
  154.1906  140.2737  160.8974 C   0  0  0  0  0  0  0  0  0  0  0  0
  153.5043  140.3427  159.6701 C   0  0  0  0  0  0  0  0  0  0  0  0
  152.6423  141.4402  159.4340 C   0  0  0  0  0  0  0  0  0  0  0  0
  151.9194  141.6187  158.2218 N   0  0  0  0  0  0  0  0  0  0  0  0
  151.8806  140.8220  157.1381 C   0  0  0  0  0  0  0  0  0  0  0  0
  152.4947  139.7606  157.0265 O   0  0  0  0  0  0  0  0  0  0  0  0
  150.9891  141.3108  155.9905 C   0  0  2  0  0  0  0  0  0  0  0  0
  149.5753  141.7334  156.4309 C   0  0  0  0  0  0  0  0  0  0  0  0
  148.6883  140.6304  155.8893 C   0  0  0  0  0  0  0  0  0  0  0  0
  149.4562  140.1956  154.6463 C   0  0  2  0  0  0  0  0  0  0  0  0
  149.0864  138.7984  154.1381 C   0  0  0  0  0  0  0  0  0  0  0  0
  150.8074  140.2273  155.0805 O   0  0  0  0  0  0  0  0  0  0  0  0
  152.5343  142.4311  160.4381 C   0  0  0  0  0  0  0  0  0  0  0  0
  151.5194  143.8163  160.2101 Cl  0  0  0  0  0  0  0  0  0  0  0  0
  152.1641  143.3808  163.1103 H   0  0  0  0  0  0  0  0  0  0  0  0
  153.5268  144.2605  162.4037 H   0  0  0  0  0  0  0  0  0  0  0  0
  153.8144  142.9999  163.6038 H   0  0  0  0  0  0  0  0  0  0  0  0
  154.8547  139.4480  161.1053 H   0  0  0  0  0  0  0  0  0  0  0  0
  153.6628  139.5676  158.9367 H   0  0  0  0  0  0  0  0  0  0  0  0
  151.2994  142.4155  158.2044 H   0  0  0  0  0  0  0  0  0  0  0  0
  151.4702  142.1383  155.4660 H   0  0  0  0  0  0  0  0  0  0  0  0
  149.4614  141.8596  157.5085 H   0  0  0  0  0  0  0  0  0  0  0  0
  149.3145  142.6839  155.9638 H   0  0  0  0  0  0  0  0  0  0  0  0
  148.6311  139.8123  156.6088 H   0  0  0  0  0  0  0  0  0  0  0  0
  147.6746  140.9664  155.6701 H   0  0  0  0  0  0  0  0  0  0  0  0
  149.3265  140.9330  153.8523 H   0  0  0  0  0  0  0  0  0  0  0  0
  148.0408  138.7580  153.8323 H   0  0  0  0  0  0  0  0  0  0  0  0
  149.2400  138.0433  154.9097 H   0  0  0  0  0  0  0  0  0  0  0  0
  149.6964  138.5232  153.2776 H   0  0  0  0  0  0  0  0  0  0  0  0
  1  2  1  0  0  0  0
  1 18  1  0  0  0  0
  1 19  1  0  0  0  0
  1 20  1  0  0  0  0
  2 16  1  0  0  0  0
  2  3  2  0  0  0  0
  3  4  1  0  0  0  0
  4  5  2  0  0  0  0
  4 21  1  0  0  0  0
  5  6  1  0  0  0  0
  5 22  1  0  0  0  0
  6  7  1  0  0  0  0
  6 16  2  0  0  0  0
  7  8  1  0  0  0  0
  7 23  1  0  0  0  0
  8  9  2  0  0  0  0
  8 10  1  0  0  0  0
 10 15  1  0  0  0  0
 10 11  1  0  0  0  0
 10 24  1  0  0  0  0
 11 12  1  0  0  0  0
 11 25  1  0  0  0  0
 11 26  1  0  0  0  0
 12 13  1  0  0  0  0
 12 27  1  0  0  0  0
 12 28  1  0  0  0  0
 13 14  1  0  0  0  0
 13 15  1  0  0  0  0
 13 29  1  0  0  0  0
 14 30  1  0  0  0  0
 14 31  1  0  0  0  0
 14 32  1  0  0  0  0
 16 17  1  0  0  0  0
M  END
> <s_m_source_file>
AV-unprocessed.smi

> <i_m_source_file_index>
2282

> <i_lp_mmshare_version>
43012

> <i_f3d_flags>
0

> <s_epik_input>
W0NIM11jMW5bY0hdW2NIXWMoYzFDbClbTkhdQyg9TylbQ0BASF0yW0NIMl1bQ0gyXVtDQEhdKE8yKVtDSDNd

> <s_epik_cmdline>
J2VwaWtfcHl0aG9uJywgJy1waCcsICc3LjAnLCAnLXRuJywgJzgnLCAnLW1hJywgJzIwMCcsICctbWV0YWxfYmluZGluZycsICctaW1hZScsICc8aW5maWxlLm1hZT4nLCAnLW9tYWUnLCAnPG91dGZpbGUubWFlPic=

> <r_epik_Ionization_Penalty>
0.00037231

> <r_epik_Ionization_Penalty_Charging>
0

> <r_epik_Ionization_Penalty_Neutral>
0.00037231

> <r_epik_State_Penalty>
0.000225113

> <r_epik_Charging_Adjusted_Penalty>
0.000225113

> <i_epik_Tot_Q>
0

> <i_epik_Tot_abs_Q>
0

> <r_epik_Metal_State_Penalty>
-0

> <b_epik_Metal_Only>
0

> <s_lp_Force_Field>
OPLS_2005

> <r_lp_Energy>
23.9667

> <b_lp_Chiralities_Consistent>
1

> <s_lp_Variant>
AV-unprocessed.smi:2282-3

> <Gold.Version>
5.8.1

> <Gold.Id.Protein>
6NUR|6NUR_protein|mol2

> <Gold.PLP.Fitness>
41.7581

> <Gold.PLP.PLP>
-36.2844

> <Gold.PLP.part.hbond>
-2.0983

> <Gold.PLP.part.metal>
0.0000

> <Gold.PLP.part.buried>
-4.8538

> <Gold.PLP.part.nonpolar>
-28.2008

> <Gold.PLP.part.repulsive>
0.1278

> <Gold.PLP.ligand.clash>
0.0000

> <Gold.PLP.ligand.torsion>
0.2670

> <Gold.PLP.Chemscore.Hbond>
2.0000

> <Gold.PLP.Chemscore.CHOScore>
0.0000

> <Gold.PLP.Chemscore.Metal>
0.0000

> <Gold.Chemscore.Hbonds>
donor molecule, donor type, donor heavy atom, donor atom, acceptor molecule, acceptor atom, score
      P1  H  7989  7998       L1    15  1.00
      P1  H  7997  8009       L1     9  1.00

> <Gold.PLP.Chemscore.Internal.Correction>
0.0077

> <Gold.Rescore>
     Score         DG    S(hbond)    S(metal)    S(lipo)     H(rot)  DE(clash)    DE(int)     intcor
     17.48     -19.18       1.37        0.00      99.95       1.00       0.13       1.56       ----

> <Gold.Chemscore.Fitness>
17.4845

> <Gold.Chemscore.DG>
-19.1760

> <Gold.Chemscore.ZeroCoef>
-5.4800

> <Gold.Chemscore.Hbond>
1.3657

> <Gold.Chemscore.Metal>
0.0000

> <Gold.Chemscore.Lipo>
99.9531

> <Gold.Chemscore.Internal_Hbond>
0.0000

> <Gold.Chemscore.DEClash>
0.1298

> <Gold.Chemscore.DEInternal>
1.5617

> <Gold.Chemscore.Rot>
1.0000

> <Gold.Chemscore.Internal.Correction>
   9.000000E+99

> <Gold.Chemscore.Hbonds>
donor molecule, donor type, donor heavy atom, donor atom, acceptor molecule, acceptor atom, score
      P1  H  7989  7998       L1    15  0.09
      P1  H  7997  8009       L1     9  0.77

> <Gold.Chemscore.Hbond.Weighted>
-4.5615

> <Gold.Chemscore.Metal.Weighted>
-0.0000

> <Gold.Chemscore.Lipo.Weighted>
-11.6945

> <Gold.Chemscore.Internal_Hbond.Weighted>
0.0000

> <Gold.Chemscore.DEClash.Weighted>
0.1298

> <Gold.Chemscore.DEInternal.Weighted>
1.5617

> <Gold.Chemscore.Rot.Weighted>
2.5600

> <Gold.Chemscore.Internal.Correction.Weighted>
   9.000000E+99

> <Gold.Protein.RotatedTorsions>
[ 6907 6896 6895 6894 ] final   28.03 input  -60.11 | X-H torsion
[ 7974 7965 7964 7962 ] final  172.86 input  175.53 | X-H torsion
[ 8008 7997 7996 7995 ] final  174.59 input   59.86 | X-H torsion
[ 10167 10162 10161 10158 ] final   46.42 input  -65.29 | X-H torsion
[ 10718 10713 10712 10709 ] final  112.56 input   66.30 | X-H torsion
[ 10763 10752 10751 10750 ] final  105.55 input  -60.55 | X-H torsion
[ 11005 11000 10999 10996 ] final  101.53 input  -57.11 | X-H torsion

> <Gold.Protein.ActiveResidues>
 VAL166  LYS551  ARG553  GLY616  TRP617  ASP618  TYR619  PRO620  LYS621  CYS622 
 ASP623  PHE694  ASN695  SER759  ASP760  ASP761  ALA762  ILE779  LEU786  VAL792 
 PHE793  MET794  SER795  GLU796  ALA797  LYS798  CYS799  TRP800  GLU811  SER814 

> <Gold.Protein.RotatedAtoms>
  152.0109  134.9876  160.0567 H   0  0  0  0  0  0  0  0  0  0  0  0  # atno 6907 bound_to 6896
  152.1429  133.4470  159.4784 H   0  0  0  0  0  0  0  0  0  0  0  0  # atno 6908 bound_to 6896
  150.6867  134.2201  159.4436 H   0  0  0  0  0  0  0  0  0  0  0  0  # atno 6909 bound_to 6896
  144.7257  139.9562  143.6433 H   0  0  0  0  0  0  0  0  0  0  0  0  # atno 7974 bound_to 7965
  156.0958  140.1430  156.9532 H   0  0  0  0  0  0  0  0  0  0  0  0  # atno 8008 bound_to 7997
  154.4671  140.0922  156.7094 H   0  0  0  0  0  0  0  0  0  0  0  0  # atno 8009 bound_to 7997
  155.4843  140.3446  155.4347 H   0  0  0  0  0  0  0  0  0  0  0  0  # atno 8010 bound_to 7997
  140.3141  144.2785  150.6194 H   0  0  0  0  0  0  0  0  0  0  0  0  # atno 10167 bound_to 10162
  157.6386  131.0970  150.6914 H   0  0  0  0  0  0  0  0  0  0  0  0  # atno 10718 bound_to 10713
  153.3809  135.3906  155.1856 H   0  0  0  0  0  0  0  0  0  0  0  0  # atno 10763 bound_to 10752
  154.8707  135.3725  154.4858 H   0  0  0  0  0  0  0  0  0  0  0  0  # atno 10764 bound_to 10752
  153.5335  135.7085  153.5732 H   0  0  0  0  0  0  0  0  0  0  0  0  # atno 10765 bound_to 10752
  139.8773  134.9186  156.4920 H   0  0  0  0  0  0  0  0  0  0  0  0  # atno 11005 bound_to 11000
  146.0673  139.3663  143.0545 LP  0  0  0  0  0  0  0  0  0  0  0  0  # atno 17320 bound_to 7965
  145.8014  140.9769  143.0996 LP  0  0  0  0  0  0  0  0  0  0  0  0  # atno 17321 bound_to 7965
  140.5542  143.2201  151.7875 LP  0  0  0  0  0  0  0  0  0  0  0  0  # atno 17342 bound_to 10162
  139.4887  144.4436  151.9736 LP  0  0  0  0  0  0  0  0  0  0  0  0  # atno 17343 bound_to 10162
  156.7241  130.4689  149.5515 LP  0  0  0  0  0  0  0  0  0  0  0  0  # atno 17370 bound_to 10713
  156.1646  130.6396  151.0761 LP  0  0  0  0  0  0  0  0  0  0  0  0  # atno 17371 bound_to 10713
  140.8651  133.8030  155.9306 LP  0  0  0  0  0  0  0  0  0  0  0  0  # atno 17394 bound_to 11000
  140.9009  134.2379  157.5042 LP  0  0  0  0  0  0  0  0  0  0  0  0  # atno 17395 bound_to 11000

$$$$
