AV-unprocessed.smi:2372|AV-procd|sdf|9438|dock4
  -GOLD-   2272013 63D 1   1.00000     0.00000
 Structure written by MMmdl.
 34 35  0  0  0  0  0  0  0  0  1 V2000
  144.6899  136.9114  152.0053 O   0  0  0  0  0  0  0  0  0  0  0  0
  145.8794  136.6522  151.8255 C   0  0  0  0  0  0  0  0  0  0  0  0
  146.8569  137.5628  151.9386 N   0  0  0  0  0  0  0  0  0  0  0  0
  146.6550  138.9613  152.2975 C   0  0  0  0  0  0  0  0  0  0  0  0
  147.4691  139.3493  153.5449 C   0  0  0  0  0  0  0  0  0  0  0  0
  148.6979  138.5710  153.6393 N   0  0  0  0  0  0  0  0  0  0  0  0
  149.8599  139.0246  154.1337 C   0  0  0  0  0  0  0  0  0  0  0  0
  150.0082  140.1736  154.5527 O   0  0  0  0  0  0  0  0  0  0  0  0
  150.9551  138.0087  154.1375 C   0  0  0  0  0  0  0  0  0  0  0  0
  151.4788  137.5496  155.4832 C   0  0  0  0  0  0  0  0  0  0  0  0
  152.3237  138.4486  154.6163 C   0  0  0  0  0  0  0  0  0  0  0  0
  146.3714  135.4511  151.4766 N   0  0  0  0  0  0  0  0  0  0  0  0
  145.6726  134.2321  151.2580 C   0  0  0  0  0  0  0  0  0  0  0  0
  144.3962  134.1453  150.6509 C   0  0  0  0  0  0  0  0  0  0  0  0
  143.8023  132.8754  150.5068 C   0  0  0  0  0  0  0  0  0  0  0  0
  144.3820  131.7308  150.9258 N   0  0  0  0  0  0  0  0  0  0  0  0
  145.5923  131.8186  151.5171 C   0  0  0  0  0  0  0  0  0  0  0  0
  146.2730  133.0376  151.7095 C   0  0  0  0  0  0  0  0  0  0  0  0
  147.4854  133.0555  152.3146 F   0  0  0  0  0  0  0  0  0  0  0  0
  147.8074  137.2684  151.7678 H   0  0  0  0  0  0  0  0  0  0  0  0
  146.9115  139.6015  151.4516 H   0  0  0  0  0  0  0  0  0  0  0  0
  145.5916  139.1104  152.4872 H   0  0  0  0  0  0  0  0  0  0  0  0
  147.7404  140.4043  153.4985 H   0  0  0  0  0  0  0  0  0  0  0  0
  146.8771  139.2210  154.4528 H   0  0  0  0  0  0  0  0  0  0  0  0
  148.6603  137.6160  153.3140 H   0  0  0  0  0  0  0  0  0  0  0  0
  150.9314  137.2642  153.3431 H   0  0  0  0  0  0  0  0  0  0  0  0
  151.0496  137.9839  156.3848 H   0  0  0  0  0  0  0  0  0  0  0  0
  151.7671  136.5041  155.5700 H   0  0  0  0  0  0  0  0  0  0  0  0
  153.1857  138.0120  154.1163 H   0  0  0  0  0  0  0  0  0  0  0  0
  152.4551  139.4790  154.9424 H   0  0  0  0  0  0  0  0  0  0  0  0
  147.3624  135.4160  151.2875 H   0  0  0  0  0  0  0  0  0  0  0  0
  143.8596  135.0157  150.3068 H   0  0  0  0  0  0  0  0  0  0  0  0
  142.8299  132.7782  150.0471 H   0  0  0  0  0  0  0  0  0  0  0  0
  146.0311  130.8893  151.8488 H   0  0  0  0  0  0  0  0  0  0  0  0
  1  2  2  0  0  0  0
  2  3  1  0  0  0  0
  2 12  1  0  0  0  0
  3  4  1  0  0  0  0
  3 20  1  0  0  0  0
  4  5  1  0  0  0  0
  4 21  1  0  0  0  0
  4 22  1  0  0  0  0
  5  6  1  0  0  0  0
  5 23  1  0  0  0  0
  5 24  1  0  0  0  0
  6  7  1  0  0  0  0
  6 25  1  0  0  0  0
  7  8  2  0  0  0  0
  7  9  1  0  0  0  0
  9 11  1  0  0  0  0
  9 10  1  0  0  0  0
  9 26  1  0  0  0  0
 10 11  1  0  0  0  0
 10 27  1  0  0  0  0
 10 28  1  0  0  0  0
 11 29  1  0  0  0  0
 11 30  1  0  0  0  0
 12 13  1  0  0  0  0
 12 31  1  0  0  0  0
 13 18  1  0  0  0  0
 13 14  2  0  0  0  0
 14 15  1  0  0  0  0
 14 32  1  0  0  0  0
 15 16  2  0  0  0  0
 15 33  1  0  0  0  0
 16 17  1  0  0  0  0
 17 18  2  0  0  0  0
 17 34  1  0  0  0  0
 18 19  1  0  0  0  0
M  END
> <s_m_source_file>
AV-unprocessed.smi

> <i_m_source_file_index>
2372

> <i_lp_mmshare_version>
43012

> <i_f3d_flags>
0

> <s_epik_input>
RmMxW2NIXW5bY0hdW2NIXWMxW05IXUMoPU8pW05IXVtDSDJdW0NIMl1bTkhdQyg9TylbQ0hdMltDSDJdW0NIMl0y

> <s_epik_cmdline>
J2VwaWtfcHl0aG9uJywgJy1waCcsICc3LjAnLCAnLXRuJywgJzgnLCAnLW1hJywgJzIwMCcsICctbWV0YWxfYmluZGluZycsICctaW1hZScsICc8aW5maWxlLm1hZT4nLCAnLW9tYWUnLCAnPG91dGZpbGUubWFlPic=

> <r_epik_Ionization_Penalty>
0.00312497

> <r_epik_Ionization_Penalty_Charging>
0

> <r_epik_Ionization_Penalty_Neutral>
0.00312497

> <r_epik_State_Penalty>
0.00217604

> <r_epik_Charging_Adjusted_Penalty>
0.00217604

> <i_epik_Tot_Q>
0

> <i_epik_Tot_abs_Q>
0

> <r_epik_Metal_State_Penalty>
-0

> <b_epik_Metal_Only>
0

> <s_lp_Force_Field>
OPLS_2005

> <r_lp_Energy>
8.30989

> <b_lp_Chiralities_Consistent>
1

> <s_lp_Variant>
AV-unprocessed.smi:2372-1

> <Gold.Version>
5.8.1

> <Gold.Id.Protein>
6NUR|6NUR_protein|mol2

> <Gold.PLP.Fitness>
50.4358

> <Gold.PLP.PLP>
-37.2508

> <Gold.PLP.part.hbond>
-4.8012

> <Gold.PLP.part.metal>
0.0000

> <Gold.PLP.part.buried>
-5.7164

> <Gold.PLP.part.nonpolar>
-29.9102

> <Gold.PLP.part.repulsive>
1.9165

> <Gold.PLP.ligand.clash>
0.0000

> <Gold.PLP.ligand.torsion>
0.6878

> <Gold.PLP.Chemscore.Hbond>
3.8320

> <Gold.PLP.Chemscore.CHOScore>
0.9893

> <Gold.PLP.Chemscore.Metal>
0.0000

> <Gold.Chemscore.Hbonds>
donor molecule, donor type, donor heavy atom, donor atom, acceptor molecule, acceptor atom, score
      L1  H     3    20       P1  7948  0.98
      L1  H     6    25       P1  7948  0.99
      L1  H    12    31       P1  7948  0.83
      P1  H  7989  7998       L1     8  0.94
      L1  C    15    33       P1 10186  1.00

> <Gold.PLP.Chemscore.Internal.Correction>
0.0968

> <Gold.Rescore>
     Score         DG    S(hbond)    S(metal)    S(lipo)     H(rot)  DE(clash)    DE(int)     intcor
     18.78     -20.10       3.32        0.00      73.27       1.96       0.58       0.74       ----

> <Gold.Chemscore.Fitness>
18.7816

> <Gold.Chemscore.DG>
-20.1034

> <Gold.Chemscore.ZeroCoef>
-5.4800

> <Gold.Chemscore.Hbond>
3.3164

> <Gold.Chemscore.Metal>
0.0000

> <Gold.Chemscore.Lipo>
73.2687

> <Gold.Chemscore.Internal_Hbond>
0.0000

> <Gold.Chemscore.DEClash>
0.5820

> <Gold.Chemscore.DEInternal>
0.7398

> <Gold.Chemscore.Rot>
1.9632

> <Gold.Chemscore.Internal.Correction>
   9.000000E+99

> <Gold.Chemscore.Hbonds>
donor molecule, donor type, donor heavy atom, donor atom, acceptor molecule, acceptor atom, score
      L1  H     3    20       P1  7948  0.88
      L1  H     6    25       P1  7948  0.90
      L1  H    12    31       P1  7948  0.67
      P1  H  7989  7998       L1     8  0.38

> <Gold.Chemscore.Hbond.Weighted>
-11.0767

> <Gold.Chemscore.Metal.Weighted>
-0.0000

> <Gold.Chemscore.Lipo.Weighted>
-8.5724

> <Gold.Chemscore.Internal_Hbond.Weighted>
0.0000

> <Gold.Chemscore.DEClash.Weighted>
0.5820

> <Gold.Chemscore.DEInternal.Weighted>
0.7398

> <Gold.Chemscore.Rot.Weighted>
5.0257

> <Gold.Chemscore.Internal.Correction.Weighted>
   9.000000E+99

> <Gold.Protein.RotatedTorsions>
[ 6907 6896 6895 6894 ] final  127.43 input  -60.11 | X-H torsion
[ 7974 7965 7964 7962 ] final -110.40 input  175.53 | X-H torsion
[ 8008 7997 7996 7995 ] final -148.14 input   59.86 | X-H torsion
[ 10167 10162 10161 10158 ] final  -63.16 input  -65.29 | X-H torsion
[ 10718 10713 10712 10709 ] final  -80.73 input   66.30 | X-H torsion
[ 10763 10752 10751 10750 ] final -101.50 input  -60.55 | X-H torsion
[ 11005 11000 10999 10996 ] final    6.44 input  -57.11 | X-H torsion

> <Gold.Protein.ActiveResidues>
 VAL166  LYS551  ARG553  GLY616  TRP617  ASP618  TYR619  PRO620  LYS621  CYS622 
 ASP623  PHE694  ASN695  SER759  ASP760  ASP761  ALA762  ILE779  LEU786  VAL792 
 PHE793  MET794  SER795  GLU796  ALA797  LYS798  CYS799  TRP800  GLU811  SER814 

> <Gold.Protein.RotatedAtoms>
  152.3813  133.6550  159.6163 H   0  0  0  0  0  0  0  0  0  0  0  0  # atno 6907 bound_to 6896
  150.7743  133.9108  159.3378 H   0  0  0  0  0  0  0  0  0  0  0  0  # atno 6908 bound_to 6896
  151.6913  135.0947  160.0285 H   0  0  0  0  0  0  0  0  0  0  0  0  # atno 6909 bound_to 6896
  145.1687  140.8915  143.3548 H   0  0  0  0  0  0  0  0  0  0  0  0  # atno 7974 bound_to 7965
  155.5869  140.0649  157.2769 H   0  0  0  0  0  0  0  0  0  0  0  0  # atno 8008 bound_to 7997
  154.4316  140.1842  156.1080 H   0  0  0  0  0  0  0  0  0  0  0  0  # atno 8009 bound_to 7997
  156.0263  140.3311  155.7095 H   0  0  0  0  0  0  0  0  0  0  0  0  # atno 8010 bound_to 7997
  140.5890  143.2338  151.6180 H   0  0  0  0  0  0  0  0  0  0  0  0  # atno 10167 bound_to 10162
  156.0064  130.4583  150.3845 H   0  0  0  0  0  0  0  0  0  0  0  0  # atno 10718 bound_to 10713
  154.7663  135.4895  153.9560 H   0  0  0  0  0  0  0  0  0  0  0  0  # atno 10763 bound_to 10752
  153.1311  135.6753  153.9184 H   0  0  0  0  0  0  0  0  0  0  0  0  # atno 10764 bound_to 10752
  153.8887  135.3123  155.3425 H   0  0  0  0  0  0  0  0  0  0  0  0  # atno 10765 bound_to 10752
  140.5595  134.0206  155.7966 H   0  0  0  0  0  0  0  0  0  0  0  0  # atno 11005 bound_to 11000
  145.0255  139.3386  143.6051 LP  0  0  0  0  0  0  0  0  0  0  0  0  # atno 17320 bound_to 7965
  146.3472  139.9572  142.8721 LP  0  0  0  0  0  0  0  0  0  0  0  0  # atno 17321 bound_to 7965
  139.5215  144.3189  152.0927 LP  0  0  0  0  0  0  0  0  0  0  0  0  # atno 17342 bound_to 10162
  140.2351  144.4328  150.6283 LP  0  0  0  0  0  0  0  0  0  0  0  0  # atno 17343 bound_to 10162
  157.1923  131.0418  151.2694 LP  0  0  0  0  0  0  0  0  0  0  0  0  # atno 17370 bound_to 10713
  157.4050  130.7354  149.6796 LP  0  0  0  0  0  0  0  0  0  0  0  0  # atno 17371 bound_to 10713
  141.1123  133.9596  157.2887 LP  0  0  0  0  0  0  0  0  0  0  0  0  # atno 17394 bound_to 11000
  139.9415  135.0190  156.8722 LP  0  0  0  0  0  0  0  0  0  0  0  0  # atno 17395 bound_to 11000

$$$$
