AV-unprocessed.smi:3303|AV-procd|sdf|12658|dock2
  -GOLD-   2272018593D 1   1.00000     0.00000
 Structure written by MMmdl.
 45 46  0  0  0  0  0  0  0  0  3 V2000
  145.6728  136.0063  150.6137 C   0  0  0  0  0  0  0  0  0  0  0  0
  144.9318  134.8748  151.3571 C   0  0  1  0  0  0  0  0  0  0  0  0
  143.9745  134.1188  150.4153 C   0  0  0  0  0  0  0  0  0  0  0  0
  144.7051  133.2945  149.4154 N   0  3  2  0  0  0  0  0  0  0  0  0
  143.7647  132.7001  148.4343 C   0  0  0  0  0  0  0  0  0  0  0  0
  145.6184  132.3018  150.0597 C   0  0  1  0  0  0  0  0  0  0  0  0
  146.4170  131.4768  149.0311 C   0  0  0  0  0  0  0  0  0  0  0  0
  146.5967  133.0024  151.0296 C   0  0  0  0  0  0  0  0  0  0  0  0
  145.8581  133.8663  152.0702 C   0  0  1  0  0  0  0  0  0  0  0  0
  146.7810  134.5561  153.0033 N   0  3  0  0  0  0  0  0  0  0  0  0
  147.4960  133.6809  153.9555 C   0  0  0  0  0  0  0  0  0  0  0  0
  148.6133  132.8995  153.2506 C   0  0  0  0  0  0  0  0  0  0  0  0
  149.5089  132.1703  154.2339 C   0  0  0  0  0  0  0  0  0  0  0  0
  149.6882  130.7732  154.1485 C   0  0  0  0  0  0  0  0  0  0  0  0
  150.5285  130.1468  155.0896 C   0  0  0  0  0  0  0  0  0  0  0  0
  151.1515  130.9370  156.0746 C   0  0  0  0  0  0  0  0  0  0  0  0
  150.9058  132.3245  156.0755 C   0  0  0  0  0  0  0  0  0  0  0  0
  150.1018  132.9351  155.1778 N   0  0  0  0  0  0  0  0  0  0  0  0
  146.3079  135.6269  149.8132 H   0  0  0  0  0  0  0  0  0  0  0  0
  146.3015  136.5878  151.2881 H   0  0  0  0  0  0  0  0  0  0  0  0
  144.9641  136.7016  150.1628 H   0  0  0  0  0  0  0  0  0  0  0  0
  144.3194  135.3555  152.1215 H   0  0  0  0  0  0  0  0  0  0  0  0
  143.3166  133.4707  150.9970 H   0  0  0  0  0  0  0  0  0  0  0  0
  143.3280  134.8338  149.9043 H   0  0  0  0  0  0  0  0  0  0  0  0
  143.1646  131.9133  148.8933 H   0  0  0  0  0  0  0  0  0  0  0  0
  144.2908  132.2810  147.5771 H   0  0  0  0  0  0  0  0  0  0  0  0
  143.0856  133.4572  148.0410 H   0  0  0  0  0  0  0  0  0  0  0  0
  145.0030  131.6109  150.6386 H   0  0  0  0  0  0  0  0  0  0  0  0
  147.1396  130.8293  149.5284 H   0  0  0  0  0  0  0  0  0  0  0  0
  146.9701  132.1204  148.3462 H   0  0  0  0  0  0  0  0  0  0  0  0
  145.7750  130.8242  148.4398 H   0  0  0  0  0  0  0  0  0  0  0  0
  147.1920  132.2408  151.5331 H   0  0  0  0  0  0  0  0  0  0  0  0
  147.3039  133.6137  150.4678 H   0  0  0  0  0  0  0  0  0  0  0  0
  145.2251  133.2104  152.6709 H   0  0  0  0  0  0  0  0  0  0  0  0
  147.4562  135.0850  152.4696 H   0  0  0  0  0  0  0  0  0  0  0  0
  147.9189  134.2893  154.7562 H   0  0  0  0  0  0  0  0  0  0  0  0
  146.7964  132.9818  154.4135 H   0  0  0  0  0  0  0  0  0  0  0  0
  148.1829  132.1783  152.5544 H   0  0  0  0  0  0  0  0  0  0  0  0
  149.2254  133.5762  152.6522 H   0  0  0  0  0  0  0  0  0  0  0  0
  149.1973  130.1924  153.3813 H   0  0  0  0  0  0  0  0  0  0  0  0
  150.6919  129.0798  155.0564 H   0  0  0  0  0  0  0  0  0  0  0  0
  151.8027  130.4910  156.8117 H   0  0  0  0  0  0  0  0  0  0  0  0
  151.3658  132.9604  156.8173 H   0  0  0  0  0  0  0  0  0  0  0  0
  146.2318  135.2035  153.5509 H   0  0  0  0  0  0  0  0  0  0  0  0
  145.2900  133.9318  148.8938 H   0  0  0  0  0  0  0  0  0  0  0  0
  1  2  1  0  0  0  0
  1 19  1  0  0  0  0
  1 20  1  0  0  0  0
  1 21  1  0  0  0  0
  2  9  1  0  0  0  0
  2  3  1  0  0  0  0
  2 22  1  0  0  0  0
  3  4  1  0  0  0  0
  3 23  1  0  0  0  0
  3 24  1  0  0  0  0
  4  5  1  0  0  0  0
  4  6  1  0  0  0  0
  4 45  1  0  0  0  0
  5 25  1  0  0  0  0
  5 26  1  0  0  0  0
  5 27  1  0  0  0  0
  6  7  1  0  0  0  0
  6  8  1  0  0  0  0
  6 28  1  0  0  0  0
  7 29  1  0  0  0  0
  7 30  1  0  0  0  0
  7 31  1  0  0  0  0
  8  9  1  0  0  0  0
  8 32  1  0  0  0  0
  8 33  1  0  0  0  0
  9 10  1  0  0  0  0
  9 34  1  0  0  0  0
 10 11  1  0  0  0  0
 10 35  1  0  0  0  0
 10 44  1  0  0  0  0
 11 12  1  0  0  0  0
 11 36  1  0  0  0  0
 11 37  1  0  0  0  0
 12 13  1  0  0  0  0
 12 38  1  0  0  0  0
 12 39  1  0  0  0  0
 13 18  1  0  0  0  0
 13 14  2  0  0  0  0
 14 15  1  0  0  0  0
 14 40  1  0  0  0  0
 15 16  2  0  0  0  0
 15 41  1  0  0  0  0
 16 17  1  0  0  0  0
 16 42  1  0  0  0  0
 17 18  2  0  0  0  0
 17 43  1  0  0  0  0
M  CHG  1   4   1
M  CHG  1  10   1
M  END
> <s_m_source_file>
AV-unprocessed.smi

> <i_m_source_file_index>
3303

> <i_lp_mmshare_version>
43012

> <i_f3d_flags>
0

> <s_epik_input>
W0NIM11bQ0BASF0xW0NIMl1OKFtDSDNdKVtDQEBIXShbQ0gzXSlbQ0gyXVtDQEhdMVtOSF1bQ0gyXVtDSDJdYzJbY0hdW2NIXVtjSF1bY0hdbjI=

> <s_epik_cmdline>
J2VwaWtfcHl0aG9uJywgJy1waCcsICc3LjAnLCAnLXRuJywgJzgnLCAnLW1hJywgJzIwMCcsICctbWV0YWxfYmluZGluZycsICctaW1hZScsICc8aW5maWxlLm1hZT4nLCAnLW9tYWUnLCAnPG91dGZpbGUubWFlPic=

> <r_epik_Ionization_Penalty>
0.0769462

> <r_epik_Ionization_Penalty_Charging>
0.0759813

> <r_epik_Ionization_Penalty_Neutral>
0.000964829

> <r_epik_State_Penalty>
0.0654373

> <r_epik_Charging_Adjusted_Penalty>
0.141419

> <i_epik_Tot_Q>
2

> <i_epik_Tot_abs_Q>
2

> <r_epik_Metal_State_Penalty>
0.0656439

> <b_epik_Metal_Only>
0

> <s_lp_Force_Field>
OPLS_2005

> <r_lp_Energy>
30.9153

> <b_lp_Chiralities_Consistent>
1

> <s_lp_Variant>
AV-unprocessed.smi:3303-2

> <Gold.Version>
5.8.1

> <Gold.Id.Protein>
6NUR|6NUR_protein|mol2

> <Gold.PLP.Fitness>
46.4516

> <Gold.PLP.PLP>
-37.7331

> <Gold.PLP.part.hbond>
-2.0000

> <Gold.PLP.part.metal>
0.0000

> <Gold.PLP.part.buried>
-0.7121

> <Gold.PLP.part.nonpolar>
-35.4918

> <Gold.PLP.part.repulsive>
0.1655

> <Gold.PLP.ligand.clash>
0.0000

> <Gold.PLP.ligand.torsion>
0.1463

> <Gold.PLP.Chemscore.Hbond>
3.0000

> <Gold.PLP.Chemscore.CHOScore>
0.0000

> <Gold.PLP.Chemscore.Metal>
0.0000

> <Gold.Chemscore.Hbonds>
donor molecule, donor type, donor heavy atom, donor atom, acceptor molecule, acceptor atom, score
      L1  H     4    45       P1  7921  1.00
      L1  H    10    35       P1  7948  2.00

> <Gold.PLP.Chemscore.Internal.Correction>
0.0111

> <Gold.Rescore>
     Score         DG    S(hbond)    S(metal)    S(lipo)     H(rot)  DE(clash)    DE(int)     intcor
     20.57     -21.16       1.94        0.00     108.73       1.37       0.25       0.34       ----

> <Gold.Chemscore.Fitness>
20.5749

> <Gold.Chemscore.DG>
-21.1636

> <Gold.Chemscore.ZeroCoef>
-5.4800

> <Gold.Chemscore.Hbond>
1.9402

> <Gold.Chemscore.Metal>
0.0000

> <Gold.Chemscore.Lipo>
108.7333

> <Gold.Chemscore.Internal_Hbond>
0.0000

> <Gold.Chemscore.DEClash>
0.2504

> <Gold.Chemscore.DEInternal>
0.3384

> <Gold.Chemscore.Rot>
1.3744

> <Gold.Chemscore.Internal.Correction>
   9.000000E+99

> <Gold.Chemscore.Hbonds>
donor molecule, donor type, donor heavy atom, donor atom, acceptor molecule, acceptor atom, score
      L1  H     4    45       P1  7921  0.88
      L1  H    10    35       P1  7948  0.98

> <Gold.Chemscore.Hbond.Weighted>
-6.4803

> <Gold.Chemscore.Metal.Weighted>
-0.0000

> <Gold.Chemscore.Lipo.Weighted>
-12.7218

> <Gold.Chemscore.Internal_Hbond.Weighted>
0.0000

> <Gold.Chemscore.DEClash.Weighted>
0.2504

> <Gold.Chemscore.DEInternal.Weighted>
0.3384

> <Gold.Chemscore.Rot.Weighted>
3.5185

> <Gold.Chemscore.Internal.Correction.Weighted>
   9.000000E+99

> <Gold.Protein.RotatedTorsions>
[ 6907 6896 6895 6894 ] final   80.88 input  -60.11 | X-H torsion
[ 7974 7965 7964 7962 ] final -159.89 input  175.53 | X-H torsion
[ 8008 7997 7996 7995 ] final   18.43 input   59.86 | X-H torsion
[ 10167 10162 10161 10158 ] final  146.83 input  -65.29 | X-H torsion
[ 10718 10713 10712 10709 ] final  -35.74 input   66.30 | X-H torsion
[ 10763 10752 10751 10750 ] final -154.92 input  -60.55 | X-H torsion
[ 11005 11000 10999 10996 ] final -169.70 input  -57.11 | X-H torsion

> <Gold.Protein.ActiveResidues>
 VAL166  LYS551  ARG553  GLY616  TRP617  ASP618  TYR619  PRO620  LYS621  CYS622 
 ASP623  PHE694  ASN695  SER759  ASP760  ASP761  ALA762  ILE779  LEU786  VAL792 
 PHE793  MET794  SER795  GLU796  ALA797  LYS798  CYS799  TRP800  GLU811  SER814 

> <Gold.Protein.RotatedAtoms>
  152.5250  134.3290  159.9175 H   0  0  0  0  0  0  0  0  0  0  0  0  # atno 6907 bound_to 6896
  151.3239  133.4022  159.2664 H   0  0  0  0  0  0  0  0  0  0  0  0  # atno 6908 bound_to 6896
  150.9936  134.9282  159.7971 H   0  0  0  0  0  0  0  0  0  0  0  0  # atno 6909 bound_to 6896
  144.7447  140.3620  143.6094 H   0  0  0  0  0  0  0  0  0  0  0  0  # atno 7974 bound_to 7965
  154.9059  140.3007  155.5292 H   0  0  0  0  0  0  0  0  0  0  0  0  # atno 8008 bound_to 7997
  156.3017  140.2398  156.4028 H   0  0  0  0  0  0  0  0  0  0  0  0  # atno 8009 bound_to 7997
  154.8474  140.0411  157.1570 H   0  0  0  0  0  0  0  0  0  0  0  0  # atno 8010 bound_to 7997
  139.4900  144.5800  151.6889 H   0  0  0  0  0  0  0  0  0  0  0  0  # atno 10167 bound_to 10162
  156.3351  130.4285  149.7838 H   0  0  0  0  0  0  0  0  0  0  0  0  # atno 10718 bound_to 10713
  154.7824  135.3179  154.7960 H   0  0  0  0  0  0  0  0  0  0  0  0  # atno 10763 bound_to 10752
  153.8669  135.6848  153.4782 H   0  0  0  0  0  0  0  0  0  0  0  0  # atno 10764 bound_to 10752
  153.1465  135.4717  154.9511 H   0  0  0  0  0  0  0  0  0  0  0  0  # atno 10765 bound_to 10752
  140.5278  134.5646  157.5066 H   0  0  0  0  0  0  0  0  0  0  0  0  # atno 11005 bound_to 11000
  145.7168  139.1699  143.2507 LP  0  0  0  0  0  0  0  0  0  0  0  0  # atno 17320 bound_to 7965
  146.1307  140.7189  142.9413 LP  0  0  0  0  0  0  0  0  0  0  0  0  # atno 17321 bound_to 7965
  140.5405  144.0587  150.6086 LP  0  0  0  0  0  0  0  0  0  0  0  0  # atno 17342 bound_to 10162
  140.3608  143.2909  152.0386 LP  0  0  0  0  0  0  0  0  0  0  0  0  # atno 17343 bound_to 10162
  156.5095  130.8165  151.3163 LP  0  0  0  0  0  0  0  0  0  0  0  0  # atno 17370 bound_to 10713
  157.7437  130.9918  150.2615 LP  0  0  0  0  0  0  0  0  0  0  0  0  # atno 17371 bound_to 10713
  139.9570  134.7517  156.0319 LP  0  0  0  0  0  0  0  0  0  0  0  0  # atno 17394 bound_to 11000
  141.1298  133.6589  156.3434 LP  0  0  0  0  0  0  0  0  0  0  0  0  # atno 17395 bound_to 11000

$$$$
