AV-unprocessed.smi:2302|AV-procd|sdf|9236|dock3
  -GOLD-   2272012453D 1   1.00000     0.00000
 Structure written by MMmdl.
 40 41  0  0  0  0  0  0  0  0  2 V2000
  153.4584  140.9748  160.2114 C   0  0  0  0  0  0  0  0  0  0  0  0
  152.7844  142.1993  159.6291 C   0  0  0  0  0  0  0  0  0  0  0  0
  152.9587  143.4696  160.2129 C   0  0  0  0  0  0  0  0  0  0  0  0
  152.3070  144.5660  159.6204 C   0  0  0  0  0  0  0  0  0  0  0  0
  151.5139  144.3490  158.4772 C   0  0  0  0  0  0  0  0  0  0  0  0
  151.3907  143.0421  157.9546 C   0  0  0  0  0  0  0  0  0  0  0  0
  150.5693  142.9297  156.8013 N   0  0  0  0  0  0  0  0  0  0  0  0
  150.2734  141.8233  156.0970 C   0  0  0  0  0  0  0  0  0  0  0  0
  150.6787  140.6875  156.3468 O   0  0  0  0  0  0  0  0  0  0  0  0
  149.4619  142.1039  155.0673 N   0  0  0  0  0  0  0  0  0  0  0  0
  148.9598  141.1254  154.1088 C   0  0  0  0  0  0  0  0  0  0  0  0
  147.4464  140.8898  154.2634 C   0  0  2  0  0  0  0  0  0  0  0  0
  146.6720  142.2144  154.4075 C   0  0  0  0  0  0  0  0  0  0  0  0
  145.2311  141.9510  154.6245 N   0  3  2  0  0  0  0  0  0  0  0  0
  144.4333  143.1919  154.7220 C   0  0  0  0  0  0  0  0  0  0  0  0
  145.0278  141.0483  155.7803 C   0  0  0  0  0  0  0  0  0  0  0  0
  145.8582  139.7656  155.6078 C   0  0  0  0  0  0  0  0  0  0  0  0
  147.2283  140.1060  155.4333 O   0  0  0  0  0  0  0  0  0  0  0  0
  152.0226  141.9907  158.5336 N   0  0  0  0  0  0  0  0  0  0  0  0
  154.0468  141.2285  161.0934 H   0  0  0  0  0  0  0  0  0  0  0  0
  154.1249  140.5240  159.4756 H   0  0  0  0  0  0  0  0  0  0  0  0
  152.7131  140.2335  160.5010 H   0  0  0  0  0  0  0  0  0  0  0  0
  153.5746  143.6038  161.0899 H   0  0  0  0  0  0  0  0  0  0  0  0
  152.4136  145.5575  160.0349 H   0  0  0  0  0  0  0  0  0  0  0  0
  151.0078  145.1815  158.0102 H   0  0  0  0  0  0  0  0  0  0  0  0
  150.1616  143.7930  156.4743 H   0  0  0  0  0  0  0  0  0  0  0  0
  149.1730  143.0623  154.9338 H   0  0  0  0  0  0  0  0  0  0  0  0
  149.1822  141.4837  153.1033 H   0  0  0  0  0  0  0  0  0  0  0  0
  149.5040  140.1871  154.2295 H   0  0  0  0  0  0  0  0  0  0  0  0
  147.0725  140.3506  153.3909 H   0  0  0  0  0  0  0  0  0  0  0  0
  147.0673  142.7935  155.2438 H   0  0  0  0  0  0  0  0  0  0  0  0
  146.7997  142.8195  153.5088 H   0  0  0  0  0  0  0  0  0  0  0  0
  144.7377  143.7874  155.5839 H   0  0  0  0  0  0  0  0  0  0  0  0
  143.3724  142.9608  154.8229 H   0  0  0  0  0  0  0  0  0  0  0  0
  144.5577  143.7997  153.8251 H   0  0  0  0  0  0  0  0  0  0  0  0
  145.3178  141.5588  156.7004 H   0  0  0  0  0  0  0  0  0  0  0  0
  143.9703  140.7973  155.8713 H   0  0  0  0  0  0  0  0  0  0  0  0
  145.7608  139.1329  156.4901 H   0  0  0  0  0  0  0  0  0  0  0  0
  145.5044  139.1814  154.7566 H   0  0  0  0  0  0  0  0  0  0  0  0
  144.9002  141.4563  153.8081 H   0  0  0  0  0  0  0  0  0  0  0  0
  1  2  1  0  0  0  0
  1 20  1  0  0  0  0
  1 21  1  0  0  0  0
  1 22  1  0  0  0  0
  2 19  1  0  0  0  0
  2  3  2  0  0  0  0
  3  4  1  0  0  0  0
  3 23  1  0  0  0  0
  4  5  2  0  0  0  0
  4 24  1  0  0  0  0
  5  6  1  0  0  0  0
  5 25  1  0  0  0  0
  6  7  1  0  0  0  0
  6 19  2  0  0  0  0
  7  8  1  0  0  0  0
  7 26  1  0  0  0  0
  8  9  2  0  0  0  0
  8 10  1  0  0  0  0
 10 11  1  0  0  0  0
 10 27  1  0  0  0  0
 11 12  1  0  0  0  0
 11 28  1  0  0  0  0
 11 29  1  0  0  0  0
 12 18  1  0  0  0  0
 12 13  1  0  0  0  0
 12 30  1  0  0  0  0
 13 14  1  0  0  0  0
 13 31  1  0  0  0  0
 13 32  1  0  0  0  0
 14 15  1  0  0  0  0
 14 16  1  0  0  0  0
 14 40  1  0  0  0  0
 15 33  1  0  0  0  0
 15 34  1  0  0  0  0
 15 35  1  0  0  0  0
 16 17  1  0  0  0  0
 16 36  1  0  0  0  0
 16 37  1  0  0  0  0
 17 18  1  0  0  0  0
 17 38  1  0  0  0  0
 17 39  1  0  0  0  0
M  CHG  1  14   1
M  END
> <s_m_source_file>
AV-unprocessed.smi

> <i_m_source_file_index>
2302

> <i_lp_mmshare_version>
43012

> <i_f3d_flags>
0

> <s_epik_input>
W0NIM11jMVtjSF1bY0hdW2NIXWMobjEpW05IXUMoPU8pW05IXVtDSDJdW0NAQEhdMltDSDJdTihbQ0gzXSlbQ0gyXVtDSDJdTzI=

> <s_epik_cmdline>
J2VwaWtfcHl0aG9uJywgJy1waCcsICc3LjAnLCAnLXRuJywgJzgnLCAnLW1hJywgJzIwMCcsICctbWV0YWxfYmluZGluZycsICctaW1hZScsICc8aW5maWxlLm1hZT4nLCAnLW9tYWUnLCAnPG91dGZpbGUubWFlPic=

> <r_epik_Ionization_Penalty>
0.204647

> <r_epik_Ionization_Penalty_Charging>
0.204578

> <r_epik_Ionization_Penalty_Neutral>
6.91954e-05

> <r_epik_State_Penalty>
0.194513

> <r_epik_Charging_Adjusted_Penalty>
0.399091

> <i_epik_Tot_Q>
1

> <i_epik_Tot_abs_Q>
1

> <r_epik_Metal_State_Penalty>
0.194515

> <b_epik_Metal_Only>
0

> <s_lp_Force_Field>
OPLS_2005

> <r_lp_Energy>
15.472

> <b_lp_Chiralities_Consistent>
1

> <s_lp_Variant>
AV-unprocessed.smi:2302-1

> <Gold.Version>
5.8.1

> <Gold.Id.Protein>
6NUR|6NUR_protein|mol2

> <Gold.PLP.Fitness>
49.9143

> <Gold.PLP.PLP>
-38.2233

> <Gold.PLP.part.hbond>
-3.0000

> <Gold.PLP.part.metal>
0.0000

> <Gold.PLP.part.buried>
-4.2379

> <Gold.PLP.part.nonpolar>
-32.2918

> <Gold.PLP.part.repulsive>
0.3047

> <Gold.PLP.ligand.clash>
0.0000

> <Gold.PLP.ligand.torsion>
0.1432

> <Gold.PLP.Chemscore.Hbond>
3.9920

> <Gold.PLP.Chemscore.CHOScore>
0.0000

> <Gold.PLP.Chemscore.Metal>
0.0000

> <Gold.Chemscore.Hbonds>
donor molecule, donor type, donor heavy atom, donor atom, acceptor molecule, acceptor atom, score
      L1  H     7    26       P1  8028  1.00
      L1  H    10    27       P1  8028  0.99
      L1  H    14    40       P1 10175  2.00

> <Gold.PLP.Chemscore.Internal.Correction>
0.0014

> <Gold.Rescore>
     Score         DG    S(hbond)    S(metal)    S(lipo)     H(rot)  DE(clash)    DE(int)     intcor
     19.85     -21.26       2.79        0.00      83.08       1.27       0.03       1.38       ----

> <Gold.Chemscore.Fitness>
19.8495

> <Gold.Chemscore.DG>
-21.2615

> <Gold.Chemscore.ZeroCoef>
-5.4800

> <Gold.Chemscore.Hbond>
2.7907

> <Gold.Chemscore.Metal>
0.0000

> <Gold.Chemscore.Lipo>
83.0846

> <Gold.Chemscore.Internal_Hbond>
0.0000

> <Gold.Chemscore.DEClash>
0.0310

> <Gold.Chemscore.DEInternal>
1.3810

> <Gold.Chemscore.Rot>
1.2736

> <Gold.Chemscore.Internal.Correction>
   9.000000E+99

> <Gold.Chemscore.Hbonds>
donor molecule, donor type, donor heavy atom, donor atom, acceptor molecule, acceptor atom, score
      L1  H     7    26       P1  8028  0.98
      L1  H    10    27       P1  8028  0.94
      L1  H    14    40       P1 10175  0.24

> <Gold.Chemscore.Hbond.Weighted>
-9.3209

> <Gold.Chemscore.Metal.Weighted>
-0.0000

> <Gold.Chemscore.Lipo.Weighted>
-9.7209

> <Gold.Chemscore.Internal_Hbond.Weighted>
0.0000

> <Gold.Chemscore.DEClash.Weighted>
0.0310

> <Gold.Chemscore.DEInternal.Weighted>
1.3810

> <Gold.Chemscore.Rot.Weighted>
3.2603

> <Gold.Chemscore.Internal.Correction.Weighted>
   9.000000E+99

> <Gold.Protein.RotatedTorsions>
[ 6907 6896 6895 6894 ] final  -93.22 input  -60.11 | X-H torsion
[ 7974 7965 7964 7962 ] final -105.62 input  175.53 | X-H torsion
[ 8008 7997 7996 7995 ] final  163.54 input   59.86 | X-H torsion
[ 10167 10162 10161 10158 ] final  119.53 input  -65.29 | X-H torsion
[ 10718 10713 10712 10709 ] final  104.01 input   66.30 | X-H torsion
[ 10763 10752 10751 10750 ] final -156.80 input  -60.55 | X-H torsion
[ 11005 11000 10999 10996 ] final   55.38 input  -57.11 | X-H torsion

> <Gold.Protein.ActiveResidues>
 VAL166  LYS551  ARG553  GLY616  TRP617  ASP618  TYR619  PRO620  LYS621  CYS622 
 ASP623  PHE694  ASN695  SER759  ASP760  ASP761  ALA762  ILE779  LEU786  VAL792 
 PHE793  MET794  SER795  GLU796  ALA797  LYS798  CYS799  TRP800  GLU811  SER814 

> <Gold.Protein.RotatedAtoms>
  150.6919  134.2001  159.4318 H   0  0  0  0  0  0  0  0  0  0  0  0  # atno 6907 bound_to 6896
  151.9968  134.9947  160.0573 H   0  0  0  0  0  0  0  0  0  0  0  0  # atno 6908 bound_to 6896
  152.1616  133.4551  159.4901 H   0  0  0  0  0  0  0  0  0  0  0  0  # atno 6909 bound_to 6896
  145.2282  140.9160  143.3220 H   0  0  0  0  0  0  0  0  0  0  0  0  # atno 7974 bound_to 7965
  156.1949  140.1721  156.8018 H   0  0  0  0  0  0  0  0  0  0  0  0  # atno 8008 bound_to 7997
  154.5517  140.0716  156.8710 H   0  0  0  0  0  0  0  0  0  0  0  0  # atno 8009 bound_to 7997
  155.3016  140.3362  155.4250 H   0  0  0  0  0  0  0  0  0  0  0  0  # atno 8010 bound_to 7997
  139.6040  144.7065  151.2996 H   0  0  0  0  0  0  0  0  0  0  0  0  # atno 10167 bound_to 10162
  157.6754  131.0793  150.5641 H   0  0  0  0  0  0  0  0  0  0  0  0  # atno 10718 bound_to 10713
  154.7685  135.3138  154.8238 H   0  0  0  0  0  0  0  0  0  0  0  0  # atno 10763 bound_to 10752
  153.8979  135.6818  153.4761 H   0  0  0  0  0  0  0  0  0  0  0  0  # atno 10764 bound_to 10752
  153.1295  135.4786  154.9259 H   0  0  0  0  0  0  0  0  0  0  0  0  # atno 10765 bound_to 10752
  140.0612  134.5600  155.9150 H   0  0  0  0  0  0  0  0  0  0  0  0  # atno 11005 bound_to 11000
  144.9702  139.3888  143.6313 LP  0  0  0  0  0  0  0  0  0  0  0  0  # atno 17320 bound_to 7965
  146.3359  139.8795  142.8826 LP  0  0  0  0  0  0  0  0  0  0  0  0  # atno 17321 bound_to 7965
  140.7271  143.6972  150.7874 LP  0  0  0  0  0  0  0  0  0  0  0  0  # atno 17342 bound_to 10162
  140.0554  143.5208  152.2653 LP  0  0  0  0  0  0  0  0  0  0  0  0  # atno 17343 bound_to 10162
  156.5944  130.4338  149.5923 LP  0  0  0  0  0  0  0  0  0  0  0  0  # atno 17370 bound_to 10713
  156.2557  130.6933  151.1685 LP  0  0  0  0  0  0  0  0  0  0  0  0  # atno 17371 bound_to 10713
  141.1974  133.6596  156.5738 LP  0  0  0  0  0  0  0  0  0  0  0  0  # atno 17394 bound_to 11000
  140.3768  134.7558  157.4635 LP  0  0  0  0  0  0  0  0  0  0  0  0  # atno 17395 bound_to 11000

$$$$
