AV-unprocessed.smi:3034|AV-procd|sdf|11577|dock7
  -GOLD-   2272016543D 1   1.00000     0.00000
 Structure written by MMmdl.
 32 32  0  0  0  0  0  0  0  0  1 V2000
  150.0779  139.1786  157.4694 C   0  0  0  0  0  0  0  0  0  0  0  0
  148.9695  140.2341  157.5399 C   0  0  0  0  0  0  0  0  0  0  0  0
  148.3785  140.5613  156.1626 C   0  0  0  0  0  0  0  0  0  0  0  0
  149.6767  141.2092  155.0296 S   0  0  0  0  0  0  0  0  0  0  0  0
  150.7512  140.2118  154.9128 O   0  0  0  0  0  0  0  0  0  0  0  0
  149.0244  141.7290  153.8180 O   0  0  0  0  0  0  0  0  0  0  0  0
  150.3068  142.5516  155.9049 N   0  0  0  0  0  0  0  0  0  0  0  0
  151.1543  142.2682  157.0635 C   0  0  0  0  0  0  0  0  0  0  0  0
  150.7318  143.1171  158.2754 C   0  0  2  0  0  0  0  0  0  0  0  0
  150.7287  144.4804  157.8946 O   0  0  0  0  0  0  0  0  0  0  0  0
  151.6522  142.8674  159.4627 C   0  0  0  0  0  0  0  0  0  0  0  0
  152.7475  141.9849  159.3410 C   0  0  0  0  0  0  0  0  0  0  0  0
  153.5867  141.7944  160.4556 C   0  0  0  0  0  0  0  0  0  0  0  0
  153.3025  142.4906  161.6458 C   0  0  0  0  0  0  0  0  0  0  0  0
  152.1867  143.3503  161.6683 C   0  0  0  0  0  0  0  0  0  0  0  0
  151.3765  143.5403  160.6050 N   0  0  0  0  0  0  0  0  0  0  0  0
  150.4893  138.9820  158.4598 H   0  0  0  0  0  0  0  0  0  0  0  0
  150.8963  139.5078  156.8285 H   0  0  0  0  0  0  0  0  0  0  0  0
  149.6989  138.2359  157.0736 H   0  0  0  0  0  0  0  0  0  0  0  0
  148.1784  139.8803  158.2017 H   0  0  0  0  0  0  0  0  0  0  0  0
  149.3656  141.1443  157.9912 H   0  0  0  0  0  0  0  0  0  0  0  0
  147.9442  139.6708  155.7078 H   0  0  0  0  0  0  0  0  0  0  0  0
  147.5922  141.3122  156.2433 H   0  0  0  0  0  0  0  0  0  0  0  0
  149.5634  143.2045  156.1506 H   0  0  0  0  0  0  0  0  0  0  0  0
  151.0423  141.2105  157.3063 H   0  0  0  0  0  0  0  0  0  0  0  0
  152.2031  142.4278  156.8091 H   0  0  0  0  0  0  0  0  0  0  0  0
  149.7147  142.8533  158.5692 H   0  0  0  0  0  0  0  0  0  0  0  0
  150.1135  144.5909  157.1861 H   0  0  0  0  0  0  0  0  0  0  0  0
  152.9454  141.4674  158.4138 H   0  0  0  0  0  0  0  0  0  0  0  0
  154.4346  141.1281  160.3978 H   0  0  0  0  0  0  0  0  0  0  0  0
  153.9253  142.3699  162.5198 H   0  0  0  0  0  0  0  0  0  0  0  0
  151.9394  143.9011  162.5638 H   0  0  0  0  0  0  0  0  0  0  0  0
  1  2  1  0  0  0  0
  1 17  1  0  0  0  0
  1 18  1  0  0  0  0
  1 19  1  0  0  0  0
  2  3  1  0  0  0  0
  2 20  1  0  0  0  0
  2 21  1  0  0  0  0
  3  4  1  0  0  0  0
  3 22  1  0  0  0  0
  3 23  1  0  0  0  0
  4  5  2  0  0  0  0
  4  6  2  0  0  0  0
  4  7  1  0  0  0  0
  7  8  1  0  0  0  0
  7 24  1  0  0  0  0
  8  9  1  0  0  0  0
  8 25  1  0  0  0  0
  8 26  1  0  0  0  0
  9 10  1  0  0  0  0
  9 11  1  0  0  0  0
  9 27  1  0  0  0  0
 10 28  1  0  0  0  0
 11 16  1  0  0  0  0
 11 12  2  0  0  0  0
 12 13  1  0  0  0  0
 12 29  1  0  0  0  0
 13 14  2  0  0  0  0
 13 30  1  0  0  0  0
 14 15  1  0  0  0  0
 14 31  1  0  0  0  0
 15 16  2  0  0  0  0
 15 32  1  0  0  0  0
M  END
> <s_m_source_file>
AV-unprocessed.smi

> <i_m_source_file_index>
3034

> <i_lp_mmshare_version>
43012

> <i_f3d_flags>
0

> <s_epik_input>
W0NIM11bQ0gyXVtDSDJdUyg9TykoPU8pW05IXVtDSDJdW0NASF0oW09IXSljMVtjSF1bY0hdW2NIXVtjSF1uMQ==

> <s_epik_cmdline>
J2VwaWtfcHl0aG9uJywgJy1waCcsICc3LjAnLCAnLXRuJywgJzgnLCAnLW1hJywgJzIwMCcsICctbWV0YWxfYmluZGluZycsICctaW1hZScsICc8aW5maWxlLm1hZT4nLCAnLW9tYWUnLCAnPG91dGZpbGUubWFlPic=

> <r_epik_Ionization_Penalty>
0.00187371

> <r_epik_Ionization_Penalty_Charging>
0

> <r_epik_Ionization_Penalty_Neutral>
0.00187371

> <r_epik_State_Penalty>
0.0012608

> <r_epik_Charging_Adjusted_Penalty>
0.0012608

> <i_epik_Tot_Q>
0

> <i_epik_Tot_abs_Q>
0

> <r_epik_Metal_State_Penalty>
0.0168387

> <b_epik_Metal_Only>
0

> <s_lp_Force_Field>
OPLS_2005

> <r_lp_Energy>
4.86563

> <b_lp_Chiralities_Consistent>
1

> <s_lp_Variant>
AV-unprocessed.smi:3034-1

> <Gold.Version>
5.8.1

> <Gold.Id.Protein>
6NUR|6NUR_protein|mol2

> <Gold.PLP.Fitness>
43.9318

> <Gold.PLP.PLP>
-34.6999

> <Gold.PLP.part.hbond>
-5.4161

> <Gold.PLP.part.metal>
0.0000

> <Gold.PLP.part.buried>
-5.5431

> <Gold.PLP.part.nonpolar>
-22.9239

> <Gold.PLP.part.repulsive>
0.3587

> <Gold.PLP.ligand.clash>
0.0000

> <Gold.PLP.ligand.torsion>
0.6358

> <Gold.PLP.Chemscore.Hbond>
3.4400

> <Gold.PLP.Chemscore.CHOScore>
0.0000

> <Gold.PLP.Chemscore.Metal>
0.0000

> <Gold.Chemscore.Hbonds>
donor molecule, donor type, donor heavy atom, donor atom, acceptor molecule, acceptor atom, score
      L1  H     7    24       P1  8028  0.82
      L1  H    10    28       P1  8028  1.00
      P1  H  7989  7998       L1     5  1.00
      P1  H  8011  8017       L1     6  0.61

> <Gold.PLP.Chemscore.Internal.Correction>
0.1835

> <Gold.Rescore>
     Score         DG    S(hbond)    S(metal)    S(lipo)     H(rot)  DE(clash)    DE(int)     intcor
     15.03     -16.40       2.64        0.00      75.39       2.63       0.02       1.35       ----

> <Gold.Chemscore.Fitness>
15.0312

> <Gold.Chemscore.DG>
-16.4016

> <Gold.Chemscore.ZeroCoef>
-5.4800

> <Gold.Chemscore.Hbond>
2.6431

> <Gold.Chemscore.Metal>
0.0000

> <Gold.Chemscore.Lipo>
75.3858

> <Gold.Chemscore.Internal_Hbond>
0.0000

> <Gold.Chemscore.DEClash>
0.0226

> <Gold.Chemscore.DEInternal>
1.3479

> <Gold.Chemscore.Rot>
2.6275

> <Gold.Chemscore.Internal.Correction>
   9.000000E+99

> <Gold.Chemscore.Hbonds>
donor molecule, donor type, donor heavy atom, donor atom, acceptor molecule, acceptor atom, score
      L1  H     7    24       P1  8028  0.81
      L1  H    10    28       P1  8028  0.39
      P1  H  7989  7998       L1     5  0.26
      P1  H  8011  8017       L1     6  0.62

> <Gold.Chemscore.Hbond.Weighted>
-8.8280

> <Gold.Chemscore.Metal.Weighted>
-0.0000

> <Gold.Chemscore.Lipo.Weighted>
-8.8201

> <Gold.Chemscore.Internal_Hbond.Weighted>
0.0000

> <Gold.Chemscore.DEClash.Weighted>
0.0226

> <Gold.Chemscore.DEInternal.Weighted>
1.3479

> <Gold.Chemscore.Rot.Weighted>
6.7265

> <Gold.Chemscore.Internal.Correction.Weighted>
   9.000000E+99

> <Gold.Protein.RotatedTorsions>
[ 6907 6896 6895 6894 ] final  -40.34 input  -60.11 | X-H torsion
[ 7974 7965 7964 7962 ] final   91.96 input  175.53 | X-H torsion
[ 8008 7997 7996 7995 ] final -177.88 input   59.86 | X-H torsion
[ 10167 10162 10161 10158 ] final -144.87 input  -65.29 | X-H torsion
[ 10718 10713 10712 10709 ] final  -88.48 input   66.30 | X-H torsion
[ 10763 10752 10751 10750 ] final  175.71 input  -60.55 | X-H torsion
[ 11005 11000 10999 10996 ] final   11.06 input  -57.11 | X-H torsion

> <Gold.Protein.ActiveResidues>
 VAL166  LYS551  ARG553  GLY616  TRP617  ASP618  TYR619  PRO620  LYS621  CYS622 
 ASP623  PHE694  ASN695  SER759  ASP760  ASP761  ALA762  ILE779  LEU786  VAL792 
 PHE793  MET794  SER795  GLU796  ALA797  LYS798  CYS799  TRP800  GLU811  SER814 

> <Gold.Protein.RotatedAtoms>
  150.9796  134.9154  159.7836 H   0  0  0  0  0  0  0  0  0  0  0  0  # atno 6907 bound_to 6896
  152.5217  134.3428  159.9233 H   0  0  0  0  0  0  0  0  0  0  0  0  # atno 6908 bound_to 6896
  151.3435  133.3912  159.2708 H   0  0  0  0  0  0  0  0  0  0  0  0  # atno 6909 bound_to 6896
  145.4986  139.2276  143.2790 H   0  0  0  0  0  0  0  0  0  0  0  0  # atno 7974 bound_to 7965
  156.0123  140.1243  157.0442 H   0  0  0  0  0  0  0  0  0  0  0  0  # atno 8008 bound_to 7997
  154.4280  140.1085  156.5916 H   0  0  0  0  0  0  0  0  0  0  0  0  # atno 8009 bound_to 7997
  155.6063  140.3471  155.4611 H   0  0  0  0  0  0  0  0  0  0  0  0  # atno 8010 bound_to 7997
  139.7858  143.8036  152.2644 H   0  0  0  0  0  0  0  0  0  0  0  0  # atno 10167 bound_to 10162
  155.9983  130.4837  150.5026 H   0  0  0  0  0  0  0  0  0  0  0  0  # atno 10718 bound_to 10713
  154.4712  135.2771  155.1641 H   0  0  0  0  0  0  0  0  0  0  0  0  # atno 10763 bound_to 10752
  154.3389  135.6174  153.5590 H   0  0  0  0  0  0  0  0  0  0  0  0  # atno 10764 bound_to 10752
  152.9864  135.5783  154.5094 H   0  0  0  0  0  0  0  0  0  0  0  0  # atno 10765 bound_to 10752
  140.5075  134.0685  155.7809 H   0  0  0  0  0  0  0  0  0  0  0  0  # atno 11005 bound_to 11000
  146.2240  140.5785  142.9004 LP  0  0  0  0  0  0  0  0  0  0  0  0  # atno 17320 bound_to 7965
  144.7793  140.5806  143.6617 LP  0  0  0  0  0  0  0  0  0  0  0  0  # atno 17321 bound_to 7965
  139.8112  144.7335  150.9695 LP  0  0  0  0  0  0  0  0  0  0  0  0  # atno 17342 bound_to 10162
  140.7819  143.4249  151.0784 LP  0  0  0  0  0  0  0  0  0  0  0  0  # atno 17343 bound_to 10162
  157.3009  131.0645  151.2069 LP  0  0  0  0  0  0  0  0  0  0  0  0  # atno 17370 bound_to 10713
  157.3049  130.6861  149.6184 LP  0  0  0  0  0  0  0  0  0  0  0  0  # atno 17371 bound_to 10713
  141.1403  133.9150  157.2341 LP  0  0  0  0  0  0  0  0  0  0  0  0  # atno 17394 bound_to 11000
  139.9678  135.0137  156.9432 LP  0  0  0  0  0  0  0  0  0  0  0  0  # atno 17395 bound_to 11000

$$$$
