AV-unprocessed.smi:3061|AV-procd|sdf|11680|dock1
  -GOLD-   2272017 83D 1   1.00000     0.00000
 Structure written by MMmdl.
 35 36  0  0  0  0  0  0  0  0  1 V2000
  148.9285  140.8689  157.6125 C   0  0  0  0  0  0  0  0  0  0  0  0
  150.2477  141.0606  156.8492 C   0  0  1  0  0  0  0  0  0  0  0  0
  150.0292  141.7983  155.5144 C   0  0  0  0  0  0  0  0  0  0  0  0
  148.8823  141.2863  154.7856 N   0  0  0  0  0  0  0  0  0  0  0  0
  147.7951  141.9111  154.3313 C   0  0  0  0  0  0  0  0  0  0  0  0
  146.9366  141.1112  153.7143 N   0  0  0  0  0  0  0  0  0  0  0  0
  147.6043  139.9250  153.8328 C   0  0  0  0  0  0  0  0  0  0  0  0
  148.7766  139.9748  154.4655 N   0  0  0  0  0  0  0  0  0  0  0  0
  151.1972  141.7986  157.6793 N   0  0  0  0  0  0  0  0  0  0  0  0
  152.4033  141.3570  158.0664 C   0  0  0  0  0  0  0  0  0  0  0  0
  152.8374  140.2393  157.7853 O   0  0  0  0  0  0  0  0  0  0  0  0
  153.2513  142.3312  158.8985 C   0  0  2  0  0  0  0  0  0  0  0  0
  153.2093  141.9761  160.3991 C   0  0  0  0  0  0  0  0  0  0  0  0
  152.4653  143.1399  161.0322 C   0  0  0  0  0  0  0  0  0  0  0  0
  152.1554  143.1669  162.2222 O   0  0  0  0  0  0  0  0  0  0  0  0
  152.2036  144.0886  160.1291 N   0  0  0  0  0  0  0  0  0  0  0  0
  151.4978  145.3368  160.3847 C   0  0  0  0  0  0  0  0  0  0  0  0
  152.7345  143.7841  158.8117 C   0  0  0  0  0  0  0  0  0  0  0  0
  148.2110  140.3035  157.0175 H   0  0  0  0  0  0  0  0  0  0  0  0
  148.4720  141.8269  157.8634 H   0  0  0  0  0  0  0  0  0  0  0  0
  149.0865  140.3209  158.5420 H   0  0  0  0  0  0  0  0  0  0  0  0
  150.6529  140.0724  156.6225 H   0  0  0  0  0  0  0  0  0  0  0  0
  149.8607  142.8604  155.6968 H   0  0  0  0  0  0  0  0  0  0  0  0
  150.9162  141.7279  154.8823 H   0  0  0  0  0  0  0  0  0  0  0  0
  147.6264  142.9705  154.4586 H   0  0  0  0  0  0  0  0  0  0  0  0
  147.2150  138.9971  153.4405 H   0  0  0  0  0  0  0  0  0  0  0  0
  150.9262  142.7313  157.9557 H   0  0  0  0  0  0  0  0  0  0  0  0
  154.2833  142.2947  158.5445 H   0  0  0  0  0  0  0  0  0  0  0  0
  152.6992  141.0356  160.6144 H   0  0  0  0  0  0  0  0  0  0  0  0
  154.2144  141.9165  160.8176 H   0  0  0  0  0  0  0  0  0  0  0  0
  150.4692  145.1374  160.6881 H   0  0  0  0  0  0  0  0  0  0  0  0
  151.4724  145.9634  159.4926 H   0  0  0  0  0  0  0  0  0  0  0  0
  151.9890  145.9001  161.1792 H   0  0  0  0  0  0  0  0  0  0  0  0
  153.5493  144.4721  158.5826 H   0  0  0  0  0  0  0  0  0  0  0  0
  151.9650  143.9204  158.0497 H   0  0  0  0  0  0  0  0  0  0  0  0
  1  2  1  0  0  0  0
  1 19  1  0  0  0  0
  1 20  1  0  0  0  0
  1 21  1  0  0  0  0
  2  3  1  0  0  0  0
  2  9  1  0  0  0  0
  2 22  1  0  0  0  0
  3  4  1  0  0  0  0
  3 23  1  0  0  0  0
  3 24  1  0  0  0  0
  4  8  1  0  0  0  0
  4  5  1  0  0  0  0
  5  6  2  0  0  0  0
  5 25  1  0  0  0  0
  6  7  1  0  0  0  0
  7  8  2  0  0  0  0
  7 26  1  0  0  0  0
  9 10  1  0  0  0  0
  9 27  1  0  0  0  0
 10 11  2  0  0  0  0
 10 12  1  0  0  0  0
 12 18  1  0  0  0  0
 12 13  1  0  0  0  0
 12 28  1  0  0  0  0
 13 14  1  0  0  0  0
 13 29  1  0  0  0  0
 13 30  1  0  0  0  0
 14 15  2  0  0  0  0
 14 16  1  0  0  0  0
 16 17  1  0  0  0  0
 16 18  1  0  0  0  0
 17 31  1  0  0  0  0
 17 32  1  0  0  0  0
 17 33  1  0  0  0  0
 18 34  1  0  0  0  0
 18 35  1  0  0  0  0
M  END
> <s_m_source_file>
AV-unprocessed.smi

> <i_m_source_file_index>
3061

> <i_lp_mmshare_version>
43012

> <i_f3d_flags>
0

> <s_epik_input>
bjFbY0hdbltjSF1uMVtDSDJdW0NAQEhdKFtDSDNdKVtOSF1DKD1PKVtDQEBIXTJbQ0gyXUMoPU8pTihbQ0gzXSlbQ0gyXTI=

> <s_epik_cmdline>
J2VwaWtfcHl0aG9uJywgJy1waCcsICc3LjAnLCAnLXRuJywgJzgnLCAnLW1hJywgJzIwMCcsICctbWV0YWxfYmluZGluZycsICctaW1hZScsICc8aW5maWxlLm1hZT4nLCAnLW9tYWUnLCAnPG91dGZpbGUubWFlPic=

> <r_lp_tautomer_probability>
1

> <r_epik_Ionization_Penalty>
4.97611e-05

> <r_epik_Ionization_Penalty_Charging>
0

> <r_epik_Ionization_Penalty_Neutral>
4.97611e-05

> <r_epik_State_Penalty>
-0

> <r_epik_Charging_Adjusted_Penalty>
0

> <i_epik_Tot_Q>
0

> <i_epik_Tot_abs_Q>
0

> <r_epik_Metal_State_Penalty>
-0

> <b_epik_Metal_Only>
0

> <s_lp_Force_Field>
OPLS_2005

> <r_lp_Energy>
12.6192

> <b_lp_Chiralities_Consistent>
1

> <s_lp_Variant>
AV-unprocessed.smi:3061-2

> <Gold.Version>
5.8.1

> <Gold.Id.Protein>
6NUR|6NUR_protein|mol2

> <Gold.PLP.Fitness>
42.4313

> <Gold.PLP.PLP>
-37.6269

> <Gold.PLP.part.hbond>
-1.0000

> <Gold.PLP.part.metal>
0.0000

> <Gold.PLP.part.buried>
-5.9880

> <Gold.PLP.part.nonpolar>
-30.3758

> <Gold.PLP.part.repulsive>
1.4051

> <Gold.PLP.ligand.clash>
0.0000

> <Gold.PLP.ligand.torsion>
0.5870

> <Gold.PLP.Chemscore.Hbond>
0.9833

> <Gold.PLP.Chemscore.CHOScore>
1.0000

> <Gold.PLP.Chemscore.Metal>
0.0000

> <Gold.Chemscore.Hbonds>
donor molecule, donor type, donor heavy atom, donor atom, acceptor molecule, acceptor atom, score
      P1  H  7997  8010       L1    11  0.94
      L1  C     5    25       P1  8028  1.00

> <Gold.PLP.Chemscore.Internal.Correction>
0.0283

> <Gold.Rescore>
     Score         DG    S(hbond)    S(metal)    S(lipo)     H(rot)  DE(clash)    DE(int)     intcor
      8.86      -9.39       0.88        0.00      61.23       2.42       0.26       0.27       ----

> <Gold.Chemscore.Fitness>
8.8566

> <Gold.Chemscore.DG>
-9.3881

> <Gold.Chemscore.ZeroCoef>
-5.4800

> <Gold.Chemscore.Hbond>
0.8800

> <Gold.Chemscore.Metal>
0.0000

> <Gold.Chemscore.Lipo>
61.2261

> <Gold.Chemscore.Internal_Hbond>
0.0000

> <Gold.Chemscore.DEClash>
0.2574

> <Gold.Chemscore.DEInternal>
0.2741

> <Gold.Chemscore.Rot>
2.4197

> <Gold.Chemscore.Internal.Correction>
   9.000000E+99

> <Gold.Chemscore.Hbonds>
donor molecule, donor type, donor heavy atom, donor atom, acceptor molecule, acceptor atom, score
      P1  H  7997  8010       L1    11  0.89

> <Gold.Chemscore.Hbond.Weighted>
-2.9391

> <Gold.Chemscore.Metal.Weighted>
-0.0000

> <Gold.Chemscore.Lipo.Weighted>
-7.1635

> <Gold.Chemscore.Internal_Hbond.Weighted>
0.0000

> <Gold.Chemscore.DEClash.Weighted>
0.2574

> <Gold.Chemscore.DEInternal.Weighted>
0.2741

> <Gold.Chemscore.Rot.Weighted>
6.1945

> <Gold.Chemscore.Internal.Correction.Weighted>
   9.000000E+99

> <Gold.Protein.RotatedTorsions>
[ 6907 6896 6895 6894 ] final -125.87 input  -60.11 | X-H torsion
[ 7974 7965 7964 7962 ] final   33.20 input  175.53 | X-H torsion
[ 8008 7997 7996 7995 ] final   39.82 input   59.86 | X-H torsion
[ 10167 10162 10161 10158 ] final   57.36 input  -65.29 | X-H torsion
[ 10718 10713 10712 10709 ] final  -95.60 input   66.30 | X-H torsion
[ 10763 10752 10751 10750 ] final    7.76 input  -60.55 | X-H torsion
[ 11005 11000 10999 10996 ] final  139.24 input  -57.11 | X-H torsion

> <Gold.Protein.ActiveResidues>
 VAL166  LYS551  ARG553  GLY616  TRP617  ASP618  TYR619  PRO620  LYS621  CYS622 
 ASP623  PHE694  ASN695  SER759  ASP760  ASP761  ALA762  ILE779  LEU786  VAL792 
 PHE793  MET794  SER795  GLU796  ALA797  LYS798  CYS799  TRP800  GLU811  SER814 

> <Gold.Protein.RotatedAtoms>
  150.8912  133.7241  159.2904 H   0  0  0  0  0  0  0  0  0  0  0  0  # atno 6907 bound_to 6896
  151.4791  135.1049  159.9782 H   0  0  0  0  0  0  0  0  0  0  0  0  # atno 6908 bound_to 6896
  152.4821  133.8233  159.7120 H   0  0  0  0  0  0  0  0  0  0  0  0  # atno 6909 bound_to 6896
  146.1436  139.6428  142.9146 H   0  0  0  0  0  0  0  0  0  0  0  0  # atno 7974 bound_to 7965
  155.2429  140.3347  155.4290 H   0  0  0  0  0  0  0  0  0  0  0  0  # atno 8008 bound_to 7997
  156.2248  140.1824  156.7434 H   0  0  0  0  0  0  0  0  0  0  0  0  # atno 8009 bound_to 7997
  154.5882  140.0642  156.9186 H   0  0  0  0  0  0  0  0  0  0  0  0  # atno 8010 bound_to 7997
  140.1989  144.4009  150.6538 H   0  0  0  0  0  0  0  0  0  0  0  0  # atno 10167 bound_to 10162
  156.0046  130.5116  150.6100 H   0  0  0  0  0  0  0  0  0  0  0  0  # atno 10718 bound_to 10713
  153.2326  135.6894  153.7872 H   0  0  0  0  0  0  0  0  0  0  0  0  # atno 10763 bound_to 10752
  153.7031  135.3294  155.3230 H   0  0  0  0  0  0  0  0  0  0  0  0  # atno 10764 bound_to 10752
  154.8321  135.4572  154.1218 H   0  0  0  0  0  0  0  0  0  0  0  0  # atno 10765 bound_to 10752
  140.0241  134.9383  157.0532 H   0  0  0  0  0  0  0  0  0  0  0  0  # atno 11005 bound_to 11000
  145.4989  141.0438  143.2552 LP  0  0  0  0  0  0  0  0  0  0  0  0  # atno 17320 bound_to 7965
  144.7821  139.6504  143.7150 LP  0  0  0  0  0  0  0  0  0  0  0  0  # atno 17321 bound_to 7965
  140.6404  143.2202  151.6302 LP  0  0  0  0  0  0  0  0  0  0  0  0  # atno 17342 bound_to 10162
  139.5225  144.3160  152.0952 LP  0  0  0  0  0  0  0  0  0  0  0  0  # atno 17343 bound_to 10162
  157.3934  131.0799  151.1373 LP  0  0  0  0  0  0  0  0  0  0  0  0  # atno 17370 bound_to 10713
  157.2058  130.6415  149.5755 LP  0  0  0  0  0  0  0  0  0  0  0  0  # atno 17371 bound_to 10713
  140.4337  134.1753  155.7169 LP  0  0  0  0  0  0  0  0  0  0  0  0  # atno 17394 bound_to 11000
  141.1792  133.8451  157.1318 LP  0  0  0  0  0  0  0  0  0  0  0  0  # atno 17395 bound_to 11000

$$$$
