AV-unprocessed.smi:1824|AV-procd|sdf|7394|dock1
  -GOLD-   22720 9 63D 1   1.00000     0.00000
 Structure written by MMmdl.
 44 46  0  0  0  0  0  0  0  0  1 V2000
  146.9915  143.6228  159.9956 C   0  0  0  0  0  0  0  0  0  0  0  0
  146.5646  142.6292  158.9099 C   0  0  1  0  0  0  0  0  0  0  0  0
  147.7630  142.1058  158.0957 C   0  0  0  0  0  0  0  0  0  0  0  0
  147.3634  141.1041  157.1134 N   0  0  0  0  0  0  0  0  0  0  0  0
  148.5175  140.6320  156.3480 C   0  0  0  0  0  0  0  0  0  0  0  0
  149.5847  141.7030  156.0374 C   0  0  2  0  0  0  0  0  0  0  0  0
  149.2319  142.3737  154.8423 O   0  0  0  0  0  0  0  0  0  0  0  0
  150.9846  141.0837  155.8559 C   0  0  0  0  0  0  0  0  0  0  0  0
  151.6685  140.8741  157.1199 N   0  0  0  0  0  0  0  0  0  0  0  0
  152.2585  139.7414  157.5480 C   0  0  0  0  0  0  0  0  0  0  0  0
  152.8315  139.7692  158.7482 N   0  0  0  0  0  0  0  0  0  0  0  0
  152.5839  141.0717  159.1461 C   0  0  0  0  0  0  0  0  0  0  0  0
  152.9324  141.7495  160.3362 C   0  0  0  0  0  0  0  0  0  0  0  0
  152.5672  143.0990  160.5238 C   0  0  0  0  0  0  0  0  0  0  0  0
  152.9089  143.7330  161.6705 F   0  0  0  0  0  0  0  0  0  0  0  0
  151.8490  143.7901  159.5253 C   0  0  0  0  0  0  0  0  0  0  0  0
  151.5032  145.0857  159.7128 F   0  0  0  0  0  0  0  0  0  0  0  0
  151.4898  143.1354  158.3314 C   0  0  0  0  0  0  0  0  0  0  0  0
  151.8568  141.7895  158.1490 C   0  0  0  0  0  0  0  0  0  0  0  0
  146.6607  140.0233  157.7998 C   0  0  0  0  0  0  0  0  0  0  0  0
  145.4621  140.5410  158.6182 C   0  0  1  0  0  0  0  0  0  0  0  0
  144.7750  139.4226  159.4082 C   0  0  0  0  0  0  0  0  0  0  0  0
  145.9164  141.5279  159.5398 O   0  0  0  0  0  0  0  0  0  0  0  0
  147.4869  144.4908  159.5598 H   0  0  0  0  0  0  0  0  0  0  0  0
  147.6821  143.1623  160.7024 H   0  0  0  0  0  0  0  0  0  0  0  0
  146.1284  143.9804  160.5577 H   0  0  0  0  0  0  0  0  0  0  0  0
  145.8559  143.1224  158.2425 H   0  0  0  0  0  0  0  0  0  0  0  0
  148.2472  142.9431  157.5915 H   0  0  0  0  0  0  0  0  0  0  0  0
  148.5044  141.6805  158.7742 H   0  0  0  0  0  0  0  0  0  0  0  0
  149.0020  139.8534  156.9387 H   0  0  0  0  0  0  0  0  0  0  0  0
  148.1937  140.1363  155.4311 H   0  0  0  0  0  0  0  0  0  0  0  0
  149.6262  142.4306  156.8493 H   0  0  0  0  0  0  0  0  0  0  0  0
  148.8720  143.2175  155.0690 H   0  0  0  0  0  0  0  0  0  0  0  0
  150.9080  140.1198  155.3512 H   0  0  0  0  0  0  0  0  0  0  0  0
  151.6051  141.7195  155.2222 H   0  0  0  0  0  0  0  0  0  0  0  0
  152.2703  138.8464  156.9430 H   0  0  0  0  0  0  0  0  0  0  0  0
  153.4823  141.2305  161.1069 H   0  0  0  0  0  0  0  0  0  0  0  0
  150.9405  143.6617  157.5651 H   0  0  0  0  0  0  0  0  0  0  0  0
  146.2971  139.2943  157.0760 H   0  0  0  0  0  0  0  0  0  0  0  0
  147.3513  139.4946  158.4587 H   0  0  0  0  0  0  0  0  0  0  0  0
  144.7312  140.9954  157.9471 H   0  0  0  0  0  0  0  0  0  0  0  0
  144.3986  138.6460  158.7420 H   0  0  0  0  0  0  0  0  0  0  0  0
  143.9297  139.8103  159.9771 H   0  0  0  0  0  0  0  0  0  0  0  0
  145.4643  138.9557  160.1122 H   0  0  0  0  0  0  0  0  0  0  0  0
  1  2  1  0  0  0  0
  1 24  1  0  0  0  0
  1 25  1  0  0  0  0
  1 26  1  0  0  0  0
  2 23  1  0  0  0  0
  2  3  1  0  0  0  0
  2 27  1  0  0  0  0
  3  4  1  0  0  0  0
  3 28  1  0  0  0  0
  3 29  1  0  0  0  0
  4  5  1  0  0  0  0
  4 20  1  0  0  0  0
  5  6  1  0  0  0  0
  5 30  1  0  0  0  0
  5 31  1  0  0  0  0
  6  7  1  0  0  0  0
  6  8  1  0  0  0  0
  6 32  1  0  0  0  0
  7 33  1  0  0  0  0
  8  9  1  0  0  0  0
  8 34  1  0  0  0  0
  8 35  1  0  0  0  0
  9 19  1  0  0  0  0
  9 10  1  0  0  0  0
 10 11  2  0  0  0  0
 10 36  1  0  0  0  0
 11 12  1  0  0  0  0
 12 19  2  0  0  0  0
 12 13  1  0  0  0  0
 13 14  2  0  0  0  0
 13 37  1  0  0  0  0
 14 15  1  0  0  0  0
 14 16  1  0  0  0  0
 16 17  1  0  0  0  0
 16 18  2  0  0  0  0
 18 19  1  0  0  0  0
 18 38  1  0  0  0  0
 20 21  1  0  0  0  0
 20 39  1  0  0  0  0
 20 40  1  0  0  0  0
 21 22  1  0  0  0  0
 21 23  1  0  0  0  0
 21 41  1  0  0  0  0
 22 42  1  0  0  0  0
 22 43  1  0  0  0  0
 22 44  1  0  0  0  0
M  END
> <s_m_source_file>
AV-unprocessed.smi

> <i_m_source_file_index>
1824

> <i_lp_mmshare_version>
43012

> <i_f3d_flags>
0

> <s_epik_input>
W0NIM11bQ0BASF0xW0NIMl1OKFtDSDJdW0NASF0oTzEpW0NIM10pW0NIMl1bQ0BIXShbT0hdKVtDSDJdbihbY0hdbjIpYyhjMjMpW2NIXWMoRiljKEYpW2NIXTM=

> <s_epik_cmdline>
J2VwaWtfcHl0aG9uJywgJy1waCcsICc3LjAnLCAnLXRuJywgJzgnLCAnLW1hJywgJzIwMCcsICctbWV0YWxfYmluZGluZycsICctaW1hZScsICc8aW5maWxlLm1hZT4nLCAnLW9tYWUnLCAnPG91dGZpbGUubWFlPic=

> <r_epik_Ionization_Penalty>
0.273778

> <r_epik_Ionization_Penalty_Charging>
0

> <r_epik_Ionization_Penalty_Neutral>
0.273778

> <r_epik_State_Penalty>
0.246794

> <r_epik_Charging_Adjusted_Penalty>
0.246794

> <i_epik_Tot_Q>
0

> <i_epik_Tot_abs_Q>
0

> <r_epik_Metal_State_Penalty>
0.238234

> <b_epik_Metal_Only>
0

> <s_lp_Force_Field>
OPLS_2005

> <r_lp_Energy>
27.3836

> <b_lp_Chiralities_Consistent>
1

> <s_lp_Variant>
AV-unprocessed.smi:1824-2

> <Gold.Version>
5.8.1

> <Gold.Id.Protein>
6NUR|6NUR_protein|mol2

> <Gold.PLP.Fitness>
45.9523

> <Gold.PLP.PLP>
-41.6821

> <Gold.PLP.part.hbond>
-3.0000

> <Gold.PLP.part.metal>
0.0000

> <Gold.PLP.part.buried>
-5.8291

> <Gold.PLP.part.nonpolar>
-32.1517

> <Gold.PLP.part.repulsive>
0.0499

> <Gold.PLP.ligand.clash>
0.0000

> <Gold.PLP.ligand.torsion>
0.8955

> <Gold.PLP.Chemscore.Hbond>
2.0000

> <Gold.PLP.Chemscore.CHOScore>
0.0000

> <Gold.PLP.Chemscore.Metal>
0.0000

> <Gold.Chemscore.Hbonds>
donor molecule, donor type, donor heavy atom, donor atom, acceptor molecule, acceptor atom, score
      L1  H     7    33       P1  8028  1.00
      P1  H  6934  6946       L1    23  1.00

> <Gold.PLP.Chemscore.Internal.Correction>
0.0612

> <Gold.Rescore>
     Score         DG    S(hbond)    S(metal)    S(lipo)     H(rot)  DE(clash)    DE(int)     intcor
     13.18     -14.15       1.50        0.00      80.88       2.26       0.05       0.92       ----

> <Gold.Chemscore.Fitness>
13.1773

> <Gold.Chemscore.DG>
-14.1533

> <Gold.Chemscore.ZeroCoef>
-5.4800

> <Gold.Chemscore.Hbond>
1.4973

> <Gold.Chemscore.Metal>
0.0000

> <Gold.Chemscore.Lipo>
80.8785

> <Gold.Chemscore.Internal_Hbond>
0.0000

> <Gold.Chemscore.DEClash>
0.0546

> <Gold.Chemscore.DEInternal>
0.9214

> <Gold.Chemscore.Rot>
2.2619

> <Gold.Chemscore.Internal.Correction>
   9.000000E+99

> <Gold.Chemscore.Hbonds>
donor molecule, donor type, donor heavy atom, donor atom, acceptor molecule, acceptor atom, score
      L1  H     7    33       P1  8028  0.98
      P1  H  6934  6946       L1    23  0.56

> <Gold.Chemscore.Hbond.Weighted>
-5.0009

> <Gold.Chemscore.Metal.Weighted>
-0.0000

> <Gold.Chemscore.Lipo.Weighted>
-9.4628

> <Gold.Chemscore.Internal_Hbond.Weighted>
0.0000

> <Gold.Chemscore.DEClash.Weighted>
0.0546

> <Gold.Chemscore.DEInternal.Weighted>
0.9214

> <Gold.Chemscore.Rot.Weighted>
5.7904

> <Gold.Chemscore.Internal.Correction.Weighted>
   9.000000E+99

> <Gold.Protein.RotatedTorsions>
[ 6907 6896 6895 6894 ] final  -15.65 input  -60.11 | X-H torsion
[ 7974 7965 7964 7962 ] final  -34.92 input  175.53 | X-H torsion
[ 8008 7997 7996 7995 ] final   24.18 input   59.86 | X-H torsion
[ 10167 10162 10161 10158 ] final  -94.48 input  -65.29 | X-H torsion
[ 10718 10713 10712 10709 ] final  165.11 input   66.30 | X-H torsion
[ 10763 10752 10751 10750 ] final  -99.35 input  -60.55 | X-H torsion
[ 11005 11000 10999 10996 ] final  -36.69 input  -57.11 | X-H torsion

> <Gold.Protein.ActiveResidues>
 VAL166  LYS551  ARG553  GLY616  TRP617  ASP618  TYR619  PRO620  LYS621  CYS622 
 ASP623  PHE694  ASN695  SER759  ASP760  ASP761  ALA762  ILE779  LEU786  VAL792 
 PHE793  MET794  SER795  GLU796  ALA797  LYS798  CYS799  TRP800  GLU811  SER814 

> <Gold.Protein.RotatedAtoms>
  151.3207  135.0818  159.9304 H   0  0  0  0  0  0  0  0  0  0  0  0  # atno 6907 bound_to 6896
  152.5257  133.9641  159.7741 H   0  0  0  0  0  0  0  0  0  0  0  0  # atno 6908 bound_to 6896
  150.9962  133.6048  159.2731 H   0  0  0  0  0  0  0  0  0  0  0  0  # atno 6909 bound_to 6896
  146.0789  140.6097  142.8917 H   0  0  0  0  0  0  0  0  0  0  0  0  # atno 7974 bound_to 7965
  154.9923  140.3115  155.4901 H   0  0  0  0  0  0  0  0  0  0  0  0  # atno 8008 bound_to 7997
  156.2938  140.2247  156.4969 H   0  0  0  0  0  0  0  0  0  0  0  0  # atno 8009 bound_to 7997
  154.7692  140.0453  157.1026 H   0  0  0  0  0  0  0  0  0  0  0  0  # atno 8010 bound_to 7997
  140.3139  143.3088  152.0118 H   0  0  0  0  0  0  0  0  0  0  0  0  # atno 10167 bound_to 10162
  157.0849  131.0402  151.2560 H   0  0  0  0  0  0  0  0  0  0  0  0  # atno 10718 bound_to 10713
  154.7490  135.4975  153.9256 H   0  0  0  0  0  0  0  0  0  0  0  0  # atno 10763 bound_to 10752
  153.1123  135.6712  153.9486 H   0  0  0  0  0  0  0  0  0  0  0  0  # atno 10764 bound_to 10752
  153.9242  135.3085  155.3426 H   0  0  0  0  0  0  0  0  0  0  0  0  # atno 10765 bound_to 10752
  140.9894  133.7013  156.1823 H   0  0  0  0  0  0  0  0  0  0  0  0  # atno 11005 bound_to 11000
  144.7280  140.4585  143.6959 LP  0  0  0  0  0  0  0  0  0  0  0  0  # atno 17320 bound_to 7965
  145.6254  139.1529  143.2999 LP  0  0  0  0  0  0  0  0  0  0  0  0  # atno 17321 bound_to 7965
  139.4888  144.6363  151.6969 LP  0  0  0  0  0  0  0  0  0  0  0  0  # atno 17342 bound_to 10162
  140.5543  144.0373  150.6141 LP  0  0  0  0  0  0  0  0  0  0  0  0  # atno 17343 bound_to 10162
  157.4770  130.7742  149.7377 LP  0  0  0  0  0  0  0  0  0  0  0  0  # atno 17370 bound_to 10713
  155.9913  130.3938  150.2988 LP  0  0  0  0  0  0  0  0  0  0  0  0  # atno 17371 bound_to 10713
  140.7063  134.4509  157.5584 LP  0  0  0  0  0  0  0  0  0  0  0  0  # atno 17394 bound_to 11000
  139.8985  134.8611  156.1998 LP  0  0  0  0  0  0  0  0  0  0  0  0  # atno 17395 bound_to 11000

$$$$
