AV-unprocessed.smi:3194|AV-procd|sdf|12212|dock4
  -GOLD-   2272018 53D 1   1.00000     0.00000
 Structure written by MMmdl.
 27 27  0  0  0  0  0  0  0  0  2 V2000
  149.5905  138.0819  155.5798 C   0  0  0  0  0  0  0  0  0  0  0  0
  150.5279  138.7569  154.5680 C   0  0  2  0  0  0  0  0  0  0  0  0
  151.7799  137.8965  154.3070 C   0  0  0  0  0  0  0  0  0  0  0  0
  151.4348  136.5492  154.0497 O   0  0  0  0  0  0  0  0  0  0  0  0
  150.9302  140.0611  155.0987 N   0  5  0  0  0  0  0  0  0  0  0  0
  151.7339  140.2366  156.1878 C   0  0  0  0  0  0  0  0  0  0  0  0
  152.7920  139.6731  156.4907 O   0  0  0  0  0  0  0  0  0  0  0  0
  151.1690  141.3047  157.1479 C   0  0  0  0  0  0  0  0  0  0  0  0
  151.0232  142.4558  156.4857 F   0  0  0  0  0  0  0  0  0  0  0  0
  149.9553  140.9312  157.5664 F   0  0  0  0  0  0  0  0  0  0  0  0
  152.1073  141.5155  158.3363 C   0  0  0  0  0  0  0  0  0  0  0  0
  152.5139  140.4291  159.1451 C   0  0  0  0  0  0  0  0  0  0  0  0
  153.3947  140.6749  160.2153 C   0  0  0  0  0  0  0  0  0  0  0  0
  153.8363  141.9920  160.4424 C   0  0  0  0  0  0  0  0  0  0  0  0
  153.3762  143.0086  159.5828 C   0  0  0  0  0  0  0  0  0  0  0  0
  152.5319  142.7841  158.5540 N   0  0  0  0  0  0  0  0  0  0  0  0
  149.9788  138.8404  153.6284 H   0  0  0  0  0  0  0  0  0  0  0  0
  149.2591  137.1091  155.2159 H   0  0  0  0  0  0  0  0  0  0  0  0
  148.6995  138.6859  155.7550 H   0  0  0  0  0  0  0  0  0  0  0  0
  150.0834  137.9265  156.5403 H   0  0  0  0  0  0  0  0  0  0  0  0
  152.3533  138.2865  153.4650 H   0  0  0  0  0  0  0  0  0  0  0  0
  152.4378  137.9150  155.1761 H   0  0  0  0  0  0  0  0  0  0  0  0
  151.0786  136.4931  153.1771 H   0  0  0  0  0  0  0  0  0  0  0  0
  152.1703  139.4258  158.9419 H   0  0  0  0  0  0  0  0  0  0  0  0
  153.7279  139.8662  160.8489 H   0  0  0  0  0  0  0  0  0  0  0  0
  154.5132  142.2176  161.2527 H   0  0  0  0  0  0  0  0  0  0  0  0
  153.6948  144.0305  159.7258 H   0  0  0  0  0  0  0  0  0  0  0  0
  1  2  1  0  0  0  0
  1 18  1  0  0  0  0
  1 19  1  0  0  0  0
  1 20  1  0  0  0  0
  2 17  1  0  0  0  0
  2  3  1  0  0  0  0
  2  5  1  0  0  0  0
  3  4  1  0  0  0  0
  3 21  1  0  0  0  0
  3 22  1  0  0  0  0
  4 23  1  0  0  0  0
  5  6  1  0  0  0  0
  6  7  2  0  0  0  0
  6  8  1  0  0  0  0
  8  9  1  0  0  0  0
  8 10  1  0  0  0  0
  8 11  1  0  0  0  0
 11 16  1  0  0  0  0
 11 12  2  0  0  0  0
 12 13  1  0  0  0  0
 12 24  1  0  0  0  0
 13 14  2  0  0  0  0
 13 25  1  0  0  0  0
 14 15  1  0  0  0  0
 14 26  1  0  0  0  0
 15 16  2  0  0  0  0
 15 27  1  0  0  0  0
M  CHG  1   5  -1
M  END
> <s_m_source_file>
AV-unprocessed.smi

> <i_m_source_file_index>
3194

> <i_lp_mmshare_version>
43012

> <i_f3d_flags>
0

> <s_epik_input>
W09IXVtDSDJdW0NASF0oW0NIM10pW05IXUMoPU8pQyhGKShGKWMxW2NIXVtjSF1bY0hdW2NIXW4x

> <s_epik_cmdline>
J2VwaWtfcHl0aG9uJywgJy1waCcsICc3LjAnLCAnLXRuJywgJzgnLCAnLW1hJywgJzIwMCcsICctbWV0YWxfYmluZGluZycsICctaW1hZScsICc8aW5maWxlLm1hZT4nLCAnLW9tYWUnLCAnPG91dGZpbGUubWFlPic=

> <r_lp_tautomer_probability>
1

> <r_epik_Ionization_Penalty>
5.78943

> <r_epik_Ionization_Penalty_Charging>
5.78942

> <r_epik_Ionization_Penalty_Neutral>
4.0054e-06

> <r_epik_State_Penalty>
5.78939

> <r_epik_Charging_Adjusted_Penalty>
11.5788

> <i_epik_Tot_Q>
-1

> <i_epik_Tot_abs_Q>
1

> <r_epik_Metal_State_Penalty>
1.76064

> <b_epik_Metal_Only>
1

> <s_lp_Force_Field>
OPLS_2005

> <r_lp_Energy>
16.8834

> <b_lp_Chiralities_Consistent>
1

> <s_lp_Variant>
AV-unprocessed.smi:3194-4

> <Gold.Version>
5.8.1

> <Gold.Id.Protein>
6NUR|6NUR_protein|mol2

> <Gold.PLP.Fitness>
44.4707

> <Gold.PLP.PLP>
-34.4202

> <Gold.PLP.part.hbond>
-4.3246

> <Gold.PLP.part.metal>
0.0000

> <Gold.PLP.part.buried>
-4.3686

> <Gold.PLP.part.nonpolar>
-25.2276

> <Gold.PLP.part.repulsive>
0.0449

> <Gold.PLP.ligand.clash>
0.0000

> <Gold.PLP.ligand.torsion>
0.6049

> <Gold.PLP.Chemscore.Hbond>
3.7180

> <Gold.PLP.Chemscore.CHOScore>
0.0000

> <Gold.PLP.Chemscore.Metal>
0.0000

> <Gold.Chemscore.Hbonds>
donor molecule, donor type, donor heavy atom, donor atom, acceptor molecule, acceptor atom, score
      L1  H     4    23       P1  7949  1.00
      P1  H  7989  7998       L1     5  1.00
      P1  H  7997  8010       L1     7  1.00
      P1  H 10752 10764       L1     4  0.70

> <Gold.PLP.Chemscore.Internal.Correction>
0.1062

> <Gold.Rescore>
     Score         DG    S(hbond)    S(metal)    S(lipo)     H(rot)  DE(clash)    DE(int)     intcor
     14.41     -17.30       2.78        0.00      74.80       2.43       0.15       2.73       ----

> <Gold.Chemscore.Fitness>
14.4123

> <Gold.Chemscore.DG>
-17.2994

> <Gold.Chemscore.ZeroCoef>
-5.4800

> <Gold.Chemscore.Hbond>
2.7792

> <Gold.Chemscore.Metal>
0.0000

> <Gold.Chemscore.Lipo>
74.8015

> <Gold.Chemscore.Internal_Hbond>
0.0000

> <Gold.Chemscore.DEClash>
0.1529

> <Gold.Chemscore.DEInternal>
2.7342

> <Gold.Chemscore.Rot>
2.4277

> <Gold.Chemscore.Internal.Correction>
   9.000000E+99

> <Gold.Chemscore.Hbonds>
donor molecule, donor type, donor heavy atom, donor atom, acceptor molecule, acceptor atom, score
      L1  H     4    23       P1  7949  0.33
      P1  H  7989  7998       L1     5  0.22
      P1  H  7997  8010       L1     7  0.98
      P1  H 10752 10764       L1     4  0.07

> <Gold.Chemscore.Hbond.Weighted>
-9.2825

> <Gold.Chemscore.Metal.Weighted>
-0.0000

> <Gold.Chemscore.Lipo.Weighted>
-8.7518

> <Gold.Chemscore.Internal_Hbond.Weighted>
0.0000

> <Gold.Chemscore.DEClash.Weighted>
0.1529

> <Gold.Chemscore.DEInternal.Weighted>
2.7342

> <Gold.Chemscore.Rot.Weighted>
6.2149

> <Gold.Chemscore.Internal.Correction.Weighted>
   9.000000E+99

> <Gold.Protein.RotatedTorsions>
[ 6907 6896 6895 6894 ] final  139.53 input  -60.11 | X-H torsion
[ 7974 7965 7964 7962 ] final  -80.04 input  175.53 | X-H torsion
[ 8008 7997 7996 7995 ] final   86.93 input   59.86 | X-H torsion
[ 10167 10162 10161 10158 ] final -158.77 input  -65.29 | X-H torsion
[ 10718 10713 10712 10709 ] final -112.39 input   66.30 | X-H torsion
[ 10763 10752 10751 10750 ] final -113.41 input  -60.55 | X-H torsion
[ 11005 11000 10999 10996 ] final -175.34 input  -57.11 | X-H torsion

> <Gold.Protein.ActiveResidues>
 VAL166  LYS551  ARG553  GLY616  TRP617  ASP618  TYR619  PRO620  LYS621  CYS622 
 ASP623  PHE694  ASN695  SER759  ASP760  ASP761  ALA762  ILE779  LEU786  VAL792 
 PHE793  MET794  SER795  GLU796  ALA797  LYS798  CYS799  TRP800  GLU811  SER814 

> <Gold.Protein.RotatedAtoms>
  152.2538  133.5238  159.5340 H   0  0  0  0  0  0  0  0  0  0  0  0  # atno 6907 bound_to 6896
  150.7102  134.0924  159.3945 H   0  0  0  0  0  0  0  0  0  0  0  0  # atno 6908 bound_to 6896
  151.8843  135.0441  160.0542 H   0  0  0  0  0  0  0  0  0  0  0  0  # atno 6909 bound_to 6896
  145.5652  140.9475  143.1425 H   0  0  0  0  0  0  0  0  0  0  0  0  # atno 7974 bound_to 7965
  155.9690  140.3387  155.6558 H   0  0  0  0  0  0  0  0  0  0  0  0  # atno 8008 bound_to 7997
  155.6699  140.0725  157.2542 H   0  0  0  0  0  0  0  0  0  0  0  0  # atno 8009 bound_to 7997
  154.4161  140.1693  156.1856 H   0  0  0  0  0  0  0  0  0  0  0  0  # atno 8010 bound_to 7997
  139.6666  143.9818  152.2258 H   0  0  0  0  0  0  0  0  0  0  0  0  # atno 10167 bound_to 10162
  156.0703  130.5917  150.8501 H   0  0  0  0  0  0  0  0  0  0  0  0  # atno 10718 bound_to 10713
  154.8395  135.4455  154.1345 H   0  0  0  0  0  0  0  0  0  0  0  0  # atno 10763 bound_to 10752
  153.2546  135.6930  153.7649 H   0  0  0  0  0  0  0  0  0  0  0  0  # atno 10764 bound_to 10752
  153.6948  135.3381  155.3186 H   0  0  0  0  0  0  0  0  0  0  0  0  # atno 10765 bound_to 10752
  140.4644  134.6224  157.4856 H   0  0  0  0  0  0  0  0  0  0  0  0  # atno 11005 bound_to 11000
  144.7464  139.7310  143.7290 LP  0  0  0  0  0  0  0  0  0  0  0  0  # atno 17320 bound_to 7965
  146.1823  139.5021  142.9858 LP  0  0  0  0  0  0  0  0  0  0  0  0  # atno 17321 bound_to 7965
  139.9571  144.6582  150.8115 LP  0  0  0  0  0  0  0  0  0  0  0  0  # atno 17342 bound_to 10162
  140.7602  143.3145  151.2765 LP  0  0  0  0  0  0  0  0  0  0  0  0  # atno 17343 bound_to 10162
  157.5769  131.0946  150.9332 LP  0  0  0  0  0  0  0  0  0  0  0  0  # atno 17370 bound_to 10713
  156.9536  130.5429  149.5283 LP  0  0  0  0  0  0  0  0  0  0  0  0  # atno 17371 bound_to 10713
  139.9925  134.6963  155.9666 LP  0  0  0  0  0  0  0  0  0  0  0  0  # atno 17394 bound_to 11000
  141.1606  133.6539  156.4307 LP  0  0  0  0  0  0  0  0  0  0  0  0  # atno 17395 bound_to 11000

$$$$
