AV-unprocessed.smi:2092|AV-procd|sdf|8542|dock5
  -GOLD-   2272011263D 1   1.00000     0.00000
 Structure written by MMmdl.
 44 45  0  0  0  0  0  0  0  0  1 V2000
  147.6767  136.8378  158.5091 C   0  0  0  0  0  0  0  0  0  0  0  0
  147.5821  135.3058  158.4690 C   0  0  2  0  0  0  0  0  0  0  0  0
  147.5456  134.8422  159.8191 O   0  0  0  0  0  0  0  0  0  0  0  0
  146.4499  135.2979  160.6089 C   0  0  0  0  0  0  0  0  0  0  0  0
  146.6688  134.9051  162.0743 C   0  0  0  0  0  0  0  0  0  0  0  0
  147.4896  135.7864  162.6455 F   0  0  0  0  0  0  0  0  0  0  0  0
  145.5101  134.9110  162.7327 F   0  0  0  0  0  0  0  0  0  0  0  0
  147.2215  133.6945  162.1486 F   0  0  0  0  0  0  0  0  0  0  0  0
  148.7705  134.6927  157.7107 C   0  0  0  0  0  0  0  0  0  0  0  0
  149.4796  133.8419  158.2485 O   0  0  0  0  0  0  0  0  0  0  0  0
  148.9461  135.1055  156.4456 N   0  0  0  0  0  0  0  0  0  0  0  0
  149.9125  134.5382  155.5108 C   0  0  0  0  0  0  0  0  0  0  0  0
  149.3554  133.3795  154.6963 C   0  0  0  0  0  0  0  0  0  0  0  0
  149.8851  132.0836  154.8481 C   0  0  0  0  0  0  0  0  0  0  0  0
  149.3170  131.0367  154.0987 C   0  0  0  0  0  0  0  0  0  0  0  0
  148.2894  131.2120  153.2414 N   0  0  0  0  0  0  0  0  0  0  0  0
  147.7798  132.4576  153.0756 C   0  0  0  0  0  0  0  0  0  0  0  0
  146.6936  132.6272  152.1907 N   0  0  0  0  0  0  0  0  0  0  0  0
  146.1799  133.9789  151.9800 C   0  0  0  0  0  0  0  0  0  0  0  0
  145.2384  134.0074  150.7643 C   0  0  0  0  0  0  0  0  0  0  0  0
  144.2037  133.0446  150.9360 O   0  0  0  0  0  0  0  0  0  0  0  0
  144.7211  131.7216  151.0302 C   0  0  0  0  0  0  0  0  0  0  0  0
  145.6481  131.6092  152.2528 C   0  0  0  0  0  0  0  0  0  0  0  0
  148.2973  133.5692  153.7807 C   0  0  0  0  0  0  0  0  0  0  0  0
  147.7101  137.2600  157.5040 H   0  0  0  0  0  0  0  0  0  0  0  0
  148.5675  137.1711  159.0429 H   0  0  0  0  0  0  0  0  0  0  0  0
  146.8113  137.2647  159.0162 H   0  0  0  0  0  0  0  0  0  0  0  0
  146.6483  135.0300  157.9750 H   0  0  0  0  0  0  0  0  0  0  0  0
  146.3497  136.3814  160.5299 H   0  0  0  0  0  0  0  0  0  0  0  0
  145.5185  134.8544  160.2570 H   0  0  0  0  0  0  0  0  0  0  0  0
  148.3213  135.8114  156.0841 H   0  0  0  0  0  0  0  0  0  0  0  0
  150.2250  135.3234  154.8224 H   0  0  0  0  0  0  0  0  0  0  0  0
  150.8076  134.2227  156.0497 H   0  0  0  0  0  0  0  0  0  0  0  0
  150.6989  131.8893  155.5312 H   0  0  0  0  0  0  0  0  0  0  0  0
  149.6930  130.0290  154.1958 H   0  0  0  0  0  0  0  0  0  0  0  0
  145.6475  134.3067  152.8738 H   0  0  0  0  0  0  0  0  0  0  0  0
  147.0028  134.6758  151.8155 H   0  0  0  0  0  0  0  0  0  0  0  0
  144.7906  134.9956  150.6595 H   0  0  0  0  0  0  0  0  0  0  0  0
  145.7876  133.8068  149.8427 H   0  0  0  0  0  0  0  0  0  0  0  0
  143.8902  131.0225  151.1245 H   0  0  0  0  0  0  0  0  0  0  0  0
  145.2528  131.4611  150.1136 H   0  0  0  0  0  0  0  0  0  0  0  0
  146.0622  130.6030  152.2923 H   0  0  0  0  0  0  0  0  0  0  0  0
  145.0744  131.7515  153.1693 H   0  0  0  0  0  0  0  0  0  0  0  0
  147.8705  134.5519  153.6488 H   0  0  0  0  0  0  0  0  0  0  0  0
  1  2  1  0  0  0  0
  1 25  1  0  0  0  0
  1 26  1  0  0  0  0
  1 27  1  0  0  0  0
  2  3  1  0  0  0  0
  2  9  1  0  0  0  0
  2 28  1  0  0  0  0
  3  4  1  0  0  0  0
  4  5  1  0  0  0  0
  4 29  1  0  0  0  0
  4 30  1  0  0  0  0
  5  6  1  0  0  0  0
  5  7  1  0  0  0  0
  5  8  1  0  0  0  0
  9 10  2  0  0  0  0
  9 11  1  0  0  0  0
 11 12  1  0  0  0  0
 11 31  1  0  0  0  0
 12 13  1  0  0  0  0
 12 32  1  0  0  0  0
 12 33  1  0  0  0  0
 13 24  1  0  0  0  0
 13 14  2  0  0  0  0
 14 15  1  0  0  0  0
 14 34  1  0  0  0  0
 15 16  2  0  0  0  0
 15 35  1  0  0  0  0
 16 17  1  0  0  0  0
 17 18  1  0  0  0  0
 17 24  2  0  0  0  0
 18 23  1  0  0  0  0
 18 19  1  0  0  0  0
 19 20  1  0  0  0  0
 19 36  1  0  0  0  0
 19 37  1  0  0  0  0
 20 21  1  0  0  0  0
 20 38  1  0  0  0  0
 20 39  1  0  0  0  0
 21 22  1  0  0  0  0
 22 23  1  0  0  0  0
 22 40  1  0  0  0  0
 22 41  1  0  0  0  0
 23 42  1  0  0  0  0
 23 43  1  0  0  0  0
 24 44  1  0  0  0  0
M  END
> <s_m_source_file>
AV-unprocessed.smi

> <i_m_source_file_index>
2092

> <i_lp_mmshare_version>
43012

> <i_f3d_flags>
0

> <s_epik_input>
RkMoRikoRilbQ0gyXU9bQ0BASF0oW0NIM10pQyg9TylbTkhdW0NIMl1jMVtjSF1bY0hdbmMoW2NIXTEpTjJbQ0gyXVtDSDJdT1tDSDJdW0NIMl0y

> <s_epik_cmdline>
J2VwaWtfcHl0aG9uJywgJy1waCcsICc3LjAnLCAnLXRuJywgJzgnLCAnLW1hJywgJzIwMCcsICctbWV0YWxfYmluZGluZycsICctaW1hZScsICc8aW5maWxlLm1hZT4nLCAnLW9tYWUnLCAnPG91dGZpbGUubWFlPic=

> <r_lp_tautomer_probability>
1

> <r_epik_Ionization_Penalty>
0.00451782

> <r_epik_Ionization_Penalty_Charging>
0

> <r_epik_Ionization_Penalty_Neutral>
0.00451782

> <r_epik_State_Penalty>
0.00326147

> <r_epik_Charging_Adjusted_Penalty>
0.00326147

> <i_epik_Tot_Q>
0

> <i_epik_Tot_abs_Q>
0

> <r_epik_Metal_State_Penalty>
-0

> <b_epik_Metal_Only>
0

> <s_lp_Force_Field>
OPLS_2005

> <r_lp_Energy>
14.8319

> <b_lp_Chiralities_Consistent>
1

> <s_lp_Variant>
AV-unprocessed.smi:2092-1

> <Gold.Version>
5.8.1

> <Gold.Id.Protein>
6NUR|6NUR_protein|mol2

> <Gold.PLP.Fitness>
43.8092

> <Gold.PLP.PLP>
-42.0405

> <Gold.PLP.part.hbond>
-1.0000

> <Gold.PLP.part.metal>
0.0000

> <Gold.PLP.part.buried>
-7.2696

> <Gold.PLP.part.nonpolar>
-35.5542

> <Gold.PLP.part.repulsive>
1.1759

> <Gold.PLP.ligand.clash>
0.0000

> <Gold.PLP.ligand.torsion>
0.8223

> <Gold.PLP.Chemscore.Hbond>
1.0000

> <Gold.PLP.Chemscore.CHOScore>
0.0000

> <Gold.PLP.Chemscore.Metal>
0.0000

> <Gold.Chemscore.Hbonds>
donor molecule, donor type, donor heavy atom, donor atom, acceptor molecule, acceptor atom, score
      P1  H  6896  6909       L1    10  0.99

> <Gold.PLP.Chemscore.Internal.Correction>
0.4134

> <Gold.Rescore>
     Score         DG    S(hbond)    S(metal)    S(lipo)     H(rot)  DE(clash)    DE(int)     intcor
     10.27     -11.04       0.97        0.00      74.22       2.49       0.01       0.76       ----

> <Gold.Chemscore.Fitness>
10.2667

> <Gold.Chemscore.DG>
-11.0396

> <Gold.Chemscore.ZeroCoef>
-5.4800

> <Gold.Chemscore.Hbond>
0.9731

> <Gold.Chemscore.Metal>
0.0000

> <Gold.Chemscore.Lipo>
74.2193

> <Gold.Chemscore.Internal_Hbond>
0.0000

> <Gold.Chemscore.DEClash>
0.0126

> <Gold.Chemscore.DEInternal>
0.7603

> <Gold.Chemscore.Rot>
2.4899

> <Gold.Chemscore.Internal.Correction>
   9.000000E+99

> <Gold.Chemscore.Hbonds>
donor molecule, donor type, donor heavy atom, donor atom, acceptor molecule, acceptor atom, score
      P1  H  6896  6909       L1    10  0.93

> <Gold.Chemscore.Hbond.Weighted>
-3.2501

> <Gold.Chemscore.Metal.Weighted>
-0.0000

> <Gold.Chemscore.Lipo.Weighted>
-8.6837

> <Gold.Chemscore.Internal_Hbond.Weighted>
0.0000

> <Gold.Chemscore.DEClash.Weighted>
0.0126

> <Gold.Chemscore.DEInternal.Weighted>
0.7603

> <Gold.Chemscore.Rot.Weighted>
6.3741

> <Gold.Chemscore.Internal.Correction.Weighted>
   9.000000E+99

> <Gold.Protein.RotatedTorsions>
[ 6907 6896 6895 6894 ] final   -8.55 input  -60.11 | X-H torsion
[ 7974 7965 7964 7962 ] final  117.60 input  175.53 | X-H torsion
[ 8008 7997 7996 7995 ] final -169.72 input   59.86 | X-H torsion
[ 10167 10162 10161 10158 ] final  -90.76 input  -65.29 | X-H torsion
[ 10718 10713 10712 10709 ] final  -85.74 input   66.30 | X-H torsion
[ 10763 10752 10751 10750 ] final  136.35 input  -60.55 | X-H torsion
[ 11005 11000 10999 10996 ] final   99.32 input  -57.11 | X-H torsion

> <Gold.Protein.ActiveResidues>
 VAL166  LYS551  ARG553  GLY616  TRP617  ASP618  TYR619  PRO620  LYS621  CYS622 
 ASP623  PHE694  ASN695  SER759  ASP760  ASP761  ALA762  ILE779  LEU786  VAL792 
 PHE793  MET794  SER795  GLU796  ALA797  LYS798  CYS799  TRP800  GLU811  SER814 

> <Gold.Protein.RotatedAtoms>
  151.4319  135.1010  159.9644 H   0  0  0  0  0  0  0  0  0  0  0  0  # atno 6907 bound_to 6896
  152.4953  133.8609  159.7260 H   0  0  0  0  0  0  0  0  0  0  0  0  # atno 6908 bound_to 6896
  150.9149  133.6893  159.2873 H   0  0  0  0  0  0  0  0  0  0  0  0  # atno 6909 bound_to 6896
  145.1654  139.3131  143.4495 H   0  0  0  0  0  0  0  0  0  0  0  0  # atno 7974 bound_to 7965
  155.9088  140.1054  157.1295 H   0  0  0  0  0  0  0  0  0  0  0  0  # atno 8008 bound_to 7997
  154.4036  140.1278  156.4595 H   0  0  0  0  0  0  0  0  0  0  0  0  # atno 8009 bound_to 7997
  155.7335  140.3468  155.5073 H   0  0  0  0  0  0  0  0  0  0  0  0  # atno 8010 bound_to 7997
  140.3516  143.2888  151.9719 H   0  0  0  0  0  0  0  0  0  0  0  0  # atno 10167 bound_to 10162
  155.9994  130.4741  150.4609 H   0  0  0  0  0  0  0  0  0  0  0  0  # atno 10718 bound_to 10713
  153.8550  135.3074  155.3434 H   0  0  0  0  0  0  0  0  0  0  0  0  # atno 10763 bound_to 10752
  154.7874  135.4802  153.9979 H   0  0  0  0  0  0  0  0  0  0  0  0  # atno 10764 bound_to 10752
  153.1495  135.6840  153.8997 H   0  0  0  0  0  0  0  0  0  0  0  0  # atno 10765 bound_to 10752
  139.8771  134.9090  156.4588 H   0  0  0  0  0  0  0  0  0  0  0  0  # atno 11005 bound_to 11000
  146.3476  140.1779  142.8589 LP  0  0  0  0  0  0  0  0  0  0  0  0  # atno 17320 bound_to 7965
  145.0288  140.8854  143.5122 LP  0  0  0  0  0  0  0  0  0  0  0  0  # atno 17321 bound_to 7965
  139.4825  144.6071  151.7502 LP  0  0  0  0  0  0  0  0  0  0  0  0  # atno 17342 bound_to 10162
  140.5213  144.0874  150.6023 LP  0  0  0  0  0  0  0  0  0  0  0  0  # atno 17343 bound_to 10162
  157.2633  131.0571  151.2306 LP  0  0  0  0  0  0  0  0  0  0  0  0  # atno 17370 bound_to 10713
  157.3413  130.7035  149.6383 LP  0  0  0  0  0  0  0  0  0  0  0  0  # atno 17371 bound_to 10713
  140.8878  133.7870  155.9538 LP  0  0  0  0  0  0  0  0  0  0  0  0  # atno 17394 bound_to 11000
  140.8785  134.2640  157.5156 LP  0  0  0  0  0  0  0  0  0  0  0  0  # atno 17395 bound_to 11000

$$$$
