AV-unprocessed.smi:2504|AV-procd|sdf|9852|dock3
  -GOLD-   2272013483D 1   1.00000     0.00000
 Structure written by MMmdl.
 46 48  0  0  0  0  0  0  0  0  3 V2000
  147.0422  137.2845  160.0231 O   0  0  0  0  0  0  0  0  0  0  0  0
  147.4782  136.1333  159.9894 C   0  0  0  0  0  0  0  0  0  0  0  0
  148.0525  135.4705  161.2591 C   0  0  0  0  0  0  0  0  0  0  0  0
  147.2721  134.2073  161.6507 C   0  0  0  0  0  0  0  0  0  0  0  0
  146.1292  134.6984  162.5412 C   0  0  0  0  0  0  0  0  0  0  0  0
  146.6740  135.9356  163.2639 C   0  0  0  0  0  0  0  0  0  0  0  0
  147.9362  136.3725  162.5024 C   0  0  0  0  0  0  0  0  0  0  0  0
  147.3954  135.3587  158.8297 N   0  0  0  0  0  0  0  0  0  0  0  0
  148.2850  134.2292  158.5932 C   0  0  0  0  0  0  0  0  0  0  0  0
  148.1599  134.5738  157.1016 C   0  0  0  0  0  0  0  0  0  0  0  0
  147.0418  133.4700  156.1052 S   0  0  0  0  0  0  0  0  0  0  0  0
  147.7755  132.2010  155.9643 O   0  0  0  0  0  0  0  0  0  0  0  0
  145.7608  133.4306  156.8278 O   0  0  0  0  0  0  0  0  0  0  0  0
  146.9188  134.2731  154.7018 N   0  5  0  0  0  0  0  0  0  0  0  0
  145.8884  133.9213  153.7423 C   0  0  0  0  0  0  0  0  0  0  0  0
  146.4127  134.1665  152.3102 C   0  0  0  0  0  0  0  0  0  0  0  0
  145.5208  133.5994  151.2086 C   0  0  0  0  0  0  0  0  0  0  0  0
  146.0517  132.7197  150.2357 C   0  0  0  0  0  0  0  0  0  0  0  0
  145.2062  132.1976  149.2357 C   0  0  0  0  0  0  0  0  0  0  0  0
  143.8461  132.5662  149.2265 C   0  0  0  0  0  0  0  0  0  0  0  0
  143.3731  133.4142  150.1657 N   0  3  0  0  0  0  0  0  0  0  0  0
  144.1505  133.9389  151.1381 C   0  0  0  0  0  0  0  0  0  0  0  0
  147.5301  135.9177  157.4914 C   0  0  0  0  0  0  0  0  0  0  0  0
  149.1025  135.2313  161.0864 H   0  0  0  0  0  0  0  0  0  0  0  0
  146.9019  133.6429  160.7936 H   0  0  0  0  0  0  0  0  0  0  0  0
  147.9222  133.5415  162.2195 H   0  0  0  0  0  0  0  0  0  0  0  0
  145.2788  134.9833  161.9204 H   0  0  0  0  0  0  0  0  0  0  0  0
  145.7835  133.9299  163.2331 H   0  0  0  0  0  0  0  0  0  0  0  0
  145.9272  136.7297  163.2872 H   0  0  0  0  0  0  0  0  0  0  0  0
  146.9254  135.6965  164.2977 H   0  0  0  0  0  0  0  0  0  0  0  0
  148.8112  136.2295  163.1376 H   0  0  0  0  0  0  0  0  0  0  0  0
  147.9042  137.4344  162.2531 H   0  0  0  0  0  0  0  0  0  0  0  0
  149.2940  134.3835  158.9798 H   0  0  0  0  0  0  0  0  0  0  0  0
  147.8705  133.2658  158.8909 H   0  0  0  0  0  0  0  0  0  0  0  0
  149.1208  134.6847  156.5990 H   0  0  0  0  0  0  0  0  0  0  0  0
  145.5939  132.8749  153.8278 H   0  0  0  0  0  0  0  0  0  0  0  0
  144.9797  134.5034  153.8954 H   0  0  0  0  0  0  0  0  0  0  0  0
  146.5229  135.2389  152.1470 H   0  0  0  0  0  0  0  0  0  0  0  0
  147.4144  133.7462  152.2078 H   0  0  0  0  0  0  0  0  0  0  0  0
  147.0940  132.4362  150.2644 H   0  0  0  0  0  0  0  0  0  0  0  0
  145.5963  131.5216  148.4897 H   0  0  0  0  0  0  0  0  0  0  0  0
  143.1282  132.2111  148.5017 H   0  0  0  0  0  0  0  0  0  0  0  0
  143.6548  134.5997  151.8341 H   0  0  0  0  0  0  0  0  0  0  0  0
  146.5757  136.1388  157.0120 H   0  0  0  0  0  0  0  0  0  0  0  0
  148.2345  136.7479  157.4275 H   0  0  0  0  0  0  0  0  0  0  0  0
  142.3853  133.6677  150.1420 H   0  0  0  0  0  0  0  0  0  0  0  0
  1  2  2  0  0  0  0
  2  3  1  0  0  0  0
  2  8  1  0  0  0  0
  3  7  1  0  0  0  0
  3  4  1  0  0  0  0
  3 24  1  0  0  0  0
  4  5  1  0  0  0  0
  4 25  1  0  0  0  0
  4 26  1  0  0  0  0
  5  6  1  0  0  0  0
  5 27  1  0  0  0  0
  5 28  1  0  0  0  0
  6  7  1  0  0  0  0
  6 29  1  0  0  0  0
  6 30  1  0  0  0  0
  7 31  1  0  0  0  0
  7 32  1  0  0  0  0
  8 23  1  0  0  0  0
  8  9  1  0  0  0  0
  9 10  1  0  0  0  0
  9 33  1  0  0  0  0
  9 34  1  0  0  0  0
 10 11  1  0  0  0  0
 10 23  1  0  0  0  0
 10 35  1  0  0  0  0
 11 12  2  0  0  0  0
 11 13  2  0  0  0  0
 11 14  1  0  0  0  0
 14 15  1  0  0  0  0
 15 16  1  0  0  0  0
 15 36  1  0  0  0  0
 15 37  1  0  0  0  0
 16 17  1  0  0  0  0
 16 38  1  0  0  0  0
 16 39  1  0  0  0  0
 17 22  1  0  0  0  0
 17 18  2  0  0  0  0
 18 19  1  0  0  0  0
 18 40  1  0  0  0  0
 19 20  2  0  0  0  0
 19 41  1  0  0  0  0
 20 21  1  0  0  0  0
 20 42  1  0  0  0  0
 21 22  2  0  0  0  0
 21 46  1  0  0  0  0
 22 43  1  0  0  0  0
 23 44  1  0  0  0  0
 23 45  1  0  0  0  0
M  CHG  1  14  -1
M  CHG  1  21   1
M  END
> <s_m_source_file>
AV-unprocessed.smi

> <i_m_source_file_index>
2504

> <i_lp_mmshare_version>
43012

> <i_f3d_flags>
0

> <s_epik_input>
W0NIMl0xW0NIMl1bQ0gyXVtDSDJdW0NIXTFDKD1PKU4yW0NIMl1bQ0hdKFtDSDJdMilTKD1PKSg9TylbTkhdW0NIMl1bQ0gyXWMzW2NIXVtjSF1bY0hdbltjSF0z

> <s_epik_cmdline>
J2VwaWtfcHl0aG9uJywgJy1waCcsICc3LjAnLCAnLXRuJywgJzgnLCAnLW1hJywgJzIwMCcsICctbWV0YWxfYmluZGluZycsICctaW1hZScsICc8aW5maWxlLm1hZT4nLCAnLW9tYWUnLCAnPG91dGZpbGUubWFlPic=

> <r_epik_Ionization_Penalty>
7.23206

> <r_epik_Ionization_Penalty_Charging>
7.23206

> <r_epik_Ionization_Penalty_Neutral>
2.37876e-07

> <r_epik_State_Penalty>
7.91796

> <r_epik_Charging_Adjusted_Penalty>
15.15

> <i_epik_Tot_Q>
0

> <i_epik_Tot_abs_Q>
2

> <r_epik_Metal_State_Penalty>
3.92928

> <b_epik_Metal_Only>
1

> <s_lp_Force_Field>
OPLS_2005

> <r_lp_Energy>
37.1942

> <b_lp_Chiralities_Consistent>
1

> <s_lp_Variant>
AV-unprocessed.smi:2504-4

> <Gold.Version>
5.8.1

> <Gold.Id.Protein>
6NUR|6NUR_protein|mol2

> <Gold.PLP.Fitness>
43.4356

> <Gold.PLP.PLP>
-35.0823

> <Gold.PLP.part.hbond>
-2.0000

> <Gold.PLP.part.metal>
0.0000

> <Gold.PLP.part.buried>
-5.1622

> <Gold.PLP.part.nonpolar>
-28.2094

> <Gold.PLP.part.repulsive>
0.1444

> <Gold.PLP.ligand.clash>
0.0000

> <Gold.PLP.ligand.torsion>
1.5164

> <Gold.PLP.Chemscore.Hbond>
3.0000

> <Gold.PLP.Chemscore.CHOScore>
0.0000

> <Gold.PLP.Chemscore.Metal>
0.0000

> <Gold.Chemscore.Hbonds>
donor molecule, donor type, donor heavy atom, donor atom, acceptor molecule, acceptor atom, score
      L1  H    21    46       P1 10186  2.00
      P1  H  6934  6947       L1     1  1.00

> <Gold.PLP.Chemscore.Internal.Correction>
2.3860

> <Gold.Rescore>
     Score         DG    S(hbond)    S(metal)    S(lipo)     H(rot)  DE(clash)    DE(int)     intcor
     17.63     -19.49       1.89        0.00     103.39       1.72       0.41       1.46       ----

> <Gold.Chemscore.Fitness>
17.6279

> <Gold.Chemscore.DG>
-19.4936

> <Gold.Chemscore.ZeroCoef>
-5.4800

> <Gold.Chemscore.Hbond>
1.8889

> <Gold.Chemscore.Metal>
0.0000

> <Gold.Chemscore.Lipo>
103.3942

> <Gold.Chemscore.Internal_Hbond>
0.0000

> <Gold.Chemscore.DEClash>
0.4070

> <Gold.Chemscore.DEInternal>
1.4587

> <Gold.Chemscore.Rot>
1.7158

> <Gold.Chemscore.Internal.Correction>
   9.000000E+99

> <Gold.Chemscore.Hbonds>
donor molecule, donor type, donor heavy atom, donor atom, acceptor molecule, acceptor atom, score
      L1  H    21    46       P1 10186  0.99
      P1  H  6934  6947       L1     1  0.98

> <Gold.Chemscore.Hbond.Weighted>
-6.3089

> <Gold.Chemscore.Metal.Weighted>
-0.0000

> <Gold.Chemscore.Lipo.Weighted>
-12.0971

> <Gold.Chemscore.Internal_Hbond.Weighted>
0.0000

> <Gold.Chemscore.DEClash.Weighted>
0.4070

> <Gold.Chemscore.DEInternal.Weighted>
1.4587

> <Gold.Chemscore.Rot.Weighted>
4.3924

> <Gold.Chemscore.Internal.Correction.Weighted>
   9.000000E+99

> <Gold.Protein.RotatedTorsions>
[ 6907 6896 6895 6894 ] final   61.66 input  -60.11 | X-H torsion
[ 7974 7965 7964 7962 ] final  -33.45 input  175.53 | X-H torsion
[ 8008 7997 7996 7995 ] final  -56.83 input   59.86 | X-H torsion
[ 10167 10162 10161 10158 ] final -114.24 input  -65.29 | X-H torsion
[ 10718 10713 10712 10709 ] final  150.10 input   66.30 | X-H torsion
[ 10763 10752 10751 10750 ] final -161.30 input  -60.55 | X-H torsion
[ 11005 11000 10999 10996 ] final  152.66 input  -57.11 | X-H torsion

> <Gold.Protein.ActiveResidues>
 VAL166  LYS551  ARG553  GLY616  TRP617  ASP618  TYR619  PRO620  LYS621  CYS622 
 ASP623  PHE694  ASN695  SER759  ASP760  ASP761  ALA762  ILE779  LEU786  VAL792 
 PHE793  MET794  SER795  GLU796  ALA797  LYS798  CYS799  TRP800  GLU811  SER814 

> <Gold.Protein.RotatedAtoms>
  152.4107  134.6129  160.0030 H   0  0  0  0  0  0  0  0  0  0  0  0  # atno 6907 bound_to 6896
  151.6307  133.3326  159.3116 H   0  0  0  0  0  0  0  0  0  0  0  0  # atno 6908 bound_to 6896
  150.7998  134.7124  159.6656 H   0  0  0  0  0  0  0  0  0  0  0  0  # atno 6909 bound_to 6896
  146.0910  140.5917  142.8864 H   0  0  0  0  0  0  0  0  0  0  0  0  # atno 7974 bound_to 7965
  154.4245  140.1121  156.5700 H   0  0  0  0  0  0  0  0  0  0  0  0  # atno 8008 bound_to 7997
  155.6222  140.3495  155.4636 H   0  0  0  0  0  0  0  0  0  0  0  0  # atno 8009 bound_to 7997
  156.0015  140.1200  157.0532 H   0  0  0  0  0  0  0  0  0  0  0  0  # atno 8010 bound_to 7997
  140.1031  143.4595  152.1800 H   0  0  0  0  0  0  0  0  0  0  0  0  # atno 10167 bound_to 10162
  157.2877  131.0847  151.1485 H   0  0  0  0  0  0  0  0  0  0  0  0  # atno 10718 bound_to 10713
  154.7316  135.3047  154.8882 H   0  0  0  0  0  0  0  0  0  0  0  0  # atno 10763 bound_to 10752
  153.9723  135.6740  153.4751 H   0  0  0  0  0  0  0  0  0  0  0  0  # atno 10764 bound_to 10752
  153.0923  135.4953  154.8635 H   0  0  0  0  0  0  0  0  0  0  0  0  # atno 10765 bound_to 10752
  140.1328  134.8791  157.2226 H   0  0  0  0  0  0  0  0  0  0  0  0  # atno 11005 bound_to 11000
  144.7360  140.4809  143.6903 LP  0  0  0  0  0  0  0  0  0  0  0  0  # atno 17320 bound_to 7965
  145.6039  139.1506  143.3113 LP  0  0  0  0  0  0  0  0  0  0  0  0  # atno 17321 bound_to 7965
  139.5660  144.7435  151.4020 LP  0  0  0  0  0  0  0  0  0  0  0  0  # atno 17342 bound_to 10162
  140.6967  143.7732  150.7338 LP  0  0  0  0  0  0  0  0  0  0  0  0  # atno 17343 bound_to 10162
  157.2893  130.6788  149.6106 LP  0  0  0  0  0  0  0  0  0  0  0  0  # atno 17370 bound_to 10713
  155.9666  130.4425  150.5386 LP  0  0  0  0  0  0  0  0  0  0  0  0  # atno 17371 bound_to 10713
  140.2820  134.3338  155.7340 LP  0  0  0  0  0  0  0  0  0  0  0  0  # atno 17394 bound_to 11000
  141.2173  133.7484  156.9378 LP  0  0  0  0  0  0  0  0  0  0  0  0  # atno 17395 bound_to 11000

$$$$
