AV-unprocessed.smi:2124|AV-procd|sdf|8670|dock6
  -GOLD-   2272011423D 1   1.00000     0.00000
 Structure written by MMmdl.
 46 48  0  0  0  0  0  0  0  0  2 V2000
  152.1885  130.4354  158.1633 C   0  0  0  0  0  0  0  0  0  0  0  0
  151.4539  131.3015  157.1624 C   0  0  0  0  0  0  0  0  0  0  0  0
  150.8300  130.7448  156.1953 N   0  0  0  0  0  0  0  0  0  0  0  0
  150.1508  131.5430  155.2591 C   0  0  0  0  0  0  0  0  0  0  0  0
  149.4447  130.7962  154.1409 C   0  0  0  0  0  0  0  0  0  0  0  0
  150.1456  132.9027  155.3642 C   0  0  0  0  0  0  0  0  0  0  0  0
  149.4300  133.8238  154.3772 C   0  0  0  0  0  0  0  0  0  0  0  0
  148.4174  134.7971  154.9857 C   0  0  0  0  0  0  0  0  0  0  0  0
  147.5977  134.4089  155.8183 O   0  0  0  0  0  0  0  0  0  0  0  0
  148.4880  136.0663  154.5560 N   0  0  0  0  0  0  0  0  0  0  0  0
  147.6471  137.1704  155.0146 C   0  0  2  0  0  0  0  0  0  0  0  0
  146.1839  136.8816  154.6295 C   0  0  0  0  0  0  0  0  0  0  0  0
  148.1746  138.4983  154.4165 C   0  0  2  0  0  0  0  0  0  0  0  0
  149.6535  138.7968  154.7725 C   0  0  0  0  0  0  0  0  0  0  0  0
  149.5980  140.2158  155.3644 C   0  0  1  0  0  0  0  0  0  0  0  0
  149.2647  141.2267  154.2522 C   0  0  0  0  0  0  0  0  0  0  0  0
  147.7771  140.9426  153.9733 C   0  0  0  0  0  0  0  0  0  0  0  0
  147.4670  139.7774  154.9329 C   0  0  2  0  0  0  0  0  0  0  0  0
  148.2968  140.1647  156.1528 C   0  0  0  0  0  0  0  0  0  0  0  0
  150.8675  133.5044  156.4990 C   0  0  0  0  0  0  0  0  0  0  0  0
  150.8749  134.7257  156.6500 O   0  0  0  0  0  0  0  0  0  0  0  0
  151.5091  132.6631  157.3592 N   0  5  0  0  0  0  0  0  0  0  0  0
  151.8819  129.3921  158.0781 H   0  0  0  0  0  0  0  0  0  0  0  0
  151.9824  130.7676  159.1814 H   0  0  0  0  0  0  0  0  0  0  0  0
  153.2634  130.4929  157.9911 H   0  0  0  0  0  0  0  0  0  0  0  0
  149.9090  131.0205  153.1806 H   0  0  0  0  0  0  0  0  0  0  0  0
  148.3929  131.0777  154.0928 H   0  0  0  0  0  0  0  0  0  0  0  0
  149.4942  129.7177  154.2939 H   0  0  0  0  0  0  0  0  0  0  0  0
  150.1681  134.3769  153.7945 H   0  0  0  0  0  0  0  0  0  0  0  0
  148.8975  133.2210  153.6421 H   0  0  0  0  0  0  0  0  0  0  0  0
  149.1968  136.2908  153.8728 H   0  0  0  0  0  0  0  0  0  0  0  0
  147.7122  137.2314  156.1021 H   0  0  0  0  0  0  0  0  0  0  0  0
  145.5042  137.6371  155.0209 H   0  0  0  0  0  0  0  0  0  0  0  0
  145.8533  135.9230  155.0307 H   0  0  0  0  0  0  0  0  0  0  0  0
  146.0577  136.8475  153.5470 H   0  0  0  0  0  0  0  0  0  0  0  0
  148.0697  138.4398  153.3317 H   0  0  0  0  0  0  0  0  0  0  0  0
  150.0342  138.1024  155.5232 H   0  0  0  0  0  0  0  0  0  0  0  0
  150.3104  138.7333  153.9043 H   0  0  0  0  0  0  0  0  0  0  0  0
  150.4805  140.4804  155.9474 H   0  0  0  0  0  0  0  0  0  0  0  0
  149.4006  142.2513  154.6011 H   0  0  0  0  0  0  0  0  0  0  0  0
  149.8887  141.0871  153.3687 H   0  0  0  0  0  0  0  0  0  0  0  0
  147.1702  141.8154  154.2177 H   0  0  0  0  0  0  0  0  0  0  0  0
  147.5876  140.6888  152.9297 H   0  0  0  0  0  0  0  0  0  0  0  0
  146.4010  139.6664  155.1259 H   0  0  0  0  0  0  0  0  0  0  0  0
  148.2961  139.4097  156.9406 H   0  0  0  0  0  0  0  0  0  0  0  0
  148.0132  141.1276  156.5814 H   0  0  0  0  0  0  0  0  0  0  0  0
  1  2  1  0  0  0  0
  1 23  1  0  0  0  0
  1 24  1  0  0  0  0
  1 25  1  0  0  0  0
  2 22  1  0  0  0  0
  2  3  2  0  0  0  0
  3  4  1  0  0  0  0
  4  5  1  0  0  0  0
  4  6  2  0  0  0  0
  5 26  1  0  0  0  0
  5 27  1  0  0  0  0
  5 28  1  0  0  0  0
  6  7  1  0  0  0  0
  6 20  1  0  0  0  0
  7  8  1  0  0  0  0
  7 29  1  0  0  0  0
  7 30  1  0  0  0  0
  8  9  2  0  0  0  0
  8 10  1  0  0  0  0
 10 11  1  0  0  0  0
 10 31  1  0  0  0  0
 11 12  1  0  0  0  0
 11 13  1  0  0  0  0
 11 32  1  0  0  0  0
 12 33  1  0  0  0  0
 12 34  1  0  0  0  0
 12 35  1  0  0  0  0
 13 18  1  0  0  0  0
 13 14  1  0  0  0  0
 13 36  1  0  0  0  0
 14 15  1  0  0  0  0
 14 37  1  0  0  0  0
 14 38  1  0  0  0  0
 15 19  1  0  0  0  0
 15 16  1  0  0  0  0
 15 39  1  0  0  0  0
 16 17  1  0  0  0  0
 16 40  1  0  0  0  0
 16 41  1  0  0  0  0
 17 18  1  0  0  0  0
 17 42  1  0  0  0  0
 17 43  1  0  0  0  0
 18 19  1  0  0  0  0
 18 44  1  0  0  0  0
 19 45  1  0  0  0  0
 19 46  1  0  0  0  0
 20 21  2  0  0  0  0
 20 22  1  0  0  0  0
M  CHG  1  22  -1
M  END
> <s_m_source_file>
AV-unprocessed.smi

> <i_m_source_file_index>
2124

> <i_lp_mmshare_version>
43012

> <i_f3d_flags>
0

> <s_epik_input>
W0NIM11jMW5jKFtDSDNdKWMoYyg9TylbbkhdMSlbQ0gyXUMoPU8pW05IXVtDQEhdKFtDSDNdKVtDQEhdKFtDSDJdW0NASF0yMylbQ0BIXShbQ0gyXTMpW0NIMl1bQ0gyXTI=

> <s_epik_cmdline>
J2VwaWtfcHl0aG9uJywgJy1waCcsICc3LjAnLCAnLXRuJywgJzgnLCAnLW1hJywgJzIwMCcsICctbWV0YWxfYmluZGluZycsICctaW1hZScsICc8aW5maWxlLm1hZT4nLCAnLW9tYWUnLCAnPG91dGZpbGUubWFlPic=

> <r_lp_tautomer_probability>
0.839158

> <r_epik_Ionization_Penalty>
6.63797

> <r_epik_Ionization_Penalty_Charging>
7.48558e-08

> <r_epik_Ionization_Penalty_Neutral>
6.63797

> <r_epik_State_Penalty>
4.49496

> <r_epik_Charging_Adjusted_Penalty>
4.49496

> <i_epik_Tot_Q>
-1

> <i_epik_Tot_abs_Q>
1

> <r_epik_Metal_State_Penalty>
0.841241

> <b_epik_Metal_Only>
1

> <s_lp_Force_Field>
OPLS_2005

> <r_lp_Energy>
56.157

> <b_lp_Chiralities_Consistent>
1

> <s_lp_Variant>
AV-unprocessed.smi:2124-21

> <Gold.Version>
5.8.1

> <Gold.Id.Protein>
6NUR|6NUR_protein|mol2

> <Gold.PLP.Fitness>
33.9210

> <Gold.PLP.PLP>
-26.8940

> <Gold.PLP.part.hbond>
-2.0000

> <Gold.PLP.part.metal>
0.0000

> <Gold.PLP.part.buried>
-2.7271

> <Gold.PLP.part.nonpolar>
-22.4758

> <Gold.PLP.part.repulsive>
0.0214

> <Gold.PLP.ligand.clash>
0.0000

> <Gold.PLP.ligand.torsion>
0.2421

> <Gold.PLP.Chemscore.Hbond>
2.4960

> <Gold.PLP.Chemscore.CHOScore>
0.0000

> <Gold.PLP.Chemscore.Metal>
0.0000

> <Gold.Chemscore.Hbonds>
donor molecule, donor type, donor heavy atom, donor atom, acceptor molecule, acceptor atom, score
      L1  H    10    31       P1  7948  0.53
      P1  H  6896  6909       L1    22  1.95

> <Gold.PLP.Chemscore.Internal.Correction>
0.0232

> <Gold.Rescore>
     Score         DG    S(hbond)    S(metal)    S(lipo)     H(rot)  DE(clash)    DE(int)     intcor
     11.19     -12.80       1.40        0.00      57.61       1.61       0.03       1.57       ----

> <Gold.Chemscore.Fitness>
11.1944

> <Gold.Chemscore.DG>
-12.7999

> <Gold.Chemscore.ZeroCoef>
-5.4800

> <Gold.Chemscore.Hbond>
1.4036

> <Gold.Chemscore.Metal>
0.0000

> <Gold.Chemscore.Lipo>
57.6140

> <Gold.Chemscore.Internal_Hbond>
0.0000

> <Gold.Chemscore.DEClash>
0.0324

> <Gold.Chemscore.DEInternal>
1.5730

> <Gold.Chemscore.Rot>
1.6051

> <Gold.Chemscore.Internal.Correction>
   9.000000E+99

> <Gold.Chemscore.Hbonds>
donor molecule, donor type, donor heavy atom, donor atom, acceptor molecule, acceptor atom, score
      L1  H    10    31       P1  7948  0.49
      P1  H  6896  6909       L1    22  0.77

> <Gold.Chemscore.Hbond.Weighted>
-4.6880

> <Gold.Chemscore.Metal.Weighted>
-0.0000

> <Gold.Chemscore.Lipo.Weighted>
-6.7408

> <Gold.Chemscore.Internal_Hbond.Weighted>
0.0000

> <Gold.Chemscore.DEClash.Weighted>
0.0324

> <Gold.Chemscore.DEInternal.Weighted>
1.5730

> <Gold.Chemscore.Rot.Weighted>
4.1090

> <Gold.Chemscore.Internal.Correction.Weighted>
   9.000000E+99

> <Gold.Protein.RotatedTorsions>
[ 6907 6896 6895 6894 ] final  -56.29 input  -60.11 | X-H torsion
[ 7974 7965 7964 7962 ] final   71.98 input  175.53 | X-H torsion
[ 8008 7997 7996 7995 ] final  158.42 input   59.86 | X-H torsion
[ 10167 10162 10161 10158 ] final   24.97 input  -65.29 | X-H torsion
[ 10718 10713 10712 10709 ] final -138.46 input   66.30 | X-H torsion
[ 10763 10752 10751 10750 ] final  -52.65 input  -60.55 | X-H torsion
[ 11005 11000 10999 10996 ] final   61.38 input  -57.11 | X-H torsion

> <Gold.Protein.ActiveResidues>
 VAL166  LYS551  ARG553  GLY616  TRP617  ASP618  TYR619  PRO620  LYS621  CYS622 
 ASP623  PHE694  ASN695  SER759  ASP760  ASP761  ALA762  ILE779  LEU786  VAL792 
 PHE793  MET794  SER795  GLU796  ALA797  LYS798  CYS799  TRP800  GLU811  SER814 

> <Gold.Protein.RotatedAtoms>
  150.8180  134.7372  159.6746 H   0  0  0  0  0  0  0  0  0  0  0  0  # atno 6907 bound_to 6896
  152.4298  134.5797  159.9954 H   0  0  0  0  0  0  0  0  0  0  0  0  # atno 6908 bound_to 6896
  151.5988  133.3321  159.3079 H   0  0  0  0  0  0  0  0  0  0  0  0  # atno 6909 bound_to 6896
  145.7591  139.2793  143.1387 H   0  0  0  0  0  0  0  0  0  0  0  0  # atno 7974 bound_to 7965
  156.2303  140.1858  156.7258 H   0  0  0  0  0  0  0  0  0  0  0  0  # atno 8008 bound_to 7997
  154.6012  140.0636  156.9398 H   0  0  0  0  0  0  0  0  0  0  0  0  # atno 8009 bound_to 7997
  155.2172  140.3304  155.4323 H   0  0  0  0  0  0  0  0  0  0  0  0  # atno 8010 bound_to 7997
  140.5144  144.0107  150.6387 H   0  0  0  0  0  0  0  0  0  0  0  0  # atno 10167 bound_to 10162
  156.2996  130.7421  151.1469 H   0  0  0  0  0  0  0  0  0  0  0  0  # atno 10718 bound_to 10713
  154.1462  135.6497  153.4953 H   0  0  0  0  0  0  0  0  0  0  0  0  # atno 10763 bound_to 10752
  153.0151  135.5327  154.6854 H   0  0  0  0  0  0  0  0  0  0  0  0  # atno 10764 bound_to 10752
  154.6130  135.2956  155.0383 H   0  0  0  0  0  0  0  0  0  0  0  0  # atno 10765 bound_to 10752
  140.0165  134.6217  155.9702 H   0  0  0  0  0  0  0  0  0  0  0  0  # atno 11005 bound_to 11000
  146.0282  140.8284  142.9889 LP  0  0  0  0  0  0  0  0  0  0  0  0  # atno 17320 bound_to 7965
  144.6834  140.2729  143.7303 LP  0  0  0  0  0  0  0  0  0  0  0  0  # atno 17321 bound_to 7965
  140.3438  143.3003  152.0560 LP  0  0  0  0  0  0  0  0  0  0  0  0  # atno 17342 bound_to 10162
  139.4905  144.6423  151.6851 LP  0  0  0  0  0  0  0  0  0  0  0  0  # atno 17343 bound_to 10162
  157.7364  131.0562  150.5413 LP  0  0  0  0  0  0  0  0  0  0  0  0  # atno 17370 bound_to 10713
  156.5539  130.4238  149.6094 LP  0  0  0  0  0  0  0  0  0  0  0  0  # atno 17371 bound_to 10713
  141.1746  133.6539  156.4780 LP  0  0  0  0  0  0  0  0  0  0  0  0  # atno 17394 bound_to 11000
  140.4461  134.6971  157.5016 LP  0  0  0  0  0  0  0  0  0  0  0  0  # atno 17395 bound_to 11000

$$$$
