AV-unprocessed.smi:2580|AV-procd|sdf|10127|dock4
  -GOLD-   2272014143D 1   1.00000     0.00000
 Structure written by MMmdl.
 29 30  0  0  0  0  0  0  0  0  1 V2000
  149.2691  138.7880  154.8269 C   0  0  0  0  0  0  0  0  0  0  0  0
  150.7534  139.1817  154.7582 C   0  0  2  0  0  0  0  0  0  0  0  0
  151.6612  138.0486  154.3245 C   0  0  0  0  0  0  0  0  0  0  0  0
  153.0269  138.5400  154.7908 C   0  0  0  0  0  0  0  0  0  0  0  0
  152.7812  139.3141  155.9608 O   0  0  0  0  0  0  0  0  0  0  0  0
  151.3825  139.5688  156.1068 C   0  0  1  0  0  0  0  0  0  0  0  0
  151.1566  141.0255  156.5412 C   0  0  0  0  0  0  0  0  0  0  0  0
  150.5304  141.7951  155.8121 O   0  0  0  0  0  0  0  0  0  0  0  0
  151.6671  141.3624  157.7407 N   0  0  0  0  0  0  0  0  0  0  0  0
  151.6224  142.6178  158.4066 C   0  0  0  0  0  0  0  0  0  0  0  0
  150.8620  143.6564  157.9763 N   0  0  0  0  0  0  0  0  0  0  0  0
  150.8738  144.8168  158.6644 C   0  0  0  0  0  0  0  0  0  0  0  0
  151.6439  145.0150  159.8241 C   0  0  0  0  0  0  0  0  0  0  0  0
  152.4359  143.9478  160.2827 C   0  0  0  0  0  0  0  0  0  0  0  0
  152.4279  142.7333  159.5683 C   0  0  0  0  0  0  0  0  0  0  0  0
  153.4021  141.4184  160.1307 Cl  0  0  0  0  0  0  0  0  0  0  0  0
  149.1071  137.9660  155.5246 H   0  0  0  0  0  0  0  0  0  0  0  0
  148.9066  138.4703  153.8490 H   0  0  0  0  0  0  0  0  0  0  0  0
  148.6495  139.6242  155.1504 H   0  0  0  0  0  0  0  0  0  0  0  0
  150.8700  140.0051  154.0507 H   0  0  0  0  0  0  0  0  0  0  0  0
  151.3991  137.1278  154.8479 H   0  0  0  0  0  0  0  0  0  0  0  0
  151.6233  137.8546  153.2522 H   0  0  0  0  0  0  0  0  0  0  0  0
  153.7190  137.7216  154.9914 H   0  0  0  0  0  0  0  0  0  0  0  0
  153.4758  139.1869  154.0361 H   0  0  0  0  0  0  0  0  0  0  0  0
  151.0105  138.9082  156.8915 H   0  0  0  0  0  0  0  0  0  0  0  0
  152.1601  140.6300  158.2314 H   0  0  0  0  0  0  0  0  0  0  0  0
  150.2506  145.6100  158.2784 H   0  0  0  0  0  0  0  0  0  0  0  0
  151.6267  145.9597  160.3472 H   0  0  0  0  0  0  0  0  0  0  0  0
  153.0411  144.0594  161.1702 H   0  0  0  0  0  0  0  0  0  0  0  0
  1  2  1  0  0  0  0
  1 17  1  0  0  0  0
  1 18  1  0  0  0  0
  1 19  1  0  0  0  0
  2  6  1  0  0  0  0
  2  3  1  0  0  0  0
  2 20  1  0  0  0  0
  3  4  1  0  0  0  0
  3 21  1  0  0  0  0
  3 22  1  0  0  0  0
  4  5  1  0  0  0  0
  4 23  1  0  0  0  0
  4 24  1  0  0  0  0
  5  6  1  0  0  0  0
  6  7  1  0  0  0  0
  6 25  1  0  0  0  0
  7  8  2  0  0  0  0
  7  9  1  0  0  0  0
  9 10  1  0  0  0  0
  9 26  1  0  0  0  0
 10 15  1  0  0  0  0
 10 11  2  0  0  0  0
 11 12  1  0  0  0  0
 12 13  2  0  0  0  0
 12 27  1  0  0  0  0
 13 14  1  0  0  0  0
 13 28  1  0  0  0  0
 14 15  2  0  0  0  0
 14 29  1  0  0  0  0
 15 16  1  0  0  0  0
M  END
> <s_m_source_file>
AV-unprocessed.smi

> <i_m_source_file_index>
2580

> <i_lp_mmshare_version>
43012

> <i_f3d_flags>
0

> <s_epik_input>
W0NIM11bQ0BASF0xW0NIMl1bQ0gyXU9bQ0BIXTFDKD1PKVtOSF1jMm5bY0hdW2NIXVtjSF1jMkNs

> <s_epik_cmdline>
J2VwaWtfcHl0aG9uJywgJy1waCcsICc3LjAnLCAnLXRuJywgJzgnLCAnLW1hJywgJzIwMCcsICctbWV0YWxfYmluZGluZycsICctaW1hZScsICc8aW5maWxlLm1hZT4nLCAnLW9tYWUnLCAnPG91dGZpbGUubWFlPic=

> <r_lp_tautomer_probability>
1

> <r_epik_Ionization_Penalty>
4.32497e-05

> <r_epik_Ionization_Penalty_Charging>
0

> <r_epik_Ionization_Penalty_Neutral>
4.32497e-05

> <r_epik_State_Penalty>
-0

> <r_epik_Charging_Adjusted_Penalty>
0

> <i_epik_Tot_Q>
0

> <i_epik_Tot_abs_Q>
0

> <r_epik_Metal_State_Penalty>
-0

> <b_epik_Metal_Only>
0

> <s_lp_Force_Field>
OPLS_2005

> <r_lp_Energy>
21.1187

> <b_lp_Chiralities_Consistent>
1

> <s_lp_Variant>
AV-unprocessed.smi:2580-1

> <Gold.Version>
5.8.1

> <Gold.Id.Protein>
6NUR|6NUR_protein|mol2

> <Gold.PLP.Fitness>
44.0740

> <Gold.PLP.PLP>
-38.1356

> <Gold.PLP.part.hbond>
-1.0030

> <Gold.PLP.part.metal>
0.0000

> <Gold.PLP.part.buried>
-5.3557

> <Gold.PLP.part.nonpolar>
-32.2040

> <Gold.PLP.part.repulsive>
0.3206

> <Gold.PLP.ligand.clash>
0.0000

> <Gold.PLP.ligand.torsion>
0.0316

> <Gold.PLP.Chemscore.Hbond>
1.0000

> <Gold.PLP.Chemscore.CHOScore>
1.0000

> <Gold.PLP.Chemscore.Metal>
0.0000

> <Gold.Chemscore.Hbonds>
donor molecule, donor type, donor heavy atom, donor atom, acceptor molecule, acceptor atom, score
      P1  H  7997  8009       L1     5  0.74
      L1  C    12    27       P1  8029  0.93

> <Gold.PLP.Chemscore.Internal.Correction>
0.0017

> <Gold.Rescore>
     Score         DG    S(hbond)    S(metal)    S(lipo)     H(rot)  DE(clash)    DE(int)     intcor
     15.62     -17.09       0.90        0.00      95.37       1.00       0.15       1.32       ----

> <Gold.Chemscore.Fitness>
15.6213

> <Gold.Chemscore.DG>
-17.0915

> <Gold.Chemscore.ZeroCoef>
-5.4800

> <Gold.Chemscore.Hbond>
0.9021

> <Gold.Chemscore.Metal>
0.0000

> <Gold.Chemscore.Lipo>
95.3710

> <Gold.Chemscore.Internal_Hbond>
0.0000

> <Gold.Chemscore.DEClash>
0.1550

> <Gold.Chemscore.DEInternal>
1.3152

> <Gold.Chemscore.Rot>
1.0000

> <Gold.Chemscore.Internal.Correction>
   9.000000E+99

> <Gold.Chemscore.Hbonds>
donor molecule, donor type, donor heavy atom, donor atom, acceptor molecule, acceptor atom, score
      P1  H  7997  8009       L1     5  0.09

> <Gold.Chemscore.Hbond.Weighted>
-3.0131

> <Gold.Chemscore.Metal.Weighted>
-0.0000

> <Gold.Chemscore.Lipo.Weighted>
-11.1584

> <Gold.Chemscore.Internal_Hbond.Weighted>
0.0000

> <Gold.Chemscore.DEClash.Weighted>
0.1550

> <Gold.Chemscore.DEInternal.Weighted>
1.3152

> <Gold.Chemscore.Rot.Weighted>
2.5600

> <Gold.Chemscore.Internal.Correction.Weighted>
   9.000000E+99

> <Gold.Protein.RotatedTorsions>
[ 6907 6896 6895 6894 ] final  149.39 input  -60.11 | X-H torsion
[ 7974 7965 7964 7962 ] final -149.48 input  175.53 | X-H torsion
[ 8008 7997 7996 7995 ] final -136.57 input   59.86 | X-H torsion
[ 10167 10162 10161 10158 ] final  139.34 input  -65.29 | X-H torsion
[ 10718 10713 10712 10709 ] final  -64.33 input   66.30 | X-H torsion
[ 10763 10752 10751 10750 ] final -176.88 input  -60.55 | X-H torsion
[ 11005 11000 10999 10996 ] final -158.98 input  -57.11 | X-H torsion

> <Gold.Protein.ActiveResidues>
 VAL166  LYS551  ARG553  GLY616  TRP617  ASP618  TYR619  PRO620  LYS621  CYS622 
 ASP623  PHE694  ASN695  SER759  ASP760  ASP761  ALA762  ILE779  LEU786  VAL792 
 PHE793  MET794  SER795  GLU796  ALA797  LYS798  CYS799  TRP800  GLU811  SER814 

> <Gold.Protein.RotatedAtoms>
  152.1286  133.4394  159.4709 H   0  0  0  0  0  0  0  0  0  0  0  0  # atno 6907 bound_to 6896
  150.6876  134.2448  159.4496 H   0  0  0  0  0  0  0  0  0  0  0  0  # atno 6908 bound_to 6896
  152.0330  134.9756  160.0623 H   0  0  0  0  0  0  0  0  0  0  0  0  # atno 6909 bound_to 6896
  144.7965  140.5059  143.5736 H   0  0  0  0  0  0  0  0  0  0  0  0  # atno 7974 bound_to 7965
  155.3974  140.0504  157.3038 H   0  0  0  0  0  0  0  0  0  0  0  0  # atno 8008 bound_to 7997
  154.5007  140.2155  155.9313 H   0  0  0  0  0  0  0  0  0  0  0  0  # atno 8009 bound_to 7997
  156.1463  140.3144  155.8581 H   0  0  0  0  0  0  0  0  0  0  0  0  # atno 8010 bound_to 7997
  139.5082  144.6300  151.5841 H   0  0  0  0  0  0  0  0  0  0  0  0  # atno 10167 bound_to 10162
  156.0735  130.4232  150.1405 H   0  0  0  0  0  0  0  0  0  0  0  0  # atno 10718 bound_to 10713
  154.5669  135.2824  155.0865 H   0  0  0  0  0  0  0  0  0  0  0  0  # atno 10763 bound_to 10752
  154.2252  135.6384  153.5161 H   0  0  0  0  0  0  0  0  0  0  0  0  # atno 10764 bound_to 10752
  153.0046  135.5524  154.6281 H   0  0  0  0  0  0  0  0  0  0  0  0  # atno 10765 bound_to 10752
  140.6476  134.4485  157.5234 H   0  0  0  0  0  0  0  0  0  0  0  0  # atno 11005 bound_to 11000
  145.5660  139.1481  143.3315 LP  0  0  0  0  0  0  0  0  0  0  0  0  # atno 17320 bound_to 7965
  146.2235  140.5795  142.9007 LP  0  0  0  0  0  0  0  0  0  0  0  0  # atno 17321 bound_to 7965
  140.6030  143.9576  150.6399 LP  0  0  0  0  0  0  0  0  0  0  0  0  # atno 17342 bound_to 10162
  140.2793  143.3400  152.1165 LP  0  0  0  0  0  0  0  0  0  0  0  0  # atno 17343 bound_to 10162
  156.9451  130.9757  151.3509 LP  0  0  0  0  0  0  0  0  0  0  0  0  # atno 17370 bound_to 10713
  157.5819  130.8382  149.8535 LP  0  0  0  0  0  0  0  0  0  0  0  0  # atno 17371 bound_to 10713
  139.9057  134.8454  156.1715 LP  0  0  0  0  0  0  0  0  0  0  0  0  # atno 17394 bound_to 11000
  141.0561  133.6865  156.1862 LP  0  0  0  0  0  0  0  0  0  0  0  0  # atno 17395 bound_to 11000

$$$$
