AV-unprocessed.smi:898|AV-procd|sdf|4084|dock2
  -GOLD-   22720 1573D 1   1.00000     0.00000
 Structure written by MMmdl.
 34 36  0  0  0  0  0  0  0  0  1 V2000
  152.5604  139.6987  156.4372 O   0  0  0  0  0  0  0  0  0  0  0  0
  151.4323  139.7620  156.9264 C   0  0  0  0  0  0  0  0  0  0  0  0
  150.4427  138.8762  156.7173 N   0  0  0  0  0  0  0  0  0  0  0  0
  150.4634  137.7065  155.9123 C   0  0  0  0  0  0  0  0  0  0  0  0
  151.4160  137.4411  155.0079 N   0  0  0  0  0  0  0  0  0  0  0  0
  151.1941  136.2332  154.3615 N   0  0  0  0  0  0  0  0  0  0  0  0
  150.0854  135.6207  154.7946 C   0  0  0  0  0  0  0  0  0  0  0  0
  149.6381  134.3053  154.2496 C   0  0  0  0  0  0  0  0  0  0  0  0
  148.2990  133.7065  154.6216 C   0  0  0  0  0  0  0  0  0  0  0  0
  149.5711  133.0839  155.1376 C   0  0  0  0  0  0  0  0  0  0  0  0
  149.2058  136.4897  156.0483 S   0  0  0  0  0  0  0  0  0  0  0  0
  151.0377  140.7433  157.7509 N   0  0  0  0  0  0  0  0  0  0  0  0
  151.8639  141.8679  158.1815 C   0  0  1  0  0  0  0  0  0  0  0  0
  151.2654  143.1753  157.6281 C   0  0  0  0  0  0  0  0  0  0  0  0
  152.1174  144.4080  157.9713 C   0  0  0  0  0  0  0  0  0  0  0  0
  152.2465  144.6251  159.4853 C   0  0  0  0  0  0  0  0  0  0  0  0
  153.0772  143.2232  160.2808 S   0  0  0  0  0  0  0  0  0  0  0  0
  151.9744  141.8965  159.7188 C   0  0  0  0  0  0  0  0  0  0  0  0
  149.5703  139.0599  157.1901 H   0  0  0  0  0  0  0  0  0  0  0  0
  149.9870  134.1744  153.2273 H   0  0  0  0  0  0  0  0  0  0  0  0
  147.6785  134.2363  155.3416 H   0  0  0  0  0  0  0  0  0  0  0  0
  147.7566  133.1706  153.8454 H   0  0  0  0  0  0  0  0  0  0  0  0
  149.8777  132.1332  154.7063 H   0  0  0  0  0  0  0  0  0  0  0  0
  149.7998  133.2130  156.1937 H   0  0  0  0  0  0  0  0  0  0  0  0
  150.0933  140.7142  158.1061 H   0  0  0  0  0  0  0  0  0  0  0  0
  152.8631  141.7468  157.7583 H   0  0  0  0  0  0  0  0  0  0  0  0
  151.1734  143.1020  156.5436 H   0  0  0  0  0  0  0  0  0  0  0  0
  150.2535  143.3134  158.0116 H   0  0  0  0  0  0  0  0  0  0  0  0
  153.1086  144.3083  157.5269 H   0  0  0  0  0  0  0  0  0  0  0  0
  151.6678  145.2923  157.5188 H   0  0  0  0  0  0  0  0  0  0  0  0
  152.8175  145.5310  159.6897 H   0  0  0  0  0  0  0  0  0  0  0  0
  151.2626  144.7586  159.9363 H   0  0  0  0  0  0  0  0  0  0  0  0
  150.9924  142.0379  160.1714 H   0  0  0  0  0  0  0  0  0  0  0  0
  152.3659  140.9510  160.0951 H   0  0  0  0  0  0  0  0  0  0  0  0
  1  2  2  0  0  0  0
  2  3  1  0  0  0  0
  2 12  1  0  0  0  0
  3  4  1  0  0  0  0
  3 19  1  0  0  0  0
  4 11  1  0  0  0  0
  4  5  2  0  0  0  0
  5  6  1  0  0  0  0
  6  7  2  0  0  0  0
  7  8  1  0  0  0  0
  7 11  1  0  0  0  0
  8 10  1  0  0  0  0
  8  9  1  0  0  0  0
  8 20  1  0  0  0  0
  9 10  1  0  0  0  0
  9 21  1  0  0  0  0
  9 22  1  0  0  0  0
 10 23  1  0  0  0  0
 10 24  1  0  0  0  0
 12 13  1  0  0  0  0
 12 25  1  0  0  0  0
 13 18  1  0  0  0  0
 13 14  1  0  0  0  0
 13 26  1  0  0  0  0
 14 15  1  0  0  0  0
 14 27  1  0  0  0  0
 14 28  1  0  0  0  0
 15 16  1  0  0  0  0
 15 29  1  0  0  0  0
 15 30  1  0  0  0  0
 16 17  1  0  0  0  0
 16 31  1  0  0  0  0
 16 32  1  0  0  0  0
 17 18  1  0  0  0  0
 18 33  1  0  0  0  0
 18 34  1  0  0  0  0
M  END
> <s_m_source_file>
AV-unprocessed.smi

> <i_m_source_file_index>
898

> <i_lp_mmshare_version>
43012

> <i_f3d_flags>
0

> <s_epik_input>
W0NIMl0xU1tDSDJdW0NIMl1bQ0gyXVtDQEhdMVtOSF1DKD1PKVtOSF1jMm5uYyhzMilbQ0hdM1tDSDJdW0NIMl0z

> <s_epik_cmdline>
J2VwaWtfcHl0aG9uJywgJy1waCcsICc3LjAnLCAnLXRuJywgJzgnLCAnLW1hJywgJzIwMCcsICctbWV0YWxfYmluZGluZycsICctaW1hZScsICc8aW5maWxlLm1hZT4nLCAnLW9tYWUnLCAnPG91dGZpbGUubWFlPic=

> <r_lp_tautomer_probability>
1

> <r_epik_Ionization_Penalty>
0.000291725

> <r_epik_Ionization_Penalty_Charging>
0

> <r_epik_Ionization_Penalty_Neutral>
0.000291725

> <r_epik_State_Penalty>
-0

> <r_epik_Charging_Adjusted_Penalty>
0

> <i_epik_Tot_Q>
0

> <i_epik_Tot_abs_Q>
0

> <r_epik_Metal_State_Penalty>
0.160962

> <b_epik_Metal_Only>
0

> <s_lp_Force_Field>
OPLS_2005

> <r_lp_Energy>
2.40818

> <b_lp_Chiralities_Consistent>
1

> <s_lp_Variant>
AV-unprocessed.smi:898-2

> <Gold.Version>
5.8.1

> <Gold.Id.Protein>
6NUR|6NUR_protein|mol2

> <Gold.PLP.Fitness>
37.8679

> <Gold.PLP.PLP>
-31.9903

> <Gold.PLP.part.hbond>
-2.2343

> <Gold.PLP.part.metal>
0.0000

> <Gold.PLP.part.buried>
-5.1879

> <Gold.PLP.part.nonpolar>
-26.7184

> <Gold.PLP.part.repulsive>
1.1936

> <Gold.PLP.ligand.clash>
0.0000

> <Gold.PLP.ligand.torsion>
0.1289

> <Gold.PLP.Chemscore.Hbond>
2.0000

> <Gold.PLP.Chemscore.CHOScore>
0.0000

> <Gold.PLP.Chemscore.Metal>
0.0000

> <Gold.Chemscore.Hbonds>
donor molecule, donor type, donor heavy atom, donor atom, acceptor molecule, acceptor atom, score
      P1  H  7997  8008       L1     1  1.00
      P1  H 10752 10763       L1     6  0.90

> <Gold.PLP.Chemscore.Internal.Correction>
0.1354

> <Gold.Rescore>
     Score         DG    S(hbond)    S(metal)    S(lipo)     H(rot)  DE(clash)    DE(int)     intcor
     17.99     -19.43       1.95        0.00      90.04       1.20       0.07       1.38       ----

> <Gold.Chemscore.Fitness>
17.9903

> <Gold.Chemscore.DG>
-19.4346

> <Gold.Chemscore.ZeroCoef>
-5.4800

> <Gold.Chemscore.Hbond>
1.9475

> <Gold.Chemscore.Metal>
0.0000

> <Gold.Chemscore.Lipo>
90.0407

> <Gold.Chemscore.Internal_Hbond>
0.0000

> <Gold.Chemscore.DEClash>
0.0672

> <Gold.Chemscore.DEInternal>
1.3771

> <Gold.Chemscore.Rot>
1.2050

> <Gold.Chemscore.Internal.Correction>
   9.000000E+99

> <Gold.Chemscore.Hbonds>
donor molecule, donor type, donor heavy atom, donor atom, acceptor molecule, acceptor atom, score
      P1  H  7997  8008       L1     1  1.00
      P1  H 10752 10763       L1     6  0.18

> <Gold.Chemscore.Hbond.Weighted>
-6.5045

> <Gold.Chemscore.Metal.Weighted>
-0.0000

> <Gold.Chemscore.Lipo.Weighted>
-10.5348

> <Gold.Chemscore.Internal_Hbond.Weighted>
0.0000

> <Gold.Chemscore.DEClash.Weighted>
0.0672

> <Gold.Chemscore.DEInternal.Weighted>
1.3771

> <Gold.Chemscore.Rot.Weighted>
3.0847

> <Gold.Chemscore.Internal.Correction.Weighted>
   9.000000E+99

> <Gold.Protein.RotatedTorsions>
[ 6907 6896 6895 6894 ] final   54.31 input  -60.11 | X-H torsion
[ 7974 7965 7964 7962 ] final  177.71 input  175.53 | X-H torsion
[ 8008 7997 7996 7995 ] final  -41.25 input   59.86 | X-H torsion
[ 10167 10162 10161 10158 ] final  -72.43 input  -65.29 | X-H torsion
[ 10718 10713 10712 10709 ] final  -42.54 input   66.30 | X-H torsion
[ 10763 10752 10751 10750 ] final   48.80 input  -60.55 | X-H torsion
[ 11005 11000 10999 10996 ] final   44.20 input  -57.11 | X-H torsion

> <Gold.Protein.ActiveResidues>
 VAL166  LYS551  ARG553  GLY616  TRP617  ASP618  TYR619  PRO620  LYS621  CYS622 
 ASP623  PHE694  ASN695  SER759  ASP760  ASP761  ALA762  ILE779  LEU786  VAL792 
 PHE793  MET794  SER795  GLU796  ALA797  LYS798  CYS799  TRP800  GLU811  SER814 

> <Gold.Protein.RotatedAtoms>
  152.3426  134.7115  160.0259 H   0  0  0  0  0  0  0  0  0  0  0  0  # atno 6907 bound_to 6896
  151.7495  133.3321  159.3395 H   0  0  0  0  0  0  0  0  0  0  0  0  # atno 6908 bound_to 6896
  150.7489  134.6138  159.6144 H   0  0  0  0  0  0  0  0  0  0  0  0  # atno 6909 bound_to 6896
  144.7165  140.0287  143.6439 H   0  0  0  0  0  0  0  0  0  0  0  0  # atno 7974 bound_to 7965
  154.4005  140.1504  156.3161 H   0  0  0  0  0  0  0  0  0  0  0  0  # atno 8008 bound_to 7997
  155.8572  140.3455  155.5711 H   0  0  0  0  0  0  0  0  0  0  0  0  # atno 8009 bound_to 7997
  155.7920  140.0858  157.1994 H   0  0  0  0  0  0  0  0  0  0  0  0  # atno 8010 bound_to 7997
  140.5193  143.2334  151.7458 H   0  0  0  0  0  0  0  0  0  0  0  0  # atno 10167 bound_to 10162
  156.2585  130.4195  149.8568 H   0  0  0  0  0  0  0  0  0  0  0  0  # atno 10718 bound_to 10713
  152.9790  135.5932  154.3985 H   0  0  0  0  0  0  0  0  0  0  0  0  # atno 10763 bound_to 10752
  154.3633  135.2767  155.2309 H   0  0  0  0  0  0  0  0  0  0  0  0  # atno 10764 bound_to 10752
  154.4297  135.6039  153.6116 H   0  0  0  0  0  0  0  0  0  0  0  0  # atno 10765 bound_to 10752
  140.1574  134.4384  155.8340 H   0  0  0  0  0  0  0  0  0  0  0  0  # atno 11005 bound_to 11000
  146.0120  139.3178  143.0864 LP  0  0  0  0  0  0  0  0  0  0  0  0  # atno 17320 bound_to 7965
  145.8670  140.9442  143.0670 LP  0  0  0  0  0  0  0  0  0  0  0  0  # atno 17321 bound_to 7965
  139.4918  144.4278  151.9906 LP  0  0  0  0  0  0  0  0  0  0  0  0  # atno 17342 bound_to 10162
  140.3374  144.3244  150.5974 LP  0  0  0  0  0  0  0  0  0  0  0  0  # atno 17343 bound_to 10162
  156.6092  130.8579  151.3450 LP  0  0  0  0  0  0  0  0  0  0  0  0  # atno 17370 bound_to 10713
  157.7242  130.9599  150.1563 LP  0  0  0  0  0  0  0  0  0  0  0  0  # atno 17371 bound_to 10713
  141.2206  133.6898  156.7532 LP  0  0  0  0  0  0  0  0  0  0  0  0  # atno 17394 bound_to 11000
  140.2531  134.8525  157.3686 LP  0  0  0  0  0  0  0  0  0  0  0  0  # atno 17395 bound_to 11000

$$$$
