AV-unprocessed.smi:1048|AV-procd|sdf|4605|dock1
  -GOLD-   22720 3103D 1   1.00000     0.00000
 Structure written by MMmdl.
 46 47  0  0  0  0  0  0  0  0  2 V2000
  144.1064  144.6494  155.4131 C   0  0  0  0  0  0  0  0  0  0  0  0
  144.9366  143.3580  155.4090 C   0  0  2  0  0  0  0  0  0  0  0  0
  145.7153  143.1856  154.0937 C   0  0  0  0  0  0  0  0  0  0  0  0
  146.5139  141.8714  154.0836 C   0  0  0  0  0  0  0  0  0  0  0  0
  145.6242  140.7048  154.3131 N   0  3  1  0  0  0  0  0  0  0  0  0
  146.3339  139.4086  154.1576 C   0  0  0  0  0  0  0  0  0  0  0  0
  147.2652  139.3941  152.9281 C   0  0  1  0  0  0  0  0  0  0  0  0
  148.3607  138.5555  153.2416 O   0  0  0  0  0  0  0  0  0  0  0  0
  146.5529  138.8325  151.6811 C   0  0  0  0  0  0  0  0  0  0  0  0
  146.8316  137.4129  151.4898 N   0  0  0  0  0  0  0  0  0  0  0  0
  145.9007  136.4561  151.3692 C   0  0  0  0  0  0  0  0  0  0  0  0
  144.6911  136.6808  151.4019 O   0  0  0  0  0  0  0  0  0  0  0  0
  146.4659  135.2445  151.2312 N   0  0  0  0  0  0  0  0  0  0  0  0
  145.8313  133.9812  151.0842 C   0  0  0  0  0  0  0  0  0  0  0  0
  144.4218  133.9498  151.0612 C   0  0  0  0  0  0  0  0  0  0  0  0
  143.7639  132.7119  150.9334 C   0  0  0  0  0  0  0  0  0  0  0  0
  144.5461  131.5448  150.8418 C   0  0  0  0  0  0  0  0  0  0  0  0
  145.8951  131.5539  150.8768 N   0  0  0  0  0  0  0  0  0  0  0  0
  146.5197  132.7452  150.9978 C   0  0  0  0  0  0  0  0  0  0  0  0
  144.8912  140.8250  155.6013 C   0  0  0  0  0  0  0  0  0  0  0  0
  144.0586  142.1173  155.6458 C   0  0  0  0  0  0  0  0  0  0  0  0
  143.3638  144.6469  154.6146 H   0  0  0  0  0  0  0  0  0  0  0  0
  144.7408  145.5252  155.2734 H   0  0  0  0  0  0  0  0  0  0  0  0
  143.5772  144.7731  156.3585 H   0  0  0  0  0  0  0  0  0  0  0  0
  145.6581  143.4247  156.2249 H   0  0  0  0  0  0  0  0  0  0  0  0
  145.0240  143.1963  153.2497 H   0  0  0  0  0  0  0  0  0  0  0  0
  146.3931  144.0274  153.9475 H   0  0  0  0  0  0  0  0  0  0  0  0
  147.0163  141.7690  153.1209 H   0  0  0  0  0  0  0  0  0  0  0  0
  147.2922  141.8941  154.8481 H   0  0  0  0  0  0  0  0  0  0  0  0
  146.9314  139.2014  155.0471 H   0  0  0  0  0  0  0  0  0  0  0  0
  145.5990  138.6044  154.0960 H   0  0  0  0  0  0  0  0  0  0  0  0
  147.6309  140.3988  152.7168 H   0  0  0  0  0  0  0  0  0  0  0  0
  148.3141  137.7791  152.7039 H   0  0  0  0  0  0  0  0  0  0  0  0
  145.4801  139.0334  151.7061 H   0  0  0  0  0  0  0  0  0  0  0  0
  146.9317  139.3354  150.7908 H   0  0  0  0  0  0  0  0  0  0  0  0
  147.8025  137.1386  151.4520 H   0  0  0  0  0  0  0  0  0  0  0  0
  147.4728  135.2159  151.2951 H   0  0  0  0  0  0  0  0  0  0  0  0
  143.8485  134.8626  151.1358 H   0  0  0  0  0  0  0  0  0  0  0  0
  142.6856  132.6583  150.9071 H   0  0  0  0  0  0  0  0  0  0  0  0
  144.0759  130.5775  150.7439 H   0  0  0  0  0  0  0  0  0  0  0  0
  147.5952  132.6835  151.0460 H   0  0  0  0  0  0  0  0  0  0  0  0
  144.2276  139.9729  155.7430 H   0  0  0  0  0  0  0  0  0  0  0  0
  145.6023  140.8097  156.4290 H   0  0  0  0  0  0  0  0  0  0  0  0
  143.5560  142.1955  156.6105 H   0  0  0  0  0  0  0  0  0  0  0  0
  143.2721  142.0691  154.8911 H   0  0  0  0  0  0  0  0  0  0  0  0
  144.9331  140.7333  153.5764 H   0  0  0  0  0  0  0  0  0  0  0  0
  1  2  1  0  0  0  0
  1 22  1  0  0  0  0
  1 23  1  0  0  0  0
  1 24  1  0  0  0  0
  2 21  1  0  0  0  0
  2  3  1  0  0  0  0
  2 25  1  0  0  0  0
  3  4  1  0  0  0  0
  3 26  1  0  0  0  0
  3 27  1  0  0  0  0
  4  5  1  0  0  0  0
  4 28  1  0  0  0  0
  4 29  1  0  0  0  0
  5  6  1  0  0  0  0
  5 20  1  0  0  0  0
  5 46  1  0  0  0  0
  6  7  1  0  0  0  0
  6 30  1  0  0  0  0
  6 31  1  0  0  0  0
  7  8  1  0  0  0  0
  7  9  1  0  0  0  0
  7 32  1  0  0  0  0
  8 33  1  0  0  0  0
  9 10  1  0  0  0  0
  9 34  1  0  0  0  0
  9 35  1  0  0  0  0
 10 11  1  0  0  0  0
 10 36  1  0  0  0  0
 11 12  2  0  0  0  0
 11 13  1  0  0  0  0
 13 14  1  0  0  0  0
 13 37  1  0  0  0  0
 14 19  1  0  0  0  0
 14 15  2  0  0  0  0
 15 16  1  0  0  0  0
 15 38  1  0  0  0  0
 16 17  2  0  0  0  0
 16 39  1  0  0  0  0
 17 18  1  0  0  0  0
 17 40  1  0  0  0  0
 18 19  2  0  0  0  0
 19 41  1  0  0  0  0
 20 21  1  0  0  0  0
 20 42  1  0  0  0  0
 20 43  1  0  0  0  0
 21 44  1  0  0  0  0
 21 45  1  0  0  0  0
M  CHG  1   5   1
M  END
> <s_m_source_file>
AV-unprocessed.smi

> <i_m_source_file_index>
1048

> <i_lp_mmshare_version>
43012

> <i_f3d_flags>
0

> <s_epik_input>
W0NIM11bQ0hdMVtDSDJdW0NIMl1OKFtDSDJdW0NIMl0xKVtDSDJdW0NASF0oW09IXSlbQ0gyXVtOSF1DKD1PKVtOSF1jMltjSF1bY0hdW2NIXW5bY0hdMg==

> <s_epik_cmdline>
J2VwaWtfcHl0aG9uJywgJy1waCcsICc3LjAnLCAnLXRuJywgJzgnLCAnLW1hJywgJzIwMCcsICctbWV0YWxfYmluZGluZycsICctaW1hZScsICc8aW5maWxlLm1hZT4nLCAnLW9tYWUnLCAnPG91dGZpbGUubWFlPic=

> <r_lp_tautomer_probability>
1

> <r_epik_Ionization_Penalty>
0.00581049

> <r_epik_Ionization_Penalty_Charging>
0.00147689

> <r_epik_Ionization_Penalty_Neutral>
0.0043336

> <r_epik_State_Penalty>
-0

> <r_epik_Charging_Adjusted_Penalty>
0.00147689

> <i_epik_Tot_Q>
1

> <i_epik_Tot_abs_Q>
1

> <r_epik_Metal_State_Penalty>
-0

> <b_epik_Metal_Only>
0

> <s_lp_Force_Field>
OPLS_2005

> <r_lp_Energy>
22.9407

> <b_lp_Chiralities_Consistent>
1

> <s_lp_Variant>
AV-unprocessed.smi:1048-2

> <Gold.Version>
5.8.1

> <Gold.Id.Protein>
6NUR|6NUR_protein|mol2

> <Gold.PLP.Fitness>
53.3114

> <Gold.PLP.PLP>
-37.7054

> <Gold.PLP.part.hbond>
-4.8084

> <Gold.PLP.part.metal>
0.0000

> <Gold.PLP.part.buried>
-4.9776

> <Gold.PLP.part.nonpolar>
-31.5920

> <Gold.PLP.part.repulsive>
3.1481

> <Gold.PLP.ligand.clash>
0.0000

> <Gold.PLP.ligand.torsion>
1.0358

> <Gold.PLP.Chemscore.Hbond>
4.8712

> <Gold.PLP.Chemscore.CHOScore>
1.0000

> <Gold.PLP.Chemscore.Metal>
0.0000

> <Gold.Chemscore.Hbonds>
donor molecule, donor type, donor heavy atom, donor atom, acceptor molecule, acceptor atom, score
      L1  H     5    46       P1 10175  2.00
      L1  H     8    33       P1  7948  1.00
      L1  H    10    36       P1  7948  0.88
      L1  H    13    37       P1  7948  0.86
      L1  C    19    41       P1 10747  0.95

> <Gold.PLP.Chemscore.Internal.Correction>
0.0640

> <Gold.Rescore>
     Score         DG    S(hbond)    S(metal)    S(lipo)     H(rot)  DE(clash)    DE(int)     intcor
     17.39     -21.88       3.73        0.00      83.65       2.29       2.00       2.49       ----

> <Gold.Chemscore.Fitness>
17.3920

> <Gold.Chemscore.DG>
-21.8799

> <Gold.Chemscore.ZeroCoef>
-5.4800

> <Gold.Chemscore.Hbond>
3.7323

> <Gold.Chemscore.Metal>
0.0000

> <Gold.Chemscore.Lipo>
83.6539

> <Gold.Chemscore.Internal_Hbond>
0.0000

> <Gold.Chemscore.DEClash>
1.9969

> <Gold.Chemscore.DEInternal>
2.4911

> <Gold.Chemscore.Rot>
2.2865

> <Gold.Chemscore.Internal.Correction>
   9.000000E+99

> <Gold.Chemscore.Hbonds>
donor molecule, donor type, donor heavy atom, donor atom, acceptor molecule, acceptor atom, score
      L1  H     5    46       P1 10175  0.94
      L1  H     8    33       P1  7948  0.98
      L1  H    10    36       P1  7948  0.83
      L1  H    13    37       P1  7948  0.52

> <Gold.Chemscore.Hbond.Weighted>
-12.4660

> <Gold.Chemscore.Metal.Weighted>
-0.0000

> <Gold.Chemscore.Lipo.Weighted>
-9.7875

> <Gold.Chemscore.Internal_Hbond.Weighted>
0.0000

> <Gold.Chemscore.DEClash.Weighted>
1.9969

> <Gold.Chemscore.DEInternal.Weighted>
2.4911

> <Gold.Chemscore.Rot.Weighted>
5.8536

> <Gold.Chemscore.Internal.Correction.Weighted>
   9.000000E+99

> <Gold.Protein.RotatedTorsions>
[ 6907 6896 6895 6894 ] final -147.97 input  -60.11 | X-H torsion
[ 7974 7965 7964 7962 ] final  -42.64 input  175.53 | X-H torsion
[ 8008 7997 7996 7995 ] final -164.03 input   59.86 | X-H torsion
[ 10167 10162 10161 10158 ] final  -49.87 input  -65.29 | X-H torsion
[ 10718 10713 10712 10709 ] final  150.63 input   66.30 | X-H torsion
[ 10763 10752 10751 10750 ] final   74.07 input  -60.55 | X-H torsion
[ 11005 11000 10999 10996 ] final -101.33 input  -57.11 | X-H torsion

> <Gold.Protein.ActiveResidues>
 VAL166  LYS551  ARG553  GLY616  TRP617  ASP618  TYR619  PRO620  LYS621  CYS622 
 ASP623  PHE694  ASN695  SER759  ASP760  ASP761  ALA762  ILE779  LEU786  VAL792 
 PHE793  MET794  SER795  GLU796  ALA797  LYS798  CYS799  TRP800  GLU811  SER814 

> <Gold.Protein.RotatedAtoms>
  151.1631  133.4832  159.2593 H   0  0  0  0  0  0  0  0  0  0  0  0  # atno 6907 bound_to 6896
  151.1433  135.0190  159.8645 H   0  0  0  0  0  0  0  0  0  0  0  0  # atno 6908 bound_to 6896
  152.5463  134.1523  159.8576 H   0  0  0  0  0  0  0  0  0  0  0  0  # atno 6909 bound_to 6896
  146.0096  140.6979  142.9230 H   0  0  0  0  0  0  0  0  0  0  0  0  # atno 7974 bound_to 7965
  155.8298  140.0932  157.1799 H   0  0  0  0  0  0  0  0  0  0  0  0  # atno 8008 bound_to 7997
  154.3979  140.1421  156.3660 H   0  0  0  0  0  0  0  0  0  0  0  0  # atno 8009 bound_to 7997
  155.8178  140.3447  155.5498 H   0  0  0  0  0  0  0  0  0  0  0  0  # atno 8010 bound_to 7997
  140.6665  143.2680  151.4277 H   0  0  0  0  0  0  0  0  0  0  0  0  # atno 10167 bound_to 10162
  157.2810  131.0835  151.1531 H   0  0  0  0  0  0  0  0  0  0  0  0  # atno 10718 bound_to 10713
  153.0563  135.5039  154.7988 H   0  0  0  0  0  0  0  0  0  0  0  0  # atno 10763 bound_to 10752
  154.6812  135.2968  154.9613 H   0  0  0  0  0  0  0  0  0  0  0  0  # atno 10764 bound_to 10752
  154.0398  135.6718  153.4841 H   0  0  0  0  0  0  0  0  0  0  0  0  # atno 10765 bound_to 10752
  141.1235  133.8469  157.1218 H   0  0  0  0  0  0  0  0  0  0  0  0  # atno 11005 bound_to 11000
  144.6948  140.3376  143.7205 LP  0  0  0  0  0  0  0  0  0  0  0  0  # atno 17320 bound_to 7965
  145.7362  139.1750  143.2402 LP  0  0  0  0  0  0  0  0  0  0  0  0  # atno 17321 bound_to 7965
  139.5915  144.1488  152.2094 LP  0  0  0  0  0  0  0  0  0  0  0  0  # atno 17342 bound_to 10162
  140.0844  144.5673  150.7099 LP  0  0  0  0  0  0  0  0  0  0  0  0  # atno 17343 bound_to 10162
  157.2965  130.6822  149.6141 LP  0  0  0  0  0  0  0  0  0  0  0  0  # atno 17370 bound_to 10713
  155.9664  130.4405  150.5301 LP  0  0  0  0  0  0  0  0  0  0  0  0  # atno 17371 bound_to 10713
  140.0213  134.9945  157.0596 LP  0  0  0  0  0  0  0  0  0  0  0  0  # atno 17394 bound_to 11000
  140.4436  134.1655  155.7175 LP  0  0  0  0  0  0  0  0  0  0  0  0  # atno 17395 bound_to 11000

$$$$
