AV-unprocessed.smi:2157|AV-procd|sdf|8785|dock4
  -GOLD-   2272011563D 1   1.00000     0.00000
 Structure written by MMmdl.
 41 42  0  0  0  0  0  0  0  0  1 V2000
  152.6840  142.5279  161.8565 C   0  0  0  0  0  0  0  0  0  0  0  0
  152.6551  143.2171  160.4849 C   0  0  2  0  0  0  0  0  0  0  0  0
  151.9277  144.5736  160.5522 C   0  0  0  0  0  0  0  0  0  0  0  0
  151.8905  145.2627  159.1790 C   0  0  0  0  0  0  0  0  0  0  0  0
  151.2523  144.3547  158.1166 C   0  0  0  0  0  0  0  0  0  0  0  0
  151.9767  142.9992  158.0323 C   0  0  2  0  0  0  0  0  0  0  0  0
  151.3093  142.1460  157.0537 N   0  0  0  0  0  0  0  0  0  0  0  0
  151.6630  140.8870  156.7537 C   0  0  0  0  0  0  0  0  0  0  0  0
  152.6064  140.3045  157.2907 O   0  0  0  0  0  0  0  0  0  0  0  0
  150.7958  140.1772  155.7053 C   0  0  0  0  0  0  0  0  0  0  0  0
  149.4429  140.7387  155.6020 N   0  0  0  0  0  0  0  0  0  0  0  0
  148.9745  141.1753  154.3763 C   0  0  0  0  0  0  0  0  0  0  0  0
  147.7518  141.7212  154.1977 C   0  0  0  0  0  0  0  0  0  0  0  0
  146.8317  141.8807  155.3174 C   0  0  0  0  0  0  0  0  0  0  0  0
  145.7156  142.3879  155.2006 O   0  0  0  0  0  0  0  0  0  0  0  0
  147.3308  141.4134  156.5573 N   0  0  0  0  0  0  0  0  0  0  0  0
  146.4978  141.5379  157.7354 C   0  0  0  0  0  0  0  0  0  0  0  0
  148.6176  140.8598  156.7404 C   0  0  0  0  0  0  0  0  0  0  0  0
  149.0188  140.4975  157.8493 O   0  0  0  0  0  0  0  0  0  0  0  0
  152.0143  142.3131  159.4138 C   0  0  0  0  0  0  0  0  0  0  0  0
  151.6766  142.3157  162.2153 H   0  0  0  0  0  0  0  0  0  0  0  0
  153.1774  143.1541  162.6005 H   0  0  0  0  0  0  0  0  0  0  0  0
  153.2268  141.5833  161.8099 H   0  0  0  0  0  0  0  0  0  0  0  0
  153.6887  143.4039  160.1901 H   0  0  0  0  0  0  0  0  0  0  0  0
  150.9084  144.4282  160.9127 H   0  0  0  0  0  0  0  0  0  0  0  0
  152.4204  145.2254  161.2746 H   0  0  0  0  0  0  0  0  0  0  0  0
  151.3365  146.1993  159.2485 H   0  0  0  0  0  0  0  0  0  0  0  0
  152.9043  145.5251  158.8739 H   0  0  0  0  0  0  0  0  0  0  0  0
  150.2000  144.1993  158.3602 H   0  0  0  0  0  0  0  0  0  0  0  0
  151.2753  144.8531  157.1467 H   0  0  0  0  0  0  0  0  0  0  0  0
  153.0010  143.1838  157.7024 H   0  0  0  0  0  0  0  0  0  0  0  0
  150.5189  142.5439  156.5677 H   0  0  0  0  0  0  0  0  0  0  0  0
  151.3009  140.2516  154.7413 H   0  0  0  0  0  0  0  0  0  0  0  0
  150.7456  139.1099  155.9289 H   0  0  0  0  0  0  0  0  0  0  0  0
  149.6213  141.0830  153.5158 H   0  0  0  0  0  0  0  0  0  0  0  0
  147.4511  142.0473  153.2128 H   0  0  0  0  0  0  0  0  0  0  0  0
  146.5650  140.6068  158.3013 H   0  0  0  0  0  0  0  0  0  0  0  0
  145.4557  141.6957  157.4577 H   0  0  0  0  0  0  0  0  0  0  0  0
  146.8830  142.3826  158.3085 H   0  0  0  0  0  0  0  0  0  0  0  0
  152.5698  141.3766  159.3470 H   0  0  0  0  0  0  0  0  0  0  0  0
  151.0008  142.0485  159.7191 H   0  0  0  0  0  0  0  0  0  0  0  0
  1  2  1  0  0  0  0
  1 21  1  0  0  0  0
  1 22  1  0  0  0  0
  1 23  1  0  0  0  0
  2 20  1  0  0  0  0
  2  3  1  0  0  0  0
  2 24  1  0  0  0  0
  3  4  1  0  0  0  0
  3 25  1  0  0  0  0
  3 26  1  0  0  0  0
  4  5  1  0  0  0  0
  4 27  1  0  0  0  0
  4 28  1  0  0  0  0
  5  6  1  0  0  0  0
  5 29  1  0  0  0  0
  5 30  1  0  0  0  0
  6  7  1  0  0  0  0
  6 20  1  0  0  0  0
  6 31  1  0  0  0  0
  7  8  1  0  0  0  0
  7 32  1  0  0  0  0
  8  9  2  0  0  0  0
  8 10  1  0  0  0  0
 10 11  1  0  0  0  0
 10 33  1  0  0  0  0
 10 34  1  0  0  0  0
 11 18  1  0  0  0  0
 11 12  1  0  0  0  0
 12 13  2  0  0  0  0
 12 35  1  0  0  0  0
 13 14  1  0  0  0  0
 13 36  1  0  0  0  0
 14 15  2  0  0  0  0
 14 16  1  0  0  0  0
 16 17  1  0  0  0  0
 16 18  1  0  0  0  0
 17 37  1  0  0  0  0
 17 38  1  0  0  0  0
 17 39  1  0  0  0  0
 18 19  2  0  0  0  0
 20 40  1  0  0  0  0
 20 41  1  0  0  0  0
M  END
> <s_m_source_file>
AV-unprocessed.smi

> <i_m_source_file_index>
2157

> <i_lp_mmshare_version>
43012

> <i_f3d_flags>
0

> <s_epik_input>
W0NIM11bQ0BASF0xW0NIMl1bQ0gyXVtDSDJdW0NASF0oW0NIMl0xKVtOSF1DKD1PKVtDSDJdbjJbY0hdW2NIXWMoPU8pbihbQ0gzXSljMj1P

> <s_epik_cmdline>
J2VwaWtfcHl0aG9uJywgJy1waCcsICc3LjAnLCAnLXRuJywgJzgnLCAnLW1hJywgJzIwMCcsICctbWV0YWxfYmluZGluZycsICctaW1hZScsICc8aW5maWxlLm1hZT4nLCAnLW9tYWUnLCAnPG91dGZpbGUubWFlPic=

> <r_lp_tautomer_probability>
1

> <r_epik_Ionization_Penalty>
3.1838e-08

> <r_epik_Ionization_Penalty_Charging>
1.27911e-08

> <r_epik_Ionization_Penalty_Neutral>
1.90469e-08

> <r_epik_State_Penalty>
-0

> <r_epik_Charging_Adjusted_Penalty>
1.27911e-08

> <i_epik_Tot_Q>
0

> <i_epik_Tot_abs_Q>
0

> <r_epik_Metal_State_Penalty>
-0

> <b_epik_Metal_Only>
0

> <s_lp_Force_Field>
OPLS_2005

> <r_lp_Energy>
16.5079

> <b_lp_Chiralities_Consistent>
1

> <s_lp_Variant>
AV-unprocessed.smi:2157-3

> <Gold.Version>
5.8.1

> <Gold.Id.Protein>
6NUR|6NUR_protein|mol2

> <Gold.PLP.Fitness>
49.5353

> <Gold.PLP.PLP>
-44.3535

> <Gold.PLP.part.hbond>
-1.0000

> <Gold.PLP.part.metal>
0.0000

> <Gold.PLP.part.buried>
-5.4749

> <Gold.PLP.part.nonpolar>
-38.2633

> <Gold.PLP.part.repulsive>
0.2754

> <Gold.PLP.ligand.clash>
0.0115

> <Gold.PLP.ligand.torsion>
0.3806

> <Gold.PLP.Chemscore.Hbond>
1.0000

> <Gold.PLP.Chemscore.CHOScore>
0.9820

> <Gold.PLP.Chemscore.Metal>
0.0000

> <Gold.Chemscore.Hbonds>
donor molecule, donor type, donor heavy atom, donor atom, acceptor molecule, acceptor atom, score
      P1  H  7997  8008       L1     9  0.98
      L1  C    12    35       P1  7957  0.90

> <Gold.PLP.Chemscore.Internal.Correction>
0.0084

> <Gold.Rescore>
     Score         DG    S(hbond)    S(metal)    S(lipo)     H(rot)  DE(clash)    DE(int)     intcor
     16.32     -16.96       0.88        0.00     106.29       1.52       0.15       0.49       ----

> <Gold.Chemscore.Fitness>
16.3222

> <Gold.Chemscore.DG>
-16.9636

> <Gold.Chemscore.ZeroCoef>
-5.4800

> <Gold.Chemscore.Hbond>
0.8830

> <Gold.Chemscore.Metal>
0.0000

> <Gold.Chemscore.Lipo>
106.2929

> <Gold.Chemscore.Internal_Hbond>
0.0000

> <Gold.Chemscore.DEClash>
0.1511

> <Gold.Chemscore.DEInternal>
0.4903

> <Gold.Chemscore.Rot>
1.5242

> <Gold.Chemscore.Internal.Correction>
   9.000000E+99

> <Gold.Chemscore.Hbonds>
donor molecule, donor type, donor heavy atom, donor atom, acceptor molecule, acceptor atom, score
      P1  H  7997  8008       L1     9  0.93

> <Gold.Chemscore.Hbond.Weighted>
-2.9492

> <Gold.Chemscore.Metal.Weighted>
-0.0000

> <Gold.Chemscore.Lipo.Weighted>
-12.4363

> <Gold.Chemscore.Internal_Hbond.Weighted>
0.0000

> <Gold.Chemscore.DEClash.Weighted>
0.1511

> <Gold.Chemscore.DEInternal.Weighted>
0.4903

> <Gold.Chemscore.Rot.Weighted>
3.9019

> <Gold.Chemscore.Internal.Correction.Weighted>
   9.000000E+99

> <Gold.Protein.RotatedTorsions>
[ 6907 6896 6895 6894 ] final   40.13 input  -60.11 | X-H torsion
[ 7974 7965 7964 7962 ] final  -66.10 input  175.53 | X-H torsion
[ 8008 7997 7996 7995 ] final  -63.15 input   59.86 | X-H torsion
[ 10167 10162 10161 10158 ] final  174.00 input  -65.29 | X-H torsion
[ 10718 10713 10712 10709 ] final -138.73 input   66.30 | X-H torsion
[ 10763 10752 10751 10750 ] final  -56.60 input  -60.55 | X-H torsion
[ 11005 11000 10999 10996 ] final   -6.16 input  -57.11 | X-H torsion

> <Gold.Protein.ActiveResidues>
 VAL166  LYS551  ARG553  GLY616  TRP617  ASP618  TYR619  PRO620  LYS621  CYS622 
 ASP623  PHE694  ASN695  SER759  ASP760  ASP761  ALA762  ILE779  LEU786  VAL792 
 PHE793  MET794  SER795  GLU796  ALA797  LYS798  CYS799  TRP800  GLU811  SER814 

> <Gold.Protein.RotatedAtoms>
  152.1785  134.8774  160.0528 H   0  0  0  0  0  0  0  0  0  0  0  0  # atno 6907 bound_to 6896
  151.9707  133.3720  159.4078 H   0  0  0  0  0  0  0  0  0  0  0  0  # atno 6908 bound_to 6896
  150.6913  134.4066  159.5187 H   0  0  0  0  0  0  0  0  0  0  0  0  # atno 6909 bound_to 6896
  145.7460  140.8931  143.0505 H   0  0  0  0  0  0  0  0  0  0  0  0  # atno 7974 bound_to 7965
  154.4539  140.0981  156.6698 H   0  0  0  0  0  0  0  0  0  0  0  0  # atno 8008 bound_to 7997
  155.5200  140.3478  155.4386 H   0  0  0  0  0  0  0  0  0  0  0  0  # atno 8009 bound_to 7997
  156.0737  140.1356  156.9786 H   0  0  0  0  0  0  0  0  0  0  0  0  # atno 8010 bound_to 7997
  139.5127  144.3196  152.0215 H   0  0  0  0  0  0  0  0  0  0  0  0  # atno 10167 bound_to 10162
  156.3026  130.7437  151.1493 H   0  0  0  0  0  0  0  0  0  0  0  0  # atno 10718 bound_to 10713
  154.2092  135.6397  153.5110 H   0  0  0  0  0  0  0  0  0  0  0  0  # atno 10763 bound_to 10752
  152.9994  135.5470  154.6233 H   0  0  0  0  0  0  0  0  0  0  0  0  # atno 10764 bound_to 10752
  154.5666  135.2913  155.0842 H   0  0  0  0  0  0  0  0  0  0  0  0  # atno 10765 bound_to 10752
  140.6989  133.9006  155.8670 H   0  0  0  0  0  0  0  0  0  0  0  0  # atno 11005 bound_to 11000
  144.6860  139.9526  143.7478 LP  0  0  0  0  0  0  0  0  0  0  0  0  # atno 17320 bound_to 7965
  146.0402  139.3415  143.0702 LP  0  0  0  0  0  0  0  0  0  0  0  0  # atno 17321 bound_to 7965
  140.2639  144.4038  150.6176 LP  0  0  0  0  0  0  0  0  0  0  0  0  # atno 17342 bound_to 10162
  140.6138  143.2171  151.6834 LP  0  0  0  0  0  0  0  0  0  0  0  0  # atno 17343 bound_to 10162
  157.7372  131.0554  150.5371 LP  0  0  0  0  0  0  0  0  0  0  0  0  # atno 17370 bound_to 10713
  156.5500  130.4229  149.6112 LP  0  0  0  0  0  0  0  0  0  0  0  0  # atno 17371 bound_to 10713
  141.0180  134.0929  157.4151 LP  0  0  0  0  0  0  0  0  0  0  0  0  # atno 17394 bound_to 11000
  139.8902  135.0110  156.6723 LP  0  0  0  0  0  0  0  0  0  0  0  0  # atno 17395 bound_to 11000

$$$$
