AV-unprocessed.smi:2746|AV-procd|sdf|10572|dock2
  -GOLD-   2272015 23D 1   1.00000     0.00000
 Structure written by MMmdl.
 38 39  0  0  0  0  0  0  0  0  1 V2000
  151.3617  145.2169  159.0819 C   0  0  0  0  0  0  0  0  0  0  0  0
  152.1946  144.7495  160.0238 C   0  0  0  0  0  0  0  0  0  0  0  0
  152.7758  143.3477  160.0377 C   0  0  1  0  0  0  0  0  0  0  0  0
  152.4615  142.6318  161.3575 C   0  0  0  0  0  0  0  0  0  0  0  0
  152.2447  142.5680  158.9253 N   0  0  0  0  0  0  0  0  0  0  0  0
  152.6019  141.3106  158.6109 C   0  0  0  0  0  0  0  0  0  0  0  0
  153.4493  140.6724  159.2370 O   0  0  0  0  0  0  0  0  0  0  0  0
  151.9288  140.7230  157.3994 C   0  0  0  0  0  0  0  0  0  0  0  0
  150.6238  141.1403  157.0478 C   0  0  0  0  0  0  0  0  0  0  0  0
  150.0120  140.5910  155.8989 C   0  0  0  0  0  0  0  0  0  0  0  0
  148.7226  140.9599  155.4921 N   0  0  0  0  0  0  0  0  0  0  0  0
  148.0145  141.7844  156.4631 C   0  0  0  0  0  0  0  0  0  0  0  0
  146.5734  142.0367  155.9862 C   0  0  0  0  0  0  0  0  0  0  0  0
  146.5949  142.6238  154.6880 O   0  0  0  0  0  0  0  0  0  0  0  0
  147.2251  141.7786  153.7292 C   0  0  0  0  0  0  0  0  0  0  0  0
  148.6831  141.5212  154.1481 C   0  0  0  0  0  0  0  0  0  0  0  0
  150.7331  139.6474  155.1420 C   0  0  0  0  0  0  0  0  0  0  0  0
  152.0278  139.2943  155.5657 C   0  0  0  0  0  0  0  0  0  0  0  0
  152.6161  139.8155  156.6625 N   0  0  0  0  0  0  0  0  0  0  0  0
  151.0481  144.5979  158.2538 H   0  0  0  0  0  0  0  0  0  0  0  0
  150.9819  146.2267  159.1280 H   0  0  0  0  0  0  0  0  0  0  0  0
  152.4860  145.3985  160.8370 H   0  0  0  0  0  0  0  0  0  0  0  0
  153.8613  143.4148  159.9408 H   0  0  0  0  0  0  0  0  0  0  0  0
  152.8680  143.1812  162.2072 H   0  0  0  0  0  0  0  0  0  0  0  0
  152.8978  141.6324  161.3746 H   0  0  0  0  0  0  0  0  0  0  0  0
  151.3864  142.5289  161.5108 H   0  0  0  0  0  0  0  0  0  0  0  0
  151.5486  143.0130  158.3446 H   0  0  0  0  0  0  0  0  0  0  0  0
  150.0983  141.8698  157.6474 H   0  0  0  0  0  0  0  0  0  0  0  0
  148.0057  141.2867  157.4335 H   0  0  0  0  0  0  0  0  0  0  0  0
  148.5318  142.7361  156.5918 H   0  0  0  0  0  0  0  0  0  0  0  0
  146.0017  141.1075  155.9670 H   0  0  0  0  0  0  0  0  0  0  0  0
  146.0623  142.7111  156.6731 H   0  0  0  0  0  0  0  0  0  0  0  0
  146.6752  140.8405  153.6388 H   0  0  0  0  0  0  0  0  0  0  0  0
  147.1935  142.2619  152.7529 H   0  0  0  0  0  0  0  0  0  0  0  0
  149.2462  142.4553  154.1204 H   0  0  0  0  0  0  0  0  0  0  0  0
  149.1589  140.8353  153.4461 H   0  0  0  0  0  0  0  0  0  0  0  0
  150.3057  139.2026  154.2553 H   0  0  0  0  0  0  0  0  0  0  0  0
  152.6076  138.5742  155.0078 H   0  0  0  0  0  0  0  0  0  0  0  0
  1  2  2  0  0  0  0
  1 20  1  0  0  0  0
  1 21  1  0  0  0  0
  2  3  1  0  0  0  0
  2 22  1  0  0  0  0
  3  4  1  0  0  0  0
  3  5  1  0  0  0  0
  3 23  1  0  0  0  0
  4 24  1  0  0  0  0
  4 25  1  0  0  0  0
  4 26  1  0  0  0  0
  5  6  1  0  0  0  0
  5 27  1  0  0  0  0
  6  7  2  0  0  0  0
  6  8  1  0  0  0  0
  8 19  1  0  0  0  0
  8  9  2  0  0  0  0
  9 10  1  0  0  0  0
  9 28  1  0  0  0  0
 10 11  1  0  0  0  0
 10 17  2  0  0  0  0
 11 16  1  0  0  0  0
 11 12  1  0  0  0  0
 12 13  1  0  0  0  0
 12 29  1  0  0  0  0
 12 30  1  0  0  0  0
 13 14  1  0  0  0  0
 13 31  1  0  0  0  0
 13 32  1  0  0  0  0
 14 15  1  0  0  0  0
 15 16  1  0  0  0  0
 15 33  1  0  0  0  0
 15 34  1  0  0  0  0
 16 35  1  0  0  0  0
 16 36  1  0  0  0  0
 17 18  1  0  0  0  0
 17 37  1  0  0  0  0
 18 19  2  0  0  0  0
 18 38  1  0  0  0  0
M  END
> <s_m_source_file>
AV-unprocessed.smi

> <i_m_source_file_index>
2746

> <i_lp_mmshare_version>
43012

> <i_f3d_flags>
0

> <s_epik_input>
W0NIMl09W0NIXVtDQEhdKFtDSDNdKVtOSF1DKD1PKWMxW2NIXWMoW2NIXVtjSF1uMSlOMltDSDJdW0NIMl1PW0NIMl1bQ0gyXTI=

> <s_epik_cmdline>
J2VwaWtfcHl0aG9uJywgJy1waCcsICc3LjAnLCAnLXRuJywgJzgnLCAnLW1hJywgJzIwMCcsICctbWV0YWxfYmluZGluZycsICctaW1hZScsICc8aW5maWxlLm1hZT4nLCAnLW9tYWUnLCAnPG91dGZpbGUubWFlPic=

> <r_lp_tautomer_probability>
1

> <r_epik_Ionization_Penalty>
0.373275

> <r_epik_Ionization_Penalty_Charging>
0

> <r_epik_Ionization_Penalty_Neutral>
0.373275

> <r_epik_State_Penalty>
0.370855

> <r_epik_Charging_Adjusted_Penalty>
0.370855

> <i_epik_Tot_Q>
0

> <i_epik_Tot_abs_Q>
0

> <r_epik_Metal_State_Penalty>
0.225885

> <b_epik_Metal_Only>
0

> <s_lp_Force_Field>
OPLS_2005

> <r_lp_Energy>
21.8565

> <b_lp_Chiralities_Consistent>
1

> <s_lp_Variant>
AV-unprocessed.smi:2746-2

> <Gold.Version>
5.8.1

> <Gold.Id.Protein>
6NUR|6NUR_protein|mol2

> <Gold.PLP.Fitness>
41.7056

> <Gold.PLP.PLP>
-39.4775

> <Gold.PLP.part.hbond>
-1.1819

> <Gold.PLP.part.metal>
0.0000

> <Gold.PLP.part.buried>
-5.4862

> <Gold.PLP.part.nonpolar>
-32.4305

> <Gold.PLP.part.repulsive>
0.3241

> <Gold.PLP.ligand.clash>
0.0000

> <Gold.PLP.ligand.torsion>
0.4544

> <Gold.PLP.Chemscore.Hbond>
1.0000

> <Gold.PLP.Chemscore.CHOScore>
0.0000

> <Gold.PLP.Chemscore.Metal>
0.0000

> <Gold.Chemscore.Hbonds>
donor molecule, donor type, donor heavy atom, donor atom, acceptor molecule, acceptor atom, score
      P1  H  7997  8008       L1    19  1.00

> <Gold.PLP.Chemscore.Internal.Correction>
0.1370

> <Gold.Rescore>
     Score         DG    S(hbond)    S(metal)    S(lipo)     H(rot)  DE(clash)    DE(int)     intcor
     16.71     -17.30       0.89        0.00     103.56       1.27       0.08       0.50       ----

> <Gold.Chemscore.Fitness>
16.7066

> <Gold.Chemscore.DG>
-17.2957

> <Gold.Chemscore.ZeroCoef>
-5.4800

> <Gold.Chemscore.Hbond>
0.8867

> <Gold.Chemscore.Metal>
0.0000

> <Gold.Chemscore.Lipo>
103.5553

> <Gold.Chemscore.Internal_Hbond>
0.0000

> <Gold.Chemscore.DEClash>
0.0844

> <Gold.Chemscore.DEInternal>
0.5047

> <Gold.Chemscore.Rot>
1.2742

> <Gold.Chemscore.Internal.Correction>
   9.000000E+99

> <Gold.Chemscore.Hbonds>
donor molecule, donor type, donor heavy atom, donor atom, acceptor molecule, acceptor atom, score
      P1  H  7997  8008       L1    19  0.74

> <Gold.Chemscore.Hbond.Weighted>
-2.9616

> <Gold.Chemscore.Metal.Weighted>
-0.0000

> <Gold.Chemscore.Lipo.Weighted>
-12.1160

> <Gold.Chemscore.Internal_Hbond.Weighted>
0.0000

> <Gold.Chemscore.DEClash.Weighted>
0.0844

> <Gold.Chemscore.DEInternal.Weighted>
0.5047

> <Gold.Chemscore.Rot.Weighted>
3.2619

> <Gold.Chemscore.Internal.Correction.Weighted>
   9.000000E+99

> <Gold.Protein.RotatedTorsions>
[ 6907 6896 6895 6894 ] final   47.88 input  -60.11 | X-H torsion
[ 7974 7965 7964 7962 ] final  -16.24 input  175.53 | X-H torsion
[ 8008 7997 7996 7995 ] final  -44.69 input   59.86 | X-H torsion
[ 10167 10162 10161 10158 ] final   62.53 input  -65.29 | X-H torsion
[ 10718 10713 10712 10709 ] final   44.55 input   66.30 | X-H torsion
[ 10763 10752 10751 10750 ] final  -32.90 input  -60.55 | X-H torsion
[ 11005 11000 10999 10996 ] final  141.24 input  -57.11 | X-H torsion

> <Gold.Protein.ActiveResidues>
 VAL166  LYS551  ARG553  GLY616  TRP617  ASP618  TYR619  PRO620  LYS621  CYS622 
 ASP623  PHE694  ASN695  SER759  ASP760  ASP761  ALA762  ILE779  LEU786  VAL792 
 PHE793  MET794  SER795  GLU796  ALA797  LYS798  CYS799  TRP800  GLU811  SER814 

> <Gold.Protein.RotatedAtoms>
  152.2731  134.7911  160.0410 H   0  0  0  0  0  0  0  0  0  0  0  0  # atno 6907 bound_to 6896
  151.8517  133.3436  159.3683 H   0  0  0  0  0  0  0  0  0  0  0  0  # atno 6908 bound_to 6896
  150.7159  134.5221  159.5703 H   0  0  0  0  0  0  0  0  0  0  0  0  # atno 6909 bound_to 6896
  146.1996  140.3608  142.8428 H   0  0  0  0  0  0  0  0  0  0  0  0  # atno 7974 bound_to 7965
  154.3998  140.1415  156.3725 H   0  0  0  0  0  0  0  0  0  0  0  0  # atno 8008 bound_to 7997
  155.8079  140.3474  155.5420 H   0  0  0  0  0  0  0  0  0  0  0  0  # atno 8009 bound_to 7997
  155.8416  140.0927  157.1721 H   0  0  0  0  0  0  0  0  0  0  0  0  # atno 8010 bound_to 7997
  140.1429  144.4536  150.6801 H   0  0  0  0  0  0  0  0  0  0  0  0  # atno 10167 bound_to 10162
  157.4281  130.8008  149.7577 H   0  0  0  0  0  0  0  0  0  0  0  0  # atno 10718 bound_to 10713
  153.8214  135.6874  153.4826 H   0  0  0  0  0  0  0  0  0  0  0  0  # atno 10763 bound_to 10752
  153.1566  135.4596  154.9712 H   0  0  0  0  0  0  0  0  0  0  0  0  # atno 10764 bound_to 10752
  154.7926  135.3307  154.7686 H   0  0  0  0  0  0  0  0  0  0  0  0  # atno 10765 bound_to 10752
  140.0386  134.9316  157.0801 H   0  0  0  0  0  0  0  0  0  0  0  0  # atno 11005 bound_to 11000
  144.8655  140.7199  143.6080 LP  0  0  0  0  0  0  0  0  0  0  0  0  # atno 17320 bound_to 7965
  145.3528  139.1702  143.4425 LP  0  0  0  0  0  0  0  0  0  0  0  0  # atno 17321 bound_to 7965
  140.6750  143.2301  151.5531 LP  0  0  0  0  0  0  0  0  0  0  0  0  # atno 17342 bound_to 10162
  139.5463  144.2512  152.1448 LP  0  0  0  0  0  0  0  0  0  0  0  0  # atno 17343 bound_to 10162
  155.9903  130.3945  150.3033 LP  0  0  0  0  0  0  0  0  0  0  0  0  # atno 17370 bound_to 10713
  157.1187  131.0241  151.3018 LP  0  0  0  0  0  0  0  0  0  0  0  0  # atno 17371 bound_to 10713
  140.4106  134.1986  155.7163 LP  0  0  0  0  0  0  0  0  0  0  0  0  # atno 17394 bound_to 11000
  141.1871  133.8288  157.1044 LP  0  0  0  0  0  0  0  0  0  0  0  0  # atno 17395 bound_to 11000

$$$$
