AV-unprocessed.smi:1244|AV-procd|sdf|5230|dock7
  -GOLD-   22720 4333D 1   1.00000     0.00000
 Structure written by MMmdl.
 55 57  0  0  0  0  0  0  0  0  2 V2000
  151.0628  140.6296  157.5542 C   0  0  0  0  0  0  0  0  0  0  0  0
  151.5250  140.5295  156.0900 C   0  0  1  0  0  0  0  0  0  0  0  0
  151.7736  139.0786  155.6323 C   0  0  0  0  0  0  0  0  0  0  0  0
  150.5322  138.3377  155.4520 N   0  0  0  0  0  0  0  0  0  0  0  0
  150.7813  136.9470  155.0683 C   0  0  0  0  0  0  0  0  0  0  0  0
  149.6978  135.9438  155.5190 C   0  0  0  0  0  0  0  0  0  0  0  0
  149.2013  135.1535  154.3978 N   0  0  0  0  0  0  0  0  0  0  0  0
  149.1282  133.8166  154.3726 C   0  0  0  0  0  0  0  0  0  0  0  0
  149.6509  133.0798  155.2090 O   0  0  0  0  0  0  0  0  0  0  0  0
  148.3708  133.3952  153.3497 N   0  0  0  0  0  0  0  0  0  0  0  0
  147.8675  132.0811  153.1858 C   0  0  0  0  0  0  0  0  0  0  0  0
  148.6076  130.9819  153.6848 C   0  0  0  0  0  0  0  0  0  0  0  0
  148.1079  129.6755  153.5306 C   0  0  0  0  0  0  0  0  0  0  0  0
  146.8762  129.4938  152.8781 C   0  0  0  0  0  0  0  0  0  0  0  0
  146.2010  130.5644  152.4094 N   0  3  0  0  0  0  0  0  0  0  0  0
  146.6310  131.8467  152.5172 C   0  0  0  0  0  0  0  0  0  0  0  0
  145.8089  132.8725  151.9917 N   0  0  0  0  0  0  0  0  0  0  0  0
  146.3979  133.9014  151.1417 C   0  0  0  0  0  0  0  0  0  0  0  0
  145.2305  134.5391  150.3894 C   0  0  0  0  0  0  0  0  0  0  0  0
  144.2310  133.3957  150.2693 C   0  0  0  0  0  0  0  0  0  0  0  0
  144.4357  132.6045  151.5626 C   0  0  0  0  0  0  0  0  0  0  0  0
  149.6842  139.0476  154.5019 C   0  0  0  0  0  0  0  0  0  0  0  0
  149.3843  140.4819  154.9747 C   0  0  2  0  0  0  0  0  0  0  0  0
  148.5730  141.2725  153.9427 C   0  0  0  0  0  0  0  0  0  0  0  0
  150.6103  141.1761  155.2023 O   0  0  0  0  0  0  0  0  0  0  0  0
  151.8234  140.2371  158.2294 H   0  0  0  0  0  0  0  0  0  0  0  0
  150.1494  140.0630  157.7321 H   0  0  0  0  0  0  0  0  0  0  0  0
  150.8739  141.6660  157.8342 H   0  0  0  0  0  0  0  0  0  0  0  0
  152.4665  141.0740  156.0128 H   0  0  0  0  0  0  0  0  0  0  0  0
  152.3291  139.0900  154.6930 H   0  0  0  0  0  0  0  0  0  0  0  0
  152.4099  138.5725  156.3596 H   0  0  0  0  0  0  0  0  0  0  0  0
  150.9226  136.8756  153.9890 H   0  0  0  0  0  0  0  0  0  0  0  0
  151.7261  136.6286  155.5114 H   0  0  0  0  0  0  0  0  0  0  0  0
  150.1048  135.2581  156.2621 H   0  0  0  0  0  0  0  0  0  0  0  0
  148.8742  136.4678  156.0062 H   0  0  0  0  0  0  0  0  0  0  0  0
  148.7566  135.6669  153.6511 H   0  0  0  0  0  0  0  0  0  0  0  0
  147.9276  134.1141  152.7972 H   0  0  0  0  0  0  0  0  0  0  0  0
  149.5530  131.1348  154.1850 H   0  0  0  0  0  0  0  0  0  0  0  0
  148.6601  128.8279  153.9096 H   0  0  0  0  0  0  0  0  0  0  0  0
  146.4125  128.5314  152.7172 H   0  0  0  0  0  0  0  0  0  0  0  0
  146.9263  134.6607  151.7169 H   0  0  0  0  0  0  0  0  0  0  0  0
  147.1011  133.4407  150.4462 H   0  0  0  0  0  0  0  0  0  0  0  0
  144.7989  135.3438  150.9864 H   0  0  0  0  0  0  0  0  0  0  0  0
  145.5234  134.9551  149.4249 H   0  0  0  0  0  0  0  0  0  0  0  0
  143.2040  133.7379  150.1400 H   0  0  0  0  0  0  0  0  0  0  0  0
  144.4893  132.7732  149.4116 H   0  0  0  0  0  0  0  0  0  0  0  0
  144.2035  131.5526  151.4010 H   0  0  0  0  0  0  0  0  0  0  0  0
  143.7626  132.9701  152.3382 H   0  0  0  0  0  0  0  0  0  0  0  0
  150.1674  139.0740  153.5237 H   0  0  0  0  0  0  0  0  0  0  0  0
  148.7407  138.5183  154.3699 H   0  0  0  0  0  0  0  0  0  0  0  0
  148.8133  140.4450  155.9031 H   0  0  0  0  0  0  0  0  0  0  0  0
  147.6163  140.7899  153.7418 H   0  0  0  0  0  0  0  0  0  0  0  0
  149.1114  141.3562  152.9980 H   0  0  0  0  0  0  0  0  0  0  0  0
  148.3675  142.2820  154.2997 H   0  0  0  0  0  0  0  0  0  0  0  0
  145.3099  130.3971  151.9417 H   0  0  0  0  0  0  0  0  0  0  0  0
  1  2  1  0  0  0  0
  1 26  1  0  0  0  0
  1 27  1  0  0  0  0
  1 28  1  0  0  0  0
  2 25  1  0  0  0  0
  2  3  1  0  0  0  0
  2 29  1  0  0  0  0
  3  4  1  0  0  0  0
  3 30  1  0  0  0  0
  3 31  1  0  0  0  0
  4  5  1  0  0  0  0
  4 22  1  0  0  0  0
  5  6  1  0  0  0  0
  5 32  1  0  0  0  0
  5 33  1  0  0  0  0
  6  7  1  0  0  0  0
  6 34  1  0  0  0  0
  6 35  1  0  0  0  0
  7  8  1  0  0  0  0
  7 36  1  0  0  0  0
  8  9  2  0  0  0  0
  8 10  1  0  0  0  0
 10 11  1  0  0  0  0
 10 37  1  0  0  0  0
 11 16  1  0  0  0  0
 11 12  2  0  0  0  0
 12 13  1  0  0  0  0
 12 38  1  0  0  0  0
 13 14  2  0  0  0  0
 13 39  1  0  0  0  0
 14 15  1  0  0  0  0
 14 40  1  0  0  0  0
 15 16  2  0  0  0  0
 15 55  1  0  0  0  0
 16 17  1  0  0  0  0
 17 21  1  0  0  0  0
 17 18  1  0  0  0  0
 18 19  1  0  0  0  0
 18 41  1  0  0  0  0
 18 42  1  0  0  0  0
 19 20  1  0  0  0  0
 19 43  1  0  0  0  0
 19 44  1  0  0  0  0
 20 21  1  0  0  0  0
 20 45  1  0  0  0  0
 20 46  1  0  0  0  0
 21 47  1  0  0  0  0
 21 48  1  0  0  0  0
 22 23  1  0  0  0  0
 22 49  1  0  0  0  0
 22 50  1  0  0  0  0
 23 24  1  0  0  0  0
 23 25  1  0  0  0  0
 23 51  1  0  0  0  0
 24 52  1  0  0  0  0
 24 53  1  0  0  0  0
 24 54  1  0  0  0  0
M  CHG  1  15   1
M  END
> <s_m_source_file>
AV-unprocessed.smi

> <i_m_source_file_index>
1244

> <i_lp_mmshare_version>
43012

> <i_f3d_flags>
0

> <s_epik_input>
W0NIM11bQ0BASF0xW0NIMl1OKFtDSDJdW0NASF0oTzEpW0NIM10pW0NIMl1bQ0gyXVtOSF1DKD1PKVtOSF1jMltjSF1bY0hdW2NIXW5jMk4zW0NIMl1bQ0gyXVtDSDJdW0NIMl0z

> <s_epik_cmdline>
J2VwaWtfcHl0aG9uJywgJy1waCcsICc3LjAnLCAnLXRuJywgJzgnLCAnLW1hJywgJzIwMCcsICctbWV0YWxfYmluZGluZycsICctaW1hZScsICc8aW5maWxlLm1hZT4nLCAnLW9tYWUnLCAnPG91dGZpbGUubWFlPic=

> <r_epik_Ionization_Penalty>
1.38385

> <r_epik_Ionization_Penalty_Charging>
1.11784

> <r_epik_Ionization_Penalty_Neutral>
0.26601

> <r_epik_State_Penalty>
1.46794

> <r_epik_Charging_Adjusted_Penalty>
2.58578

> <i_epik_Tot_Q>
1

> <i_epik_Tot_abs_Q>
1

> <r_epik_Metal_State_Penalty>
1.54908

> <b_epik_Metal_Only>
0

> <s_lp_Force_Field>
OPLS_2005

> <r_lp_Energy>
60.8331

> <b_lp_Chiralities_Consistent>
1

> <s_lp_Variant>
AV-unprocessed.smi:1244-10

> <Gold.Version>
5.8.1

> <Gold.Id.Protein>
6NUR|6NUR_protein|mol2

> <Gold.PLP.Fitness>
46.8031

> <Gold.PLP.PLP>
-44.0372

> <Gold.PLP.part.hbond>
-2.4051

> <Gold.PLP.part.metal>
0.0000

> <Gold.PLP.part.buried>
-4.9534

> <Gold.PLP.part.nonpolar>
-37.1822

> <Gold.PLP.part.repulsive>
0.1764

> <Gold.PLP.ligand.clash>
0.0000

> <Gold.PLP.ligand.torsion>
1.3673

> <Gold.PLP.Chemscore.Hbond>
1.4880

> <Gold.PLP.Chemscore.CHOScore>
0.0000

> <Gold.PLP.Chemscore.Metal>
0.0000

> <Gold.Chemscore.Hbonds>
donor molecule, donor type, donor heavy atom, donor atom, acceptor molecule, acceptor atom, score
      L1  H     7    36       P1  7948  0.85
      P1  H  7989  7998       L1    25  0.56

> <Gold.PLP.Chemscore.Internal.Correction>
1.0364

> <Gold.Rescore>
     Score         DG    S(hbond)    S(metal)    S(lipo)     H(rot)  DE(clash)    DE(int)     intcor
     12.27     -15.85       0.81        0.00      96.04       1.40       0.01       3.57       ----

> <Gold.Chemscore.Fitness>
12.2668

> <Gold.Chemscore.DG>
-15.8474

> <Gold.Chemscore.ZeroCoef>
-5.4800

> <Gold.Chemscore.Hbond>
0.8145

> <Gold.Chemscore.Metal>
0.0000

> <Gold.Chemscore.Lipo>
96.0420

> <Gold.Chemscore.Internal_Hbond>
0.0000

> <Gold.Chemscore.DEClash>
0.0121

> <Gold.Chemscore.DEInternal>
3.5685

> <Gold.Chemscore.Rot>
1.4023

> <Gold.Chemscore.Internal.Correction>
   9.000000E+99

> <Gold.Chemscore.Hbonds>
donor molecule, donor type, donor heavy atom, donor atom, acceptor molecule, acceptor atom, score
      L1  H     7    36       P1  7948  0.81
      P1  H  7989  7998       L1    25  0.05

> <Gold.Chemscore.Hbond.Weighted>
-2.7204

> <Gold.Chemscore.Metal.Weighted>
-0.0000

> <Gold.Chemscore.Lipo.Weighted>
-11.2369

> <Gold.Chemscore.Internal_Hbond.Weighted>
0.0000

> <Gold.Chemscore.DEClash.Weighted>
0.0121

> <Gold.Chemscore.DEInternal.Weighted>
3.5685

> <Gold.Chemscore.Rot.Weighted>
3.5899

> <Gold.Chemscore.Internal.Correction.Weighted>
   9.000000E+99

> <Gold.Protein.RotatedTorsions>
[ 6907 6896 6895 6894 ] final  -89.04 input  -60.11 | X-H torsion
[ 7974 7965 7964 7962 ] final   -4.38 input  175.53 | X-H torsion
[ 8008 7997 7996 7995 ] final  -95.42 input   59.86 | X-H torsion
[ 10167 10162 10161 10158 ] final  -45.84 input  -65.29 | X-H torsion
[ 10718 10713 10712 10709 ] final   82.67 input   66.30 | X-H torsion
[ 10763 10752 10751 10750 ] final  -96.60 input  -60.55 | X-H torsion
[ 11005 11000 10999 10996 ] final   32.00 input  -57.11 | X-H torsion

> <Gold.Protein.ActiveResidues>
 VAL166  LYS551  ARG553  GLY616  TRP617  ASP618  TYR619  PRO620  LYS621  CYS622 
 ASP623  PHE694  ASN695  SER759  ASP760  ASP761  ALA762  ILE779  LEU786  VAL792 
 PHE793  MET794  SER795  GLU796  ALA797  LYS798  CYS799  TRP800  GLU811  SER814 

> <Gold.Protein.RotatedAtoms>
  150.6871  134.2649  159.4564 H   0  0  0  0  0  0  0  0  0  0  0  0  # atno 6907 bound_to 6896
  152.0576  134.9612  160.0584 H   0  0  0  0  0  0  0  0  0  0  0  0  # atno 6908 bound_to 6896
  152.1052  133.4236  159.4642 H   0  0  0  0  0  0  0  0  0  0  0  0  # atno 6909 bound_to 6896
  146.2373  140.1862  142.8332 H   0  0  0  0  0  0  0  0  0  0  0  0  # atno 7974 bound_to 7965
  154.7611  140.0480  157.0974 H   0  0  0  0  0  0  0  0  0  0  0  0  # atno 8008 bound_to 7997
  154.9937  140.3116  155.4876 H   0  0  0  0  0  0  0  0  0  0  0  0  # atno 8009 bound_to 7997
  156.2904  140.2214  156.5043 H   0  0  0  0  0  0  0  0  0  0  0  0  # atno 8010 bound_to 7997
  140.6842  143.2859  151.3697 H   0  0  0  0  0  0  0  0  0  0  0  0  # atno 10167 bound_to 10162
  157.6862  131.0058  150.2409 H   0  0  0  0  0  0  0  0  0  0  0  0  # atno 10718 bound_to 10713
  154.7254  135.5077  153.8877 H   0  0  0  0  0  0  0  0  0  0  0  0  # atno 10763 bound_to 10752
  153.0900  135.6656  153.9882 H   0  0  0  0  0  0  0  0  0  0  0  0  # atno 10764 bound_to 10752
  153.9695  135.3040  155.3407 H   0  0  0  0  0  0  0  0  0  0  0  0  # atno 10765 bound_to 10752
  140.2780  134.3005  155.7808 H   0  0  0  0  0  0  0  0  0  0  0  0  # atno 11005 bound_to 11000
  144.9894  140.8533  143.5348 LP  0  0  0  0  0  0  0  0  0  0  0  0  # atno 17320 bound_to 7965
  145.1866  139.2323  143.5264 LP  0  0  0  0  0  0  0  0  0  0  0  0  # atno 17321 bound_to 7965
  139.6187  144.0951  152.2370 LP  0  0  0  0  0  0  0  0  0  0  0  0  # atno 17342 bound_to 10162
  140.0389  144.6023  150.7427 LP  0  0  0  0  0  0  0  0  0  0  0  0  # atno 17343 bound_to 10162
  156.3023  130.3760  149.7738 LP  0  0  0  0  0  0  0  0  0  0  0  0  # atno 17370 bound_to 10713
  156.5364  130.8280  151.3254 LP  0  0  0  0  0  0  0  0  0  0  0  0  # atno 17371 bound_to 10713
  141.2167  133.7508  156.9437 LP  0  0  0  0  0  0  0  0  0  0  0  0  # atno 17394 bound_to 11000
  140.1310  134.9356  157.2337 LP  0  0  0  0  0  0  0  0  0  0  0  0  # atno 17395 bound_to 11000

$$$$
