AV-unprocessed.smi:1983|AV-procd|sdf|8032|dock3
  -GOLD-   2272010223D 1   1.00000     0.00000
 Structure written by MMmdl.
 49 50  0  0  0  0  0  0  0  0  1 V2000
  150.0454  133.6643  154.9457 C   0  0  0  0  0  0  0  0  0  0  0  0
  149.8859  135.0187  155.6598 C   0  0  2  0  0  0  0  0  0  0  0  0
  148.9263  134.9713  156.8633 C   0  0  0  0  0  0  0  0  0  0  0  0
  149.6072  135.2023  158.0804 O   0  0  0  0  0  0  0  0  0  0  0  0
  149.4670  136.0655  154.7317 N   0  0  0  0  0  0  0  0  0  0  0  0
  149.1790  137.3312  155.0650 C   0  0  0  0  0  0  0  0  0  0  0  0
  149.2191  137.7704  156.2146 O   0  0  0  0  0  0  0  0  0  0  0  0
  148.8519  138.0649  153.9923 N   0  0  0  0  0  0  0  0  0  0  0  0
  148.5141  139.4844  154.0261 C   0  0  0  0  0  0  0  0  0  0  0  0
  149.2638  140.2830  155.0836 C   0  0  0  0  0  0  0  0  0  0  0  0
  150.6635  140.1774  155.1914 C   0  0  0  0  0  0  0  0  0  0  0  0
  151.3348  140.9237  156.1786 C   0  0  0  0  0  0  0  0  0  0  0  0
  150.5846  141.7620  157.0420 C   0  0  0  0  0  0  0  0  0  0  0  0
  151.1918  142.5337  158.0579 N   0  0  0  0  0  0  0  0  0  0  0  0
  152.0667  141.8679  159.0168 C   0  0  0  0  0  0  0  0  0  0  0  0
  152.3096  142.7672  160.2418 C   0  0  1  0  0  0  0  0  0  0  0  0
  153.3372  142.1588  161.2019 C   0  0  0  0  0  0  0  0  0  0  0  0
  152.8006  144.0370  159.8162 O   0  0  0  0  0  0  0  0  0  0  0  0
  151.9413  144.7364  158.9136 C   0  0  2  0  0  0  0  0  0  0  0  0
  150.6714  145.2633  159.6060 C   0  0  0  0  0  0  0  0  0  0  0  0
  151.6475  143.8688  157.6740 C   0  0  0  0  0  0  0  0  0  0  0  0
  149.2366  141.8523  156.9388 N   0  0  0  0  0  0  0  0  0  0  0  0
  148.5989  141.1345  155.9911 C   0  0  0  0  0  0  0  0  0  0  0  0
  150.3448  132.8860  155.6478 H   0  0  0  0  0  0  0  0  0  0  0  0
  150.8092  133.7159  154.1691 H   0  0  0  0  0  0  0  0  0  0  0  0
  149.1159  133.3468  154.4721 H   0  0  0  0  0  0  0  0  0  0  0  0
  150.8634  135.2990  156.0567 H   0  0  0  0  0  0  0  0  0  0  0  0
  148.1578  135.7372  156.7550 H   0  0  0  0  0  0  0  0  0  0  0  0
  148.4108  134.0115  156.9126 H   0  0  0  0  0  0  0  0  0  0  0  0
  149.0894  135.7915  158.6073 H   0  0  0  0  0  0  0  0  0  0  0  0
  149.4085  135.8049  153.7581 H   0  0  0  0  0  0  0  0  0  0  0  0
  148.8470  137.6146  153.0888 H   0  0  0  0  0  0  0  0  0  0  0  0
  148.7448  139.9115  153.0501 H   0  0  0  0  0  0  0  0  0  0  0  0
  147.4382  139.6005  154.1677 H   0  0  0  0  0  0  0  0  0  0  0  0
  151.2206  139.5368  154.5238 H   0  0  0  0  0  0  0  0  0  0  0  0
  152.4092  140.8448  156.2436 H   0  0  0  0  0  0  0  0  0  0  0  0
  151.6180  140.9326  159.3528 H   0  0  0  0  0  0  0  0  0  0  0  0
  153.0121  141.6255  158.5294 H   0  0  0  0  0  0  0  0  0  0  0  0
  151.3761  142.8984  160.7892 H   0  0  0  0  0  0  0  0  0  0  0  0
  153.0057  141.1862  161.5666 H   0  0  0  0  0  0  0  0  0  0  0  0
  153.4901  142.8035  162.0676 H   0  0  0  0  0  0  0  0  0  0  0  0
  154.3021  142.0227  160.7130 H   0  0  0  0  0  0  0  0  0  0  0  0
  152.5012  145.6101  158.5794 H   0  0  0  0  0  0  0  0  0  0  0  0
  150.1052  145.9072  158.9328 H   0  0  0  0  0  0  0  0  0  0  0  0
  150.9252  145.8509  160.4885 H   0  0  0  0  0  0  0  0  0  0  0  0
  150.0053  144.4594  159.9176 H   0  0  0  0  0  0  0  0  0  0  0  0
  152.5563  143.7580  157.0814 H   0  0  0  0  0  0  0  0  0  0  0  0
  150.9234  144.3833  157.0420 H   0  0  0  0  0  0  0  0  0  0  0  0
  147.5251  141.2466  155.9630 H   0  0  0  0  0  0  0  0  0  0  0  0
  1  2  1  0  0  0  0
  1 24  1  0  0  0  0
  1 25  1  0  0  0  0
  1 26  1  0  0  0  0
  2  3  1  0  0  0  0
  2  5  1  0  0  0  0
  2 27  1  0  0  0  0
  3  4  1  0  0  0  0
  3 28  1  0  0  0  0
  3 29  1  0  0  0  0
  4 30  1  0  0  0  0
  5  6  1  0  0  0  0
  5 31  1  0  0  0  0
  6  7  2  0  0  0  0
  6  8  1  0  0  0  0
  8  9  1  0  0  0  0
  8 32  1  0  0  0  0
  9 10  1  0  0  0  0
  9 33  1  0  0  0  0
  9 34  1  0  0  0  0
 10 23  1  0  0  0  0
 10 11  2  0  0  0  0
 11 12  1  0  0  0  0
 11 35  1  0  0  0  0
 12 13  2  0  0  0  0
 12 36  1  0  0  0  0
 13 14  1  0  0  0  0
 13 22  1  0  0  0  0
 14 21  1  0  0  0  0
 14 15  1  0  0  0  0
 15 16  1  0  0  0  0
 15 37  1  0  0  0  0
 15 38  1  0  0  0  0
 16 17  1  0  0  0  0
 16 18  1  0  0  0  0
 16 39  1  0  0  0  0
 17 40  1  0  0  0  0
 17 41  1  0  0  0  0
 17 42  1  0  0  0  0
 18 19  1  0  0  0  0
 19 20  1  0  0  0  0
 19 21  1  0  0  0  0
 19 43  1  0  0  0  0
 20 44  1  0  0  0  0
 20 45  1  0  0  0  0
 20 46  1  0  0  0  0
 21 47  1  0  0  0  0
 21 48  1  0  0  0  0
 22 23  2  0  0  0  0
 23 49  1  0  0  0  0
M  END
> <s_m_source_file>
AV-unprocessed.smi

> <i_m_source_file_index>
1983

> <i_lp_mmshare_version>
43012

> <i_f3d_flags>
0

> <s_epik_input>
W09IXVtDSDJdW0NAQEhdKFtDSDNdKVtOSF1DKD1PKVtOSF1bQ0gyXWMxW2NIXVtjSF1jKG5bY0hdMSlOMltDSDJdW0NAQEhdKFtDSDNdKU9bQ0BASF0oW0NIM10pW0NIMl0y

> <s_epik_cmdline>
J2VwaWtfcHl0aG9uJywgJy1waCcsICc3LjAnLCAnLXRuJywgJzgnLCAnLW1hJywgJzIwMCcsICctbWV0YWxfYmluZGluZycsICctaW1hZScsICc8aW5maWxlLm1hZT4nLCAnLW9tYWUnLCAnPG91dGZpbGUubWFlPic=

> <r_lp_tautomer_probability>
1

> <r_epik_Ionization_Penalty>
0.00801967

> <r_epik_Ionization_Penalty_Charging>
0

> <r_epik_Ionization_Penalty_Neutral>
0.00801967

> <r_epik_State_Penalty>
0.00598289

> <r_epik_Charging_Adjusted_Penalty>
0.00598289

> <i_epik_Tot_Q>
0

> <i_epik_Tot_abs_Q>
0

> <r_epik_Metal_State_Penalty>
0.00590297

> <b_epik_Metal_Only>
0

> <s_lp_Force_Field>
OPLS_2005

> <r_lp_Energy>
17.8108

> <b_lp_Chiralities_Consistent>
1

> <s_lp_Variant>
AV-unprocessed.smi:1983-5

> <Gold.Version>
5.8.1

> <Gold.Id.Protein>
6NUR|6NUR_protein|mol2

> <Gold.PLP.Fitness>
49.1222

> <Gold.PLP.PLP>
-42.5685

> <Gold.PLP.part.hbond>
-3.0000

> <Gold.PLP.part.metal>
0.0000

> <Gold.PLP.part.buried>
-4.2240

> <Gold.PLP.part.nonpolar>
-35.7512

> <Gold.PLP.part.repulsive>
0.2566

> <Gold.PLP.ligand.clash>
0.0000

> <Gold.PLP.ligand.torsion>
1.4819

> <Gold.PLP.Chemscore.Hbond>
3.0000

> <Gold.PLP.Chemscore.CHOScore>
0.0000

> <Gold.PLP.Chemscore.Metal>
0.0000

> <Gold.Chemscore.Hbonds>
donor molecule, donor type, donor heavy atom, donor atom, acceptor molecule, acceptor atom, score
      L1  H     5    31       P1  7948  1.00
      L1  H     8    32       P1  7948  1.00
      P1  H  6896  6909       L1     4  1.00

> <Gold.PLP.Chemscore.Internal.Correction>
0.5176

> <Gold.Rescore>
     Score         DG    S(hbond)    S(metal)    S(lipo)     H(rot)  DE(clash)    DE(int)     intcor
     14.07     -19.50       2.42        0.00     107.82       2.61       0.07       5.35       ----

> <Gold.Chemscore.Fitness>
14.0705

> <Gold.Chemscore.DG>
-19.4954

> <Gold.Chemscore.ZeroCoef>
-5.4800

> <Gold.Chemscore.Hbond>
2.4197

> <Gold.Chemscore.Metal>
0.0000

> <Gold.Chemscore.Lipo>
107.8157

> <Gold.Chemscore.Internal_Hbond>
0.0000

> <Gold.Chemscore.DEClash>
0.0727

> <Gold.Chemscore.DEInternal>
5.3522

> <Gold.Chemscore.Rot>
2.6097

> <Gold.Chemscore.Internal.Correction>
   9.000000E+99

> <Gold.Chemscore.Hbonds>
donor molecule, donor type, donor heavy atom, donor atom, acceptor molecule, acceptor atom, score
      L1  H     5    31       P1  7948  0.47
      L1  H     8    32       P1  7948  0.99
      P1  H  6896  6909       L1     4  0.34

> <Gold.Chemscore.Hbond.Weighted>
-8.0819

> <Gold.Chemscore.Metal.Weighted>
-0.0000

> <Gold.Chemscore.Lipo.Weighted>
-12.6144

> <Gold.Chemscore.Internal_Hbond.Weighted>
0.0000

> <Gold.Chemscore.DEClash.Weighted>
0.0727

> <Gold.Chemscore.DEInternal.Weighted>
5.3522

> <Gold.Chemscore.Rot.Weighted>
6.6809

> <Gold.Chemscore.Internal.Correction.Weighted>
   9.000000E+99

> <Gold.Protein.RotatedTorsions>
[ 6907 6896 6895 6894 ] final   31.51 input  -60.11 | X-H torsion
[ 7974 7965 7964 7962 ] final  -84.00 input  175.53 | X-H torsion
[ 8008 7997 7996 7995 ] final   -2.02 input   59.86 | X-H torsion
[ 10167 10162 10161 10158 ] final  -62.13 input  -65.29 | X-H torsion
[ 10718 10713 10712 10709 ] final  129.76 input   66.30 | X-H torsion
[ 10763 10752 10751 10750 ] final   40.49 input  -60.55 | X-H torsion
[ 11005 11000 10999 10996 ] final  126.86 input  -57.11 | X-H torsion

> <Gold.Protein.ActiveResidues>
 VAL166  LYS551  ARG553  GLY616  TRP617  ASP618  TYR619  PRO620  LYS621  CYS622 
 ASP623  PHE694  ASN695  SER759  ASP760  ASP761  ALA762  ILE779  LEU786  VAL792 
 PHE793  MET794  SER795  GLU796  ALA797  LYS798  CYS799  TRP800  GLU811  SER814 

> <Gold.Protein.RotatedAtoms>
  152.0613  134.9593  160.0574 H   0  0  0  0  0  0  0  0  0  0  0  0  # atno 6907 bound_to 6896
  152.0955  133.4217  159.4571 H   0  0  0  0  0  0  0  0  0  0  0  0  # atno 6908 bound_to 6896
  150.6838  134.2741  159.4643 H   0  0  0  0  0  0  0  0  0  0  0  0  # atno 6909 bound_to 6896
  145.5125  140.9539  143.1699 H   0  0  0  0  0  0  0  0  0  0  0  0  # atno 7974 bound_to 7965
  154.6403  140.2545  155.7330 H   0  0  0  0  0  0  0  0  0  0  0  0  # atno 8008 bound_to 7997
  156.2525  140.2889  156.0714 H   0  0  0  0  0  0  0  0  0  0  0  0  # atno 8009 bound_to 7997
  155.1607  140.0384  157.2832 H   0  0  0  0  0  0  0  0  0  0  0  0  # atno 8010 bound_to 7997
  140.5960  143.2351  151.6036 H   0  0  0  0  0  0  0  0  0  0  0  0  # atno 10167 bound_to 10162
  157.5124  131.1097  150.9273 H   0  0  0  0  0  0  0  0  0  0  0  0  # atno 10718 bound_to 10713
  152.9935  135.6190  154.2635 H   0  0  0  0  0  0  0  0  0  0  0  0  # atno 10763 bound_to 10752
  154.2370  135.2790  155.2870 H   0  0  0  0  0  0  0  0  0  0  0  0  # atno 10764 bound_to 10752
  154.5401  135.5763  153.6890 H   0  0  0  0  0  0  0  0  0  0  0  0  # atno 10765 bound_to 10752
  139.9477  134.9627  156.8769 H   0  0  0  0  0  0  0  0  0  0  0  0  # atno 11005 bound_to 11000
  144.7720  139.6714  143.7191 LP  0  0  0  0  0  0  0  0  0  0  0  0  # atno 17320 bound_to 7965
  146.2158  139.5546  142.9651 LP  0  0  0  0  0  0  0  0  0  0  0  0  # atno 17321 bound_to 7965
  139.5258  144.3063  152.1031 LP  0  0  0  0  0  0  0  0  0  0  0  0  # atno 17342 bound_to 10162
  140.2236  144.4441  150.6331 LP  0  0  0  0  0  0  0  0  0  0  0  0  # atno 17343 bound_to 10162
  156.9910  130.5563  149.5303 LP  0  0  0  0  0  0  0  0  0  0  0  0  # atno 17370 bound_to 10713
  156.0298  130.5390  150.8503 LP  0  0  0  0  0  0  0  0  0  0  0  0  # atno 17371 bound_to 10713
  140.5794  134.0367  155.7458 LP  0  0  0  0  0  0  0  0  0  0  0  0  # atno 17394 bound_to 11000
  141.1132  133.9582  157.2871 LP  0  0  0  0  0  0  0  0  0  0  0  0  # atno 17395 bound_to 11000

$$$$
