AV-unprocessed.smi:2749|AV-procd|sdf|10586|dock2
  -GOLD-   2272015 33D 1   1.00000     0.00000
 Structure written by MMmdl.
 32 34  0  0  0  0  0  0  0  0  1 V2000
  150.9499  140.5892  156.5136 O   0  0  0  0  0  0  0  0  0  0  0  0
  150.3785  141.6750  156.4316 C   0  0  0  0  0  0  0  0  0  0  0  0
  149.2803  141.8312  155.6620 N   0  0  0  0  0  0  0  0  0  0  0  0
  148.5657  140.9042  154.8476 C   0  0  0  0  0  0  0  0  0  0  0  0
  147.4453  141.4500  154.1802 C   0  0  0  0  0  0  0  0  0  0  0  0
  146.6707  140.6309  153.3356 C   0  0  0  0  0  0  0  0  0  0  0  0
  147.0416  139.2844  153.1749 C   0  0  0  0  0  0  0  0  0  0  0  0
  146.3287  138.4585  152.3731 F   0  0  0  0  0  0  0  0  0  0  0  0
  148.1733  138.8182  153.8683 C   0  0  0  0  0  0  0  0  0  0  0  0
  148.9149  139.6026  154.6790 N   0  0  0  0  0  0  0  0  0  0  0  0
  150.8037  142.7696  157.0817 N   0  0  0  0  0  0  0  0  0  0  0  0
  151.9416  142.8211  157.9937 C   0  0  1  0  0  0  0  0  0  0  0  0
  152.5571  144.2218  158.0580 C   0  0  0  0  0  0  0  0  0  0  0  0
  152.4305  144.5583  159.5498 C   0  0  1  0  0  0  0  0  0  0  0  0
  150.9774  144.8468  159.9529 C   0  0  0  0  0  0  0  0  0  0  0  0
  150.3652  143.4472  159.9386 C   0  0  0  0  0  0  0  0  0  0  0  0
  151.5539  142.5909  159.4693 C   0  0  2  0  0  0  0  0  0  0  0  0
  152.6132  143.2733  160.1192 O   0  0  0  0  0  0  0  0  0  0  0  0
  148.9384  142.7797  155.6111 H   0  0  0  0  0  0  0  0  0  0  0  0
  147.1760  142.4880  154.3128 H   0  0  0  0  0  0  0  0  0  0  0  0
  145.8094  141.0299  152.8206 H   0  0  0  0  0  0  0  0  0  0  0  0
  148.4927  137.7913  153.7710 H   0  0  0  0  0  0  0  0  0  0  0  0
  150.2774  143.6233  156.9598 H   0  0  0  0  0  0  0  0  0  0  0  0
  152.7066  142.1046  157.6886 H   0  0  0  0  0  0  0  0  0  0  0  0
  153.6057  144.1873  157.7603 H   0  0  0  0  0  0  0  0  0  0  0  0
  152.0522  144.9552  157.4272 H   0  0  0  0  0  0  0  0  0  0  0  0
  153.1422  145.3088  159.8947 H   0  0  0  0  0  0  0  0  0  0  0  0
  150.9270  145.2761  160.9541 H   0  0  0  0  0  0  0  0  0  0  0  0
  150.4848  145.5308  159.2610 H   0  0  0  0  0  0  0  0  0  0  0  0
  150.0644  143.1580  160.9461 H   0  0  0  0  0  0  0  0  0  0  0  0
  149.4887  143.3692  159.2951 H   0  0  0  0  0  0  0  0  0  0  0  0
  151.4705  141.5386  159.7423 H   0  0  0  0  0  0  0  0  0  0  0  0
  1  2  2  0  0  0  0
  2  3  1  0  0  0  0
  2 11  1  0  0  0  0
  3  4  1  0  0  0  0
  3 19  1  0  0  0  0
  4 10  1  0  0  0  0
  4  5  2  0  0  0  0
  5  6  1  0  0  0  0
  5 20  1  0  0  0  0
  6  7  2  0  0  0  0
  6 21  1  0  0  0  0
  7  8  1  0  0  0  0
  7  9  1  0  0  0  0
  9 10  2  0  0  0  0
  9 22  1  0  0  0  0
 11 12  1  0  0  0  0
 11 23  1  0  0  0  0
 12 17  1  0  0  0  0
 12 13  1  0  0  0  0
 12 24  1  0  0  0  0
 13 14  1  0  0  0  0
 13 25  1  0  0  0  0
 13 26  1  0  0  0  0
 14 18  1  0  0  0  0
 14 15  1  0  0  0  0
 14 27  1  0  0  0  0
 15 16  1  0  0  0  0
 15 28  1  0  0  0  0
 15 29  1  0  0  0  0
 16 17  1  0  0  0  0
 16 30  1  0  0  0  0
 16 31  1  0  0  0  0
 17 18  1  0  0  0  0
 17 32  1  0  0  0  0
M  END
> <s_m_source_file>
AV-unprocessed.smi

> <i_m_source_file_index>
2749

> <i_lp_mmshare_version>
43012

> <i_f3d_flags>
0

> <s_epik_input>
W0NIMl0xW0NIMl1bQ0BIXShPMilbQ0BASF0oW0NIMl1bQ0BASF0xMilbTkhdQyg9TylbTkhdYzNbY0hdW2NIXWMoRilbY0hdbjM=

> <s_epik_cmdline>
J2VwaWtfcHl0aG9uJywgJy1waCcsICc3LjAnLCAnLXRuJywgJzgnLCAnLW1hJywgJzIwMCcsICctbWV0YWxfYmluZGluZycsICctaW1hZScsICc8aW5maWxlLm1hZT4nLCAnLW9tYWUnLCAnPG91dGZpbGUubWFlPic=

> <r_lp_tautomer_probability>
1

> <r_epik_Ionization_Penalty>
3.37159e-05

> <r_epik_Ionization_Penalty_Charging>
0

> <r_epik_Ionization_Penalty_Neutral>
3.37159e-05

> <r_epik_State_Penalty>
-0

> <r_epik_Charging_Adjusted_Penalty>
0

> <i_epik_Tot_Q>
0

> <i_epik_Tot_abs_Q>
0

> <r_epik_Metal_State_Penalty>
-0

> <b_epik_Metal_Only>
0

> <s_lp_Force_Field>
OPLS_2005

> <r_lp_Energy>
40.3406

> <b_lp_Chiralities_Consistent>
1

> <s_lp_Variant>
AV-unprocessed.smi:2749-2

> <Gold.Version>
5.8.1

> <Gold.Id.Protein>
6NUR|6NUR_protein|mol2

> <Gold.PLP.Fitness>
45.8559

> <Gold.PLP.PLP>
-37.8789

> <Gold.PLP.part.hbond>
-2.0000

> <Gold.PLP.part.metal>
0.0000

> <Gold.PLP.part.buried>
-3.7025

> <Gold.PLP.part.nonpolar>
-33.4231

> <Gold.PLP.part.repulsive>
0.3504

> <Gold.PLP.ligand.clash>
0.0000

> <Gold.PLP.ligand.torsion>
0.3653

> <Gold.PLP.Chemscore.Hbond>
1.8960

> <Gold.PLP.Chemscore.CHOScore>
1.0000

> <Gold.PLP.Chemscore.Metal>
0.0000

> <Gold.Chemscore.Hbonds>
donor molecule, donor type, donor heavy atom, donor atom, acceptor molecule, acceptor atom, score
      L1  H     3    19       P1  8028  1.00
      L1  H    11    23       P1  8028  0.57
      L1  C     9    22       P1  7948  1.00

> <Gold.PLP.Chemscore.Internal.Correction>
0.0197

> <Gold.Rescore>
     Score         DG    S(hbond)    S(metal)    S(lipo)     H(rot)  DE(clash)    DE(int)     intcor
     15.84     -20.69       1.93        0.00      96.63       1.00       3.50       1.35       ----

> <Gold.Chemscore.Fitness>
15.8359

> <Gold.Chemscore.DG>
-20.6869

> <Gold.Chemscore.ZeroCoef>
-5.4800

> <Gold.Chemscore.Hbond>
1.9347

> <Gold.Chemscore.Metal>
0.0000

> <Gold.Chemscore.Lipo>
96.6252

> <Gold.Chemscore.Internal_Hbond>
0.0000

> <Gold.Chemscore.DEClash>
3.5018

> <Gold.Chemscore.DEInternal>
1.3492

> <Gold.Chemscore.Rot>
1.0000

> <Gold.Chemscore.Internal.Correction>
   9.000000E+99

> <Gold.Chemscore.Hbonds>
donor molecule, donor type, donor heavy atom, donor atom, acceptor molecule, acceptor atom, score
      L1  H     3    19       P1  8028  0.99
      L1  H    11    23       P1  8028  0.54

> <Gold.Chemscore.Hbond.Weighted>
-6.4617

> <Gold.Chemscore.Metal.Weighted>
-0.0000

> <Gold.Chemscore.Lipo.Weighted>
-11.3051

> <Gold.Chemscore.Internal_Hbond.Weighted>
0.0000

> <Gold.Chemscore.DEClash.Weighted>
3.5018

> <Gold.Chemscore.DEInternal.Weighted>
1.3492

> <Gold.Chemscore.Rot.Weighted>
2.5600

> <Gold.Chemscore.Internal.Correction.Weighted>
   9.000000E+99

> <Gold.Protein.RotatedTorsions>
[ 6907 6896 6895 6894 ] final   -0.27 input  -60.11 | X-H torsion
[ 7974 7965 7964 7962 ] final  -21.42 input  175.53 | X-H torsion
[ 8008 7997 7996 7995 ] final   69.67 input   59.86 | X-H torsion
[ 10167 10162 10161 10158 ] final  141.45 input  -65.29 | X-H torsion
[ 10718 10713 10712 10709 ] final  177.50 input   66.30 | X-H torsion
[ 10763 10752 10751 10750 ] final -101.69 input  -60.55 | X-H torsion
[ 11005 11000 10999 10996 ] final  107.81 input  -57.11 | X-H torsion

> <Gold.Protein.ActiveResidues>
 VAL166  LYS551  ARG553  GLY616  TRP617  ASP618  TYR619  PRO620  LYS621  CYS622 
 ASP623  PHE694  ASN695  SER759  ASP760  ASP761  ALA762  ILE779  LEU786  VAL792 
 PHE793  MET794  SER795  GLU796  ALA797  LYS798  CYS799  TRP800  GLU811  SER814 

> <Gold.Protein.RotatedAtoms>
  151.5650  135.1064  159.9981 H   0  0  0  0  0  0  0  0  0  0  0  0  # atno 6907 bound_to 6896
  152.4428  133.7476  159.6687 H   0  0  0  0  0  0  0  0  0  0  0  0  # atno 6908 bound_to 6896
  150.8337  133.7979  159.3111 H   0  0  0  0  0  0  0  0  0  0  0  0  # atno 6909 bound_to 6896
  146.1733  140.4339  142.8523 H   0  0  0  0  0  0  0  0  0  0  0  0  # atno 7974 bound_to 7965
  155.7272  140.3492  155.5043 H   0  0  0  0  0  0  0  0  0  0  0  0  # atno 8008 bound_to 7997
  155.9216  140.1068  157.1224 H   0  0  0  0  0  0  0  0  0  0  0  0  # atno 8009 bound_to 7997
  154.4070  140.1248  156.4673 H   0  0  0  0  0  0  0  0  0  0  0  0  # atno 8010 bound_to 7997
  139.5020  144.6171  151.6139 H   0  0  0  0  0  0  0  0  0  0  0  0  # atno 10167 bound_to 10162
  156.9045  130.9889  151.3030 H   0  0  0  0  0  0  0  0  0  0  0  0  # atno 10718 bound_to 10713
  154.7677  135.4888  153.9586 H   0  0  0  0  0  0  0  0  0  0  0  0  # atno 10763 bound_to 10752
  153.1328  135.6756  153.9158 H   0  0  0  0  0  0  0  0  0  0  0  0  # atno 10764 bound_to 10752
  153.8857  135.3127  155.3425 H   0  0  0  0  0  0  0  0  0  0  0  0  # atno 10765 bound_to 10752
  139.8834  134.9412  156.5876 H   0  0  0  0  0  0  0  0  0  0  0  0  # atno 11005 bound_to 11000
  144.8197  140.6529  143.6361 LP  0  0  0  0  0  0  0  0  0  0  0  0  # atno 17320 bound_to 7965
  145.4280  139.1553  143.4038 LP  0  0  0  0  0  0  0  0  0  0  0  0  # atno 17321 bound_to 7965
  140.5862  143.9860  150.6297 LP  0  0  0  0  0  0  0  0  0  0  0  0  # atno 17342 bound_to 10162
  140.3026  143.3250  152.0957 LP  0  0  0  0  0  0  0  0  0  0  0  0  # atno 17343 bound_to 10162
  157.6006  130.8509  149.8796 LP  0  0  0  0  0  0  0  0  0  0  0  0  # atno 17370 bound_to 10713
  156.0566  130.3707  150.1077 LP  0  0  0  0  0  0  0  0  0  0  0  0  # atno 17371 bound_to 10713
  140.7980  133.8529  155.8702 LP  0  0  0  0  0  0  0  0  0  0  0  0  # atno 17394 bound_to 11000
  140.9618  134.1645  157.4647 LP  0  0  0  0  0  0  0  0  0  0  0  0  # atno 17395 bound_to 11000

$$$$
