AV-unprocessed.smi:465|AV-procd|sdf|2639|dock10
  -GOLD-   2262023 43D 1   1.00000     0.00000
 Structure written by MMmdl.
 42 44  0  0  0  0  0  0  0  0  1 V2000
  155.5285  139.0420  163.8360 C   0  0  0  0  0  0  0  0  0  0  0  0
  154.8292  138.7587  162.5226 C   0  0  0  0  0  0  0  0  0  0  0  0
  154.3837  137.4577  162.2164 C   0  0  0  0  0  0  0  0  0  0  0  0
  153.7308  137.2044  160.9947 C   0  0  0  0  0  0  0  0  0  0  0  0
  153.5110  138.2402  160.0636 C   0  0  0  0  0  0  0  0  0  0  0  0
  152.8605  137.9046  158.8955 O   0  0  0  0  0  0  0  0  0  0  0  0
  152.5218  138.9477  157.9926 C   0  0  0  0  0  0  0  0  0  0  0  0
  151.4198  139.8061  158.6244 C   0  0  0  0  0  0  0  0  0  0  0  0
  151.3794  141.1370  158.0384 N   0  0  0  0  0  0  0  0  0  0  0  0
  151.0640  141.4934  156.7667 C   0  0  0  0  0  0  0  0  0  0  0  0
  150.6741  140.4951  155.7153 C   0  0  0  0  0  0  0  0  0  0  0  0
  149.3441  140.8309  155.0216 C   0  0  0  0  0  0  0  0  0  0  0  0
  149.5382  141.0667  153.6431 O   0  0  0  0  0  0  0  0  0  0  0  0
  151.1158  142.8000  156.5028 N   0  0  0  0  0  0  0  0  0  0  0  0
  151.5053  143.3409  157.7124 C   0  0  0  0  0  0  0  0  0  0  0  0
  151.7418  144.6839  158.0844 C   0  0  0  0  0  0  0  0  0  0  0  0
  152.1426  145.0002  159.3990 C   0  0  0  0  0  0  0  0  0  0  0  0
  152.3126  143.9808  160.3582 C   0  0  0  0  0  0  0  0  0  0  0  0
  152.0816  142.6365  160.0084 C   0  0  0  0  0  0  0  0  0  0  0  0
  151.6805  142.3261  158.6949 C   0  0  0  0  0  0  0  0  0  0  0  0
  153.9637  139.5467  160.3776 C   0  0  0  0  0  0  0  0  0  0  0  0
  154.6167  139.8010  161.5994 C   0  0  0  0  0  0  0  0  0  0  0  0
  155.8220  138.1186  164.3362 H   0  0  0  0  0  0  0  0  0  0  0  0
  154.8670  139.5966  164.5017 H   0  0  0  0  0  0  0  0  0  0  0  0
  156.4266  139.6373  163.6694 H   0  0  0  0  0  0  0  0  0  0  0  0
  154.5389  136.6497  162.9161 H   0  0  0  0  0  0  0  0  0  0  0  0
  153.3926  136.2034  160.7703 H   0  0  0  0  0  0  0  0  0  0  0  0
  153.3961  139.5680  157.7879 H   0  0  0  0  0  0  0  0  0  0  0  0
  152.1720  138.5286  157.0479 H   0  0  0  0  0  0  0  0  0  0  0  0
  150.4473  139.3274  158.5166 H   0  0  0  0  0  0  0  0  0  0  0  0
  151.5919  139.9042  159.6966 H   0  0  0  0  0  0  0  0  0  0  0  0
  151.4656  140.4848  154.9651 H   0  0  0  0  0  0  0  0  0  0  0  0
  150.6526  139.4860  156.1264 H   0  0  0  0  0  0  0  0  0  0  0  0
  148.6137  140.0338  155.1646 H   0  0  0  0  0  0  0  0  0  0  0  0
  148.9206  141.7362  155.4570 H   0  0  0  0  0  0  0  0  0  0  0  0
  149.2027  140.3267  153.1604 H   0  0  0  0  0  0  0  0  0  0  0  0
  151.6159  145.4718  157.3566 H   0  0  0  0  0  0  0  0  0  0  0  0
  152.3211  146.0298  159.6726 H   0  0  0  0  0  0  0  0  0  0  0  0
  152.6207  144.2318  161.3628 H   0  0  0  0  0  0  0  0  0  0  0  0
  152.2122  141.8535  160.7405 H   0  0  0  0  0  0  0  0  0  0  0  0
  153.8216  140.3730  159.6980 H   0  0  0  0  0  0  0  0  0  0  0  0
  154.9540  140.8017  161.8267 H   0  0  0  0  0  0  0  0  0  0  0  0
  1  2  1  0  0  0  0
  1 23  1  0  0  0  0
  1 24  1  0  0  0  0
  1 25  1  0  0  0  0
  2 22  1  0  0  0  0
  2  3  2  0  0  0  0
  3  4  1  0  0  0  0
  3 26  1  0  0  0  0
  4  5  2  0  0  0  0
  4 27  1  0  0  0  0
  5  6  1  0  0  0  0
  5 21  1  0  0  0  0
  6  7  1  0  0  0  0
  7  8  1  0  0  0  0
  7 28  1  0  0  0  0
  7 29  1  0  0  0  0
  8  9  1  0  0  0  0
  8 30  1  0  0  0  0
  8 31  1  0  0  0  0
  9 20  1  0  0  0  0
  9 10  1  0  0  0  0
 10 11  1  0  0  0  0
 10 14  2  0  0  0  0
 11 12  1  0  0  0  0
 11 32  1  0  0  0  0
 11 33  1  0  0  0  0
 12 13  1  0  0  0  0
 12 34  1  0  0  0  0
 12 35  1  0  0  0  0
 13 36  1  0  0  0  0
 14 15  1  0  0  0  0
 15 20  2  0  0  0  0
 15 16  1  0  0  0  0
 16 17  2  0  0  0  0
 16 37  1  0  0  0  0
 17 18  1  0  0  0  0
 17 38  1  0  0  0  0
 18 19  2  0  0  0  0
 18 39  1  0  0  0  0
 19 20  1  0  0  0  0
 19 40  1  0  0  0  0
 21 22  2  0  0  0  0
 21 41  1  0  0  0  0
 22 42  1  0  0  0  0
M  END
> <s_m_source_file>
AV-unprocessed.smi

> <i_m_source_file_index>
465

> <i_lp_mmshare_version>
43012

> <i_f3d_flags>
0

> <s_epik_input>
W0NIM11jMVtjSF1bY0hdYyhbY0hdW2NIXTEpT1tDSDJdW0NIMl1uKGMobjIpW0NIMl1bQ0gyXVtPSF0pYyhjMjMpW2NIXVtjSF1bY0hdW2NIXTM=

> <s_epik_cmdline>
J2VwaWtfcHl0aG9uJywgJy1waCcsICc3LjAnLCAnLXRuJywgJzgnLCAnLW1hJywgJzIwMCcsICctbWV0YWxfYmluZGluZycsICctaW1hZScsICc8aW5maWxlLm1hZT4nLCAnLW9tYWUnLCAnPG91dGZpbGUubWFlPic=

> <r_lp_tautomer_probability>
1

> <r_epik_Ionization_Penalty>
0.207749

> <r_epik_Ionization_Penalty_Charging>
0

> <r_epik_Ionization_Penalty_Neutral>
0.207749

> <r_epik_State_Penalty>
0.197758

> <r_epik_Charging_Adjusted_Penalty>
0.197758

> <i_epik_Tot_Q>
0

> <i_epik_Tot_abs_Q>
0

> <r_epik_Metal_State_Penalty>
0.000234715

> <b_epik_Metal_Only>
0

> <s_lp_Force_Field>
OPLS_2005

> <r_lp_Energy>
16.7212

> <b_lp_Chiralities_Consistent>
1

> <s_lp_Variant>
AV-unprocessed.smi:465-1

> <Gold.Version>
5.8.1

> <Gold.Id.Protein>
6NUR|6NUR_protein|mol2

> <Gold.PLP.Fitness>
52.5348

> <Gold.PLP.PLP>
-48.5125

> <Gold.PLP.part.hbond>
-3.0000

> <Gold.PLP.part.metal>
0.0000

> <Gold.PLP.part.buried>
-4.2163

> <Gold.PLP.part.nonpolar>
-40.8179

> <Gold.PLP.part.repulsive>
0.6000

> <Gold.PLP.ligand.clash>
0.0000

> <Gold.PLP.ligand.torsion>
0.6214

> <Gold.PLP.Chemscore.Hbond>
1.7416

> <Gold.PLP.Chemscore.CHOScore>
0.0000

> <Gold.PLP.Chemscore.Metal>
0.0000

> <Gold.Chemscore.Hbonds>
donor molecule, donor type, donor heavy atom, donor atom, acceptor molecule, acceptor atom, score
      L1  H    13    36       P1  7957  0.41
      P1  H  7989  7998       L1    13  0.26
      P1  H  8011  8017       L1    13  0.99

> <Gold.PLP.Chemscore.Internal.Correction>
0.0404

> <Gold.Rescore>
     Score         DG    S(hbond)    S(metal)    S(lipo)     H(rot)  DE(clash)    DE(int)     intcor
     18.48     -19.69       1.19        0.00     137.29       2.28       0.50       0.71       ----

> <Gold.Chemscore.Fitness>
18.4815

> <Gold.Chemscore.DG>
-19.6864

> <Gold.Chemscore.ZeroCoef>
-5.4800

> <Gold.Chemscore.Hbond>
1.1933

> <Gold.Chemscore.Metal>
0.0000

> <Gold.Chemscore.Lipo>
137.2888

> <Gold.Chemscore.Internal_Hbond>
0.0000

> <Gold.Chemscore.DEClash>
0.4972

> <Gold.Chemscore.DEInternal>
0.7077

> <Gold.Chemscore.Rot>
2.2821

> <Gold.Chemscore.Internal.Correction>
   9.000000E+99

> <Gold.Chemscore.Hbonds>
donor molecule, donor type, donor heavy atom, donor atom, acceptor molecule, acceptor atom, score
      L1  H    13    36       P1  7957  0.39
      P1  H  7989  7998       L1    13  0.04
      P1  H  8011  8017       L1    13  0.47

> <Gold.Chemscore.Hbond.Weighted>
-3.9857

> <Gold.Chemscore.Metal.Weighted>
-0.0000

> <Gold.Chemscore.Lipo.Weighted>
-16.0628

> <Gold.Chemscore.Internal_Hbond.Weighted>
0.0000

> <Gold.Chemscore.DEClash.Weighted>
0.4972

> <Gold.Chemscore.DEInternal.Weighted>
0.7077

> <Gold.Chemscore.Rot.Weighted>
5.8421

> <Gold.Chemscore.Internal.Correction.Weighted>
   9.000000E+99

> <Gold.Protein.RotatedTorsions>
[ 6907 6896 6895 6894 ] final -171.56 input  -60.11 | X-H torsion
[ 7974 7965 7964 7962 ] final -140.23 input  175.53 | X-H torsion
[ 8008 7997 7996 7995 ] final  172.93 input   59.86 | X-H torsion
[ 10167 10162 10161 10158 ] final  -30.91 input  -65.29 | X-H torsion
[ 10718 10713 10712 10709 ] final  142.67 input   66.30 | X-H torsion
[ 10763 10752 10751 10750 ] final  -75.33 input  -60.55 | X-H torsion
[ 11005 11000 10999 10996 ] final   28.26 input  -57.11 | X-H torsion

> <Gold.Protein.ActiveResidues>
 VAL166  LYS551  ARG553  GLY616  TRP617  ASP618  TYR619  PRO620  LYS621  CYS622 
 ASP623  PHE694  ASN695  SER759  ASP760  ASP761  ALA762  ILE779  LEU786  VAL792 
 PHE793  MET794  SER795  GLU796  ALA797  LYS798  CYS799  TRP800  GLU811  SER814 

> <Gold.Protein.RotatedAtoms>
  151.5258  133.3458  159.2909 H   0  0  0  0  0  0  0  0  0  0  0  0  # atno 6907 bound_to 6896
  150.8624  134.7981  159.7104 H   0  0  0  0  0  0  0  0  0  0  0  0  # atno 6908 bound_to 6896
  152.4639  134.5129  159.9811 H   0  0  0  0  0  0  0  0  0  0  0  0  # atno 6909 bound_to 6896
  144.8614  140.6225  143.5326 H   0  0  0  0  0  0  0  0  0  0  0  0  # atno 7974 bound_to 7965
  156.1126  140.1473  156.9317 H   0  0  0  0  0  0  0  0  0  0  0  0  # atno 8008 bound_to 7997
  154.4778  140.0889  156.7347 H   0  0  0  0  0  0  0  0  0  0  0  0  # atno 8009 bound_to 7997
  155.4569  140.3437  155.4310 H   0  0  0  0  0  0  0  0  0  0  0  0  # atno 8010 bound_to 7997
  140.7243  143.3812  151.1598 H   0  0  0  0  0  0  0  0  0  0  0  0  # atno 10167 bound_to 10162
  157.3779  131.0988  151.0767 H   0  0  0  0  0  0  0  0  0  0  0  0  # atno 10718 bound_to 10713
  154.4851  135.5834  153.6418 H   0  0  0  0  0  0  0  0  0  0  0  0  # atno 10763 bound_to 10752
  152.9853  135.6099  154.3196 H   0  0  0  0  0  0  0  0  0  0  0  0  # atno 10764 bound_to 10752
  154.3091  135.2845  155.2554 H   0  0  0  0  0  0  0  0  0  0  0  0  # atno 10765 bound_to 10752
  140.3175  134.2581  155.7723 H   0  0  0  0  0  0  0  0  0  0  0  0  # atno 11005 bound_to 11000
  145.4305  139.1550  143.4024 LP  0  0  0  0  0  0  0  0  0  0  0  0  # atno 17320 bound_to 7965
  146.2863  140.4421  142.8756 LP  0  0  0  0  0  0  0  0  0  0  0  0  # atno 17321 bound_to 7965
  139.7401  143.8938  152.3047 LP  0  0  0  0  0  0  0  0  0  0  0  0  # atno 17342 bound_to 10162
  139.8756  144.7045  150.8936 LP  0  0  0  0  0  0  0  0  0  0  0  0  # atno 17343 bound_to 10162
  157.1846  130.6325  149.5683 LP  0  0  0  0  0  0  0  0  0  0  0  0  # atno 17370 bound_to 10713
  155.9769  130.4742  150.6560 LP  0  0  0  0  0  0  0  0  0  0  0  0  # atno 17371 bound_to 10713
  141.2094  133.7749  156.9997 LP  0  0  0  0  0  0  0  0  0  0  0  0  # atno 17394 bound_to 11000
  140.0971  134.9558  157.1866 LP  0  0  0  0  0  0  0  0  0  0  0  0  # atno 17395 bound_to 11000

$$$$
