AV-unprocessed.smi:1071|AV-procd|sdf|4681|dock5
  -GOLD-   22720 3203D 1   1.00000     0.00000
 Structure written by MMmdl.
 46 47  0  0  0  0  0  0  0  0  1 V2000
  145.5233  136.5493  151.8348 C   0  0  0  0  0  0  0  0  0  0  0  0
  145.6771  137.7504  152.5701 O   0  0  0  0  0  0  0  0  0  0  0  0
  146.5318  138.6783  151.9228 C   0  0  0  0  0  0  0  0  0  0  0  0
  147.1594  139.6000  152.9727 C   0  0  0  0  0  0  0  0  0  0  0  0
  148.1251  138.8610  153.7148 O   0  0  0  0  0  0  0  0  0  0  0  0
  148.9915  139.5496  154.5387 C   0  0  0  0  0  0  0  0  0  0  0  0
  148.9144  140.9560  154.5712 C   0  0  0  0  0  0  0  0  0  0  0  0
  149.7950  141.6681  155.4077 C   0  0  0  0  0  0  0  0  0  0  0  0
  150.7356  140.9474  156.1817 C   0  0  0  0  0  0  0  0  0  0  0  0
  151.6636  141.5445  157.0770 N   0  0  0  0  0  0  0  0  0  0  0  0
  152.1500  141.0597  158.2366 C   0  0  0  0  0  0  0  0  0  0  0  0
  151.9392  139.9178  158.6434 O   0  0  0  0  0  0  0  0  0  0  0  0
  153.0004  141.9226  158.8454 N   0  0  0  0  0  0  0  0  0  0  0  0
  152.7205  143.3673  158.8687 C   0  0  0  0  0  0  0  0  0  0  0  0
  151.9704  143.7080  160.1739 C   0  0  0  0  0  0  0  0  0  0  0  0
  152.7807  143.3309  161.3345 N   0  0  0  0  0  0  0  0  0  0  0  0
  152.0526  143.6272  162.5595 C   0  0  0  0  0  0  0  0  0  0  0  0
  153.1216  141.9063  161.2955 C   0  0  0  0  0  0  0  0  0  0  0  0
  153.8771  141.5893  159.9870 C   0  0  1  0  0  0  0  0  0  0  0  0
  154.4622  140.1617  159.9767 C   0  0  0  0  0  0  0  0  0  0  0  0
  150.7203  139.5403  156.0895 C   0  0  0  0  0  0  0  0  0  0  0  0
  149.8792  138.8517  155.2897 N   0  0  0  0  0  0  0  0  0  0  0  0
  144.8574  135.8742  152.3720 H   0  0  0  0  0  0  0  0  0  0  0  0
  146.4804  136.0430  151.7019 H   0  0  0  0  0  0  0  0  0  0  0  0
  145.0883  136.7402  150.8528 H   0  0  0  0  0  0  0  0  0  0  0  0
  147.3075  138.1655  151.3519 H   0  0  0  0  0  0  0  0  0  0  0  0
  145.9470  139.2735  151.2199 H   0  0  0  0  0  0  0  0  0  0  0  0
  147.6518  140.4332  152.4688 H   0  0  0  0  0  0  0  0  0  0  0  0
  146.3851  140.0111  153.6231 H   0  0  0  0  0  0  0  0  0  0  0  0
  148.1882  141.4805  153.9675 H   0  0  0  0  0  0  0  0  0  0  0  0
  149.7196  142.7434  155.4465 H   0  0  0  0  0  0  0  0  0  0  0  0
  151.9117  142.5005  156.8670 H   0  0  0  0  0  0  0  0  0  0  0  0
  153.6552  143.9271  158.8093 H   0  0  0  0  0  0  0  0  0  0  0  0
  152.1267  143.7007  158.0168 H   0  0  0  0  0  0  0  0  0  0  0  0
  151.7603  144.7776  160.2103 H   0  0  0  0  0  0  0  0  0  0  0  0
  151.0099  143.1902  160.2018 H   0  0  0  0  0  0  0  0  0  0  0  0
  152.6550  143.3747  163.4328 H   0  0  0  0  0  0  0  0  0  0  0  0
  151.1192  143.0648  162.6129 H   0  0  0  0  0  0  0  0  0  0  0  0
  151.8152  144.6901  162.6158 H   0  0  0  0  0  0  0  0  0  0  0  0
  153.7492  141.6653  162.1546 H   0  0  0  0  0  0  0  0  0  0  0  0
  152.2199  141.2963  161.3731 H   0  0  0  0  0  0  0  0  0  0  0  0
  154.7433  142.2514  159.9275 H   0  0  0  0  0  0  0  0  0  0  0  0
  155.2516  140.0699  160.7228 H   0  0  0  0  0  0  0  0  0  0  0  0
  154.9009  139.9200  159.0082 H   0  0  0  0  0  0  0  0  0  0  0  0
  153.7178  139.4023  160.2145 H   0  0  0  0  0  0  0  0  0  0  0  0
  151.4089  138.9456  156.6721 H   0  0  0  0  0  0  0  0  0  0  0  0
  1  2  1  0  0  0  0
  1 23  1  0  0  0  0
  1 24  1  0  0  0  0
  1 25  1  0  0  0  0
  2  3  1  0  0  0  0
  3  4  1  0  0  0  0
  3 26  1  0  0  0  0
  3 27  1  0  0  0  0
  4  5  1  0  0  0  0
  4 28  1  0  0  0  0
  4 29  1  0  0  0  0
  5  6  1  0  0  0  0
  6 22  1  0  0  0  0
  6  7  2  0  0  0  0
  7  8  1  0  0  0  0
  7 30  1  0  0  0  0
  8  9  2  0  0  0  0
  8 31  1  0  0  0  0
  9 10  1  0  0  0  0
  9 21  1  0  0  0  0
 10 11  1  0  0  0  0
 10 32  1  0  0  0  0
 11 12  2  0  0  0  0
 11 13  1  0  0  0  0
 13 19  1  0  0  0  0
 13 14  1  0  0  0  0
 14 15  1  0  0  0  0
 14 33  1  0  0  0  0
 14 34  1  0  0  0  0
 15 16  1  0  0  0  0
 15 35  1  0  0  0  0
 15 36  1  0  0  0  0
 16 17  1  0  0  0  0
 16 18  1  0  0  0  0
 17 37  1  0  0  0  0
 17 38  1  0  0  0  0
 17 39  1  0  0  0  0
 18 19  1  0  0  0  0
 18 40  1  0  0  0  0
 18 41  1  0  0  0  0
 19 20  1  0  0  0  0
 19 42  1  0  0  0  0
 20 43  1  0  0  0  0
 20 44  1  0  0  0  0
 20 45  1  0  0  0  0
 21 22  2  0  0  0  0
 21 46  1  0  0  0  0
M  END
> <s_m_source_file>
AV-unprocessed.smi

> <i_m_source_file_index>
1071

> <i_lp_mmshare_version>
43012

> <i_f3d_flags>
0

> <s_epik_input>
W0NIM11PW0NIMl1bQ0gyXU9jMVtjSF1bY0hdYyhbY0hdbjEpW05IXUMoPU8pTjJbQ0gyXVtDSDJdTihbQ0gzXSlbQ0gyXVtDQEhdMltDSDNd

> <s_epik_cmdline>
J2VwaWtfcHl0aG9uJywgJy1waCcsICc3LjAnLCAnLXRuJywgJzgnLCAnLW1hJywgJzIwMCcsICctbWV0YWxfYmluZGluZycsICctaW1hZScsICc8aW5maWxlLm1hZT4nLCAnLW9tYWUnLCAnPG91dGZpbGUubWFlPic=

> <r_lp_tautomer_probability>
1

> <r_epik_Ionization_Penalty>
0.623446

> <r_epik_Ionization_Penalty_Charging>
0

> <r_epik_Ionization_Penalty_Neutral>
0.623446

> <r_epik_State_Penalty>
0.639577

> <r_epik_Charging_Adjusted_Penalty>
0.639577

> <i_epik_Tot_Q>
0

> <i_epik_Tot_abs_Q>
0

> <r_epik_Metal_State_Penalty>
0.639567

> <b_epik_Metal_Only>
0

> <s_lp_Force_Field>
OPLS_2005

> <r_lp_Energy>
47.7745

> <b_lp_Chiralities_Consistent>
1

> <s_lp_Variant>
AV-unprocessed.smi:1071-5

> <Gold.Version>
5.8.1

> <Gold.Id.Protein>
6NUR|6NUR_protein|mol2

> <Gold.PLP.Fitness>
38.4951

> <Gold.PLP.PLP>
-39.9945

> <Gold.PLP.part.hbond>
0.0000

> <Gold.PLP.part.metal>
0.0000

> <Gold.PLP.part.buried>
1.4901

> <Gold.PLP.part.nonpolar>
-43.2664

> <Gold.PLP.part.repulsive>
0.7354

> <Gold.PLP.ligand.clash>
0.5846

> <Gold.PLP.ligand.torsion>
0.7318

> <Gold.PLP.Chemscore.Hbond>
0.0000

> <Gold.PLP.Chemscore.CHOScore>
0.0000

> <Gold.PLP.Chemscore.Metal>
0.0000

> <Gold.PLP.Chemscore.Internal.Correction>
0.5489

> <Gold.Rescore>
     Score         DG    S(hbond)    S(metal)    S(lipo)     H(rot)  DE(clash)    DE(int)     intcor
     10.45     -14.10       0.00        0.00     108.09       1.57       0.38       3.27       ----

> <Gold.Chemscore.Fitness>
10.4469

> <Gold.Chemscore.DG>
-14.0962

> <Gold.Chemscore.ZeroCoef>
-5.4800

> <Gold.Chemscore.Hbond>
0.0000

> <Gold.Chemscore.Metal>
0.0000

> <Gold.Chemscore.Lipo>
108.0880

> <Gold.Chemscore.Internal_Hbond>
0.0000

> <Gold.Chemscore.DEClash>
0.3769

> <Gold.Chemscore.DEInternal>
3.2723

> <Gold.Chemscore.Rot>
1.5743

> <Gold.Chemscore.Internal.Correction>
   9.000000E+99

> <Gold.Chemscore.Hbond.Weighted>
-0.0000

> <Gold.Chemscore.Metal.Weighted>
-0.0000

> <Gold.Chemscore.Lipo.Weighted>
-12.6463

> <Gold.Chemscore.Internal_Hbond.Weighted>
0.0000

> <Gold.Chemscore.DEClash.Weighted>
0.3769

> <Gold.Chemscore.DEInternal.Weighted>
3.2723

> <Gold.Chemscore.Rot.Weighted>
4.0301

> <Gold.Chemscore.Internal.Correction.Weighted>
   9.000000E+99

> <Gold.Protein.RotatedTorsions>
[ 6907 6896 6895 6894 ] final  -50.33 input  -60.11 | X-H torsion
[ 7974 7965 7964 7962 ] final   86.07 input  175.53 | X-H torsion
[ 8008 7997 7996 7995 ] final -146.28 input   59.86 | X-H torsion
[ 10167 10162 10161 10158 ] final -147.33 input  -65.29 | X-H torsion
[ 10718 10713 10712 10709 ] final  112.58 input   66.30 | X-H torsion
[ 10763 10752 10751 10750 ] final  134.22 input  -60.55 | X-H torsion
[ 11005 11000 10999 10996 ] final   32.36 input  -57.11 | X-H torsion

> <Gold.Protein.ActiveResidues>
 VAL166  LYS551  ARG553  GLY616  TRP617  ASP618  TYR619  PRO620  LYS621  CYS622 
 ASP623  PHE694  ASN695  SER759  ASP760  ASP761  ALA762  ILE779  LEU786  VAL792 
 PHE793  MET794  SER795  GLU796  ALA797  LYS798  CYS799  TRP800  GLU811  SER814 

> <Gold.Protein.RotatedAtoms>
  150.8718  134.8093  159.7159 H   0  0  0  0  0  0  0  0  0  0  0  0  # atno 6907 bound_to 6896
  152.4719  134.4935  159.9712 H   0  0  0  0  0  0  0  0  0  0  0  0  # atno 6908 bound_to 6896
  151.5022  133.3463  159.2906 H   0  0  0  0  0  0  0  0  0  0  0  0  # atno 6909 bound_to 6896
  145.5772  139.2320  143.2373 H   0  0  0  0  0  0  0  0  0  0  0  0  # atno 7974 bound_to 7965
  155.5568  140.0621  157.2838 H   0  0  0  0  0  0  0  0  0  0  0  0  # atno 8008 bound_to 7997
  154.4403  140.1892  156.0787 H   0  0  0  0  0  0  0  0  0  0  0  0  # atno 8009 bound_to 7997
  156.0476  140.3288  155.7317 H   0  0  0  0  0  0  0  0  0  0  0  0  # atno 8010 bound_to 7997
  139.7631  143.8347  152.2611 H   0  0  0  0  0  0  0  0  0  0  0  0  # atno 10167 bound_to 10162
  157.6385  131.0970  150.6916 H   0  0  0  0  0  0  0  0  0  0  0  0  # atno 10718 bound_to 10713
  153.8200  135.3117  155.3409 H   0  0  0  0  0  0  0  0  0  0  0  0  # atno 10763 bound_to 10752
  154.8016  135.4723  154.0293 H   0  0  0  0  0  0  0  0  0  0  0  0  # atno 10764 bound_to 10752
  153.1699  135.6876  153.8712 H   0  0  0  0  0  0  0  0  0  0  0  0  # atno 10765 bound_to 10752
  140.2743  134.3046  155.7819 H   0  0  0  0  0  0  0  0  0  0  0  0  # atno 11005 bound_to 11000
  146.1742  140.6598  142.9219 LP  0  0  0  0  0  0  0  0  0  0  0  0  # atno 17320 bound_to 7965
  144.7411  140.4943  143.6869 LP  0  0  0  0  0  0  0  0  0  0  0  0  # atno 17321 bound_to 7965
  139.8359  144.7232  150.9391 LP  0  0  0  0  0  0  0  0  0  0  0  0  # atno 17342 bound_to 10162
  140.7809  143.4027  151.1122 LP  0  0  0  0  0  0  0  0  0  0  0  0  # atno 17343 bound_to 10162
  156.7243  130.4690  149.5515 LP  0  0  0  0  0  0  0  0  0  0  0  0  # atno 17370 bound_to 10713
  156.1644  130.6395  151.0759 LP  0  0  0  0  0  0  0  0  0  0  0  0  # atno 17371 bound_to 10713
  141.2173  133.7486  156.9382 LP  0  0  0  0  0  0  0  0  0  0  0  0  # atno 17394 bound_to 11000
  140.1344  134.9335  157.2381 LP  0  0  0  0  0  0  0  0  0  0  0  0  # atno 17395 bound_to 11000

$$$$
