AV-unprocessed.smi:99|AV-procd|sdf|886|dock3
  -GOLD-   2262017363D 1   1.00000     0.00000
 Structure written by MMmdl.
 52 55  0  0  0  0  0  0  0  0  2 V2000
  151.8225  141.2292  157.3886 O   0  0  0  0  0  0  0  0  0  0  0  0
  150.8637  141.9051  157.7669 C   0  0  0  0  0  0  0  0  0  0  0  0
  149.5786  141.5511  157.5738 O   0  0  0  0  0  0  0  0  0  0  0  0
  149.2639  140.4612  156.7243 C   0  0  0  0  0  0  0  0  0  0  0  0
  149.4044  140.9041  155.2544 C   0  0  1  0  0  0  0  0  0  0  0  0
  150.5724  140.3402  154.6635 O   0  0  0  0  0  0  0  0  0  0  0  0
  150.3116  139.0705  154.1313 C   0  0  1  0  0  0  0  0  0  0  0  0
  150.8705  138.0075  155.0677 N   0  0  0  0  0  0  0  0  0  0  0  0
  150.0836  136.9509  155.5028 C   0  0  0  0  0  0  0  0  0  0  0  0
  150.5550  136.0204  156.3571 C   0  0  0  0  0  0  0  0  0  0  0  0
  151.9190  136.1379  156.8607 C   0  0  0  0  0  0  0  0  0  0  0  0
  152.3586  135.2615  157.6023 O   0  0  0  0  0  0  0  0  0  0  0  0
  152.6463  137.2296  156.4888 N   0  5  0  0  0  0  0  0  0  0  0  0
  152.1620  138.1837  155.6415 C   0  0  0  0  0  0  0  0  0  0  0  0
  152.7904  139.2031  155.3568 O   0  0  0  0  0  0  0  0  0  0  0  0
  148.7736  138.9808  153.9717 C   0  0  2  0  0  0  0  0  0  0  0  0
  148.3974  138.6937  152.6409 O   0  0  0  0  0  0  0  0  0  0  0  0
  148.2981  140.3805  154.3351 C   0  0  1  0  0  0  0  0  0  0  0  0
  147.0284  140.3197  154.9747 O   0  0  0  0  0  0  0  0  0  0  0  0
  146.2252  141.4031  155.0196 C   0  0  0  0  0  0  0  0  0  0  0  0
  146.5835  142.5343  154.6863 O   0  0  0  0  0  0  0  0  0  0  0  0
  144.8587  141.0878  155.5263 C   0  0  0  0  0  0  0  0  0  0  0  0
  143.8890  142.1155  155.5922 C   0  0  0  0  0  0  0  0  0  0  0  0
  142.5901  141.8464  156.0658 C   0  0  0  0  0  0  0  0  0  0  0  0
  142.2454  140.5467  156.4804 C   0  0  0  0  0  0  0  0  0  0  0  0
  143.2016  139.5163  156.4213 C   0  0  0  0  0  0  0  0  0  0  0  0
  144.5008  139.7831  155.9476 C   0  0  0  0  0  0  0  0  0  0  0  0
  151.0039  143.2063  158.4810 C   0  0  0  0  0  0  0  0  0  0  0  0
  149.8570  143.8182  159.0377 C   0  0  0  0  0  0  0  0  0  0  0  0
  149.9594  145.0446  159.7224 C   0  0  0  0  0  0  0  0  0  0  0  0
  151.2104  145.6736  159.8598 C   0  0  0  0  0  0  0  0  0  0  0  0
  152.3591  145.0745  159.3115 C   0  0  0  0  0  0  0  0  0  0  0  0
  152.2587  143.8482  158.6260 C   0  0  0  0  0  0  0  0  0  0  0  0
  149.9031  139.6035  156.9359 H   0  0  0  0  0  0  0  0  0  0  0  0
  148.2379  140.1546  156.9301 H   0  0  0  0  0  0  0  0  0  0  0  0
  149.4535  141.9925  155.2090 H   0  0  0  0  0  0  0  0  0  0  0  0
  150.8693  138.9339  153.2033 H   0  0  0  0  0  0  0  0  0  0  0  0
  149.0624  136.8538  155.1693 H   0  0  0  0  0  0  0  0  0  0  0  0
  149.9239  135.2051  156.6793 H   0  0  0  0  0  0  0  0  0  0  0  0
  148.3597  138.2454  154.6632 H   0  0  0  0  0  0  0  0  0  0  0  0
  148.5920  137.7832  152.4729 H   0  0  0  0  0  0  0  0  0  0  0  0
  148.2609  140.9941  153.4329 H   0  0  0  0  0  0  0  0  0  0  0  0
  144.1305  143.1215  155.2801 H   0  0  0  0  0  0  0  0  0  0  0  0
  141.8575  142.6387  156.1109 H   0  0  0  0  0  0  0  0  0  0  0  0
  141.2492  140.3410  156.8431 H   0  0  0  0  0  0  0  0  0  0  0  0
  142.9388  138.5181  156.7396 H   0  0  0  0  0  0  0  0  0  0  0  0
  145.2099  138.9687  155.9158 H   0  0  0  0  0  0  0  0  0  0  0  0
  148.8858  143.3534  158.9458 H   0  0  0  0  0  0  0  0  0  0  0  0
  149.0765  145.5029  160.1426 H   0  0  0  0  0  0  0  0  0  0  0  0
  151.2887  146.6139  160.3854 H   0  0  0  0  0  0  0  0  0  0  0  0
  153.3202  145.5559  159.4167 H   0  0  0  0  0  0  0  0  0  0  0  0
  153.1607  143.4147  158.2195 H   0  0  0  0  0  0  0  0  0  0  0  0
  1  2  2  0  0  0  0
  2  3  1  0  0  0  0
  2 28  1  0  0  0  0
  3  4  1  0  0  0  0
  4  5  1  0  0  0  0
  4 34  1  0  0  0  0
  4 35  1  0  0  0  0
  5 18  1  0  0  0  0
  5  6  1  0  0  0  0
  5 36  1  0  0  0  0
  6  7  1  0  0  0  0
  7  8  1  0  0  0  0
  7 16  1  0  0  0  0
  7 37  1  0  0  0  0
  8 14  1  0  0  0  0
  8  9  1  0  0  0  0
  9 10  2  0  0  0  0
  9 38  1  0  0  0  0
 10 11  1  0  0  0  0
 10 39  1  0  0  0  0
 11 12  2  0  0  0  0
 11 13  1  0  0  0  0
 13 14  1  0  0  0  0
 14 15  2  0  0  0  0
 16 17  1  0  0  0  0
 16 18  1  0  0  0  0
 16 40  1  0  0  0  0
 17 41  1  0  0  0  0
 18 19  1  0  0  0  0
 18 42  1  0  0  0  0
 19 20  1  0  0  0  0
 20 21  2  0  0  0  0
 20 22  1  0  0  0  0
 22 27  1  0  0  0  0
 22 23  2  0  0  0  0
 23 24  1  0  0  0  0
 23 43  1  0  0  0  0
 24 25  2  0  0  0  0
 24 44  1  0  0  0  0
 25 26  1  0  0  0  0
 25 45  1  0  0  0  0
 26 27  2  0  0  0  0
 26 46  1  0  0  0  0
 27 47  1  0  0  0  0
 28 33  1  0  0  0  0
 28 29  2  0  0  0  0
 29 30  1  0  0  0  0
 29 48  1  0  0  0  0
 30 31  2  0  0  0  0
 30 49  1  0  0  0  0
 31 32  1  0  0  0  0
 31 50  1  0  0  0  0
 32 33  2  0  0  0  0
 32 51  1  0  0  0  0
 33 52  1  0  0  0  0
M  CHG  1  13  -1
M  END
> <s_m_source_file>
AV-unprocessed.smi

> <i_m_source_file_index>
99

> <i_lp_mmshare_version>
43012

> <i_f3d_flags>
0

> <s_epik_input>
W2NIXTFbY0hdW2NIXVtjSF1bY0hdYzFDKD1PKU9bQ0gyXVtDQEBIXTJPW0NAQEhdKG4zW2NIXVtjSF1jKD1PKVtuSF1jMz1PKVtDQEBIXShbT0hdKVtDQEhdMk9DKD1PKWM0W2NIXVtjSF1bY0hdW2NIXVtjSF00

> <s_epik_cmdline>
J2VwaWtfcHl0aG9uJywgJy1waCcsICc3LjAnLCAnLXRuJywgJzgnLCAnLW1hJywgJzIwMCcsICctbWV0YWxfYmluZGluZycsICctaW1hZScsICc8aW5maWxlLm1hZT4nLCAnLW9tYWUnLCAnPG91dGZpbGUubWFlPic=

> <r_lp_tautomer_probability>
1

> <r_epik_Ionization_Penalty>
2.89159

> <r_epik_Ionization_Penalty_Charging>
2.1077e-08

> <r_epik_Ionization_Penalty_Neutral>
2.89159

> <r_epik_State_Penalty>
2.88671

> <r_epik_Charging_Adjusted_Penalty>
2.88671

> <i_epik_Tot_Q>
-1

> <i_epik_Tot_abs_Q>
1

> <r_epik_Metal_State_Penalty>
0.0727308

> <b_epik_Metal_Only>
1

> <s_epik_Chemistry_Notes>
This compound has an ester and may undergo hydrolysis at high or low pH. This compound contains an acetal/aminal-like group ( X-CH(R)-Y where X, Y are N, S, or O) that may be acid/base labile, releasing an aldehyde.

> <s_lp_Force_Field>
OPLS_2005

> <r_lp_Energy>
40.5539

> <b_lp_Chiralities_Consistent>
1

> <s_lp_Variant>
AV-unprocessed.smi:99-22

> <Gold.Version>
5.8.1

> <Gold.Id.Protein>
6NUR|6NUR_protein|mol2

> <Gold.PLP.Fitness>
54.1643

> <Gold.PLP.PLP>
-47.7409

> <Gold.PLP.part.hbond>
-5.2327

> <Gold.PLP.part.metal>
0.0000

> <Gold.PLP.part.buried>
-6.1645

> <Gold.PLP.part.nonpolar>
-34.9170

> <Gold.PLP.part.repulsive>
0.4041

> <Gold.PLP.ligand.clash>
0.0000

> <Gold.PLP.ligand.torsion>
1.4839

> <Gold.PLP.Chemscore.Hbond>
3.0000

> <Gold.PLP.Chemscore.CHOScore>
0.0000

> <Gold.PLP.Chemscore.Metal>
0.0000

> <Gold.Chemscore.Hbonds>
donor molecule, donor type, donor heavy atom, donor atom, acceptor molecule, acceptor atom, score
      L1  H    17    41       P1  7948  1.00
      P1  H  7989  7998       L1     6  0.90
      P1  H  7997  8010       L1    15  1.00

> <Gold.PLP.Chemscore.Internal.Correction>
0.3912

> <Gold.Rescore>
     Score         DG    S(hbond)    S(metal)    S(lipo)     H(rot)  DE(clash)    DE(int)     intcor
     13.57     -16.78       2.37        0.00      97.41       3.13       0.04       3.16       ----

> <Gold.Chemscore.Fitness>
13.5734

> <Gold.Chemscore.DG>
-16.7809

> <Gold.Chemscore.ZeroCoef>
-5.4800

> <Gold.Chemscore.Hbond>
2.3739

> <Gold.Chemscore.Metal>
0.0000

> <Gold.Chemscore.Lipo>
97.4057

> <Gold.Chemscore.Internal_Hbond>
0.0000

> <Gold.Chemscore.DEClash>
0.0434

> <Gold.Chemscore.DEInternal>
3.1641

> <Gold.Chemscore.Rot>
3.1346

> <Gold.Chemscore.Internal.Correction>
   9.000000E+99

> <Gold.Chemscore.Hbonds>
donor molecule, donor type, donor heavy atom, donor atom, acceptor molecule, acceptor atom, score
      L1  H    17    41       P1  7948  1.00
      P1  H  7989  7998       L1     6  0.18
      P1  H  7997  8010       L1    15  0.97

> <Gold.Chemscore.Hbond.Weighted>
-7.9290

> <Gold.Chemscore.Metal.Weighted>
-0.0000

> <Gold.Chemscore.Lipo.Weighted>
-11.3965

> <Gold.Chemscore.Internal_Hbond.Weighted>
0.0000

> <Gold.Chemscore.DEClash.Weighted>
0.0434

> <Gold.Chemscore.DEInternal.Weighted>
3.1641

> <Gold.Chemscore.Rot.Weighted>
8.0246

> <Gold.Chemscore.Internal.Correction.Weighted>
   9.000000E+99

> <Gold.Protein.RotatedTorsions>
[ 6907 6896 6895 6894 ] final  -35.78 input  -60.11 | X-H torsion
[ 7974 7965 7964 7962 ] final   -3.46 input  175.53 | X-H torsion
[ 8008 7997 7996 7995 ] final   94.88 input   59.86 | X-H torsion
[ 10167 10162 10161 10158 ] final   62.95 input  -65.29 | X-H torsion
[ 10718 10713 10712 10709 ] final   -6.64 input   66.30 | X-H torsion
[ 10763 10752 10751 10750 ] final  -92.18 input  -60.55 | X-H torsion
[ 11005 11000 10999 10996 ] final  135.60 input  -57.11 | X-H torsion

> <Gold.Protein.ActiveResidues>
 VAL166  LYS551  ARG553  GLY616  TRP617  ASP618  TYR619  PRO620  LYS621  CYS622 
 ASP623  PHE694  ASN695  SER759  ASP760  ASP761  ALA762  ILE779  LEU786  VAL792 
 PHE793  MET794  SER795  GLU796  ALA797  LYS798  CYS799  TRP800  GLU811  SER814 

> <Gold.Protein.RotatedAtoms>
  151.0355  134.9570  159.8133 H   0  0  0  0  0  0  0  0  0  0  0  0  # atno 6907 bound_to 6896
  152.5354  134.2725  159.8987 H   0  0  0  0  0  0  0  0  0  0  0  0  # atno 6908 bound_to 6896
  151.2736  133.4201  159.2656 H   0  0  0  0  0  0  0  0  0  0  0  0  # atno 6909 bound_to 6896
  146.2389  140.1725  142.8332 H   0  0  0  0  0  0  0  0  0  0  0  0  # atno 7974 bound_to 7965
  156.0628  140.3294  155.7481 H   0  0  0  0  0  0  0  0  0  0  0  0  # atno 8008 bound_to 7997
  155.5429  140.0603  157.2884 H   0  0  0  0  0  0  0  0  0  0  0  0  # atno 8009 bound_to 7997
  154.4490  140.1907  156.0597 H   0  0  0  0  0  0  0  0  0  0  0  0  # atno 8010 bound_to 7997
  140.1383  144.4577  150.6825 H   0  0  0  0  0  0  0  0  0  0  0  0  # atno 10167 bound_to 10162
  156.7289  130.5174  149.5850 H   0  0  0  0  0  0  0  0  0  0  0  0  # atno 10718 bound_to 10713
  154.6835  135.5241  153.8294 H   0  0  0  0  0  0  0  0  0  0  0  0  # atno 10763 bound_to 10752
  153.0581  135.6558  154.0538 H   0  0  0  0  0  0  0  0  0  0  0  0  # atno 10764 bound_to 10752
  154.0422  135.2976  155.3333 H   0  0  0  0  0  0  0  0  0  0  0  0  # atno 10765 bound_to 10752
  139.9990  134.9486  157.0030 H   0  0  0  0  0  0  0  0  0  0  0  0  # atno 11005 bound_to 11000
  145.0000  140.8623  143.5287 LP  0  0  0  0  0  0  0  0  0  0  0  0  # atno 17320 bound_to 7965
  145.1743  139.2387  143.5325 LP  0  0  0  0  0  0  0  0  0  0  0  0  # atno 17321 bound_to 7965
  140.6775  143.2312  151.5468 LP  0  0  0  0  0  0  0  0  0  0  0  0  # atno 17342 bound_to 10162
  139.5484  144.2459  152.1486 LP  0  0  0  0  0  0  0  0  0  0  0  0  # atno 17343 bound_to 10162
  156.1542  130.6331  151.0636 LP  0  0  0  0  0  0  0  0  0  0  0  0  # atno 17370 bound_to 10713
  157.6867  131.0822  150.7223 LP  0  0  0  0  0  0  0  0  0  0  0  0  # atno 17371 bound_to 10713
  140.4763  134.1335  155.7210 LP  0  0  0  0  0  0  0  0  0  0  0  0  # atno 17394 bound_to 11000
  141.1627  133.8762  157.1802 LP  0  0  0  0  0  0  0  0  0  0  0  0  # atno 17395 bound_to 11000

$$$$
