AV-unprocessed.smi:1822|AV-procd|sdf|7390|dock8
  -GOLD-   22720 9 63D 1   1.00000     0.00000
 Structure written by MMmdl.
 46 47  0  0  0  0  0  0  0  0  1 V2000
  146.1785  143.2330  154.3233 C   0  0  0  0  0  0  0  0  0  0  0  0
  147.3893  142.5290  154.7179 N   0  0  0  0  0  0  0  0  0  0  0  0
  147.7193  141.2930  154.3084 C   0  0  0  0  0  0  0  0  0  0  0  0
  146.9999  140.6519  153.5403 O   0  0  0  0  0  0  0  0  0  0  0  0
  148.9862  140.8051  154.8590 C   0  0  0  0  0  0  0  0  0  0  0  0
  149.9227  141.6565  155.5773 C   0  0  0  0  0  0  0  0  0  0  0  0
  151.0731  141.1515  156.0643 C   0  0  0  0  0  0  0  0  0  0  0  0
  151.4302  139.7403  155.8946 C   0  0  0  0  0  0  0  0  0  0  0  0
  152.4800  139.2746  156.3378 O   0  0  0  0  0  0  0  0  0  0  0  0
  150.5247  138.9759  155.2122 N   0  0  0  0  0  0  0  0  0  0  0  0
  150.7722  137.5427  154.9795 C   0  0  0  0  0  0  0  0  0  0  0  0
  149.5819  136.6700  155.3974 C   0  0  0  0  0  0  0  0  0  0  0  0
  149.2991  136.5736  156.5929 O   0  0  0  0  0  0  0  0  0  0  0  0
  148.9141  136.0685  154.3907 N   0  0  0  0  0  0  0  0  0  0  0  0
  147.8409  135.2607  154.4825 C   0  0  0  0  0  0  0  0  0  0  0  0
  147.3723  134.8022  155.5268 O   0  0  0  0  0  0  0  0  0  0  0  0
  147.3249  135.0109  153.2699 N   0  0  0  0  0  0  0  0  0  0  0  0
  146.2368  134.0788  152.9893 C   0  0  0  0  0  0  0  0  0  0  0  0
  146.7270  132.9966  152.0086 C   0  0  0  0  0  0  0  0  0  0  0  0
  145.5962  132.0279  151.6263 C   0  0  0  0  0  0  0  0  0  0  0  0
  144.3874  132.7814  151.0502 C   0  0  0  0  0  0  0  0  0  0  0  0
  143.8887  133.8574  152.0274 C   0  0  0  0  0  0  0  0  0  0  0  0
  145.0166  134.8280  152.4142 C   0  0  0  0  0  0  0  0  0  0  0  0
  149.3225  139.5093  154.7064 C   0  0  0  0  0  0  0  0  0  0  0  0
  146.1342  144.2021  154.8203 H   0  0  0  0  0  0  0  0  0  0  0  0
  145.2898  142.6661  154.6028 H   0  0  0  0  0  0  0  0  0  0  0  0
  146.1609  143.4013  153.2460 H   0  0  0  0  0  0  0  0  0  0  0  0
  148.0171  143.0089  155.3466 H   0  0  0  0  0  0  0  0  0  0  0  0
  149.7217  142.7057  155.7359 H   0  0  0  0  0  0  0  0  0  0  0  0
  151.7528  141.8030  156.5939 H   0  0  0  0  0  0  0  0  0  0  0  0
  151.0054  137.3630  153.9282 H   0  0  0  0  0  0  0  0  0  0  0  0
  151.6550  137.2062  155.5253 H   0  0  0  0  0  0  0  0  0  0  0  0
  149.2639  136.2430  153.4602 H   0  0  0  0  0  0  0  0  0  0  0  0
  147.7099  135.5062  152.4791 H   0  0  0  0  0  0  0  0  0  0  0  0
  145.9423  133.5844  153.9173 H   0  0  0  0  0  0  0  0  0  0  0  0
  147.1194  133.4659  151.1053 H   0  0  0  0  0  0  0  0  0  0  0  0
  147.5531  132.4382  152.4504 H   0  0  0  0  0  0  0  0  0  0  0  0
  145.9599  131.2998  150.9009 H   0  0  0  0  0  0  0  0  0  0  0  0
  145.2883  131.4609  152.5058 H   0  0  0  0  0  0  0  0  0  0  0  0
  144.6637  133.2470  150.1033 H   0  0  0  0  0  0  0  0  0  0  0  0
  143.5831  132.0799  150.8271 H   0  0  0  0  0  0  0  0  0  0  0  0
  143.0605  134.4091  151.5819 H   0  0  0  0  0  0  0  0  0  0  0  0
  143.4947  133.3804  152.9255 H   0  0  0  0  0  0  0  0  0  0  0  0
  144.6411  135.5501  153.1403 H   0  0  0  0  0  0  0  0  0  0  0  0
  145.3158  135.4018  151.5360 H   0  0  0  0  0  0  0  0  0  0  0  0
  148.7010  138.7927  154.1873 H   0  0  0  0  0  0  0  0  0  0  0  0
  1  2  1  0  0  0  0
  1 25  1  0  0  0  0
  1 26  1  0  0  0  0
  1 27  1  0  0  0  0
  2  3  1  0  0  0  0
  2 28  1  0  0  0  0
  3  4  2  0  0  0  0
  3  5  1  0  0  0  0
  5 24  2  0  0  0  0
  5  6  1  0  0  0  0
  6  7  2  0  0  0  0
  6 29  1  0  0  0  0
  7  8  1  0  0  0  0
  7 30  1  0  0  0  0
  8  9  2  0  0  0  0
  8 10  1  0  0  0  0
 10 11  1  0  0  0  0
 10 24  1  0  0  0  0
 11 12  1  0  0  0  0
 11 31  1  0  0  0  0
 11 32  1  0  0  0  0
 12 13  2  0  0  0  0
 12 14  1  0  0  0  0
 14 15  1  0  0  0  0
 14 33  1  0  0  0  0
 15 16  2  0  0  0  0
 15 17  1  0  0  0  0
 17 18  1  0  0  0  0
 17 34  1  0  0  0  0
 18 23  1  0  0  0  0
 18 19  1  0  0  0  0
 18 35  1  0  0  0  0
 19 20  1  0  0  0  0
 19 36  1  0  0  0  0
 19 37  1  0  0  0  0
 20 21  1  0  0  0  0
 20 38  1  0  0  0  0
 20 39  1  0  0  0  0
 21 22  1  0  0  0  0
 21 40  1  0  0  0  0
 21 41  1  0  0  0  0
 22 23  1  0  0  0  0
 22 42  1  0  0  0  0
 22 43  1  0  0  0  0
 23 44  1  0  0  0  0
 23 45  1  0  0  0  0
 24 46  1  0  0  0  0
M  END
> <s_m_source_file>
AV-unprocessed.smi

> <i_m_source_file_index>
1822

> <i_lp_mmshare_version>
43012

> <i_f3d_flags>
0

> <s_epik_input>
W0NIM11bTkhdQyg9TyljMVtjSF1bY0hdYyg9TyluKFtjSF0xKVtDSDJdQyg9TylbTkhdQyg9TylbTkhdW0NIXTJbQ0gyXVtDSDJdW0NIMl1bQ0gyXVtDSDJdMg==

> <s_epik_cmdline>
J2VwaWtfcHl0aG9uJywgJy1waCcsICc3LjAnLCAnLXRuJywgJzgnLCAnLW1hJywgJzIwMCcsICctbWV0YWxfYmluZGluZycsICctaW1hZScsICc8aW5maWxlLm1hZT4nLCAnLW9tYWUnLCAnPG91dGZpbGUubWFlPic=

> <r_lp_tautomer_probability>
1

> <r_epik_Ionization_Penalty>
3.30797e-05

> <r_epik_Ionization_Penalty_Charging>
3.7169e-08

> <r_epik_Ionization_Penalty_Neutral>
3.30425e-05

> <r_epik_State_Penalty>
-0

> <r_epik_Charging_Adjusted_Penalty>
3.7169e-08

> <i_epik_Tot_Q>
0

> <i_epik_Tot_abs_Q>
0

> <r_epik_Metal_State_Penalty>
-0

> <b_epik_Metal_Only>
0

> <s_lp_Force_Field>
OPLS_2005

> <r_lp_Energy>
24.3679

> <b_lp_Chiralities_Consistent>
1

> <s_lp_Variant>
AV-unprocessed.smi:1822-1

> <Gold.Version>
5.8.1

> <Gold.Id.Protein>
6NUR|6NUR_protein|mol2

> <Gold.PLP.Fitness>
51.4080

> <Gold.PLP.PLP>
-40.1064

> <Gold.PLP.part.hbond>
-3.7605

> <Gold.PLP.part.metal>
0.0000

> <Gold.PLP.part.buried>
-4.7056

> <Gold.PLP.part.nonpolar>
-31.5829

> <Gold.PLP.part.repulsive>
0.3869

> <Gold.PLP.ligand.clash>
0.0000

> <Gold.PLP.ligand.torsion>
0.2332

> <Gold.PLP.Chemscore.Hbond>
3.9193

> <Gold.PLP.Chemscore.CHOScore>
0.0000

> <Gold.PLP.Chemscore.Metal>
0.0000

> <Gold.Chemscore.Hbonds>
donor molecule, donor type, donor heavy atom, donor atom, acceptor molecule, acceptor atom, score
      L1  H     2    28       P1  8028  0.83
      L1  H    14    33       P1  7948  0.96
      L1  H    17    34       P1  7948  0.96
      P1  H  7997  8008       L1     9  0.98

> <Gold.PLP.Chemscore.Internal.Correction>
0.0103

> <Gold.Rescore>
     Score         DG    S(hbond)    S(metal)    S(lipo)     H(rot)  DE(clash)    DE(int)     intcor
     20.32     -22.13       3.71        0.00      71.88       1.62       0.15       1.67       ----

> <Gold.Chemscore.Fitness>
20.3185

> <Gold.Chemscore.DG>
-22.1329

> <Gold.Chemscore.ZeroCoef>
-5.4800

> <Gold.Chemscore.Hbond>
3.7059

> <Gold.Chemscore.Metal>
0.0000

> <Gold.Chemscore.Lipo>
71.8779

> <Gold.Chemscore.Internal_Hbond>
0.0000

> <Gold.Chemscore.DEClash>
0.1484

> <Gold.Chemscore.DEInternal>
1.6660

> <Gold.Chemscore.Rot>
1.6151

> <Gold.Chemscore.Internal.Correction>
   9.000000E+99

> <Gold.Chemscore.Hbonds>
donor molecule, donor type, donor heavy atom, donor atom, acceptor molecule, acceptor atom, score
      L1  H     2    28       P1  8028  0.69
      L1  H    14    33       P1  7948  0.78
      L1  H    17    34       P1  7948  0.87
      P1  H  7997  8008       L1     9  0.91

> <Gold.Chemscore.Hbond.Weighted>
-12.3777

> <Gold.Chemscore.Metal.Weighted>
-0.0000

> <Gold.Chemscore.Lipo.Weighted>
-8.4097

> <Gold.Chemscore.Internal_Hbond.Weighted>
0.0000

> <Gold.Chemscore.DEClash.Weighted>
0.1484

> <Gold.Chemscore.DEInternal.Weighted>
1.6660

> <Gold.Chemscore.Rot.Weighted>
4.1346

> <Gold.Chemscore.Internal.Correction.Weighted>
   9.000000E+99

> <Gold.Protein.RotatedTorsions>
[ 6907 6896 6895 6894 ] final   61.57 input  -60.11 | X-H torsion
[ 7974 7965 7964 7962 ] final  114.73 input  175.53 | X-H torsion
[ 8008 7997 7996 7995 ] final  -50.06 input   59.86 | X-H torsion
[ 10167 10162 10161 10158 ] final   -6.97 input  -65.29 | X-H torsion
[ 10718 10713 10712 10709 ] final -121.67 input   66.30 | X-H torsion
[ 10763 10752 10751 10750 ] final    1.15 input  -60.55 | X-H torsion
[ 11005 11000 10999 10996 ] final   51.59 input  -57.11 | X-H torsion

> <Gold.Protein.ActiveResidues>
 VAL166  LYS551  ARG553  GLY616  TRP617  ASP618  TYR619  PRO620  LYS621  CYS622 
 ASP623  PHE694  ASN695  SER759  ASP760  ASP761  ALA762  ILE779  LEU786  VAL792 
 PHE793  MET794  SER795  GLU796  ALA797  LYS798  CYS799  TRP800  GLU811  SER814 

> <Gold.Protein.RotatedAtoms>
  152.4100  134.6141  160.0033 H   0  0  0  0  0  0  0  0  0  0  0  0  # atno 6907 bound_to 6896
  151.6322  133.3325  159.3119 H   0  0  0  0  0  0  0  0  0  0  0  0  # atno 6908 bound_to 6896
  150.7991  134.7113  159.6650 H   0  0  0  0  0  0  0  0  0  0  0  0  # atno 6909 bound_to 6896
  145.2008  139.2953  143.4319 H   0  0  0  0  0  0  0  0  0  0  0  0  # atno 7974 bound_to 7965
  154.4055  140.1281  156.4604 H   0  0  0  0  0  0  0  0  0  0  0  0  # atno 8008 bound_to 7997
  155.7279  140.3492  155.5026 H   0  0  0  0  0  0  0  0  0  0  0  0  # atno 8009 bound_to 7997
  155.9154  140.1043  157.1237 H   0  0  0  0  0  0  0  0  0  0  0  0  # atno 8010 bound_to 7997
  140.7014  143.6134  150.8682 H   0  0  0  0  0  0  0  0  0  0  0  0  # atno 10167 bound_to 10162
  156.1356  130.6428  150.9690 H   0  0  0  0  0  0  0  0  0  0  0  0  # atno 10718 bound_to 10713
  153.3116  135.6963  153.7110 H   0  0  0  0  0  0  0  0  0  0  0  0  # atno 10763 bound_to 10752
  153.5985  135.3466  155.2937 H   0  0  0  0  0  0  0  0  0  0  0  0  # atno 10764 bound_to 10752
  154.8576  135.4335  154.2256 H   0  0  0  0  0  0  0  0  0  0  0  0  # atno 10765 bound_to 10752
  140.0920  134.5196  155.8843 H   0  0  0  0  0  0  0  0  0  0  0  0  # atno 11005 bound_to 11000
  146.3418  140.2252  142.8592 LP  0  0  0  0  0  0  0  0  0  0  0  0  # atno 17320 bound_to 7965
  144.9950  140.8581  143.5316 LP  0  0  0  0  0  0  0  0  0  0  0  0  # atno 17321 bound_to 7965
  139.9856  143.5903  152.2928 LP  0  0  0  0  0  0  0  0  0  0  0  0  # atno 17342 bound_to 10162
  139.6539  144.7661  151.2093 LP  0  0  0  0  0  0  0  0  0  0  0  0  # atno 17343 bound_to 10162
  157.6529  131.0894  150.8012 LP  0  0  0  0  0  0  0  0  0  0  0  0  # atno 17370 bound_to 10713
  156.8092  130.4947  149.5358 LP  0  0  0  0  0  0  0  0  0  0  0  0  # atno 17371 bound_to 10713
  141.2081  133.6670  156.6347 LP  0  0  0  0  0  0  0  0  0  0  0  0  # atno 17394 bound_to 11000
  140.3339  134.7906  157.4347 LP  0  0  0  0  0  0  0  0  0  0  0  0  # atno 17395 bound_to 11000

$$$$
