AV-unprocessed.smi:1779|AV-procd|sdf|7182|dock5
  -GOLD-   22720 8423D 1   1.00000     0.00000
 Structure written by MMmdl.
 47 48  0  0  0  0  0  0  0  0  2 V2000
  151.8077  141.3816  157.7344 C   0  0  0  0  0  0  0  0  0  0  0  0
  151.4618  140.4918  156.5771 C   0  0  0  0  0  0  0  0  0  0  0  0
  150.2177  140.3901  155.8893 C   0  0  0  0  0  0  0  0  0  0  0  0
  150.4745  139.4374  154.9416 C   0  0  0  0  0  0  0  0  0  0  0  0
  149.6442  138.9291  153.9923 N   0  0  0  0  0  0  0  0  0  0  0  0
  148.3898  139.3034  153.6858 C   0  0  0  0  0  0  0  0  0  0  0  0
  147.7629  140.2140  154.2270 O   0  0  0  0  0  0  0  0  0  0  0  0
  147.8889  138.5517  152.6960 N   0  0  0  0  0  0  0  0  0  0  0  0
  146.5459  138.6950  152.1452 C   0  0  0  0  0  0  0  0  0  0  0  0
  145.7405  137.3924  152.2946 C   0  0  1  0  0  0  0  0  0  0  0  0
  144.3690  137.7298  152.2331 O   0  0  0  0  0  0  0  0  0  0  0  0
  146.0616  136.3679  151.1838 C   0  0  0  0  0  0  0  0  0  0  0  0
  145.5180  135.0150  151.4692 N   0  3  0  0  0  0  0  0  0  0  0  0
  144.0578  134.9284  151.2044 C   0  0  0  0  0  0  0  0  0  0  0  0
  143.4918  133.5667  151.6419 C   0  0  0  0  0  0  0  0  0  0  0  0
  144.2381  132.4148  150.9568 C   0  0  0  0  0  0  0  0  0  0  0  0
  145.7452  132.5421  151.2135 C   0  0  0  0  0  0  0  0  0  0  0  0
  146.2627  133.9247  150.7828 C   0  0  0  0  0  0  0  0  0  0  0  0
  151.7791  139.0169  155.0756 N   0  0  0  0  0  0  0  0  0  0  0  0
  152.5127  138.0296  154.3078 C   0  0  0  0  0  0  0  0  0  0  0  0
  152.3865  139.6736  156.0874 N   0  0  0  0  0  0  0  0  0  0  0  0
  150.9605  142.0065  158.0183 H   0  0  0  0  0  0  0  0  0  0  0  0
  152.6389  142.0424  157.4874 H   0  0  0  0  0  0  0  0  0  0  0  0
  152.0941  140.7955  158.6080 H   0  0  0  0  0  0  0  0  0  0  0  0
  149.3042  140.9338  156.0780 H   0  0  0  0  0  0  0  0  0  0  0  0
  150.0263  138.1662  153.4533 H   0  0  0  0  0  0  0  0  0  0  0  0
  148.4674  137.8185  152.3131 H   0  0  0  0  0  0  0  0  0  0  0  0
  146.0517  139.5061  152.6825 H   0  0  0  0  0  0  0  0  0  0  0  0
  146.5858  138.9902  151.0948 H   0  0  0  0  0  0  0  0  0  0  0  0
  145.9362  136.9770  153.2827 H   0  0  0  0  0  0  0  0  0  0  0  0
  144.2523  138.6093  152.5579 H   0  0  0  0  0  0  0  0  0  0  0  0
  145.6500  136.7421  150.2448 H   0  0  0  0  0  0  0  0  0  0  0  0
  147.1384  136.2882  151.0270 H   0  0  0  0  0  0  0  0  0  0  0  0
  143.5367  135.7195  151.7455 H   0  0  0  0  0  0  0  0  0  0  0  0
  143.8690  135.0927  150.1422 H   0  0  0  0  0  0  0  0  0  0  0  0
  143.5763  133.4654  152.7248 H   0  0  0  0  0  0  0  0  0  0  0  0
  142.4280  133.5121  151.4086 H   0  0  0  0  0  0  0  0  0  0  0  0
  143.8716  131.4556  151.3239 H   0  0  0  0  0  0  0  0  0  0  0  0
  144.0430  132.4348  149.8837 H   0  0  0  0  0  0  0  0  0  0  0  0
  145.9517  132.3869  152.2734 H   0  0  0  0  0  0  0  0  0  0  0  0
  146.2813  131.7592  150.6761 H   0  0  0  0  0  0  0  0  0  0  0  0
  146.1641  134.0401  149.7022 H   0  0  0  0  0  0  0  0  0  0  0  0
  147.3263  133.9877  151.0085 H   0  0  0  0  0  0  0  0  0  0  0  0
  151.9512  137.0954  154.2780 H   0  0  0  0  0  0  0  0  0  0  0  0
  153.4880  137.8399  154.7582 H   0  0  0  0  0  0  0  0  0  0  0  0
  152.6568  138.3925  153.2899 H   0  0  0  0  0  0  0  0  0  0  0  0
  145.6276  134.8690  152.4625 H   0  0  0  0  0  0  0  0  0  0  0  0
  1  2  1  0  0  0  0
  1 22  1  0  0  0  0
  1 23  1  0  0  0  0
  1 24  1  0  0  0  0
  2 21  2  0  0  0  0
  2  3  1  0  0  0  0
  3  4  2  0  0  0  0
  3 25  1  0  0  0  0
  4  5  1  0  0  0  0
  4 19  1  0  0  0  0
  5  6  1  0  0  0  0
  5 26  1  0  0  0  0
  6  7  2  0  0  0  0
  6  8  1  0  0  0  0
  8  9  1  0  0  0  0
  8 27  1  0  0  0  0
  9 10  1  0  0  0  0
  9 28  1  0  0  0  0
  9 29  1  0  0  0  0
 10 11  1  0  0  0  0
 10 12  1  0  0  0  0
 10 30  1  0  0  0  0
 11 31  1  0  0  0  0
 12 13  1  0  0  0  0
 12 32  1  0  0  0  0
 12 33  1  0  0  0  0
 13 18  1  0  0  0  0
 13 14  1  0  0  0  0
 13 47  1  0  0  0  0
 14 15  1  0  0  0  0
 14 34  1  0  0  0  0
 14 35  1  0  0  0  0
 15 16  1  0  0  0  0
 15 36  1  0  0  0  0
 15 37  1  0  0  0  0
 16 17  1  0  0  0  0
 16 38  1  0  0  0  0
 16 39  1  0  0  0  0
 17 18  1  0  0  0  0
 17 40  1  0  0  0  0
 17 41  1  0  0  0  0
 18 42  1  0  0  0  0
 18 43  1  0  0  0  0
 19 20  1  0  0  0  0
 19 21  1  0  0  0  0
 20 44  1  0  0  0  0
 20 45  1  0  0  0  0
 20 46  1  0  0  0  0
M  CHG  1  13   1
M  END
> <s_m_source_file>
AV-unprocessed.smi

> <i_m_source_file_index>
1779

> <i_lp_mmshare_version>
43012

> <i_f3d_flags>
0

> <s_epik_input>
W0NIM11jMVtjSF1jKG4objEpW0NIM10pW05IXUMoPU8pW05IXVtDSDJdW0NASF0oW09IXSlbQ0gyXU4yW0NIMl1bQ0gyXVtDSDJdW0NIMl1bQ0gyXTI=

> <s_epik_cmdline>
J2VwaWtfcHl0aG9uJywgJy1waCcsICc3LjAnLCAnLXRuJywgJzgnLCAnLW1hJywgJzIwMCcsICctbWV0YWxfYmluZGluZycsICctaW1hZScsICc8aW5maWxlLm1hZT4nLCAnLW9tYWUnLCAnPG91dGZpbGUubWFlPic=

> <r_lp_tautomer_probability>
1

> <r_epik_Ionization_Penalty>
0.00528203

> <r_epik_Ionization_Penalty_Charging>
0.00519125

> <r_epik_Ionization_Penalty_Neutral>
9.07781e-05

> <r_epik_State_Penalty>
0.0037836

> <r_epik_Charging_Adjusted_Penalty>
0.00897485

> <i_epik_Tot_Q>
1

> <i_epik_Tot_abs_Q>
1

> <r_epik_Metal_State_Penalty>
-0

> <b_epik_Metal_Only>
0

> <s_lp_Force_Field>
OPLS_2005

> <r_lp_Energy>
21.4604

> <b_lp_Chiralities_Consistent>
1

> <s_lp_Variant>
AV-unprocessed.smi:1779-2

> <Gold.Version>
5.8.1

> <Gold.Id.Protein>
6NUR|6NUR_protein|mol2

> <Gold.PLP.Fitness>
49.0676

> <Gold.PLP.PLP>
-41.0058

> <Gold.PLP.part.hbond>
-6.0000

> <Gold.PLP.part.metal>
0.0000

> <Gold.PLP.part.buried>
-2.6373

> <Gold.PLP.part.nonpolar>
-32.8552

> <Gold.PLP.part.repulsive>
0.2788

> <Gold.PLP.ligand.clash>
0.0000

> <Gold.PLP.ligand.torsion>
0.5145

> <Gold.PLP.Chemscore.Hbond>
3.0000

> <Gold.PLP.Chemscore.CHOScore>
0.0000

> <Gold.PLP.Chemscore.Metal>
0.0000

> <Gold.Chemscore.Hbonds>
donor molecule, donor type, donor heavy atom, donor atom, acceptor molecule, acceptor atom, score
      L1  H     8    27       P1  7948  1.00
      L1  H    11    31       P1 10175  1.00
      P1  H  7997  8008       L1    21  0.89

> <Gold.PLP.Chemscore.Internal.Correction>
0.0907

> <Gold.Rescore>
     Score         DG    S(hbond)    S(metal)    S(lipo)     H(rot)  DE(clash)    DE(int)     intcor
     15.38     -18.87       2.93        0.00      82.42       2.36       1.76       1.74       ----

> <Gold.Chemscore.Fitness>
15.3753

> <Gold.Chemscore.DG>
-18.8725

> <Gold.Chemscore.ZeroCoef>
-5.4800

> <Gold.Chemscore.Hbond>
2.9290

> <Gold.Chemscore.Metal>
0.0000

> <Gold.Chemscore.Lipo>
82.4218

> <Gold.Chemscore.Internal_Hbond>
0.0000

> <Gold.Chemscore.DEClash>
1.7555

> <Gold.Chemscore.DEInternal>
1.7417

> <Gold.Chemscore.Rot>
2.3569

> <Gold.Chemscore.Internal.Correction>
   9.000000E+99

> <Gold.Chemscore.Hbonds>
donor molecule, donor type, donor heavy atom, donor atom, acceptor molecule, acceptor atom, score
      L1  H     8    27       P1  7948  1.00
      L1  H    11    31       P1 10175  0.97
      P1  H  7997  8008       L1    21  0.83

> <Gold.Chemscore.Hbond.Weighted>
-9.7829

> <Gold.Chemscore.Metal.Weighted>
-0.0000

> <Gold.Chemscore.Lipo.Weighted>
-9.6433

> <Gold.Chemscore.Internal_Hbond.Weighted>
0.0000

> <Gold.Chemscore.DEClash.Weighted>
1.7555

> <Gold.Chemscore.DEInternal.Weighted>
1.7417

> <Gold.Chemscore.Rot.Weighted>
6.0337

> <Gold.Chemscore.Internal.Correction.Weighted>
   9.000000E+99

> <Gold.Protein.RotatedTorsions>
[ 6907 6896 6895 6894 ] final  -35.67 input  -60.11 | X-H torsion
[ 7974 7965 7964 7962 ] final  -56.73 input  175.53 | X-H torsion
[ 8008 7997 7996 7995 ] final  -22.83 input   59.86 | X-H torsion
[ 10167 10162 10161 10158 ] final  100.87 input  -65.29 | X-H torsion
[ 10718 10713 10712 10709 ] final   97.08 input   66.30 | X-H torsion
[ 10763 10752 10751 10750 ] final -115.31 input  -60.55 | X-H torsion
[ 11005 11000 10999 10996 ] final  -47.58 input  -57.11 | X-H torsion

> <Gold.Protein.ActiveResidues>
 VAL166  LYS551  ARG553  GLY616  TRP617  ASP618  TYR619  PRO620  LYS621  CYS622 
 ASP623  PHE694  ASN695  SER759  ASP760  ASP761  ALA762  ILE779  LEU786  VAL792 
 PHE793  MET794  SER795  GLU796  ALA797  LYS798  CYS799  TRP800  GLU811  SER814 

> <Gold.Protein.RotatedAtoms>
  151.0368  134.9579  159.8140 H   0  0  0  0  0  0  0  0  0  0  0  0  # atno 6907 bound_to 6896
  152.5356  134.2709  159.8981 H   0  0  0  0  0  0  0  0  0  0  0  0  # atno 6908 bound_to 6896
  151.2720  133.4208  159.2656 H   0  0  0  0  0  0  0  0  0  0  0  0  # atno 6909 bound_to 6896
  145.8593  140.8297  142.9945 H   0  0  0  0  0  0  0  0  0  0  0  0  # atno 7974 bound_to 7965
  154.4621  140.1997  156.0218 H   0  0  0  0  0  0  0  0  0  0  0  0  # atno 8008 bound_to 7997
  156.0858  140.3265  155.7724 H   0  0  0  0  0  0  0  0  0  0  0  0  # atno 8009 bound_to 7997
  155.5037  140.0556  157.2926 H   0  0  0  0  0  0  0  0  0  0  0  0  # atno 8010 bound_to 7997
  139.7489  144.6990  151.0462 H   0  0  0  0  0  0  0  0  0  0  0  0  # atno 10167 bound_to 10162
  157.6918  131.0598  150.4589 H   0  0  0  0  0  0  0  0  0  0  0  0  # atno 10718 bound_to 10713
  154.8476  135.4386  154.1642 H   0  0  0  0  0  0  0  0  0  0  0  0  # atno 10763 bound_to 10752
  153.2771  135.6950  153.7428 H   0  0  0  0  0  0  0  0  0  0  0  0  # atno 10764 bound_to 10752
  153.6646  135.3429  155.3111 H   0  0  0  0  0  0  0  0  0  0  0  0  # atno 10765 bound_to 10752
  141.0649  133.6697  156.3318 H   0  0  0  0  0  0  0  0  0  0  0  0  # atno 11005 bound_to 11000
  144.6727  140.1071  143.7457 LP  0  0  0  0  0  0  0  0  0  0  0  0  # atno 17320 bound_to 7965
  145.9267  139.2580  143.1349 LP  0  0  0  0  0  0  0  0  0  0  0  0  # atno 17321 bound_to 7965
  140.7795  143.4833  150.9989 LP  0  0  0  0  0  0  0  0  0  0  0  0  # atno 17342 bound_to 10162
  139.8521  143.7424  152.3177 LP  0  0  0  0  0  0  0  0  0  0  0  0  # atno 17343 bound_to 10162
  156.4934  130.4100  149.6393 LP  0  0  0  0  0  0  0  0  0  0  0  0  # atno 17370 bound_to 10713
  156.3395  130.7374  151.2317 LP  0  0  0  0  0  0  0  0  0  0  0  0  # atno 17371 bound_to 10713
  140.5793  134.5761  157.5476 LP  0  0  0  0  0  0  0  0  0  0  0  0  # atno 17394 bound_to 11000
  139.9467  134.7689  156.0545 LP  0  0  0  0  0  0  0  0  0  0  0  0  # atno 17395 bound_to 11000

$$$$
