AV-unprocessed.smi:101|AV-procd|sdf|931|dock3
  -GOLD-   2262017443D 1   1.00000     0.00000
 Structure written by MMmdl.
 43 45  0  0  0  0  0  0  0  0  2 V2000
  147.8681  135.5035  157.4434 C   0  0  0  0  0  0  0  0  0  0  0  0
  147.6275  136.5154  156.3366 C   0  0  0  0  0  0  0  0  0  0  0  0
  148.6223  137.2713  155.8207 C   0  0  0  0  0  0  0  0  0  0  0  0
  148.3997  138.1814  154.8005 N   0  0  0  0  0  0  0  0  0  0  0  0
  149.5256  139.0125  154.2199 C   0  0  2  0  0  0  0  0  0  0  0  0
  150.7073  138.7498  154.9237 O   0  0  0  0  0  0  0  0  0  0  0  0
  151.2602  139.9581  155.4327 C   0  0  2  0  0  0  0  0  0  0  0  0
  152.0351  139.6927  156.7328 C   0  0  0  0  0  0  0  0  0  0  0  0
  152.0227  140.8476  157.5574 O   0  0  0  0  0  0  0  0  0  0  0  0
  152.7222  140.8757  158.7058 C   0  0  0  0  0  0  0  0  0  0  0  0
  153.4620  139.9631  159.0788 O   0  0  0  0  0  0  0  0  0  0  0  0
  152.5064  142.1320  159.4800 C   0  0  0  0  0  0  0  0  0  0  0  0
  152.6308  142.1089  160.8887 C   0  0  0  0  0  0  0  0  0  0  0  0
  152.4310  143.2798  161.6455 C   0  0  0  0  0  0  0  0  0  0  0  0
  152.1063  144.4886  161.0028 C   0  0  0  0  0  0  0  0  0  0  0  0
  151.9839  144.5257  159.6017 C   0  0  0  0  0  0  0  0  0  0  0  0
  152.1826  143.3557  158.8430 C   0  0  0  0  0  0  0  0  0  0  0  0
  150.0738  140.9156  155.5478 C   0  0  1  0  0  0  0  0  0  0  0  0
  150.4552  142.2783  155.5355 O   0  0  0  0  0  0  0  0  0  0  0  0
  149.2170  140.5169  154.3541 C   0  0  1  0  0  0  0  0  0  0  0  0
  149.5607  141.2072  153.1668 O   0  0  0  0  0  0  0  0  0  0  0  0
  147.0913  138.3331  154.2713 C   0  0  0  0  0  0  0  0  0  0  0  0
  146.9276  139.1469  153.3615 O   0  0  0  0  0  0  0  0  0  0  0  0
  146.0801  137.5818  154.7921 N   0  5  0  0  0  0  0  0  0  0  0  0
  146.2724  136.6817  155.7985 C   0  0  0  0  0  0  0  0  0  0  0  0
  145.3492  136.0136  156.2632 O   0  0  0  0  0  0  0  0  0  0  0  0
  148.9226  135.4564  157.7162 H   0  0  0  0  0  0  0  0  0  0  0  0
  147.5604  134.5077  157.1227 H   0  0  0  0  0  0  0  0  0  0  0  0
  147.2982  135.7704  158.3337 H   0  0  0  0  0  0  0  0  0  0  0  0
  149.6158  137.1456  156.2218 H   0  0  0  0  0  0  0  0  0  0  0  0
  149.6305  138.6680  153.1893 H   0  0  0  0  0  0  0  0  0  0  0  0
  151.9507  140.3289  154.6731 H   0  0  0  0  0  0  0  0  0  0  0  0
  151.5953  138.8446  157.2595 H   0  0  0  0  0  0  0  0  0  0  0  0
  153.0691  139.4337  156.5023 H   0  0  0  0  0  0  0  0  0  0  0  0
  152.8785  141.1922  161.4044 H   0  0  0  0  0  0  0  0  0  0  0  0
  152.5260  143.2494  162.7210 H   0  0  0  0  0  0  0  0  0  0  0  0
  151.9508  145.3859  161.5837 H   0  0  0  0  0  0  0  0  0  0  0  0
  151.7330  145.4523  159.1066 H   0  0  0  0  0  0  0  0  0  0  0  0
  152.0769  143.4199  157.7697 H   0  0  0  0  0  0  0  0  0  0  0  0
  149.5056  140.7164  156.4568 H   0  0  0  0  0  0  0  0  0  0  0  0
  149.6777  142.8053  155.6382 H   0  0  0  0  0  0  0  0  0  0  0  0
  148.1588  140.6930  154.5503 H   0  0  0  0  0  0  0  0  0  0  0  0
  149.5074  140.5980  152.4459 H   0  0  0  0  0  0  0  0  0  0  0  0
  1  2  1  0  0  0  0
  1 27  1  0  0  0  0
  1 28  1  0  0  0  0
  1 29  1  0  0  0  0
  2 25  1  0  0  0  0
  2  3  2  0  0  0  0
  3  4  1  0  0  0  0
  3 30  1  0  0  0  0
  4  5  1  0  0  0  0
  4 22  1  0  0  0  0
  5 20  1  0  0  0  0
  5  6  1  0  0  0  0
  5 31  1  0  0  0  0
  6  7  1  0  0  0  0
  7  8  1  0  0  0  0
  7 18  1  0  0  0  0
  7 32  1  0  0  0  0
  8  9  1  0  0  0  0
  8 33  1  0  0  0  0
  8 34  1  0  0  0  0
  9 10  1  0  0  0  0
 10 11  2  0  0  0  0
 10 12  1  0  0  0  0
 12 17  1  0  0  0  0
 12 13  2  0  0  0  0
 13 14  1  0  0  0  0
 13 35  1  0  0  0  0
 14 15  2  0  0  0  0
 14 36  1  0  0  0  0
 15 16  1  0  0  0  0
 15 37  1  0  0  0  0
 16 17  2  0  0  0  0
 16 38  1  0  0  0  0
 17 39  1  0  0  0  0
 18 19  1  0  0  0  0
 18 20  1  0  0  0  0
 18 40  1  0  0  0  0
 19 41  1  0  0  0  0
 20 21  1  0  0  0  0
 20 42  1  0  0  0  0
 21 43  1  0  0  0  0
 22 23  2  0  0  0  0
 22 24  1  0  0  0  0
 24 25  1  0  0  0  0
 25 26  2  0  0  0  0
M  CHG  1  24  -1
M  END
> <s_m_source_file>
AV-unprocessed.smi

> <i_m_source_file_index>
101

> <i_lp_mmshare_version>
43012

> <i_f3d_flags>
0

> <s_epik_input>
Tz1jMVtuSF1jKD1PKW4oW2NIXWMxW0NIM10pW0NAQEhdMk9bQ0BIXShbQ0BASF0oW09IXSlbQ0BIXTJbT0hdKVtDSDJdT0MoPU8pYzNbY0hdW2NIXVtjSF1bY0hdW2NIXTM=

> <s_epik_cmdline>
J2VwaWtfcHl0aG9uJywgJy1waCcsICc3LjAnLCAnLXRuJywgJzgnLCAnLW1hJywgJzIwMCcsICctbWV0YWxfYmluZGluZycsICctaW1hZScsICc8aW5maWxlLm1hZT4nLCAnLW9tYWUnLCAnPG91dGZpbGUubWFlPic=

> <r_lp_tautomer_probability>
0.999537

> <r_epik_Ionization_Penalty>
3.21006

> <r_epik_Ionization_Penalty_Charging>
5.75142e-08

> <r_epik_Ionization_Penalty_Neutral>
3.21006

> <r_epik_State_Penalty>
3.20925

> <r_epik_Charging_Adjusted_Penalty>
3.20925

> <i_epik_Tot_Q>
-1

> <i_epik_Tot_abs_Q>
1

> <r_epik_Metal_State_Penalty>
0.119957

> <b_epik_Metal_Only>
1

> <s_epik_Chemistry_Notes>
This compound has an ester and may undergo hydrolysis at high or low pH. This compound contains an acetal/aminal-like group ( X-CH(R)-Y where X, Y are N, S, or O) that may be acid/base labile, releasing an aldehyde.

> <s_lp_Force_Field>
OPLS_2005

> <r_lp_Energy>
43.2015

> <b_lp_Chiralities_Consistent>
1

> <s_lp_Variant>
AV-unprocessed.smi:101-19

> <Gold.Version>
5.8.1

> <Gold.Id.Protein>
6NUR|6NUR_protein|mol2

> <Gold.PLP.Fitness>
50.9461

> <Gold.PLP.PLP>
-42.5376

> <Gold.PLP.part.hbond>
-4.7154

> <Gold.PLP.part.metal>
0.0000

> <Gold.PLP.part.buried>
-2.8241

> <Gold.PLP.part.nonpolar>
-34.3341

> <Gold.PLP.part.repulsive>
0.3601

> <Gold.PLP.ligand.clash>
0.0000

> <Gold.PLP.ligand.torsion>
0.7095

> <Gold.PLP.Chemscore.Hbond>
3.2572

> <Gold.PLP.Chemscore.CHOScore>
0.0000

> <Gold.PLP.Chemscore.Metal>
0.0000

> <Gold.Chemscore.Hbonds>
donor molecule, donor type, donor heavy atom, donor atom, acceptor molecule, acceptor atom, score
      L1  H    19    41       P1  8028  0.83
      L1  H    21    43       P1  7957  0.67
      P1  H  7989  7998       L1    21  0.03
      P1  H  7997  8010       L1    11  0.24
      P1  H  8011  8017       L1    21  0.70

> <Gold.PLP.Chemscore.Internal.Correction>
0.0561

> <Gold.Rescore>
     Score         DG    S(hbond)    S(metal)    S(lipo)     H(rot)  DE(clash)    DE(int)     intcor
     13.69     -15.89       2.25        0.00      96.23       3.27       0.09       2.11       ----

> <Gold.Chemscore.Fitness>
13.6927

> <Gold.Chemscore.DG>
-15.8863

> <Gold.Chemscore.ZeroCoef>
-5.4800

> <Gold.Chemscore.Hbond>
2.2479

> <Gold.Chemscore.Metal>
0.0000

> <Gold.Chemscore.Lipo>
96.2252

> <Gold.Chemscore.Internal_Hbond>
0.0000

> <Gold.Chemscore.DEClash>
0.0877

> <Gold.Chemscore.DEInternal>
2.1060

> <Gold.Chemscore.Rot>
3.2656

> <Gold.Chemscore.Internal.Correction>
   9.000000E+99

> <Gold.Chemscore.Hbonds>
donor molecule, donor type, donor heavy atom, donor atom, acceptor molecule, acceptor atom, score
      L1  H    19    41       P1  8028  0.78
      L1  H    21    43       P1  7957  0.67
      P1  H  7997  8010       L1    11  0.03
      P1  H  8011  8017       L1    21  0.10

> <Gold.Chemscore.Hbond.Weighted>
-7.5078

> <Gold.Chemscore.Metal.Weighted>
-0.0000

> <Gold.Chemscore.Lipo.Weighted>
-11.2583

> <Gold.Chemscore.Internal_Hbond.Weighted>
0.0000

> <Gold.Chemscore.DEClash.Weighted>
0.0877

> <Gold.Chemscore.DEInternal.Weighted>
2.1060

> <Gold.Chemscore.Rot.Weighted>
8.3598

> <Gold.Chemscore.Internal.Correction.Weighted>
   9.000000E+99

> <Gold.Protein.RotatedTorsions>
[ 6907 6896 6895 6894 ] final   41.41 input  -60.11 | X-H torsion
[ 7974 7965 7964 7962 ] final  -31.63 input  175.53 | X-H torsion
[ 8008 7997 7996 7995 ] final   17.84 input   59.86 | X-H torsion
[ 10167 10162 10161 10158 ] final   14.63 input  -65.29 | X-H torsion
[ 10718 10713 10712 10709 ] final -155.91 input   66.30 | X-H torsion
[ 10763 10752 10751 10750 ] final -147.75 input  -60.55 | X-H torsion
[ 11005 11000 10999 10996 ] final   24.92 input  -57.11 | X-H torsion

> <Gold.Protein.ActiveResidues>
 VAL166  LYS551  ARG553  GLY616  TRP617  ASP618  TYR619  PRO620  LYS621  CYS622 
 ASP623  PHE694  ASN695  SER759  ASP760  ASP761  ALA762  ILE779  LEU786  VAL792 
 PHE793  MET794  SER795  GLU796  ALA797  LYS798  CYS799  TRP800  GLU811  SER814 

> <Gold.Protein.RotatedAtoms>
  152.1949  134.8640  160.0513 H   0  0  0  0  0  0  0  0  0  0  0  0  # atno 6907 bound_to 6896
  151.9515  133.3662  159.4010 H   0  0  0  0  0  0  0  0  0  0  0  0  # atno 6908 bound_to 6896
  150.6942  134.4259  159.5270 H   0  0  0  0  0  0  0  0  0  0  0  0  # atno 6909 bound_to 6896
  146.1053  140.5691  142.8802 H   0  0  0  0  0  0  0  0  0  0  0  0  # atno 7974 bound_to 7965
  154.8972  140.2995  155.5337 H   0  0  0  0  0  0  0  0  0  0  0  0  # atno 8008 bound_to 7997
  156.3019  140.2413  156.3930 H   0  0  0  0  0  0  0  0  0  0  0  0  # atno 8009 bound_to 7997
  154.8558  140.0407  157.1622 H   0  0  0  0  0  0  0  0  0  0  0  0  # atno 8010 bound_to 7997
  140.5922  143.8772  150.6885 H   0  0  0  0  0  0  0  0  0  0  0  0  # atno 10167 bound_to 10162
  156.5194  130.8471  151.2676 H   0  0  0  0  0  0  0  0  0  0  0  0  # atno 10718 bound_to 10713
  154.8269  135.3352  154.6867 H   0  0  0  0  0  0  0  0  0  0  0  0  # atno 10763 bound_to 10752
  153.7492  135.6940  153.4954 H   0  0  0  0  0  0  0  0  0  0  0  0  # atno 10764 bound_to 10752
  153.2189  135.4456  155.0416 H   0  0  0  0  0  0  0  0  0  0  0  0  # atno 10765 bound_to 10752
  140.3534  134.2204  155.7678 H   0  0  0  0  0  0  0  0  0  0  0  0  # atno 11005 bound_to 11000
  144.7465  140.5082  143.6832 LP  0  0  0  0  0  0  0  0  0  0  0  0  # atno 17320 bound_to 7965
  145.5774  139.1487  143.3254 LP  0  0  0  0  0  0  0  0  0  0  0  0  # atno 17321 bound_to 7965
  140.2297  143.3745  152.1575 LP  0  0  0  0  0  0  0  0  0  0  0  0  # atno 17342 bound_to 10162
  139.5235  144.7072  151.5317 LP  0  0  0  0  0  0  0  0  0  0  0  0  # atno 17343 bound_to 10162
  157.7439  130.9922  150.2630 LP  0  0  0  0  0  0  0  0  0  0  0  0  # atno 17370 bound_to 10713
  156.3164  130.3779  149.7614 LP  0  0  0  0  0  0  0  0  0  0  0  0  # atno 17371 bound_to 10713
  141.2005  133.7985  157.0484 LP  0  0  0  0  0  0  0  0  0  0  0  0  # atno 17394 bound_to 11000
  140.0684  134.9716  157.1426 LP  0  0  0  0  0  0  0  0  0  0  0  0  # atno 17395 bound_to 11000

$$$$
