AV-unprocessed.smi:560|AV-procd|sdf|2929|dock3
  -GOLD-   2262023423D 1   1.00000     0.00000
 Structure written by MMmdl.
 42 43  0  0  0  0  0  0  0  0  2 V2000
  147.4273  142.4661  154.3057 C   0  0  0  0  0  0  0  0  0  0  0  0
  147.5922  141.2787  155.2761 C   0  0  1  0  0  0  0  0  0  0  0  0
  146.7784  140.0419  154.8582 C   0  0  0  0  0  0  0  0  0  0  0  0
  146.0568  139.4563  155.6666 O   0  0  0  0  0  0  0  0  0  0  0  0
  146.9112  139.6478  153.5813 N   0  0  0  0  0  0  0  0  0  0  0  0
  146.2154  138.5195  152.9715 C   0  0  2  0  0  0  0  0  0  0  0  0
  146.5387  137.2077  153.7106 C   0  0  0  0  0  0  0  0  0  0  0  0
  145.8979  135.9994  153.0073 C   0  0  0  0  0  0  0  0  0  0  0  0
  146.3229  135.9187  151.5865 N   0  3  1  0  0  0  0  0  0  0  0  0
  145.8383  134.6839  150.9176 C   0  0  0  0  0  0  0  0  0  0  0  0
  144.3335  134.7105  150.6294 C   0  0  0  0  0  0  0  0  0  0  0  0
  143.9653  134.6745  149.3468 N   0  0  0  0  0  0  0  0  0  0  0  0
  143.5149  134.7775  151.5450 O   0  0  0  0  0  0  0  0  0  0  0  0
  145.9780  137.1605  150.8431 C   0  0  0  0  0  0  0  0  0  0  0  0
  146.6250  138.3933  151.4953 C   0  0  0  0  0  0  0  0  0  0  0  0
  148.9946  140.9278  155.4728 N   0  0  0  0  0  0  0  0  0  0  0  0
  149.9815  141.6805  156.0770 C   0  0  0  0  0  0  0  0  0  0  0  0
  151.1290  140.9406  156.0637 C   0  0  0  0  0  0  0  0  0  0  0  0
  150.7413  139.7276  155.4299 C   0  0  0  0  0  0  0  0  0  0  0  0
  149.4643  139.7192  155.0849 N   0  0  0  0  0  0  0  0  0  0  0  0
  146.3812  142.7631  154.2210 H   0  0  0  0  0  0  0  0  0  0  0  0
  147.7863  142.2291  153.3032 H   0  0  0  0  0  0  0  0  0  0  0  0
  147.9843  143.3346  154.6580 H   0  0  0  0  0  0  0  0  0  0  0  0
  147.2031  141.5993  156.2437 H   0  0  0  0  0  0  0  0  0  0  0  0
  147.5247  140.1838  152.9848 H   0  0  0  0  0  0  0  0  0  0  0  0
  145.1391  138.6987  153.0142 H   0  0  0  0  0  0  0  0  0  0  0  0
  147.6194  137.0665  153.7599 H   0  0  0  0  0  0  0  0  0  0  0  0
  146.1871  137.2577  154.7418 H   0  0  0  0  0  0  0  0  0  0  0  0
  146.1874  135.0877  153.5314 H   0  0  0  0  0  0  0  0  0  0  0  0
  144.8099  136.0648  153.0603 H   0  0  0  0  0  0  0  0  0  0  0  0
  146.3369  134.5686  149.9541 H   0  0  0  0  0  0  0  0  0  0  0  0
  146.0999  133.8072  151.5130 H   0  0  0  0  0  0  0  0  0  0  0  0
  142.9866  134.6848  149.0976 H   0  0  0  0  0  0  0  0  0  0  0  0
  144.6707  134.6319  148.6250 H   0  0  0  0  0  0  0  0  0  0  0  0
  146.3154  137.0868  149.8089 H   0  0  0  0  0  0  0  0  0  0  0  0
  144.8936  137.2787  150.8120 H   0  0  0  0  0  0  0  0  0  0  0  0
  146.3365  139.2926  150.9491 H   0  0  0  0  0  0  0  0  0  0  0  0
  147.7105  138.3168  151.4142 H   0  0  0  0  0  0  0  0  0  0  0  0
  149.7877  142.6708  156.4622 H   0  0  0  0  0  0  0  0  0  0  0  0
  152.0976  141.2219  156.4496 H   0  0  0  0  0  0  0  0  0  0  0  0
  151.3441  138.8573  155.2154 H   0  0  0  0  0  0  0  0  0  0  0  0
  147.3310  135.8518  151.5954 H   0  0  0  0  0  0  0  0  0  0  0  0
  1  2  1  0  0  0  0
  1 21  1  0  0  0  0
  1 22  1  0  0  0  0
  1 23  1  0  0  0  0
  2  3  1  0  0  0  0
  2 16  1  0  0  0  0
  2 24  1  0  0  0  0
  3  4  2  0  0  0  0
  3  5  1  0  0  0  0
  5  6  1  0  0  0  0
  5 25  1  0  0  0  0
  6 15  1  0  0  0  0
  6  7  1  0  0  0  0
  6 26  1  0  0  0  0
  7  8  1  0  0  0  0
  7 27  1  0  0  0  0
  7 28  1  0  0  0  0
  8  9  1  0  0  0  0
  8 29  1  0  0  0  0
  8 30  1  0  0  0  0
  9 10  1  0  0  0  0
  9 14  1  0  0  0  0
  9 42  1  0  0  0  0
 10 11  1  0  0  0  0
 10 31  1  0  0  0  0
 10 32  1  0  0  0  0
 11 12  1  0  0  0  0
 11 13  2  0  0  0  0
 12 33  1  0  0  0  0
 12 34  1  0  0  0  0
 14 15  1  0  0  0  0
 14 35  1  0  0  0  0
 14 36  1  0  0  0  0
 15 37  1  0  0  0  0
 15 38  1  0  0  0  0
 16 20  1  0  0  0  0
 16 17  1  0  0  0  0
 17 18  2  0  0  0  0
 17 39  1  0  0  0  0
 18 19  1  0  0  0  0
 18 40  1  0  0  0  0
 19 20  2  0  0  0  0
 19 41  1  0  0  0  0
M  CHG  1   9   1
M  END
> <s_m_source_file>
AV-unprocessed.smi

> <i_m_source_file_index>
560

> <i_lp_mmshare_version>
43012

> <i_f3d_flags>
0

> <s_epik_input>
bjFbY0hdW2NIXVtjSF1uMVtDQEhdKFtDSDNdKUMoPU8pW05IXVtDSF0yW0NIMl1bQ0gyXU4oW0NIMl1bQ0gyXTIpW0NIMl1DKD1PKVtOSDJd

> <s_epik_cmdline>
J2VwaWtfcHl0aG9uJywgJy1waCcsICc3LjAnLCAnLXRuJywgJzgnLCAnLW1hJywgJzIwMCcsICctbWV0YWxfYmluZGluZycsICctaW1hZScsICc8aW5maWxlLm1hZT4nLCAnLW9tYWUnLCAnPG91dGZpbGUubWFlPic=

> <r_lp_tautomer_probability>
1

> <r_epik_Ionization_Penalty>
1.02943

> <r_epik_Ionization_Penalty_Charging>
1.02936

> <r_epik_Ionization_Penalty_Neutral>
7.4537e-05

> <r_epik_State_Penalty>
1.08036

> <r_epik_Charging_Adjusted_Penalty>
2.10972

> <i_epik_Tot_Q>
1

> <i_epik_Tot_abs_Q>
1

> <r_epik_Metal_State_Penalty>
1.09347

> <b_epik_Metal_Only>
0

> <s_lp_Force_Field>
OPLS_2005

> <r_lp_Energy>
15.5023

> <b_lp_Chiralities_Consistent>
1

> <s_lp_Variant>
AV-unprocessed.smi:560-4

> <Gold.Version>
5.8.1

> <Gold.Id.Protein>
6NUR|6NUR_protein|mol2

> <Gold.PLP.Fitness>
43.3678

> <Gold.PLP.PLP>
-29.2862

> <Gold.PLP.part.hbond>
-3.0000

> <Gold.PLP.part.metal>
0.0000

> <Gold.PLP.part.buried>
3.5595

> <Gold.PLP.part.nonpolar>
-29.8486

> <Gold.PLP.part.repulsive>
0.5088

> <Gold.PLP.ligand.clash>
0.0000

> <Gold.PLP.ligand.torsion>
0.5308

> <Gold.PLP.Chemscore.Hbond>
4.0000

> <Gold.PLP.Chemscore.CHOScore>
1.0000

> <Gold.PLP.Chemscore.Metal>
0.0000

> <Gold.Chemscore.Hbonds>
donor molecule, donor type, donor heavy atom, donor atom, acceptor molecule, acceptor atom, score
      L1  H     9    42       P1  7948  2.00
      L1  H    12    33       P1 10186  1.00
      L1  H    12    34       P1  7921  1.00
      L1  C    17    39       P1  8028  1.00

> <Gold.PLP.Chemscore.Internal.Correction>
0.1431

> <Gold.Rescore>
     Score         DG    S(hbond)    S(metal)    S(lipo)     H(rot)  DE(clash)    DE(int)     intcor
     14.36     -16.47       2.96        0.00      64.77       2.52       1.19       0.92       ----

> <Gold.Chemscore.Fitness>
14.3587

> <Gold.Chemscore.DG>
-16.4731

> <Gold.Chemscore.ZeroCoef>
-5.4800

> <Gold.Chemscore.Hbond>
2.9571

> <Gold.Chemscore.Metal>
0.0000

> <Gold.Chemscore.Lipo>
64.7735

> <Gold.Chemscore.Internal_Hbond>
0.0000

> <Gold.Chemscore.DEClash>
1.1914

> <Gold.Chemscore.DEInternal>
0.9229

> <Gold.Chemscore.Rot>
2.5243

> <Gold.Chemscore.Internal.Correction>
   9.000000E+99

> <Gold.Chemscore.Hbonds>
donor molecule, donor type, donor heavy atom, donor atom, acceptor molecule, acceptor atom, score
      L1  H     9    42       P1  7948  0.99
      L1  H    12    33       P1 10186  0.89
      L1  H    12    34       P1  7921  1.00

> <Gold.Chemscore.Hbond.Weighted>
-9.8768

> <Gold.Chemscore.Metal.Weighted>
-0.0000

> <Gold.Chemscore.Lipo.Weighted>
-7.5785

> <Gold.Chemscore.Internal_Hbond.Weighted>
0.0000

> <Gold.Chemscore.DEClash.Weighted>
1.1914

> <Gold.Chemscore.DEInternal.Weighted>
0.9229

> <Gold.Chemscore.Rot.Weighted>
6.4622

> <Gold.Chemscore.Internal.Correction.Weighted>
   9.000000E+99

> <Gold.Protein.RotatedTorsions>
[ 6907 6896 6895 6894 ] final  -33.62 input  -60.11 | X-H torsion
[ 7974 7965 7964 7962 ] final  -58.32 input  175.53 | X-H torsion
[ 8008 7997 7996 7995 ] final -103.36 input   59.86 | X-H torsion
[ 10167 10162 10161 10158 ] final   91.38 input  -65.29 | X-H torsion
[ 10718 10713 10712 10709 ] final  -33.74 input   66.30 | X-H torsion
[ 10763 10752 10751 10750 ] final  118.71 input  -60.55 | X-H torsion
[ 11005 11000 10999 10996 ] final   43.58 input  -57.11 | X-H torsion

> <Gold.Protein.ActiveResidues>
 VAL166  LYS551  ARG553  GLY616  TRP617  ASP618  TYR619  PRO620  LYS621  CYS622 
 ASP623  PHE694  ASN695  SER759  ASP760  ASP761  ALA762  ILE779  LEU786  VAL792 
 PHE793  MET794  SER795  GLU796  ALA797  LYS798  CYS799  TRP800  GLU811  SER814 

> <Gold.Protein.RotatedAtoms>
  151.0633  134.9751  159.8271 H   0  0  0  0  0  0  0  0  0  0  0  0  # atno 6907 bound_to 6896
  152.5398  134.2391  159.8865 H   0  0  0  0  0  0  0  0  0  0  0  0  # atno 6908 bound_to 6896
  151.2412  133.4355  159.2641 H   0  0  0  0  0  0  0  0  0  0  0  0  # atno 6909 bound_to 6896
  145.8407  140.8419  143.0036 H   0  0  0  0  0  0  0  0  0  0  0  0  # atno 7974 bound_to 7965
  154.8699  140.0423  157.1718 H   0  0  0  0  0  0  0  0  0  0  0  0  # atno 8008 bound_to 7997
  154.8750  140.2964  155.5438 H   0  0  0  0  0  0  0  0  0  0  0  0  # atno 8009 bound_to 7997
  156.2999  140.2422  156.3745 H   0  0  0  0  0  0  0  0  0  0  0  0  # atno 8010 bound_to 7997
  139.8380  144.6655  150.9318 H   0  0  0  0  0  0  0  0  0  0  0  0  # atno 10167 bound_to 10162
  156.3590  130.4320  149.7640 H   0  0  0  0  0  0  0  0  0  0  0  0  # atno 10718 bound_to 10713
  153.5718  135.3501  155.2840 H   0  0  0  0  0  0  0  0  0  0  0  0  # atno 10763 bound_to 10752
  154.8681  135.4161  154.2717 H   0  0  0  0  0  0  0  0  0  0  0  0  # atno 10764 bound_to 10752
  153.3484  135.7054  153.6878 H   0  0  0  0  0  0  0  0  0  0  0  0  # atno 10765 bound_to 10752
  140.1631  134.4316  155.8304 H   0  0  0  0  0  0  0  0  0  0  0  0  # atno 11005 bound_to 11000
  144.6734  140.0808  143.7469 LP  0  0  0  0  0  0  0  0  0  0  0  0  # atno 17320 bound_to 7965
  145.9468  139.2706  143.1236 LP  0  0  0  0  0  0  0  0  0  0  0  0  # atno 17321 bound_to 7965
  140.7801  143.3939  151.1263 LP  0  0  0  0  0  0  0  0  0  0  0  0  # atno 17342 bound_to 10162
  139.7588  143.8667  152.3095 LP  0  0  0  0  0  0  0  0  0  0  0  0  # atno 17343 bound_to 10162
  156.4811  130.8041  151.3056 LP  0  0  0  0  0  0  0  0  0  0  0  0  # atno 17370 bound_to 10713
  157.7471  131.0005  150.2929 LP  0  0  0  0  0  0  0  0  0  0  0  0  # atno 17371 bound_to 10713
  141.2211  133.6922  156.7630 LP  0  0  0  0  0  0  0  0  0  0  0  0  # atno 17394 bound_to 11000
  140.2466  134.8573  157.3626 LP  0  0  0  0  0  0  0  0  0  0  0  0  # atno 17395 bound_to 11000

$$$$
