AV-unprocessed.smi:1049|AV-procd|sdf|4609|dock1
  -GOLD-   22720 3103D 1   1.00000     0.00000
 Structure written by MMmdl.
 40 41  0  0  0  0  0  0  0  0  1 V2000
  154.2361  140.4992  160.9155 C   0  0  0  0  0  0  0  0  0  0  0  0
  153.2065  141.6193  160.7125 C   0  0  1  0  0  0  0  0  0  0  0  0
  152.9498  142.3976  162.0216 C   0  0  0  0  0  0  0  0  0  0  0  0
  152.0125  143.6003  161.8036 C   0  0  0  0  0  0  0  0  0  0  0  0
  152.4969  144.4674  160.6279 C   0  0  0  0  0  0  0  0  0  0  0  0
  152.5995  143.6195  159.4273 N   0  0  0  0  0  0  0  0  0  0  0  0
  151.7332  143.6019  158.3826 C   0  0  0  0  0  0  0  0  0  0  0  0
  150.9465  144.5186  158.1401 O   0  0  0  0  0  0  0  0  0  0  0  0
  151.7858  142.4911  157.6289 N   0  0  0  0  0  0  0  0  0  0  0  0
  151.0163  142.2596  156.4108 C   0  0  0  0  0  0  0  0  0  0  0  0
  150.3690  140.8602  156.3719 C   0  0  0  0  0  0  0  0  0  0  0  0
  151.0964  139.8751  155.5058 C   0  0  0  0  0  0  0  0  0  0  0  0
  152.3674  139.5273  155.6878 N   0  0  0  0  0  0  0  0  0  0  0  0
  152.6275  138.5957  154.6896 C   0  0  0  0  0  0  0  0  0  0  0  0
  151.4954  138.4110  153.9338 C   0  0  0  0  0  0  0  0  0  0  0  0
  150.5112  139.2263  154.4808 N   0  0  0  0  0  0  0  0  0  0  0  0
  149.1483  139.3726  153.9997 C   0  0  0  0  0  0  0  0  0  0  0  0
  148.2932  138.9541  154.9321 F   0  0  0  0  0  0  0  0  0  0  0  0
  148.8955  140.6459  153.6953 F   0  0  0  0  0  0  0  0  0  0  0  0
  153.6349  142.5907  159.5918 C   0  0  0  0  0  0  0  0  0  0  0  0
  155.2035  140.8996  161.2207 H   0  0  0  0  0  0  0  0  0  0  0  0
  154.3851  139.9329  159.9957 H   0  0  0  0  0  0  0  0  0  0  0  0
  153.9071  139.7992  161.6841 H   0  0  0  0  0  0  0  0  0  0  0  0
  152.2680  141.1518  160.4099 H   0  0  0  0  0  0  0  0  0  0  0  0
  152.5330  141.7350  162.7808 H   0  0  0  0  0  0  0  0  0  0  0  0
  153.8998  142.7593  162.4174 H   0  0  0  0  0  0  0  0  0  0  0  0
  151.0015  143.2443  161.6021 H   0  0  0  0  0  0  0  0  0  0  0  0
  151.9542  144.1975  162.7137 H   0  0  0  0  0  0  0  0  0  0  0  0
  151.8396  145.3289  160.5096 H   0  0  0  0  0  0  0  0  0  0  0  0
  153.4789  144.8850  160.8548 H   0  0  0  0  0  0  0  0  0  0  0  0
  152.4474  141.7759  157.8932 H   0  0  0  0  0  0  0  0  0  0  0  0
  150.2388  143.0223  156.3717 H   0  0  0  0  0  0  0  0  0  0  0  0
  151.6424  142.4146  155.5310 H   0  0  0  0  0  0  0  0  0  0  0  0
  150.2842  140.4608  157.3828 H   0  0  0  0  0  0  0  0  0  0  0  0
  149.3463  140.9441  156.0023 H   0  0  0  0  0  0  0  0  0  0  0  0
  153.6014  138.1394  154.5903 H   0  0  0  0  0  0  0  0  0  0  0  0
  151.3129  137.7793  153.0769 H   0  0  0  0  0  0  0  0  0  0  0  0
  148.9933  138.7814  153.0974 H   0  0  0  0  0  0  0  0  0  0  0  0
  154.5820  143.0687  159.8471 H   0  0  0  0  0  0  0  0  0  0  0  0
  153.8248  142.0416  158.6683 H   0  0  0  0  0  0  0  0  0  0  0  0
  1  2  1  0  0  0  0
  1 21  1  0  0  0  0
  1 22  1  0  0  0  0
  1 23  1  0  0  0  0
  2 20  1  0  0  0  0
  2  3  1  0  0  0  0
  2 24  1  0  0  0  0
  3  4  1  0  0  0  0
  3 25  1  0  0  0  0
  3 26  1  0  0  0  0
  4  5  1  0  0  0  0
  4 27  1  0  0  0  0
  4 28  1  0  0  0  0
  5  6  1  0  0  0  0
  5 29  1  0  0  0  0
  5 30  1  0  0  0  0
  6  7  1  0  0  0  0
  6 20  1  0  0  0  0
  7  8  2  0  0  0  0
  7  9  1  0  0  0  0
  9 10  1  0  0  0  0
  9 31  1  0  0  0  0
 10 11  1  0  0  0  0
 10 32  1  0  0  0  0
 10 33  1  0  0  0  0
 11 12  1  0  0  0  0
 11 34  1  0  0  0  0
 11 35  1  0  0  0  0
 12 16  1  0  0  0  0
 12 13  2  0  0  0  0
 13 14  1  0  0  0  0
 14 15  2  0  0  0  0
 14 36  1  0  0  0  0
 15 16  1  0  0  0  0
 15 37  1  0  0  0  0
 16 17  1  0  0  0  0
 17 18  1  0  0  0  0
 17 19  1  0  0  0  0
 17 38  1  0  0  0  0
 20 39  1  0  0  0  0
 20 40  1  0  0  0  0
M  END
> <s_m_source_file>
AV-unprocessed.smi

> <i_m_source_file_index>
1049

> <i_lp_mmshare_version>
43012

> <i_f3d_flags>
0

> <s_epik_input>
W0NIM11bQ0BASF0xW0NIMl1bQ0gyXVtDSDJdTihbQ0gyXTEpQyg9TylbTkhdW0NIMl1bQ0gyXWMybltjSF1bY0hdbjJbQ0hdKEYpRg==

> <s_epik_cmdline>
J2VwaWtfcHl0aG9uJywgJy1waCcsICc3LjAnLCAnLXRuJywgJzgnLCAnLW1hJywgJzIwMCcsICctbWV0YWxfYmluZGluZycsICctaW1hZScsICc8aW5maWxlLm1hZT4nLCAnLW9tYWUnLCAnPG91dGZpbGUubWFlPic=

> <r_lp_tautomer_probability>
1

> <r_epik_Ionization_Penalty>
0.101141

> <r_epik_Ionization_Penalty_Charging>
0.101077

> <r_epik_Ionization_Penalty_Neutral>
6.38597e-05

> <r_epik_State_Penalty>
0.091079

> <r_epik_Charging_Adjusted_Penalty>
0.192156

> <i_epik_Tot_Q>
0

> <i_epik_Tot_abs_Q>
0

> <r_epik_Metal_State_Penalty>
0.0777008

> <b_epik_Metal_Only>
0

> <s_lp_Force_Field>
OPLS_2005

> <r_lp_Energy>
32.9855

> <b_lp_Chiralities_Consistent>
1

> <s_lp_Variant>
AV-unprocessed.smi:1049-2

> <Gold.Version>
5.8.1

> <Gold.Id.Protein>
6NUR|6NUR_protein|mol2

> <Gold.PLP.Fitness>
52.1914

> <Gold.PLP.PLP>
-48.9702

> <Gold.PLP.part.hbond>
-1.0000

> <Gold.PLP.part.metal>
0.0000

> <Gold.PLP.part.buried>
-3.7547

> <Gold.PLP.part.nonpolar>
-45.4083

> <Gold.PLP.part.repulsive>
0.5863

> <Gold.PLP.ligand.clash>
1.8533

> <Gold.PLP.ligand.torsion>
0.5189

> <Gold.PLP.Chemscore.Hbond>
1.0000

> <Gold.PLP.Chemscore.CHOScore>
1.0000

> <Gold.PLP.Chemscore.Metal>
0.0000

> <Gold.Chemscore.Hbonds>
donor molecule, donor type, donor heavy atom, donor atom, acceptor molecule, acceptor atom, score
      P1  H  7997  8008       L1    13  0.67
      L1  C    15    37       P1  7949  1.00

> <Gold.PLP.Chemscore.Internal.Correction>
0.1124

> <Gold.Rescore>
     Score         DG    S(hbond)    S(metal)    S(lipo)     H(rot)  DE(clash)    DE(int)     intcor
     14.02     -14.75       0.33        0.00     103.87       1.56       0.16       0.57       ----

> <Gold.Chemscore.Fitness>
14.0170

> <Gold.Chemscore.DG>
-14.7490

> <Gold.Chemscore.ZeroCoef>
-5.4800

> <Gold.Chemscore.Hbond>
0.3344

> <Gold.Chemscore.Metal>
0.0000

> <Gold.Chemscore.Lipo>
103.8660

> <Gold.Chemscore.Internal_Hbond>
0.0000

> <Gold.Chemscore.DEClash>
0.1625

> <Gold.Chemscore.DEInternal>
0.5695

> <Gold.Chemscore.Rot>
1.5626

> <Gold.Chemscore.Internal.Correction>
   9.000000E+99

> <Gold.Chemscore.Hbonds>
donor molecule, donor type, donor heavy atom, donor atom, acceptor molecule, acceptor atom, score
      P1  H  7997  8008       L1    13  0.30

> <Gold.Chemscore.Hbond.Weighted>
-1.1170

> <Gold.Chemscore.Metal.Weighted>
-0.0000

> <Gold.Chemscore.Lipo.Weighted>
-12.1523

> <Gold.Chemscore.Internal_Hbond.Weighted>
0.0000

> <Gold.Chemscore.DEClash.Weighted>
0.1625

> <Gold.Chemscore.DEInternal.Weighted>
0.5695

> <Gold.Chemscore.Rot.Weighted>
4.0004

> <Gold.Chemscore.Internal.Correction.Weighted>
   9.000000E+99

> <Gold.Protein.RotatedTorsions>
[ 6907 6896 6895 6894 ] final  -11.94 input  -60.11 | X-H torsion
[ 7974 7965 7964 7962 ] final  177.98 input  175.53 | X-H torsion
[ 8008 7997 7996 7995 ] final  -45.47 input   59.86 | X-H torsion
[ 10167 10162 10161 10158 ] final -113.27 input  -65.29 | X-H torsion
[ 10718 10713 10712 10709 ] final -113.83 input   66.30 | X-H torsion
[ 10763 10752 10751 10750 ] final  155.52 input  -60.55 | X-H torsion
[ 11005 11000 10999 10996 ] final   73.01 input  -57.11 | X-H torsion

> <Gold.Protein.ActiveResidues>
 VAL166  LYS551  ARG553  GLY616  TRP617  ASP618  TYR619  PRO620  LYS621  CYS622 
 ASP623  PHE694  ASN695  SER759  ASP760  ASP761  ALA762  ILE779  LEU786  VAL792 
 PHE793  MET794  SER795  GLU796  ALA797  LYS798  CYS799  TRP800  GLU811  SER814 

> <Gold.Protein.RotatedAtoms>
  151.3783  135.0935  159.9487 H   0  0  0  0  0  0  0  0  0  0  0  0  # atno 6907 bound_to 6896
  152.5115  133.9097  159.7492 H   0  0  0  0  0  0  0  0  0  0  0  0  # atno 6908 bound_to 6896
  150.9525  133.6479  159.2798 H   0  0  0  0  0  0  0  0  0  0  0  0  # atno 6909 bound_to 6896
  144.7162  140.0329  143.6438 H   0  0  0  0  0  0  0  0  0  0  0  0  # atno 7974 bound_to 7965
  154.4001  140.1396  156.3853 H   0  0  0  0  0  0  0  0  0  0  0  0  # atno 8008 bound_to 7997
  155.7965  140.3477  155.5358 H   0  0  0  0  0  0  0  0  0  0  0  0  # atno 8009 bound_to 7997
  155.8526  140.0944  157.1655 H   0  0  0  0  0  0  0  0  0  0  0  0  # atno 8010 bound_to 7997
  140.1137  143.4505  152.1736 H   0  0  0  0  0  0  0  0  0  0  0  0  # atno 10167 bound_to 10162
  156.0791  130.5994  150.8695 H   0  0  0  0  0  0  0  0  0  0  0  0  # atno 10718 bound_to 10713
  154.1697  135.2805  155.3085 H   0  0  0  0  0  0  0  0  0  0  0  0  # atno 10763 bound_to 10752
  154.6085  135.5506  153.7451 H   0  0  0  0  0  0  0  0  0  0  0  0  # atno 10764 bound_to 10752
  153.0168  135.6409  154.1837 H   0  0  0  0  0  0  0  0  0  0  0  0  # atno 10765 bound_to 10752
  139.9462  134.7310  156.0975 H   0  0  0  0  0  0  0  0  0  0  0  0  # atno 11005 bound_to 11000
  146.0087  139.3152  143.0883 LP  0  0  0  0  0  0  0  0  0  0  0  0  # atno 17320 bound_to 7965
  145.8707  140.9421  143.0652 LP  0  0  0  0  0  0  0  0  0  0  0  0  # atno 17321 bound_to 7965
  139.5605  144.7402  151.4167 LP  0  0  0  0  0  0  0  0  0  0  0  0  # atno 17342 bound_to 10162
  140.6911  143.7858  150.7257 LP  0  0  0  0  0  0  0  0  0  0  0  0  # atno 17343 bound_to 10162
  157.5901  131.0944  150.9133 LP  0  0  0  0  0  0  0  0  0  0  0  0  # atno 17370 bound_to 10713
  156.9311  130.5350  149.5279 LP  0  0  0  0  0  0  0  0  0  0  0  0  # atno 17371 bound_to 10713
  141.1112  133.6642  156.2984 LP  0  0  0  0  0  0  0  0  0  0  0  0  # atno 17394 bound_to 11000
  140.5830  134.5726  157.5483 LP  0  0  0  0  0  0  0  0  0  0  0  0  # atno 17395 bound_to 11000

$$$$
