AV-unprocessed.smi:282|AV-procd|sdf|2124|dock4
  -GOLD-   2262021423D 1   1.00000     0.00000
 Structure written by MMmdl.
 65 69  0  0  0  0  0  0  0  0  2 V2000
  150.8584  144.5723  158.3693 C   0  0  0  0  0  0  0  0  0  0  0  0
  151.1807  143.2930  157.5853 C   0  0  0  0  0  0  0  0  0  0  0  0
  150.3887  142.0625  158.0767 C   0  0  1  0  0  0  0  0  0  0  0  0
  148.8713  142.2269  157.8386 C   0  0  0  0  0  0  0  0  0  0  0  0
  148.5108  142.0742  156.4049 N   0  3  2  0  0  0  0  0  0  0  0  0
  147.0560  142.2703  156.1778 C   0  0  0  0  0  0  0  0  0  0  0  0
  146.7144  142.2344  154.6803 C   0  0  0  0  0  0  0  0  0  0  0  0
  147.1892  140.9217  154.0463 C   0  0  0  0  0  0  0  0  0  0  0  0
  148.6881  140.7284  154.3075 C   0  0  0  0  0  0  0  0  0  0  0  0
  149.0136  140.7993  155.8131 C   0  0  1  0  0  0  0  0  0  0  0  0
  150.5298  140.6444  156.0471 C   0  0  0  0  0  0  0  0  0  0  0  0
  150.8659  140.8213  157.4575 N   0  0  0  0  0  0  0  0  0  0  0  0
  150.9145  139.6831  158.1981 C   0  0  0  0  0  0  0  0  0  0  0  0
  152.0649  139.3335  158.8327 N   0  0  0  0  0  0  0  0  0  0  0  0
  152.1187  138.2211  159.5706 C   0  0  0  0  0  0  0  0  0  0  0  0
  151.1558  137.3276  159.8025 N   0  0  0  0  0  0  0  0  0  0  0  0
  150.0008  137.6655  159.1612 C   0  0  0  0  0  0  0  0  0  0  0  0
  149.7948  138.8173  158.3504 C   0  0  0  0  0  0  0  0  0  0  0  0
  148.4928  138.8268  157.8652 N   0  0  0  0  0  0  0  0  0  0  0  0
  147.9567  137.7493  158.3698 C   0  0  0  0  0  0  0  0  0  0  0  0
  148.7963  136.9826  159.1464 N   0  0  0  0  0  0  0  0  0  0  0  0
  148.4627  135.7379  159.8244 C   0  0  0  0  0  0  0  0  0  0  0  0
  148.0331  135.8965  161.3135 C   0  0  0  0  0  0  0  0  0  0  0  0
  146.6685  136.6364  161.4229 C   0  0  0  0  0  0  0  0  0  0  0  0
  146.7791  138.0117  161.1154 O   0  0  0  0  0  0  0  0  0  0  0  0
  147.9192  134.5014  161.9782 C   0  0  0  0  0  0  0  0  0  0  0  0
  147.8175  134.5706  163.5131 C   0  0  0  0  0  0  0  0  0  0  0  0
  148.9255  135.2849  164.0448 O   0  0  0  0  0  0  0  0  0  0  0  0
  148.9820  136.6317  163.5927 C   0  0  0  0  0  0  0  0  0  0  0  0
  149.1509  136.6640  162.0632 C   0  0  0  0  0  0  0  0  0  0  0  0
  151.4077  145.4226  157.9644 H   0  0  0  0  0  0  0  0  0  0  0  0
  151.1302  144.4758  159.4207 H   0  0  0  0  0  0  0  0  0  0  0  0
  149.7952  144.8089  158.3180 H   0  0  0  0  0  0  0  0  0  0  0  0
  150.9452  143.4701  156.5353 H   0  0  0  0  0  0  0  0  0  0  0  0
  152.2537  143.1042  157.6207 H   0  0  0  0  0  0  0  0  0  0  0  0
  150.5514  142.0111  159.1544 H   0  0  0  0  0  0  0  0  0  0  0  0
  148.3242  141.4804  158.4159 H   0  0  0  0  0  0  0  0  0  0  0  0
  148.5388  143.1995  158.2034 H   0  0  0  0  0  0  0  0  0  0  0  0
  146.4969  141.4976  156.7082 H   0  0  0  0  0  0  0  0  0  0  0  0
  146.7474  143.2288  156.5964 H   0  0  0  0  0  0  0  0  0  0  0  0
  145.6393  142.3488  154.5396 H   0  0  0  0  0  0  0  0  0  0  0  0
  147.1852  143.0789  154.1753 H   0  0  0  0  0  0  0  0  0  0  0  0
  146.6295  140.0840  154.4644 H   0  0  0  0  0  0  0  0  0  0  0  0
  146.9907  140.9270  152.9741 H   0  0  0  0  0  0  0  0  0  0  0  0
  149.0104  139.7694  153.9000 H   0  0  0  0  0  0  0  0  0  0  0  0
  149.2503  141.4948  153.7718 H   0  0  0  0  0  0  0  0  0  0  0  0
  148.5031  139.9763  156.3173 H   0  0  0  0  0  0  0  0  0  0  0  0
  150.8531  139.6719  155.6769 H   0  0  0  0  0  0  0  0  0  0  0  0
  151.0794  141.3828  155.4631 H   0  0  0  0  0  0  0  0  0  0  0  0
  153.0688  138.0172  160.0420 H   0  0  0  0  0  0  0  0  0  0  0  0
  146.9285  137.4773  158.1806 H   0  0  0  0  0  0  0  0  0  0  0  0
  147.6692  135.2521  159.2549 H   0  0  0  0  0  0  0  0  0  0  0  0
  149.3239  135.0731  159.7470 H   0  0  0  0  0  0  0  0  0  0  0  0
  145.9299  136.1915  160.7561 H   0  0  0  0  0  0  0  0  0  0  0  0
  146.2469  136.5584  162.4234 H   0  0  0  0  0  0  0  0  0  0  0  0
  146.1024  138.2366  160.4951 H   0  0  0  0  0  0  0  0  0  0  0  0
  147.0625  133.9549  161.5826 H   0  0  0  0  0  0  0  0  0  0  0  0
  148.7996  133.9086  161.7272 H   0  0  0  0  0  0  0  0  0  0  0  0
  146.8829  135.0308  163.8348 H   0  0  0  0  0  0  0  0  0  0  0  0
  147.8244  133.5627  163.9285 H   0  0  0  0  0  0  0  0  0  0  0  0
  148.0935  137.1770  163.9121 H   0  0  0  0  0  0  0  0  0  0  0  0
  149.8327  137.1208  164.0673 H   0  0  0  0  0  0  0  0  0  0  0  0
  150.1175  136.2177  161.8249 H   0  0  0  0  0  0  0  0  0  0  0  0
  149.2097  137.6967  161.7186 H   0  0  0  0  0  0  0  0  0  0  0  0
  148.9827  142.8198  155.9135 H   0  0  0  0  0  0  0  0  0  0  0  0
  1  2  1  0  0  0  0
  1 31  1  0  0  0  0
  1 32  1  0  0  0  0
  1 33  1  0  0  0  0
  2  3  1  0  0  0  0
  2 34  1  0  0  0  0
  2 35  1  0  0  0  0
  3 12  1  0  0  0  0
  3  4  1  0  0  0  0
  3 36  1  0  0  0  0
  4  5  1  0  0  0  0
  4 37  1  0  0  0  0
  4 38  1  0  0  0  0
  5 10  1  0  0  0  0
  5  6  1  0  0  0  0
  5 65  1  0  0  0  0
  6  7  1  0  0  0  0
  6 39  1  0  0  0  0
  6 40  1  0  0  0  0
  7  8  1  0  0  0  0
  7 41  1  0  0  0  0
  7 42  1  0  0  0  0
  8  9  1  0  0  0  0
  8 43  1  0  0  0  0
  8 44  1  0  0  0  0
  9 10  1  0  0  0  0
  9 45  1  0  0  0  0
  9 46  1  0  0  0  0
 10 11  1  0  0  0  0
 10 47  1  0  0  0  0
 11 12  1  0  0  0  0
 11 48  1  0  0  0  0
 11 49  1  0  0  0  0
 12 13  1  0  0  0  0
 13 18  1  0  0  0  0
 13 14  2  0  0  0  0
 14 15  1  0  0  0  0
 15 16  2  0  0  0  0
 15 50  1  0  0  0  0
 16 17  1  0  0  0  0
 17 21  1  0  0  0  0
 17 18  2  0  0  0  0
 18 19  1  0  0  0  0
 19 20  2  0  0  0  0
 20 21  1  0  0  0  0
 20 51  1  0  0  0  0
 21 22  1  0  0  0  0
 22 23  1  0  0  0  0
 22 52  1  0  0  0  0
 22 53  1  0  0  0  0
 23 30  1  0  0  0  0
 23 24  1  0  0  0  0
 23 26  1  0  0  0  0
 24 25  1  0  0  0  0
 24 54  1  0  0  0  0
 24 55  1  0  0  0  0
 25 56  1  0  0  0  0
 26 27  1  0  0  0  0
 26 57  1  0  0  0  0
 26 58  1  0  0  0  0
 27 28  1  0  0  0  0
 27 59  1  0  0  0  0
 27 60  1  0  0  0  0
 28 29  1  0  0  0  0
 29 30  1  0  0  0  0
 29 61  1  0  0  0  0
 29 62  1  0  0  0  0
 30 63  1  0  0  0  0
 30 64  1  0  0  0  0
M  CHG  1   5   1
M  END
> <s_m_source_file>
AV-unprocessed.smi

> <i_m_source_file_index>
282

> <i_lp_mmshare_version>
43012

> <i_f3d_flags>
0

> <s_epik_input>
W0NIMl0xW0NIMl1bQ0gyXVtDSDJdW0NAQEhdKE4xMilbQ0gyXU4oW0NAQEhdKFtDSDJdMilbQ0gyXVtDSDNdKWMobltjSF1uMyljKGMzNCluW2NIXW40W0NIMl1DNShbQ0gyXVtPSF0pW0NIMl1bQ0gyXU9bQ0gyXVtDSDJdNQ==

> <s_epik_cmdline>
J2VwaWtfcHl0aG9uJywgJy1waCcsICc3LjAnLCAnLXRuJywgJzgnLCAnLW1hJywgJzIwMCcsICctbWV0YWxfYmluZGluZycsICctaW1hZScsICc8aW5maWxlLm1hZT4nLCAnLW9tYWUnLCAnPG91dGZpbGUubWFlPic=

> <r_lp_tautomer_probability>
1

> <r_epik_Ionization_Penalty>
0.00308583

> <r_epik_Ionization_Penalty_Charging>
0.00300384

> <r_epik_Ionization_Penalty_Neutral>
8.19894e-05

> <r_epik_State_Penalty>
-0

> <r_epik_Charging_Adjusted_Penalty>
0.00300384

> <i_epik_Tot_Q>
1

> <i_epik_Tot_abs_Q>
1

> <r_epik_Metal_State_Penalty>
-0

> <b_epik_Metal_Only>
0

> <s_lp_Force_Field>
OPLS_2005

> <r_lp_Energy>
57.1852

> <b_lp_Chiralities_Consistent>
1

> <s_lp_Variant>
AV-unprocessed.smi:282-8

> <Gold.Version>
5.8.1

> <Gold.Id.Protein>
6NUR|6NUR_protein|mol2

> <Gold.PLP.Fitness>
55.4332

> <Gold.PLP.PLP>
-48.5951

> <Gold.PLP.part.hbond>
-3.6676

> <Gold.PLP.part.metal>
0.0000

> <Gold.PLP.part.buried>
-5.6564

> <Gold.PLP.part.nonpolar>
-39.8153

> <Gold.PLP.part.repulsive>
0.0525

> <Gold.PLP.ligand.clash>
0.0328

> <Gold.PLP.ligand.torsion>
1.8232

> <Gold.PLP.Chemscore.Hbond>
3.4080

> <Gold.PLP.Chemscore.CHOScore>
0.0000

> <Gold.PLP.Chemscore.Metal>
0.0000

> <Gold.Chemscore.Hbonds>
donor molecule, donor type, donor heavy atom, donor atom, acceptor molecule, acceptor atom, score
      L1  H     5    65       P1  8028  1.60
      P1  H  6896  6909       L1    16  0.60
      P1  H  6931  6943       L1    25  0.04

> <Gold.PLP.Chemscore.Internal.Correction>
0.2933

> <Gold.Rescore>
     Score         DG    S(hbond)    S(metal)    S(lipo)     H(rot)  DE(clash)    DE(int)     intcor
     14.03     -19.69       2.41        0.00     100.77       2.20       0.08       5.57       ----

> <Gold.Chemscore.Fitness>
14.0341

> <Gold.Chemscore.DG>
-19.6876

> <Gold.Chemscore.ZeroCoef>
-5.4800

> <Gold.Chemscore.Hbond>
2.4133

> <Gold.Chemscore.Metal>
0.0000

> <Gold.Chemscore.Lipo>
100.7690

> <Gold.Chemscore.Internal_Hbond>
0.0000

> <Gold.Chemscore.DEClash>
0.0825

> <Gold.Chemscore.DEInternal>
5.5710

> <Gold.Chemscore.Rot>
2.2042

> <Gold.Chemscore.Internal.Correction>
   9.000000E+99

> <Gold.Chemscore.Hbonds>
donor molecule, donor type, donor heavy atom, donor atom, acceptor molecule, acceptor atom, score
      L1  H     5    65       P1  8028  0.79
      P1  H  6896  6909       L1    16  0.42
      P1  H  6931  6943       L1    25  0.01

> <Gold.Chemscore.Hbond.Weighted>
-8.0605

> <Gold.Chemscore.Metal.Weighted>
-0.0000

> <Gold.Chemscore.Lipo.Weighted>
-11.7900

> <Gold.Chemscore.Internal_Hbond.Weighted>
0.0000

> <Gold.Chemscore.DEClash.Weighted>
0.0825

> <Gold.Chemscore.DEInternal.Weighted>
5.5710

> <Gold.Chemscore.Rot.Weighted>
5.6429

> <Gold.Chemscore.Internal.Correction.Weighted>
   9.000000E+99

> <Gold.Protein.RotatedTorsions>
[ 6907 6896 6895 6894 ] final  102.22 input  -60.11 | X-H torsion
[ 7974 7965 7964 7962 ] final -128.48 input  175.53 | X-H torsion
[ 8008 7997 7996 7995 ] final  150.56 input   59.86 | X-H torsion
[ 10167 10162 10161 10158 ] final   40.96 input  -65.29 | X-H torsion
[ 10718 10713 10712 10709 ] final  -97.00 input   66.30 | X-H torsion
[ 10763 10752 10751 10750 ] final   94.72 input  -60.55 | X-H torsion
[ 11005 11000 10999 10996 ] final   36.17 input  -57.11 | X-H torsion

> <Gold.Protein.ActiveResidues>
 VAL166  LYS551  ARG553  GLY616  TRP617  ASP618  TYR619  PRO620  LYS621  CYS622 
 ASP623  PHE694  ASN695  SER759  ASP760  ASP761  ALA762  ILE779  LEU786  VAL792 
 PHE793  MET794  SER795  GLU796  ALA797  LYS798  CYS799  TRP800  GLU811  SER814 

> <Gold.Protein.RotatedAtoms>
  152.5329  134.0008  159.7893 H   0  0  0  0  0  0  0  0  0  0  0  0  # atno 6907 bound_to 6896
  151.0227  133.5854  159.2676 H   0  0  0  0  0  0  0  0  0  0  0  0  # atno 6908 bound_to 6896
  151.2888  135.0742  159.9250 H   0  0  0  0  0  0  0  0  0  0  0  0  # atno 6909 bound_to 6896
  144.9666  140.7502  143.4696 H   0  0  0  0  0  0  0  0  0  0  0  0  # atno 7974 bound_to 7965
  156.2710  140.2071  156.6037 H   0  0  0  0  0  0  0  0  0  0  0  0  # atno 8008 bound_to 7997
  154.6886  140.0532  157.0364 H   0  0  0  0  0  0  0  0  0  0  0  0  # atno 8009 bound_to 7997
  155.0898  140.3195  155.4580 H   0  0  0  0  0  0  0  0  0  0  0  0  # atno 8010 bound_to 7997
  140.3690  144.2129  150.6134 H   0  0  0  0  0  0  0  0  0  0  0  0  # atno 10167 bound_to 10162
  156.0074  130.5175  150.6310 H   0  0  0  0  0  0  0  0  0  0  0  0  # atno 10718 bound_to 10713
  153.2448  135.4279  155.0736 H   0  0  0  0  0  0  0  0  0  0  0  0  # atno 10763 bound_to 10752
  154.8356  135.3411  154.6597 H   0  0  0  0  0  0  0  0  0  0  0  0  # atno 10764 bound_to 10752
  153.7019  135.7028  153.5117 H   0  0  0  0  0  0  0  0  0  0  0  0  # atno 10765 bound_to 10752
  140.2353  134.3479  155.7947 H   0  0  0  0  0  0  0  0  0  0  0  0  # atno 11005 bound_to 11000
  145.2620  139.1988  143.4887 LP  0  0  0  0  0  0  0  0  0  0  0  0  # atno 17320 bound_to 7965
  146.3369  140.2552  142.8600 LP  0  0  0  0  0  0  0  0  0  0  0  0  # atno 17321 bound_to 7965
  140.5052  143.2306  151.8619 LP  0  0  0  0  0  0  0  0  0  0  0  0  # atno 17342 bound_to 10162
  139.4805  144.5014  151.9055 LP  0  0  0  0  0  0  0  0  0  0  0  0  # atno 17343 bound_to 10162
  157.4108  131.0823  151.1223 LP  0  0  0  0  0  0  0  0  0  0  0  0  # atno 17370 bound_to 10713
  157.1855  130.6328  149.5686 LP  0  0  0  0  0  0  0  0  0  0  0  0  # atno 17371 bound_to 10713
  141.2215  133.7268  156.8798 LP  0  0  0  0  0  0  0  0  0  0  0  0  # atno 17394 bound_to 11000
  140.1708  134.9101  157.2831 LP  0  0  0  0  0  0  0  0  0  0  0  0  # atno 17395 bound_to 11000

$$$$
