AV-unprocessed.smi:1824|AV-procd|sdf|7409|dock5
  -GOLD-   22720 9 83D 1   1.00000     0.00000
 Structure written by MMmdl.
 45 47  0  0  0  0  0  0  0  0  2 V2000
  147.7566  136.7362  159.6444 C   0  0  0  0  0  0  0  0  0  0  0  0
  149.2110  136.5917  159.1649 C   0  0  2  0  0  0  0  0  0  0  0  0
  149.6783  137.7561  158.2694 C   0  0  0  0  0  0  0  0  0  0  0  0
  149.0977  137.7112  156.9312 N   0  0  0  0  0  0  0  0  0  0  0  0
  149.5708  138.8362  156.1226 C   0  0  0  0  0  0  0  0  0  0  0  0
  151.0549  138.7796  155.7092 C   0  0  1  0  0  0  0  0  0  0  0  0
  151.1737  139.3149  154.4058 O   0  0  0  0  0  0  0  0  0  0  0  0
  151.9408  139.5850  156.6796 C   0  0  0  0  0  0  0  0  0  0  0  0
  151.4459  140.9506  156.9071 N   0  0  0  0  0  0  0  0  0  0  0  0
  150.6751  141.7378  156.1086 C   0  0  0  0  0  0  0  0  0  0  0  0
  150.4841  142.9200  156.7571 N   0  3  0  0  0  0  0  0  0  0  0  0
  151.1408  142.8876  157.9894 C   0  0  0  0  0  0  0  0  0  0  0  0
  151.2364  143.8429  158.9962 C   0  0  0  0  0  0  0  0  0  0  0  0
  151.9846  143.4895  160.1384 C   0  0  0  0  0  0  0  0  0  0  0  0
  152.1089  144.3820  161.1490 F   0  0  0  0  0  0  0  0  0  0  0  0
  152.6038  142.2265  160.2480 C   0  0  0  0  0  0  0  0  0  0  0  0
  153.3114  141.9268  161.3630 F   0  0  0  0  0  0  0  0  0  0  0  0
  152.5012  141.2669  159.2195 C   0  0  0  0  0  0  0  0  0  0  0  0
  151.7603  141.6245  158.0936 C   0  0  0  0  0  0  0  0  0  0  0  0
  149.4000  136.4147  156.3304 C   0  0  0  0  0  0  0  0  0  0  0  0
  148.8855  135.2463  157.1914 C   0  0  1  0  0  0  0  0  0  0  0  0
  149.2834  133.8848  156.6116 C   0  0  0  0  0  0  0  0  0  0  0  0
  149.4320  135.3443  158.5052 O   0  0  0  0  0  0  0  0  0  0  0  0
  147.6330  137.6428  160.2372 H   0  0  0  0  0  0  0  0  0  0  0  0
  147.4673  135.8913  160.2694 H   0  0  0  0  0  0  0  0  0  0  0  0
  147.0539  136.7936  158.8135 H   0  0  0  0  0  0  0  0  0  0  0  0
  149.8394  136.5822  160.0560 H   0  0  0  0  0  0  0  0  0  0  0  0
  149.4352  138.7040  158.7510 H   0  0  0  0  0  0  0  0  0  0  0  0
  150.7664  137.7232  158.1917 H   0  0  0  0  0  0  0  0  0  0  0  0
  148.9727  138.9018  155.2122 H   0  0  0  0  0  0  0  0  0  0  0  0
  149.3835  139.7650  156.6636 H   0  0  0  0  0  0  0  0  0  0  0  0
  151.4152  137.7518  155.6927 H   0  0  0  0  0  0  0  0  0  0  0  0
  150.3839  139.1089  153.9283 H   0  0  0  0  0  0  0  0  0  0  0  0
  152.0479  139.0753  157.6375 H   0  0  0  0  0  0  0  0  0  0  0  0
  152.9476  139.6759  156.2700 H   0  0  0  0  0  0  0  0  0  0  0  0
  150.2857  141.4728  155.1359 H   0  0  0  0  0  0  0  0  0  0  0  0
  150.7629  144.8105  158.9172 H   0  0  0  0  0  0  0  0  0  0  0  0
  152.9740  140.3013  159.3183 H   0  0  0  0  0  0  0  0  0  0  0  0
  148.9471  136.3368  155.3433 H   0  0  0  0  0  0  0  0  0  0  0  0
  150.4775  136.3165  156.1882 H   0  0  0  0  0  0  0  0  0  0  0  0
  147.7973  135.2888  157.2482 H   0  0  0  0  0  0  0  0  0  0  0  0
  148.8802  133.7523  155.6073 H   0  0  0  0  0  0  0  0  0  0  0  0
  148.9041  133.0719  157.2311 H   0  0  0  0  0  0  0  0  0  0  0  0
  150.3675  133.7819  156.5539 H   0  0  0  0  0  0  0  0  0  0  0  0
  149.9437  143.6901  156.3837 H   0  0  0  0  0  0  0  0  0  0  0  0
  1  2  1  0  0  0  0
  1 24  1  0  0  0  0
  1 25  1  0  0  0  0
  1 26  1  0  0  0  0
  2 23  1  0  0  0  0
  2  3  1  0  0  0  0
  2 27  1  0  0  0  0
  3  4  1  0  0  0  0
  3 28  1  0  0  0  0
  3 29  1  0  0  0  0
  4  5  1  0  0  0  0
  4 20  1  0  0  0  0
  5  6  1  0  0  0  0
  5 30  1  0  0  0  0
  5 31  1  0  0  0  0
  6  7  1  0  0  0  0
  6  8  1  0  0  0  0
  6 32  1  0  0  0  0
  7 33  1  0  0  0  0
  8  9  1  0  0  0  0
  8 34  1  0  0  0  0
  8 35  1  0  0  0  0
  9 19  1  0  0  0  0
  9 10  1  0  0  0  0
 10 11  2  0  0  0  0
 10 36  1  0  0  0  0
 11 12  1  0  0  0  0
 11 45  1  0  0  0  0
 12 19  2  0  0  0  0
 12 13  1  0  0  0  0
 13 14  2  0  0  0  0
 13 37  1  0  0  0  0
 14 15  1  0  0  0  0
 14 16  1  0  0  0  0
 16 17  1  0  0  0  0
 16 18  2  0  0  0  0
 18 19  1  0  0  0  0
 18 38  1  0  0  0  0
 20 21  1  0  0  0  0
 20 39  1  0  0  0  0
 20 40  1  0  0  0  0
 21 22  1  0  0  0  0
 21 23  1  0  0  0  0
 21 41  1  0  0  0  0
 22 42  1  0  0  0  0
 22 43  1  0  0  0  0
 22 44  1  0  0  0  0
M  CHG  1  11   1
M  END
> <s_m_source_file>
AV-unprocessed.smi

> <i_m_source_file_index>
1824

> <i_lp_mmshare_version>
43012

> <i_f3d_flags>
0

> <s_epik_input>
W0NIM11bQ0BASF0xW0NIMl1OKFtDSDJdW0NASF0oTzEpW0NIM10pW0NIMl1bQ0BIXShbT0hdKVtDSDJdbihbY0hdbjIpYyhjMjMpW2NIXWMoRiljKEYpW2NIXTM=

> <s_epik_cmdline>
J2VwaWtfcHl0aG9uJywgJy1waCcsICc3LjAnLCAnLXRuJywgJzgnLCAnLW1hJywgJzIwMCcsICctbWV0YWxfYmluZGluZycsICctaW1hZScsICc8aW5maWxlLm1hZT4nLCAnLW9tYWUnLCAnPG91dGZpbGUubWFlPic=

> <r_epik_Ionization_Penalty>
2.58709

> <r_epik_Ionization_Penalty_Charging>
2.37273

> <r_epik_Ionization_Penalty_Neutral>
0.214359

> <r_epik_State_Penalty>
2.71799

> <r_epik_Charging_Adjusted_Penalty>
5.09071

> <i_epik_Tot_Q>
1

> <i_epik_Tot_abs_Q>
1

> <r_epik_Metal_State_Penalty>
6.80217

> <b_epik_Metal_Only>
0

> <s_lp_Force_Field>
OPLS_2005

> <r_lp_Energy>
35.2621

> <b_lp_Chiralities_Consistent>
1

> <s_lp_Variant>
AV-unprocessed.smi:1824-17

> <Gold.Version>
5.8.1

> <Gold.Id.Protein>
6NUR|6NUR_protein|mol2

> <Gold.PLP.Fitness>
52.2441

> <Gold.PLP.PLP>
-42.0546

> <Gold.PLP.part.hbond>
-3.0000

> <Gold.PLP.part.metal>
0.0000

> <Gold.PLP.part.buried>
-6.3295

> <Gold.PLP.part.nonpolar>
-32.8435

> <Gold.PLP.part.repulsive>
0.0494

> <Gold.PLP.ligand.clash>
0.0000

> <Gold.PLP.ligand.torsion>
0.9255

> <Gold.PLP.Chemscore.Hbond>
4.0000

> <Gold.PLP.Chemscore.CHOScore>
0.0000

> <Gold.PLP.Chemscore.Metal>
0.0000

> <Gold.Chemscore.Hbonds>
donor molecule, donor type, donor heavy atom, donor atom, acceptor molecule, acceptor atom, score
      L1  H    11    45       P1  8028  2.00
      P1  H  6896  6907       L1    23  1.00
      P1  H  7989  7998       L1     7  0.90

> <Gold.PLP.Chemscore.Internal.Correction>
0.0406

> <Gold.Rescore>
     Score         DG    S(hbond)    S(metal)    S(lipo)     H(rot)  DE(clash)    DE(int)     intcor
     17.54     -19.44       2.79        0.00      90.51       2.32       0.01       1.89       ----

> <Gold.Chemscore.Fitness>
17.5364

> <Gold.Chemscore.DG>
-19.4379

> <Gold.Chemscore.ZeroCoef>
-5.4800

> <Gold.Chemscore.Hbond>
2.7873

> <Gold.Chemscore.Metal>
0.0000

> <Gold.Chemscore.Lipo>
90.5131

> <Gold.Chemscore.Internal_Hbond>
0.0000

> <Gold.Chemscore.DEClash>
0.0117

> <Gold.Chemscore.DEInternal>
1.8898

> <Gold.Chemscore.Rot>
2.3210

> <Gold.Chemscore.Internal.Correction>
   9.000000E+99

> <Gold.Chemscore.Hbonds>
donor molecule, donor type, donor heavy atom, donor atom, acceptor molecule, acceptor atom, score
      L1  H    11    45       P1  8028  1.00
      P1  H  6896  6907       L1    23  0.74
      P1  H  7989  7998       L1     7  0.18

> <Gold.Chemscore.Hbond.Weighted>
-9.3095

> <Gold.Chemscore.Metal.Weighted>
-0.0000

> <Gold.Chemscore.Lipo.Weighted>
-10.5900

> <Gold.Chemscore.Internal_Hbond.Weighted>
0.0000

> <Gold.Chemscore.DEClash.Weighted>
0.0117

> <Gold.Chemscore.DEInternal.Weighted>
1.8898

> <Gold.Chemscore.Rot.Weighted>
5.9416

> <Gold.Chemscore.Internal.Correction.Weighted>
   9.000000E+99

> <Gold.Protein.RotatedTorsions>
[ 6907 6896 6895 6894 ] final  -86.68 input  -60.11 | X-H torsion
[ 7974 7965 7964 7962 ] final   22.08 input  175.53 | X-H torsion
[ 8008 7997 7996 7995 ] final -154.54 input   59.86 | X-H torsion
[ 10167 10162 10161 10158 ] final  -61.34 input  -65.29 | X-H torsion
[ 10718 10713 10712 10709 ] final -176.57 input   66.30 | X-H torsion
[ 10763 10752 10751 10750 ] final   60.50 input  -60.55 | X-H torsion
[ 11005 11000 10999 10996 ] final   23.52 input  -57.11 | X-H torsion

> <Gold.Protein.ActiveResidues>
 VAL166  LYS551  ARG553  GLY616  TRP617  ASP618  TYR619  PRO620  LYS621  CYS622 
 ASP623  PHE694  ASN695  SER759  ASP760  ASP761  ALA762  ILE779  LEU786  VAL792 
 PHE793  MET794  SER795  GLU796  ALA797  LYS798  CYS799  TRP800  GLU811  SER814 

> <Gold.Protein.RotatedAtoms>
  150.6866  134.3014  159.4707 H   0  0  0  0  0  0  0  0  0  0  0  0  # atno 6907 bound_to 6896
  152.0909  134.9405  160.0581 H   0  0  0  0  0  0  0  0  0  0  0  0  # atno 6908 bound_to 6896
  152.0721  133.4077  159.4501 H   0  0  0  0  0  0  0  0  0  0  0  0  # atno 6909 bound_to 6896
  146.2044  139.7936  142.8737 H   0  0  0  0  0  0  0  0  0  0  0  0  # atno 7974 bound_to 7965
  155.6879  140.0752  157.2459 H   0  0  0  0  0  0  0  0  0  0  0  0  # atno 8008 bound_to 7997
  154.4094  140.1670  156.2107 H   0  0  0  0  0  0  0  0  0  0  0  0  # atno 8009 bound_to 7997
  155.9477  140.3379  155.6384 H   0  0  0  0  0  0  0  0  0  0  0  0  # atno 8010 bound_to 7997
  140.6012  143.2362  151.5923 H   0  0  0  0  0  0  0  0  0  0  0  0  # atno 10167 bound_to 10162
  156.8166  130.9605  151.3113 H   0  0  0  0  0  0  0  0  0  0  0  0  # atno 10718 bound_to 10713
  152.9923  135.5534  154.5884 H   0  0  0  0  0  0  0  0  0  0  0  0  # atno 10763 bound_to 10752
  154.5250  135.2810  155.1231 H   0  0  0  0  0  0  0  0  0  0  0  0  # atno 10764 bound_to 10752
  154.2569  135.6388  153.5313 H   0  0  0  0  0  0  0  0  0  0  0  0  # atno 10765 bound_to 10752
  140.3687  134.2046  155.7668 H   0  0  0  0  0  0  0  0  0  0  0  0  # atno 11005 bound_to 11000
  145.3371  141.0279  143.3413 LP  0  0  0  0  0  0  0  0  0  0  0  0  # atno 17320 bound_to 7965
  144.8758  139.4973  143.6746 LP  0  0  0  0  0  0  0  0  0  0  0  0  # atno 17321 bound_to 7965
  139.5293  144.2965  152.1109 LP  0  0  0  0  0  0  0  0  0  0  0  0  # atno 17342 bound_to 10162
  140.2146  144.4528  150.6370 LP  0  0  0  0  0  0  0  0  0  0  0  0  # atno 17343 bound_to 10162
  157.6478  130.8859  149.9573 LP  0  0  0  0  0  0  0  0  0  0  0  0  # atno 17370 bound_to 10713
  156.1013  130.3655  150.0213 LP  0  0  0  0  0  0  0  0  0  0  0  0  # atno 17371 bound_to 10713
  141.1961  133.8089  157.0684 LP  0  0  0  0  0  0  0  0  0  0  0  0  # atno 17394 bound_to 11000
  140.0569  134.9776  157.1236 LP  0  0  0  0  0  0  0  0  0  0  0  0  # atno 17395 bound_to 11000

$$$$
