AV-unprocessed.smi:3335|AV-procd|sdf|12849|dock4
  -GOLD-   2272019243D 1   1.00000     0.00000
 Structure written by MMmdl.
 46 47  0  0  0  0  0  0  0  0  1 V2000
  145.7551  132.5634  150.1315 C   0  0  0  0  0  0  0  0  0  0  0  0
  146.4191  132.4207  151.4707 C   0  0  0  0  0  0  0  0  0  0  0  0
  146.4809  131.2613  152.2943 C   0  0  0  0  0  0  0  0  0  0  0  0
  147.1441  131.4651  153.4203 N   0  0  0  0  0  0  0  0  0  0  0  0
  147.5285  132.7600  153.3591 N   0  0  0  0  0  0  0  0  0  0  0  0
  148.2916  133.3541  154.4499 C   0  0  2  0  0  0  0  0  0  0  0  0
  149.6695  132.6730  154.5599 C   0  0  0  0  0  0  0  0  0  0  0  0
  147.5013  133.3394  155.7873 C   0  0  2  0  0  0  0  0  0  0  0  0
  146.1763  134.1233  155.7251 C   0  0  0  0  0  0  0  0  0  0  0  0
  148.3170  133.9563  156.8341 N   0  0  0  0  0  0  0  0  0  0  0  0
  147.7828  133.8054  158.2005 C   0  0  1  0  0  0  0  0  0  0  0  0
  148.1252  132.4073  158.7365 C   0  0  0  0  0  0  0  0  0  0  0  0
  148.3051  134.8843  159.1760 C   0  0  0  0  0  0  0  0  0  0  0  0
  149.1902  135.6506  158.7915 O   0  0  0  0  0  0  0  0  0  0  0  0
  147.7853  134.9666  160.4201 N   0  0  0  0  0  0  0  0  0  0  0  0
  148.2025  135.9742  161.3943 C   0  0  0  0  0  0  0  0  0  0  0  0
  147.2161  135.8645  162.5569 C   0  0  0  0  0  0  0  0  0  0  0  0
  146.7210  134.4274  162.4874 C   0  0  0  0  0  0  0  0  0  0  0  0
  146.7677  134.0886  160.9976 C   0  0  0  0  0  0  0  0  0  0  0  0
  147.1047  133.3578  152.1905 C   0  0  0  0  0  0  0  0  0  0  0  0
  146.1875  131.8857  149.3952 H   0  0  0  0  0  0  0  0  0  0  0  0
  145.8535  133.5739  149.7342 H   0  0  0  0  0  0  0  0  0  0  0  0
  144.6891  132.3422  150.1862 H   0  0  0  0  0  0  0  0  0  0  0  0
  146.0650  130.2821  152.1076 H   0  0  0  0  0  0  0  0  0  0  0  0
  148.4634  134.3954  154.1714 H   0  0  0  0  0  0  0  0  0  0  0  0
  150.3211  133.2031  155.2543 H   0  0  0  0  0  0  0  0  0  0  0  0
  150.1764  132.6560  153.5947 H   0  0  0  0  0  0  0  0  0  0  0  0
  149.5810  131.6429  154.9074 H   0  0  0  0  0  0  0  0  0  0  0  0
  147.2601  132.3039  156.0331 H   0  0  0  0  0  0  0  0  0  0  0  0
  145.4753  133.6735  155.0221 H   0  0  0  0  0  0  0  0  0  0  0  0
  146.3388  135.1567  155.4167 H   0  0  0  0  0  0  0  0  0  0  0  0
  145.6803  134.1401  156.6959 H   0  0  0  0  0  0  0  0  0  0  0  0
  148.4865  134.9267  156.6103 H   0  0  0  0  0  0  0  0  0  0  0  0
  146.6987  133.8657  158.1223 H   0  0  0  0  0  0  0  0  0  0  0  0
  147.7092  132.2516  159.7326 H   0  0  0  0  0  0  0  0  0  0  0  0
  149.2036  132.2537  158.7983 H   0  0  0  0  0  0  0  0  0  0  0  0
  147.7170  131.6307  158.0887 H   0  0  0  0  0  0  0  0  0  0  0  0
  149.2156  135.7466  161.7289 H   0  0  0  0  0  0  0  0  0  0  0  0
  148.2033  136.9797  160.9702 H   0  0  0  0  0  0  0  0  0  0  0  0
  147.6661  136.1121  163.5187 H   0  0  0  0  0  0  0  0  0  0  0  0
  146.3802  136.5458  162.3931 H   0  0  0  0  0  0  0  0  0  0  0  0
  147.4084  133.7786  163.0318 H   0  0  0  0  0  0  0  0  0  0  0  0
  145.7279  134.2998  162.9193 H   0  0  0  0  0  0  0  0  0  0  0  0
  145.8057  134.3027  160.5293 H   0  0  0  0  0  0  0  0  0  0  0  0
  146.9974  133.0330  160.8458 H   0  0  0  0  0  0  0  0  0  0  0  0
  147.3223  134.3928  151.9704 H   0  0  0  0  0  0  0  0  0  0  0  0
  1  2  1  0  0  0  0
  1 21  1  0  0  0  0
  1 22  1  0  0  0  0
  1 23  1  0  0  0  0
  2 20  2  0  0  0  0
  2  3  1  0  0  0  0
  3  4  2  0  0  0  0
  3 24  1  0  0  0  0
  4  5  1  0  0  0  0
  5  6  1  0  0  0  0
  5 20  1  0  0  0  0
  6  7  1  0  0  0  0
  6  8  1  0  0  0  0
  6 25  1  0  0  0  0
  7 26  1  0  0  0  0
  7 27  1  0  0  0  0
  7 28  1  0  0  0  0
  8  9  1  0  0  0  0
  8 10  1  0  0  0  0
  8 29  1  0  0  0  0
  9 30  1  0  0  0  0
  9 31  1  0  0  0  0
  9 32  1  0  0  0  0
 10 11  1  0  0  0  0
 10 33  1  0  0  0  0
 11 12  1  0  0  0  0
 11 13  1  0  0  0  0
 11 34  1  0  0  0  0
 12 35  1  0  0  0  0
 12 36  1  0  0  0  0
 12 37  1  0  0  0  0
 13 14  2  0  0  0  0
 13 15  1  0  0  0  0
 15 19  1  0  0  0  0
 15 16  1  0  0  0  0
 16 17  1  0  0  0  0
 16 38  1  0  0  0  0
 16 39  1  0  0  0  0
 17 18  1  0  0  0  0
 17 40  1  0  0  0  0
 17 41  1  0  0  0  0
 18 19  1  0  0  0  0
 18 42  1  0  0  0  0
 18 43  1  0  0  0  0
 19 44  1  0  0  0  0
 19 45  1  0  0  0  0
 20 46  1  0  0  0  0
M  END
> <s_m_source_file>
AV-unprocessed.smi

> <i_m_source_file_index>
3335

> <i_lp_mmshare_version>
43012

> <i_f3d_flags>
0

> <s_epik_input>
W0NIM11jMVtjSF1ubihbY0hdMSlbQ0BIXShbQ0gzXSlbQ0BIXShbQ0gzXSlbTkhdW0NASF0oW0NIM10pQyg9TylOMltDSDJdW0NIMl1bQ0gyXVtDSDJdMg==

> <s_epik_cmdline>
J2VwaWtfcHl0aG9uJywgJy1waCcsICc3LjAnLCAnLXRuJywgJzgnLCAnLW1hJywgJzIwMCcsICctbWV0YWxfYmluZGluZycsICctaW1hZScsICc8aW5maWxlLm1hZT4nLCAnLW9tYWUnLCAnPG91dGZpbGUubWFlPic=

> <r_lp_tautomer_probability>
1

> <r_epik_Ionization_Penalty>
0.918803

> <r_epik_Ionization_Penalty_Charging>
0

> <r_epik_Ionization_Penalty_Neutral>
0.918803

> <r_epik_State_Penalty>
0.958258

> <r_epik_Charging_Adjusted_Penalty>
0.958258

> <i_epik_Tot_Q>
0

> <i_epik_Tot_abs_Q>
0

> <r_epik_Metal_State_Penalty>
0.956786

> <b_epik_Metal_Only>
0

> <s_lp_Force_Field>
OPLS_2005

> <r_lp_Energy>
37.1763

> <b_lp_Chiralities_Consistent>
1

> <s_lp_Variant>
AV-unprocessed.smi:3335-13

> <Gold.Version>
5.8.1

> <Gold.Id.Protein>
6NUR|6NUR_protein|mol2

> <Gold.PLP.Fitness>
37.6954

> <Gold.PLP.PLP>
-32.3738

> <Gold.PLP.part.hbond>
-1.0000

> <Gold.PLP.part.metal>
0.0000

> <Gold.PLP.part.buried>
-3.2380

> <Gold.PLP.part.nonpolar>
-28.6572

> <Gold.PLP.part.repulsive>
0.1061

> <Gold.PLP.ligand.clash>
0.0000

> <Gold.PLP.ligand.torsion>
0.3639

> <Gold.PLP.Chemscore.Hbond>
0.9913

> <Gold.PLP.Chemscore.CHOScore>
1.0000

> <Gold.PLP.Chemscore.Metal>
0.0000

> <Gold.Chemscore.Hbonds>
donor molecule, donor type, donor heavy atom, donor atom, acceptor molecule, acceptor atom, score
      P1  H  6896  6909       L1    14  1.00
      L1  C    20    46       P1  7948  1.00

> <Gold.PLP.Chemscore.Internal.Correction>
0.0756

> <Gold.Rescore>
     Score         DG    S(hbond)    S(metal)    S(lipo)     H(rot)  DE(clash)    DE(int)     intcor
     13.28     -13.70       0.96        0.00      78.26       1.62       0.02       0.39       ----

> <Gold.Chemscore.Fitness>
13.2825

> <Gold.Chemscore.DG>
-13.6959

> <Gold.Chemscore.ZeroCoef>
-5.4800

> <Gold.Chemscore.Hbond>
0.9604

> <Gold.Chemscore.Metal>
0.0000

> <Gold.Chemscore.Lipo>
78.2597

> <Gold.Chemscore.Internal_Hbond>
0.0000

> <Gold.Chemscore.DEClash>
0.0222

> <Gold.Chemscore.DEInternal>
0.3913

> <Gold.Chemscore.Rot>
1.6204

> <Gold.Chemscore.Internal.Correction>
   9.000000E+99

> <Gold.Chemscore.Hbonds>
donor molecule, donor type, donor heavy atom, donor atom, acceptor molecule, acceptor atom, score
      P1  H  6896  6909       L1    14  0.28

> <Gold.Chemscore.Hbond.Weighted>
-3.2077

> <Gold.Chemscore.Metal.Weighted>
-0.0000

> <Gold.Chemscore.Lipo.Weighted>
-9.1564

> <Gold.Chemscore.Internal_Hbond.Weighted>
0.0000

> <Gold.Chemscore.DEClash.Weighted>
0.0222

> <Gold.Chemscore.DEInternal.Weighted>
0.3913

> <Gold.Chemscore.Rot.Weighted>
4.1482

> <Gold.Chemscore.Internal.Correction.Weighted>
   9.000000E+99

> <Gold.Protein.RotatedTorsions>
[ 6907 6896 6895 6894 ] final   69.44 input  -60.11 | X-H torsion
[ 7974 7965 7964 7962 ] final -176.80 input  175.53 | X-H torsion
[ 8008 7997 7996 7995 ] final -176.64 input   59.86 | X-H torsion
[ 10167 10162 10161 10158 ] final  -72.66 input  -65.29 | X-H torsion
[ 10718 10713 10712 10709 ] final   24.22 input   66.30 | X-H torsion
[ 10763 10752 10751 10750 ] final -121.74 input  -60.55 | X-H torsion
[ 11005 11000 10999 10996 ] final  168.33 input  -57.11 | X-H torsion

> <Gold.Protein.ActiveResidues>
 VAL166  LYS551  ARG553  GLY616  TRP617  ASP618  TYR619  PRO620  LYS621  CYS622 
 ASP623  PHE694  ASN695  SER759  ASP760  ASP761  ALA762  ILE779  LEU786  VAL792 
 PHE793  MET794  SER795  GLU796  ALA797  LYS798  CYS799  TRP800  GLU811  SER814 

> <Gold.Protein.RotatedAtoms>
  152.4686  134.5016  159.9726 H   0  0  0  0  0  0  0  0  0  0  0  0  # atno 6907 bound_to 6896
  151.5048  133.3491  159.2883 H   0  0  0  0  0  0  0  0  0  0  0  0  # atno 6908 bound_to 6896
  150.8683  134.8080  159.7197 H   0  0  0  0  0  0  0  0  0  0  0  0  # atno 6909 bound_to 6896
  144.7127  140.1116  143.6411 H   0  0  0  0  0  0  0  0  0  0  0  0  # atno 7974 bound_to 7965
  155.9974  140.1213  157.0581 H   0  0  0  0  0  0  0  0  0  0  0  0  # atno 8008 bound_to 7997
  154.4231  140.1113  156.5717 H   0  0  0  0  0  0  0  0  0  0  0  0  # atno 8009 bound_to 7997
  155.6260  140.3472  155.4669 H   0  0  0  0  0  0  0  0  0  0  0  0  # atno 8010 bound_to 7997
  140.5174  143.2336  151.7489 H   0  0  0  0  0  0  0  0  0  0  0  0  # atno 10167 bound_to 10162
  157.1767  130.6784  149.6098 H   0  0  0  0  0  0  0  0  0  0  0  0  # atno 10718 bound_to 10713
  154.8675  135.4157  154.2669 H   0  0  0  0  0  0  0  0  0  0  0  0  # atno 10763 bound_to 10752
  153.3586  135.7002  153.6736 H   0  0  0  0  0  0  0  0  0  0  0  0  # atno 10764 bound_to 10752
  153.5646  135.3603  155.2785 H   0  0  0  0  0  0  0  0  0  0  0  0  # atno 10765 bound_to 10752
  140.2861  134.7711  157.3799 H   0  0  0  0  0  0  0  0  0  0  0  0  # atno 11005 bound_to 11000
  145.9450  139.2694  143.1246 LP  0  0  0  0  0  0  0  0  0  0  0  0  # atno 17320 bound_to 7965
  145.9384  140.8998  143.0320 LP  0  0  0  0  0  0  0  0  0  0  0  0  # atno 17321 bound_to 7965
  139.4913  144.4304  151.9879 LP  0  0  0  0  0  0  0  0  0  0  0  0  # atno 17342 bound_to 10162
  140.3399  144.3216  150.5969 LP  0  0  0  0  0  0  0  0  0  0  0  0  # atno 17343 bound_to 10162
  155.9730  130.4660  150.6275 LP  0  0  0  0  0  0  0  0  0  0  0  0  # atno 17370 bound_to 10713
  157.3991  131.0807  151.1324 LP  0  0  0  0  0  0  0  0  0  0  0  0  # atno 17371 bound_to 10713
  140.1238  134.5185  155.8161 LP  0  0  0  0  0  0  0  0  0  0  0  0  # atno 17394 bound_to 11000
  141.2154  133.6765  156.6914 LP  0  0  0  0  0  0  0  0  0  0  0  0  # atno 17395 bound_to 11000

$$$$
