AV-unprocessed.smi:157|AV-procd|sdf|1302|dock6
  -GOLD-   2262018593D 1   1.00000     0.00000
 Structure written by MMmdl.
 35 37  0  0  0  0  0  0  0  0  1 V2000
  151.7793  136.8999  154.0080 O   0  0  0  0  0  0  0  0  0  0  0  0
  150.6932  137.5919  154.5874 C   0  0  0  0  0  0  0  0  0  0  0  0
  150.9146  139.1090  154.4927 C   0  0  2  0  0  0  0  0  0  0  0  0
  151.7355  139.5168  155.5841 O   0  0  0  0  0  0  0  0  0  0  0  0
  151.3558  140.8027  155.9406 C   0  0  2  0  0  0  0  0  0  0  0  0
  151.7987  141.0731  157.3437 N   0  0  0  0  0  0  0  0  0  0  0  0
  152.2033  140.1631  158.2396 C   0  0  0  0  0  0  0  0  0  0  0  0
  152.5424  140.6635  159.4158 N   0  0  0  0  0  0  0  0  0  0  0  0
  152.3261  142.0331  159.2731 C   0  0  0  0  0  0  0  0  0  0  0  0
  151.8536  142.3070  157.9975 C   0  0  0  0  0  0  0  0  0  0  0  0
  151.4711  143.4353  157.2977 N   0  0  0  0  0  0  0  0  0  0  0  0
  151.1902  144.5049  157.9729 C   0  0  0  0  0  0  0  0  0  0  0  0
  151.2967  144.7601  159.3326 N   0  0  0  0  0  0  0  0  0  0  0  0
  152.4812  144.4487  160.1141 C   0  0  0  0  0  0  0  0  0  0  0  0
  152.6403  142.9536  160.4169 C   0  0  1  0  0  0  0  0  0  0  0  0
  151.7821  142.5988  161.4821 O   0  0  0  0  0  0  0  0  0  0  0  0
  149.8388  140.8078  155.8400 C   0  0  0  0  0  0  0  0  0  0  0  0
  149.6189  139.9444  154.6079 C   0  0  1  0  0  0  0  0  0  0  0  0
  149.4584  140.7618  153.4653 O   0  0  0  0  0  0  0  0  0  0  0  0
  151.4528  139.3493  153.5736 H   0  0  0  0  0  0  0  0  0  0  0  0
  151.8484  141.5417  155.3069 H   0  0  0  0  0  0  0  0  0  0  0  0
  153.6596  142.7788  160.7623 H   0  0  0  0  0  0  0  0  0  0  0  0
  148.7290  139.3243  154.7226 H   0  0  0  0  0  0  0  0  0  0  0  0
  151.5622  136.6984  153.1105 H   0  0  0  0  0  0  0  0  0  0  0  0
  149.7649  137.3008  154.0948 H   0  0  0  0  0  0  0  0  0  0  0  0
  150.6138  137.2891  155.6318 H   0  0  0  0  0  0  0  0  0  0  0  0
  152.2539  139.1060  158.0240 H   0  0  0  0  0  0  0  0  0  0  0  0
  150.8129  145.3739  157.4320 H   0  0  0  0  0  0  0  0  0  0  0  0
  150.8105  145.5609  159.7098 H   0  0  0  0  0  0  0  0  0  0  0  0
  153.3454  144.7841  159.5386 H   0  0  0  0  0  0  0  0  0  0  0  0
  152.4831  145.0332  161.0346 H   0  0  0  0  0  0  0  0  0  0  0  0
  152.0953  143.0232  162.2663 H   0  0  0  0  0  0  0  0  0  0  0  0
  149.4187  140.3201  156.7211 H   0  0  0  0  0  0  0  0  0  0  0  0
  149.4439  141.8221  155.7689 H   0  0  0  0  0  0  0  0  0  0  0  0
  149.1957  140.2142  152.7411 H   0  0  0  0  0  0  0  0  0  0  0  0
  1  2  1  0  0  0  0
  1 24  1  0  0  0  0
  2  3  1  0  0  0  0
  2 25  1  0  0  0  0
  2 26  1  0  0  0  0
  3 20  1  0  0  0  0
  3 18  1  0  0  0  0
  3  4  1  0  0  0  0
  4  5  1  0  0  0  0
  5 21  1  0  0  0  0
  5  6  1  0  0  0  0
  5 17  1  0  0  0  0
  6 10  1  0  0  0  0
  6  7  1  0  0  0  0
  7  8  2  0  0  0  0
  7 27  1  0  0  0  0
  8  9  1  0  0  0  0
  9 15  1  0  0  0  0
  9 10  2  0  0  0  0
 10 11  1  0  0  0  0
 11 12  2  0  0  0  0
 12 13  1  0  0  0  0
 12 28  1  0  0  0  0
 13 14  1  0  0  0  0
 13 29  1  0  0  0  0
 14 15  1  0  0  0  0
 14 30  1  0  0  0  0
 14 31  1  0  0  0  0
 15 22  1  0  0  0  0
 15 16  1  0  0  0  0
 16 32  1  0  0  0  0
 17 18  1  0  0  0  0
 17 33  1  0  0  0  0
 17 34  1  0  0  0  0
 18 23  1  0  0  0  0
 18 19  1  0  0  0  0
 19 35  1  0  0  0  0
M  END
> <s_m_source_file>
AV-unprocessed.smi

> <i_m_source_file_index>
157

> <i_lp_mmshare_version>
43012

> <i_f3d_flags>
0

> <s_epik_input>
W09IXVtDSDJdW0NASF0xT1tDQEhdKFtDSDJdW0NAQEhdMVtPSF0pbihbY0hdbjIpYyhjMjMpTj1bQ0hdW05IXVtDSDJdW0NASF0zW09IXQ==

> <s_epik_cmdline>
J2VwaWtfcHl0aG9uJywgJy1waCcsICc3LjAnLCAnLXRuJywgJzgnLCAnLW1hJywgJzIwMCcsICctbWV0YWxfYmluZGluZycsICctaW1hZScsICc8aW5maWxlLm1hZT4nLCAnLW9tYWUnLCAnPG91dGZpbGUubWFlPic=

> <r_lp_tautomer_probability>
1

> <r_epik_Ionization_Penalty>
0.0357149

> <r_epik_Ionization_Penalty_Charging>
0.0355056

> <r_epik_Ionization_Penalty_Neutral>
0.000209255

> <r_epik_State_Penalty>
0.0296046

> <r_epik_Charging_Adjusted_Penalty>
0.0651102

> <i_epik_Tot_Q>
0

> <i_epik_Tot_abs_Q>
0

> <r_epik_Metal_State_Penalty>
3.03559e-05

> <b_epik_Metal_Only>
0

> <s_epik_Chemistry_Notes>
This compound has an imine and may undergo hydrolysis. This compound contains an acetal/aminal-like group ( X-CH(R)-Y where X, Y are N, S, or O) that may be acid/base labile, releasing an aldehyde.

> <s_lp_Force_Field>
OPLS_2005

> <r_lp_Energy>
43.7304

> <b_lp_Chiralities_Consistent>
1

> <s_lp_Variant>
AV-unprocessed.smi:157-12

> <Gold.Version>
5.8.1

> <Gold.Id.Protein>
6NUR|6NUR_protein|mol2

> <Gold.PLP.Fitness>
52.5301

> <Gold.PLP.PLP>
-40.1945

> <Gold.PLP.part.hbond>
-5.6381

> <Gold.PLP.part.metal>
0.0000

> <Gold.PLP.part.buried>
-6.8799

> <Gold.PLP.part.nonpolar>
-27.8159

> <Gold.PLP.part.repulsive>
0.2711

> <Gold.PLP.ligand.clash>
0.0000

> <Gold.PLP.ligand.torsion>
0.6614

> <Gold.PLP.Chemscore.Hbond>
4.0827

> <Gold.PLP.Chemscore.CHOScore>
0.4612

> <Gold.PLP.Chemscore.Metal>
0.0000

> <Gold.Chemscore.Hbonds>
donor molecule, donor type, donor heavy atom, donor atom, acceptor molecule, acceptor atom, score
      L1  H     1    24       P1  7949  1.00
      L1  H    19    35       P1  7957  0.74
      P1  H  6933  6945       L1    16  0.53
      P1  H  7989  7998       L1    19  0.07
      P1  H  8011  8017       L1    19  0.75
      P1  H 10752 10765       L1     1  0.94
      L1  C    12    28       P1  8028  0.39

> <Gold.PLP.Chemscore.Internal.Correction>
0.0267

> <Gold.Rescore>
     Score         DG    S(hbond)    S(metal)    S(lipo)     H(rot)  DE(clash)    DE(int)     intcor
     11.94     -12.68       2.79        0.00      61.51       3.64       0.06       0.68       ----

> <Gold.Chemscore.Fitness>
11.9399

> <Gold.Chemscore.DG>
-12.6791

> <Gold.Chemscore.ZeroCoef>
-5.4800

> <Gold.Chemscore.Hbond>
2.7879

> <Gold.Chemscore.Metal>
0.0000

> <Gold.Chemscore.Lipo>
61.5051

> <Gold.Chemscore.Internal_Hbond>
0.0000

> <Gold.Chemscore.DEClash>
0.0580

> <Gold.Chemscore.DEInternal>
0.6812

> <Gold.Chemscore.Rot>
3.6362

> <Gold.Chemscore.Internal.Correction>
   9.000000E+99

> <Gold.Chemscore.Hbonds>
donor molecule, donor type, donor heavy atom, donor atom, acceptor molecule, acceptor atom, score
      L1  H     1    24       P1  7949  0.94
      L1  H    19    35       P1  7957  0.74
      P1  H  6933  6945       L1    16  0.11
      P1  H  8011  8017       L1    19  0.09
      P1  H 10752 10765       L1     1  0.41

> <Gold.Chemscore.Hbond.Weighted>
-9.3117

> <Gold.Chemscore.Metal.Weighted>
-0.0000

> <Gold.Chemscore.Lipo.Weighted>
-7.1961

> <Gold.Chemscore.Internal_Hbond.Weighted>
0.0000

> <Gold.Chemscore.DEClash.Weighted>
0.0580

> <Gold.Chemscore.DEInternal.Weighted>
0.6812

> <Gold.Chemscore.Rot.Weighted>
9.3087

> <Gold.Chemscore.Internal.Correction.Weighted>
   9.000000E+99

> <Gold.Protein.RotatedTorsions>
[ 6907 6896 6895 6894 ] final  -23.53 input  -60.11 | X-H torsion
[ 7974 7965 7964 7962 ] final   24.40 input  175.53 | X-H torsion
[ 8008 7997 7996 7995 ] final  161.79 input   59.86 | X-H torsion
[ 10167 10162 10161 10158 ] final  101.12 input  -65.29 | X-H torsion
[ 10718 10713 10712 10709 ] final  148.99 input   66.30 | X-H torsion
[ 10763 10752 10751 10750 ] final  174.65 input  -60.55 | X-H torsion
[ 11005 11000 10999 10996 ] final   37.53 input  -57.11 | X-H torsion

> <Gold.Protein.ActiveResidues>
 VAL166  LYS551  ARG553  GLY616  TRP617  ASP618  TYR619  PRO620  LYS621  CYS622 
 ASP623  PHE694  ASN695  SER759  ASP760  ASP761  ALA762  ILE779  LEU786  VAL792 
 PHE793  MET794  SER795  GLU796  ALA797  LYS798  CYS799  TRP800  GLU811  SER814 

> <Gold.Protein.RotatedAtoms>
  151.2027  135.0449  159.8878 H   0  0  0  0  0  0  0  0  0  0  0  0  # atno 6907 bound_to 6896
  152.5431  134.0832  159.8255 H   0  0  0  0  0  0  0  0  0  0  0  0  # atno 6908 bound_to 6896
  151.0975  133.5221  159.2643 H   0  0  0  0  0  0  0  0  0  0  0  0  # atno 6909 bound_to 6896
  146.1939  139.7609  142.8812 H   0  0  0  0  0  0  0  0  0  0  0  0  # atno 7974 bound_to 7965
  156.2078  140.1768  156.7762 H   0  0  0  0  0  0  0  0  0  0  0  0  # atno 8008 bound_to 7997
  154.5679  140.0687  156.8950 H   0  0  0  0  0  0  0  0  0  0  0  0  # atno 8009 bound_to 7997
  155.2726  140.3343  155.4266 H   0  0  0  0  0  0  0  0  0  0  0  0  # atno 8010 bound_to 7997
  139.7466  144.6996  151.0495 H   0  0  0  0  0  0  0  0  0  0  0  0  # atno 10167 bound_to 10162
  157.3017  131.0872  151.1385 H   0  0  0  0  0  0  0  0  0  0  0  0  # atno 10718 bound_to 10713
  154.4569  135.2766  155.1741 H   0  0  0  0  0  0  0  0  0  0  0  0  # atno 10763 bound_to 10752
  154.3545  135.6143  153.5663 H   0  0  0  0  0  0  0  0  0  0  0  0  # atno 10764 bound_to 10752
  152.9851  135.5819  154.4924 H   0  0  0  0  0  0  0  0  0  0  0  0  # atno 10765 bound_to 10752
  140.2217  134.3633  155.8002 H   0  0  0  0  0  0  0  0  0  0  0  0  # atno 11005 bound_to 11000
  145.3706  141.0342  143.3233 LP  0  0  0  0  0  0  0  0  0  0  0  0  # atno 17320 bound_to 7965
  144.8541  139.5277  143.6843 LP  0  0  0  0  0  0  0  0  0  0  0  0  # atno 17321 bound_to 7965
  140.7793  143.4859  150.9956 LP  0  0  0  0  0  0  0  0  0  0  0  0  # atno 17342 bound_to 10162
  139.8547  143.7392  152.3176 LP  0  0  0  0  0  0  0  0  0  0  0  0  # atno 17343 bound_to 10162
  157.2741  130.6718  149.6034 LP  0  0  0  0  0  0  0  0  0  0  0  0  # atno 17370 bound_to 10713
  155.9672  130.4470  150.5562 LP  0  0  0  0  0  0  0  0  0  0  0  0  # atno 17371 bound_to 10713
  141.2222  133.7197  156.8586 LP  0  0  0  0  0  0  0  0  0  0  0  0  # atno 17394 bound_to 11000
  140.1843  134.9011  157.2986 LP  0  0  0  0  0  0  0  0  0  0  0  0  # atno 17395 bound_to 11000

$$$$
