AV-unprocessed.smi:2924|AV-procd|sdf|11218|dock3
  -GOLD-   2272016113D 1   1.00000     0.00000
 Structure written by MMmdl.
 29 31  0  0  0  0  0  0  0  0  1 V2000
  153.1901  138.8841  155.9292 N   0  0  0  0  0  0  0  0  0  0  0  0
  152.1644  139.4113  155.8364 C   0  0  0  0  0  0  0  0  0  0  0  0
  150.8721  140.0756  155.7190 C   0  0  0  0  0  0  0  0  0  0  0  0
  150.0138  139.7165  154.6586 C   0  0  0  0  0  0  0  0  0  0  0  0
  148.7665  140.3556  154.5388 C   0  0  0  0  0  0  0  0  0  0  0  0
  148.4254  141.3334  155.4907 C   0  0  0  0  0  0  0  0  0  0  0  0
  149.2362  141.6862  156.5096 N   0  0  0  0  0  0  0  0  0  0  0  0
  150.4411  141.0767  156.6310 C   0  0  0  0  0  0  0  0  0  0  0  0
  151.2636  141.4652  157.7046 N   0  0  0  0  0  0  0  0  0  0  0  0
  151.0903  142.7507  158.3732 C   0  0  2  0  0  0  0  0  0  0  0  0
  151.4386  143.9469  157.4776 C   0  0  0  0  0  0  0  0  0  0  0  0
  152.5029  144.6693  158.3126 C   0  0  1  0  0  0  0  0  0  0  0  0
  151.9153  145.3067  159.5791 C   0  0  0  0  0  0  0  0  0  0  0  0
  151.6549  144.0805  160.4534 C   0  0  0  0  0  0  0  0  0  0  0  0
  152.0884  142.9348  159.5288 C   0  0  2  0  0  0  0  0  0  0  0  0
  153.1792  143.5552  158.8674 O   0  0  0  0  0  0  0  0  0  0  0  0
  150.3033  138.9610  153.9421 H   0  0  0  0  0  0  0  0  0  0  0  0
  148.0882  140.1028  153.7374 H   0  0  0  0  0  0  0  0  0  0  0  0
  147.4766  141.8458  155.4334 H   0  0  0  0  0  0  0  0  0  0  0  0
  152.1122  140.9479  157.8851 H   0  0  0  0  0  0  0  0  0  0  0  0
  150.0712  142.8211  158.7556 H   0  0  0  0  0  0  0  0  0  0  0  0
  151.8632  143.6271  156.5247 H   0  0  0  0  0  0  0  0  0  0  0  0
  150.5750  144.5781  157.2662 H   0  0  0  0  0  0  0  0  0  0  0  0
  153.1391  145.3386  157.7333 H   0  0  0  0  0  0  0  0  0  0  0  0
  152.6390  145.9690  160.0553 H   0  0  0  0  0  0  0  0  0  0  0  0
  151.0110  145.8795  159.3712 H   0  0  0  0  0  0  0  0  0  0  0  0
  152.2782  144.1106  161.3478 H   0  0  0  0  0  0  0  0  0  0  0  0
  150.6137  143.9953  160.7661 H   0  0  0  0  0  0  0  0  0  0  0  0
  152.3404  142.0172  160.0619 H   0  0  0  0  0  0  0  0  0  0  0  0
  1  2  3  0  0  0  0
  2  3  1  0  0  0  0
  3  8  1  0  0  0  0
  3  4  2  0  0  0  0
  4  5  1  0  0  0  0
  4 17  1  0  0  0  0
  5  6  2  0  0  0  0
  5 18  1  0  0  0  0
  6  7  1  0  0  0  0
  6 19  1  0  0  0  0
  7  8  2  0  0  0  0
  8  9  1  0  0  0  0
  9 10  1  0  0  0  0
  9 20  1  0  0  0  0
 10 15  1  0  0  0  0
 10 11  1  0  0  0  0
 10 21  1  0  0  0  0
 11 12  1  0  0  0  0
 11 22  1  0  0  0  0
 11 23  1  0  0  0  0
 12 16  1  0  0  0  0
 12 13  1  0  0  0  0
 12 24  1  0  0  0  0
 13 14  1  0  0  0  0
 13 25  1  0  0  0  0
 13 26  1  0  0  0  0
 14 15  1  0  0  0  0
 14 27  1  0  0  0  0
 14 28  1  0  0  0  0
 15 16  1  0  0  0  0
 15 29  1  0  0  0  0
M  END
> <s_m_source_file>
AV-unprocessed.smi

> <i_m_source_file_index>
2924

> <i_lp_mmshare_version>
43012

> <i_f3d_flags>
0

> <s_epik_input>
TiNDYzFbY0hdW2NIXVtjSF1uYzFbTkhdW0NASF0oW0NIMl1bQ0BASF0yMylbQ0BASF0oTzMpW0NIMl1bQ0gyXTI=

> <s_epik_cmdline>
J2VwaWtfcHl0aG9uJywgJy1waCcsICc3LjAnLCAnLXRuJywgJzgnLCAnLW1hJywgJzIwMCcsICctbWV0YWxfYmluZGluZycsICctaW1hZScsICc8aW5maWxlLm1hZT4nLCAnLW9tYWUnLCAnPG91dGZpbGUubWFlPic=

> <r_lp_tautomer_probability>
1

> <r_epik_Ionization_Penalty>
2.11559e-05

> <r_epik_Ionization_Penalty_Charging>
0

> <r_epik_Ionization_Penalty_Neutral>
2.11559e-05

> <r_epik_State_Penalty>
-0

> <r_epik_Charging_Adjusted_Penalty>
0

> <i_epik_Tot_Q>
0

> <i_epik_Tot_abs_Q>
0

> <r_epik_Metal_State_Penalty>
-0

> <b_epik_Metal_Only>
0

> <s_lp_Force_Field>
OPLS_2005

> <r_lp_Energy>
42.1946

> <b_lp_Chiralities_Consistent>
1

> <s_lp_Variant>
AV-unprocessed.smi:2924-1

> <Gold.Version>
5.8.1

> <Gold.Id.Protein>
6NUR|6NUR_protein|mol2

> <Gold.PLP.Fitness>
41.8629

> <Gold.PLP.PLP>
-39.0902

> <Gold.PLP.part.hbond>
-1.0000

> <Gold.PLP.part.metal>
0.0000

> <Gold.PLP.part.buried>
-3.5414

> <Gold.PLP.part.nonpolar>
-36.1662

> <Gold.PLP.part.repulsive>
0.3627

> <Gold.PLP.ligand.clash>
0.0000

> <Gold.PLP.ligand.torsion>
0.1235

> <Gold.PLP.Chemscore.Hbond>
1.0000

> <Gold.PLP.Chemscore.CHOScore>
0.0000

> <Gold.PLP.Chemscore.Metal>
0.0000

> <Gold.Chemscore.Hbonds>
donor molecule, donor type, donor heavy atom, donor atom, acceptor molecule, acceptor atom, score
      P1  H  7997  8008       L1     1  1.00

> <Gold.PLP.Chemscore.Internal.Correction>
0.0198

> <Gold.Rescore>
     Score         DG    S(hbond)    S(metal)    S(lipo)     H(rot)  DE(clash)    DE(int)     intcor
     16.83     -17.04       0.95        0.00      93.45       1.00       0.00       0.21       ----

> <Gold.Chemscore.Fitness>
16.8252

> <Gold.Chemscore.DG>
-17.0378

> <Gold.Chemscore.ZeroCoef>
-5.4800

> <Gold.Chemscore.Hbond>
0.9532

> <Gold.Chemscore.Metal>
0.0000

> <Gold.Chemscore.Lipo>
93.4539

> <Gold.Chemscore.Internal_Hbond>
0.0000

> <Gold.Chemscore.DEClash>
0.0000

> <Gold.Chemscore.DEInternal>
0.2126

> <Gold.Chemscore.Rot>
1.0000

> <Gold.Chemscore.Internal.Correction>
   9.000000E+99

> <Gold.Chemscore.Hbonds>
donor molecule, donor type, donor heavy atom, donor atom, acceptor molecule, acceptor atom, score
      P1  H  7997  8008       L1     1  0.59

> <Gold.Chemscore.Hbond.Weighted>
-3.1837

> <Gold.Chemscore.Metal.Weighted>
-0.0000

> <Gold.Chemscore.Lipo.Weighted>
-10.9341

> <Gold.Chemscore.Internal_Hbond.Weighted>
0.0000

> <Gold.Chemscore.DEClash.Weighted>
0.0000

> <Gold.Chemscore.DEInternal.Weighted>
0.2126

> <Gold.Chemscore.Rot.Weighted>
2.5600

> <Gold.Chemscore.Internal.Correction.Weighted>
   9.000000E+99

> <Gold.Protein.RotatedTorsions>
[ 6907 6896 6895 6894 ] final   11.04 input  -60.11 | X-H torsion
[ 7974 7965 7964 7962 ] final  -62.15 input  175.53 | X-H torsion
[ 8008 7997 7996 7995 ] final  -35.35 input   59.86 | X-H torsion
[ 10167 10162 10161 10158 ] final -160.12 input  -65.29 | X-H torsion
[ 10718 10713 10712 10709 ] final   18.57 input   66.30 | X-H torsion
[ 10763 10752 10751 10750 ] final  106.19 input  -60.55 | X-H torsion
[ 11005 11000 10999 10996 ] final -136.06 input  -57.11 | X-H torsion

> <Gold.Protein.ActiveResidues>
 VAL166  LYS551  ARG553  GLY616  TRP617  ASP618  TYR619  PRO620  LYS621  CYS622 
 ASP623  PHE694  ASN695  SER759  ASP760  ASP761  ALA762  ILE779  LEU786  VAL792 
 PHE793  MET794  SER795  GLU796  ALA797  LYS798  CYS799  TRP800  GLU811  SER814 

> <Gold.Protein.RotatedAtoms>
  151.7480  135.0839  160.0325 H   0  0  0  0  0  0  0  0  0  0  0  0  # atno 6907 bound_to 6896
  152.3436  133.6091  159.5902 H   0  0  0  0  0  0  0  0  0  0  0  0  # atno 6908 bound_to 6896
  150.7494  133.9600  159.3554 H   0  0  0  0  0  0  0  0  0  0  0  0  # atno 6909 bound_to 6896
  145.7948  140.8689  143.0262 H   0  0  0  0  0  0  0  0  0  0  0  0  # atno 7974 bound_to 7965
  154.4097  140.1659  156.2198 H   0  0  0  0  0  0  0  0  0  0  0  0  # atno 8008 bound_to 7997
  155.9374  140.3410  155.6275 H   0  0  0  0  0  0  0  0  0  0  0  0  # atno 8009 bound_to 7997
  155.7032  140.0747  157.2392 H   0  0  0  0  0  0  0  0  0  0  0  0  # atno 8010 bound_to 7997
  139.6563  143.9993  152.2196 H   0  0  0  0  0  0  0  0  0  0  0  0  # atno 10167 bound_to 10162
  157.0982  130.6457  149.5866 H   0  0  0  0  0  0  0  0  0  0  0  0  # atno 10718 bound_to 10713
  153.3895  135.3885  155.1913 H   0  0  0  0  0  0  0  0  0  0  0  0  # atno 10763 bound_to 10752
  154.8717  135.3745  154.4755 H   0  0  0  0  0  0  0  0  0  0  0  0  # atno 10764 bound_to 10752
  153.5240  135.7086  153.5778 H   0  0  0  0  0  0  0  0  0  0  0  0  # atno 10765 bound_to 10752
  140.8840  134.1895  157.4572 H   0  0  0  0  0  0  0  0  0  0  0  0  # atno 11005 bound_to 11000
  144.6776  140.0175  143.7484 LP  0  0  0  0  0  0  0  0  0  0  0  0  # atno 17320 bound_to 7965
  145.9939  139.3036  143.0968 LP  0  0  0  0  0  0  0  0  0  0  0  0  # atno 17321 bound_to 7965
  139.9720  144.6487  150.7980 LP  0  0  0  0  0  0  0  0  0  0  0  0  # atno 17342 bound_to 10162
  140.7560  143.3058  151.2966 LP  0  0  0  0  0  0  0  0  0  0  0  0  # atno 17343 bound_to 10162
  155.9880  130.4922  150.7151 LP  0  0  0  0  0  0  0  0  0  0  0  0  # atno 17370 bound_to 10713
  157.4663  131.0888  151.0691 LP  0  0  0  0  0  0  0  0  0  0  0  0  # atno 17371 bound_to 10713
  139.8722  134.9830  156.5179 LP  0  0  0  0  0  0  0  0  0  0  0  0  # atno 17394 bound_to 11000
  140.8427  133.8193  155.9090 LP  0  0  0  0  0  0  0  0  0  0  0  0  # atno 17395 bound_to 11000

$$$$
