AV-unprocessed.smi:1658|AV-procd|sdf|6648|dock8
  -GOLD-   22720 7353D 1   1.00000     0.00000
 Structure written by MMmdl.
 46 47  0  0  0  0  0  0  0  0  1 V2000
  153.1741  142.8942  162.8470 C   0  0  0  0  0  0  0  0  0  0  0  0
  153.5053  142.1355  161.6891 O   0  0  0  0  0  0  0  0  0  0  0  0
  152.7140  142.2728  160.5671 C   0  0  0  0  0  0  0  0  0  0  0  0
  152.0776  143.5093  160.3389 C   0  0  0  0  0  0  0  0  0  0  0  0
  151.2650  143.6569  159.1985 C   0  0  0  0  0  0  0  0  0  0  0  0
  151.1085  142.5558  158.3240 C   0  0  0  0  0  0  0  0  0  0  0  0
  150.3333  142.5901  157.1343 N   0  0  0  0  0  0  0  0  0  0  0  0
  150.0926  141.5886  156.2713 C   0  0  0  0  0  0  0  0  0  0  0  0
  150.5555  140.4515  156.3581 O   0  0  0  0  0  0  0  0  0  0  0  0
  149.2957  141.9945  155.2735 N   0  0  0  0  0  0  0  0  0  0  0  0
  148.8736  141.1866  154.1294 C   0  0  0  0  0  0  0  0  0  0  0  0
  147.3899  140.7300  154.2434 C   0  0  0  0  0  0  0  0  0  0  0  0
  146.9710  140.2527  152.8295 C   0  0  0  0  0  0  0  0  0  0  0  0
  147.3629  139.4914  155.1715 C   0  0  0  0  0  0  0  0  0  0  0  0
  146.5092  141.8345  154.7193 N   0  0  0  0  0  0  0  0  0  0  0  0
  146.2435  142.8841  153.7283 C   0  0  0  0  0  0  0  0  0  0  0  0
  145.4280  144.0468  154.3198 C   0  0  0  0  0  0  0  0  0  0  0  0
  144.2102  143.5519  154.8628 O   0  0  0  0  0  0  0  0  0  0  0  0
  144.4253  142.5743  155.8729 C   0  0  0  0  0  0  0  0  0  0  0  0
  145.2305  141.3992  155.2938 C   0  0  0  0  0  0  0  0  0  0  0  0
  151.8020  141.3674  158.6324 C   0  0  0  0  0  0  0  0  0  0  0  0
  152.5809  141.2186  159.7245 N   0  0  0  0  0  0  0  0  0  0  0  0
  153.8943  142.6803  163.6364 H   0  0  0  0  0  0  0  0  0  0  0  0
  152.1835  142.6352  163.2238 H   0  0  0  0  0  0  0  0  0  0  0  0
  153.2126  143.9659  162.6465 H   0  0  0  0  0  0  0  0  0  0  0  0
  152.2136  144.3321  161.0250 H   0  0  0  0  0  0  0  0  0  0  0  0
  150.7929  144.6087  159.0098 H   0  0  0  0  0  0  0  0  0  0  0  0
  149.9698  143.4964  156.8779 H   0  0  0  0  0  0  0  0  0  0  0  0
  148.9766  142.9521  155.2845 H   0  0  0  0  0  0  0  0  0  0  0  0
  149.0237  141.7297  153.1945 H   0  0  0  0  0  0  0  0  0  0  0  0
  149.5451  140.3319  154.0552 H   0  0  0  0  0  0  0  0  0  0  0  0
  147.7120  139.5775  152.3995 H   0  0  0  0  0  0  0  0  0  0  0  0
  146.8559  141.0891  152.1390 H   0  0  0  0  0  0  0  0  0  0  0  0
  146.0300  139.7029  152.8406 H   0  0  0  0  0  0  0  0  0  0  0  0
  148.0045  138.6992  154.7839 H   0  0  0  0  0  0  0  0  0  0  0  0
  146.3638  139.0664  155.2648 H   0  0  0  0  0  0  0  0  0  0  0  0
  147.7211  139.7209  156.1749 H   0  0  0  0  0  0  0  0  0  0  0  0
  147.1728  143.2971  153.3403 H   0  0  0  0  0  0  0  0  0  0  0  0
  145.6995  142.4719  152.8785 H   0  0  0  0  0  0  0  0  0  0  0  0
  145.9971  144.5638  155.0942 H   0  0  0  0  0  0  0  0  0  0  0  0
  145.2001  144.7808  153.5468 H   0  0  0  0  0  0  0  0  0  0  0  0
  144.9496  143.0222  156.7187 H   0  0  0  0  0  0  0  0  0  0  0  0
  143.4608  142.2259  156.2423 H   0  0  0  0  0  0  0  0  0  0  0  0
  144.6266  140.9011  154.5353 H   0  0  0  0  0  0  0  0  0  0  0  0
  145.3875  140.6804  156.0956 H   0  0  0  0  0  0  0  0  0  0  0  0
  151.7255  140.5046  157.9865 H   0  0  0  0  0  0  0  0  0  0  0  0
  1  2  1  0  0  0  0
  1 23  1  0  0  0  0
  1 24  1  0  0  0  0
  1 25  1  0  0  0  0
  2  3  1  0  0  0  0
  3 22  1  0  0  0  0
  3  4  2  0  0  0  0
  4  5  1  0  0  0  0
  4 26  1  0  0  0  0
  5  6  2  0  0  0  0
  5 27  1  0  0  0  0
  6  7  1  0  0  0  0
  6 21  1  0  0  0  0
  7  8  1  0  0  0  0
  7 28  1  0  0  0  0
  8  9  2  0  0  0  0
  8 10  1  0  0  0  0
 10 11  1  0  0  0  0
 10 29  1  0  0  0  0
 11 12  1  0  0  0  0
 11 30  1  0  0  0  0
 11 31  1  0  0  0  0
 12 13  1  0  0  0  0
 12 14  1  0  0  0  0
 12 15  1  0  0  0  0
 13 32  1  0  0  0  0
 13 33  1  0  0  0  0
 13 34  1  0  0  0  0
 14 35  1  0  0  0  0
 14 36  1  0  0  0  0
 14 37  1  0  0  0  0
 15 20  1  0  0  0  0
 15 16  1  0  0  0  0
 16 17  1  0  0  0  0
 16 38  1  0  0  0  0
 16 39  1  0  0  0  0
 17 18  1  0  0  0  0
 17 40  1  0  0  0  0
 17 41  1  0  0  0  0
 18 19  1  0  0  0  0
 19 20  1  0  0  0  0
 19 42  1  0  0  0  0
 19 43  1  0  0  0  0
 20 44  1  0  0  0  0
 20 45  1  0  0  0  0
 21 22  2  0  0  0  0
 21 46  1  0  0  0  0
M  END
> <s_m_source_file>
AV-unprocessed.smi

> <i_m_source_file_index>
1658

> <i_lp_mmshare_version>
43012

> <i_f3d_flags>
0

> <s_epik_input>
W0NIM11PYzFbY0hdW2NIXWMoW2NIXW4xKVtOSF1DKD1PKVtOSF1bQ0gyXUMoW0NIM10pKFtDSDNdKU4yW0NIMl1bQ0gyXU9bQ0gyXVtDSDJdMg==

> <s_epik_cmdline>
J2VwaWtfcHl0aG9uJywgJy1waCcsICc3LjAnLCAnLXRuJywgJzgnLCAnLW1hJywgJzIwMCcsICctbWV0YWxfYmluZGluZycsICctaW1hZScsICc8aW5maWxlLm1hZT4nLCAnLW9tYWUnLCAnPG91dGZpbGUubWFlPic=

> <r_lp_tautomer_probability>
1

> <r_epik_Ionization_Penalty>
0.266086

> <r_epik_Ionization_Penalty_Charging>
0

> <r_epik_Ionization_Penalty_Neutral>
0.266086

> <r_epik_State_Penalty>
0.257924

> <r_epik_Charging_Adjusted_Penalty>
0.257924

> <i_epik_Tot_Q>
0

> <i_epik_Tot_abs_Q>
0

> <r_epik_Metal_State_Penalty>
0.257921

> <b_epik_Metal_Only>
0

> <s_lp_Force_Field>
OPLS_2005

> <r_lp_Energy>
44.8547

> <b_lp_Chiralities_Consistent>
1

> <s_lp_Variant>
AV-unprocessed.smi:1658-1

> <Gold.Version>
5.8.1

> <Gold.Id.Protein>
6NUR|6NUR_protein|mol2

> <Gold.PLP.Fitness>
44.1325

> <Gold.PLP.PLP>
-40.3981

> <Gold.PLP.part.hbond>
-2.0051

> <Gold.PLP.part.metal>
0.0000

> <Gold.PLP.part.buried>
-5.9081

> <Gold.PLP.part.nonpolar>
-32.0215

> <Gold.PLP.part.repulsive>
0.5239

> <Gold.PLP.ligand.clash>
0.0000

> <Gold.PLP.ligand.torsion>
1.1589

> <Gold.PLP.Chemscore.Hbond>
2.0000

> <Gold.PLP.Chemscore.CHOScore>
0.0000

> <Gold.PLP.Chemscore.Metal>
0.0000

> <Gold.Chemscore.Hbonds>
donor molecule, donor type, donor heavy atom, donor atom, acceptor molecule, acceptor atom, score
      L1  H     7    28       P1  8028  1.00
      L1  H    10    29       P1  8028  1.00

> <Gold.PLP.Chemscore.Internal.Correction>
0.0521

> <Gold.Rescore>
     Score         DG    S(hbond)    S(metal)    S(lipo)     H(rot)  DE(clash)    DE(int)     intcor
     15.45     -18.19       1.94        0.00      90.47       1.70       0.35       2.39       ----

> <Gold.Chemscore.Fitness>
15.4485

> <Gold.Chemscore.DG>
-18.1944

> <Gold.Chemscore.ZeroCoef>
-5.4800

> <Gold.Chemscore.Hbond>
1.9424

> <Gold.Chemscore.Metal>
0.0000

> <Gold.Chemscore.Lipo>
90.4702

> <Gold.Chemscore.Internal_Hbond>
0.0000

> <Gold.Chemscore.DEClash>
0.3528

> <Gold.Chemscore.DEInternal>
2.3931

> <Gold.Chemscore.Rot>
1.7024

> <Gold.Chemscore.Internal.Correction>
   9.000000E+99

> <Gold.Chemscore.Hbonds>
donor molecule, donor type, donor heavy atom, donor atom, acceptor molecule, acceptor atom, score
      L1  H     7    28       P1  8028  0.90
      L1  H    10    29       P1  8028  1.00

> <Gold.Chemscore.Hbond.Weighted>
-6.4877

> <Gold.Chemscore.Metal.Weighted>
-0.0000

> <Gold.Chemscore.Lipo.Weighted>
-10.5850

> <Gold.Chemscore.Internal_Hbond.Weighted>
0.0000

> <Gold.Chemscore.DEClash.Weighted>
0.3528

> <Gold.Chemscore.DEInternal.Weighted>
2.3931

> <Gold.Chemscore.Rot.Weighted>
4.3583

> <Gold.Chemscore.Internal.Correction.Weighted>
   9.000000E+99

> <Gold.Protein.RotatedTorsions>
[ 6907 6896 6895 6894 ] final -107.79 input  -60.11 | X-H torsion
[ 7974 7965 7964 7962 ] final -159.87 input  175.53 | X-H torsion
[ 8008 7997 7996 7995 ] final   94.23 input   59.86 | X-H torsion
[ 10167 10162 10161 10158 ] final  -22.71 input  -65.29 | X-H torsion
[ 10718 10713 10712 10709 ] final -157.57 input   66.30 | X-H torsion
[ 10763 10752 10751 10750 ] final -118.05 input  -60.55 | X-H torsion
[ 11005 11000 10999 10996 ] final  150.85 input  -57.11 | X-H torsion

> <Gold.Protein.ActiveResidues>
 VAL166  LYS551  ARG553  GLY616  TRP617  ASP618  TYR619  PRO620  LYS621  CYS622 
 ASP623  PHE694  ASN695  SER759  ASP760  ASP761  ALA762  ILE779  LEU786  VAL792 
 PHE793  MET794  SER795  GLU796  ALA797  LYS798  CYS799  TRP800  GLU811  SER814 

> <Gold.Protein.RotatedAtoms>
  150.7464  133.9774  159.3564 H   0  0  0  0  0  0  0  0  0  0  0  0  # atno 6907 bound_to 6896
  151.7712  135.0784  160.0369 H   0  0  0  0  0  0  0  0  0  0  0  0  # atno 6908 bound_to 6896
  152.3338  133.5951  159.5864 H   0  0  0  0  0  0  0  0  0  0  0  0  # atno 6909 bound_to 6896
  144.7448  140.3623  143.6093 H   0  0  0  0  0  0  0  0  0  0  0  0  # atno 7974 bound_to 7965
  156.0556  140.3302  155.7401 H   0  0  0  0  0  0  0  0  0  0  0  0  # atno 8008 bound_to 7997
  155.5534  140.0612  157.2862 H   0  0  0  0  0  0  0  0  0  0  0  0  # atno 8009 bound_to 7997
  154.4456  140.1890  156.0698 H   0  0  0  0  0  0  0  0  0  0  0  0  # atno 8010 bound_to 7997
  140.7286  143.4510  151.0517 H   0  0  0  0  0  0  0  0  0  0  0  0  # atno 10167 bound_to 10162
  156.5422  130.8568  151.2752 H   0  0  0  0  0  0  0  0  0  0  0  0  # atno 10718 bound_to 10713
  154.8575  135.4288  154.2077 H   0  0  0  0  0  0  0  0  0  0  0  0  # atno 10763 bound_to 10752
  153.3109  135.6975  153.7122 H   0  0  0  0  0  0  0  0  0  0  0  0  # atno 10764 bound_to 10752
  153.6215  135.3501  155.2986 H   0  0  0  0  0  0  0  0  0  0  0  0  # atno 10765 bound_to 10752
  140.1167  134.8889  157.2014 H   0  0  0  0  0  0  0  0  0  0  0  0  # atno 11005 bound_to 11000
  145.7164  139.1698  143.2509 LP  0  0  0  0  0  0  0  0  0  0  0  0  # atno 17320 bound_to 7965
  146.1309  140.7187  142.9412 LP  0  0  0  0  0  0  0  0  0  0  0  0  # atno 17321 bound_to 7965
  139.8186  143.7851  152.3175 LP  0  0  0  0  0  0  0  0  0  0  0  0  # atno 17342 bound_to 10162
  139.7926  144.7404  150.9934 LP  0  0  0  0  0  0  0  0  0  0  0  0  # atno 17343 bound_to 10162
  157.7403  130.9848  150.2370 LP  0  0  0  0  0  0  0  0  0  0  0  0  # atno 17370 bound_to 10713
  156.2961  130.3752  149.7795 LP  0  0  0  0  0  0  0  0  0  0  0  0  # atno 17371 bound_to 10713
  140.3018  134.3122  155.7288 LP  0  0  0  0  0  0  0  0  0  0  0  0  # atno 17394 bound_to 11000
  141.2143  133.7597  156.9652 LP  0  0  0  0  0  0  0  0  0  0  0  0  # atno 17395 bound_to 11000

$$$$
