AV-unprocessed.smi:72|AV-procd|sdf|672|dock2
  -GOLD-   2262016573D 1   1.00000     0.00000
 Structure written by MMmdl.
 29 30  0  0  0  0  0  0  0  0  1 V2000
  152.7785  136.6054  159.4917 N   0  0  0  0  0  0  0  0  0  0  0  0
  152.3414  137.5931  158.7948 C   0  0  0  0  0  0  0  0  0  0  0  0
  151.3427  138.4912  159.1976 N   0  0  0  0  0  0  0  0  0  0  0  0
  151.0238  139.4650  158.4024 C   0  0  0  0  0  0  0  0  0  0  0  0
  151.6975  139.6887  157.1277 N   0  0  0  0  0  0  0  0  0  0  0  0
  151.2962  140.7984  156.1629 C   0  0  1  0  0  0  0  0  0  0  0  0
  150.6680  140.2189  155.0639 O   0  0  0  0  0  0  0  0  0  0  0  0
  149.2661  140.2281  155.2857 C   0  0  2  0  0  0  0  0  0  0  0  0
  148.5038  140.0562  153.9592 C   0  0  0  0  0  0  0  0  0  0  0  0
  148.8862  138.8818  153.2725 O   0  0  0  0  0  0  0  0  0  0  0  0
  148.9829  141.5104  156.0915 C   0  0  1  0  0  0  0  0  0  0  0  0
  148.0039  141.2512  157.0780 O   0  0  0  0  0  0  0  0  0  0  0  0
  150.3279  141.8515  156.7462 C   0  0  2  0  0  0  0  0  0  0  0  0
  150.7279  143.1582  156.3851 O   0  0  0  0  0  0  0  0  0  0  0  0
  152.6424  138.7330  156.6724 C   0  0  0  0  0  0  0  0  0  0  0  0
  153.1755  138.8008  155.5650 O   0  0  0  0  0  0  0  0  0  0  0  0
  152.9368  137.7371  157.5360 N   0  0  0  0  0  0  0  0  0  0  0  0
  152.2363  141.2603  155.8574 H   0  0  0  0  0  0  0  0  0  0  0  0
  149.0559  139.3539  155.9045 H   0  0  0  0  0  0  0  0  0  0  0  0
  148.6414  142.3262  155.4535 H   0  0  0  0  0  0  0  0  0  0  0  0
  150.3107  141.8207  157.8353 H   0  0  0  0  0  0  0  0  0  0  0  0
  153.4922  136.1014  158.9858 H   0  0  0  0  0  0  0  0  0  0  0  0
  150.2261  140.1665  158.6416 H   0  0  0  0  0  0  0  0  0  0  0  0
  147.4281  140.0409  154.1357 H   0  0  0  0  0  0  0  0  0  0  0  0
  148.7077  140.9059  153.3071 H   0  0  0  0  0  0  0  0  0  0  0  0
  149.4142  139.1268  152.5279 H   0  0  0  0  0  0  0  0  0  0  0  0
  147.8285  140.3226  157.0866 H   0  0  0  0  0  0  0  0  0  0  0  0
  149.9602  143.6501  156.1368 H   0  0  0  0  0  0  0  0  0  0  0  0
  153.6211  137.0555  157.2429 H   0  0  0  0  0  0  0  0  0  0  0  0
  1  2  2  0  0  0  0
  1 22  1  0  0  0  0
  2 17  1  0  0  0  0
  2  3  1  0  0  0  0
  3  4  2  0  0  0  0
  4  5  1  0  0  0  0
  4 23  1  0  0  0  0
  5  6  1  0  0  0  0
  5 15  1  0  0  0  0
  6 18  1  0  0  0  0
  6 13  1  0  0  0  0
  6  7  1  0  0  0  0
  7  8  1  0  0  0  0
  8 19  1  0  0  0  0
  8  9  1  0  0  0  0
  8 11  1  0  0  0  0
  9 10  1  0  0  0  0
  9 24  1  0  0  0  0
  9 25  1  0  0  0  0
 10 26  1  0  0  0  0
 11 20  1  0  0  0  0
 11 12  1  0  0  0  0
 11 13  1  0  0  0  0
 12 27  1  0  0  0  0
 13 21  1  0  0  0  0
 13 14  1  0  0  0  0
 14 28  1  0  0  0  0
 15 16  2  0  0  0  0
 15 17  1  0  0  0  0
 17 29  1  0  0  0  0
M  END
> <s_m_source_file>
AV-unprocessed.smi

> <i_m_source_file_index>
72

> <i_lp_mmshare_version>
43012

> <i_f3d_flags>
0

> <s_epik_input>
W05IMl1jMW5bY0hdbihjKD1PKW4xKVtDQEBIXTJPW0NASF0oW0NIMl1bT0hdKVtDQEBIXShbT0hdKVtDQEhdMltPSF0=

> <s_epik_cmdline>
J2VwaWtfcHl0aG9uJywgJy1waCcsICc3LjAnLCAnLXRuJywgJzgnLCAnLW1hJywgJzIwMCcsICctbWV0YWxfYmluZGluZycsICctaW1hZScsICc8aW5maWxlLm1hZT4nLCAnLW9tYWUnLCAnPG91dGZpbGUubWFlPic=

> <r_lp_tautomer_probability>
7.17554e-07

> <r_epik_Ionization_Penalty>
0.0066451

> <r_epik_Ionization_Penalty_Charging>
0.00663793

> <r_epik_Ionization_Penalty_Neutral>
7.17052e-06

> <r_epik_State_Penalty>
0.419231

> <r_epik_Charging_Adjusted_Penalty>
0.425868

> <i_epik_Tot_Q>
0

> <i_epik_Tot_abs_Q>
0

> <r_epik_Metal_State_Penalty>
1.44144

> <b_epik_Metal_Only>
0

> <s_epik_Chemistry_Notes>
This compound contains an acetal/aminal-like group ( X-CH(R)-Y where X, Y are N, S, or O) that may be acid/base labile, releasing an aldehyde.

> <s_lp_Force_Field>
OPLS_2005

> <r_lp_Energy>
39.4446

> <b_lp_Chiralities_Consistent>
1

> <s_lp_Variant>
AV-unprocessed.smi:72-10

> <Gold.Version>
5.8.1

> <Gold.Id.Protein>
6NUR|6NUR_protein|mol2

> <Gold.PLP.Fitness>
37.5006

> <Gold.PLP.PLP>
-22.7427

> <Gold.PLP.part.hbond>
-5.6020

> <Gold.PLP.part.metal>
0.0000

> <Gold.PLP.part.buried>
-3.3426

> <Gold.PLP.part.nonpolar>
-13.8702

> <Gold.PLP.part.repulsive>
0.1936

> <Gold.PLP.ligand.clash>
0.0000

> <Gold.PLP.ligand.torsion>
0.1483

> <Gold.PLP.Chemscore.Hbond>
4.9920

> <Gold.PLP.Chemscore.CHOScore>
0.0000

> <Gold.PLP.Chemscore.Metal>
0.0000

> <Gold.Chemscore.Hbonds>
donor molecule, donor type, donor heavy atom, donor atom, acceptor molecule, acceptor atom, score
      L1  H    10    26       P1  7957  0.99
      L1  H    14    28       P1  8028  1.00
      P1  H  6896  6909       L1     1  0.55
      P1  H  7989  7998       L1     7  1.00
      P1  H  7997  8009       L1    16  0.93

> <Gold.PLP.Chemscore.Internal.Correction>
0.0784

> <Gold.Rescore>
     Score         DG    S(hbond)    S(metal)    S(lipo)     H(rot)  DE(clash)    DE(int)     intcor
     10.99     -12.09       4.26        0.00      23.68       4.06       0.57       0.52       ----

> <Gold.Chemscore.Fitness>
10.9936

> <Gold.Chemscore.DG>
-12.0866

> <Gold.Chemscore.ZeroCoef>
-5.4800

> <Gold.Chemscore.Hbond>
4.2604

> <Gold.Chemscore.Metal>
0.0000

> <Gold.Chemscore.Lipo>
23.6782

> <Gold.Chemscore.Internal_Hbond>
0.0000

> <Gold.Chemscore.DEClash>
0.5734

> <Gold.Chemscore.DEInternal>
0.5196

> <Gold.Chemscore.Rot>
4.0600

> <Gold.Chemscore.Internal.Correction>
   9.000000E+99

> <Gold.Chemscore.Hbonds>
donor molecule, donor type, donor heavy atom, donor atom, acceptor molecule, acceptor atom, score
      L1  H    10    26       P1  7957  0.92
      L1  H    14    28       P1  8028  0.98
      P1  H  6896  6909       L1     1  0.03
      P1  H  7989  7998       L1     7  0.54
      P1  H  7997  8009       L1    16  0.27

> <Gold.Chemscore.Hbond.Weighted>
-14.2299

> <Gold.Chemscore.Metal.Weighted>
-0.0000

> <Gold.Chemscore.Lipo.Weighted>
-2.7703

> <Gold.Chemscore.Internal_Hbond.Weighted>
0.0000

> <Gold.Chemscore.DEClash.Weighted>
0.5734

> <Gold.Chemscore.DEInternal.Weighted>
0.5196

> <Gold.Chemscore.Rot.Weighted>
10.3936

> <Gold.Chemscore.Internal.Correction.Weighted>
   9.000000E+99

> <Gold.Protein.RotatedTorsions>
[ 6907 6896 6895 6894 ] final  146.30 input  -60.11 | X-H torsion
[ 7974 7965 7964 7962 ] final -117.27 input  175.53 | X-H torsion
[ 8008 7997 7996 7995 ] final -132.22 input   59.86 | X-H torsion
[ 10167 10162 10161 10158 ] final  170.94 input  -65.29 | X-H torsion
[ 10718 10713 10712 10709 ] final  112.17 input   66.30 | X-H torsion
[ 10763 10752 10751 10750 ] final    9.54 input  -60.55 | X-H torsion
[ 11005 11000 10999 10996 ] final  -69.67 input  -57.11 | X-H torsion

> <Gold.Protein.ActiveResidues>
 VAL166  LYS551  ARG553  GLY616  TRP617  ASP618  TYR619  PRO620  LYS621  CYS622 
 ASP623  PHE694  ASN695  SER759  ASP760  ASP761  ALA762  ILE779  LEU786  VAL792 
 PHE793  MET794  SER795  GLU796  ALA797  LYS798  CYS799  TRP800  GLU811  SER814 

> <Gold.Protein.RotatedAtoms>
  152.1697  133.4636  159.4902 H   0  0  0  0  0  0  0  0  0  0  0  0  # atno 6907 bound_to 6896
  150.6918  134.1968  159.4315 H   0  0  0  0  0  0  0  0  0  0  0  0  # atno 6908 bound_to 6896
  151.9874  134.9996  160.0610 H   0  0  0  0  0  0  0  0  0  0  0  0  # atno 6909 bound_to 6896
  145.0872  140.8465  143.4004 H   0  0  0  0  0  0  0  0  0  0  0  0  # atno 7974 bound_to 7965
  155.3254  140.0464  157.3041 H   0  0  0  0  0  0  0  0  0  0  0  0  # atno 8008 bound_to 7997
  154.5357  140.2271  155.8692 H   0  0  0  0  0  0  0  0  0  0  0  0  # atno 8009 bound_to 7997
  156.1833  140.3068  155.9196 H   0  0  0  0  0  0  0  0  0  0  0  0  # atno 8010 bound_to 7997
  139.5032  144.3541  151.9893 H   0  0  0  0  0  0  0  0  0  0  0  0  # atno 10167 bound_to 10162
  157.6407  131.0963  150.6856 H   0  0  0  0  0  0  0  0  0  0  0  0  # atno 10718 bound_to 10713
  153.2129  135.6871  153.8091 H   0  0  0  0  0  0  0  0  0  0  0  0  # atno 10763 bound_to 10752
  153.7318  135.3251  155.3288 H   0  0  0  0  0  0  0  0  0  0  0  0  # atno 10764 bound_to 10752
  154.8231  135.4637  154.0945 H   0  0  0  0  0  0  0  0  0  0  0  0  # atno 10765 bound_to 10752
  141.1559  133.6770  156.6635 H   0  0  0  0  0  0  0  0  0  0  0  0  # atno 11005 bound_to 11000
  145.1109  139.2758  143.5638 LP  0  0  0  0  0  0  0  0  0  0  0  0  # atno 17320 bound_to 7965
  146.3531  140.0704  142.8623 LP  0  0  0  0  0  0  0  0  0  0  0  0  # atno 17321 bound_to 7965
  140.2977  144.3682  150.6069 LP  0  0  0  0  0  0  0  0  0  0  0  0  # atno 17342 bound_to 10162
  140.5897  143.2168  151.7275 LP  0  0  0  0  0  0  0  0  0  0  0  0  # atno 17343 bound_to 10162
  156.7180  130.4672  149.5530 LP  0  0  0  0  0  0  0  0  0  0  0  0  # atno 17370 bound_to 10713
  156.1684  130.6421  151.0807 LP  0  0  0  0  0  0  0  0  0  0  0  0  # atno 17371 bound_to 10713
  140.3229  134.7993  157.4266 LP  0  0  0  0  0  0  0  0  0  0  0  0  # atno 17394 bound_to 11000
  140.1082  134.5381  155.8290 LP  0  0  0  0  0  0  0  0  0  0  0  0  # atno 17395 bound_to 11000

$$$$
