AV-unprocessed.smi:3172|AV-procd|sdf|12116|dock2
  -GOLD-   2272017553D 1   1.00000     0.00000
 Structure written by MMmdl.
 43 44  0  0  0  0  0  0  0  0  2 V2000
  145.0416  139.0003  155.0575 C   0  0  0  0  0  0  0  0  0  0  0  0
  146.1773  139.9761  155.0646 C   0  0  0  0  0  0  0  0  0  0  0  0
  145.9809  141.3126  155.4027 N   0  0  0  0  0  0  0  0  0  0  0  0
  147.1895  141.8461  155.2988 C   0  0  0  0  0  0  0  0  0  0  0  0
  148.1465  140.9877  154.9188 N   0  0  0  0  0  0  0  0  0  0  0  0
  149.5532  141.2947  154.7190 C   0  0  0  0  0  0  0  0  0  0  0  0
  150.3276  141.4704  156.0413 C   0  0  1  0  0  0  0  0  0  0  0  0
  151.5751  140.5747  156.1306 C   0  0  0  0  0  0  0  0  0  0  0  0
  150.7138  142.8907  156.2002 N   0  3  0  0  0  0  0  0  0  0  0  0
  151.5674  143.2047  157.3683 C   0  0  0  0  0  0  0  0  0  0  0  0
  151.1756  142.3029  158.5544 C   0  0  0  0  0  0  0  0  0  0  0  0
  152.0208  142.6083  159.8014 C   0  0  0  0  0  0  0  0  0  0  0  0
  151.9188  144.0907  160.1916 C   0  0  0  0  0  0  0  0  0  0  0  0
  152.3087  145.0001  159.0161 C   0  0  0  0  0  0  0  0  0  0  0  0
  151.4649  144.6930  157.7680 C   0  0  0  0  0  0  0  0  0  0  0  0
  147.5067  139.7582  154.7702 C   0  0  0  0  0  0  0  0  0  0  0  0
  148.2064  138.5005  154.3647 C   0  0  0  0  0  0  0  0  0  0  0  0
  145.1940  138.2165  155.7997 H   0  0  0  0  0  0  0  0  0  0  0  0
  144.9429  138.5202  154.0835 H   0  0  0  0  0  0  0  0  0  0  0  0
  144.0916  139.4866  155.2825 H   0  0  0  0  0  0  0  0  0  0  0  0
  147.3822  142.8903  155.4980 H   0  0  0  0  0  0  0  0  0  0  0  0
  149.9987  140.4936  154.1268 H   0  0  0  0  0  0  0  0  0  0  0  0
  149.6252  142.1987  154.1132 H   0  0  0  0  0  0  0  0  0  0  0  0
  149.6598  141.1902  156.8563 H   0  0  0  0  0  0  0  0  0  0  0  0
  151.3112  139.5172  156.1037 H   0  0  0  0  0  0  0  0  0  0  0  0
  152.1192  140.7447  157.0600 H   0  0  0  0  0  0  0  0  0  0  0  0
  152.2614  140.7677  155.3055 H   0  0  0  0  0  0  0  0  0  0  0  0
  151.1769  143.2034  155.3587 H   0  0  0  0  0  0  0  0  0  0  0  0
  152.6012  142.9762  157.1029 H   0  0  0  0  0  0  0  0  0  0  0  0
  150.1196  142.4405  158.7920 H   0  0  0  0  0  0  0  0  0  0  0  0
  151.2963  141.2538  158.2815 H   0  0  0  0  0  0  0  0  0  0  0  0
  151.6967  141.9820  160.6329 H   0  0  0  0  0  0  0  0  0  0  0  0
  153.0635  142.3515  159.6094 H   0  0  0  0  0  0  0  0  0  0  0  0
  150.8994  144.3170  160.5071 H   0  0  0  0  0  0  0  0  0  0  0  0
  152.5607  144.2946  161.0490 H   0  0  0  0  0  0  0  0  0  0  0  0
  152.1869  146.0459  159.2995 H   0  0  0  0  0  0  0  0  0  0  0  0
  153.3660  144.8643  158.7847 H   0  0  0  0  0  0  0  0  0  0  0  0
  151.7957  145.3340  156.9506 H   0  0  0  0  0  0  0  0  0  0  0  0
  150.4233  144.9532  157.9622 H   0  0  0  0  0  0  0  0  0  0  0  0
  147.5574  137.6339  154.4912 H   0  0  0  0  0  0  0  0  0  0  0  0
  149.0987  138.3346  154.9684 H   0  0  0  0  0  0  0  0  0  0  0  0
  148.5045  138.5409  153.3172 H   0  0  0  0  0  0  0  0  0  0  0  0
  149.8601  143.4201  156.3048 H   0  0  0  0  0  0  0  0  0  0  0  0
  1  2  1  0  0  0  0
  1 18  1  0  0  0  0
  1 19  1  0  0  0  0
  1 20  1  0  0  0  0
  2 16  2  0  0  0  0
  2  3  1  0  0  0  0
  3  4  2  0  0  0  0
  4  5  1  0  0  0  0
  4 21  1  0  0  0  0
  5  6  1  0  0  0  0
  5 16  1  0  0  0  0
  6  7  1  0  0  0  0
  6 22  1  0  0  0  0
  6 23  1  0  0  0  0
  7  8  1  0  0  0  0
  7  9  1  0  0  0  0
  7 24  1  0  0  0  0
  8 25  1  0  0  0  0
  8 26  1  0  0  0  0
  8 27  1  0  0  0  0
  9 10  1  0  0  0  0
  9 28  1  0  0  0  0
  9 43  1  0  0  0  0
 10 15  1  0  0  0  0
 10 11  1  0  0  0  0
 10 29  1  0  0  0  0
 11 12  1  0  0  0  0
 11 30  1  0  0  0  0
 11 31  1  0  0  0  0
 12 13  1  0  0  0  0
 12 32  1  0  0  0  0
 12 33  1  0  0  0  0
 13 14  1  0  0  0  0
 13 34  1  0  0  0  0
 13 35  1  0  0  0  0
 14 15  1  0  0  0  0
 14 36  1  0  0  0  0
 14 37  1  0  0  0  0
 15 38  1  0  0  0  0
 15 39  1  0  0  0  0
 16 17  1  0  0  0  0
 17 40  1  0  0  0  0
 17 41  1  0  0  0  0
 17 42  1  0  0  0  0
M  CHG  1   9   1
M  END
> <s_m_source_file>
AV-unprocessed.smi

> <i_m_source_file_index>
3172

> <i_lp_mmshare_version>
43012

> <i_f3d_flags>
0

> <s_epik_input>
W0NIM11jMW5bY0hdbihjMVtDSDNdKVtDSDJdW0NASF0oW0NIM10pW05IXVtDSF0yW0NIMl1bQ0gyXVtDSDJdW0NIMl1bQ0gyXTI=

> <s_epik_cmdline>
J2VwaWtfcHl0aG9uJywgJy1waCcsICc3LjAnLCAnLXRuJywgJzgnLCAnLW1hJywgJzIwMCcsICctbWV0YWxfYmluZGluZycsICctaW1hZScsICc8aW5maWxlLm1hZT4nLCAnLW9tYWUnLCAnPG91dGZpbGUubWFlPic=

> <r_lp_tautomer_probability>
1

> <r_epik_Ionization_Penalty>
0.328572

> <r_epik_Ionization_Penalty_Charging>
0.328572

> <r_epik_Ionization_Penalty_Neutral>
3.58496e-13

> <r_epik_State_Penalty>
0.596179

> <r_epik_Charging_Adjusted_Penalty>
0.924751

> <i_epik_Tot_Q>
1

> <i_epik_Tot_abs_Q>
1

> <r_epik_Metal_State_Penalty>
0.00102252

> <b_epik_Metal_Only>
0

> <s_lp_Force_Field>
OPLS_2005

> <r_lp_Energy>
17.121

> <b_lp_Chiralities_Consistent>
1

> <s_lp_Variant>
AV-unprocessed.smi:3172-4

> <Gold.Version>
5.8.1

> <Gold.Id.Protein>
6NUR|6NUR_protein|mol2

> <Gold.PLP.Fitness>
39.3721

> <Gold.PLP.PLP>
-33.3615

> <Gold.PLP.part.hbond>
-1.0000

> <Gold.PLP.part.metal>
0.0000

> <Gold.PLP.part.buried>
-3.0532

> <Gold.PLP.part.nonpolar>
-29.0032

> <Gold.PLP.part.repulsive>
0.2126

> <Gold.PLP.ligand.clash>
0.0000

> <Gold.PLP.ligand.torsion>
1.1940

> <Gold.PLP.Chemscore.Hbond>
1.7920

> <Gold.PLP.Chemscore.CHOScore>
0.9942

> <Gold.PLP.Chemscore.Metal>
0.0000

> <Gold.Chemscore.Hbonds>
donor molecule, donor type, donor heavy atom, donor atom, acceptor molecule, acceptor atom, score
      L1  H     9    43       P1  8028  1.79
      L1  C     4    21       P1  8028  1.00

> <Gold.PLP.Chemscore.Internal.Correction>
0.0398

> <Gold.Rescore>
     Score         DG    S(hbond)    S(metal)    S(lipo)     H(rot)  DE(clash)    DE(int)     intcor
     15.46     -16.62       0.88        0.00     102.89       1.50       0.24       0.91       ----

> <Gold.Chemscore.Fitness>
15.4641

> <Gold.Chemscore.DG>
-16.6197

> <Gold.Chemscore.ZeroCoef>
-5.4800

> <Gold.Chemscore.Hbond>
0.8807

> <Gold.Chemscore.Metal>
0.0000

> <Gold.Chemscore.Lipo>
102.8886

> <Gold.Chemscore.Internal_Hbond>
0.0000

> <Gold.Chemscore.DEClash>
0.2419

> <Gold.Chemscore.DEInternal>
0.9137

> <Gold.Chemscore.Rot>
1.4999

> <Gold.Chemscore.Internal.Correction>
   9.000000E+99

> <Gold.Chemscore.Hbonds>
donor molecule, donor type, donor heavy atom, donor atom, acceptor molecule, acceptor atom, score
      L1  H     9    43       P1  8028  0.88

> <Gold.Chemscore.Hbond.Weighted>
-2.9414

> <Gold.Chemscore.Metal.Weighted>
-0.0000

> <Gold.Chemscore.Lipo.Weighted>
-12.0380

> <Gold.Chemscore.Internal_Hbond.Weighted>
0.0000

> <Gold.Chemscore.DEClash.Weighted>
0.2419

> <Gold.Chemscore.DEInternal.Weighted>
0.9137

> <Gold.Chemscore.Rot.Weighted>
3.8397

> <Gold.Chemscore.Internal.Correction.Weighted>
   9.000000E+99

> <Gold.Protein.RotatedTorsions>
[ 6907 6896 6895 6894 ] final   83.91 input  -60.11 | X-H torsion
[ 7974 7965 7964 7962 ] final -157.62 input  175.53 | X-H torsion
[ 8008 7997 7996 7995 ] final  -90.16 input   59.86 | X-H torsion
[ 10167 10162 10161 10158 ] final   23.83 input  -65.29 | X-H torsion
[ 10718 10713 10712 10709 ] final   71.19 input   66.30 | X-H torsion
[ 10763 10752 10751 10750 ] final  128.49 input  -60.55 | X-H torsion
[ 11005 11000 10999 10996 ] final   47.32 input  -57.11 | X-H torsion

> <Gold.Protein.ActiveResidues>
 VAL166  LYS551  ARG553  GLY616  TRP617  ASP618  TYR619  PRO620  LYS621  CYS622 
 ASP623  PHE694  ASN695  SER759  ASP760  ASP761  ALA762  ILE779  LEU786  VAL792 
 PHE793  MET794  SER795  GLU796  ALA797  LYS798  CYS799  TRP800  GLU811  SER814 

> <Gold.Protein.RotatedAtoms>
  152.5339  134.2823  159.9011 H   0  0  0  0  0  0  0  0  0  0  0  0  # atno 6907 bound_to 6896
  151.2777  133.4218  159.2632 H   0  0  0  0  0  0  0  0  0  0  0  0  # atno 6908 bound_to 6896
  151.0311  134.9555  159.8168 H   0  0  0  0  0  0  0  0  0  0  0  0  # atno 6909 bound_to 6896
  144.7540  140.3943  143.6026 H   0  0  0  0  0  0  0  0  0  0  0  0  # atno 7974 bound_to 7965
  154.6953  140.0533  157.0404 H   0  0  0  0  0  0  0  0  0  0  0  0  # atno 8008 bound_to 7997
  155.0760  140.3204  155.4597 H   0  0  0  0  0  0  0  0  0  0  0  0  # atno 8009 bound_to 7997
  156.2742  140.2073  156.5888 H   0  0  0  0  0  0  0  0  0  0  0  0  # atno 8010 bound_to 7997
  140.5237  143.9959  150.6429 H   0  0  0  0  0  0  0  0  0  0  0  0  # atno 10167 bound_to 10162
  157.6439  130.9516  150.0755 H   0  0  0  0  0  0  0  0  0  0  0  0  # atno 10718 bound_to 10713
  153.7264  135.3245  155.3277 H   0  0  0  0  0  0  0  0  0  0  0  0  # atno 10763 bound_to 10752
  154.8340  135.4511  154.1166 H   0  0  0  0  0  0  0  0  0  0  0  0  # atno 10764 bound_to 10752
  153.2301  135.6959  153.7980 H   0  0  0  0  0  0  0  0  0  0  0  0  # atno 10765 bound_to 10752
  140.1290  134.4731  155.8537 H   0  0  0  0  0  0  0  0  0  0  0  0  # atno 11005 bound_to 11000
  145.6842  139.1625  143.2683 LP  0  0  0  0  0  0  0  0  0  0  0  0  # atno 17320 bound_to 7965
  146.1528  140.6901  142.9314 LP  0  0  0  0  0  0  0  0  0  0  0  0  # atno 17321 bound_to 7965
  140.3315  143.3074  152.0682 LP  0  0  0  0  0  0  0  0  0  0  0  0  # atno 17342 bound_to 10162
  139.4931  144.6506  151.6685 LP  0  0  0  0  0  0  0  0  0  0  0  0  # atno 17343 bound_to 10162
  156.1747  130.3647  149.9117 LP  0  0  0  0  0  0  0  0  0  0  0  0  # atno 17370 bound_to 10713
  156.7084  130.8960  151.3607 LP  0  0  0  0  0  0  0  0  0  0  0  0  # atno 17371 bound_to 10713
  141.2166  133.6788  156.7032 LP  0  0  0  0  0  0  0  0  0  0  0  0  # atno 17394 bound_to 11000
  140.2867  134.8273  157.3981 LP  0  0  0  0  0  0  0  0  0  0  0  0  # atno 17395 bound_to 11000

$$$$
