AV-unprocessed.smi:1978|AV-procd|sdf|7993|dock4
  -GOLD-   2272010173D 1   1.00000     0.00000
 Structure written by MMmdl.
 45 46  0  0  0  0  0  0  0  0  2 V2000
  150.8786  141.2352  157.7650 C   0  0  0  0  0  0  0  0  0  0  0  0
  150.5928  140.5622  156.4663 C   0  0  0  0  0  0  0  0  0  0  0  0
  149.4323  140.2107  155.8359 C   0  0  0  0  0  0  0  0  0  0  0  0
  149.8909  139.6023  154.6373 C   0  0  0  0  0  0  0  0  0  0  0  0
  148.9752  139.0820  153.6873 N   0  0  0  0  0  0  0  0  0  0  0  0
  147.7062  138.6957  153.9024 C   0  0  0  0  0  0  0  0  0  0  0  0
  147.1366  138.7020  154.9942 O   0  0  0  0  0  0  0  0  0  0  0  0
  147.1156  138.2952  152.7669 N   0  0  0  0  0  0  0  0  0  0  0  0
  145.7373  137.8208  152.6695 C   0  0  0  0  0  0  0  0  0  0  0  0
  145.5869  136.5378  151.8003 C   0  0  1  0  0  0  0  0  0  0  0  0
  145.7567  136.9163  150.3057 C   0  0  0  0  0  0  0  0  0  0  0  0
  146.5365  135.4565  152.2403 N   0  3  1  0  0  0  0  0  0  0  0  0
  146.4837  135.1633  153.7058 C   0  0  0  0  0  0  0  0  0  0  0  0
  147.6344  134.2423  154.1439 C   0  0  0  0  0  0  0  0  0  0  0  0
  147.6401  132.9364  153.3473 C   0  0  0  0  0  0  0  0  0  0  0  0
  147.6626  133.2512  151.8475 C   0  0  0  0  0  0  0  0  0  0  0  0
  146.5111  134.1908  151.4315 C   0  0  1  0  0  0  0  0  0  0  0  0
  145.1429  133.4708  151.4545 C   0  0  0  0  0  0  0  0  0  0  0  0
  151.2118  139.5854  154.5437 N   0  0  0  0  0  0  0  0  0  0  0  0
  151.6684  140.2005  155.7154 O   0  0  0  0  0  0  0  0  0  0  0  0
  149.9568  141.5653  158.2442 H   0  0  0  0  0  0  0  0  0  0  0  0
  151.5137  142.1087  157.6167 H   0  0  0  0  0  0  0  0  0  0  0  0
  151.3900  140.5561  158.4471 H   0  0  0  0  0  0  0  0  0  0  0  0
  148.4206  140.3640  156.1810 H   0  0  0  0  0  0  0  0  0  0  0  0
  149.3204  139.0092  152.7417 H   0  0  0  0  0  0  0  0  0  0  0  0
  147.6535  138.3192  151.9127 H   0  0  0  0  0  0  0  0  0  0  0  0
  145.3761  137.6271  153.6800 H   0  0  0  0  0  0  0  0  0  0  0  0
  145.1515  138.6566  152.2932 H   0  0  0  0  0  0  0  0  0  0  0  0
  144.5756  136.1504  151.9296 H   0  0  0  0  0  0  0  0  0  0  0  0
  145.0954  137.7311  150.0125 H   0  0  0  0  0  0  0  0  0  0  0  0
  145.5095  136.0972  149.6323 H   0  0  0  0  0  0  0  0  0  0  0  0
  146.7779  137.2333  150.0916 H   0  0  0  0  0  0  0  0  0  0  0  0
  146.5715  136.0663  154.3028 H   0  0  0  0  0  0  0  0  0  0  0  0
  145.5207  134.7236  153.9668 H   0  0  0  0  0  0  0  0  0  0  0  0
  148.5856  134.7580  154.0057 H   0  0  0  0  0  0  0  0  0  0  0  0
  147.5532  134.0255  155.2095 H   0  0  0  0  0  0  0  0  0  0  0  0
  148.5080  132.3344  153.6181 H   0  0  0  0  0  0  0  0  0  0  0  0
  146.7611  132.3420  153.5983 H   0  0  0  0  0  0  0  0  0  0  0  0
  148.6155  133.7200  151.5971 H   0  0  0  0  0  0  0  0  0  0  0  0
  147.6228  132.3255  151.2723 H   0  0  0  0  0  0  0  0  0  0  0  0
  146.7304  134.4401  150.3945 H   0  0  0  0  0  0  0  0  0  0  0  0
  145.1665  132.5852  150.8189 H   0  0  0  0  0  0  0  0  0  0  0  0
  144.3370  134.1032  151.0848 H   0  0  0  0  0  0  0  0  0  0  0  0
  144.8623  133.1397  152.4534 H   0  0  0  0  0  0  0  0  0  0  0  0
  147.4561  135.8420  152.0795 H   0  0  0  0  0  0  0  0  0  0  0  0
  1  2  1  0  0  0  0
  1 21  1  0  0  0  0
  1 22  1  0  0  0  0
  1 23  1  0  0  0  0
  2 20  1  0  0  0  0
  2  3  2  0  0  0  0
  3  4  1  0  0  0  0
  3 24  1  0  0  0  0
  4  5  1  0  0  0  0
  4 19  2  0  0  0  0
  5  6  1  0  0  0  0
  5 25  1  0  0  0  0
  6  7  2  0  0  0  0
  6  8  1  0  0  0  0
  8  9  1  0  0  0  0
  8 26  1  0  0  0  0
  9 10  1  0  0  0  0
  9 27  1  0  0  0  0
  9 28  1  0  0  0  0
 10 11  1  0  0  0  0
 10 12  1  0  0  0  0
 10 29  1  0  0  0  0
 11 30  1  0  0  0  0
 11 31  1  0  0  0  0
 11 32  1  0  0  0  0
 12 17  1  0  0  0  0
 12 13  1  0  0  0  0
 12 45  1  0  0  0  0
 13 14  1  0  0  0  0
 13 33  1  0  0  0  0
 13 34  1  0  0  0  0
 14 15  1  0  0  0  0
 14 35  1  0  0  0  0
 14 36  1  0  0  0  0
 15 16  1  0  0  0  0
 15 37  1  0  0  0  0
 15 38  1  0  0  0  0
 16 17  1  0  0  0  0
 16 39  1  0  0  0  0
 16 40  1  0  0  0  0
 17 18  1  0  0  0  0
 17 41  1  0  0  0  0
 18 42  1  0  0  0  0
 18 43  1  0  0  0  0
 18 44  1  0  0  0  0
 19 20  1  0  0  0  0
M  CHG  1  12   1
M  END
> <s_m_source_file>
AV-unprocessed.smi

> <i_m_source_file_index>
1978

> <i_lp_mmshare_version>
43012

> <i_f3d_flags>
0

> <s_epik_input>
W0NIM11jMVtjSF1jKG5vMSlbTkhdQyg9TylbTkhdW0NIMl1bQ0BIXShbQ0gzXSlOMltDSDJdW0NIMl1bQ0gyXVtDSDJdW0NASF0yW0NIM10=

> <s_epik_cmdline>
J2VwaWtfcHl0aG9uJywgJy1waCcsICc3LjAnLCAnLXRuJywgJzgnLCAnLW1hJywgJzIwMCcsICctbWV0YWxfYmluZGluZycsICctaW1hZScsICc8aW5maWxlLm1hZT4nLCAnLW9tYWUnLCAnPG91dGZpbGUubWFlPic=

> <r_epik_Ionization_Penalty>
0.00265971

> <r_epik_Ionization_Penalty_Charging>
0.00262393

> <r_epik_Ionization_Penalty_Neutral>
3.57846e-05

> <r_epik_State_Penalty>
0.00182566

> <r_epik_Charging_Adjusted_Penalty>
0.00444959

> <i_epik_Tot_Q>
1

> <i_epik_Tot_abs_Q>
1

> <r_epik_Metal_State_Penalty>
0.0216344

> <b_epik_Metal_Only>
0

> <s_lp_Force_Field>
OPLS_2005

> <r_lp_Energy>
22.9601

> <b_lp_Chiralities_Consistent>
1

> <s_lp_Variant>
AV-unprocessed.smi:1978-2

> <Gold.Version>
5.8.1

> <Gold.Id.Protein>
6NUR|6NUR_protein|mol2

> <Gold.PLP.Fitness>
38.8078

> <Gold.PLP.PLP>
-28.6496

> <Gold.PLP.part.hbond>
-5.0000

> <Gold.PLP.part.metal>
0.0000

> <Gold.PLP.part.buried>
-1.4451

> <Gold.PLP.part.nonpolar>
-23.5326

> <Gold.PLP.part.repulsive>
0.3187

> <Gold.PLP.ligand.clash>
0.0000

> <Gold.PLP.ligand.torsion>
0.3036

> <Gold.PLP.Chemscore.Hbond>
3.5574

> <Gold.PLP.Chemscore.CHOScore>
0.0000

> <Gold.PLP.Chemscore.Metal>
0.0000

> <Gold.Chemscore.Hbonds>
donor molecule, donor type, donor heavy atom, donor atom, acceptor molecule, acceptor atom, score
      L1  H     5    25       P1  7957  0.86
      L1  H    12    45       P1  7948  2.00
      P1  H  7989  7998       L1    19  0.80

> <Gold.PLP.Chemscore.Internal.Correction>
0.0933

> <Gold.Rescore>
     Score         DG    S(hbond)    S(metal)    S(lipo)     H(rot)  DE(clash)    DE(int)     intcor
     14.83     -17.45       2.73        0.00      58.29       1.55       1.11       1.51       ----

> <Gold.Chemscore.Fitness>
14.8319

> <Gold.Chemscore.DG>
-17.4520

> <Gold.Chemscore.ZeroCoef>
-5.4800

> <Gold.Chemscore.Hbond>
2.7287

> <Gold.Chemscore.Metal>
0.0000

> <Gold.Chemscore.Lipo>
58.2863

> <Gold.Chemscore.Internal_Hbond>
0.0000

> <Gold.Chemscore.DEClash>
1.1136

> <Gold.Chemscore.DEInternal>
1.5066

> <Gold.Chemscore.Rot>
1.5474

> <Gold.Chemscore.Internal.Correction>
   9.000000E+99

> <Gold.Chemscore.Hbonds>
donor molecule, donor type, donor heavy atom, donor atom, acceptor molecule, acceptor atom, score
      L1  H     5    25       P1  7957  0.83
      L1  H     8    26       P1  7948  0.01
      L1  H    12    45       P1  7948  0.93
      P1  H  7989  7998       L1    19  0.07

> <Gold.Chemscore.Hbond.Weighted>
-9.1138

> <Gold.Chemscore.Metal.Weighted>
-0.0000

> <Gold.Chemscore.Lipo.Weighted>
-6.8195

> <Gold.Chemscore.Internal_Hbond.Weighted>
0.0000

> <Gold.Chemscore.DEClash.Weighted>
1.1136

> <Gold.Chemscore.DEInternal.Weighted>
1.5066

> <Gold.Chemscore.Rot.Weighted>
3.9612

> <Gold.Chemscore.Internal.Correction.Weighted>
   9.000000E+99

> <Gold.Protein.RotatedTorsions>
[ 6907 6896 6895 6894 ] final -141.73 input  -60.11 | X-H torsion
[ 7974 7965 7964 7962 ] final -115.62 input  175.53 | X-H torsion
[ 8008 7997 7996 7995 ] final  141.18 input   59.86 | X-H torsion
[ 10167 10162 10161 10158 ] final  -15.37 input  -65.29 | X-H torsion
[ 10718 10713 10712 10709 ] final  -56.06 input   66.30 | X-H torsion
[ 10763 10752 10751 10750 ] final   55.61 input  -60.55 | X-H torsion
[ 11005 11000 10999 10996 ] final   69.94 input  -57.11 | X-H torsion

> <Gold.Protein.ActiveResidues>
 VAL166  LYS551  ARG553  GLY616  TRP617  ASP618  TYR619  PRO620  LYS621  CYS622 
 ASP623  PHE694  ASN695  SER759  ASP760  ASP761  ALA762  ILE779  LEU786  VAL792 
 PHE793  MET794  SER795  GLU796  ALA797  LYS798  CYS799  TRP800  GLU811  SER814 

> <Gold.Protein.RotatedAtoms>
  151.0776  133.5415  159.2622 H   0  0  0  0  0  0  0  0  0  0  0  0  # atno 6907 bound_to 6896
  151.2331  135.0561  159.9005 H   0  0  0  0  0  0  0  0  0  0  0  0  # atno 6908 bound_to 6896
  152.5420  134.0562  159.8185 H   0  0  0  0  0  0  0  0  0  0  0  0  # atno 6909 bound_to 6896
  145.1062  140.8583  143.3897 H   0  0  0  0  0  0  0  0  0  0  0  0  # atno 7974 bound_to 7965
  156.2969  140.2322  156.4523 H   0  0  0  0  0  0  0  0  0  0  0  0  # atno 8008 bound_to 7997
  154.8091  140.0444  157.1350 H   0  0  0  0  0  0  0  0  0  0  0  0  # atno 8009 bound_to 7997
  154.9444  140.3034  155.5108 H   0  0  0  0  0  0  0  0  0  0  0  0  # atno 8010 bound_to 7997
  140.7217  143.5225  150.9616 H   0  0  0  0  0  0  0  0  0  0  0  0  # atno 10167 bound_to 10162
  156.1319  130.4159  150.0254 H   0  0  0  0  0  0  0  0  0  0  0  0  # atno 10718 bound_to 10713
  152.9819  135.5705  154.5095 H   0  0  0  0  0  0  0  0  0  0  0  0  # atno 10763 bound_to 10752
  154.4601  135.2781  155.1721 H   0  0  0  0  0  0  0  0  0  0  0  0  # atno 10764 bound_to 10752
  154.3312  135.6249  153.5605 H   0  0  0  0  0  0  0  0  0  0  0  0  # atno 10765 bound_to 10752
  139.9625  134.7037  156.0615 H   0  0  0  0  0  0  0  0  0  0  0  0  # atno 11005 bound_to 11000
  145.0898  139.2898  143.5740 LP  0  0  0  0  0  0  0  0  0  0  0  0  # atno 17320 bound_to 7965
  146.3528  140.0432  142.8641 LP  0  0  0  0  0  0  0  0  0  0  0  0  # atno 17321 bound_to 7965
  139.8943  143.6914  152.3141 LP  0  0  0  0  0  0  0  0  0  0  0  0  # atno 17342 bound_to 10162
  139.7241  144.7596  151.0907 LP  0  0  0  0  0  0  0  0  0  0  0  0  # atno 17343 bound_to 10162
  156.8164  130.9343  151.3642 LP  0  0  0  0  0  0  0  0  0  0  0  0  # atno 17370 bound_to 10713
  157.6496  130.8873  149.9606 LP  0  0  0  0  0  0  0  0  0  0  0  0  # atno 17371 bound_to 10713
  141.1303  133.6588  156.3447 LP  0  0  0  0  0  0  0  0  0  0  0  0  # atno 17394 bound_to 11000
  140.5469  134.6066  157.5396 LP  0  0  0  0  0  0  0  0  0  0  0  0  # atno 17395 bound_to 11000

$$$$
