AV-unprocessed.smi:258|AV-procd|sdf|1969|dock7
  -GOLD-   2262021123D 1   1.00000     0.00000
 Structure written by MMmdl.
 57 60  0  0  0  0  0  0  0  0  1 V2000
  147.3643  130.2148  152.2266 O   0  0  0  0  0  0  0  0  0  0  0  0
  147.1357  131.3318  153.0591 C   0  0  0  0  0  0  0  0  0  0  0  0
  148.3096  131.5187  154.0281 C   0  0  0  0  0  0  0  0  0  0  0  0
  148.3260  132.8656  154.4786 O   0  0  0  0  0  0  0  0  0  0  0  0
  149.6124  133.3541  154.8361 C   0  0  2  0  0  0  0  0  0  0  0  0
  150.1317  132.6655  156.1134 C   0  0  0  0  0  0  0  0  0  0  0  0
  151.4515  133.3094  156.5635 C   0  0  0  0  0  0  0  0  0  0  0  0
  151.2946  134.8274  156.7495 C   0  0  0  0  0  0  0  0  0  0  0  0
  150.7318  135.4470  155.5484 N   0  0  0  0  0  0  0  0  0  0  0  0
  150.9325  136.7845  155.4150 C   0  0  0  0  0  0  0  0  0  0  0  0
  150.7170  137.3263  154.1873 N   0  0  0  0  0  0  0  0  0  0  0  0
  150.8782  138.6364  153.9833 C   0  0  0  0  0  0  0  0  0  0  0  0
  151.2447  139.5769  154.8541 N   0  0  0  0  0  0  0  0  0  0  0  0
  151.4718  139.0438  156.0880 C   0  0  0  0  0  0  0  0  0  0  0  0
  151.3419  137.6728  156.4565 C   0  0  0  0  0  0  0  0  0  0  0  0
  151.6694  137.5234  157.8012 N   0  0  0  0  0  0  0  0  0  0  0  0
  151.9635  138.7291  158.2023 C   0  0  0  0  0  0  0  0  0  0  0  0
  151.8752  139.7030  157.2352 N   0  0  0  0  0  0  0  0  0  0  0  0
  152.1416  141.1207  157.3985 C   0  0  0  0  0  0  0  0  0  0  0  0
  151.3926  141.7625  158.5923 C   0  0  2  0  0  0  0  0  0  0  0  0
  149.8822  141.9786  158.3154 C   0  0  0  0  0  0  0  0  0  0  0  0
  149.6351  142.2230  156.9461 O   0  0  0  0  0  0  0  0  0  0  0  0
  152.1241  143.0538  159.0407 C   0  0  1  0  0  0  0  0  0  0  0  0
  151.9555  144.2696  158.1361 C   0  0  0  0  0  0  0  0  0  0  0  0
  152.1669  145.4219  159.1079 C   0  0  0  0  0  0  0  0  0  0  0  0
  151.4922  144.9764  160.2726 O   0  0  0  0  0  0  0  0  0  0  0  0
  151.7401  143.5835  160.4338 C   0  0  0  0  0  0  0  0  0  0  0  0
  149.4786  134.8695  155.0648 C   0  0  0  0  0  0  0  0  0  0  0  0
  147.9205  130.4824  151.5109 H   0  0  0  0  0  0  0  0  0  0  0  0
  147.0446  132.2075  152.4163 H   0  0  0  0  0  0  0  0  0  0  0  0
  146.1917  131.2237  153.5940 H   0  0  0  0  0  0  0  0  0  0  0  0
  148.2498  130.8072  154.8524 H   0  0  0  0  0  0  0  0  0  0  0  0
  149.2420  131.3200  153.4978 H   0  0  0  0  0  0  0  0  0  0  0  0
  150.3153  133.1924  154.0165 H   0  0  0  0  0  0  0  0  0  0  0  0
  149.3895  132.7543  156.9079 H   0  0  0  0  0  0  0  0  0  0  0  0
  150.2864  131.5999  155.9472 H   0  0  0  0  0  0  0  0  0  0  0  0
  151.7932  132.8539  157.4932 H   0  0  0  0  0  0  0  0  0  0  0  0
  152.2245  133.1127  155.8195 H   0  0  0  0  0  0  0  0  0  0  0  0
  150.6299  135.0324  157.5895 H   0  0  0  0  0  0  0  0  0  0  0  0
  152.2639  135.2548  157.0070 H   0  0  0  0  0  0  0  0  0  0  0  0
  150.6831  138.9806  152.9782 H   0  0  0  0  0  0  0  0  0  0  0  0
  152.2609  138.9404  159.2190 H   0  0  0  0  0  0  0  0  0  0  0  0
  153.2186  141.2413  157.5202 H   0  0  0  0  0  0  0  0  0  0  0  0
  151.8784  141.6293  156.4702 H   0  0  0  0  0  0  0  0  0  0  0  0
  151.4744  141.0734  159.4345 H   0  0  0  0  0  0  0  0  0  0  0  0
  149.2983  141.1019  158.5922 H   0  0  0  0  0  0  0  0  0  0  0  0
  149.4934  142.8107  158.9030 H   0  0  0  0  0  0  0  0  0  0  0  0
  149.3407  143.1156  156.8473 H   0  0  0  0  0  0  0  0  0  0  0  0
  153.1924  142.8339  159.0860 H   0  0  0  0  0  0  0  0  0  0  0  0
  152.6612  144.2837  157.3052 H   0  0  0  0  0  0  0  0  0  0  0  0
  150.9482  144.3289  157.7246 H   0  0  0  0  0  0  0  0  0  0  0  0
  153.2267  145.5610  159.3270 H   0  0  0  0  0  0  0  0  0  0  0  0
  151.7607  146.3653  158.7423 H   0  0  0  0  0  0  0  0  0  0  0  0
  150.8608  143.0984  160.8564 H   0  0  0  0  0  0  0  0  0  0  0  0
  152.5612  143.4378  161.1368 H   0  0  0  0  0  0  0  0  0  0  0  0
  149.1828  135.3442  154.1283 H   0  0  0  0  0  0  0  0  0  0  0  0
  148.6921  135.0662  155.7946 H   0  0  0  0  0  0  0  0  0  0  0  0
  1  2  1  0  0  0  0
  1 29  1  0  0  0  0
  2  3  1  0  0  0  0
  2 30  1  0  0  0  0
  2 31  1  0  0  0  0
  3  4  1  0  0  0  0
  3 32  1  0  0  0  0
  3 33  1  0  0  0  0
  4  5  1  0  0  0  0
  5 28  1  0  0  0  0
  5  6  1  0  0  0  0
  5 34  1  0  0  0  0
  6  7  1  0  0  0  0
  6 35  1  0  0  0  0
  6 36  1  0  0  0  0
  7  8  1  0  0  0  0
  7 37  1  0  0  0  0
  7 38  1  0  0  0  0
  8  9  1  0  0  0  0
  8 39  1  0  0  0  0
  8 40  1  0  0  0  0
  9 10  1  0  0  0  0
  9 28  1  0  0  0  0
 10 15  1  0  0  0  0
 10 11  2  0  0  0  0
 11 12  1  0  0  0  0
 12 13  2  0  0  0  0
 12 41  1  0  0  0  0
 13 14  1  0  0  0  0
 14 18  1  0  0  0  0
 14 15  2  0  0  0  0
 15 16  1  0  0  0  0
 16 17  2  0  0  0  0
 17 18  1  0  0  0  0
 17 42  1  0  0  0  0
 18 19  1  0  0  0  0
 19 20  1  0  0  0  0
 19 43  1  0  0  0  0
 19 44  1  0  0  0  0
 20 21  1  0  0  0  0
 20 23  1  0  0  0  0
 20 45  1  0  0  0  0
 21 22  1  0  0  0  0
 21 46  1  0  0  0  0
 21 47  1  0  0  0  0
 22 48  1  0  0  0  0
 23 27  1  0  0  0  0
 23 24  1  0  0  0  0
 23 49  1  0  0  0  0
 24 25  1  0  0  0  0
 24 50  1  0  0  0  0
 24 51  1  0  0  0  0
 25 26  1  0  0  0  0
 25 52  1  0  0  0  0
 25 53  1  0  0  0  0
 26 27  1  0  0  0  0
 27 54  1  0  0  0  0
 27 55  1  0  0  0  0
 28 56  1  0  0  0  0
 28 57  1  0  0  0  0
M  END
> <s_m_source_file>
AV-unprocessed.smi

> <i_m_source_file_index>
258

> <i_lp_mmshare_version>
43012

> <i_f3d_flags>
0

> <s_epik_input>
W09IXVtDSDJdW0NIMl1PW0NAQEhdMVtDSDJdW0NIMl1bQ0gyXU4oW0NIMl0xKWMobltjSF1uMiljKGMyMyluW2NIXW4zW0NIMl1bQ0BIXShbQ0gyXVtPSF0pW0NAQEhdNFtDSDJdW0NIMl1PW0NIMl00

> <s_epik_cmdline>
J2VwaWtfcHl0aG9uJywgJy1waCcsICc3LjAnLCAnLXRuJywgJzgnLCAnLW1hJywgJzIwMCcsICctbWV0YWxfYmluZGluZycsICctaW1hZScsICc8aW5maWxlLm1hZT4nLCAnLW9tYWUnLCAnPG91dGZpbGUubWFlPic=

> <r_lp_tautomer_probability>
1

> <r_epik_Ionization_Penalty>
0.00349036

> <r_epik_Ionization_Penalty_Charging>
0

> <r_epik_Ionization_Penalty_Neutral>
0.00349036

> <r_epik_State_Penalty>
0.00229798

> <r_epik_Charging_Adjusted_Penalty>
0.00229798

> <i_epik_Tot_Q>
0

> <i_epik_Tot_abs_Q>
0

> <r_epik_Metal_State_Penalty>
-0

> <b_epik_Metal_Only>
0

> <s_lp_Force_Field>
OPLS_2005

> <r_lp_Energy>
47.936

> <b_lp_Chiralities_Consistent>
1

> <s_lp_Variant>
AV-unprocessed.smi:258-5

> <Gold.Version>
5.8.1

> <Gold.Id.Protein>
6NUR|6NUR_protein|mol2

> <Gold.PLP.Fitness>
52.3023

> <Gold.PLP.PLP>
-43.9616

> <Gold.PLP.part.hbond>
-3.0000

> <Gold.PLP.part.metal>
0.0000

> <Gold.PLP.part.buried>
-8.8916

> <Gold.PLP.part.nonpolar>
-33.8886

> <Gold.PLP.part.repulsive>
1.7693

> <Gold.PLP.ligand.clash>
0.0000

> <Gold.PLP.ligand.torsion>
1.6250

> <Gold.PLP.Chemscore.Hbond>
2.6420

> <Gold.PLP.Chemscore.CHOScore>
1.0000

> <Gold.PLP.Chemscore.Metal>
0.0000

> <Gold.Chemscore.Hbonds>
donor molecule, donor type, donor heavy atom, donor atom, acceptor molecule, acceptor atom, score
      L1  H     1    29       P1 10747  1.00
      L1  H    22    48       P1  8028  0.98
      P1  H  7989  7998       L1    13  0.70
      L1  C    12    41       P1  7957  1.00

> <Gold.PLP.Chemscore.Internal.Correction>
0.6648

> <Gold.Rescore>
     Score         DG    S(hbond)    S(metal)    S(lipo)     H(rot)  DE(clash)    DE(int)     intcor
     11.21     -14.87       2.11        0.00     106.02       3.94       0.76       2.90       ----

> <Gold.Chemscore.Fitness>
11.2126

> <Gold.Chemscore.DG>
-14.8717

> <Gold.Chemscore.ZeroCoef>
-5.4800

> <Gold.Chemscore.Hbond>
2.1146

> <Gold.Chemscore.Metal>
0.0000

> <Gold.Chemscore.Lipo>
106.0179

> <Gold.Chemscore.Internal_Hbond>
0.0000

> <Gold.Chemscore.DEClash>
0.7607

> <Gold.Chemscore.DEInternal>
2.8984

> <Gold.Chemscore.Rot>
3.9356

> <Gold.Chemscore.Internal.Correction>
   9.000000E+99

> <Gold.Chemscore.Hbonds>
donor molecule, donor type, donor heavy atom, donor atom, acceptor molecule, acceptor atom, score
      L1  H     1    29       P1 10747  1.00
      L1  H    22    48       P1  8028  0.86
      P1  H  7989  7998       L1    13  0.07

> <Gold.Chemscore.Hbond.Weighted>
-7.0627

> <Gold.Chemscore.Metal.Weighted>
-0.0000

> <Gold.Chemscore.Lipo.Weighted>
-12.4041

> <Gold.Chemscore.Internal_Hbond.Weighted>
0.0000

> <Gold.Chemscore.DEClash.Weighted>
0.7607

> <Gold.Chemscore.DEInternal.Weighted>
2.8984

> <Gold.Chemscore.Rot.Weighted>
10.0751

> <Gold.Chemscore.Internal.Correction.Weighted>
   9.000000E+99

> <Gold.Protein.RotatedTorsions>
[ 6907 6896 6895 6894 ] final   62.60 input  -60.11 | X-H torsion
[ 7974 7965 7964 7962 ] final  -75.95 input  175.53 | X-H torsion
[ 8008 7997 7996 7995 ] final  -30.03 input   59.86 | X-H torsion
[ 10167 10162 10161 10158 ] final -131.56 input  -65.29 | X-H torsion
[ 10718 10713 10712 10709 ] final  -49.14 input   66.30 | X-H torsion
[ 10763 10752 10751 10750 ] final  157.08 input  -60.55 | X-H torsion
[ 11005 11000 10999 10996 ] final -123.58 input  -57.11 | X-H torsion

> <Gold.Protein.ActiveResidues>
 VAL166  LYS551  ARG553  GLY616  TRP617  ASP618  TYR619  PRO620  LYS621  CYS622 
 ASP623  PHE694  ASN695  SER759  ASP760  ASP761  ALA762  ILE779  LEU786  VAL792 
 PHE793  MET794  SER795  GLU796  ALA797  LYS798  CYS799  TRP800  GLU811  SER814 

> <Gold.Protein.RotatedAtoms>
  152.4185  134.5998  159.9996 H   0  0  0  0  0  0  0  0  0  0  0  0  # atno 6907 bound_to 6896
  151.6154  133.3338  159.3084 H   0  0  0  0  0  0  0  0  0  0  0  0  # atno 6908 bound_to 6896
  150.8073  134.7245  159.6722 H   0  0  0  0  0  0  0  0  0  0  0  0  # atno 6909 bound_to 6896
  145.6193  140.9367  143.1147 H   0  0  0  0  0  0  0  0  0  0  0  0  # atno 7974 bound_to 7965
  154.4266  140.1802  156.1342 H   0  0  0  0  0  0  0  0  0  0  0  0  # atno 8008 bound_to 7997
  156.0043  140.3357  155.6852 H   0  0  0  0  0  0  0  0  0  0  0  0  # atno 8009 bound_to 7997
  155.6199  140.0659  157.2672 H   0  0  0  0  0  0  0  0  0  0  0  0  # atno 8010 bound_to 7997
  139.9176  143.6420  152.2561 H   0  0  0  0  0  0  0  0  0  0  0  0  # atno 10167 bound_to 10162
  156.1922  130.4153  149.9356 H   0  0  0  0  0  0  0  0  0  0  0  0  # atno 10718 bound_to 10713
  154.1946  135.2793  155.3011 H   0  0  0  0  0  0  0  0  0  0  0  0  # atno 10763 bound_to 10752
  154.5902  135.5562  153.7274 H   0  0  0  0  0  0  0  0  0  0  0  0  # atno 10764 bound_to 10752
  153.0103  135.6366  154.2085 H   0  0  0  0  0  0  0  0  0  0  0  0  # atno 10765 bound_to 10752
  140.9907  134.0542  157.3657 H   0  0  0  0  0  0  0  0  0  0  0  0  # atno 11005 bound_to 11000
  144.7238  139.7943  143.7372 LP  0  0  0  0  0  0  0  0  0  0  0  0  # atno 17320 bound_to 7965
  146.1444  139.4509  143.0089 LP  0  0  0  0  0  0  0  0  0  0  0  0  # atno 17321 bound_to 7965
  139.6889  144.7649  151.1475 LP  0  0  0  0  0  0  0  0  0  0  0  0  # atno 17342 bound_to 10162
  140.7670  143.5618  150.9091 LP  0  0  0  0  0  0  0  0  0  0  0  0  # atno 17343 bound_to 10162
  156.7093  130.8964  151.3607 LP  0  0  0  0  0  0  0  0  0  0  0  0  # atno 17370 bound_to 10713
  157.6936  130.9258  150.0581 LP  0  0  0  0  0  0  0  0  0  0  0  0  # atno 17371 bound_to 10713
  139.8991  135.0157  156.7180 LP  0  0  0  0  0  0  0  0  0  0  0  0  # atno 17394 bound_to 11000
  140.7044  133.9278  155.8044 LP  0  0  0  0  0  0  0  0  0  0  0  0  # atno 17395 bound_to 11000

$$$$
