AV-unprocessed.smi:1492|AV-procd|sdf|6041|dock5
  -GOLD-   22720 6153D 1   1.00000     0.00000
 Structure written by MMmdl.
 52 53  0  0  0  0  0  0  0  0  1 V2000
  147.0363  141.5447  154.1442 C   0  0  0  0  0  0  0  0  0  0  0  0
  148.4591  141.0941  154.5223 C   0  0  0  0  0  0  0  0  0  0  0  0
  148.6095  139.6398  155.0716 C   0  0  2  0  0  0  0  0  0  0  0  0
  148.0915  138.6506  153.9938 C   0  0  0  0  0  0  0  0  0  0  0  0
  147.6785  139.4739  156.3157 C   0  0  0  0  0  0  0  0  0  0  0  0
  147.8993  138.2073  157.0094 N   0  0  0  0  0  0  0  0  0  0  0  0
  147.1661  137.7134  158.0174 C   0  0  0  0  0  0  0  0  0  0  0  0
  146.2875  138.3474  158.6007 O   0  0  0  0  0  0  0  0  0  0  0  0
  147.4463  136.2579  158.3924 C   0  0  0  0  0  0  0  0  0  0  0  0
  146.4973  135.6772  159.4414 C   0  0  0  0  0  0  0  0  0  0  0  0
  145.6250  134.6741  159.1676 C   0  0  0  0  0  0  0  0  0  0  0  0
  145.4675  134.0257  157.8033 C   0  0  0  0  0  0  0  0  0  0  0  0
  144.8005  134.1538  160.1494 N   0  0  0  0  0  0  0  0  0  0  0  0
  144.8939  134.6873  161.4239 C   0  0  0  0  0  0  0  0  0  0  0  0
  143.9588  134.0430  162.4236 C   0  0  0  0  0  0  0  0  0  0  0  0
  145.6930  135.6450  161.7833 N   0  0  0  0  0  0  0  0  0  0  0  0
  146.5532  136.2047  160.8254 C   0  0  0  0  0  0  0  0  0  0  0  0
  147.3363  137.0989  161.1425 O   0  0  0  0  0  0  0  0  0  0  0  0
  150.0236  139.3119  155.4227 N   0  0  0  0  0  0  0  0  0  0  0  0
  150.9253  139.0988  154.2849 C   0  0  0  0  0  0  0  0  0  0  0  0
  152.3136  138.6146  154.7365 C   0  0  0  0  0  0  0  0  0  0  0  0
  152.8746  139.5480  155.6515 O   0  0  0  0  0  0  0  0  0  0  0  0
  152.0559  139.7455  156.7978 C   0  0  0  0  0  0  0  0  0  0  0  0
  150.6658  140.2387  156.3624 C   0  0  0  0  0  0  0  0  0  0  0  0
  144.1691  133.4051  159.9035 H   0  0  0  0  0  0  0  0  0  0  0  0
  147.0536  142.5678  153.7682 H   0  0  0  0  0  0  0  0  0  0  0  0
  146.3607  141.5313  154.9987 H   0  0  0  0  0  0  0  0  0  0  0  0
  146.6056  140.9242  153.3588 H   0  0  0  0  0  0  0  0  0  0  0  0
  149.0809  141.2222  153.6369 H   0  0  0  0  0  0  0  0  0  0  0  0
  148.8377  141.8073  155.2541 H   0  0  0  0  0  0  0  0  0  0  0  0
  147.0059  138.6769  153.9005 H   0  0  0  0  0  0  0  0  0  0  0  0
  148.3634  137.6218  154.2317 H   0  0  0  0  0  0  0  0  0  0  0  0
  148.4931  138.8738  153.0053 H   0  0  0  0  0  0  0  0  0  0  0  0
  147.8495  140.2761  157.0335 H   0  0  0  0  0  0  0  0  0  0  0  0
  146.6274  139.5652  156.0394 H   0  0  0  0  0  0  0  0  0  0  0  0
  148.6014  137.6014  156.6098 H   0  0  0  0  0  0  0  0  0  0  0  0
  147.4408  135.6552  157.4839 H   0  0  0  0  0  0  0  0  0  0  0  0
  148.4679  136.1876  158.7670 H   0  0  0  0  0  0  0  0  0  0  0  0
  146.4136  133.6003  157.4692 H   0  0  0  0  0  0  0  0  0  0  0  0
  145.1426  134.7619  157.0679 H   0  0  0  0  0  0  0  0  0  0  0  0
  144.7293  133.2230  157.8222 H   0  0  0  0  0  0  0  0  0  0  0  0
  144.1278  134.4384  163.4261 H   0  0  0  0  0  0  0  0  0  0  0  0
  144.1176  132.9646  162.4538 H   0  0  0  0  0  0  0  0  0  0  0  0
  142.9208  134.2349  162.1508 H   0  0  0  0  0  0  0  0  0  0  0  0
  150.5228  138.3535  153.6012 H   0  0  0  0  0  0  0  0  0  0  0  0
  151.0435  140.0211  153.7165 H   0  0  0  0  0  0  0  0  0  0  0  0
  152.2443  137.6321  155.2043 H   0  0  0  0  0  0  0  0  0  0  0  0
  152.9779  138.5140  153.8782 H   0  0  0  0  0  0  0  0  0  0  0  0
  151.9773  138.8168  157.3633 H   0  0  0  0  0  0  0  0  0  0  0  0
  152.5297  140.4776  157.4517 H   0  0  0  0  0  0  0  0  0  0  0  0
  150.7734  141.2230  155.9070 H   0  0  0  0  0  0  0  0  0  0  0  0
  150.0615  140.3697  157.2581 H   0  0  0  0  0  0  0  0  0  0  0  0
  1  2  1  0  0  0  0
  1 26  1  0  0  0  0
  1 27  1  0  0  0  0
  1 28  1  0  0  0  0
  2  3  1  0  0  0  0
  2 29  1  0  0  0  0
  2 30  1  0  0  0  0
  3  4  1  0  0  0  0
  3  5  1  0  0  0  0
  3 19  1  0  0  0  0
  4 31  1  0  0  0  0
  4 32  1  0  0  0  0
  4 33  1  0  0  0  0
  5  6  1  0  0  0  0
  5 34  1  0  0  0  0
  5 35  1  0  0  0  0
  6  7  1  0  0  0  0
  6 36  1  0  0  0  0
  7  8  2  0  0  0  0
  7  9  1  0  0  0  0
  9 37  1  0  0  0  0
  9 38  1  0  0  0  0
  9 10  1  0  0  0  0
 10 17  1  0  0  0  0
 10 11  2  0  0  0  0
 11 12  1  0  0  0  0
 11 13  1  0  0  0  0
 12 39  1  0  0  0  0
 12 40  1  0  0  0  0
 12 41  1  0  0  0  0
 13 25  1  0  0  0  0
 13 14  1  0  0  0  0
 14 15  1  0  0  0  0
 14 16  2  0  0  0  0
 15 42  1  0  0  0  0
 15 43  1  0  0  0  0
 15 44  1  0  0  0  0
 16 17  1  0  0  0  0
 17 18  2  0  0  0  0
 19 24  1  0  0  0  0
 19 20  1  0  0  0  0
 20 21  1  0  0  0  0
 20 45  1  0  0  0  0
 20 46  1  0  0  0  0
 21 22  1  0  0  0  0
 21 47  1  0  0  0  0
 21 48  1  0  0  0  0
 22 23  1  0  0  0  0
 23 24  1  0  0  0  0
 23 49  1  0  0  0  0
 23 50  1  0  0  0  0
 24 51  1  0  0  0  0
 24 52  1  0  0  0  0
M  END
> <s_m_source_file>
AV-unprocessed.smi

> <i_m_source_file_index>
1492

> <i_lp_mmshare_version>
43012

> <i_f3d_flags>
0

> <s_epik_input>
W0NIMl0xW0NIMl1PW0NIMl1bQ0gyXU4xW0NAQF0oW0NIM10pKFtDSDJdW0NIM10pW0NIMl1bTkhdQyg9TylbQ0gyXWMyYyhbQ0gzXSluYyhbQ0gzXSlbbkhdYzI9Tw==

> <s_epik_cmdline>
J2VwaWtfcHl0aG9uJywgJy1waCcsICc3LjAnLCAnLXRuJywgJzgnLCAnLW1hJywgJzIwMCcsICctbWV0YWxfYmluZGluZycsICctaW1hZScsICc8aW5maWxlLm1hZT4nLCAnLW9tYWUnLCAnPG91dGZpbGUubWFlPic=

> <r_lp_tautomer_probability>
0.156392

> <r_epik_Ionization_Penalty>
0.342516

> <r_epik_Ionization_Penalty_Charging>
0.0141408

> <r_epik_Ionization_Penalty_Neutral>
0.328375

> <r_epik_State_Penalty>
1.47662

> <r_epik_Charging_Adjusted_Penalty>
1.49076

> <i_epik_Tot_Q>
0

> <i_epik_Tot_abs_Q>
0

> <r_epik_Metal_State_Penalty>
1.65506

> <b_epik_Metal_Only>
0

> <s_lp_Force_Field>
OPLS_2005

> <r_lp_Energy>
47.0207

> <b_lp_Chiralities_Consistent>
1

> <s_lp_Variant>
AV-unprocessed.smi:1492-6

> <Gold.Version>
5.8.1

> <Gold.Id.Protein>
6NUR|6NUR_protein|mol2

> <Gold.PLP.Fitness>
37.5267

> <Gold.PLP.PLP>
-29.6190

> <Gold.PLP.part.hbond>
-4.0000

> <Gold.PLP.part.metal>
0.0000

> <Gold.PLP.part.buried>
-3.8456

> <Gold.PLP.part.nonpolar>
-21.6215

> <Gold.PLP.part.repulsive>
0.0698

> <Gold.PLP.ligand.clash>
0.0000

> <Gold.PLP.ligand.torsion>
0.3520

> <Gold.PLP.Chemscore.Hbond>
2.7840

> <Gold.PLP.Chemscore.CHOScore>
0.0000

> <Gold.PLP.Chemscore.Metal>
0.0000

> <Gold.Chemscore.Hbonds>
donor molecule, donor type, donor heavy atom, donor atom, acceptor molecule, acceptor atom, score
      P1  H  6931  6943       L1    18  0.55
      P1  H  6934  6947       L1    18  1.00
      P1  H  7997  8008       L1    22  1.00

> <Gold.PLP.Chemscore.Internal.Correction>
0.2597

> <Gold.Rescore>
     Score         DG    S(hbond)    S(metal)    S(lipo)     H(rot)  DE(clash)    DE(int)     intcor
     15.22     -15.78       2.48        0.00      63.44       2.12       0.09       0.47       ----

> <Gold.Chemscore.Fitness>
15.2207

> <Gold.Chemscore.DG>
-15.7834

> <Gold.Chemscore.ZeroCoef>
-5.4800

> <Gold.Chemscore.Hbond>
2.4840

> <Gold.Chemscore.Metal>
0.0000

> <Gold.Chemscore.Lipo>
63.4420

> <Gold.Chemscore.Internal_Hbond>
0.0000

> <Gold.Chemscore.DEClash>
0.0936

> <Gold.Chemscore.DEInternal>
0.4691

> <Gold.Chemscore.Rot>
2.1155

> <Gold.Chemscore.Internal.Correction>
   9.000000E+99

> <Gold.Chemscore.Hbonds>
donor molecule, donor type, donor heavy atom, donor atom, acceptor molecule, acceptor atom, score
      P1  H  6931  6943       L1    18  0.53
      P1  H  6934  6947       L1    18  0.96
      P1  H  7997  8008       L1    22  0.60

> <Gold.Chemscore.Hbond.Weighted>
-8.2964

> <Gold.Chemscore.Metal.Weighted>
-0.0000

> <Gold.Chemscore.Lipo.Weighted>
-7.4227

> <Gold.Chemscore.Internal_Hbond.Weighted>
0.0000

> <Gold.Chemscore.DEClash.Weighted>
0.0936

> <Gold.Chemscore.DEInternal.Weighted>
0.4691

> <Gold.Chemscore.Rot.Weighted>
5.4157

> <Gold.Chemscore.Internal.Correction.Weighted>
   9.000000E+99

> <Gold.Protein.RotatedTorsions>
[ 6907 6896 6895 6894 ] final  154.50 input  -60.11 | X-H torsion
[ 7974 7965 7964 7962 ] final    7.04 input  175.53 | X-H torsion
[ 8008 7997 7996 7995 ] final  -22.68 input   59.86 | X-H torsion
[ 10167 10162 10161 10158 ] final    9.68 input  -65.29 | X-H torsion
[ 10718 10713 10712 10709 ] final   50.82 input   66.30 | X-H torsion
[ 10763 10752 10751 10750 ] final  160.84 input  -60.55 | X-H torsion
[ 11005 11000 10999 10996 ] final  178.93 input  -57.11 | X-H torsion

> <Gold.Protein.ActiveResidues>
 VAL166  LYS551  ARG553  GLY616  TRP617  ASP618  TYR619  PRO620  LYS621  CYS622 
 ASP623  PHE694  ASN695  SER759  ASP760  ASP761  ALA762  ILE779  LEU786  VAL792 
 PHE793  MET794  SER795  GLU796  ALA797  LYS798  CYS799  TRP800  GLU811  SER814 

> <Gold.Protein.RotatedAtoms>
  152.0576  133.4047  159.4403 H   0  0  0  0  0  0  0  0  0  0  0  0  # atno 6907 bound_to 6896
  150.6867  134.3237  159.4807 H   0  0  0  0  0  0  0  0  0  0  0  0  # atno 6908 bound_to 6896
  152.1054  134.9311  160.0619 H   0  0  0  0  0  0  0  0  0  0  0  0  # atno 6909 bound_to 6896
  146.2430  140.0142  142.8404 H   0  0  0  0  0  0  0  0  0  0  0  0  # atno 7974 bound_to 7965
  154.4629  140.2001  156.0195 H   0  0  0  0  0  0  0  0  0  0  0  0  # atno 8008 bound_to 7997
  156.0874  140.3263  155.7743 H   0  0  0  0  0  0  0  0  0  0  0  0  # atno 8009 bound_to 7997
  155.5012  140.0554  157.2929 H   0  0  0  0  0  0  0  0  0  0  0  0  # atno 8010 bound_to 7997
  140.6240  143.8141  150.7210 H   0  0  0  0  0  0  0  0  0  0  0  0  # atno 10167 bound_to 10162
  157.4921  130.8383  149.8215 H   0  0  0  0  0  0  0  0  0  0  0  0  # atno 10718 bound_to 10713
  154.2537  135.2770  155.2806 H   0  0  0  0  0  0  0  0  0  0  0  0  # atno 10763 bound_to 10752
  154.5443  135.5693  153.6870 H   0  0  0  0  0  0  0  0  0  0  0  0  # atno 10764 bound_to 10752
  152.9975  135.6259  154.2685 H   0  0  0  0  0  0  0  0  0  0  0  0  # atno 10765 bound_to 10752
  140.4006  134.6781  157.4559 H   0  0  0  0  0  0  0  0  0  0  0  0  # atno 11005 bound_to 11000
  145.1300  140.9512  143.4550 LP  0  0  0  0  0  0  0  0  0  0  0  0  # atno 17320 bound_to 7965
  145.0397  139.3270  143.5983 LP  0  0  0  0  0  0  0  0  0  0  0  0  # atno 17321 bound_to 7965
  140.1738  143.4172  152.1982 LP  0  0  0  0  0  0  0  0  0  0  0  0  # atno 17342 bound_to 10162
  139.5464  144.7301  151.4571 LP  0  0  0  0  0  0  0  0  0  0  0  0  # atno 17343 bound_to 10162
  156.0179  130.3806  150.2052 LP  0  0  0  0  0  0  0  0  0  0  0  0  # atno 17370 bound_to 10713
  157.0241  130.9988  151.3331 LP  0  0  0  0  0  0  0  0  0  0  0  0  # atno 17371 bound_to 10713
  140.0339  134.6365  155.9069 LP  0  0  0  0  0  0  0  0  0  0  0  0  # atno 17394 bound_to 11000
  141.1858  133.6556  156.5213 LP  0  0  0  0  0  0  0  0  0  0  0  0  # atno 17395 bound_to 11000

$$$$
