AV-unprocessed.smi:1304|AV-procd|sdf|5431|dock6
  -GOLD-   22720 4593D 1   1.00000     0.00000
 Structure written by MMmdl.
 48 49  0  0  0  0  0  0  0  0  2 V2000
  147.5007  138.9771  153.1766 C   0  0  0  0  0  0  0  0  0  0  0  0
  147.9137  138.8258  154.6518 C   0  0  0  0  0  0  0  0  0  0  0  0
  149.2003  137.9816  154.9055 C   0  0  1  0  0  0  0  0  0  0  0  0
  150.3086  138.5298  153.9675 C   0  0  0  0  0  0  0  0  0  0  0  0
  149.6556  138.1677  156.3833 C   0  0  0  0  0  0  0  0  0  0  0  0
  149.5370  139.5475  156.8460 N   0  0  0  0  0  0  0  0  0  0  0  0
  150.4610  140.4969  156.6439 C   0  0  0  0  0  0  0  0  0  0  0  0
  151.5105  140.2906  156.0331 O   0  0  0  0  0  0  0  0  0  0  0  0
  150.1313  141.8848  157.2128 C   0  0  0  0  0  0  0  0  0  0  0  0
  151.2292  142.4762  157.9961 N   0  0  0  0  0  0  0  0  0  0  0  0
  151.6035  143.7967  157.6766 C   0  0  0  0  0  0  0  0  0  0  0  0
  152.5961  144.4293  158.3219 C   0  0  0  0  0  0  0  0  0  0  0  0
  153.2889  143.7199  159.3713 C   0  0  0  0  0  0  0  0  0  0  0  0
  152.9412  142.4554  159.6828 C   0  0  0  0  0  0  0  0  0  0  0  0
  151.8577  141.7593  158.9787 C   0  0  0  0  0  0  0  0  0  0  0  0
  151.5356  140.6030  159.2538 O   0  0  0  0  0  0  0  0  0  0  0  0
  148.9318  136.5266  154.6084 N   0  3  0  0  0  0  0  0  0  0  0  0
  150.0006  135.5669  155.0075 C   0  0  0  0  0  0  0  0  0  0  0  0
  149.6853  134.1566  154.4798 C   0  0  0  0  0  0  0  0  0  0  0  0
  148.4161  133.7334  154.9574 O   0  0  0  0  0  0  0  0  0  0  0  0
  147.3746  134.5891  154.5096 C   0  0  0  0  0  0  0  0  0  0  0  0
  147.6078  136.0071  155.0543 C   0  0  0  0  0  0  0  0  0  0  0  0
  146.5983  139.5832  153.0950 H   0  0  0  0  0  0  0  0  0  0  0  0
  147.2853  138.0143  152.7132 H   0  0  0  0  0  0  0  0  0  0  0  0
  148.2736  139.4699  152.5872 H   0  0  0  0  0  0  0  0  0  0  0  0
  148.0476  139.8287  155.0588 H   0  0  0  0  0  0  0  0  0  0  0  0
  147.0729  138.4191  155.2132 H   0  0  0  0  0  0  0  0  0  0  0  0
  150.3627  139.6186  153.9982 H   0  0  0  0  0  0  0  0  0  0  0  0
  150.1381  138.2468  152.9286 H   0  0  0  0  0  0  0  0  0  0  0  0
  151.2979  138.1685  154.2496 H   0  0  0  0  0  0  0  0  0  0  0  0
  149.0591  137.5522  157.0571 H   0  0  0  0  0  0  0  0  0  0  0  0
  150.6920  137.8499  156.5029 H   0  0  0  0  0  0  0  0  0  0  0  0
  148.7014  139.7942  157.3562 H   0  0  0  0  0  0  0  0  0  0  0  0
  149.8635  142.5397  156.3824 H   0  0  0  0  0  0  0  0  0  0  0  0
  149.2282  141.8141  157.8221 H   0  0  0  0  0  0  0  0  0  0  0  0
  151.0411  144.2536  156.8754 H   0  0  0  0  0  0  0  0  0  0  0  0
  152.8721  145.4402  158.0599 H   0  0  0  0  0  0  0  0  0  0  0  0
  154.0915  144.2046  159.9075 H   0  0  0  0  0  0  0  0  0  0  0  0
  153.4729  141.9398  160.4691 H   0  0  0  0  0  0  0  0  0  0  0  0
  150.9708  135.8547  154.6071 H   0  0  0  0  0  0  0  0  0  0  0  0
  150.0949  135.5374  156.0932 H   0  0  0  0  0  0  0  0  0  0  0  0
  149.7019  134.1368  153.3887 H   0  0  0  0  0  0  0  0  0  0  0  0
  150.4426  133.4507  154.8212 H   0  0  0  0  0  0  0  0  0  0  0  0
  147.3265  134.5910  153.4194 H   0  0  0  0  0  0  0  0  0  0  0  0
  146.4218  134.2009  154.8700 H   0  0  0  0  0  0  0  0  0  0  0  0
  147.5585  135.9800  156.1430 H   0  0  0  0  0  0  0  0  0  0  0  0
  146.7919  136.6400  154.7108 H   0  0  0  0  0  0  0  0  0  0  0  0
  148.9070  136.4792  153.5997 H   0  0  0  0  0  0  0  0  0  0  0  0
  1  2  1  0  0  0  0
  1 23  1  0  0  0  0
  1 24  1  0  0  0  0
  1 25  1  0  0  0  0
  2  3  1  0  0  0  0
  2 26  1  0  0  0  0
  2 27  1  0  0  0  0
  3  4  1  0  0  0  0
  3  5  1  0  0  0  0
  3 17  1  0  0  0  0
  4 28  1  0  0  0  0
  4 29  1  0  0  0  0
  4 30  1  0  0  0  0
  5  6  1  0  0  0  0
  5 31  1  0  0  0  0
  5 32  1  0  0  0  0
  6  7  1  0  0  0  0
  6 33  1  0  0  0  0
  7  8  2  0  0  0  0
  7  9  1  0  0  0  0
  9 10  1  0  0  0  0
  9 34  1  0  0  0  0
  9 35  1  0  0  0  0
 10 15  1  0  0  0  0
 10 11  1  0  0  0  0
 11 12  2  0  0  0  0
 11 36  1  0  0  0  0
 12 13  1  0  0  0  0
 12 37  1  0  0  0  0
 13 14  2  0  0  0  0
 13 38  1  0  0  0  0
 14 15  1  0  0  0  0
 14 39  1  0  0  0  0
 15 16  2  0  0  0  0
 17 22  1  0  0  0  0
 17 18  1  0  0  0  0
 17 48  1  0  0  0  0
 18 19  1  0  0  0  0
 18 40  1  0  0  0  0
 18 41  1  0  0  0  0
 19 20  1  0  0  0  0
 19 42  1  0  0  0  0
 19 43  1  0  0  0  0
 20 21  1  0  0  0  0
 21 22  1  0  0  0  0
 21 44  1  0  0  0  0
 21 45  1  0  0  0  0
 22 46  1  0  0  0  0
 22 47  1  0  0  0  0
M  CHG  1  17   1
M  END
> <s_m_source_file>
AV-unprocessed.smi

> <i_m_source_file_index>
1304

> <i_lp_mmshare_version>
43012

> <i_f3d_flags>
0

> <s_epik_input>
W0NIMl0xW0NIMl1PW0NIMl1bQ0gyXU4xW0NAQF0oW0NIM10pKFtDSDJdW0NIM10pW0NIMl1bTkhdQyg9TylbQ0gyXW4yW2NIXVtjSF1bY0hdW2NIXWMyPU8=

> <s_epik_cmdline>
J2VwaWtfcHl0aG9uJywgJy1waCcsICc3LjAnLCAnLXRuJywgJzgnLCAnLW1hJywgJzIwMCcsICctbWV0YWxfYmluZGluZycsICctaW1hZScsICc8aW5maWxlLm1hZT4nLCAnLW9tYWUnLCAnPG91dGZpbGUubWFlPic=

> <r_lp_tautomer_probability>
1

> <r_epik_Ionization_Penalty>
0.519658

> <r_epik_Ionization_Penalty_Charging>
0.519658

> <r_epik_Ionization_Penalty_Neutral>
8.70177e-08

> <r_epik_State_Penalty>
0.527569

> <r_epik_Charging_Adjusted_Penalty>
1.04723

> <i_epik_Tot_Q>
1

> <i_epik_Tot_abs_Q>
1

> <r_epik_Metal_State_Penalty>
0.527613

> <b_epik_Metal_Only>
0

> <s_lp_Force_Field>
OPLS_2005

> <r_lp_Energy>
38.623

> <b_lp_Chiralities_Consistent>
1

> <s_lp_Variant>
AV-unprocessed.smi:1304-3

> <Gold.Version>
5.8.1

> <Gold.Id.Protein>
6NUR|6NUR_protein|mol2

> <Gold.PLP.Fitness>
43.0382

> <Gold.PLP.PLP>
-35.9681

> <Gold.PLP.part.hbond>
-1.0000

> <Gold.PLP.part.metal>
0.0000

> <Gold.PLP.part.buried>
-4.4602

> <Gold.PLP.part.nonpolar>
-31.7073

> <Gold.PLP.part.repulsive>
0.0744

> <Gold.PLP.ligand.clash>
0.0000

> <Gold.PLP.ligand.torsion>
1.0496

> <Gold.PLP.Chemscore.Hbond>
2.0000

> <Gold.PLP.Chemscore.CHOScore>
1.0000

> <Gold.PLP.Chemscore.Metal>
0.0000

> <Gold.Chemscore.Hbonds>
donor molecule, donor type, donor heavy atom, donor atom, acceptor molecule, acceptor atom, score
      L1  H    17    48       P1  7948  2.00
      L1  C    11    36       P1  8028  1.00

> <Gold.PLP.Chemscore.Internal.Correction>
0.1693

> <Gold.Rescore>
     Score         DG    S(hbond)    S(metal)    S(lipo)     H(rot)  DE(clash)    DE(int)     intcor
     12.71     -16.79       1.36        0.00     102.20       2.03       0.37       3.71       ----

> <Gold.Chemscore.Fitness>
12.7133

> <Gold.Chemscore.DG>
-16.7938

> <Gold.Chemscore.ZeroCoef>
-5.4800

> <Gold.Chemscore.Hbond>
1.3631

> <Gold.Chemscore.Metal>
0.0000

> <Gold.Chemscore.Lipo>
102.2000

> <Gold.Chemscore.Internal_Hbond>
0.0000

> <Gold.Chemscore.DEClash>
0.3714

> <Gold.Chemscore.DEInternal>
3.7091

> <Gold.Chemscore.Rot>
2.0298

> <Gold.Chemscore.Internal.Correction>
   9.000000E+99

> <Gold.Chemscore.Hbonds>
donor molecule, donor type, donor heavy atom, donor atom, acceptor molecule, acceptor atom, score
      L1  H    17    48       P1  7948  1.00

> <Gold.Chemscore.Hbond.Weighted>
-4.5526

> <Gold.Chemscore.Metal.Weighted>
-0.0000

> <Gold.Chemscore.Lipo.Weighted>
-11.9574

> <Gold.Chemscore.Internal_Hbond.Weighted>
0.0000

> <Gold.Chemscore.DEClash.Weighted>
0.3714

> <Gold.Chemscore.DEInternal.Weighted>
3.7091

> <Gold.Chemscore.Rot.Weighted>
5.1962

> <Gold.Chemscore.Internal.Correction.Weighted>
   9.000000E+99

> <Gold.Protein.RotatedTorsions>
[ 6907 6896 6895 6894 ] final   57.25 input  -60.11 | X-H torsion
[ 7974 7965 7964 7962 ] final  -10.37 input  175.53 | X-H torsion
[ 8008 7997 7996 7995 ] final -154.96 input   59.86 | X-H torsion
[ 10167 10162 10161 10158 ] final  -31.61 input  -65.29 | X-H torsion
[ 10718 10713 10712 10709 ] final    0.20 input   66.30 | X-H torsion
[ 10763 10752 10751 10750 ] final  -27.78 input  -60.55 | X-H torsion
[ 11005 11000 10999 10996 ] final -162.90 input  -57.11 | X-H torsion

> <Gold.Protein.ActiveResidues>
 VAL166  LYS551  ARG553  GLY616  TRP617  ASP618  TYR619  PRO620  LYS621  CYS622 
 ASP623  PHE694  ASN695  SER759  ASP760  ASP761  ALA762  ILE779  LEU786  VAL792 
 PHE793  MET794  SER795  GLU796  ALA797  LYS798  CYS799  TRP800  GLU811  SER814 

> <Gold.Protein.RotatedAtoms>
  152.3714  134.6728  160.0174 H   0  0  0  0  0  0  0  0  0  0  0  0  # atno 6907 bound_to 6896
  151.7020  133.3306  159.3277 H   0  0  0  0  0  0  0  0  0  0  0  0  # atno 6908 bound_to 6896
  150.7676  134.6542  159.6349 H   0  0  0  0  0  0  0  0  0  0  0  0  # atno 6909 bound_to 6896
  146.2223  140.2754  142.8359 H   0  0  0  0  0  0  0  0  0  0  0  0  # atno 7974 bound_to 7965
  155.6944  140.0759  157.2435 H   0  0  0  0  0  0  0  0  0  0  0  0  # atno 8008 bound_to 7997
  154.4083  140.1659  156.2175 H   0  0  0  0  0  0  0  0  0  0  0  0  # atno 8009 bound_to 7997
  155.9423  140.3383  155.6341 H   0  0  0  0  0  0  0  0  0  0  0  0  # atno 8010 bound_to 7997
  140.7233  143.3757  151.1694 H   0  0  0  0  0  0  0  0  0  0  0  0  # atno 10167 bound_to 10162
  156.8299  130.5485  149.5688 H   0  0  0  0  0  0  0  0  0  0  0  0  # atno 10718 bound_to 10713
  153.7377  135.6934  153.4974 H   0  0  0  0  0  0  0  0  0  0  0  0  # atno 10763 bound_to 10752
  153.2091  135.4409  155.0357 H   0  0  0  0  0  0  0  0  0  0  0  0  # atno 10764 bound_to 10752
  154.8231  135.3432  154.6904 H   0  0  0  0  0  0  0  0  0  0  0  0  # atno 10765 bound_to 10752
  140.6041  134.4917  157.5208 H   0  0  0  0  0  0  0  0  0  0  0  0  # atno 11005 bound_to 11000
  144.9237  140.7897  143.5732 LP  0  0  0  0  0  0  0  0  0  0  0  0  # atno 17320 bound_to 7965
  145.2692  139.1961  143.4850 LP  0  0  0  0  0  0  0  0  0  0  0  0  # atno 17321 bound_to 7965
  139.7337  143.9032  152.3028 LP  0  0  0  0  0  0  0  0  0  0  0  0  # atno 17342 bound_to 10162
  139.8830  144.7007  150.8856 LP  0  0  0  0  0  0  0  0  0  0  0  0  # atno 17343 bound_to 10162
  156.0940  130.5918  150.9782 LP  0  0  0  0  0  0  0  0  0  0  0  0  # atno 17370 bound_to 10713
  157.6412  131.0910  150.8247 LP  0  0  0  0  0  0  0  0  0  0  0  0  # atno 17371 bound_to 10713
  139.9220  134.8130  156.1183 LP  0  0  0  0  0  0  0  0  0  0  0  0  # atno 17394 bound_to 11000
  141.0852  133.6737  156.2422 LP  0  0  0  0  0  0  0  0  0  0  0  0  # atno 17395 bound_to 11000

$$$$
