AV-unprocessed.smi:473|AV-procd|sdf|2662|dock10
  -GOLD-   2262023 73D 1   1.00000     0.00000
 Structure written by MMmdl.
 42 44  0  0  0  0  0  0  0  0  1 V2000
  151.4726  144.3759  158.6438 C   0  0  0  0  0  0  0  0  0  0  0  0
  151.7237  142.9392  158.2205 C   0  0  0  0  0  0  0  0  0  0  0  0
  151.1779  142.4759  157.0019 C   0  0  0  0  0  0  0  0  0  0  0  0
  151.3932  141.1487  156.5701 C   0  0  0  0  0  0  0  0  0  0  0  0
  150.9663  140.4937  155.4274 N   0  0  0  0  0  0  0  0  0  0  0  0
  151.4913  139.2838  155.5995 C   0  0  0  0  0  0  0  0  0  0  0  0
  152.2094  139.0774  156.7201 N   0  0  0  0  0  0  0  0  0  0  0  0
  152.8747  137.8510  157.1209 C   0  0  0  0  0  0  0  0  0  0  0  0
  152.2280  137.2105  158.3655 C   0  0  1  0  0  0  0  0  0  0  0  0
  153.0298  137.3848  159.5170 O   0  0  0  0  0  0  0  0  0  0  0  0
  150.8099  137.7281  158.6578 C   0  0  0  0  0  0  0  0  0  0  0  0
  150.2173  136.9587  159.6916 O   0  0  0  0  0  0  0  0  0  0  0  0
  148.8648  136.6234  159.4282 C   0  0  0  0  0  0  0  0  0  0  0  0
  148.2134  136.2878  160.7325 C   0  0  0  0  0  0  0  0  0  0  0  0
  147.7839  135.1106  161.2802 C   0  0  0  0  0  0  0  0  0  0  0  0
  147.2510  135.4305  162.5596 C   0  0  0  0  0  0  0  0  0  0  0  0
  147.3992  136.7804  162.7022 C   0  0  0  0  0  0  0  0  0  0  0  0
  147.9855  137.3186  161.5986 O   0  0  0  0  0  0  0  0  0  0  0  0
  152.1727  140.2903  157.3992 C   0  0  0  0  0  0  0  0  0  0  0  0
  152.7192  140.7387  158.6143 C   0  0  0  0  0  0  0  0  0  0  0  0
  152.4968  142.0681  159.0295 C   0  0  0  0  0  0  0  0  0  0  0  0
  153.0961  142.5435  160.3410 C   0  0  0  0  0  0  0  0  0  0  0  0
  150.8583  144.9047  157.9146 H   0  0  0  0  0  0  0  0  0  0  0  0
  152.4154  144.9150  158.7401 H   0  0  0  0  0  0  0  0  0  0  0  0
  150.9556  144.4081  159.6030 H   0  0  0  0  0  0  0  0  0  0  0  0
  150.5895  143.1390  156.3850 H   0  0  0  0  0  0  0  0  0  0  0  0
  151.3484  138.5023  154.8677 H   0  0  0  0  0  0  0  0  0  0  0  0
  152.8581  137.1609  156.2765 H   0  0  0  0  0  0  0  0  0  0  0  0
  153.9238  138.0765  157.3164 H   0  0  0  0  0  0  0  0  0  0  0  0
  152.1622  136.1337  158.2050 H   0  0  0  0  0  0  0  0  0  0  0  0
  153.4514  138.2289  159.4634 H   0  0  0  0  0  0  0  0  0  0  0  0
  150.8672  138.7680  158.9827 H   0  0  0  0  0  0  0  0  0  0  0  0
  150.1968  137.7064  157.7550 H   0  0  0  0  0  0  0  0  0  0  0  0
  148.3490  137.4612  158.9570 H   0  0  0  0  0  0  0  0  0  0  0  0
  148.8084  135.7695  158.7518 H   0  0  0  0  0  0  0  0  0  0  0  0
  147.8446  134.1378  160.8153 H   0  0  0  0  0  0  0  0  0  0  0  0
  146.8157  134.7581  163.2842 H   0  0  0  0  0  0  0  0  0  0  0  0
  147.1552  137.4840  163.4846 H   0  0  0  0  0  0  0  0  0  0  0  0
  153.3085  140.0647  159.2188 H   0  0  0  0  0  0  0  0  0  0  0  0
  153.6484  141.7453  160.8380 H   0  0  0  0  0  0  0  0  0  0  0  0
  152.3127  142.8803  161.0205 H   0  0  0  0  0  0  0  0  0  0  0  0
  153.7858  143.3698  160.1679 H   0  0  0  0  0  0  0  0  0  0  0  0
  1  2  1  0  0  0  0
  1 23  1  0  0  0  0
  1 24  1  0  0  0  0
  1 25  1  0  0  0  0
  2 21  1  0  0  0  0
  2  3  2  0  0  0  0
  3  4  1  0  0  0  0
  3 26  1  0  0  0  0
  4 19  2  0  0  0  0
  4  5  1  0  0  0  0
  5  6  2  0  0  0  0
  6  7  1  0  0  0  0
  6 27  1  0  0  0  0
  7  8  1  0  0  0  0
  7 19  1  0  0  0  0
  8  9  1  0  0  0  0
  8 28  1  0  0  0  0
  8 29  1  0  0  0  0
  9 10  1  0  0  0  0
  9 11  1  0  0  0  0
  9 30  1  0  0  0  0
 10 31  1  0  0  0  0
 11 12  1  0  0  0  0
 11 32  1  0  0  0  0
 11 33  1  0  0  0  0
 12 13  1  0  0  0  0
 13 14  1  0  0  0  0
 13 34  1  0  0  0  0
 13 35  1  0  0  0  0
 14 18  1  0  0  0  0
 14 15  2  0  0  0  0
 15 16  1  0  0  0  0
 15 36  1  0  0  0  0
 16 17  2  0  0  0  0
 16 37  1  0  0  0  0
 17 18  1  0  0  0  0
 17 38  1  0  0  0  0
 19 20  1  0  0  0  0
 20 21  2  0  0  0  0
 20 39  1  0  0  0  0
 21 22  1  0  0  0  0
 22 40  1  0  0  0  0
 22 41  1  0  0  0  0
 22 42  1  0  0  0  0
M  END
> <s_m_source_file>
AV-unprocessed.smi

> <i_m_source_file_index>
473

> <i_lp_mmshare_version>
43012

> <i_f3d_flags>
0

> <s_epik_input>
W0NIM11jKFtjSF0xKWMoW0NIM10pW2NIXWMoYzEyKW4oW2NIXW4yKVtDSDJdW0NASF0oW09IXSlbQ0gyXU9bQ0gyXWMzW2NIXVtjSF1bY0hdbzM=

> <s_epik_cmdline>
J2VwaWtfcHl0aG9uJywgJy1waCcsICc3LjAnLCAnLXRuJywgJzgnLCAnLW1hJywgJzIwMCcsICctbWV0YWxfYmluZGluZycsICctaW1hZScsICc8aW5maWxlLm1hZT4nLCAnLW9tYWUnLCAnPG91dGZpbGUubWFlPic=

> <r_epik_Ionization_Penalty>
0.112477

> <r_epik_Ionization_Penalty_Charging>
0

> <r_epik_Ionization_Penalty_Neutral>
0.112477

> <r_epik_State_Penalty>
0.102177

> <r_epik_Charging_Adjusted_Penalty>
0.102177

> <i_epik_Tot_Q>
0

> <i_epik_Tot_abs_Q>
0

> <r_epik_Metal_State_Penalty>
0.000111506

> <b_epik_Metal_Only>
0

> <s_lp_Force_Field>
OPLS_2005

> <r_lp_Energy>
9.30743

> <b_lp_Chiralities_Consistent>
1

> <s_lp_Variant>
AV-unprocessed.smi:473-2

> <Gold.Version>
5.8.1

> <Gold.Id.Protein>
6NUR|6NUR_protein|mol2

> <Gold.PLP.Fitness>
56.0752

> <Gold.PLP.PLP>
-47.3852

> <Gold.PLP.part.hbond>
-3.9038

> <Gold.PLP.part.metal>
0.0000

> <Gold.PLP.part.buried>
-6.5727

> <Gold.PLP.part.nonpolar>
-37.3332

> <Gold.PLP.part.repulsive>
0.0391

> <Gold.PLP.ligand.clash>
0.0000

> <Gold.PLP.ligand.torsion>
1.2290

> <Gold.PLP.Chemscore.Hbond>
3.6947

> <Gold.PLP.Chemscore.CHOScore>
0.0000

> <Gold.PLP.Chemscore.Metal>
0.0000

> <Gold.Chemscore.Hbonds>
donor molecule, donor type, donor heavy atom, donor atom, acceptor molecule, acceptor atom, score
      P1  H  6896  6907       L1    12  0.86
      P1  H  6931  6943       L1    18  0.76
      P1  H  6934  6947       L1    18  0.59
      P1  H  7989  7998       L1     5  0.86

> <Gold.PLP.Chemscore.Internal.Correction>
0.0636

> <Gold.Rescore>
     Score         DG    S(hbond)    S(metal)    S(lipo)     H(rot)  DE(clash)    DE(int)     intcor
     21.63     -22.96       3.00        0.00     116.32       2.41       0.00       1.33       ----

> <Gold.Chemscore.Fitness>
21.6313

> <Gold.Chemscore.DG>
-22.9574

> <Gold.Chemscore.ZeroCoef>
-5.4800

> <Gold.Chemscore.Hbond>
3.0041

> <Gold.Chemscore.Metal>
0.0000

> <Gold.Chemscore.Lipo>
116.3168

> <Gold.Chemscore.Internal_Hbond>
0.0000

> <Gold.Chemscore.DEClash>
0.0000

> <Gold.Chemscore.DEInternal>
1.3261

> <Gold.Chemscore.Rot>
2.4083

> <Gold.Chemscore.Internal.Correction>
   9.000000E+99

> <Gold.Chemscore.Hbonds>
donor molecule, donor type, donor heavy atom, donor atom, acceptor molecule, acceptor atom, score
      P1  H  6896  6907       L1    12  0.21
      P1  H  6931  6943       L1    18  0.61
      P1  H  6934  6947       L1    18  0.53
      P1  H  7989  7998       L1     5  0.20

> <Gold.Chemscore.Hbond.Weighted>
-10.0336

> <Gold.Chemscore.Metal.Weighted>
-0.0000

> <Gold.Chemscore.Lipo.Weighted>
-13.6091

> <Gold.Chemscore.Internal_Hbond.Weighted>
0.0000

> <Gold.Chemscore.DEClash.Weighted>
0.0000

> <Gold.Chemscore.DEInternal.Weighted>
1.3261

> <Gold.Chemscore.Rot.Weighted>
6.1653

> <Gold.Chemscore.Internal.Correction.Weighted>
   9.000000E+99

> <Gold.Protein.RotatedTorsions>
[ 6907 6896 6895 6894 ] final  -31.37 input  -60.11 | X-H torsion
[ 7974 7965 7964 7962 ] final -127.41 input  175.53 | X-H torsion
[ 8008 7997 7996 7995 ] final  -49.52 input   59.86 | X-H torsion
[ 10167 10162 10161 10158 ] final  -37.92 input  -65.29 | X-H torsion
[ 10718 10713 10712 10709 ] final   33.98 input   66.30 | X-H torsion
[ 10763 10752 10751 10750 ] final  -41.01 input  -60.55 | X-H torsion
[ 11005 11000 10999 10996 ] final   28.08 input  -57.11 | X-H torsion

> <Gold.Protein.ActiveResidues>
 VAL166  LYS551  ARG553  GLY616  TRP617  ASP618  TYR619  PRO620  LYS621  CYS622 
 ASP623  PHE694  ASN695  SER759  ASP760  ASP761  ALA762  ILE779  LEU786  VAL792 
 PHE793  MET794  SER795  GLU796  ALA797  LYS798  CYS799  TRP800  GLU811  SER814 

> <Gold.Protein.RotatedAtoms>
  151.0930  134.9927  159.8411 H   0  0  0  0  0  0  0  0  0  0  0  0  # atno 6907 bound_to 6896
  152.5431  134.2042  159.8734 H   0  0  0  0  0  0  0  0  0  0  0  0  # atno 6908 bound_to 6896
  151.2079  133.4528  159.2631 H   0  0  0  0  0  0  0  0  0  0  0  0  # atno 6909 bound_to 6896
  144.9774  140.7606  143.4633 H   0  0  0  0  0  0  0  0  0  0  0  0  # atno 7974 bound_to 7965
  154.4045  140.1295  156.4515 H   0  0  0  0  0  0  0  0  0  0  0  0  # atno 8008 bound_to 7997
  155.7361  140.3490  155.5062 H   0  0  0  0  0  0  0  0  0  0  0  0  # atno 8009 bound_to 7997
  155.9082  140.1031  157.1289 H   0  0  0  0  0  0  0  0  0  0  0  0  # atno 8010 bound_to 7997
  140.7106  143.3310  151.2569 H   0  0  0  0  0  0  0  0  0  0  0  0  # atno 10167 bound_to 10162
  157.3046  130.7368  149.6687 H   0  0  0  0  0  0  0  0  0  0  0  0  # atno 10718 bound_to 10713
  153.9555  135.6745  153.4744 H   0  0  0  0  0  0  0  0  0  0  0  0  # atno 10763 bound_to 10752
  153.0864  135.4897  154.8601 H   0  0  0  0  0  0  0  0  0  0  0  0  # atno 10764 bound_to 10752
  154.7302  135.3136  154.8864 H   0  0  0  0  0  0  0  0  0  0  0  0  # atno 10765 bound_to 10752
  140.3194  134.2560  155.7720 H   0  0  0  0  0  0  0  0  0  0  0  0  # atno 11005 bound_to 11000
  145.2471  139.2047  143.4962 LP  0  0  0  0  0  0  0  0  0  0  0  0  # atno 17320 bound_to 7965
  146.3399  140.2377  142.8595 LP  0  0  0  0  0  0  0  0  0  0  0  0  # atno 17321 bound_to 7965
  139.6792  143.9884  152.2799 LP  0  0  0  0  0  0  0  0  0  0  0  0  # atno 17342 bound_to 10162
  139.9508  144.6621  150.8174 LP  0  0  0  0  0  0  0  0  0  0  0  0  # atno 17343 bound_to 10162
  155.9673  130.4269  150.4722 LP  0  0  0  0  0  0  0  0  0  0  0  0  # atno 17370 bound_to 10713
  157.2709  131.0587  151.2260 LP  0  0  0  0  0  0  0  0  0  0  0  0  # atno 17371 bound_to 10713
  141.2090  133.7761  157.0024 LP  0  0  0  0  0  0  0  0  0  0  0  0  # atno 17394 bound_to 11000
  140.0955  134.9567  157.1842 LP  0  0  0  0  0  0  0  0  0  0  0  0  # atno 17395 bound_to 11000

$$$$
