AV-unprocessed.smi:199|AV-procd|sdf|1572|dock4
  -GOLD-   2262019453D 1   1.00000     0.00000
 Structure written by MMmdl.
 51 55  0  0  0  0  0  0  0  0  1 V2000
  146.9199  133.2967  161.8852 C   0  0  0  0  0  0  0  0  0  0  0  0
  146.4625  134.6976  162.3211 C   0  0  2  0  0  0  0  0  0  0  0  0
  145.0518  134.6533  162.5189 O   0  0  0  0  0  0  0  0  0  0  0  0
  144.5164  135.9383  162.2593 C   0  0  0  0  0  0  0  0  0  0  0  0
  145.3001  136.3727  161.0303 C   0  0  0  0  0  0  0  0  0  0  0  0
  146.7099  135.8621  161.3198 C   0  0  1  0  0  0  0  0  0  0  0  0
  147.4059  136.8835  162.0141 O   0  0  0  0  0  0  0  0  0  0  0  0
  147.5180  135.5150  160.0415 C   0  0  0  0  0  0  0  0  0  0  0  0
  147.8959  136.6829  159.2594 N   0  0  0  0  0  0  0  0  0  0  0  0
  147.0452  137.6146  158.7098 C   0  0  0  0  0  0  0  0  0  0  0  0
  147.6273  138.5795  158.0531 N   0  0  0  0  0  0  0  0  0  0  0  0
  148.9832  138.2860  158.1405 C   0  0  0  0  0  0  0  0  0  0  0  0
  150.1704  138.9073  157.6565 C   0  0  0  0  0  0  0  0  0  0  0  0
  150.1715  140.0501  156.9195 N   0  0  0  0  0  0  0  0  0  0  0  0
  151.4040  140.7487  156.5911 C   0  0  2  0  0  0  0  0  0  0  0  0
  150.8768  142.0613  155.9853 C   0  0  0  0  0  0  0  0  0  0  0  0
  149.6060  141.5737  155.2681 C   0  0  0  0  0  0  0  0  0  0  0  0
  149.6547  140.0627  155.5587 C   0  0  1  0  0  0  0  0  0  0  0  0
  150.7772  139.4342  154.6942 C   0  0  2  0  0  0  0  0  0  0  0  0
  150.6625  137.9070  154.5248 C   0  0  0  0  0  0  0  0  0  0  0  0
  149.3739  137.5654  154.0607 O   0  0  0  0  0  0  0  0  0  0  0  0
  152.0288  139.8910  155.4717 C   0  0  0  0  0  0  0  0  0  0  0  0
  151.3546  138.3228  157.9791 N   0  0  0  0  0  0  0  0  0  0  0  0
  151.3815  137.1967  158.6969 C   0  0  0  0  0  0  0  0  0  0  0  0
  150.3585  136.5030  159.1981 N   0  0  0  0  0  0  0  0  0  0  0  0
  149.1672  137.0939  158.8982 C   0  0  0  0  0  0  0  0  0  0  0  0
  147.9968  133.2625  161.7206 H   0  0  0  0  0  0  0  0  0  0  0  0
  146.4228  132.9789  160.9687 H   0  0  0  0  0  0  0  0  0  0  0  0
  146.6847  132.5604  162.6539 H   0  0  0  0  0  0  0  0  0  0  0  0
  146.9211  134.9229  163.2862 H   0  0  0  0  0  0  0  0  0  0  0  0
  143.4411  135.9000  162.0838 H   0  0  0  0  0  0  0  0  0  0  0  0
  144.7087  136.5995  163.1056 H   0  0  0  0  0  0  0  0  0  0  0  0
  144.8887  135.8642  160.1575 H   0  0  0  0  0  0  0  0  0  0  0  0
  145.2474  137.4464  160.8445 H   0  0  0  0  0  0  0  0  0  0  0  0
  147.2450  136.7809  162.9397 H   0  0  0  0  0  0  0  0  0  0  0  0
  148.4244  134.9650  160.2979 H   0  0  0  0  0  0  0  0  0  0  0  0
  146.9359  134.8635  159.3893 H   0  0  0  0  0  0  0  0  0  0  0  0
  145.9717  137.5604  158.8174 H   0  0  0  0  0  0  0  0  0  0  0  0
  152.0742  140.9170  157.4348 H   0  0  0  0  0  0  0  0  0  0  0  0
  150.6239  142.7791  156.7668 H   0  0  0  0  0  0  0  0  0  0  0  0
  151.5932  142.5303  155.3103 H   0  0  0  0  0  0  0  0  0  0  0  0
  148.7189  142.0242  155.7153 H   0  0  0  0  0  0  0  0  0  0  0  0
  149.6002  141.8059  154.2026 H   0  0  0  0  0  0  0  0  0  0  0  0
  148.6835  139.5921  155.4154 H   0  0  0  0  0  0  0  0  0  0  0  0
  150.7632  139.8834  153.6998 H   0  0  0  0  0  0  0  0  0  0  0  0
  151.4017  137.5197  153.8244 H   0  0  0  0  0  0  0  0  0  0  0  0
  150.8304  137.4065  155.4787 H   0  0  0  0  0  0  0  0  0  0  0  0
  149.4362  137.3231  153.1494 H   0  0  0  0  0  0  0  0  0  0  0  0
  152.7274  140.4540  154.8519 H   0  0  0  0  0  0  0  0  0  0  0  0
  152.5703  139.0419  155.8907 H   0  0  0  0  0  0  0  0  0  0  0  0
  152.3633  136.7946  158.8989 H   0  0  0  0  0  0  0  0  0  0  0  0
  1  2  1  0  0  0  0
  1 27  1  0  0  0  0
  1 28  1  0  0  0  0
  1 29  1  0  0  0  0
  2  6  1  0  0  0  0
  2  3  1  0  0  0  0
  2 30  1  0  0  0  0
  3  4  1  0  0  0  0
  4  5  1  0  0  0  0
  4 31  1  0  0  0  0
  4 32  1  0  0  0  0
  5  6  1  0  0  0  0
  5 33  1  0  0  0  0
  5 34  1  0  0  0  0
  6  7  1  0  0  0  0
  6  8  1  0  0  0  0
  7 35  1  0  0  0  0
  8  9  1  0  0  0  0
  8 36  1  0  0  0  0
  8 37  1  0  0  0  0
  9 26  1  0  0  0  0
  9 10  1  0  0  0  0
 10 11  2  0  0  0  0
 10 38  1  0  0  0  0
 11 12  1  0  0  0  0
 12 26  2  0  0  0  0
 12 13  1  0  0  0  0
 13 14  1  0  0  0  0
 13 23  2  0  0  0  0
 14 18  1  0  0  0  0
 14 15  1  0  0  0  0
 15 22  1  0  0  0  0
 15 16  1  0  0  0  0
 15 39  1  0  0  0  0
 16 17  1  0  0  0  0
 16 40  1  0  0  0  0
 16 41  1  0  0  0  0
 17 18  1  0  0  0  0
 17 42  1  0  0  0  0
 17 43  1  0  0  0  0
 18 19  1  0  0  0  0
 18 44  1  0  0  0  0
 19 20  1  0  0  0  0
 19 22  1  0  0  0  0
 19 45  1  0  0  0  0
 20 21  1  0  0  0  0
 20 46  1  0  0  0  0
 20 47  1  0  0  0  0
 21 48  1  0  0  0  0
 22 49  1  0  0  0  0
 22 50  1  0  0  0  0
 23 24  1  0  0  0  0
 24 25  2  0  0  0  0
 24 51  1  0  0  0  0
 25 26  1  0  0  0  0
M  END
> <s_m_source_file>
AV-unprocessed.smi

> <i_m_source_file_index>
199

> <i_lp_mmshare_version>
43012

> <i_f3d_flags>
0

> <s_epik_input>
W0NIMl0xW0NIMl1PW0NAQEhdKFtDSDNdKVtDQEBdMShbT0hdKVtDSDJdbihbY0hdbjIpYyhjMjMpbltjSF1uYzNOKFtDQEBIXTQ1KVtDQEhdKFtDSDJdW0NIMl00KVtDQEhdKFtDSDJdNSlbQ0gyXVtPSF0=

> <s_epik_cmdline>
J2VwaWtfcHl0aG9uJywgJy1waCcsICc3LjAnLCAnLXRuJywgJzgnLCAnLW1hJywgJzIwMCcsICctbWV0YWxfYmluZGluZycsICctaW1hZScsICc8aW5maWxlLm1hZT4nLCAnLW9tYWUnLCAnPG91dGZpbGUubWFlPic=

> <r_lp_tautomer_probability>
1

> <r_epik_Ionization_Penalty>
0.00583903

> <r_epik_Ionization_Penalty_Charging>
0

> <r_epik_Ionization_Penalty_Neutral>
0.00583903

> <r_epik_State_Penalty>
-0

> <r_epik_Charging_Adjusted_Penalty>
0

> <i_epik_Tot_Q>
0

> <i_epik_Tot_abs_Q>
0

> <r_epik_Metal_State_Penalty>
-0

> <b_epik_Metal_Only>
0

> <s_lp_Force_Field>
OPLS_2005

> <r_lp_Energy>
83.4582

> <b_lp_Chiralities_Consistent>
1

> <s_lp_Variant>
AV-unprocessed.smi:199-13

> <Gold.Version>
5.8.1

> <Gold.Id.Protein>
6NUR|6NUR_protein|mol2

> <Gold.PLP.Fitness>
50.6169

> <Gold.PLP.PLP>
-41.8750

> <Gold.PLP.part.hbond>
-4.0596

> <Gold.PLP.part.metal>
0.0000

> <Gold.PLP.part.buried>
-3.7380

> <Gold.PLP.part.nonpolar>
-32.7749

> <Gold.PLP.part.repulsive>
0.0135

> <Gold.PLP.ligand.clash>
0.0000

> <Gold.PLP.ligand.torsion>
0.2528

> <Gold.PLP.Chemscore.Hbond>
3.0790

> <Gold.PLP.Chemscore.CHOScore>
0.0000

> <Gold.PLP.Chemscore.Metal>
0.0000

> <Gold.Chemscore.Hbonds>
donor molecule, donor type, donor heavy atom, donor atom, acceptor molecule, acceptor atom, score
      L1  H    21    48       P1  7948  0.99
      P1  H  6896  6907       L1    25  1.00
      P1  H  6931  6943       L1     7  0.78
      P1  H  6934  6947       L1     7  0.06

> <Gold.PLP.Chemscore.Internal.Correction>
0.0105

> <Gold.Rescore>
     Score         DG    S(hbond)    S(metal)    S(lipo)     H(rot)  DE(clash)    DE(int)     intcor
     15.83     -18.15       2.93        0.00      91.78       3.07       1.34       0.98       ----

> <Gold.Chemscore.Fitness>
15.8286

> <Gold.Chemscore.DG>
-18.1478

> <Gold.Chemscore.ZeroCoef>
-5.4800

> <Gold.Chemscore.Hbond>
2.9329

> <Gold.Chemscore.Metal>
0.0000

> <Gold.Chemscore.Lipo>
91.7826

> <Gold.Chemscore.Internal_Hbond>
0.0000

> <Gold.Chemscore.DEClash>
1.3421

> <Gold.Chemscore.DEInternal>
0.9771

> <Gold.Chemscore.Rot>
3.0729

> <Gold.Chemscore.Internal.Correction>
   9.000000E+99

> <Gold.Chemscore.Hbonds>
donor molecule, donor type, donor heavy atom, donor atom, acceptor molecule, acceptor atom, score
      L1  H    21    48       P1  7948  0.86
      P1  H  6896  6907       L1    25  0.40
      P1  H  6931  6943       L1     7  0.33
      P1  H  6934  6947       L1     7  0.07

> <Gold.Chemscore.Hbond.Weighted>
-9.7960

> <Gold.Chemscore.Metal.Weighted>
-0.0000

> <Gold.Chemscore.Lipo.Weighted>
-10.7386

> <Gold.Chemscore.Internal_Hbond.Weighted>
0.0000

> <Gold.Chemscore.DEClash.Weighted>
1.3421

> <Gold.Chemscore.DEInternal.Weighted>
0.9771

> <Gold.Chemscore.Rot.Weighted>
7.8667

> <Gold.Chemscore.Internal.Correction.Weighted>
   9.000000E+99

> <Gold.Protein.RotatedTorsions>
[ 6907 6896 6895 6894 ] final  -26.12 input  -60.11 | X-H torsion
[ 7974 7965 7964 7962 ] final   -2.60 input  175.53 | X-H torsion
[ 8008 7997 7996 7995 ] final  -53.29 input   59.86 | X-H torsion
[ 10167 10162 10161 10158 ] final  150.02 input  -65.29 | X-H torsion
[ 10718 10713 10712 10709 ] final   -1.92 input   66.30 | X-H torsion
[ 10763 10752 10751 10750 ] final  171.38 input  -60.55 | X-H torsion
[ 11005 11000 10999 10996 ] final -106.15 input  -57.11 | X-H torsion

> <Gold.Protein.ActiveResidues>
 VAL166  LYS551  ARG553  GLY616  TRP617  ASP618  TYR619  PRO620  LYS621  CYS622 
 ASP623  PHE694  ASN695  SER759  ASP760  ASP761  ALA762  ILE779  LEU786  VAL792 
 PHE793  MET794  SER795  GLU796  ALA797  LYS798  CYS799  TRP800  GLU811  SER814 

> <Gold.Protein.RotatedAtoms>
  151.1654  135.0293  159.8728 H   0  0  0  0  0  0  0  0  0  0  0  0  # atno 6907 bound_to 6896
  152.5450  134.1231  159.8417 H   0  0  0  0  0  0  0  0  0  0  0  0  # atno 6908 bound_to 6896
  151.1331  133.4977  159.2631 H   0  0  0  0  0  0  0  0  0  0  0  0  # atno 6909 bound_to 6896
  146.2402  140.1596  142.8333 H   0  0  0  0  0  0  0  0  0  0  0  0  # atno 7974 bound_to 7965
  154.4129  140.1203  156.5130 H   0  0  0  0  0  0  0  0  0  0  0  0  # atno 8008 bound_to 7997
  155.6780  140.3496  155.4825 H   0  0  0  0  0  0  0  0  0  0  0  0  # atno 8009 bound_to 7997
  155.9576  140.1117  157.0913 H   0  0  0  0  0  0  0  0  0  0  0  0  # atno 8010 bound_to 7997
  139.4855  144.5555  151.7324 H   0  0  0  0  0  0  0  0  0  0  0  0  # atno 10167 bound_to 10162
  156.7984  130.5385  149.5725 H   0  0  0  0  0  0  0  0  0  0  0  0  # atno 10718 bound_to 10713
  154.4111  135.2756  155.2036 H   0  0  0  0  0  0  0  0  0  0  0  0  # atno 10763 bound_to 10752
  154.4022  135.6042  153.5907 H   0  0  0  0  0  0  0  0  0  0  0  0  # atno 10764 bound_to 10752
  152.9831  135.5929  154.4392 H   0  0  0  0  0  0  0  0  0  0  0  0  # atno 10765 bound_to 10752
  141.1019  133.8869  157.1821 H   0  0  0  0  0  0  0  0  0  0  0  0  # atno 11005 bound_to 11000
  145.0101  140.8706  143.5229 LP  0  0  0  0  0  0  0  0  0  0  0  0  # atno 17320 bound_to 7965
  145.1628  139.2449  143.5383 LP  0  0  0  0  0  0  0  0  0  0  0  0  # atno 17321 bound_to 7965
  140.5116  144.1016  150.5997 LP  0  0  0  0  0  0  0  0  0  0  0  0  # atno 17342 bound_to 10162
  140.3943  143.2736  152.0023 LP  0  0  0  0  0  0  0  0  0  0  0  0  # atno 17343 bound_to 10162
  156.1116  130.6044  151.0056 LP  0  0  0  0  0  0  0  0  0  0  0  0  # atno 17370 bound_to 10713
  157.6566  131.0888  150.7934 LP  0  0  0  0  0  0  0  0  0  0  0  0  # atno 17371 bound_to 10713
  139.9873  135.0077  156.9893 LP  0  0  0  0  0  0  0  0  0  0  0  0  # atno 17394 bound_to 11000
  140.5001  134.1106  155.7249 LP  0  0  0  0  0  0  0  0  0  0  0  0  # atno 17395 bound_to 11000

$$$$
