AV-unprocessed.smi:26|AV-procd|sdf|185|dock8
  -GOLD-   2262015453D 1   1.00000     0.00000
 Structure written by MMmdl.
 58 61  0  0  0  0  0  0  0  0  1 V2000
  147.3682  135.3820  156.8612 C   0  0  0  0  0  0  0  0  0  0  0  0
  148.6493  136.1079  157.1296 C   0  0  0  0  0  0  0  0  0  0  0  0
  149.7943  136.0852  156.3910 C   0  0  0  0  0  0  0  0  0  0  0  0
  150.7558  136.9284  157.0098 C   0  0  0  0  0  0  0  0  0  0  0  0
  152.1534  137.1863  156.5773 C   0  0  0  0  0  0  0  0  0  0  0  0
  153.1155  136.5208  156.9628 O   0  0  0  0  0  0  0  0  0  0  0  0
  152.3412  138.3474  155.5827 C   0  0  0  0  0  0  0  0  0  0  0  0
  151.5906  139.5419  155.9505 N   0  0  0  0  0  0  0  0  0  0  0  0
  150.4809  139.8983  155.1441 C   0  0  0  0  0  0  0  0  0  0  0  0
  150.1432  139.2325  154.1636 O   0  0  0  0  0  0  0  0  0  0  0  0
  149.7775  141.1001  155.5784 C   0  0  0  0  0  0  0  0  0  0  0  0
  148.7169  141.5379  154.8789 F   0  0  0  0  0  0  0  0  0  0  0  0
  150.1742  141.7847  156.6731 C   0  0  0  0  0  0  0  0  0  0  0  0
  151.2538  141.4030  157.4532 N   0  0  0  0  0  0  0  0  0  0  0  0
  151.6756  142.1837  158.6798 C   0  0  2  0  0  0  0  0  0  0  0  0
  150.6998  143.3450  158.9455 C   0  0  0  0  0  0  0  0  0  0  0  0
  151.6298  144.5308  159.1059 C   0  0  0  0  0  0  0  0  0  0  0  0
  152.7971  144.1376  158.2133 C   0  0  0  0  0  0  0  0  0  0  0  0
  152.9400  142.7472  158.4740 O   0  0  0  0  0  0  0  0  0  0  0  0
  151.9969  140.2541  157.1045 C   0  0  0  0  0  0  0  0  0  0  0  0
  152.9532  139.8895  157.7931 O   0  0  0  0  0  0  0  0  0  0  0  0
  150.1596  137.4778  158.1226 C   0  0  0  0  0  0  0  0  0  0  0  0
  150.6706  138.4768  159.1253 C   0  0  0  0  0  0  0  0  0  0  0  0
  148.8716  136.9392  158.2295 N   0  0  0  0  0  0  0  0  0  0  0  0
  147.9138  137.2461  159.3042 C   0  0  1  0  0  0  0  0  0  0  0  0
  146.5424  137.6426  158.7245 C   0  0  0  0  0  0  0  0  0  0  0  0
  147.8911  136.1729  160.3955 C   0  0  0  0  0  0  0  0  0  0  0  0
  148.0724  136.5666  161.7403 C   0  0  0  0  0  0  0  0  0  0  0  0
  148.0595  135.6125  162.7753 C   0  0  0  0  0  0  0  0  0  0  0  0
  147.8591  134.2523  162.4759 C   0  0  0  0  0  0  0  0  0  0  0  0
  147.6709  133.8491  161.1410 C   0  0  0  0  0  0  0  0  0  0  0  0
  147.6847  134.8031  160.1051 C   0  0  0  0  0  0  0  0  0  0  0  0
  147.3431  135.0144  155.8353 H   0  0  0  0  0  0  0  0  0  0  0  0
  146.5014  136.0269  156.9941 H   0  0  0  0  0  0  0  0  0  0  0  0
  147.2626  134.5188  157.5182 H   0  0  0  0  0  0  0  0  0  0  0  0
  149.9272  135.5074  155.4881 H   0  0  0  0  0  0  0  0  0  0  0  0
  153.3940  138.6193  155.4957 H   0  0  0  0  0  0  0  0  0  0  0  0
  152.0343  138.0556  154.5769 H   0  0  0  0  0  0  0  0  0  0  0  0
  149.6090  142.6660  156.9339 H   0  0  0  0  0  0  0  0  0  0  0  0
  151.7351  141.4552  159.4903 H   0  0  0  0  0  0  0  0  0  0  0  0
  150.0427  143.4904  158.0865 H   0  0  0  0  0  0  0  0  0  0  0  0
  150.0910  143.1517  159.8291 H   0  0  0  0  0  0  0  0  0  0  0  0
  151.1710  145.4766  158.8177 H   0  0  0  0  0  0  0  0  0  0  0  0
  151.9621  144.6107  160.1417 H   0  0  0  0  0  0  0  0  0  0  0  0
  152.5540  144.3015  157.1627 H   0  0  0  0  0  0  0  0  0  0  0  0
  153.7103  144.6858  158.4459 H   0  0  0  0  0  0  0  0  0  0  0  0
  151.4840  139.0802  158.7274 H   0  0  0  0  0  0  0  0  0  0  0  0
  151.0294  137.9754  160.0241 H   0  0  0  0  0  0  0  0  0  0  0  0
  149.8965  139.1869  159.4142 H   0  0  0  0  0  0  0  0  0  0  0  0
  148.2781  138.1200  159.8415 H   0  0  0  0  0  0  0  0  0  0  0  0
  145.8673  137.9834  159.5097 H   0  0  0  0  0  0  0  0  0  0  0  0
  146.0597  136.8186  158.2008 H   0  0  0  0  0  0  0  0  0  0  0  0
  146.6466  138.4612  158.0119 H   0  0  0  0  0  0  0  0  0  0  0  0
  148.2276  137.6083  161.9805 H   0  0  0  0  0  0  0  0  0  0  0  0
  148.2033  135.9248  163.7991 H   0  0  0  0  0  0  0  0  0  0  0  0
  147.8486  133.5193  163.2691 H   0  0  0  0  0  0  0  0  0  0  0  0
  147.5160  132.8054  160.9104 H   0  0  0  0  0  0  0  0  0  0  0  0
  147.5414  134.4621  159.0914 H   0  0  0  0  0  0  0  0  0  0  0  0
  1  2  1  0  0  0  0
  1 33  1  0  0  0  0
  1 34  1  0  0  0  0
  1 35  1  0  0  0  0
  2 24  1  0  0  0  0
  2  3  2  0  0  0  0
  3  4  1  0  0  0  0
  3 36  1  0  0  0  0
  4  5  1  0  0  0  0
  4 22  2  0  0  0  0
  5  6  2  0  0  0  0
  5  7  1  0  0  0  0
  7  8  1  0  0  0  0
  7 37  1  0  0  0  0
  7 38  1  0  0  0  0
  8 20  1  0  0  0  0
  8  9  1  0  0  0  0
  9 10  2  0  0  0  0
  9 11  1  0  0  0  0
 11 12  1  0  0  0  0
 11 13  2  0  0  0  0
 13 14  1  0  0  0  0
 13 39  1  0  0  0  0
 14 15  1  0  0  0  0
 14 20  1  0  0  0  0
 15 19  1  0  0  0  0
 15 16  1  0  0  0  0
 15 40  1  0  0  0  0
 16 17  1  0  0  0  0
 16 41  1  0  0  0  0
 16 42  1  0  0  0  0
 17 18  1  0  0  0  0
 17 43  1  0  0  0  0
 17 44  1  0  0  0  0
 18 19  1  0  0  0  0
 18 45  1  0  0  0  0
 18 46  1  0  0  0  0
 20 21  2  0  0  0  0
 22 23  1  0  0  0  0
 22 24  1  0  0  0  0
 23 47  1  0  0  0  0
 23 48  1  0  0  0  0
 23 49  1  0  0  0  0
 24 25  1  0  0  0  0
 25 26  1  0  0  0  0
 25 27  1  0  0  0  0
 25 50  1  0  0  0  0
 26 51  1  0  0  0  0
 26 52  1  0  0  0  0
 26 53  1  0  0  0  0
 27 32  1  0  0  0  0
 27 28  2  0  0  0  0
 28 29  1  0  0  0  0
 28 54  1  0  0  0  0
 29 30  2  0  0  0  0
 29 55  1  0  0  0  0
 30 31  1  0  0  0  0
 30 56  1  0  0  0  0
 31 32  2  0  0  0  0
 31 57  1  0  0  0  0
 32 58  1  0  0  0  0
M  END
> <s_m_source_file>
AV-unprocessed.smi

> <i_m_source_file_index>
26

> <i_lp_mmshare_version>
43012

> <i_f3d_flags>
0

> <s_epik_input>
W2NIXTFbY0hdW2NIXVtjSF1bY0hdYzFbQ0BASF0oW0NIM10pbjJjKFtDSDNdKWMoW2NIXWMyW0NIM10pQyg9TylbQ0gyXW4zYyg9TyljKEYpW2NIXW4oYzM9TylbQ0BASF00W0NIMl1bQ0gyXVtDSDJdTzQ=

> <s_epik_cmdline>
J2VwaWtfcHl0aG9uJywgJy1waCcsICc3LjAnLCAnLXRuJywgJzgnLCAnLW1hJywgJzIwMCcsICctbWV0YWxfYmluZGluZycsICctaW1hZScsICc8aW5maWxlLm1hZT4nLCAnLW9tYWUnLCAnPG91dGZpbGUubWFlPic=

> <r_lp_tautomer_probability>
1

> <r_epik_Ionization_Penalty>
5.02402e-09

> <r_epik_Ionization_Penalty_Charging>
5.01743e-09

> <r_epik_Ionization_Penalty_Neutral>
6.58831e-12

> <r_epik_State_Penalty>
-0

> <r_epik_Charging_Adjusted_Penalty>
5.01743e-09

> <i_epik_Tot_Q>
0

> <i_epik_Tot_abs_Q>
0

> <r_epik_Metal_State_Penalty>
-0

> <b_epik_Metal_Only>
0

> <s_epik_Chemistry_Notes>
This compound contains an acetal/aminal-like group ( X-CH(R)-Y where X, Y are N, S, or O) that may be acid/base labile, releasing an aldehyde.

> <s_lp_Force_Field>
OPLS_2005

> <r_lp_Energy>
50.3932

> <b_lp_Chiralities_Consistent>
1

> <s_lp_Variant>
AV-unprocessed.smi:26-3

> <Gold.Version>
5.8.1

> <Gold.Id.Protein>
6NUR|6NUR_protein|mol2

> <Gold.PLP.Fitness>
56.6775

> <Gold.PLP.PLP>
-52.4292

> <Gold.PLP.part.hbond>
-2.9464

> <Gold.PLP.part.metal>
0.0000

> <Gold.PLP.part.buried>
-4.8041

> <Gold.PLP.part.nonpolar>
-46.4966

> <Gold.PLP.part.repulsive>
0.7061

> <Gold.PLP.ligand.clash>
0.0000

> <Gold.PLP.ligand.torsion>
2.4745

> <Gold.PLP.Chemscore.Hbond>
1.9750

> <Gold.PLP.Chemscore.CHOScore>
1.0000

> <Gold.PLP.Chemscore.Metal>
0.0000

> <Gold.Chemscore.Hbonds>
donor molecule, donor type, donor heavy atom, donor atom, acceptor molecule, acceptor atom, score
      P1  H  7997  8008       L1    21  1.00
      P1  H 10752 10763       L1     6  0.98
      L1  C    13    39       P1  8028  1.00

> <Gold.PLP.Chemscore.Internal.Correction>
0.2724

> <Gold.Rescore>
     Score         DG    S(hbond)    S(metal)    S(lipo)     H(rot)  DE(clash)    DE(int)     intcor
     14.68     -18.78       1.67        0.00     106.25       1.84       0.04       4.06       ----

> <Gold.Chemscore.Fitness>
14.6761

> <Gold.Chemscore.DG>
-18.7774

> <Gold.Chemscore.ZeroCoef>
-5.4800

> <Gold.Chemscore.Hbond>
1.6667

> <Gold.Chemscore.Metal>
0.0000

> <Gold.Chemscore.Lipo>
106.2452

> <Gold.Chemscore.Internal_Hbond>
0.0000

> <Gold.Chemscore.DEClash>
0.0404

> <Gold.Chemscore.DEInternal>
4.0609

> <Gold.Chemscore.Rot>
1.8359

> <Gold.Chemscore.Internal.Correction>
   9.000000E+99

> <Gold.Chemscore.Hbonds>
donor molecule, donor type, donor heavy atom, donor atom, acceptor molecule, acceptor atom, score
      P1  H  7997  8008       L1    21  0.90
      P1  H 10752 10763       L1     6  0.49

> <Gold.Chemscore.Hbond.Weighted>
-5.5667

> <Gold.Chemscore.Metal.Weighted>
-0.0000

> <Gold.Chemscore.Lipo.Weighted>
-12.4307

> <Gold.Chemscore.Internal_Hbond.Weighted>
0.0000

> <Gold.Chemscore.DEClash.Weighted>
0.0404

> <Gold.Chemscore.DEInternal.Weighted>
4.0609

> <Gold.Chemscore.Rot.Weighted>
4.7000

> <Gold.Chemscore.Internal.Correction.Weighted>
   9.000000E+99

> <Gold.Protein.RotatedTorsions>
[ 6907 6896 6895 6894 ] final   49.87 input  -60.11 | X-H torsion
[ 7974 7965 7964 7962 ] final -145.93 input  175.53 | X-H torsion
[ 8008 7997 7996 7995 ] final  -86.88 input   59.86 | X-H torsion
[ 10167 10162 10161 10158 ] final   36.84 input  -65.29 | X-H torsion
[ 10718 10713 10712 10709 ] final  -49.75 input   66.30 | X-H torsion
[ 10763 10752 10751 10750 ] final  126.95 input  -60.55 | X-H torsion
[ 11005 11000 10999 10996 ] final  123.97 input  -57.11 | X-H torsion

> <Gold.Protein.ActiveResidues>
 VAL166  LYS551  ARG553  GLY616  TRP617  ASP618  TYR619  PRO620  LYS621  CYS622 
 ASP623  PHE694  ASN695  SER759  ASP760  ASP761  ALA762  ILE779  LEU786  VAL792 
 PHE793  MET794  SER795  GLU796  ALA797  LYS798  CYS799  TRP800  GLU811  SER814 

> <Gold.Protein.RotatedAtoms>
  152.2955  134.7672  160.0368 H   0  0  0  0  0  0  0  0  0  0  0  0  # atno 6907 bound_to 6896
  151.8203  133.3388  159.3590 H   0  0  0  0  0  0  0  0  0  0  0  0  # atno 6908 bound_to 6896
  150.7249  134.5509  159.5838 H   0  0  0  0  0  0  0  0  0  0  0  0  # atno 6909 bound_to 6896
  144.8194  140.5521  143.5589 H   0  0  0  0  0  0  0  0  0  0  0  0  # atno 7974 bound_to 7965
  154.6568  140.0573  157.0018 H   0  0  0  0  0  0  0  0  0  0  0  0  # atno 8008 bound_to 7997
  155.1288  140.3254  155.4460 H   0  0  0  0  0  0  0  0  0  0  0  0  # atno 8009 bound_to 7997
  156.2601  140.1984  156.6408 H   0  0  0  0  0  0  0  0  0  0  0  0  # atno 8010 bound_to 7997
  140.4089  144.1620  150.6138 H   0  0  0  0  0  0  0  0  0  0  0  0  # atno 10167 bound_to 10162
  156.1864  130.4151  149.9434 H   0  0  0  0  0  0  0  0  0  0  0  0  # atno 10718 bound_to 10713
  153.7015  135.3283  155.3225 H   0  0  0  0  0  0  0  0  0  0  0  0  # atno 10763 bound_to 10752
  154.8411  135.4455  154.1406 H   0  0  0  0  0  0  0  0  0  0  0  0  # atno 10764 bound_to 10752
  153.2475  135.6978  153.7794 H   0  0  0  0  0  0  0  0  0  0  0  0  # atno 10765 bound_to 10752
  139.9337  134.9640  156.8339 H   0  0  0  0  0  0  0  0  0  0  0  0  # atno 11005 bound_to 11000
  145.5140  139.1478  143.3589 LP  0  0  0  0  0  0  0  0  0  0  0  0  # atno 17320 bound_to 7965
  146.2498  140.5281  142.8898 LP  0  0  0  0  0  0  0  0  0  0  0  0  # atno 17321 bound_to 7965
  140.4659  143.2431  151.9155 LP  0  0  0  0  0  0  0  0  0  0  0  0  # atno 17342 bound_to 10162
  139.4783  144.5419  151.8515 LP  0  0  0  0  0  0  0  0  0  0  0  0  # atno 17343 bound_to 10162
  156.7188  130.8998  151.3616 LP  0  0  0  0  0  0  0  0  0  0  0  0  # atno 17370 bound_to 10713
  157.6901  130.9225  150.0491 LP  0  0  0  0  0  0  0  0  0  0  0  0  # atno 17371 bound_to 10713
  140.6133  134.0062  155.7586 LP  0  0  0  0  0  0  0  0  0  0  0  0  # atno 17394 bound_to 11000
  141.0940  133.9873  157.3191 LP  0  0  0  0  0  0  0  0  0  0  0  0  # atno 17395 bound_to 11000

$$$$
