AV-unprocessed.smi:35|AV-procd|sdf|248|dock1
  -GOLD-   2262016 03D 1   1.00000     0.00000
 Structure written by MMmdl.
 29 30  0  0  0  0  0  0  0  0  1 V2000
  154.5107  140.1982  161.4764 O   0  0  0  0  0  0  0  0  0  0  0  0
  153.6784  139.9516  160.6064 C   0  0  0  0  0  0  0  0  0  0  0  0
  153.1050  138.6795  160.5178 N   0  0  0  0  0  0  0  0  0  0  0  0
  152.1537  138.2820  159.5758 C   0  0  0  0  0  0  0  0  0  0  0  0
  151.7326  137.1261  159.5785 O   0  0  0  0  0  0  0  0  0  0  0  0
  151.7275  139.2524  158.6408 N   0  0  0  0  0  0  0  0  0  0  0  0
  150.6992  138.8833  157.5930 C   0  0  1  0  0  0  0  0  0  0  0  0
  150.2190  140.0582  157.0125 O   0  0  0  0  0  0  0  0  0  0  0  0
  150.0664  139.8612  155.6127 C   0  0  1  0  0  0  0  0  0  0  0  0
  149.9956  141.2057  154.8669 C   0  0  0  0  0  0  0  0  0  0  0  0
  149.9991  140.9917  153.4716 O   0  0  0  0  0  0  0  0  0  0  0  0
  151.2191  138.9151  155.2459 C   0  0  1  0  0  0  0  0  0  0  0  0
  152.4263  139.6310  155.0447 O   0  0  0  0  0  0  0  0  0  0  0  0
  151.2765  137.9976  156.4654 C   0  0  1  0  0  0  0  0  0  0  0  0
  152.5654  137.4560  156.7042 O   0  0  0  0  0  0  0  0  0  0  0  0
  152.2765  140.5268  158.6845 C   0  0  0  0  0  0  0  0  0  0  0  0
  153.2022  140.8947  159.6005 C   0  0  0  0  0  0  0  0  0  0  0  0
  153.8641  142.7584  159.4901 Br  0  0  0  0  0  0  0  0  0  0  0  0
  153.4086  137.9890  161.1892 H   0  0  0  0  0  0  0  0  0  0  0  0
  149.8664  138.4081  158.1141 H   0  0  0  0  0  0  0  0  0  0  0  0
  149.1226  139.3296  155.4744 H   0  0  0  0  0  0  0  0  0  0  0  0
  149.0733  141.7250  155.1284 H   0  0  0  0  0  0  0  0  0  0  0  0
  150.8175  141.8662  155.1431 H   0  0  0  0  0  0  0  0  0  0  0  0
  149.2014  140.5438  153.2345 H   0  0  0  0  0  0  0  0  0  0  0  0
  151.0041  138.3578  154.3335 H   0  0  0  0  0  0  0  0  0  0  0  0
  152.4821  139.8722  154.1330 H   0  0  0  0  0  0  0  0  0  0  0  0
  150.5794  137.1712  156.3203 H   0  0  0  0  0  0  0  0  0  0  0  0
  152.9947  137.3273  155.8722 H   0  0  0  0  0  0  0  0  0  0  0  0
  151.9614  141.2631  157.9602 H   0  0  0  0  0  0  0  0  0  0  0  0
  1  2  2  0  0  0  0
  2 17  1  0  0  0  0
  2  3  1  0  0  0  0
  3 19  1  0  0  0  0
  3  4  1  0  0  0  0
  4  5  2  0  0  0  0
  4  6  1  0  0  0  0
  6  7  1  0  0  0  0
  6 16  1  0  0  0  0
  7 14  1  0  0  0  0
  7  8  1  0  0  0  0
  7 20  1  0  0  0  0
  8  9  1  0  0  0  0
  9 10  1  0  0  0  0
  9 12  1  0  0  0  0
  9 21  1  0  0  0  0
 10 11  1  0  0  0  0
 10 22  1  0  0  0  0
 10 23  1  0  0  0  0
 11 24  1  0  0  0  0
 12 13  1  0  0  0  0
 12 14  1  0  0  0  0
 12 25  1  0  0  0  0
 13 26  1  0  0  0  0
 14 15  1  0  0  0  0
 14 27  1  0  0  0  0
 15 28  1  0  0  0  0
 16 17  2  0  0  0  0
 16 29  1  0  0  0  0
 17 18  1  0  0  0  0
M  END
> <s_m_source_file>
AV-unprocessed.smi

> <i_m_source_file_index>
35

> <i_lp_mmshare_version>
43012

> <i_f3d_flags>
0

> <s_epik_input>
Tz1jMVtuSF1jKD1PKW4oW2NIXWMxQnIpW0NAQEhdMk9bQ0BASF0oW0NIMl1bT0hdKVtDQEBIXShbT0hdKVtDQEhdMltPSF0=

> <s_epik_cmdline>
J2VwaWtfcHl0aG9uJywgJy1waCcsICc3LjAnLCAnLXRuJywgJzgnLCAnLW1hJywgJzIwMCcsICctbWV0YWxfYmluZGluZycsICctaW1hZScsICc8aW5maWxlLm1hZT4nLCAnLW9tYWUnLCAnPG91dGZpbGUubWFlPic=

> <r_lp_tautomer_probability>
0.999537

> <r_epik_Ionization_Penalty>
0.10812

> <r_epik_Ionization_Penalty_Charging>
0.108119

> <r_epik_Ionization_Penalty_Neutral>
4.93006e-07

> <r_epik_State_Penalty>
0.0979238

> <r_epik_Charging_Adjusted_Penalty>
0.206043

> <i_epik_Tot_Q>
0

> <i_epik_Tot_abs_Q>
0

> <r_epik_Metal_State_Penalty>
3.07911

> <b_epik_Metal_Only>
0

> <s_epik_Chemistry_Notes>
This compound contains an acetal/aminal-like group ( X-CH(R)-Y where X, Y are N, S, or O) that may be acid/base labile, releasing an aldehyde.

> <s_lp_Force_Field>
OPLS_2005

> <r_lp_Energy>
38.9756

> <b_lp_Chiralities_Consistent>
1

> <s_lp_Variant>
AV-unprocessed.smi:35-2

> <Gold.Version>
5.8.1

> <Gold.Id.Protein>
6NUR|6NUR_protein|mol2

> <Gold.PLP.Fitness>
37.3829

> <Gold.PLP.PLP>
-28.3188

> <Gold.PLP.part.hbond>
-5.6044

> <Gold.PLP.part.metal>
0.0000

> <Gold.PLP.part.buried>
-2.6223

> <Gold.PLP.part.nonpolar>
-19.4483

> <Gold.PLP.part.repulsive>
0.0479

> <Gold.PLP.ligand.clash>
0.0000

> <Gold.PLP.ligand.torsion>
0.3790

> <Gold.PLP.Chemscore.Hbond>
3.2666

> <Gold.PLP.Chemscore.CHOScore>
0.0000

> <Gold.PLP.Chemscore.Metal>
0.0000

> <Gold.Chemscore.Hbonds>
donor molecule, donor type, donor heavy atom, donor atom, acceptor molecule, acceptor atom, score
      L1  H    11    24       P1  7957  0.01
      P1  H  6896  6907       L1     5  0.83
      P1  H  7989  7998       L1    11  0.14
      P1  H  7997  8010       L1    13  0.42
      P1  H  8011  8017       L1    11  0.83

> <Gold.PLP.Chemscore.Internal.Correction>
0.0224

> <Gold.Rescore>
     Score         DG    S(hbond)    S(metal)    S(lipo)     H(rot)  DE(clash)    DE(int)     intcor
     10.23     -11.17       2.78        0.00      49.53       3.67       0.02       0.93       ----

> <Gold.Chemscore.Fitness>
10.2266

> <Gold.Chemscore.DG>
-11.1734

> <Gold.Chemscore.ZeroCoef>
-5.4800

> <Gold.Chemscore.Hbond>
2.7825

> <Gold.Chemscore.Metal>
0.0000

> <Gold.Chemscore.Lipo>
49.5330

> <Gold.Chemscore.Internal_Hbond>
0.0000

> <Gold.Chemscore.DEClash>
0.0202

> <Gold.Chemscore.DEInternal>
0.9265

> <Gold.Chemscore.Rot>
3.6701

> <Gold.Chemscore.Internal.Correction>
   9.000000E+99

> <Gold.Chemscore.Hbonds>
donor molecule, donor type, donor heavy atom, donor atom, acceptor molecule, acceptor atom, score
      L1  H    11    24       P1  7957  0.04
      P1  H  6896  6907       L1     5  0.77
      P1  H  7989  7998       L1    11  0.01
      P1  H  7997  8010       L1    13  0.19
      P1  H  8011  8017       L1    11  0.13

> <Gold.Chemscore.Hbond.Weighted>
-9.2935

> <Gold.Chemscore.Metal.Weighted>
-0.0000

> <Gold.Chemscore.Lipo.Weighted>
-5.7954

> <Gold.Chemscore.Internal_Hbond.Weighted>
0.0000

> <Gold.Chemscore.DEClash.Weighted>
0.0202

> <Gold.Chemscore.DEInternal.Weighted>
0.9265

> <Gold.Chemscore.Rot.Weighted>
9.3955

> <Gold.Chemscore.Internal.Correction.Weighted>
   9.000000E+99

> <Gold.Protein.RotatedTorsions>
[ 6907 6896 6895 6894 ] final   21.70 input  -60.11 | X-H torsion
[ 7974 7965 7964 7962 ] final  129.78 input  175.53 | X-H torsion
[ 8008 7997 7996 7995 ] final  103.61 input   59.86 | X-H torsion
[ 10167 10162 10161 10158 ] final   44.04 input  -65.29 | X-H torsion
[ 10718 10713 10712 10709 ] final -110.78 input   66.30 | X-H torsion
[ 10763 10752 10751 10750 ] final  130.46 input  -60.55 | X-H torsion
[ 11005 11000 10999 10996 ] final -138.22 input  -57.11 | X-H torsion

> <Gold.Protein.ActiveResidues>
 VAL166  LYS551  ARG553  GLY616  TRP617  ASP618  TYR619  PRO620  LYS621  CYS622 
 ASP623  PHE694  ASN695  SER759  ASP760  ASP761  ALA762  ILE779  LEU786  VAL792 
 PHE793  MET794  SER795  GLU796  ALA797  LYS798  CYS799  TRP800  GLU811  SER814 

> <Gold.Protein.RotatedAtoms>
  151.9159  135.0319  160.0517 H   0  0  0  0  0  0  0  0  0  0  0  0  # atno 6907 bound_to 6896
  152.2240  133.5001  159.5187 H   0  0  0  0  0  0  0  0  0  0  0  0  # atno 6908 bound_to 6896
  150.7007  134.1221  159.4081 H   0  0  0  0  0  0  0  0  0  0  0  0  # atno 6909 bound_to 6896
  145.0249  139.4098  143.5178 H   0  0  0  0  0  0  0  0  0  0  0  0  # atno 7974 bound_to 7965
  156.1499  140.3162  155.8631 H   0  0  0  0  0  0  0  0  0  0  0  0  # atno 8008 bound_to 7997
  155.3991  140.0498  157.3054 H   0  0  0  0  0  0  0  0  0  0  0  0  # atno 8009 bound_to 7997
  154.5049  140.2143  155.9282 H   0  0  0  0  0  0  0  0  0  0  0  0  # atno 8010 bound_to 7997
  140.3383  144.2502  150.6159 H   0  0  0  0  0  0  0  0  0  0  0  0  # atno 10167 bound_to 10162
  156.0610  130.5833  150.8284 H   0  0  0  0  0  0  0  0  0  0  0  0  # atno 10718 bound_to 10713
  153.7583  135.3199  155.3333 H   0  0  0  0  0  0  0  0  0  0  0  0  # atno 10763 bound_to 10752
  154.8239  135.4584  154.0863 H   0  0  0  0  0  0  0  0  0  0  0  0  # atno 10764 bound_to 10752
  153.2086  135.6932  153.8225 H   0  0  0  0  0  0  0  0  0  0  0  0  # atno 10765 bound_to 10752
  140.8636  134.2138  157.4693 H   0  0  0  0  0  0  0  0  0  0  0  0  # atno 11005 bound_to 11000
  146.3491  139.9768  142.8700 LP  0  0  0  0  0  0  0  0  0  0  0  0  # atno 17320 bound_to 7965
  145.1846  140.9783  143.4246 LP  0  0  0  0  0  0  0  0  0  0  0  0  # atno 17321 bound_to 7965
  140.5333  143.2238  151.8204 LP  0  0  0  0  0  0  0  0  0  0  0  0  # atno 17342 bound_to 10162
  139.4845  144.4693  151.9445 LP  0  0  0  0  0  0  0  0  0  0  0  0  # atno 17343 bound_to 10162
  157.5618  131.0946  150.9547 LP  0  0  0  0  0  0  0  0  0  0  0  0  # atno 17370 bound_to 10713
  156.9783  130.5517  149.5294 LP  0  0  0  0  0  0  0  0  0  0  0  0  # atno 17371 bound_to 10713
  139.8708  134.9741  156.4834 LP  0  0  0  0  0  0  0  0  0  0  0  0  # atno 17394 bound_to 11000
  140.8654  133.8028  155.9309 LP  0  0  0  0  0  0  0  0  0  0  0  0  # atno 17395 bound_to 11000

$$$$
