AV-unprocessed.smi:290|AV-procd|sdf|2228|dock7
  -GOLD-   2262022 83D 1   1.00000     0.00000
 Structure written by MMmdl.
 59 62  0  0  0  0  0  0  0  0  2 V2000
  151.7157  144.7964  159.1640 C   0  0  0  0  0  0  0  0  0  0  0  0
  152.3732  143.4369  158.8764 C   0  0  1  0  0  0  0  0  0  0  0  0
  153.1163  142.9968  160.0046 O   0  0  0  0  0  0  0  0  0  0  0  0
  153.3291  141.6058  159.8474 C   0  0  0  0  0  0  0  0  0  0  0  0
  151.9638  141.1107  159.3881 C   0  0  0  0  0  0  0  0  0  0  0  0
  151.4277  142.2566  158.5252 C   0  0  1  0  0  0  0  0  0  0  0  0
  150.0905  142.5171  158.9190 O   0  0  0  0  0  0  0  0  0  0  0  0
  151.4340  141.8992  157.0179 C   0  0  0  0  0  0  0  0  0  0  0  0
  150.5222  140.8194  156.6724 N   0  0  0  0  0  0  0  0  0  0  0  0
  150.4667  139.5687  157.2448 C   0  0  0  0  0  0  0  0  0  0  0  0
  149.5614  138.7701  156.7499 N   0  0  0  0  0  0  0  0  0  0  0  0
  148.9373  139.5290  155.7663 C   0  0  0  0  0  0  0  0  0  0  0  0
  147.8755  139.2848  154.8480 C   0  0  0  0  0  0  0  0  0  0  0  0
  147.2292  138.0914  154.7644 N   0  0  0  0  0  0  0  0  0  0  0  0
  147.5310  137.1024  155.7971 C   0  0  0  0  0  0  0  0  0  0  0  0
  147.5133  135.7330  155.1100 C   0  0  0  0  0  0  0  0  0  0  0  0
  146.6501  135.9848  153.8691 C   0  0  2  0  0  0  0  0  0  0  0  0
  146.7899  134.9913  152.7663 N   0  3  2  0  0  0  0  0  0  0  0  0
  145.7733  135.1908  151.7066 C   0  0  0  0  0  0  0  0  0  0  0  0
  146.9039  133.5687  153.1895 C   0  0  0  0  0  0  0  0  0  0  0  0
  146.8856  132.6146  151.9849 C   0  0  0  0  0  0  0  0  0  0  0  0
  147.4748  131.3807  152.3379 O   0  0  0  0  0  0  0  0  0  0  0  0
  147.0146  137.4245  153.4804 C   0  0  1  0  0  0  0  0  0  0  0  0
  145.9284  138.1090  152.6311 C   0  0  0  0  0  0  0  0  0  0  0  0
  147.5172  140.3079  154.0269 N   0  0  0  0  0  0  0  0  0  0  0  0
  148.1505  141.4825  154.0901 C   0  0  0  0  0  0  0  0  0  0  0  0
  149.1567  141.8452  154.8867 N   0  0  0  0  0  0  0  0  0  0  0  0
  149.5220  140.8263  155.7160 C   0  0  0  0  0  0  0  0  0  0  0  0
  145.6059  135.9922  154.1893 H   0  0  0  0  0  0  0  0  0  0  0  0
  147.9548  137.4381  152.9304 H   0  0  0  0  0  0  0  0  0  0  0  0
  151.1261  145.1362  158.3123 H   0  0  0  0  0  0  0  0  0  0  0  0
  152.4713  145.5554  159.3667 H   0  0  0  0  0  0  0  0  0  0  0  0
  151.0588  144.7479  160.0327 H   0  0  0  0  0  0  0  0  0  0  0  0
  153.1006  143.5676  158.0741 H   0  0  0  0  0  0  0  0  0  0  0  0
  154.0887  141.4308  159.0837 H   0  0  0  0  0  0  0  0  0  0  0  0
  153.6570  141.1391  160.7764 H   0  0  0  0  0  0  0  0  0  0  0  0
  152.0234  140.1577  158.8610 H   0  0  0  0  0  0  0  0  0  0  0  0
  151.3357  140.9567  160.2675 H   0  0  0  0  0  0  0  0  0  0  0  0
  149.7810  141.7890  159.4357 H   0  0  0  0  0  0  0  0  0  0  0  0
  151.1664  142.7737  156.4229 H   0  0  0  0  0  0  0  0  0  0  0  0
  152.4377  141.6131  156.7006 H   0  0  0  0  0  0  0  0  0  0  0  0
  151.1274  139.2610  158.0421 H   0  0  0  0  0  0  0  0  0  0  0  0
  148.4923  137.2831  156.2810 H   0  0  0  0  0  0  0  0  0  0  0  0
  146.7550  137.1533  156.5614 H   0  0  0  0  0  0  0  0  0  0  0  0
  148.5345  135.4615  154.8437 H   0  0  0  0  0  0  0  0  0  0  0  0
  147.1166  134.9472  155.7532 H   0  0  0  0  0  0  0  0  0  0  0  0
  144.7686  135.0035  152.0874 H   0  0  0  0  0  0  0  0  0  0  0  0
  145.9450  134.5238  150.8623 H   0  0  0  0  0  0  0  0  0  0  0  0
  145.8072  136.2116  151.3248 H   0  0  0  0  0  0  0  0  0  0  0  0
  147.8182  133.3863  153.7523 H   0  0  0  0  0  0  0  0  0  0  0  0
  146.0861  133.3276  153.8702 H   0  0  0  0  0  0  0  0  0  0  0  0
  145.8579  132.4264  151.6731 H   0  0  0  0  0  0  0  0  0  0  0  0
  147.4059  133.0361  151.1252 H   0  0  0  0  0  0  0  0  0  0  0  0
  148.2604  131.2609  151.8252 H   0  0  0  0  0  0  0  0  0  0  0  0
  145.7654  137.5679  151.6989 H   0  0  0  0  0  0  0  0  0  0  0  0
  146.2031  139.1303  152.3687 H   0  0  0  0  0  0  0  0  0  0  0  0
  144.9768  138.1500  153.1621 H   0  0  0  0  0  0  0  0  0  0  0  0
  147.8024  142.2396  153.4028 H   0  0  0  0  0  0  0  0  0  0  0  0
  147.6773  135.2118  152.3364 H   0  0  0  0  0  0  0  0  0  0  0  0
  1  2  1  0  0  0  0
  1 31  1  0  0  0  0
  1 32  1  0  0  0  0
  1 33  1  0  0  0  0
  2  6  1  0  0  0  0
  2  3  1  0  0  0  0
  2 34  1  0  0  0  0
  3  4  1  0  0  0  0
  4  5  1  0  0  0  0
  4 35  1  0  0  0  0
  4 36  1  0  0  0  0
  5  6  1  0  0  0  0
  5 37  1  0  0  0  0
  5 38  1  0  0  0  0
  6  7  1  0  0  0  0
  6  8  1  0  0  0  0
  7 39  1  0  0  0  0
  8  9  1  0  0  0  0
  8 40  1  0  0  0  0
  8 41  1  0  0  0  0
  9 28  1  0  0  0  0
  9 10  1  0  0  0  0
 10 11  2  0  0  0  0
 10 42  1  0  0  0  0
 11 12  1  0  0  0  0
 12 28  2  0  0  0  0
 12 13  1  0  0  0  0
 13 14  1  0  0  0  0
 13 25  2  0  0  0  0
 14 23  1  0  0  0  0
 14 15  1  0  0  0  0
 15 16  1  0  0  0  0
 15 43  1  0  0  0  0
 15 44  1  0  0  0  0
 16 17  1  0  0  0  0
 16 45  1  0  0  0  0
 16 46  1  0  0  0  0
 17 29  1  0  0  0  0
 17 18  1  0  0  0  0
 17 23  1  0  0  0  0
 18 19  1  0  0  0  0
 18 20  1  0  0  0  0
 18 59  1  0  0  0  0
 19 47  1  0  0  0  0
 19 48  1  0  0  0  0
 19 49  1  0  0  0  0
 20 21  1  0  0  0  0
 20 50  1  0  0  0  0
 20 51  1  0  0  0  0
 21 22  1  0  0  0  0
 21 52  1  0  0  0  0
 21 53  1  0  0  0  0
 22 54  1  0  0  0  0
 23 30  1  0  0  0  0
 23 24  1  0  0  0  0
 24 55  1  0  0  0  0
 24 56  1  0  0  0  0
 24 57  1  0  0  0  0
 25 26  1  0  0  0  0
 26 27  2  0  0  0  0
 26 58  1  0  0  0  0
 27 28  1  0  0  0  0
M  CHG  1  18   1
M  END
> <s_m_source_file>
AV-unprocessed.smi

> <i_m_source_file_index>
290

> <i_lp_mmshare_version>
43012

> <i_f3d_flags>
0

> <s_epik_input>
W0NIMl0xW0NIMl1PW0NAQEhdKFtDSDNdKVtDQEBdMShbT0hdKVtDSDJdbihbY0hdbjIpYyhjMjMpbltjSF1uYzNONFtDSDJdW0NIMl1bQ0BIXShbQ0BIXTRbQ0gzXSlOKFtDSDNdKVtDSDJdW0NIMl1bT0hd

> <s_epik_cmdline>
J2VwaWtfcHl0aG9uJywgJy1waCcsICc3LjAnLCAnLXRuJywgJzgnLCAnLW1hJywgJzIwMCcsICctbWV0YWxfYmluZGluZycsICctaW1hZScsICc8aW5maWxlLm1hZT4nLCAnLW9tYWUnLCAnPG91dGZpbGUubWFlPic=

> <r_lp_tautomer_probability>
1

> <r_epik_Ionization_Penalty>
0.0036983

> <r_epik_Ionization_Penalty_Charging>
0.0032725

> <r_epik_Ionization_Penalty_Neutral>
0.000425798

> <r_epik_State_Penalty>
-0

> <r_epik_Charging_Adjusted_Penalty>
0.0032725

> <i_epik_Tot_Q>
1

> <i_epik_Tot_abs_Q>
1

> <r_epik_Metal_State_Penalty>
-0

> <b_epik_Metal_Only>
0

> <s_lp_Force_Field>
OPLS_2005

> <r_lp_Energy>
60.2599

> <b_lp_Chiralities_Consistent>
1

> <s_lp_Variant>
AV-unprocessed.smi:290-14

> <Gold.Version>
5.8.1

> <Gold.Id.Protein>
6NUR|6NUR_protein|mol2

> <Gold.PLP.Fitness>
44.0497

> <Gold.PLP.PLP>
-35.7638

> <Gold.PLP.part.hbond>
-2.9202

> <Gold.PLP.part.metal>
0.0000

> <Gold.PLP.part.buried>
-3.2880

> <Gold.PLP.part.nonpolar>
-30.7457

> <Gold.PLP.part.repulsive>
1.0776

> <Gold.PLP.ligand.clash>
0.0000

> <Gold.PLP.ligand.torsion>
0.6586

> <Gold.PLP.Chemscore.Hbond>
3.0000

> <Gold.PLP.Chemscore.CHOScore>
0.0000

> <Gold.PLP.Chemscore.Metal>
0.0000

> <Gold.Chemscore.Hbonds>
donor molecule, donor type, donor heavy atom, donor atom, acceptor molecule, acceptor atom, score
      L1  H    18    59       P1  7948  2.00
      L1  H    22    54       P1 10747  0.98

> <Gold.PLP.Chemscore.Internal.Correction>
0.6031

> <Gold.Rescore>
     Score         DG    S(hbond)    S(metal)    S(lipo)     H(rot)  DE(clash)    DE(int)     intcor
      8.46     -13.11       1.98        0.00      88.88       3.67       1.68       2.98       ----

> <Gold.Chemscore.Fitness>
8.4553

> <Gold.Chemscore.DG>
-13.1118

> <Gold.Chemscore.ZeroCoef>
-5.4800

> <Gold.Chemscore.Hbond>
1.9812

> <Gold.Chemscore.Metal>
0.0000

> <Gold.Chemscore.Lipo>
88.8794

> <Gold.Chemscore.Internal_Hbond>
0.0000

> <Gold.Chemscore.DEClash>
1.6779

> <Gold.Chemscore.DEInternal>
2.9785

> <Gold.Chemscore.Rot>
3.6658

> <Gold.Chemscore.Internal.Correction>
   9.000000E+99

> <Gold.Chemscore.Hbonds>
donor molecule, donor type, donor heavy atom, donor atom, acceptor molecule, acceptor atom, score
      L1  H    18    59       P1  7948  0.98
      L1  H    22    54       P1 10747  0.93

> <Gold.Chemscore.Hbond.Weighted>
-6.6173

> <Gold.Chemscore.Metal.Weighted>
-0.0000

> <Gold.Chemscore.Lipo.Weighted>
-10.3989

> <Gold.Chemscore.Internal_Hbond.Weighted>
0.0000

> <Gold.Chemscore.DEClash.Weighted>
1.6779

> <Gold.Chemscore.DEInternal.Weighted>
2.9785

> <Gold.Chemscore.Rot.Weighted>
9.3844

> <Gold.Chemscore.Internal.Correction.Weighted>
   9.000000E+99

> <Gold.Protein.RotatedTorsions>
[ 6907 6896 6895 6894 ] final  151.36 input  -60.11 | X-H torsion
[ 7974 7965 7964 7962 ] final  -86.70 input  175.53 | X-H torsion
[ 8008 7997 7996 7995 ] final  171.71 input   59.86 | X-H torsion
[ 10167 10162 10161 10158 ] final -166.03 input  -65.29 | X-H torsion
[ 10718 10713 10712 10709 ] final  -66.67 input   66.30 | X-H torsion
[ 10763 10752 10751 10750 ] final  105.72 input  -60.55 | X-H torsion
[ 11005 11000 10999 10996 ] final -173.04 input  -57.11 | X-H torsion

> <Gold.Protein.ActiveResidues>
 VAL166  LYS551  ARG553  GLY616  TRP617  ASP618  TYR619  PRO620  LYS621  CYS622 
 ASP623  PHE694  ASN695  SER759  ASP760  ASP761  ALA762  ILE779  LEU786  VAL792 
 PHE793  MET794  SER795  GLU796  ALA797  LYS798  CYS799  TRP800  GLU811  SER814 

> <Gold.Protein.RotatedAtoms>
  152.1017  133.4253  159.4589 H   0  0  0  0  0  0  0  0  0  0  0  0  # atno 6907 bound_to 6896
  150.6864  134.2752  159.4614 H   0  0  0  0  0  0  0  0  0  0  0  0  # atno 6908 bound_to 6896
  152.0613  134.9592  160.0625 H   0  0  0  0  0  0  0  0  0  0  0  0  # atno 6909 bound_to 6896
  145.4764  140.9558  143.1889 H   0  0  0  0  0  0  0  0  0  0  0  0  # atno 7974 bound_to 7965
  156.1245  140.1505  156.9156 H   0  0  0  0  0  0  0  0  0  0  0  0  # atno 8008 bound_to 7997
  154.4861  140.0865  156.7530 H   0  0  0  0  0  0  0  0  0  0  0  0  # atno 8009 bound_to 7997
  155.4369  140.3429  155.4288 H   0  0  0  0  0  0  0  0  0  0  0  0  # atno 8010 bound_to 7997
  139.6142  144.0754  152.1871 H   0  0  0  0  0  0  0  0  0  0  0  0  # atno 10167 bound_to 10162
  156.0600  130.4265  150.1742 H   0  0  0  0  0  0  0  0  0  0  0  0  # atno 10718 bound_to 10713
  153.3833  135.3900  155.1872 H   0  0  0  0  0  0  0  0  0  0  0  0  # atno 10763 bound_to 10752
  154.8710  135.3730  154.4830 H   0  0  0  0  0  0  0  0  0  0  0  0  # atno 10764 bound_to 10752
  153.5309  135.7086  153.5745 H   0  0  0  0  0  0  0  0  0  0  0  0  # atno 10765 bound_to 10752
  140.4903  134.5991  157.4952 H   0  0  0  0  0  0  0  0  0  0  0  0  # atno 11005 bound_to 11000
  144.7915  139.6319  143.7111 LP  0  0  0  0  0  0  0  0  0  0  0  0  # atno 17320 bound_to 7965
  146.2367  139.5919  142.9519 LP  0  0  0  0  0  0  0  0  0  0  0  0  # atno 17321 bound_to 7965
  140.0380  144.6030  150.7434 LP  0  0  0  0  0  0  0  0  0  0  0  0  # atno 17342 bound_to 10162
  140.7339  143.2723  151.3849 LP  0  0  0  0  0  0  0  0  0  0  0  0  # atno 17343 bound_to 10162
  156.9812  130.9864  151.3437 LP  0  0  0  0  0  0  0  0  0  0  0  0  # atno 17370 bound_to 10713
  157.5601  130.8240  149.8254 LP  0  0  0  0  0  0  0  0  0  0  0  0  # atno 17371 bound_to 10713
  139.9773  134.7194  155.9925 LP  0  0  0  0  0  0  0  0  0  0  0  0  # atno 17394 bound_to 11000
  141.1487  133.6551  156.3948 LP  0  0  0  0  0  0  0  0  0  0  0  0  # atno 17395 bound_to 11000

$$$$
