AV-unprocessed.smi:1378|AV-procd|sdf|5597|dock4
  -GOLD-   22720 5203D 1   1.00000     0.00000
 Structure written by MMmdl.
 47 49  0  0  0  0  0  0  0  0  2 V2000
  151.3040  129.9908  154.9504 C   0  0  0  0  0  0  0  0  0  0  0  0
  150.0386  130.6129  154.8077 O   0  0  0  0  0  0  0  0  0  0  0  0
  149.2400  129.9908  153.8175 C   0  0  0  0  0  0  0  0  0  0  0  0
  147.8003  130.5120  153.9392 C   0  0  0  0  0  0  0  0  0  0  0  0
  147.5831  131.7563  153.1873 N   0  0  0  0  0  0  0  0  0  0  0  0
  148.2749  132.9318  153.1792 C   0  0  0  0  0  0  0  0  0  0  0  0
  149.6891  133.3489  154.1478 S   0  0  0  0  0  0  0  0  0  0  0  0
  149.1896  134.7682  155.1647 C   0  0  0  0  0  0  0  0  0  0  0  0
  150.3752  135.6239  155.6098 C   0  0  0  0  0  0  0  0  0  0  0  0
  151.4209  135.0914  155.9783 O   0  0  0  0  0  0  0  0  0  0  0  0
  150.1992  136.9515  155.5461 N   0  0  0  0  0  0  0  0  0  0  0  0
  151.1958  137.9668  155.8655 C   0  0  0  0  0  0  0  0  0  0  0  0
  150.7831  138.7804  157.1094 C   0  0  0  0  0  0  0  0  0  0  0  0
  150.7128  140.2450  156.6652 C   0  0  0  0  0  0  0  0  0  0  0  0
  150.4818  140.1872  155.1578 C   0  0  0  0  0  0  0  0  0  0  0  0
  151.2971  138.9761  154.7102 C   0  0  0  0  0  0  0  0  0  0  0  0
  147.6659  133.7657  152.2931 N   0  3  0  0  0  0  0  0  0  0  0  0
  146.5693  133.1192  151.7224 C   0  0  0  0  0  0  0  0  0  0  0  0
  145.6437  133.5560  150.7799 C   0  0  0  0  0  0  0  0  0  0  0  0
  144.6401  132.6383  150.4063 C   0  0  0  0  0  0  0  0  0  0  0  0
  144.5847  131.3438  150.9623 C   0  0  0  0  0  0  0  0  0  0  0  0
  145.5285  130.9120  151.9172 C   0  0  0  0  0  0  0  0  0  0  0  0
  146.5151  131.8264  152.2848 C   0  0  0  0  0  0  0  0  0  0  0  0
  151.8810  130.5058  155.7185 H   0  0  0  0  0  0  0  0  0  0  0  0
  151.8710  130.0312  154.0196 H   0  0  0  0  0  0  0  0  0  0  0  0
  151.1992  128.9473  155.2511 H   0  0  0  0  0  0  0  0  0  0  0  0
  149.6471  130.2040  152.8283 H   0  0  0  0  0  0  0  0  0  0  0  0
  149.2649  128.9109  153.9551 H   0  0  0  0  0  0  0  0  0  0  0  0
  147.0968  129.7653  153.5700 H   0  0  0  0  0  0  0  0  0  0  0  0
  147.5403  130.6947  154.9826 H   0  0  0  0  0  0  0  0  0  0  0  0
  148.4808  135.3759  154.6020 H   0  0  0  0  0  0  0  0  0  0  0  0
  148.6580  134.4006  156.0427 H   0  0  0  0  0  0  0  0  0  0  0  0
  149.2993  137.2889  155.2371 H   0  0  0  0  0  0  0  0  0  0  0  0
  152.1691  137.4962  156.0166 H   0  0  0  0  0  0  0  0  0  0  0  0
  149.8058  138.4637  157.4778 H   0  0  0  0  0  0  0  0  0  0  0  0
  151.4890  138.6492  157.9300 H   0  0  0  0  0  0  0  0  0  0  0  0
  149.9356  140.8039  157.1872 H   0  0  0  0  0  0  0  0  0  0  0  0
  151.6659  140.7348  156.8685 H   0  0  0  0  0  0  0  0  0  0  0  0
  149.4243  140.0162  154.9515 H   0  0  0  0  0  0  0  0  0  0  0  0
  150.7786  141.1056  154.6508 H   0  0  0  0  0  0  0  0  0  0  0  0
  152.3387  139.2741  154.5828 H   0  0  0  0  0  0  0  0  0  0  0  0
  150.9583  138.5782  153.7531 H   0  0  0  0  0  0  0  0  0  0  0  0
  145.6850  134.5464  150.3506 H   0  0  0  0  0  0  0  0  0  0  0  0
  143.8990  132.9327  149.6773 H   0  0  0  0  0  0  0  0  0  0  0  0
  143.8020  130.6675  150.6504 H   0  0  0  0  0  0  0  0  0  0  0  0
  145.4765  129.9187  152.3382 H   0  0  0  0  0  0  0  0  0  0  0  0
  147.9775  134.7089  152.0999 H   0  0  0  0  0  0  0  0  0  0  0  0
  1  2  1  0  0  0  0
  1 24  1  0  0  0  0
  1 25  1  0  0  0  0
  1 26  1  0  0  0  0
  2  3  1  0  0  0  0
  3  4  1  0  0  0  0
  3 27  1  0  0  0  0
  3 28  1  0  0  0  0
  4  5  1  0  0  0  0
  4 29  1  0  0  0  0
  4 30  1  0  0  0  0
  5 23  1  0  0  0  0
  5  6  1  0  0  0  0
  6  7  1  0  0  0  0
  6 17  2  0  0  0  0
  7  8  1  0  0  0  0
  8  9  1  0  0  0  0
  8 31  1  0  0  0  0
  8 32  1  0  0  0  0
  9 10  2  0  0  0  0
  9 11  1  0  0  0  0
 11 12  1  0  0  0  0
 11 33  1  0  0  0  0
 12 16  1  0  0  0  0
 12 13  1  0  0  0  0
 12 34  1  0  0  0  0
 13 14  1  0  0  0  0
 13 35  1  0  0  0  0
 13 36  1  0  0  0  0
 14 15  1  0  0  0  0
 14 37  1  0  0  0  0
 14 38  1  0  0  0  0
 15 16  1  0  0  0  0
 15 39  1  0  0  0  0
 15 40  1  0  0  0  0
 16 41  1  0  0  0  0
 16 42  1  0  0  0  0
 17 18  1  0  0  0  0
 17 47  1  0  0  0  0
 18 23  2  0  0  0  0
 18 19  1  0  0  0  0
 19 20  2  0  0  0  0
 19 43  1  0  0  0  0
 20 21  1  0  0  0  0
 20 44  1  0  0  0  0
 21 22  2  0  0  0  0
 21 45  1  0  0  0  0
 22 23  1  0  0  0  0
 22 46  1  0  0  0  0
M  CHG  1  17   1
M  END
> <s_m_source_file>
AV-unprocessed.smi

> <i_m_source_file_index>
1378

> <i_lp_mmshare_version>
43012

> <i_f3d_flags>
0

> <s_epik_input>
W2NIXTFbY0hdW2NIXVtjSF1jKGMxMiluKFtDSDJdW0NIMl1PW0NIM10pYyhuMilTW0NIMl1DKD1PKVtOSF1bQ0hdM1tDSDJdW0NIMl1bQ0gyXVtDSDJdMw==

> <s_epik_cmdline>
J2VwaWtfcHl0aG9uJywgJy1waCcsICc3LjAnLCAnLXRuJywgJzgnLCAnLW1hJywgJzIwMCcsICctbWV0YWxfYmluZGluZycsICctaW1hZScsICc8aW5maWxlLm1hZT4nLCAnLW9tYWUnLCAnPG91dGZpbGUubWFlPic=

> <r_epik_Ionization_Penalty>
1.66257

> <r_epik_Ionization_Penalty_Charging>
1.66257

> <r_epik_Ionization_Penalty_Neutral>
9.72138e-08

> <r_epik_State_Penalty>
1.76557

> <r_epik_Charging_Adjusted_Penalty>
3.42813

> <i_epik_Tot_Q>
1

> <i_epik_Tot_abs_Q>
1

> <r_epik_Metal_State_Penalty>
1.80074

> <b_epik_Metal_Only>
0

> <s_lp_Force_Field>
OPLS_2005

> <r_lp_Energy>
23.1428

> <b_lp_Chiralities_Consistent>
1

> <s_lp_Variant>
AV-unprocessed.smi:1378-2

> <Gold.Version>
5.8.1

> <Gold.Id.Protein>
6NUR|6NUR_protein|mol2

> <Gold.PLP.Fitness>
49.3347

> <Gold.PLP.PLP>
-41.6061

> <Gold.PLP.part.hbond>
-2.0000

> <Gold.PLP.part.metal>
0.0000

> <Gold.PLP.part.buried>
-3.8200

> <Gold.PLP.part.nonpolar>
-34.7616

> <Gold.PLP.part.repulsive>
0.1209

> <Gold.PLP.ligand.clash>
0.0000

> <Gold.PLP.ligand.torsion>
0.6959

> <Gold.PLP.Chemscore.Hbond>
3.0000

> <Gold.PLP.Chemscore.CHOScore>
0.0000

> <Gold.PLP.Chemscore.Metal>
0.0000

> <Gold.Chemscore.Hbonds>
donor molecule, donor type, donor heavy atom, donor atom, acceptor molecule, acceptor atom, score
      L1  H    17    47       P1  7948  2.00
      P1  H 10752 10765       L1    10  1.00

> <Gold.PLP.Chemscore.Internal.Correction>
0.1205

> <Gold.Rescore>
     Score         DG    S(hbond)    S(metal)    S(lipo)     H(rot)  DE(clash)    DE(int)     intcor
     15.40     -17.54       1.68        0.00     100.12       2.06       0.12       2.02       ----

> <Gold.Chemscore.Fitness>
15.3954

> <Gold.Chemscore.DG>
-17.5387

> <Gold.Chemscore.ZeroCoef>
-5.4800

> <Gold.Chemscore.Hbond>
1.6795

> <Gold.Chemscore.Metal>
0.0000

> <Gold.Chemscore.Lipo>
100.1218

> <Gold.Chemscore.Internal_Hbond>
0.0000

> <Gold.Chemscore.DEClash>
0.1218

> <Gold.Chemscore.DEInternal>
2.0215

> <Gold.Chemscore.Rot>
2.0567

> <Gold.Chemscore.Internal.Correction>
   9.000000E+99

> <Gold.Chemscore.Hbonds>
donor molecule, donor type, donor heavy atom, donor atom, acceptor molecule, acceptor atom, score
      L1  H    17    47       P1  7948  0.35
      P1  H 10752 10765       L1    10  0.89

> <Gold.Chemscore.Hbond.Weighted>
-5.6096

> <Gold.Chemscore.Metal.Weighted>
-0.0000

> <Gold.Chemscore.Lipo.Weighted>
-11.7142

> <Gold.Chemscore.Internal_Hbond.Weighted>
0.0000

> <Gold.Chemscore.DEClash.Weighted>
0.1218

> <Gold.Chemscore.DEInternal.Weighted>
2.0215

> <Gold.Chemscore.Rot.Weighted>
5.2652

> <Gold.Chemscore.Internal.Correction.Weighted>
   9.000000E+99

> <Gold.Protein.RotatedTorsions>
[ 6907 6896 6895 6894 ] final -123.00 input  -60.11 | X-H torsion
[ 7974 7965 7964 7962 ] final  153.36 input  175.53 | X-H torsion
[ 8008 7997 7996 7995 ] final -100.74 input   59.86 | X-H torsion
[ 10167 10162 10161 10158 ] final  -45.63 input  -65.29 | X-H torsion
[ 10718 10713 10712 10709 ] final   39.98 input   66.30 | X-H torsion
[ 10763 10752 10751 10750 ] final -154.95 input  -60.55 | X-H torsion
[ 11005 11000 10999 10996 ] final  -26.37 input  -57.11 | X-H torsion

> <Gold.Protein.ActiveResidues>
 VAL166  LYS551  ARG553  GLY616  TRP617  ASP618  TYR619  PRO620  LYS621  CYS622 
 ASP623  PHE694  ASN695  SER759  ASP760  ASP761  ALA762  ILE779  LEU786  VAL792 
 PHE793  MET794  SER795  GLU796  ALA797  LYS798  CYS799  TRP800  GLU811  SER814 

> <Gold.Protein.RotatedAtoms>
  150.8629  133.7617  159.2986 H   0  0  0  0  0  0  0  0  0  0  0  0  # atno 6907 bound_to 6896
  151.5254  135.1066  159.9898 H   0  0  0  0  0  0  0  0  0  0  0  0  # atno 6908 bound_to 6896
  152.4639  133.7837  159.6920 H   0  0  0  0  0  0  0  0  0  0  0  0  # atno 6909 bound_to 6896
  144.8160  139.6790  143.6121 H   0  0  0  0  0  0  0  0  0  0  0  0  # atno 7974 bound_to 7965
  154.8328  140.0439  157.1488 H   0  0  0  0  0  0  0  0  0  0  0  0  # atno 8008 bound_to 7997
  154.9134  140.3017  155.5234 H   0  0  0  0  0  0  0  0  0  0  0  0  # atno 8009 bound_to 7997
  156.2988  140.2354  156.4175 H   0  0  0  0  0  0  0  0  0  0  0  0  # atno 8010 bound_to 7997
  140.6850  143.2870  151.3667 H   0  0  0  0  0  0  0  0  0  0  0  0  # atno 10167 bound_to 10162
  157.3769  130.7732  149.7162 H   0  0  0  0  0  0  0  0  0  0  0  0  # atno 10718 bound_to 10713
  154.7822  135.3178  154.7965 H   0  0  0  0  0  0  0  0  0  0  0  0  # atno 10763 bound_to 10752
  153.8674  135.6847  153.4781 H   0  0  0  0  0  0  0  0  0  0  0  0  # atno 10764 bound_to 10752
  153.1462  135.4718  154.9507 H   0  0  0  0  0  0  0  0  0  0  0  0  # atno 10765 bound_to 10752
  140.9023  133.7516  156.0560 H   0  0  0  0  0  0  0  0  0  0  0  0  # atno 11005 bound_to 11000
  146.2463  139.6104  142.9458 LP  0  0  0  0  0  0  0  0  0  0  0  0  # atno 17320 bound_to 7965
  145.5214  141.0431  143.2433 LP  0  0  0  0  0  0  0  0  0  0  0  0  # atno 17321 bound_to 7965
  139.6201  144.0923  152.2383 LP  0  0  0  0  0  0  0  0  0  0  0  0  # atno 17342 bound_to 10162
  140.0365  144.6040  150.7445 LP  0  0  0  0  0  0  0  0  0  0  0  0  # atno 17343 bound_to 10162
  155.9767  130.4072  150.3761 LP  0  0  0  0  0  0  0  0  0  0  0  0  # atno 17370 bound_to 10713
  157.1859  131.0403  151.2725 LP  0  0  0  0  0  0  0  0  0  0  0  0  # atno 17371 bound_to 10713
  140.8214  134.3284  157.5380 LP  0  0  0  0  0  0  0  0  0  0  0  0  # atno 17394 bound_to 11000
  139.8744  134.9311  156.3520 LP  0  0  0  0  0  0  0  0  0  0  0  0  # atno 17395 bound_to 11000

$$$$
