AV-unprocessed.smi:1190|AV-procd|sdf|4982|dock6
  -GOLD-   22720 3583D 1   1.00000     0.00000
 Structure written by MMmdl.
 44 45  0  0  0  0  0  0  0  0  2 V2000
  151.9802  143.2333  158.8779 C   0  0  0  0  0  0  0  0  0  0  0  0
  152.5213  142.0109  158.3892 O   0  0  0  0  0  0  0  0  0  0  0  0
  151.8564  141.3622  157.3690 C   0  0  0  0  0  0  0  0  0  0  0  0
  150.6747  141.9369  156.8617 C   0  0  0  0  0  0  0  0  0  0  0  0
  149.9943  141.2793  155.8199 C   0  0  0  0  0  0  0  0  0  0  0  0
  150.5157  140.0736  155.3089 C   0  0  0  0  0  0  0  0  0  0  0  0
  149.7954  139.4279  154.2674 N   0  0  0  0  0  0  0  0  0  0  0  0
  148.5613  139.6964  153.8076 C   0  0  0  0  0  0  0  0  0  0  0  0
  147.8126  140.5709  154.2406 O   0  0  0  0  0  0  0  0  0  0  0  0
  148.2260  138.8651  152.8109 N   0  0  0  0  0  0  0  0  0  0  0  0
  146.9606  138.8856  152.0777 C   0  0  0  0  0  0  0  0  0  0  0  0
  145.8690  137.9733  152.6996 C   0  0  2  0  0  0  0  0  0  0  0  0
  145.7342  138.2696  154.2094 C   0  0  0  0  0  0  0  0  0  0  0  0
  146.0991  136.5192  152.4157 N   0  3  0  0  0  0  0  0  0  0  0  0
  145.5917  135.6021  153.4736 C   0  0  0  0  0  0  0  0  0  0  0  0
  145.8813  134.1327  153.1228 C   0  0  0  0  0  0  0  0  0  0  0  0
  145.3094  133.8164  151.8626 O   0  0  0  0  0  0  0  0  0  0  0  0
  145.8704  134.6067  150.8256 C   0  0  0  0  0  0  0  0  0  0  0  0
  145.5729  136.0917  151.0902 C   0  0  0  0  0  0  0  0  0  0  0  0
  151.7031  139.5702  155.8949 C   0  0  0  0  0  0  0  0  0  0  0  0
  152.3598  140.1959  156.8948 N   0  0  0  0  0  0  0  0  0  0  0  0
  152.6153  143.6148  159.6772 H   0  0  0  0  0  0  0  0  0  0  0  0
  150.9804  143.0905  159.2904 H   0  0  0  0  0  0  0  0  0  0  0  0
  151.9401  143.9931  158.0961 H   0  0  0  0  0  0  0  0  0  0  0  0
  150.2968  142.8648  157.2651 H   0  0  0  0  0  0  0  0  0  0  0  0
  149.0849  141.7011  155.4173 H   0  0  0  0  0  0  0  0  0  0  0  0
  150.2609  138.6344  153.8524 H   0  0  0  0  0  0  0  0  0  0  0  0
  148.9092  138.1822  152.5170 H   0  0  0  0  0  0  0  0  0  0  0  0
  146.5938  139.9084  151.9748 H   0  0  0  0  0  0  0  0  0  0  0  0
  147.1722  138.5677  151.0571 H   0  0  0  0  0  0  0  0  0  0  0  0
  144.9177  138.2505  152.2423 H   0  0  0  0  0  0  0  0  0  0  0  0
  145.7057  139.3431  154.3987 H   0  0  0  0  0  0  0  0  0  0  0  0
  146.5691  137.8578  154.7768 H   0  0  0  0  0  0  0  0  0  0  0  0
  144.8112  137.8653  154.6243 H   0  0  0  0  0  0  0  0  0  0  0  0
  146.0670  135.8098  154.4311 H   0  0  0  0  0  0  0  0  0  0  0  0
  144.5189  135.7518  153.6038 H   0  0  0  0  0  0  0  0  0  0  0  0
  146.9553  133.9400  153.1085 H   0  0  0  0  0  0  0  0  0  0  0  0
  145.4514  133.4752  153.8788 H   0  0  0  0  0  0  0  0  0  0  0  0
  146.9449  134.4297  150.7531 H   0  0  0  0  0  0  0  0  0  0  0  0
  145.4333  134.3007  149.8751 H   0  0  0  0  0  0  0  0  0  0  0  0
  144.4968  136.2674  151.0512 H   0  0  0  0  0  0  0  0  0  0  0  0
  146.0208  136.6731  150.2859 H   0  0  0  0  0  0  0  0  0  0  0  0
  152.1454  138.6367  155.5853 H   0  0  0  0  0  0  0  0  0  0  0  0
  147.1005  136.3906  152.3865 H   0  0  0  0  0  0  0  0  0  0  0  0
  1  2  1  0  0  0  0
  1 22  1  0  0  0  0
  1 23  1  0  0  0  0
  1 24  1  0  0  0  0
  2  3  1  0  0  0  0
  3 21  1  0  0  0  0
  3  4  2  0  0  0  0
  4  5  1  0  0  0  0
  4 25  1  0  0  0  0
  5  6  2  0  0  0  0
  5 26  1  0  0  0  0
  6  7  1  0  0  0  0
  6 20  1  0  0  0  0
  7  8  1  0  0  0  0
  7 27  1  0  0  0  0
  8  9  2  0  0  0  0
  8 10  1  0  0  0  0
 10 11  1  0  0  0  0
 10 28  1  0  0  0  0
 11 12  1  0  0  0  0
 11 29  1  0  0  0  0
 11 30  1  0  0  0  0
 12 13  1  0  0  0  0
 12 14  1  0  0  0  0
 12 31  1  0  0  0  0
 13 32  1  0  0  0  0
 13 33  1  0  0  0  0
 13 34  1  0  0  0  0
 14 19  1  0  0  0  0
 14 15  1  0  0  0  0
 14 44  1  0  0  0  0
 15 16  1  0  0  0  0
 15 35  1  0  0  0  0
 15 36  1  0  0  0  0
 16 17  1  0  0  0  0
 16 37  1  0  0  0  0
 16 38  1  0  0  0  0
 17 18  1  0  0  0  0
 18 19  1  0  0  0  0
 18 39  1  0  0  0  0
 18 40  1  0  0  0  0
 19 41  1  0  0  0  0
 19 42  1  0  0  0  0
 20 21  2  0  0  0  0
 20 43  1  0  0  0  0
M  CHG  1  14   1
M  END
> <s_m_source_file>
AV-unprocessed.smi

> <i_m_source_file_index>
1190

> <i_lp_mmshare_version>
43012

> <i_f3d_flags>
0

> <s_epik_input>
W0NIM11PYzFbY0hdW2NIXWMoW2NIXW4xKVtOSF1DKD1PKVtOSF1bQ0gyXVtDQEhdKFtDSDNdKU4yW0NIMl1bQ0gyXU9bQ0gyXVtDSDJdMg==

> <s_epik_cmdline>
J2VwaWtfcHl0aG9uJywgJy1waCcsICc3LjAnLCAnLXRuJywgJzgnLCAnLW1hJywgJzIwMCcsICctbWV0YWxfYmluZGluZycsICctaW1hZScsICc8aW5maWxlLm1hZT4nLCAnLW9tYWUnLCAnPG91dGZpbGUubWFlPic=

> <r_lp_tautomer_probability>
1

> <r_epik_Ionization_Penalty>
0.602608

> <r_epik_Ionization_Penalty_Charging>
0.602531

> <r_epik_Ionization_Penalty_Neutral>
7.70246e-05

> <r_epik_State_Penalty>
0.617039

> <r_epik_Charging_Adjusted_Penalty>
1.21957

> <i_epik_Tot_Q>
1

> <i_epik_Tot_abs_Q>
1

> <r_epik_Metal_State_Penalty>
0.617043

> <b_epik_Metal_Only>
0

> <s_lp_Force_Field>
OPLS_2005

> <r_lp_Energy>
31.3292

> <b_lp_Chiralities_Consistent>
1

> <s_lp_Variant>
AV-unprocessed.smi:1190-3

> <Gold.Version>
5.8.1

> <Gold.Id.Protein>
6NUR|6NUR_protein|mol2

> <Gold.PLP.Fitness>
40.3858

> <Gold.PLP.PLP>
-31.7757

> <Gold.PLP.part.hbond>
-4.2531

> <Gold.PLP.part.metal>
0.0000

> <Gold.PLP.part.buried>
-0.5647

> <Gold.PLP.part.nonpolar>
-26.5388

> <Gold.PLP.part.repulsive>
0.4071

> <Gold.PLP.ligand.clash>
0.7410

> <Gold.PLP.ligand.torsion>
1.0341

> <Gold.PLP.Chemscore.Hbond>
3.7771

> <Gold.PLP.Chemscore.CHOScore>
0.0000

> <Gold.PLP.Chemscore.Metal>
0.0000

> <Gold.Chemscore.Hbonds>
donor molecule, donor type, donor heavy atom, donor atom, acceptor molecule, acceptor atom, score
      L1  H    10    28       P1  7948  0.80
      L1  H    14    44       P1  7948  2.00
      P1  H  7997  8008       L1    21  1.00

> <Gold.PLP.Chemscore.Internal.Correction>
0.0879

> <Gold.Rescore>
     Score         DG    S(hbond)    S(metal)    S(lipo)     H(rot)  DE(clash)    DE(int)     intcor
     14.63     -17.49       2.49        0.00      70.57       1.79       0.47       2.39       ----

> <Gold.Chemscore.Fitness>
14.6316

> <Gold.Chemscore.DG>
-17.4859

> <Gold.Chemscore.ZeroCoef>
-5.4800

> <Gold.Chemscore.Hbond>
2.4929

> <Gold.Chemscore.Metal>
0.0000

> <Gold.Chemscore.Lipo>
70.5740

> <Gold.Chemscore.Internal_Hbond>
0.0000

> <Gold.Chemscore.DEClash>
0.4670

> <Gold.Chemscore.DEInternal>
2.3873

> <Gold.Chemscore.Rot>
1.7881

> <Gold.Chemscore.Internal.Correction>
   9.000000E+99

> <Gold.Chemscore.Hbonds>
donor molecule, donor type, donor heavy atom, donor atom, acceptor molecule, acceptor atom, score
      L1  H    10    28       P1  7948  0.75
      L1  H    14    44       P1  7948  1.00
      P1  H  7997  8008       L1    21  0.58

> <Gold.Chemscore.Hbond.Weighted>
-8.3262

> <Gold.Chemscore.Metal.Weighted>
-0.0000

> <Gold.Chemscore.Lipo.Weighted>
-8.2572

> <Gold.Chemscore.Internal_Hbond.Weighted>
0.0000

> <Gold.Chemscore.DEClash.Weighted>
0.4670

> <Gold.Chemscore.DEInternal.Weighted>
2.3873

> <Gold.Chemscore.Rot.Weighted>
4.5775

> <Gold.Chemscore.Internal.Correction.Weighted>
   9.000000E+99

> <Gold.Protein.RotatedTorsions>
[ 6907 6896 6895 6894 ] final -126.78 input  -60.11 | X-H torsion
[ 7974 7965 7964 7962 ] final  179.61 input  175.53 | X-H torsion
[ 8008 7997 7996 7995 ] final  -51.04 input   59.86 | X-H torsion
[ 10167 10162 10161 10158 ] final  -28.95 input  -65.29 | X-H torsion
[ 10718 10713 10712 10709 ] final   28.43 input   66.30 | X-H torsion
[ 10763 10752 10751 10750 ] final -161.43 input  -60.55 | X-H torsion
[ 11005 11000 10999 10996 ] final -135.83 input  -57.11 | X-H torsion

> <Gold.Protein.ActiveResidues>
 VAL166  LYS551  ARG553  GLY616  TRP617  ASP618  TYR619  PRO620  LYS621  CYS622 
 ASP623  PHE694  ASN695  SER759  ASP760  ASP761  ALA762  ILE779  LEU786  VAL792 
 PHE793  MET794  SER795  GLU796  ALA797  LYS798  CYS799  TRP800  GLU811  SER814 

> <Gold.Protein.RotatedAtoms>
  150.9004  133.7125  159.2880 H   0  0  0  0  0  0  0  0  0  0  0  0  # atno 6907 bound_to 6896
  151.4646  135.1039  159.9744 H   0  0  0  0  0  0  0  0  0  0  0  0  # atno 6908 bound_to 6896
  152.4873  133.8359  159.7183 H   0  0  0  0  0  0  0  0  0  0  0  0  # atno 6909 bound_to 6896
  144.7144  140.0573  143.6433 H   0  0  0  0  0  0  0  0  0  0  0  0  # atno 7974 bound_to 7965
  154.4074  140.1257  156.4764 H   0  0  0  0  0  0  0  0  0  0  0  0  # atno 8008 bound_to 7997
  155.7128  140.3493  155.4962 H   0  0  0  0  0  0  0  0  0  0  0  0  # atno 8009 bound_to 7997
  155.9285  140.1065  157.1141 H   0  0  0  0  0  0  0  0  0  0  0  0  # atno 8010 bound_to 7997
  140.7265  143.3968  151.1333 H   0  0  0  0  0  0  0  0  0  0  0  0  # atno 10167 bound_to 10162
  157.2333  130.7034  149.6324 H   0  0  0  0  0  0  0  0  0  0  0  0  # atno 10718 bound_to 10713
  154.7304  135.3045  154.8901 H   0  0  0  0  0  0  0  0  0  0  0  0  # atno 10763 bound_to 10752
  153.9746  135.6737  153.4752 H   0  0  0  0  0  0  0  0  0  0  0  0  # atno 10764 bound_to 10752
  153.0913  135.4958  154.8616 H   0  0  0  0  0  0  0  0  0  0  0  0  # atno 10765 bound_to 10752
  140.8861  134.1870  157.4559 H   0  0  0  0  0  0  0  0  0  0  0  0  # atno 11005 bound_to 11000
  145.9893  139.3002  143.0994 LP  0  0  0  0  0  0  0  0  0  0  0  0  # atno 17320 bound_to 7965
  145.8921  140.9297  143.0547 LP  0  0  0  0  0  0  0  0  0  0  0  0  # atno 17321 bound_to 7965
  139.7582  143.8675  152.3094 LP  0  0  0  0  0  0  0  0  0  0  0  0  # atno 17342 bound_to 10162
  139.8552  144.7145  150.9166 LP  0  0  0  0  0  0  0  0  0  0  0  0  # atno 17343 bound_to 10162
  155.9674  130.4481  150.5608 LP  0  0  0  0  0  0  0  0  0  0  0  0  # atno 17370 bound_to 10713
  157.3455  131.0724  151.1754 LP  0  0  0  0  0  0  0  0  0  0  0  0  # atno 17371 bound_to 10713
  139.8724  134.9838  156.5215 LP  0  0  0  0  0  0  0  0  0  0  0  0  # atno 17394 bound_to 11000
  140.8403  133.8210  155.9068 LP  0  0  0  0  0  0  0  0  0  0  0  0  # atno 17395 bound_to 11000

$$$$
