AV-unprocessed.smi:1868|AV-procd|sdf|7590|dock4
  -GOLD-   22720 9303D 1   1.00000     0.00000
 Structure written by MMmdl.
 48 50  0  0  0  0  0  0  0  0  3 V2000
  149.5391  141.1503  154.7244 C   0  0  0  0  0  0  0  0  0  0  0  0
  150.3575  141.4475  155.9358 C   0  0  0  0  0  0  0  0  0  0  0  0
  150.5552  142.6787  156.4857 N   0  3  0  0  0  0  0  0  0  0  0  0
  151.3723  142.5677  157.6117 C   0  0  0  0  0  0  0  0  0  0  0  0
  151.8457  143.5342  158.4938 C   0  0  0  0  0  0  0  0  0  0  0  0
  152.6649  143.0812  159.5486 C   0  0  0  0  0  0  0  0  0  0  0  0
  152.9841  141.7156  159.6964 C   0  0  0  0  0  0  0  0  0  0  0  0
  152.4984  140.7445  158.7955 C   0  0  0  0  0  0  0  0  0  0  0  0
  151.6896  141.2013  157.7553 C   0  0  0  0  0  0  0  0  0  0  0  0
  151.0453  140.5490  156.6981 N   0  0  0  0  0  0  0  0  0  0  0  0
  151.1808  139.0901  156.5628 C   0  0  0  0  0  0  0  0  0  0  0  0
  151.9311  138.6686  155.2827 C   0  0  2  0  0  0  0  0  0  0  0  0
  152.8108  139.7091  154.9005 O   0  0  0  0  0  0  0  0  0  0  0  0
  150.9499  138.3828  154.1266 C   0  0  0  0  0  0  0  0  0  0  0  0
  149.9876  137.2899  154.4256 N   0  3  2  0  0  0  0  0  0  0  0  0
  148.8251  137.7747  155.2142 C   0  0  0  0  0  0  0  0  0  0  0  0
  147.7724  136.6676  155.4037 C   0  0  0  0  0  0  0  0  0  0  0  0
  148.3674  135.3999  156.0422 C   0  0  2  0  0  0  0  0  0  0  0  0
  148.6592  135.5687  157.5439 C   0  0  0  0  0  0  0  0  0  0  0  0
  149.6059  134.9591  155.2414 C   0  0  0  0  0  0  0  0  0  0  0  0
  150.6204  136.1026  155.0609 C   0  0  0  0  0  0  0  0  0  0  0  0
  149.1111  142.0663  154.3163 H   0  0  0  0  0  0  0  0  0  0  0  0
  148.7254  140.4704  154.9773 H   0  0  0  0  0  0  0  0  0  0  0  0
  150.1569  140.6855  153.9562 H   0  0  0  0  0  0  0  0  0  0  0  0
  151.6018  144.5808  158.3834 H   0  0  0  0  0  0  0  0  0  0  0  0
  153.0554  143.7956  160.2591 H   0  0  0  0  0  0  0  0  0  0  0  0
  153.6140  141.4071  160.5183 H   0  0  0  0  0  0  0  0  0  0  0  0
  152.7479  139.7013  158.9183 H   0  0  0  0  0  0  0  0  0  0  0  0
  151.6831  138.7090  157.4529 H   0  0  0  0  0  0  0  0  0  0  0  0
  150.1777  138.6617  156.5726 H   0  0  0  0  0  0  0  0  0  0  0  0
  152.5281  137.7864  155.5084 H   0  0  0  0  0  0  0  0  0  0  0  0
  153.0981  139.5600  154.0129 H   0  0  0  0  0  0  0  0  0  0  0  0
  150.3920  139.2845  153.8696 H   0  0  0  0  0  0  0  0  0  0  0  0
  151.5326  138.1264  153.2404 H   0  0  0  0  0  0  0  0  0  0  0  0
  149.1674  138.1477  156.1803 H   0  0  0  0  0  0  0  0  0  0  0  0
  148.3600  138.6171  154.7008 H   0  0  0  0  0  0  0  0  0  0  0  0
  146.9420  137.0398  156.0051 H   0  0  0  0  0  0  0  0  0  0  0  0
  147.3489  136.4132  154.4309 H   0  0  0  0  0  0  0  0  0  0  0  0
  147.6219  134.6076  155.9606 H   0  0  0  0  0  0  0  0  0  0  0  0
  149.3912  136.3524  157.7369 H   0  0  0  0  0  0  0  0  0  0  0  0
  149.0471  134.6436  157.9716 H   0  0  0  0  0  0  0  0  0  0  0  0
  147.7520  135.8248  158.0920 H   0  0  0  0  0  0  0  0  0  0  0  0
  150.0841  134.1064  155.7246 H   0  0  0  0  0  0  0  0  0  0  0  0
  149.2897  134.6090  154.2578 H   0  0  0  0  0  0  0  0  0  0  0  0
  151.4448  135.7379  154.4499 H   0  0  0  0  0  0  0  0  0  0  0  0
  151.0500  136.3859  156.0226 H   0  0  0  0  0  0  0  0  0  0  0  0
  149.6128  136.9869  153.5383 H   0  0  0  0  0  0  0  0  0  0  0  0
  150.1567  143.5326  156.1163 H   0  0  0  0  0  0  0  0  0  0  0  0
  1  2  1  0  0  0  0
  1 22  1  0  0  0  0
  1 23  1  0  0  0  0
  1 24  1  0  0  0  0
  2 10  1  0  0  0  0
  2  3  2  0  0  0  0
  3  4  1  0  0  0  0
  3 48  1  0  0  0  0
  4  9  2  0  0  0  0
  4  5  1  0  0  0  0
  5  6  2  0  0  0  0
  5 25  1  0  0  0  0
  6  7  1  0  0  0  0
  6 26  1  0  0  0  0
  7  8  2  0  0  0  0
  7 27  1  0  0  0  0
  8  9  1  0  0  0  0
  8 28  1  0  0  0  0
  9 10  1  0  0  0  0
 10 11  1  0  0  0  0
 11 12  1  0  0  0  0
 11 29  1  0  0  0  0
 11 30  1  0  0  0  0
 12 13  1  0  0  0  0
 12 14  1  0  0  0  0
 12 31  1  0  0  0  0
 13 32  1  0  0  0  0
 14 15  1  0  0  0  0
 14 33  1  0  0  0  0
 14 34  1  0  0  0  0
 15 21  1  0  0  0  0
 15 16  1  0  0  0  0
 15 47  1  0  0  0  0
 16 17  1  0  0  0  0
 16 35  1  0  0  0  0
 16 36  1  0  0  0  0
 17 18  1  0  0  0  0
 17 37  1  0  0  0  0
 17 38  1  0  0  0  0
 18 19  1  0  0  0  0
 18 20  1  0  0  0  0
 18 39  1  0  0  0  0
 19 40  1  0  0  0  0
 19 41  1  0  0  0  0
 19 42  1  0  0  0  0
 20 21  1  0  0  0  0
 20 43  1  0  0  0  0
 20 44  1  0  0  0  0
 21 45  1  0  0  0  0
 21 46  1  0  0  0  0
M  CHG  1   3   1
M  CHG  1  15   1
M  END
> <s_m_source_file>
AV-unprocessed.smi

> <i_m_source_file_index>
1868

> <i_lp_mmshare_version>
43012

> <i_f3d_flags>
0

> <s_epik_input>
W2NIXTFbY0hdW2NIXVtjSF1jKGMxMiluKGMobjIpW0NIM10pW0NIMl1bQ0BIXShbT0hdKVtDSDJdTjNbQ0gyXVtDSDJdW0NIXShbQ0gzXSlbQ0gyXVtDSDJdMw==

> <s_epik_cmdline>
J2VwaWtfcHl0aG9uJywgJy1waCcsICc3LjAnLCAnLXRuJywgJzgnLCAnLW1hJywgJzIwMCcsICctbWV0YWxfYmluZGluZycsICctaW1hZScsICc8aW5maWxlLm1hZT4nLCAnLW9tYWUnLCAnPG91dGZpbGUubWFlPic=

> <r_epik_Ionization_Penalty>
1.10901

> <r_epik_Ionization_Penalty_Charging>
1.10901

> <r_epik_Ionization_Penalty_Neutral>
6.90208e-07

> <r_epik_State_Penalty>
1.18788

> <r_epik_Charging_Adjusted_Penalty>
2.29689

> <i_epik_Tot_Q>
2

> <i_epik_Tot_abs_Q>
2

> <r_epik_Metal_State_Penalty>
5.19353

> <b_epik_Metal_Only>
0

> <s_lp_Force_Field>
OPLS_2005

> <r_lp_Energy>
32.3741

> <b_lp_Chiralities_Consistent>
1

> <s_lp_Variant>
AV-unprocessed.smi:1868-7

> <Gold.Version>
5.8.1

> <Gold.Id.Protein>
6NUR|6NUR_protein|mol2

> <Gold.PLP.Fitness>
55.2855

> <Gold.PLP.PLP>
-41.5266

> <Gold.PLP.part.hbond>
-4.0000

> <Gold.PLP.part.metal>
0.0000

> <Gold.PLP.part.buried>
-5.6646

> <Gold.PLP.part.nonpolar>
-32.3372

> <Gold.PLP.part.repulsive>
0.1125

> <Gold.PLP.ligand.clash>
0.0000

> <Gold.PLP.ligand.torsion>
0.6385

> <Gold.PLP.Chemscore.Hbond>
5.0000

> <Gold.PLP.Chemscore.CHOScore>
0.0000

> <Gold.PLP.Chemscore.Metal>
0.0000

> <Gold.Chemscore.Hbonds>
donor molecule, donor type, donor heavy atom, donor atom, acceptor molecule, acceptor atom, score
      L1  H     3    48       P1  8028  2.00
      L1  H    15    47       P1  7948  2.00
      P1  H  7997  8010       L1    13  1.00

> <Gold.PLP.Chemscore.Internal.Correction>
0.0359

> <Gold.Rescore>
     Score         DG    S(hbond)    S(metal)    S(lipo)     H(rot)  DE(clash)    DE(int)     intcor
     20.65     -22.24       2.80        0.00     106.90       1.99       0.00       1.58       ----

> <Gold.Chemscore.Fitness>
20.6534

> <Gold.Chemscore.DG>
-22.2373

> <Gold.Chemscore.ZeroCoef>
-5.4800

> <Gold.Chemscore.Hbond>
2.7951

> <Gold.Chemscore.Metal>
0.0000

> <Gold.Chemscore.Lipo>
106.8955

> <Gold.Chemscore.Internal_Hbond>
0.0000

> <Gold.Chemscore.DEClash>
0.0009

> <Gold.Chemscore.DEInternal>
1.5830

> <Gold.Chemscore.Rot>
1.9863

> <Gold.Chemscore.Internal.Correction>
   9.000000E+99

> <Gold.Chemscore.Hbonds>
donor molecule, donor type, donor heavy atom, donor atom, acceptor molecule, acceptor atom, score
      L1  H     3    48       P1  8028  0.99
      L1  H    15    47       P1  7948  0.78
      P1  H  7997  8010       L1    13  0.63

> <Gold.Chemscore.Hbond.Weighted>
-9.3355

> <Gold.Chemscore.Metal.Weighted>
-0.0000

> <Gold.Chemscore.Lipo.Weighted>
-12.5068

> <Gold.Chemscore.Internal_Hbond.Weighted>
0.0000

> <Gold.Chemscore.DEClash.Weighted>
0.0009

> <Gold.Chemscore.DEInternal.Weighted>
1.5830

> <Gold.Chemscore.Rot.Weighted>
5.0850

> <Gold.Chemscore.Internal.Correction.Weighted>
   9.000000E+99

> <Gold.Protein.RotatedTorsions>
[ 6907 6896 6895 6894 ] final -176.28 input  -60.11 | X-H torsion
[ 7974 7965 7964 7962 ] final   92.23 input  175.53 | X-H torsion
[ 8008 7997 7996 7995 ] final   97.29 input   59.86 | X-H torsion
[ 10167 10162 10161 10158 ] final   39.67 input  -65.29 | X-H torsion
[ 10718 10713 10712 10709 ] final  161.27 input   66.30 | X-H torsion
[ 10763 10752 10751 10750 ] final  -27.08 input  -60.55 | X-H torsion
[ 11005 11000 10999 10996 ] final -175.60 input  -57.11 | X-H torsion

> <Gold.Protein.ActiveResidues>
 VAL166  LYS551  ARG553  GLY616  TRP617  ASP618  TYR619  PRO620  LYS621  CYS622 
 ASP623  PHE694  ASN695  SER759  ASP760  ASP761  ALA762  ILE779  LEU786  VAL792 
 PHE793  MET794  SER795  GLU796  ALA797  LYS798  CYS799  TRP800  GLU811  SER814 

> <Gold.Protein.RotatedAtoms>
  151.6023  133.3355  159.3049 H   0  0  0  0  0  0  0  0  0  0  0  0  # atno 6907 bound_to 6896
  150.8201  134.7407  159.6776 H   0  0  0  0  0  0  0  0  0  0  0  0  # atno 6908 bound_to 6896
  152.4295  134.5810  159.9999 H   0  0  0  0  0  0  0  0  0  0  0  0  # atno 6909 bound_to 6896
  145.4951  139.2276  143.2808 H   0  0  0  0  0  0  0  0  0  0  0  0  # atno 7974 bound_to 7965
  156.0886  140.3260  155.7785 H   0  0  0  0  0  0  0  0  0  0  0  0  # atno 8008 bound_to 7997
  155.5035  140.0571  157.2952 H   0  0  0  0  0  0  0  0  0  0  0  0  # atno 8009 bound_to 7997
  154.4624  140.1973  156.0226 H   0  0  0  0  0  0  0  0  0  0  0  0  # atno 8010 bound_to 7997
  140.3817  144.1971  150.6130 H   0  0  0  0  0  0  0  0  0  0  0  0  # atno 10167 bound_to 10162
  157.1389  131.0535  151.2336 H   0  0  0  0  0  0  0  0  0  0  0  0  # atno 10718 bound_to 10713
  153.7264  135.6941  153.5000 H   0  0  0  0  0  0  0  0  0  0  0  0  # atno 10763 bound_to 10752
  153.2167  135.4384  155.0441 H   0  0  0  0  0  0  0  0  0  0  0  0  # atno 10764 bound_to 10752
  154.8267  135.3450  154.6795 H   0  0  0  0  0  0  0  0  0  0  0  0  # atno 10765 bound_to 10752
  140.4615  134.6250  157.4844 H   0  0  0  0  0  0  0  0  0  0  0  0  # atno 11005 bound_to 11000
  146.2260  140.5748  142.8996 LP  0  0  0  0  0  0  0  0  0  0  0  0  # atno 17320 bound_to 7965
  144.7812  140.5843  143.6604 LP  0  0  0  0  0  0  0  0  0  0  0  0  # atno 17321 bound_to 7965
  140.4930  143.2341  151.8790 LP  0  0  0  0  0  0  0  0  0  0  0  0  # atno 17342 bound_to 10162
  139.4795  144.5144  151.8888 LP  0  0  0  0  0  0  0  0  0  0  0  0  # atno 17343 bound_to 10162
  157.4325  130.7498  149.7002 LP  0  0  0  0  0  0  0  0  0  0  0  0  # atno 17370 bound_to 10713
  155.9792  130.4042  150.3599 LP  0  0  0  0  0  0  0  0  0  0  0  0  # atno 17371 bound_to 10713
  139.9942  134.6937  155.9637 LP  0  0  0  0  0  0  0  0  0  0  0  0  # atno 17394 bound_to 11000
  141.1619  133.6538  156.4347 LP  0  0  0  0  0  0  0  0  0  0  0  0  # atno 17395 bound_to 11000

$$$$
