AV-unprocessed.smi:218|AV-procd|sdf|1672|dock4
  -GOLD-   2262020 93D 1   1.00000     0.00000
 Structure written by MMmdl.
 54 57  0  0  0  0  0  0  0  0  1 V2000
  151.9742  143.7431  158.0883 C   0  0  0  0  0  0  0  0  0  0  0  0
  151.8991  142.5086  158.9947 C   0  0  0  0  0  0  0  0  0  0  0  0
  152.6454  142.7439  160.3191 C   0  0  0  0  0  0  0  0  0  0  0  0
  152.4977  141.4289  158.2752 O   0  0  0  0  0  0  0  0  0  0  0  0
  151.8498  140.8753  157.1877 C   0  0  0  0  0  0  0  0  0  0  0  0
  150.5297  141.2886  156.9159 C   0  0  0  0  0  0  0  0  0  0  0  0
  149.8551  140.7311  155.8110 C   0  0  0  0  0  0  0  0  0  0  0  0
  148.4437  141.1625  155.4751 C   0  0  0  0  0  0  0  0  0  0  0  0
  147.5021  140.8767  156.5480 N   0  0  0  0  0  0  0  0  0  0  0  0
  146.6010  139.8814  156.4110 C   0  0  0  0  0  0  0  0  0  0  0  0
  145.6578  139.6541  157.3627 N   0  0  0  0  0  0  0  0  0  0  0  0
  144.7765  138.6614  157.2057 C   0  0  0  0  0  0  0  0  0  0  0  0
  144.6663  137.7949  156.1959 N   0  0  0  0  0  0  0  0  0  0  0  0
  145.6135  138.0201  155.2396 C   0  0  0  0  0  0  0  0  0  0  0  0
  146.6068  139.0367  155.2712 C   0  0  0  0  0  0  0  0  0  0  0  0
  147.3904  138.9628  154.1273 N   0  0  0  0  0  0  0  0  0  0  0  0
  146.8860  137.9575  153.4629 C   0  0  0  0  0  0  0  0  0  0  0  0
  145.8107  137.3327  154.0615 N   0  0  0  0  0  0  0  0  0  0  0  0
  145.0001  136.1586  153.5915 C   0  0  2  0  0  0  0  0  0  0  0  0
  145.8830  135.1288  153.2748 O   0  0  0  0  0  0  0  0  0  0  0  0
  146.1090  135.0374  151.8651 C   0  0  1  0  0  0  0  0  0  0  0  0
  145.6996  133.6071  151.4551 C   0  0  0  0  0  0  0  0  0  0  0  0
  146.1170  133.3520  150.1307 O   0  0  0  0  0  0  0  0  0  0  0  0
  145.2709  136.1782  151.2429 C   0  0  1  0  0  0  0  0  0  0  0  0
  144.6616  135.8362  150.0121 O   0  0  0  0  0  0  0  0  0  0  0  0
  144.2261  136.4769  152.3057 C   0  0  2  0  0  0  0  0  0  0  0  0
  143.7739  137.8161  152.2236 O   0  0  0  0  0  0  0  0  0  0  0  0
  150.5263  139.7788  155.0190 C   0  0  0  0  0  0  0  0  0  0  0  0
  151.8439  139.4266  155.3704 C   0  0  0  0  0  0  0  0  0  0  0  0
  152.4959  139.9569  156.4269 N   0  0  0  0  0  0  0  0  0  0  0  0
  144.3687  135.8971  154.4413 H   0  0  0  0  0  0  0  0  0  0  0  0
  147.1638  135.1975  151.6373 H   0  0  0  0  0  0  0  0  0  0  0  0
  145.9112  137.0489  151.0916 H   0  0  0  0  0  0  0  0  0  0  0  0
  143.3869  135.7832  152.2371 H   0  0  0  0  0  0  0  0  0  0  0  0
  151.5255  144.6123  158.5700 H   0  0  0  0  0  0  0  0  0  0  0  0
  151.4417  143.5715  157.1527 H   0  0  0  0  0  0  0  0  0  0  0  0
  153.0069  143.9922  157.8428 H   0  0  0  0  0  0  0  0  0  0  0  0
  150.8429  142.3166  159.1901 H   0  0  0  0  0  0  0  0  0  0  0  0
  152.2256  143.5931  160.8586 H   0  0  0  0  0  0  0  0  0  0  0  0
  153.7014  142.9508  160.1429 H   0  0  0  0  0  0  0  0  0  0  0  0
  152.5845  141.8777  160.9775 H   0  0  0  0  0  0  0  0  0  0  0  0
  150.0461  142.0229  157.5436 H   0  0  0  0  0  0  0  0  0  0  0  0
  148.4341  142.2311  155.2565 H   0  0  0  0  0  0  0  0  0  0  0  0
  148.1298  140.6453  154.5675 H   0  0  0  0  0  0  0  0  0  0  0  0
  147.5493  141.4798  157.3567 H   0  0  0  0  0  0  0  0  0  0  0  0
  144.0577  138.5442  158.0033 H   0  0  0  0  0  0  0  0  0  0  0  0
  147.2950  137.6462  152.5135 H   0  0  0  0  0  0  0  0  0  0  0  0
  146.1138  132.8619  152.1349 H   0  0  0  0  0  0  0  0  0  0  0  0
  144.6163  133.4891  151.4608 H   0  0  0  0  0  0  0  0  0  0  0  0
  145.9944  134.1372  149.6195 H   0  0  0  0  0  0  0  0  0  0  0  0
  144.3308  136.6246  149.6097 H   0  0  0  0  0  0  0  0  0  0  0  0
  143.5018  137.9875  151.3351 H   0  0  0  0  0  0  0  0  0  0  0  0
  150.0477  139.3299  154.1610 H   0  0  0  0  0  0  0  0  0  0  0  0
  152.3898  138.7010  154.7859 H   0  0  0  0  0  0  0  0  0  0  0  0
  1  2  1  0  0  0  0
  1 35  1  0  0  0  0
  1 36  1  0  0  0  0
  1 37  1  0  0  0  0
  2  3  1  0  0  0  0
  2  4  1  0  0  0  0
  2 38  1  0  0  0  0
  3 39  1  0  0  0  0
  3 40  1  0  0  0  0
  3 41  1  0  0  0  0
  4  5  1  0  0  0  0
  5 30  1  0  0  0  0
  5  6  2  0  0  0  0
  6  7  1  0  0  0  0
  6 42  1  0  0  0  0
  7  8  1  0  0  0  0
  7 28  2  0  0  0  0
  8  9  1  0  0  0  0
  8 43  1  0  0  0  0
  8 44  1  0  0  0  0
  9 10  1  0  0  0  0
  9 45  1  0  0  0  0
 10 15  1  0  0  0  0
 10 11  2  0  0  0  0
 11 12  1  0  0  0  0
 12 13  2  0  0  0  0
 12 46  1  0  0  0  0
 13 14  1  0  0  0  0
 14 18  1  0  0  0  0
 14 15  2  0  0  0  0
 15 16  1  0  0  0  0
 16 17  2  0  0  0  0
 17 18  1  0  0  0  0
 17 47  1  0  0  0  0
 18 19  1  0  0  0  0
 19 31  1  0  0  0  0
 19 26  1  0  0  0  0
 19 20  1  0  0  0  0
 20 21  1  0  0  0  0
 21 32  1  0  0  0  0
 21 22  1  0  0  0  0
 21 24  1  0  0  0  0
 22 23  1  0  0  0  0
 22 48  1  0  0  0  0
 22 49  1  0  0  0  0
 23 50  1  0  0  0  0
 24 33  1  0  0  0  0
 24 25  1  0  0  0  0
 24 26  1  0  0  0  0
 25 51  1  0  0  0  0
 26 34  1  0  0  0  0
 26 27  1  0  0  0  0
 27 52  1  0  0  0  0
 28 29  1  0  0  0  0
 28 53  1  0  0  0  0
 29 30  2  0  0  0  0
 29 54  1  0  0  0  0
M  END
> <s_m_source_file>
AV-unprocessed.smi

> <i_m_source_file_index>
218

> <i_lp_mmshare_version>
43012

> <i_f3d_flags>
0

> <s_epik_input>
W0NIM11bQ0hdKFtDSDNdKU9jMVtjSF1jKFtjSF1bY0hdbjEpW0NIMl1bTkhdYyhuW2NIXW4yKWMoYzIzKW5bY0hdbjNbQ0BASF00T1tDQEhdKFtDSDJdW09IXSlbQ0BASF0oW09IXSlbQ0BIXTRbT0hd

> <s_epik_cmdline>
J2VwaWtfcHl0aG9uJywgJy1waCcsICc3LjAnLCAnLXRuJywgJzgnLCAnLW1hJywgJzIwMCcsICctbWV0YWxfYmluZGluZycsICctaW1hZScsICc8aW5maWxlLm1hZT4nLCAnLW9tYWUnLCAnPG91dGZpbGUubWFlPic=

> <r_lp_tautomer_probability>
1

> <r_epik_Ionization_Penalty>
0.00457014

> <r_epik_Ionization_Penalty_Charging>
0

> <r_epik_Ionization_Penalty_Neutral>
0.00457014

> <r_epik_State_Penalty>
-0

> <r_epik_Charging_Adjusted_Penalty>
0

> <i_epik_Tot_Q>
0

> <i_epik_Tot_abs_Q>
0

> <r_epik_Metal_State_Penalty>
-0

> <b_epik_Metal_Only>
0

> <s_epik_Chemistry_Notes>
This compound contains an acetal/aminal-like group ( X-CH(R)-Y where X, Y are N, S, or O) that may be acid/base labile, releasing an aldehyde.

> <s_lp_Force_Field>
OPLS_2005

> <r_lp_Energy>
43.2146

> <b_lp_Chiralities_Consistent>
1

> <s_lp_Variant>
AV-unprocessed.smi:218-11

> <Gold.Version>
5.8.1

> <Gold.Id.Protein>
6NUR|6NUR_protein|mol2

> <Gold.PLP.Fitness>
51.7487

> <Gold.PLP.PLP>
-38.2073

> <Gold.PLP.part.hbond>
-5.9603

> <Gold.PLP.part.metal>
0.0000

> <Gold.PLP.part.buried>
-1.1430

> <Gold.PLP.part.nonpolar>
-29.4588

> <Gold.PLP.part.repulsive>
0.2690

> <Gold.PLP.ligand.clash>
0.0000

> <Gold.PLP.ligand.torsion>
0.3616

> <Gold.PLP.Chemscore.Hbond>
3.6948

> <Gold.PLP.Chemscore.CHOScore>
1.0000

> <Gold.PLP.Chemscore.Metal>
0.0000

> <Gold.Chemscore.Hbonds>
donor molecule, donor type, donor heavy atom, donor atom, acceptor molecule, acceptor atom, score
      L1  H    23    50       P1  7921  0.68
      L1  H    25    51       P1 10171  0.99
      L1  H    27    52       P1 10171  0.99
      P1  H  7997  8009       L1    30  1.00
      L1  C    17    47       P1  7948  1.00

> <Gold.PLP.Chemscore.Internal.Correction>
0.1803

> <Gold.Rescore>
     Score         DG    S(hbond)    S(metal)    S(lipo)     H(rot)  DE(clash)    DE(int)     intcor
     11.00     -12.87       3.02        0.00      84.22       4.90       0.11       1.75       ----

> <Gold.Chemscore.Fitness>
11.0049

> <Gold.Chemscore.DG>
-12.8693

> <Gold.Chemscore.ZeroCoef>
-5.4800

> <Gold.Chemscore.Hbond>
3.0199

> <Gold.Chemscore.Metal>
0.0000

> <Gold.Chemscore.Lipo>
84.2243

> <Gold.Chemscore.Internal_Hbond>
0.0000

> <Gold.Chemscore.DEClash>
0.1149

> <Gold.Chemscore.DEInternal>
1.7496

> <Gold.Chemscore.Rot>
4.9029

> <Gold.Chemscore.Internal.Correction>
   9.000000E+99

> <Gold.Chemscore.Hbonds>
donor molecule, donor type, donor heavy atom, donor atom, acceptor molecule, acceptor atom, score
      L1  H    23    50       P1  7921  0.20
      L1  H    25    51       P1 10171  0.90
      L1  H    27    52       P1 10171  0.83
      P1  H  7997  8009       L1    30  0.87

> <Gold.Chemscore.Hbond.Weighted>
-10.0866

> <Gold.Chemscore.Metal.Weighted>
-0.0000

> <Gold.Chemscore.Lipo.Weighted>
-9.8542

> <Gold.Chemscore.Internal_Hbond.Weighted>
0.0000

> <Gold.Chemscore.DEClash.Weighted>
0.1149

> <Gold.Chemscore.DEInternal.Weighted>
1.7496

> <Gold.Chemscore.Rot.Weighted>
12.5515

> <Gold.Chemscore.Internal.Correction.Weighted>
   9.000000E+99

> <Gold.Protein.RotatedTorsions>
[ 6907 6896 6895 6894 ] final -139.02 input  -60.11 | X-H torsion
[ 7974 7965 7964 7962 ] final   24.11 input  175.53 | X-H torsion
[ 8008 7997 7996 7995 ] final -158.89 input   59.86 | X-H torsion
[ 10167 10162 10161 10158 ] final -166.37 input  -65.29 | X-H torsion
[ 10718 10713 10712 10709 ] final   68.68 input   66.30 | X-H torsion
[ 10763 10752 10751 10750 ] final  143.44 input  -60.55 | X-H torsion
[ 11005 11000 10999 10996 ] final  134.77 input  -57.11 | X-H torsion

> <Gold.Protein.ActiveResidues>
 VAL166  LYS551  ARG553  GLY616  TRP617  ASP618  TYR619  PRO620  LYS621  CYS622 
 ASP623  PHE694  ASN695  SER759  ASP760  ASP761  ALA762  ILE779  LEU786  VAL792 
 PHE793  MET794  SER795  GLU796  ALA797  LYS798  CYS799  TRP800  GLU811  SER814 

> <Gold.Protein.RotatedAtoms>
  151.0425  133.5694  159.2649 H   0  0  0  0  0  0  0  0  0  0  0  0  # atno 6907 bound_to 6896
  151.2735  135.0691  159.9153 H   0  0  0  0  0  0  0  0  0  0  0  0  # atno 6908 bound_to 6896
  152.5367  134.0151  159.8010 H   0  0  0  0  0  0  0  0  0  0  0  0  # atno 6909 bound_to 6896
  146.1953  139.7650  142.8802 H   0  0  0  0  0  0  0  0  0  0  0  0  # atno 7974 bound_to 7965
  155.7543  140.0830  157.2186 H   0  0  0  0  0  0  0  0  0  0  0  0  # atno 8008 bound_to 7997
  154.4009  140.1554  156.2816 H   0  0  0  0  0  0  0  0  0  0  0  0  # atno 8009 bound_to 7997
  155.8900  140.3416  155.5952 H   0  0  0  0  0  0  0  0  0  0  0  0  # atno 8010 bound_to 7997
  139.6119  144.0797  152.1850 H   0  0  0  0  0  0  0  0  0  0  0  0  # atno 10167 bound_to 10162
  157.6303  130.9386  150.0410 H   0  0  0  0  0  0  0  0  0  0  0  0  # atno 10718 bound_to 10713
  153.9724  135.2949  155.3426 H   0  0  0  0  0  0  0  0  0  0  0  0  # atno 10763 bound_to 10752
  154.7315  135.5065  153.8974 H   0  0  0  0  0  0  0  0  0  0  0  0  # atno 10764 bound_to 10752
  153.0893  135.6703  153.9997 H   0  0  0  0  0  0  0  0  0  0  0  0  # atno 10765 bound_to 10752
  139.9936  134.9505  156.9914 H   0  0  0  0  0  0  0  0  0  0  0  0  # atno 11005 bound_to 11000
  145.3663  141.0335  143.3256 LP  0  0  0  0  0  0  0  0  0  0  0  0  # atno 17320 bound_to 7965
  144.8568  139.5238  143.6831 LP  0  0  0  0  0  0  0  0  0  0  0  0  # atno 17321 bound_to 7965
  140.0418  144.6001  150.7405 LP  0  0  0  0  0  0  0  0  0  0  0  0  # atno 17342 bound_to 10162
  140.7325  143.2706  151.3900 LP  0  0  0  0  0  0  0  0  0  0  0  0  # atno 17343 bound_to 10162
  156.1502  130.3642  149.9450 LP  0  0  0  0  0  0  0  0  0  0  0  0  # atno 17370 bound_to 10713
  156.7472  130.9101  151.3635 LP  0  0  0  0  0  0  0  0  0  0  0  0  # atno 17371 bound_to 10713
  140.4860  134.1241  155.7224 LP  0  0  0  0  0  0  0  0  0  0  0  0  # atno 17394 bound_to 11000
  141.1586  133.8835  157.1909 LP  0  0  0  0  0  0  0  0  0  0  0  0  # atno 17395 bound_to 11000

$$$$
