AV-unprocessed.smi:2835|AV-procd|sdf|10918|dock5
  -GOLD-   2272015363D 1   1.00000     0.00000
 Structure written by MMmdl.
 34 35  0  0  0  0  0  0  0  0  2 V2000
  152.3806  139.0960  159.0514 O   0  0  0  0  0  0  0  0  0  0  0  0
  152.5308  140.3000  158.8513 C   0  0  0  0  0  0  0  0  0  0  0  0
  153.4639  141.0801  159.7929 C   0  0  0  0  0  0  0  0  0  0  0  0
  152.9649  142.3949  160.1722 N   0  0  0  0  0  0  0  0  0  0  0  0
  152.7156  142.8850  161.4375 C   0  0  0  0  0  0  0  0  0  0  0  0
  152.2375  144.1559  161.2945 C   0  0  0  0  0  0  0  0  0  0  0  0
  152.2312  144.3580  159.8860 C   0  0  0  0  0  0  0  0  0  0  0  0
  152.6715  143.3046  159.2173 N   0  0  0  0  0  0  0  0  0  0  0  0
  151.9302  140.9907  157.8607 N   0  0  0  0  0  0  0  0  0  0  0  0
  151.0024  140.5964  156.7892 C   0  0  0  0  0  0  0  0  0  0  0  0
  151.8482  139.7082  155.8402 C   0  0  0  0  0  0  0  0  0  0  0  0
  151.3389  139.3586  154.7519 O   0  0  0  0  0  0  0  0  0  0  0  0
  152.9813  139.3493  156.2331 O   0  5  0  0  0  0  0  0  0  0  0  0
  149.7199  139.8467  157.2731 C   0  0  0  0  0  0  0  0  0  0  0  0
  148.7002  139.5959  156.1446 C   0  0  0  0  0  0  0  0  0  0  0  0
  148.2975  140.9093  155.4591 C   0  0  0  0  0  0  0  0  0  0  0  0
  149.5297  141.6707  154.9495 C   0  0  0  0  0  0  0  0  0  0  0  0
  150.5510  141.9055  156.0800 C   0  0  0  0  0  0  0  0  0  0  0  0
  153.6200  140.4963  160.7006 H   0  0  0  0  0  0  0  0  0  0  0  0
  154.4393  141.1934  159.3176 H   0  0  0  0  0  0  0  0  0  0  0  0
  152.8907  142.2918  162.3232 H   0  0  0  0  0  0  0  0  0  0  0  0
  151.9345  144.8363  162.0763 H   0  0  0  0  0  0  0  0  0  0  0  0
  151.9221  145.2331  159.3335 H   0  0  0  0  0  0  0  0  0  0  0  0
  152.1832  141.9675  157.8219 H   0  0  0  0  0  0  0  0  0  0  0  0
  149.9714  138.8989  157.7514 H   0  0  0  0  0  0  0  0  0  0  0  0
  149.2164  140.4433  158.0345 H   0  0  0  0  0  0  0  0  0  0  0  0
  149.1125  138.9066  155.4070 H   0  0  0  0  0  0  0  0  0  0  0  0
  147.8146  139.1083  156.5525 H   0  0  0  0  0  0  0  0  0  0  0  0
  147.6171  140.7048  154.6320 H   0  0  0  0  0  0  0  0  0  0  0  0
  147.7489  141.5348  156.1643 H   0  0  0  0  0  0  0  0  0  0  0  0
  149.9931  141.1155  154.1335 H   0  0  0  0  0  0  0  0  0  0  0  0
  149.2214  142.6279  154.5283 H   0  0  0  0  0  0  0  0  0  0  0  0
  150.1008  142.5703  156.8188 H   0  0  0  0  0  0  0  0  0  0  0  0
  151.4078  142.4551  155.6868 H   0  0  0  0  0  0  0  0  0  0  0  0
  1  2  2  0  0  0  0
  2  3  1  0  0  0  0
  2  9  1  0  0  0  0
  3  4  1  0  0  0  0
  3 19  1  0  0  0  0
  3 20  1  0  0  0  0
  4  8  1  0  0  0  0
  4  5  1  0  0  0  0
  5  6  2  0  0  0  0
  5 21  1  0  0  0  0
  6  7  1  0  0  0  0
  6 22  1  0  0  0  0
  7  8  2  0  0  0  0
  7 23  1  0  0  0  0
  9 10  1  0  0  0  0
  9 24  1  0  0  0  0
 10 18  1  0  0  0  0
 10 11  1  0  0  0  0
 10 14  1  0  0  0  0
 11 12  2  0  0  0  0
 11 13  1  0  0  0  0
 14 15  1  0  0  0  0
 14 25  1  0  0  0  0
 14 26  1  0  0  0  0
 15 16  1  0  0  0  0
 15 27  1  0  0  0  0
 15 28  1  0  0  0  0
 16 17  1  0  0  0  0
 16 29  1  0  0  0  0
 16 30  1  0  0  0  0
 17 18  1  0  0  0  0
 17 31  1  0  0  0  0
 17 32  1  0  0  0  0
 18 33  1  0  0  0  0
 18 34  1  0  0  0  0
M  CHG  1  13  -1
M  END
> <s_m_source_file>
AV-unprocessed.smi

> <i_m_source_file_index>
2835

> <i_lp_mmshare_version>
43012

> <i_f3d_flags>
0

> <s_epik_input>
bjFbY0hdW2NIXVtjSF1uMVtDSDJdQyg9TylbTkhdQzIoQyg9TylbT0hdKVtDSDJdW0NIMl1bQ0gyXVtDSDJdW0NIMl0y

> <s_epik_cmdline>
J2VwaWtfcHl0aG9uJywgJy1waCcsICc3LjAnLCAnLXRuJywgJzgnLCAnLW1hJywgJzIwMCcsICctbWV0YWxfYmluZGluZycsICctaW1hZScsICc8aW5maWxlLm1hZT4nLCAnLW9tYWUnLCAnPG91dGZpbGUubWFlPic=

> <r_lp_tautomer_probability>
1

> <r_epik_Ionization_Penalty>
0.000342313

> <r_epik_Ionization_Penalty_Charging>
0.000323848

> <r_epik_Ionization_Penalty_Neutral>
1.84652e-05

> <r_epik_State_Penalty>
0.000195685

> <r_epik_Charging_Adjusted_Penalty>
0.000519533

> <i_epik_Tot_Q>
-1

> <i_epik_Tot_abs_Q>
1

> <r_epik_Metal_State_Penalty>
-0

> <b_epik_Metal_Only>
0

> <s_lp_Force_Field>
OPLS_2005

> <r_lp_Energy>
5.56985

> <b_lp_Chiralities_Consistent>
1

> <s_lp_Variant>
AV-unprocessed.smi:2835-1

> <Gold.Version>
5.8.1

> <Gold.Id.Protein>
6NUR|6NUR_protein|mol2

> <Gold.PLP.Fitness>
45.8157

> <Gold.PLP.PLP>
-37.6918

> <Gold.PLP.part.hbond>
-1.9723

> <Gold.PLP.part.metal>
0.0000

> <Gold.PLP.part.buried>
-5.5714

> <Gold.PLP.part.nonpolar>
-30.2376

> <Gold.PLP.part.repulsive>
0.1509

> <Gold.PLP.ligand.clash>
0.0000

> <Gold.PLP.ligand.torsion>
0.4653

> <Gold.PLP.Chemscore.Hbond>
3.0000

> <Gold.PLP.Chemscore.CHOScore>
0.0000

> <Gold.PLP.Chemscore.Metal>
0.0000

> <Gold.Chemscore.Hbonds>
donor molecule, donor type, donor heavy atom, donor atom, acceptor molecule, acceptor atom, score
      P1  H  7989  7998       L1    12  1.00
      P1  H  7997  8008       L1    13  2.00

> <Gold.PLP.Chemscore.Internal.Correction>
0.0545

> <Gold.Rescore>
     Score         DG    S(hbond)    S(metal)    S(lipo)     H(rot)  DE(clash)    DE(int)     intcor
     11.56     -16.05       1.93        0.00      79.67       2.03       0.35       4.13       ----

> <Gold.Chemscore.Fitness>
11.5633

> <Gold.Chemscore.DG>
-16.0510

> <Gold.Chemscore.ZeroCoef>
-5.4800

> <Gold.Chemscore.Hbond>
1.9330

> <Gold.Chemscore.Metal>
0.0000

> <Gold.Chemscore.Lipo>
79.6688

> <Gold.Chemscore.Internal_Hbond>
0.0000

> <Gold.Chemscore.DEClash>
0.3549

> <Gold.Chemscore.DEInternal>
4.1328

> <Gold.Chemscore.Rot>
2.0338

> <Gold.Chemscore.Internal.Correction>
   9.000000E+99

> <Gold.Chemscore.Hbonds>
donor molecule, donor type, donor heavy atom, donor atom, acceptor molecule, acceptor atom, score
      P1  H  7989  7998       L1    12  0.54
      P1  H  7997  8008       L1    13  0.94

> <Gold.Chemscore.Hbond.Weighted>
-6.4563

> <Gold.Chemscore.Metal.Weighted>
-0.0000

> <Gold.Chemscore.Lipo.Weighted>
-9.3213

> <Gold.Chemscore.Internal_Hbond.Weighted>
0.0000

> <Gold.Chemscore.DEClash.Weighted>
0.3549

> <Gold.Chemscore.DEInternal.Weighted>
4.1328

> <Gold.Chemscore.Rot.Weighted>
5.2066

> <Gold.Chemscore.Internal.Correction.Weighted>
   9.000000E+99

> <Gold.Protein.RotatedTorsions>
[ 6907 6896 6895 6894 ] final -173.77 input  -60.11 | X-H torsion
[ 7974 7965 7964 7962 ] final   11.02 input  175.53 | X-H torsion
[ 8008 7997 7996 7995 ] final  -24.06 input   59.86 | X-H torsion
[ 10167 10162 10161 10158 ] final  -42.62 input  -65.29 | X-H torsion
[ 10718 10713 10712 10709 ] final -149.17 input   66.30 | X-H torsion
[ 10763 10752 10751 10750 ] final   80.47 input  -60.55 | X-H torsion
[ 11005 11000 10999 10996 ] final  -60.97 input  -57.11 | X-H torsion

> <Gold.Protein.ActiveResidues>
 VAL166  LYS551  ARG553  GLY616  TRP617  ASP618  TYR619  PRO620  LYS621  CYS622 
 ASP623  PHE694  ASN695  SER759  ASP760  ASP761  ALA762  ILE779  LEU786  VAL792 
 PHE793  MET794  SER795  GLU796  ALA797  LYS798  CYS799  TRP800  GLU811  SER814 

> <Gold.Protein.RotatedAtoms>
  151.5615  133.3402  159.2971 H   0  0  0  0  0  0  0  0  0  0  0  0  # atno 6907 bound_to 6896
  150.8420  134.7718  159.6951 H   0  0  0  0  0  0  0  0  0  0  0  0  # atno 6908 bound_to 6896
  152.4486  134.5450  159.9902 H   0  0  0  0  0  0  0  0  0  0  0  0  # atno 6909 bound_to 6896
  146.2378  139.9547  142.8466 H   0  0  0  0  0  0  0  0  0  0  0  0  # atno 7974 bound_to 7965
  154.4550  140.1964  156.0405 H   0  0  0  0  0  0  0  0  0  0  0  0  # atno 8008 bound_to 7997
  156.0728  140.3282  155.7569 H   0  0  0  0  0  0  0  0  0  0  0  0  # atno 8009 bound_to 7997
  155.5236  140.0572  157.2893 H   0  0  0  0  0  0  0  0  0  0  0  0  # atno 8010 bound_to 7997
  140.6963  143.3028  151.3234 H   0  0  0  0  0  0  0  0  0  0  0  0  # atno 10167 bound_to 10162
  156.4297  130.8069  151.2296 H   0  0  0  0  0  0  0  0  0  0  0  0  # atno 10718 bound_to 10713
  153.1036  135.4801  154.8911 H   0  0  0  0  0  0  0  0  0  0  0  0  # atno 10763 bound_to 10752
  154.7406  135.3081  154.8738 H   0  0  0  0  0  0  0  0  0  0  0  0  # atno 10764 bound_to 10752
  153.9347  135.6841  153.4798 H   0  0  0  0  0  0  0  0  0  0  0  0  # atno 10765 bound_to 10752
  141.1307  133.6626  156.5304 H   0  0  0  0  0  0  0  0  0  0  0  0  # atno 11005 bound_to 11000
  145.1828  140.9775  143.4256 LP  0  0  0  0  0  0  0  0  0  0  0  0  # atno 17320 bound_to 7965
  144.9927  139.3674  143.6207 LP  0  0  0  0  0  0  0  0  0  0  0  0  # atno 17321 bound_to 7965
  139.6422  144.0518  152.2563 LP  0  0  0  0  0  0  0  0  0  0  0  0  # atno 17342 bound_to 10162
  140.0027  144.6282  150.7716 LP  0  0  0  0  0  0  0  0  0  0  0  0  # atno 17343 bound_to 10162
  157.7508  131.0202  150.3699 LP  0  0  0  0  0  0  0  0  0  0  0  0  # atno 17370 bound_to 10713
  156.4034  130.3920  149.6943 LP  0  0  0  0  0  0  0  0  0  0  0  0  # atno 17371 bound_to 10713
  140.4220  134.7178  157.4895 LP  0  0  0  0  0  0  0  0  0  0  0  0  # atno 17394 bound_to 11000
  140.0353  134.6346  155.9052 LP  0  0  0  0  0  0  0  0  0  0  0  0  # atno 17395 bound_to 11000

$$$$
