AV-unprocessed.smi:1550|AV-procd|sdf|6228|dock7
  -GOLD-   22720 6403D 1   1.00000     0.00000
 Structure written by MMmdl.
 42 43  0  0  0  0  0  0  0  0  2 V2000
  149.7043  138.3073  157.4150 C   0  0  0  0  0  0  0  0  0  0  0  0
  150.6009  137.7297  158.5202 C   0  0  2  0  0  0  0  0  0  0  0  0
  149.8080  136.8328  159.2931 O   0  0  0  0  0  0  0  0  0  0  0  0
  148.6260  137.3932  159.8541 C   0  0  0  0  0  0  0  0  0  0  0  0
  148.4107  136.7942  161.2498 C   0  0  2  0  0  0  0  0  0  0  0  0
  147.3745  135.6532  161.2321 C   0  0  0  0  0  0  0  0  0  0  0  0
  147.1175  135.1367  162.6524 C   0  0  0  0  0  0  0  0  0  0  0  0
  146.7454  136.3074  163.5683 C   0  0  0  0  0  0  0  0  0  0  0  0
  147.8019  137.4187  163.4673 C   0  0  0  0  0  0  0  0  0  0  0  0
  147.9406  137.8299  162.1109 O   0  0  0  0  0  0  0  0  0  0  0  0
  151.1726  138.8402  159.4166 C   0  0  0  0  0  0  0  0  0  0  0  0
  151.2052  138.6737  160.6355 O   0  0  0  0  0  0  0  0  0  0  0  0
  151.6331  139.9252  158.7633 N   0  0  0  0  0  0  0  0  0  0  0  0
  152.2183  141.1013  159.2643 C   0  0  0  0  0  0  0  0  0  0  0  0
  151.8146  142.3673  158.9645 C   0  0  0  0  0  0  0  0  0  0  0  0
  152.4694  143.5467  159.5164 C   0  0  0  0  0  0  0  0  0  0  0  0
  152.0916  144.9706  159.1476 C   0  0  0  0  0  0  0  0  0  0  0  0
  150.7818  145.1731  159.2921 F   0  0  0  0  0  0  0  0  0  0  0  0
  152.7398  145.8500  159.9118 F   0  0  0  0  0  0  0  0  0  0  0  0
  152.4110  145.2096  157.8765 F   0  0  0  0  0  0  0  0  0  0  0  0
  153.5381  143.2214  160.3286 C   0  0  0  0  0  0  0  0  0  0  0  0
  153.9979  142.0010  160.6812 N   0  5  0  0  0  0  0  0  0  0  0  0
  153.3698  140.9049  160.1696 C   0  0  0  0  0  0  0  0  0  0  0  0
  153.7405  139.7634  160.4461 O   0  0  0  0  0  0  0  0  0  0  0  0
  150.2493  139.0216  156.7965 H   0  0  0  0  0  0  0  0  0  0  0  0
  148.8324  138.8160  157.8283 H   0  0  0  0  0  0  0  0  0  0  0  0
  149.3414  137.5153  156.7599 H   0  0  0  0  0  0  0  0  0  0  0  0
  151.4143  137.1781  158.0440 H   0  0  0  0  0  0  0  0  0  0  0  0
  148.7035  138.4799  159.9122 H   0  0  0  0  0  0  0  0  0  0  0  0
  147.7655  137.1599  159.2262 H   0  0  0  0  0  0  0  0  0  0  0  0
  149.3629  136.4106  161.6209 H   0  0  0  0  0  0  0  0  0  0  0  0
  146.4396  136.0107  160.7986 H   0  0  0  0  0  0  0  0  0  0  0  0
  147.7204  134.8366  160.5975 H   0  0  0  0  0  0  0  0  0  0  0  0
  146.3249  134.3879  162.6493 H   0  0  0  0  0  0  0  0  0  0  0  0
  148.0145  134.6450  163.0312 H   0  0  0  0  0  0  0  0  0  0  0  0
  145.7715  136.7048  163.2796 H   0  0  0  0  0  0  0  0  0  0  0  0
  146.6522  135.9659  164.5995 H   0  0  0  0  0  0  0  0  0  0  0  0
  147.5014  138.2778  164.0673 H   0  0  0  0  0  0  0  0  0  0  0  0
  148.7633  137.0797  163.8564 H   0  0  0  0  0  0  0  0  0  0  0  0
  151.5848  139.8878  157.7554 H   0  0  0  0  0  0  0  0  0  0  0  0
  150.9923  142.5454  158.2924 H   0  0  0  0  0  0  0  0  0  0  0  0
  154.1109  144.0701  160.7597 H   0  0  0  0  0  0  0  0  0  0  0  0
  1  2  1  0  0  0  0
  1 25  1  0  0  0  0
  1 26  1  0  0  0  0
  1 27  1  0  0  0  0
  2  3  1  0  0  0  0
  2 11  1  0  0  0  0
  2 28  1  0  0  0  0
  3  4  1  0  0  0  0
  4  5  1  0  0  0  0
  4 29  1  0  0  0  0
  4 30  1  0  0  0  0
  5 10  1  0  0  0  0
  5  6  1  0  0  0  0
  5 31  1  0  0  0  0
  6  7  1  0  0  0  0
  6 32  1  0  0  0  0
  6 33  1  0  0  0  0
  7  8  1  0  0  0  0
  7 34  1  0  0  0  0
  7 35  1  0  0  0  0
  8  9  1  0  0  0  0
  8 36  1  0  0  0  0
  8 37  1  0  0  0  0
  9 10  1  0  0  0  0
  9 38  1  0  0  0  0
  9 39  1  0  0  0  0
 11 12  2  0  0  0  0
 11 13  1  0  0  0  0
 13 14  1  0  0  0  0
 13 40  1  0  0  0  0
 14 23  1  0  0  0  0
 14 15  2  0  0  0  0
 15 16  1  0  0  0  0
 15 41  1  0  0  0  0
 16 17  1  0  0  0  0
 16 21  2  0  0  0  0
 17 18  1  0  0  0  0
 17 19  1  0  0  0  0
 17 20  1  0  0  0  0
 21 22  1  0  0  0  0
 21 42  1  0  0  0  0
 22 23  1  0  0  0  0
 23 24  2  0  0  0  0
M  CHG  1  22  -1
M  END
> <s_m_source_file>
AV-unprocessed.smi

> <i_m_source_file_index>
1550

> <i_lp_mmshare_version>
43012

> <i_f3d_flags>
0

> <s_epik_input>
TzFbQ0gyXVtDSDJdW0NIMl1bQ0gyXVtDQEhdMVtDSDJdT1tDQEBIXShbQ0gzXSlDKD1PKVtOSF1jMltjSF1jKEMoRikoRilGKVtjSF1bbkhdYzI9Tw==

> <s_epik_cmdline>
J2VwaWtfcHl0aG9uJywgJy1waCcsICc3LjAnLCAnLXRuJywgJzgnLCAnLW1hJywgJzIwMCcsICctbWV0YWxfYmluZGluZycsICctaW1hZScsICc8aW5maWxlLm1hZT4nLCAnLW9tYWUnLCAnPG91dGZpbGUubWFlPic=

> <r_epik_Ionization_Penalty>
2.54933

> <r_epik_Ionization_Penalty_Charging>
0.0583423

> <r_epik_Ionization_Penalty_Neutral>
2.49099

> <r_epik_State_Penalty>
2.65532

> <r_epik_Charging_Adjusted_Penalty>
2.71366

> <i_epik_Tot_Q>
-1

> <i_epik_Tot_abs_Q>
1

> <r_epik_Metal_State_Penalty>
0.516364

> <b_epik_Metal_Only>
0

> <s_lp_Force_Field>
OPLS_2005

> <r_lp_Energy>
27.7019

> <b_lp_Chiralities_Consistent>
1

> <s_lp_Variant>
AV-unprocessed.smi:1550-5

> <Gold.Version>
5.8.1

> <Gold.Id.Protein>
6NUR|6NUR_protein|mol2

> <Gold.PLP.Fitness>
52.0958

> <Gold.PLP.PLP>
-50.0238

> <Gold.PLP.part.hbond>
-3.3671

> <Gold.PLP.part.metal>
0.0000

> <Gold.PLP.part.buried>
-5.9183

> <Gold.PLP.part.nonpolar>
-41.0619

> <Gold.PLP.part.repulsive>
0.1009

> <Gold.PLP.ligand.clash>
0.0000

> <Gold.PLP.ligand.torsion>
2.0640

> <Gold.PLP.Chemscore.Hbond>
2.0040

> <Gold.PLP.Chemscore.CHOScore>
0.0000

> <Gold.PLP.Chemscore.Metal>
0.0000

> <Gold.Chemscore.Hbonds>
donor molecule, donor type, donor heavy atom, donor atom, acceptor molecule, acceptor atom, score
      P1  H  6896  6908       L1     3  0.47
      P1  H  6931  6943       L1    10  0.01
      P1  H  6934  6947       L1    10  0.29

> <Gold.PLP.Chemscore.Internal.Correction>
0.1881

> <Gold.Rescore>
     Score         DG    S(hbond)    S(metal)    S(lipo)     H(rot)  DE(clash)    DE(int)     intcor
      9.50     -16.04       1.22        0.00      95.46       1.82       1.89       4.65       ----

> <Gold.Chemscore.Fitness>
9.5007

> <Gold.Chemscore.DG>
-16.0411

> <Gold.Chemscore.ZeroCoef>
-5.4800

> <Gold.Chemscore.Hbond>
1.2157

> <Gold.Chemscore.Metal>
0.0000

> <Gold.Chemscore.Lipo>
95.4633

> <Gold.Chemscore.Internal_Hbond>
0.0000

> <Gold.Chemscore.DEClash>
1.8881

> <Gold.Chemscore.DEInternal>
4.6524

> <Gold.Chemscore.Rot>
1.8236

> <Gold.Chemscore.Internal.Correction>
   9.000000E+99

> <Gold.Chemscore.Hbonds>
donor molecule, donor type, donor heavy atom, donor atom, acceptor molecule, acceptor atom, score
      P1  H  6896  6908       L1     3  0.39
      P1  H  6934  6947       L1    10  0.13

> <Gold.Chemscore.Hbond.Weighted>
-4.0603

> <Gold.Chemscore.Metal.Weighted>
-0.0000

> <Gold.Chemscore.Lipo.Weighted>
-11.1692

> <Gold.Chemscore.Internal_Hbond.Weighted>
0.0000

> <Gold.Chemscore.DEClash.Weighted>
1.8881

> <Gold.Chemscore.DEInternal.Weighted>
4.6524

> <Gold.Chemscore.Rot.Weighted>
4.6684

> <Gold.Chemscore.Internal.Correction.Weighted>
   9.000000E+99

> <Gold.Protein.RotatedTorsions>
[ 6907 6896 6895 6894 ] final -166.89 input  -60.11 | X-H torsion
[ 7974 7965 7964 7962 ] final  -87.47 input  175.53 | X-H torsion
[ 8008 7997 7996 7995 ] final   65.36 input   59.86 | X-H torsion
[ 10167 10162 10161 10158 ] final -103.23 input  -65.29 | X-H torsion
[ 10718 10713 10712 10709 ] final -106.71 input   66.30 | X-H torsion
[ 10763 10752 10751 10750 ] final -159.74 input  -60.55 | X-H torsion
[ 11005 11000 10999 10996 ] final  177.42 input  -57.11 | X-H torsion

> <Gold.Protein.ActiveResidues>
 VAL166  LYS551  ARG553  GLY616  TRP617  ASP618  TYR619  PRO620  LYS621  CYS622 
 ASP623  PHE694  ASN695  SER759  ASP760  ASP761  ALA762  ILE779  LEU786  VAL792 
 PHE793  MET794  SER795  GLU796  ALA797  LYS798  CYS799  TRP800  GLU811  SER814 

> <Gold.Protein.RotatedAtoms>
  151.4508  133.3618  159.2794 H   0  0  0  0  0  0  0  0  0  0  0  0  # atno 6907 bound_to 6896
  150.9092  134.8510  159.7424 H   0  0  0  0  0  0  0  0  0  0  0  0  # atno 6908 bound_to 6896
  152.4923  134.4436  159.9603 H   0  0  0  0  0  0  0  0  0  0  0  0  # atno 6909 bound_to 6896
  145.4661  140.9560  143.1943 H   0  0  0  0  0  0  0  0  0  0  0  0  # atno 7974 bound_to 7965
  155.6606  140.3497  155.4781 H   0  0  0  0  0  0  0  0  0  0  0  0  # atno 8008 bound_to 7997
  155.9772  140.1167  157.0783 H   0  0  0  0  0  0  0  0  0  0  0  0  # atno 8009 bound_to 7997
  154.4182  140.1145  156.5372 H   0  0  0  0  0  0  0  0  0  0  0  0  # atno 8010 bound_to 7997
  140.2222  143.3668  152.0960 H   0  0  0  0  0  0  0  0  0  0  0  0  # atno 10167 bound_to 10162
  156.0402  130.5626  150.7719 H   0  0  0  0  0  0  0  0  0  0  0  0  # atno 10718 bound_to 10713
  154.7450  135.3078  154.8661 H   0  0  0  0  0  0  0  0  0  0  0  0  # atno 10763 bound_to 10752
  153.9465  135.6769  153.4748 H   0  0  0  0  0  0  0  0  0  0  0  0  # atno 10764 bound_to 10752
  153.1047  135.4895  154.8855 H   0  0  0  0  0  0  0  0  0  0  0  0  # atno 10765 bound_to 10752
  140.3839  134.6922  157.4467 H   0  0  0  0  0  0  0  0  0  0  0  0  # atno 11005 bound_to 11000
  144.7973  139.6208  143.7087 LP  0  0  0  0  0  0  0  0  0  0  0  0  # atno 17320 bound_to 7965
  146.2424  139.6027  142.9483 LP  0  0  0  0  0  0  0  0  0  0  0  0  # atno 17321 bound_to 7965
  139.5140  144.6941  151.5678 LP  0  0  0  0  0  0  0  0  0  0  0  0  # atno 17342 bound_to 10162
  140.6247  143.9192  150.6555 LP  0  0  0  0  0  0  0  0  0  0  0  0  # atno 17343 bound_to 10162
  157.5210  131.0931  151.0078 LP  0  0  0  0  0  0  0  0  0  0  0  0  # atno 17370 bound_to 10713
  157.0409  130.5748  149.5356 LP  0  0  0  0  0  0  0  0  0  0  0  0  # atno 17371 bound_to 10713
  140.0458  134.6202  155.8923 LP  0  0  0  0  0  0  0  0  0  0  0  0  # atno 17394 bound_to 11000
  141.1914  133.6571  156.5455 LP  0  0  0  0  0  0  0  0  0  0  0  0  # atno 17395 bound_to 11000

$$$$
