AV-unprocessed.smi:95|AV-procd|sdf|855|dock8
  -GOLD-   2262017303D 1   1.00000     0.00000
 Structure written by MMmdl.
 41 44  0  0  0  0  0  0  0  0  1 V2000
  149.7881  138.9949  156.0297 O   0  0  0  0  0  0  0  0  0  0  0  0
  149.4582  138.3232  157.0090 C   0  0  0  0  0  0  0  0  0  0  0  0
  148.0994  137.8433  157.2340 C   0  0  0  0  0  0  0  0  0  0  0  0
  147.1445  138.0988  156.3238 F   0  0  0  0  0  0  0  0  0  0  0  0
  147.7825  137.1439  158.3449 C   0  0  0  0  0  0  0  0  0  0  0  0
  148.6977  136.8453  159.3379 N   0  0  0  0  0  0  0  0  0  0  0  0
  148.2504  136.0412  160.5366 C   0  0  2  0  0  0  0  0  0  0  0  0
  147.0407  135.1300  160.2515 C   0  0  0  0  0  0  0  0  0  0  0  0
  146.0098  135.6083  161.2608 C   0  0  0  0  0  0  0  0  0  0  0  0
  146.8645  136.3010  162.3163 C   0  0  0  0  0  0  0  0  0  0  0  0
  147.8868  136.9229  161.5534 O   0  0  0  0  0  0  0  0  0  0  0  0
  150.0500  137.2293  159.1826 C   0  0  0  0  0  0  0  0  0  0  0  0
  150.8940  136.9431  160.0337 O   0  0  0  0  0  0  0  0  0  0  0  0
  150.3835  137.9629  158.0182 N   0  0  0  0  0  0  0  0  0  0  0  0
  151.7473  138.4498  157.8719 C   0  0  0  0  0  0  0  0  0  0  0  0
  152.0579  139.7435  158.6162 C   0  0  0  0  0  0  0  0  0  0  0  0
  152.8128  139.7096  159.8054 C   0  0  0  0  0  0  0  0  0  0  0  0
  153.0719  140.9219  160.4703 C   0  0  0  0  0  0  0  0  0  0  0  0
  152.5636  142.1190  159.9261 C   0  0  0  0  0  0  0  0  0  0  0  0
  152.8065  143.3504  160.5686 C   0  0  0  0  0  0  0  0  0  0  0  0
  152.2940  144.5414  160.0221 C   0  0  0  0  0  0  0  0  0  0  0  0
  151.5404  144.4998  158.8350 C   0  0  0  0  0  0  0  0  0  0  0  0
  151.3002  143.2686  158.1948 C   0  0  0  0  0  0  0  0  0  0  0  0
  151.8040  142.0619  158.7253 C   0  0  0  0  0  0  0  0  0  0  0  0
  151.5616  140.8900  158.0966 N   0  0  0  0  0  0  0  0  0  0  0  0
  146.7608  136.8121  158.4585 H   0  0  0  0  0  0  0  0  0  0  0  0
  149.1210  135.4661  160.8556 H   0  0  0  0  0  0  0  0  0  0  0  0
  146.6931  135.2026  159.2204 H   0  0  0  0  0  0  0  0  0  0  0  0
  147.3304  134.0970  160.4458 H   0  0  0  0  0  0  0  0  0  0  0  0
  145.3351  136.3290  160.7981 H   0  0  0  0  0  0  0  0  0  0  0  0
  145.4068  134.7974  161.6698 H   0  0  0  0  0  0  0  0  0  0  0  0
  146.3026  137.0262  162.9049 H   0  0  0  0  0  0  0  0  0  0  0  0
  147.3085  135.5726  162.9966 H   0  0  0  0  0  0  0  0  0  0  0  0
  152.4368  137.6649  158.1838 H   0  0  0  0  0  0  0  0  0  0  0  0
  151.9284  138.5623  156.8013 H   0  0  0  0  0  0  0  0  0  0  0  0
  153.1882  138.7766  160.1997 H   0  0  0  0  0  0  0  0  0  0  0  0
  153.6503  140.9282  161.3827 H   0  0  0  0  0  0  0  0  0  0  0  0
  153.3849  143.3864  161.4803 H   0  0  0  0  0  0  0  0  0  0  0  0
  152.4783  145.4858  160.5131 H   0  0  0  0  0  0  0  0  0  0  0  0
  151.1458  145.4129  158.4142 H   0  0  0  0  0  0  0  0  0  0  0  0
  150.7201  143.2506  157.2837 H   0  0  0  0  0  0  0  0  0  0  0  0
  1  2  2  0  0  0  0
  2 14  1  0  0  0  0
  2  3  1  0  0  0  0
  3  4  1  0  0  0  0
  3  5  2  0  0  0  0
  5  6  1  0  0  0  0
  5 26  1  0  0  0  0
  6  7  1  0  0  0  0
  6 12  1  0  0  0  0
  7 11  1  0  0  0  0
  7  8  1  0  0  0  0
  7 27  1  0  0  0  0
  8  9  1  0  0  0  0
  8 28  1  0  0  0  0
  8 29  1  0  0  0  0
  9 10  1  0  0  0  0
  9 30  1  0  0  0  0
  9 31  1  0  0  0  0
 10 11  1  0  0  0  0
 10 32  1  0  0  0  0
 10 33  1  0  0  0  0
 12 13  2  0  0  0  0
 12 14  1  0  0  0  0
 14 15  1  0  0  0  0
 15 16  1  0  0  0  0
 15 34  1  0  0  0  0
 15 35  1  0  0  0  0
 16 25  1  0  0  0  0
 16 17  2  0  0  0  0
 17 18  1  0  0  0  0
 17 36  1  0  0  0  0
 18 19  2  0  0  0  0
 18 37  1  0  0  0  0
 19 24  1  0  0  0  0
 19 20  1  0  0  0  0
 20 21  2  0  0  0  0
 20 38  1  0  0  0  0
 21 22  1  0  0  0  0
 21 39  1  0  0  0  0
 22 23  2  0  0  0  0
 22 40  1  0  0  0  0
 23 24  1  0  0  0  0
 23 41  1  0  0  0  0
 24 25  2  0  0  0  0
M  END
> <s_m_source_file>
AV-unprocessed.smi

> <i_m_source_file_index>
95

> <i_lp_mmshare_version>
43012

> <i_f3d_flags>
0

> <s_epik_input>
TzFbQ0gyXVtDSDJdW0NIMl1bQ0BIXTFuKFtjSF1jKEYpYzI9TyljKD1PKW4yW0NIMl1jKFtjSF1bY0hdMyluYyhjMzQpW2NIXVtjSF1bY0hdW2NIXTQ=

> <s_epik_cmdline>
J2VwaWtfcHl0aG9uJywgJy1waCcsICc3LjAnLCAnLXRuJywgJzgnLCAnLW1hJywgJzIwMCcsICctbWV0YWxfYmluZGluZycsICctaW1hZScsICc8aW5maWxlLm1hZT4nLCAnLW9tYWUnLCAnPG91dGZpbGUubWFlPic=

> <r_lp_tautomer_probability>
1

> <r_epik_Ionization_Penalty>
0.0274176

> <r_epik_Ionization_Penalty_Charging>
1.11818e-08

> <r_epik_Ionization_Penalty_Neutral>
0.0274176

> <r_epik_State_Penalty>
0.0224396

> <r_epik_Charging_Adjusted_Penalty>
0.0224396

> <i_epik_Tot_Q>
0

> <i_epik_Tot_abs_Q>
0

> <r_epik_Metal_State_Penalty>
2.28695e-05

> <b_epik_Metal_Only>
0

> <s_epik_Chemistry_Notes>
This compound contains an acetal/aminal-like group ( X-CH(R)-Y where X, Y are N, S, or O) that may be acid/base labile, releasing an aldehyde.

> <s_lp_Force_Field>
OPLS_2005

> <r_lp_Energy>
29.0351

> <b_lp_Chiralities_Consistent>
1

> <s_lp_Variant>
AV-unprocessed.smi:95-1

> <Gold.Version>
5.8.1

> <Gold.Id.Protein>
6NUR|6NUR_protein|mol2

> <Gold.PLP.Fitness>
50.2744

> <Gold.PLP.PLP>
-44.7832

> <Gold.PLP.part.hbond>
-3.1739

> <Gold.PLP.part.metal>
0.0000

> <Gold.PLP.part.buried>
-5.7400

> <Gold.PLP.part.nonpolar>
-36.5040

> <Gold.PLP.part.repulsive>
0.0172

> <Gold.PLP.ligand.clash>
0.0000

> <Gold.PLP.ligand.torsion>
1.2475

> <Gold.PLP.Chemscore.Hbond>
2.6552

> <Gold.PLP.Chemscore.CHOScore>
0.0000

> <Gold.PLP.Chemscore.Metal>
0.0000

> <Gold.Chemscore.Hbonds>
donor molecule, donor type, donor heavy atom, donor atom, acceptor molecule, acceptor atom, score
      P1  H  6896  6909       L1    13  1.00
      P1  H  6931  6943       L1    11  1.00
      P1  H  6934  6947       L1    11  0.25

> <Gold.PLP.Chemscore.Internal.Correction>
0.0205

> <Gold.Rescore>
     Score         DG    S(hbond)    S(metal)    S(lipo)     H(rot)  DE(clash)    DE(int)     intcor
     20.60     -21.69       2.05        0.00     112.75       1.50       0.01       1.08       ----

> <Gold.Chemscore.Fitness>
20.6041

> <Gold.Chemscore.DG>
-21.6948

> <Gold.Chemscore.ZeroCoef>
-5.4800

> <Gold.Chemscore.Hbond>
2.0537

> <Gold.Chemscore.Metal>
0.0000

> <Gold.Chemscore.Lipo>
112.7480

> <Gold.Chemscore.Internal_Hbond>
0.0000

> <Gold.Chemscore.DEClash>
0.0057

> <Gold.Chemscore.DEInternal>
1.0850

> <Gold.Chemscore.Rot>
1.4985

> <Gold.Chemscore.Internal.Correction>
   9.000000E+99

> <Gold.Chemscore.Hbonds>
donor molecule, donor type, donor heavy atom, donor atom, acceptor molecule, acceptor atom, score
      P1  H  6896  6909       L1    13  0.85
      P1  H  6931  6943       L1    11  0.94
      P1  H  6934  6947       L1    11  0.17

> <Gold.Chemscore.Hbond.Weighted>
-6.8594

> <Gold.Chemscore.Metal.Weighted>
-0.0000

> <Gold.Chemscore.Lipo.Weighted>
-13.1915

> <Gold.Chemscore.Internal_Hbond.Weighted>
0.0000

> <Gold.Chemscore.DEClash.Weighted>
0.0057

> <Gold.Chemscore.DEInternal.Weighted>
1.0850

> <Gold.Chemscore.Rot.Weighted>
3.8362

> <Gold.Chemscore.Internal.Correction.Weighted>
   9.000000E+99

> <Gold.Protein.RotatedTorsions>
[ 6907 6896 6895 6894 ] final  110.66 input  -60.11 | X-H torsion
[ 7974 7965 7964 7962 ] final   -7.63 input  175.53 | X-H torsion
[ 8008 7997 7996 7995 ] final -105.87 input   59.86 | X-H torsion
[ 10167 10162 10161 10158 ] final  -63.05 input  -65.29 | X-H torsion
[ 10718 10713 10712 10709 ] final -151.57 input   66.30 | X-H torsion
[ 10763 10752 10751 10750 ] final  -57.12 input  -60.55 | X-H torsion
[ 11005 11000 10999 10996 ] final -171.17 input  -57.11 | X-H torsion

> <Gold.Protein.ActiveResidues>
 VAL166  LYS551  ARG553  GLY616  TRP617  ASP618  TYR619  PRO620  LYS621  CYS622 
 ASP623  PHE694  ASN695  SER759  ASP760  ASP761  ALA762  ILE779  LEU786  VAL792 
 PHE793  MET794  SER795  GLU796  ALA797  LYS798  CYS799  TRP800  GLU811  SER814 

> <Gold.Protein.RotatedAtoms>
  152.5009  133.8769  159.7326 H   0  0  0  0  0  0  0  0  0  0  0  0  # atno 6907 bound_to 6896
  150.9241  133.6836  159.2832 H   0  0  0  0  0  0  0  0  0  0  0  0  # atno 6908 bound_to 6896
  151.4203  135.1001  159.9664 H   0  0  0  0  0  0  0  0  0  0  0  0  # atno 6909 bound_to 6896
  146.2302  140.2348  142.8341 H   0  0  0  0  0  0  0  0  0  0  0  0  # atno 7974 bound_to 7965
  154.9063  140.0411  157.1921 H   0  0  0  0  0  0  0  0  0  0  0  0  # atno 8008 bound_to 7997
  154.8393  140.2912  155.5648 H   0  0  0  0  0  0  0  0  0  0  0  0  # atno 8009 bound_to 7997
  156.2991  140.2486  156.3333 H   0  0  0  0  0  0  0  0  0  0  0  0  # atno 8010 bound_to 7997
  140.5897  143.2339  151.6166 H   0  0  0  0  0  0  0  0  0  0  0  0  # atno 10167 bound_to 10162
  156.4610  130.8213  151.2444 H   0  0  0  0  0  0  0  0  0  0  0  0  # atno 10718 bound_to 10713
  154.2175  135.6383  153.5134 H   0  0  0  0  0  0  0  0  0  0  0  0  # atno 10763 bound_to 10752
  152.9976  135.5488  154.6150 H   0  0  0  0  0  0  0  0  0  0  0  0  # atno 10764 bound_to 10752
  154.5602  135.2908  155.0900 H   0  0  0  0  0  0  0  0  0  0  0  0  # atno 10765 bound_to 10752
  140.5112  134.5800  157.5019 H   0  0  0  0  0  0  0  0  0  0  0  0  # atno 11005 bound_to 11000
  144.9530  140.8197  143.5560 LP  0  0  0  0  0  0  0  0  0  0  0  0  # atno 17320 bound_to 7965
  145.2311  139.2114  143.5042 LP  0  0  0  0  0  0  0  0  0  0  0  0  # atno 17321 bound_to 7965
  139.5220  144.3177  152.0938 LP  0  0  0  0  0  0  0  0  0  0  0  0  # atno 17342 bound_to 10162
  140.2339  144.4340  150.6288 LP  0  0  0  0  0  0  0  0  0  0  0  0  # atno 17343 bound_to 10162
  157.7498  131.0107  150.3317 LP  0  0  0  0  0  0  0  0  0  0  0  0  # atno 17370 bound_to 10713
  156.3717  130.3864  149.7171 LP  0  0  0  0  0  0  0  0  0  0  0  0  # atno 17371 bound_to 10713
  139.9658  134.7376  156.0142 LP  0  0  0  0  0  0  0  0  0  0  0  0  # atno 17394 bound_to 11000
  141.1384  133.6570  156.3660 LP  0  0  0  0  0  0  0  0  0  0  0  0  # atno 17395 bound_to 11000

$$$$
