AV-unprocessed.smi:769|AV-procd|sdf|3675|dock6
  -GOLD-   22720 1 83D 1   1.00000     0.00000
 Structure written by MMmdl.
 50 52  0  0  0  0  0  0  0  0  2 V2000
  146.7443  133.2598  154.3076 O   0  0  0  0  0  0  0  0  0  0  0  0
  147.5863  133.4082  153.4221 C   0  0  0  0  0  0  0  0  0  0  0  0
  148.8114  133.9028  153.6522 N   0  0  0  0  0  0  0  0  0  0  0  0
  149.3153  134.3012  154.9617 C   0  0  0  0  0  0  0  0  0  0  0  0
  148.6817  135.6238  155.4363 C   0  0  0  0  0  0  0  0  0  0  0  0
  149.2762  136.8107  154.7723 N   0  3  0  0  0  0  0  0  0  0  0  0
  148.6499  138.0806  155.2318 C   0  0  0  0  0  0  0  0  0  0  0  0
  149.2754  139.3061  154.5400 C   0  0  0  0  0  0  0  0  0  0  0  0
  150.7237  139.2875  154.7630 N   0  0  0  0  0  0  0  0  0  0  0  0
  151.3635  140.2081  155.5250 C   0  0  0  0  0  0  0  0  0  0  0  0
  152.5649  140.1196  155.7811 O   0  0  0  0  0  0  0  0  0  0  0  0
  150.5720  141.4265  156.0479 C   0  0  0  0  0  0  0  0  0  0  0  0
  151.3354  142.3999  156.9682 C   0  0  0  0  0  0  0  0  0  0  0  0
  150.6435  141.7708  158.1812 C   0  0  0  0  0  0  0  0  0  0  0  0
  149.6419  141.1074  157.2306 C   0  0  0  0  0  0  0  0  0  0  0  0
  151.3327  138.0991  154.1590 C   0  0  0  0  0  0  0  0  0  0  0  0
  150.7645  136.8437  154.8450 C   0  0  0  0  0  0  0  0  0  0  0  0
  147.4129  133.1240  152.1194 N   0  0  0  0  0  0  0  0  0  0  0  0
  146.2727  132.5823  151.4641 C   0  0  0  0  0  0  0  0  0  0  0  0
  146.0665  132.9383  150.1151 C   0  0  0  0  0  0  0  0  0  0  0  0
  144.9531  132.4074  149.4335 C   0  0  0  0  0  0  0  0  0  0  0  0
  144.0682  131.5634  150.0037 N   0  0  0  0  0  0  0  0  0  0  0  0
  144.2730  131.2133  151.2910 C   0  0  0  0  0  0  0  0  0  0  0  0
  145.3537  131.6862  152.0625 C   0  0  0  0  0  0  0  0  0  0  0  0
  149.4433  133.9957  152.8699 H   0  0  0  0  0  0  0  0  0  0  0  0
  149.1343  133.4923  155.6700 H   0  0  0  0  0  0  0  0  0  0  0  0
  150.3974  134.4130  154.8883 H   0  0  0  0  0  0  0  0  0  0  0  0
  147.6146  135.5861  155.2116 H   0  0  0  0  0  0  0  0  0  0  0  0
  148.7632  135.7359  156.5186 H   0  0  0  0  0  0  0  0  0  0  0  0
  147.5785  138.0556  155.0288 H   0  0  0  0  0  0  0  0  0  0  0  0
  148.7666  138.1689  156.3134 H   0  0  0  0  0  0  0  0  0  0  0  0
  149.0755  139.2765  153.4679 H   0  0  0  0  0  0  0  0  0  0  0  0
  148.7982  140.2165  154.9050 H   0  0  0  0  0  0  0  0  0  0  0  0
  150.0773  141.9684  155.2411 H   0  0  0  0  0  0  0  0  0  0  0  0
  152.4220  142.3088  156.9830 H   0  0  0  0  0  0  0  0  0  0  0  0
  151.0382  143.4372  156.8080 H   0  0  0  0  0  0  0  0  0  0  0  0
  151.2761  141.0472  158.6970 H   0  0  0  0  0  0  0  0  0  0  0  0
  150.2034  142.4892  158.8734 H   0  0  0  0  0  0  0  0  0  0  0  0
  148.6927  141.6415  157.1705 H   0  0  0  0  0  0  0  0  0  0  0  0
  149.4861  140.0460  157.4294 H   0  0  0  0  0  0  0  0  0  0  0  0
  151.0910  138.0800  153.0952 H   0  0  0  0  0  0  0  0  0  0  0  0
  152.4206  138.0905  154.2031 H   0  0  0  0  0  0  0  0  0  0  0  0
  151.0778  136.8226  155.8901 H   0  0  0  0  0  0  0  0  0  0  0  0
  151.1870  135.9593  154.3702 H   0  0  0  0  0  0  0  0  0  0  0  0
  148.1809  133.3642  151.5101 H   0  0  0  0  0  0  0  0  0  0  0  0
  146.7439  133.6093  149.6072 H   0  0  0  0  0  0  0  0  0  0  0  0
  144.7701  132.6677  148.4016 H   0  0  0  0  0  0  0  0  0  0  0  0
  143.5554  130.5295  151.7198 H   0  0  0  0  0  0  0  0  0  0  0  0
  145.4556  131.3437  153.0802 H   0  0  0  0  0  0  0  0  0  0  0  0
  149.0419  136.7348  153.7928 H   0  0  0  0  0  0  0  0  0  0  0  0
  1  2  2  0  0  0  0
  2  3  1  0  0  0  0
  2 18  1  0  0  0  0
  3  4  1  0  0  0  0
  3 25  1  0  0  0  0
  4  5  1  0  0  0  0
  4 26  1  0  0  0  0
  4 27  1  0  0  0  0
  5  6  1  0  0  0  0
  5 28  1  0  0  0  0
  5 29  1  0  0  0  0
  6 17  1  0  0  0  0
  6  7  1  0  0  0  0
  6 50  1  0  0  0  0
  7  8  1  0  0  0  0
  7 30  1  0  0  0  0
  7 31  1  0  0  0  0
  8  9  1  0  0  0  0
  8 32  1  0  0  0  0
  8 33  1  0  0  0  0
  9 10  1  0  0  0  0
  9 16  1  0  0  0  0
 10 11  2  0  0  0  0
 10 12  1  0  0  0  0
 12 15  1  0  0  0  0
 12 13  1  0  0  0  0
 12 34  1  0  0  0  0
 13 14  1  0  0  0  0
 13 35  1  0  0  0  0
 13 36  1  0  0  0  0
 14 15  1  0  0  0  0
 14 37  1  0  0  0  0
 14 38  1  0  0  0  0
 15 39  1  0  0  0  0
 15 40  1  0  0  0  0
 16 17  1  0  0  0  0
 16 41  1  0  0  0  0
 16 42  1  0  0  0  0
 17 43  1  0  0  0  0
 17 44  1  0  0  0  0
 18 19  1  0  0  0  0
 18 45  1  0  0  0  0
 19 24  1  0  0  0  0
 19 20  2  0  0  0  0
 20 21  1  0  0  0  0
 20 46  1  0  0  0  0
 21 22  2  0  0  0  0
 21 47  1  0  0  0  0
 22 23  1  0  0  0  0
 23 24  2  0  0  0  0
 23 48  1  0  0  0  0
 24 49  1  0  0  0  0
M  CHG  1   6   1
M  END
> <s_m_source_file>
AV-unprocessed.smi

> <i_m_source_file_index>
769

> <i_lp_mmshare_version>
43012

> <i_f3d_flags>
0

> <s_epik_input>
W2NIXTFbY0hdbltjSF1bY0hdYzFbTkhdQyg9TylbTkhdW0NIMl1bQ0gyXU4yW0NIMl1bQ0gyXU4oW0NIMl1bQ0gyXTIpQyg9TylbQ0hdM1tDSDJdW0NIMl1bQ0gyXTM=

> <s_epik_cmdline>
J2VwaWtfcHl0aG9uJywgJy1waCcsICc3LjAnLCAnLXRuJywgJzgnLCAnLW1hJywgJzIwMCcsICctbWV0YWxfYmluZGluZycsICctaW1hZScsICc8aW5maWxlLm1hZT4nLCAnLW9tYWUnLCAnPG91dGZpbGUubWFlPic=

> <r_epik_Ionization_Penalty>
0.680309

> <r_epik_Ionization_Penalty_Charging>
0.581996

> <r_epik_Ionization_Penalty_Neutral>
0.0983131

> <r_epik_State_Penalty>
0.686881

> <r_epik_Charging_Adjusted_Penalty>
1.26888

> <i_epik_Tot_Q>
1

> <i_epik_Tot_abs_Q>
1

> <r_epik_Metal_State_Penalty>
0.68612

> <b_epik_Metal_Only>
0

> <s_lp_Force_Field>
OPLS_2005

> <r_lp_Energy>
56.1037

> <b_lp_Chiralities_Consistent>
1

> <s_lp_Variant>
AV-unprocessed.smi:769-2

> <Gold.Version>
5.8.1

> <Gold.Id.Protein>
6NUR|6NUR_protein|mol2

> <Gold.PLP.Fitness>
52.8484

> <Gold.PLP.PLP>
-40.8136

> <Gold.PLP.part.hbond>
-4.7329

> <Gold.PLP.part.metal>
0.0000

> <Gold.PLP.part.buried>
0.7976

> <Gold.PLP.part.nonpolar>
-33.9074

> <Gold.PLP.part.repulsive>
0.2460

> <Gold.PLP.ligand.clash>
0.0000

> <Gold.PLP.ligand.torsion>
0.5771

> <Gold.PLP.Chemscore.Hbond>
3.6240

> <Gold.PLP.Chemscore.CHOScore>
0.6329

> <Gold.PLP.Chemscore.Metal>
0.0000

> <Gold.Chemscore.Hbonds>
donor molecule, donor type, donor heavy atom, donor atom, acceptor molecule, acceptor atom, score
      L1  H     6    50       P1  7948  2.00
      P1  H  7997  8009       L1    11  1.00
      P1  H 10785 10796       L1    22  0.59
      L1  C    21    47       P1  7921  0.50

> <Gold.PLP.Chemscore.Internal.Correction>
0.4183

> <Gold.Rescore>
     Score         DG    S(hbond)    S(metal)    S(lipo)     H(rot)  DE(clash)    DE(int)     intcor
     20.34     -21.34       2.60        0.00      98.92       1.72       0.29       0.71       ----

> <Gold.Chemscore.Fitness>
20.3423

> <Gold.Chemscore.DG>
-21.3426

> <Gold.Chemscore.ZeroCoef>
-5.4800

> <Gold.Chemscore.Hbond>
2.6021

> <Gold.Chemscore.Metal>
0.0000

> <Gold.Chemscore.Lipo>
98.9202

> <Gold.Chemscore.Internal_Hbond>
0.0000

> <Gold.Chemscore.DEClash>
0.2931

> <Gold.Chemscore.DEInternal>
0.7072

> <Gold.Chemscore.Rot>
1.7195

> <Gold.Chemscore.Internal.Correction>
   9.000000E+99

> <Gold.Chemscore.Hbonds>
donor molecule, donor type, donor heavy atom, donor atom, acceptor molecule, acceptor atom, score
      L1  H     6    50       P1  7948  0.97
      P1  H  7997  8009       L1    11  0.99
      P1  H 10785 10796       L1    22  0.51

> <Gold.Chemscore.Hbond.Weighted>
-8.6909

> <Gold.Chemscore.Metal.Weighted>
-0.0000

> <Gold.Chemscore.Lipo.Weighted>
-11.5737

> <Gold.Chemscore.Internal_Hbond.Weighted>
0.0000

> <Gold.Chemscore.DEClash.Weighted>
0.2931

> <Gold.Chemscore.DEInternal.Weighted>
0.7072

> <Gold.Chemscore.Rot.Weighted>
4.4020

> <Gold.Chemscore.Internal.Correction.Weighted>
   9.000000E+99

> <Gold.Protein.RotatedTorsions>
[ 6907 6896 6895 6894 ] final  -37.51 input  -60.11 | X-H torsion
[ 7974 7965 7964 7962 ] final  -66.97 input  175.53 | X-H torsion
[ 8008 7997 7996 7995 ] final -161.66 input   59.86 | X-H torsion
[ 10167 10162 10161 10158 ] final -105.27 input  -65.29 | X-H torsion
[ 10718 10713 10712 10709 ] final   86.52 input   66.30 | X-H torsion
[ 10763 10752 10751 10750 ] final  115.50 input  -60.55 | X-H torsion
[ 11005 11000 10999 10996 ] final   20.73 input  -57.11 | X-H torsion

> <Gold.Protein.ActiveResidues>
 VAL166  LYS551  ARG553  GLY616  TRP617  ASP618  TYR619  PRO620  LYS621  CYS622 
 ASP623  PHE694  ASN695  SER759  ASP760  ASP761  ALA762  ILE779  LEU786  VAL792 
 PHE793  MET794  SER795  GLU796  ALA797  LYS798  CYS799  TRP800  GLU811  SER814 

> <Gold.Protein.RotatedAtoms>
  151.0139  134.9417  159.8021 H   0  0  0  0  0  0  0  0  0  0  0  0  # atno 6907 bound_to 6896
  152.5309  134.2992  159.9082 H   0  0  0  0  0  0  0  0  0  0  0  0  # atno 6908 bound_to 6896
  151.2999  133.4085  159.2673 H   0  0  0  0  0  0  0  0  0  0  0  0  # atno 6909 bound_to 6896
  145.7350  140.8979  143.0560 H   0  0  0  0  0  0  0  0  0  0  0  0  # atno 7974 bound_to 7965
  155.7955  140.0884  157.1986 H   0  0  0  0  0  0  0  0  0  0  0  0  # atno 8008 bound_to 7997
  154.3984  140.1482  156.3271 H   0  0  0  0  0  0  0  0  0  0  0  0  # atno 8009 bound_to 7997
  155.8516  140.3434  155.5699 H   0  0  0  0  0  0  0  0  0  0  0  0  # atno 8010 bound_to 7997
  140.2003  143.3823  152.1134 H   0  0  0  0  0  0  0  0  0  0  0  0  # atno 10167 bound_to 10162
  157.6929  131.0219  150.2985 H   0  0  0  0  0  0  0  0  0  0  0  0  # atno 10718 bound_to 10713
  153.5231  135.3594  155.2641 H   0  0  0  0  0  0  0  0  0  0  0  0  # atno 10763 bound_to 10752
  154.8733  135.4050  154.3237 H   0  0  0  0  0  0  0  0  0  0  0  0  # atno 10764 bound_to 10752
  153.3912  135.7072  153.6561 H   0  0  0  0  0  0  0  0  0  0  0  0  # atno 10765 bound_to 10752
  140.3993  134.1735  155.7663 H   0  0  0  0  0  0  0  0  0  0  0  0  # atno 11005 bound_to 11000
  144.6884  139.9383  143.7474 LP  0  0  0  0  0  0  0  0  0  0  0  0  # atno 17320 bound_to 7965
  146.0502  139.3503  143.0644 LP  0  0  0  0  0  0  0  0  0  0  0  0  # atno 17321 bound_to 7965
  139.5220  144.7053  151.5373 LP  0  0  0  0  0  0  0  0  0  0  0  0  # atno 17342 bound_to 10162
  140.6395  143.8918  150.6678 LP  0  0  0  0  0  0  0  0  0  0  0  0  # atno 17343 bound_to 10162
  156.3504  130.3830  149.7333 LP  0  0  0  0  0  0  0  0  0  0  0  0  # atno 17370 bound_to 10713
  156.4813  130.8042  151.3056 LP  0  0  0  0  0  0  0  0  0  0  0  0  # atno 17371 bound_to 10713
  141.1862  133.8306  157.1076 LP  0  0  0  0  0  0  0  0  0  0  0  0  # atno 17394 bound_to 11000
  140.0348  134.9883  157.0849 LP  0  0  0  0  0  0  0  0  0  0  0  0  # atno 17395 bound_to 11000

$$$$
