AV-unprocessed.smi:149|AV-procd|sdf|1234|dock6
  -GOLD-   2262018443D 1   1.00000     0.00000
 Structure written by MMmdl.
 60 64  0  0  0  0  0  0  0  0  2 V2000
  147.0584  137.2184  155.9719 C   0  0  0  0  0  0  0  0  0  0  0  0
  147.9834  136.4319  155.0227 C   0  0  2  0  0  0  0  0  0  0  0  0
  147.9575  134.9344  155.3837 C   0  0  0  0  0  0  0  0  0  0  0  0
  149.3346  134.4727  155.3751 N   0  0  0  0  0  0  0  0  0  0  0  0
  149.6296  133.1538  155.2250 C   0  0  0  0  0  0  0  0  0  0  0  0
  150.8488  132.7110  155.6327 N   0  0  0  0  0  0  0  0  0  0  0  0
  151.1821  131.4241  155.5067 C   0  0  0  0  0  0  0  0  0  0  0  0
  150.4568  130.4219  155.0113 N   0  0  0  0  0  0  0  0  0  0  0  0
  149.2260  130.8487  154.6087 C   0  0  0  0  0  0  0  0  0  0  0  0
  148.7339  132.1849  154.6807 C   0  0  0  0  0  0  0  0  0  0  0  0
  147.4344  132.2285  154.1876 N   0  0  0  0  0  0  0  0  0  0  0  0
  147.1780  130.9982  153.8384 C   0  0  0  0  0  0  0  0  0  0  0  0
  148.1988  130.1009  154.0543 N   0  0  0  0  0  0  0  0  0  0  0  0
  148.1738  128.6948  153.7597 C   0  0  0  0  0  0  0  0  0  0  0  0
  149.3152  128.0187  152.9952 C   0  0  0  0  0  0  0  0  0  0  0  0
  148.2947  127.0511  152.3498 C   0  0  0  0  0  0  0  0  0  0  0  0
  148.4780  126.7286  150.8533 C   0  0  0  0  0  0  0  0  0  0  0  0
  149.5967  127.3845  150.2898 O   0  0  0  0  0  0  0  0  0  0  0  0
  148.1001  125.7114  153.0846 C   0  0  0  0  0  0  0  0  0  0  0  0
  147.3144  125.8635  154.2496 O   0  0  0  0  0  0  0  0  0  0  0  0
  147.2310  128.1186  152.6994 C   0  0  0  0  0  0  0  0  0  0  0  0
  150.1853  135.4972  154.8010 C   0  0  0  0  0  0  0  0  0  0  0  0
  149.4793  136.8296  155.0840 C   0  0  1  0  0  0  0  0  0  0  0  0
  149.9208  137.8765  154.1087 N   0  3  0  0  0  0  0  0  0  0  0  0
  149.1692  139.1567  154.1264 C   0  0  0  0  0  0  0  0  0  0  0  0
  149.5595  140.0109  155.3468 C   0  0  0  0  0  0  0  0  0  0  0  0
  150.9585  140.2665  155.3090 O   0  0  0  0  0  0  0  0  0  0  0  0
  151.7291  139.0712  155.3605 C   0  0  0  0  0  0  0  0  0  0  0  0
  151.3784  138.1692  154.1597 C   0  0  0  0  0  0  0  0  0  0  0  0
  147.3927  137.1325  157.0064 H   0  0  0  0  0  0  0  0  0  0  0  0
  146.0404  136.8306  155.9243 H   0  0  0  0  0  0  0  0  0  0  0  0
  147.0047  138.2785  155.7364 H   0  0  0  0  0  0  0  0  0  0  0  0
  147.6281  136.5310  153.9959 H   0  0  0  0  0  0  0  0  0  0  0  0
  147.5451  134.7750  156.3808 H   0  0  0  0  0  0  0  0  0  0  0  0
  147.3455  134.3765  154.6737 H   0  0  0  0  0  0  0  0  0  0  0  0
  152.1701  131.1585  155.8530 H   0  0  0  0  0  0  0  0  0  0  0  0
  146.2277  130.7118  153.4111 H   0  0  0  0  0  0  0  0  0  0  0  0
  148.0159  128.1830  154.7109 H   0  0  0  0  0  0  0  0  0  0  0  0
  149.7975  128.6840  152.2783 H   0  0  0  0  0  0  0  0  0  0  0  0
  150.0592  127.5437  153.6353 H   0  0  0  0  0  0  0  0  0  0  0  0
  148.6137  125.6583  150.6957 H   0  0  0  0  0  0  0  0  0  0  0  0
  147.5961  127.0211  150.2825 H   0  0  0  0  0  0  0  0  0  0  0  0
  150.2987  127.3797  150.9221 H   0  0  0  0  0  0  0  0  0  0  0  0
  147.6074  124.9784  152.4455 H   0  0  0  0  0  0  0  0  0  0  0  0
  149.0596  125.2750  153.3640 H   0  0  0  0  0  0  0  0  0  0  0  0
  147.5296  125.1666  154.8507 H   0  0  0  0  0  0  0  0  0  0  0  0
  146.2994  127.7190  153.1012 H   0  0  0  0  0  0  0  0  0  0  0  0
  147.0272  128.8199  151.8899 H   0  0  0  0  0  0  0  0  0  0  0  0
  151.1813  135.4676  155.2442 H   0  0  0  0  0  0  0  0  0  0  0  0
  150.2785  135.3242  153.7274 H   0  0  0  0  0  0  0  0  0  0  0  0
  149.7129  137.1383  156.1035 H   0  0  0  0  0  0  0  0  0  0  0  0
  149.4235  139.7084  153.2204 H   0  0  0  0  0  0  0  0  0  0  0  0
  148.0952  138.9981  154.0633 H   0  0  0  0  0  0  0  0  0  0  0  0
  149.0286  140.9626  155.3230 H   0  0  0  0  0  0  0  0  0  0  0  0
  149.2906  139.5208  156.2833 H   0  0  0  0  0  0  0  0  0  0  0  0
  152.7862  139.3363  155.3304 H   0  0  0  0  0  0  0  0  0  0  0  0
  151.5629  138.5583  156.3084 H   0  0  0  0  0  0  0  0  0  0  0  0
  151.9722  137.2563  154.1793 H   0  0  0  0  0  0  0  0  0  0  0  0
  151.6553  138.6817  153.2373 H   0  0  0  0  0  0  0  0  0  0  0  0
  149.7457  137.4712  153.2001 H   0  0  0  0  0  0  0  0  0  0  0  0
  1  2  1  0  0  0  0
  1 30  1  0  0  0  0
  1 31  1  0  0  0  0
  1 32  1  0  0  0  0
  2 23  1  0  0  0  0
  2  3  1  0  0  0  0
  2 33  1  0  0  0  0
  3  4  1  0  0  0  0
  3 34  1  0  0  0  0
  3 35  1  0  0  0  0
  4  5  1  0  0  0  0
  4 22  1  0  0  0  0
  5 10  1  0  0  0  0
  5  6  2  0  0  0  0
  6  7  1  0  0  0  0
  7  8  2  0  0  0  0
  7 36  1  0  0  0  0
  8  9  1  0  0  0  0
  9 13  1  0  0  0  0
  9 10  2  0  0  0  0
 10 11  1  0  0  0  0
 11 12  2  0  0  0  0
 12 13  1  0  0  0  0
 12 37  1  0  0  0  0
 13 14  1  0  0  0  0
 14 21  1  0  0  0  0
 14 15  1  0  0  0  0
 14 38  1  0  0  0  0
 15 16  1  0  0  0  0
 15 39  1  0  0  0  0
 15 40  1  0  0  0  0
 16 17  1  0  0  0  0
 16 19  1  0  0  0  0
 16 21  1  0  0  0  0
 17 18  1  0  0  0  0
 17 41  1  0  0  0  0
 17 42  1  0  0  0  0
 18 43  1  0  0  0  0
 19 20  1  0  0  0  0
 19 44  1  0  0  0  0
 19 45  1  0  0  0  0
 20 46  1  0  0  0  0
 21 47  1  0  0  0  0
 21 48  1  0  0  0  0
 22 23  1  0  0  0  0
 22 49  1  0  0  0  0
 22 50  1  0  0  0  0
 23 24  1  0  0  0  0
 23 51  1  0  0  0  0
 24 29  1  0  0  0  0
 24 25  1  0  0  0  0
 24 60  1  0  0  0  0
 25 26  1  0  0  0  0
 25 52  1  0  0  0  0
 25 53  1  0  0  0  0
 26 27  1  0  0  0  0
 26 54  1  0  0  0  0
 26 55  1  0  0  0  0
 27 28  1  0  0  0  0
 28 29  1  0  0  0  0
 28 56  1  0  0  0  0
 28 57  1  0  0  0  0
 29 58  1  0  0  0  0
 29 59  1  0  0  0  0
M  CHG  1  24   1
M  END
> <s_m_source_file>
AV-unprocessed.smi

> <i_m_source_file_index>
149

> <i_lp_mmshare_version>
43012

> <i_f3d_flags>
0

> <s_epik_input>
W0NIMl0xW0NIMl1PW0NIMl1bQ0gyXU4xW0NAQEhdMltDSDJdTihbQ0gyXVtDQEhdMltDSDNdKWMobltjSF1uMyljKGMzNCluW2NIXW40W0NIXShbQ0gyXTUpW0NIMl1DNShbQ0gyXVtPSF0pW0NIMl1bT0hd

> <s_epik_cmdline>
J2VwaWtfcHl0aG9uJywgJy1waCcsICc3LjAnLCAnLXRuJywgJzgnLCAnLW1hJywgJzIwMCcsICctbWV0YWxfYmluZGluZycsICctaW1hZScsICc8aW5maWxlLm1hZT4nLCAnLW9tYWUnLCAnPG91dGZpbGUubWFlPic=

> <r_lp_tautomer_probability>
1

> <r_epik_Ionization_Penalty>
0.404847

> <r_epik_Ionization_Penalty_Charging>
0.404623

> <r_epik_Ionization_Penalty_Neutral>
0.000224096

> <r_epik_State_Penalty>
0.238803

> <r_epik_Charging_Adjusted_Penalty>
0.643425

> <i_epik_Tot_Q>
1

> <i_epik_Tot_abs_Q>
1

> <r_epik_Metal_State_Penalty>
0.239083

> <b_epik_Metal_Only>
0

> <s_lp_Force_Field>
OPLS_2005

> <r_lp_Energy>
72.409

> <b_lp_Chiralities_Consistent>
1

> <s_lp_Variant>
AV-unprocessed.smi:149-1

> <Gold.Version>
5.8.1

> <Gold.Id.Protein>
6NUR|6NUR_protein|mol2

> <Gold.PLP.Fitness>
48.5762

> <Gold.PLP.PLP>
-41.4974

> <Gold.PLP.part.hbond>
-6.1274

> <Gold.PLP.part.metal>
0.0000

> <Gold.PLP.part.buried>
-0.4754

> <Gold.PLP.part.nonpolar>
-34.3745

> <Gold.PLP.part.repulsive>
0.1554

> <Gold.PLP.ligand.clash>
0.4747

> <Gold.PLP.ligand.torsion>
2.5848

> <Gold.PLP.Chemscore.Hbond>
4.0000

> <Gold.PLP.Chemscore.CHOScore>
0.0000

> <Gold.PLP.Chemscore.Metal>
0.0000

> <Gold.Chemscore.Hbonds>
donor molecule, donor type, donor heavy atom, donor atom, acceptor molecule, acceptor atom, score
      L1  H    18    43       P1 10737  1.00
      L1  H    24    60       P1  7948  2.00
      P1  H  7989  7998       L1    27  0.80

> <Gold.PLP.Chemscore.Internal.Correction>
0.7231

> <Gold.Rescore>
     Score         DG    S(hbond)    S(metal)    S(lipo)     H(rot)  DE(clash)    DE(int)     intcor
      9.44     -15.42       2.66        0.00      76.60       3.09       1.37       4.60       ----

> <Gold.Chemscore.Fitness>
9.4439

> <Gold.Chemscore.DG>
-15.4166

> <Gold.Chemscore.ZeroCoef>
-5.4800

> <Gold.Chemscore.Hbond>
2.6612

> <Gold.Chemscore.Metal>
0.0000

> <Gold.Chemscore.Lipo>
76.5954

> <Gold.Chemscore.Internal_Hbond>
0.0000

> <Gold.Chemscore.DEClash>
1.3715

> <Gold.Chemscore.DEInternal>
4.6012

> <Gold.Chemscore.Rot>
3.0912

> <Gold.Chemscore.Internal.Correction>
   9.000000E+99

> <Gold.Chemscore.Hbonds>
donor molecule, donor type, donor heavy atom, donor atom, acceptor molecule, acceptor atom, score
      L1  H    18    43       P1 10737  0.81
      L1  H    24    60       P1  7948  0.59
      P1  H  7989  7998       L1    27  0.10

> <Gold.Chemscore.Hbond.Weighted>
-8.8884

> <Gold.Chemscore.Metal.Weighted>
-0.0000

> <Gold.Chemscore.Lipo.Weighted>
-8.9617

> <Gold.Chemscore.Internal_Hbond.Weighted>
0.0000

> <Gold.Chemscore.DEClash.Weighted>
1.3715

> <Gold.Chemscore.DEInternal.Weighted>
4.6012

> <Gold.Chemscore.Rot.Weighted>
7.9135

> <Gold.Chemscore.Internal.Correction.Weighted>
   9.000000E+99

> <Gold.Protein.RotatedTorsions>
[ 6907 6896 6895 6894 ] final  -39.93 input  -60.11 | X-H torsion
[ 7974 7965 7964 7962 ] final -112.67 input  175.53 | X-H torsion
[ 8008 7997 7996 7995 ] final -146.79 input   59.86 | X-H torsion
[ 10167 10162 10161 10158 ] final  -91.80 input  -65.29 | X-H torsion
[ 10718 10713 10712 10709 ] final -128.08 input   66.30 | X-H torsion
[ 10763 10752 10751 10750 ] final  -78.77 input  -60.55 | X-H torsion
[ 11005 11000 10999 10996 ] final   34.72 input  -57.11 | X-H torsion

> <Gold.Protein.ActiveResidues>
 VAL166  LYS551  ARG553  GLY616  TRP617  ASP618  TYR619  PRO620  LYS621  CYS622 
 ASP623  PHE694  ASN695  SER759  ASP760  ASP761  ALA762  ILE779  LEU786  VAL792 
 PHE793  MET794  SER795  GLU796  ALA797  LYS798  CYS799  TRP800  GLU811  SER814 

> <Gold.Protein.RotatedAtoms>
  150.9844  134.9193  159.7862 H   0  0  0  0  0  0  0  0  0  0  0  0  # atno 6907 bound_to 6896
  152.5232  134.3366  159.9212 H   0  0  0  0  0  0  0  0  0  0  0  0  # atno 6908 bound_to 6896
  151.3373  133.3935  159.2702 H   0  0  0  0  0  0  0  0  0  0  0  0  # atno 6909 bound_to 6896
  145.1412  140.8778  143.3701 H   0  0  0  0  0  0  0  0  0  0  0  0  # atno 7974 bound_to 7965
  155.5651  140.0629  157.2820 H   0  0  0  0  0  0  0  0  0  0  0  0  # atno 8008 bound_to 7997
  154.4378  140.1879  156.0867 H   0  0  0  0  0  0  0  0  0  0  0  0  # atno 8009 bound_to 7997
  156.0418  140.3294  155.7256 H   0  0  0  0  0  0  0  0  0  0  0  0  # atno 8010 bound_to 7997
  140.3412  143.2941  151.9833 H   0  0  0  0  0  0  0  0  0  0  0  0  # atno 10167 bound_to 10162
  156.1917  130.6800  151.0433 H   0  0  0  0  0  0  0  0  0  0  0  0  # atno 10718 bound_to 10713
  154.5301  135.5718  153.6752 H   0  0  0  0  0  0  0  0  0  0  0  0  # atno 10763 bound_to 10752
  152.9937  135.6202  154.2640 H   0  0  0  0  0  0  0  0  0  0  0  0  # atno 10764 bound_to 10752
  154.2566  135.2857  155.2775 H   0  0  0  0  0  0  0  0  0  0  0  0  # atno 10765 bound_to 10752
  140.2500  134.3314  155.7894 H   0  0  0  0  0  0  0  0  0  0  0  0  # atno 11005 bound_to 11000
  145.0531  139.3166  143.5919 LP  0  0  0  0  0  0  0  0  0  0  0  0  # atno 17320 bound_to 7965
  146.3505  139.9946  142.8682 LP  0  0  0  0  0  0  0  0  0  0  0  0  # atno 17321 bound_to 7965
  139.4840  144.6155  151.7355 LP  0  0  0  0  0  0  0  0  0  0  0  0  # atno 17342 bound_to 10162
  140.5307  144.0735  150.6052 LP  0  0  0  0  0  0  0  0  0  0  0  0  # atno 17343 bound_to 10162
  157.6933  131.0802  150.7043 LP  0  0  0  0  0  0  0  0  0  0  0  0  # atno 17370 bound_to 10713
  156.7100  130.4649  149.5550 LP  0  0  0  0  0  0  0  0  0  0  0  0  # atno 17371 bound_to 10713
  141.2202  133.7348  156.9022 LP  0  0  0  0  0  0  0  0  0  0  0  0  # atno 17394 bound_to 11000
  140.1568  134.9193  157.2663 LP  0  0  0  0  0  0  0  0  0  0  0  0  # atno 17395 bound_to 11000

$$$$
