AV-unprocessed.smi:1396|AV-procd|sdf|5674|dock7
  -GOLD-   22720 5293D 1   1.00000     0.00000
 Structure written by MMmdl.
 46 47  0  0  0  0  0  0  0  0  1 V2000
  147.5575  128.3972  152.6701 C   0  0  0  0  0  0  0  0  0  0  0  0
  147.4434  129.5386  151.7754 N   0  0  0  0  0  0  0  0  0  0  0  0
  146.2946  130.1762  151.5079 C   0  0  0  0  0  0  0  0  0  0  0  0
  145.2141  129.8615  152.0060 O   0  0  0  0  0  0  0  0  0  0  0  0
  146.3754  131.3552  150.5308 C   0  0  0  0  0  0  0  0  0  0  0  0
  145.6920  132.5882  150.9867 N   0  0  0  0  0  0  0  0  0  0  0  0
  145.0065  133.2089  149.8480 C   0  0  0  0  0  0  0  0  0  0  0  0
  144.1772  134.4202  150.3087 C   0  0  0  0  0  0  0  0  0  0  0  0
  145.0630  135.4634  151.0032 C   0  0  0  0  0  0  0  0  0  0  0  0
  144.2377  136.5465  151.5288 N   0  0  0  0  0  0  0  0  0  0  0  0
  143.1685  136.3855  152.3210 C   0  0  0  0  0  0  0  0  0  0  0  0
  142.7753  135.2879  152.7155 O   0  0  0  0  0  0  0  0  0  0  0  0
  142.6103  137.5681  152.6307 N   0  0  0  0  0  0  0  0  0  0  0  0
  141.4249  137.8182  153.3735 C   0  0  0  0  0  0  0  0  0  0  0  0
  140.7703  136.7191  153.9646 C   0  0  0  0  0  0  0  0  0  0  0  0
  139.6086  136.9404  154.7280 C   0  0  0  0  0  0  0  0  0  0  0  0
  139.1404  138.2600  154.8844 C   0  0  0  0  0  0  0  0  0  0  0  0
  138.0030  138.4727  155.6364 O   0  0  0  0  0  0  0  0  0  0  0  0
  137.1751  137.3551  155.9397 C   0  0  0  0  0  0  0  0  0  0  0  0
  139.7690  139.3257  154.3297 N   0  0  0  0  0  0  0  0  0  0  0  0
  140.8817  139.1069  153.5972 C   0  0  0  0  0  0  0  0  0  0  0  0
  145.8514  134.7752  152.1299 C   0  0  0  0  0  0  0  0  0  0  0  0
  146.6175  133.5481  151.6067 C   0  0  0  0  0  0  0  0  0  0  0  0
  148.5971  128.0761  152.7332 H   0  0  0  0  0  0  0  0  0  0  0  0
  146.9630  127.5586  152.3054 H   0  0  0  0  0  0  0  0  0  0  0  0
  147.2187  128.6544  153.6744 H   0  0  0  0  0  0  0  0  0  0  0  0
  148.2865  129.8602  151.3216 H   0  0  0  0  0  0  0  0  0  0  0  0
  147.4250  131.5722  150.3239 H   0  0  0  0  0  0  0  0  0  0  0  0
  145.9369  131.0240  149.5883 H   0  0  0  0  0  0  0  0  0  0  0  0
  145.7286  133.5127  149.0879 H   0  0  0  0  0  0  0  0  0  0  0  0
  144.3395  132.4848  149.3783 H   0  0  0  0  0  0  0  0  0  0  0  0
  143.6735  134.8693  149.4519 H   0  0  0  0  0  0  0  0  0  0  0  0
  143.3923  134.0836  150.9881 H   0  0  0  0  0  0  0  0  0  0  0  0
  145.7628  135.8670  150.2690 H   0  0  0  0  0  0  0  0  0  0  0  0
  144.4937  137.4846  151.2579 H   0  0  0  0  0  0  0  0  0  0  0  0
  143.1051  138.3897  152.3159 H   0  0  0  0  0  0  0  0  0  0  0  0
  141.1506  135.7162  153.8354 H   0  0  0  0  0  0  0  0  0  0  0  0
  139.0879  136.1134  155.1876 H   0  0  0  0  0  0  0  0  0  0  0  0
  136.3216  137.6880  156.5302 H   0  0  0  0  0  0  0  0  0  0  0  0
  137.7122  136.6080  156.5260 H   0  0  0  0  0  0  0  0  0  0  0  0
  136.7874  136.8878  155.0332 H   0  0  0  0  0  0  0  0  0  0  0  0
  141.3459  140.0001  153.2096 H   0  0  0  0  0  0  0  0  0  0  0  0
  146.5537  135.4767  152.5819 H   0  0  0  0  0  0  0  0  0  0  0  0
  145.1717  134.4645  152.9250 H   0  0  0  0  0  0  0  0  0  0  0  0
  147.1433  133.0976  152.4483 H   0  0  0  0  0  0  0  0  0  0  0  0
  147.3788  133.8554  150.8875 H   0  0  0  0  0  0  0  0  0  0  0  0
  1  2  1  0  0  0  0
  1 24  1  0  0  0  0
  1 25  1  0  0  0  0
  1 26  1  0  0  0  0
  2  3  1  0  0  0  0
  2 27  1  0  0  0  0
  3  4  2  0  0  0  0
  3  5  1  0  0  0  0
  5  6  1  0  0  0  0
  5 28  1  0  0  0  0
  5 29  1  0  0  0  0
  6 23  1  0  0  0  0
  6  7  1  0  0  0  0
  7  8  1  0  0  0  0
  7 30  1  0  0  0  0
  7 31  1  0  0  0  0
  8  9  1  0  0  0  0
  8 32  1  0  0  0  0
  8 33  1  0  0  0  0
  9 10  1  0  0  0  0
  9 22  1  0  0  0  0
  9 34  1  0  0  0  0
 10 11  1  0  0  0  0
 10 35  1  0  0  0  0
 11 12  2  0  0  0  0
 11 13  1  0  0  0  0
 13 14  1  0  0  0  0
 13 36  1  0  0  0  0
 14 21  1  0  0  0  0
 14 15  2  0  0  0  0
 15 16  1  0  0  0  0
 15 37  1  0  0  0  0
 16 17  2  0  0  0  0
 16 38  1  0  0  0  0
 17 18  1  0  0  0  0
 17 20  1  0  0  0  0
 18 19  1  0  0  0  0
 19 39  1  0  0  0  0
 19 40  1  0  0  0  0
 19 41  1  0  0  0  0
 20 21  2  0  0  0  0
 21 42  1  0  0  0  0
 22 23  1  0  0  0  0
 22 43  1  0  0  0  0
 22 44  1  0  0  0  0
 23 45  1  0  0  0  0
 23 46  1  0  0  0  0
M  END
> <s_m_source_file>
AV-unprocessed.smi

> <i_m_source_file_index>
1396

> <i_lp_mmshare_version>
43012

> <i_f3d_flags>
0

> <s_epik_input>
W0NIM11bTkhdQyg9TylbQ0gyXU4xW0NIMl1bQ0gyXVtDSF0oW0NIMl1bQ0gyXTEpW05IXUMoPU8pW05IXWMyW2NIXVtjSF1jKE9bQ0gzXSluW2NIXTI=

> <s_epik_cmdline>
J2VwaWtfcHl0aG9uJywgJy1waCcsICc3LjAnLCAnLXRuJywgJzgnLCAnLW1hJywgJzIwMCcsICctbWV0YWxfYmluZGluZycsICctaW1hZScsICc8aW5maWxlLm1hZT4nLCAnLW9tYWUnLCAnPG91dGZpbGUubWFlPic=

> <r_lp_tautomer_probability>
1

> <r_epik_Ionization_Penalty>
0.16483

> <r_epik_Ionization_Penalty_Charging>
0

> <r_epik_Ionization_Penalty_Neutral>
0.16483

> <r_epik_State_Penalty>
0.154069

> <r_epik_Charging_Adjusted_Penalty>
0.154069

> <i_epik_Tot_Q>
0

> <i_epik_Tot_abs_Q>
0

> <r_epik_Metal_State_Penalty>
0.158584

> <b_epik_Metal_Only>
0

> <s_lp_Force_Field>
OPLS_2005

> <r_lp_Energy>
15.765

> <b_lp_Chiralities_Consistent>
1

> <s_lp_Variant>
AV-unprocessed.smi:1396-1

> <Gold.Version>
5.8.1

> <Gold.Id.Protein>
6NUR|6NUR_protein|mol2

> <Gold.PLP.Fitness>
39.3419

> <Gold.PLP.PLP>
-29.6114

> <Gold.PLP.part.hbond>
-3.2550

> <Gold.PLP.part.metal>
0.0000

> <Gold.PLP.part.buried>
1.8980

> <Gold.PLP.part.nonpolar>
-28.9947

> <Gold.PLP.part.repulsive>
0.7270

> <Gold.PLP.ligand.clash>
0.0013

> <Gold.PLP.ligand.torsion>
0.9227

> <Gold.PLP.Chemscore.Hbond>
2.4205

> <Gold.PLP.Chemscore.CHOScore>
1.4291

> <Gold.PLP.Chemscore.Metal>
0.0000

> <Gold.Chemscore.Hbonds>
donor molecule, donor type, donor heavy atom, donor atom, acceptor molecule, acceptor atom, score
      L1  H     2    27       P1 10747  1.00
      L1  H    10    35       P1 10171  0.61
      L1  H    13    36       P1 10175  0.81
      L1  C    21    42       P1 10160  0.59
      L1  C    21    42       P1 10175  0.84

> <Gold.PLP.Chemscore.Internal.Correction>
0.0282

> <Gold.Rescore>
     Score         DG    S(hbond)    S(metal)    S(lipo)     H(rot)  DE(clash)    DE(int)     intcor
     13.11     -17.42       2.56        0.00      71.86       1.96       0.89       3.41       ----

> <Gold.Chemscore.Fitness>
13.1117

> <Gold.Chemscore.DG>
-17.4153

> <Gold.Chemscore.ZeroCoef>
-5.4800

> <Gold.Chemscore.Hbond>
2.5620

> <Gold.Chemscore.Metal>
0.0000

> <Gold.Chemscore.Lipo>
71.8569

> <Gold.Chemscore.Internal_Hbond>
0.0000

> <Gold.Chemscore.DEClash>
0.8937

> <Gold.Chemscore.DEInternal>
3.4099

> <Gold.Chemscore.Rot>
1.9645

> <Gold.Chemscore.Internal.Correction>
   9.000000E+99

> <Gold.Chemscore.Hbonds>
donor molecule, donor type, donor heavy atom, donor atom, acceptor molecule, acceptor atom, score
      L1  H     2    27       P1 10747  0.64
      L1  H    10    35       P1 10171  0.62
      L1  H    13    36       P1 10175  0.76

> <Gold.Chemscore.Hbond.Weighted>
-8.5571

> <Gold.Chemscore.Metal.Weighted>
-0.0000

> <Gold.Chemscore.Lipo.Weighted>
-8.4073

> <Gold.Chemscore.Internal_Hbond.Weighted>
0.0000

> <Gold.Chemscore.DEClash.Weighted>
0.8937

> <Gold.Chemscore.DEInternal.Weighted>
3.4099

> <Gold.Chemscore.Rot.Weighted>
5.0290

> <Gold.Chemscore.Internal.Correction.Weighted>
   9.000000E+99

> <Gold.Protein.RotatedTorsions>
[ 6907 6896 6895 6894 ] final  116.01 input  -60.11 | X-H torsion
[ 7974 7965 7964 7962 ] final  -31.89 input  175.53 | X-H torsion
[ 8008 7997 7996 7995 ] final  165.74 input   59.86 | X-H torsion
[ 10167 10162 10161 10158 ] final  161.59 input  -65.29 | X-H torsion
[ 10718 10713 10712 10709 ] final   -0.80 input   66.30 | X-H torsion
[ 10763 10752 10751 10750 ] final  -12.36 input  -60.55 | X-H torsion
[ 11005 11000 10999 10996 ] final -157.23 input  -57.11 | X-H torsion

> <Gold.Protein.ActiveResidues>
 VAL166  LYS551  ARG553  GLY616  TRP617  ASP618  TYR619  PRO620  LYS621  CYS622 
 ASP623  PHE694  ASN695  SER759  ASP760  ASP761  ALA762  ILE779  LEU786  VAL792 
 PHE793  MET794  SER795  GLU796  ALA797  LYS798  CYS799  TRP800  GLU811  SER814 

> <Gold.Protein.RotatedAtoms>
  152.4705  133.8020  159.6957 H   0  0  0  0  0  0  0  0  0  0  0  0  # atno 6907 bound_to 6896
  150.8692  133.7520  159.2973 H   0  0  0  0  0  0  0  0  0  0  0  0  # atno 6908 bound_to 6896
  151.5060  135.1067  159.9893 H   0  0  0  0  0  0  0  0  0  0  0  0  # atno 6909 bound_to 6896
  146.1032  140.5724  142.8811 H   0  0  0  0  0  0  0  0  0  0  0  0  # atno 7974 bound_to 7965
  156.1776  140.1662  156.8334 H   0  0  0  0  0  0  0  0  0  0  0  0  # atno 8008 bound_to 7997
  154.5324  140.0754  156.8401 H   0  0  0  0  0  0  0  0  0  0  0  0  # atno 8009 bound_to 7997
  155.3380  140.3383  155.4241 H   0  0  0  0  0  0  0  0  0  0  0  0  # atno 8010 bound_to 7997
  139.4851  144.4521  151.8816 H   0  0  0  0  0  0  0  0  0  0  0  0  # atno 10167 bound_to 10162
  156.8150  130.5437  149.5704 H   0  0  0  0  0  0  0  0  0  0  0  0  # atno 10718 bound_to 10713
  153.4973  135.7017  153.5851 H   0  0  0  0  0  0  0  0  0  0  0  0  # atno 10763 bound_to 10752
  153.3997  135.3875  155.1979 H   0  0  0  0  0  0  0  0  0  0  0  0  # atno 10764 bound_to 10752
  154.8713  135.3878  154.4440 H   0  0  0  0  0  0  0  0  0  0  0  0  # atno 10765 bound_to 10752
  140.6669  134.4289  157.5233 H   0  0  0  0  0  0  0  0  0  0  0  0  # atno 11005 bound_to 11000
  144.7450  140.5043  143.6842 LP  0  0  0  0  0  0  0  0  0  0  0  0  # atno 17320 bound_to 7965
  145.5812  139.1489  143.3234 LP  0  0  0  0  0  0  0  0  0  0  0  0  # atno 17321 bound_to 7965
  140.3979  144.2531  150.5895 LP  0  0  0  0  0  0  0  0  0  0  0  0  # atno 17342 bound_to 10162
  140.5085  143.2297  151.8571 LP  0  0  0  0  0  0  0  0  0  0  0  0  # atno 17343 bound_to 10162
  156.1022  130.5977  150.9912 LP  0  0  0  0  0  0  0  0  0  0  0  0  # atno 17370 bound_to 10713
  157.6486  131.0900  150.8100 LP  0  0  0  0  0  0  0  0  0  0  0  0  # atno 17371 bound_to 10713
  139.8994  134.8591  156.1960 LP  0  0  0  0  0  0  0  0  0  0  0  0  # atno 17394 bound_to 11000
  141.0422  133.6932  156.1619 LP  0  0  0  0  0  0  0  0  0  0  0  0  # atno 17395 bound_to 11000

$$$$
