AV-unprocessed.smi:2789|AV-procd|sdf|10764|dock8
  -GOLD-   2272015193D 1   1.00000     0.00000
 Structure written by MMmdl.
 35 36  0  0  0  0  0  0  0  0  1 V2000
  148.9429  144.9593  160.7181 C   0  0  0  0  0  0  0  0  0  0  0  0
  149.4729  144.3259  159.5651 O   0  0  0  0  0  0  0  0  0  0  0  0
  150.7621  143.7525  159.7668 C   0  0  2  0  0  0  0  0  0  0  0  0
  151.6666  144.8759  160.2787 C   0  0  0  0  0  0  0  0  0  0  0  0
  152.1471  145.5809  159.0144 C   0  0  0  0  0  0  0  0  0  0  0  0
  152.3557  144.4497  158.0069 C   0  0  0  0  0  0  0  0  0  0  0  0
  151.4031  143.3131  158.4271 C   0  0  2  0  0  0  0  0  0  0  0  0
  150.4167  143.0522  157.3805 N   0  0  0  0  0  0  0  0  0  0  0  0
  150.2768  141.8935  156.7218 C   0  0  0  0  0  0  0  0  0  0  0  0
  150.9891  140.9092  156.9205 O   0  0  0  0  0  0  0  0  0  0  0  0
  149.2591  141.9569  155.8460 N   0  0  0  0  0  0  0  0  0  0  0  0
  148.8074  140.9973  154.9952 C   0  0  0  0  0  0  0  0  0  0  0  0
  149.3568  139.7765  154.7114 C   0  0  0  0  0  0  0  0  0  0  0  0
  148.4445  139.2417  153.7576 C   0  0  0  0  0  0  0  0  0  0  0  0
  147.4366  140.0608  153.4860 N   0  0  0  0  0  0  0  0  0  0  0  0
  147.6580  141.1533  154.2488 N   0  0  0  0  0  0  0  0  0  0  0  0
  146.7231  142.2607  154.1914 C   0  0  0  0  0  0  0  0  0  0  0  0
  147.9437  145.3369  160.5021 H   0  0  0  0  0  0  0  0  0  0  0  0
  149.5637  145.8038  161.0197 H   0  0  0  0  0  0  0  0  0  0  0  0
  148.8676  144.2656  161.5557 H   0  0  0  0  0  0  0  0  0  0  0  0
  150.7303  142.9310  160.4855 H   0  0  0  0  0  0  0  0  0  0  0  0
  151.1596  145.5485  160.9714 H   0  0  0  0  0  0  0  0  0  0  0  0
  152.5227  144.4477  160.8018 H   0  0  0  0  0  0  0  0  0  0  0  0
  151.3700  146.2559  158.6542 H   0  0  0  0  0  0  0  0  0  0  0  0
  153.0504  146.1694  159.1781 H   0  0  0  0  0  0  0  0  0  0  0  0
  152.1946  144.7920  156.9839 H   0  0  0  0  0  0  0  0  0  0  0  0
  153.3862  144.0970  158.0655 H   0  0  0  0  0  0  0  0  0  0  0  0
  152.0086  142.4204  158.5966 H   0  0  0  0  0  0  0  0  0  0  0  0
  149.7820  143.8055  157.1608 H   0  0  0  0  0  0  0  0  0  0  0  0
  148.7504  142.8282  155.8199 H   0  0  0  0  0  0  0  0  0  0  0  0
  150.2551  139.3250  155.1045 H   0  0  0  0  0  0  0  0  0  0  0  0
  148.4841  138.2864  153.2549 H   0  0  0  0  0  0  0  0  0  0  0  0
  147.1160  143.1251  154.7266 H   0  0  0  0  0  0  0  0  0  0  0  0
  145.7772  141.9642  154.6452 H   0  0  0  0  0  0  0  0  0  0  0  0
  146.5476  142.5431  153.1530 H   0  0  0  0  0  0  0  0  0  0  0  0
  1  2  1  0  0  0  0
  1 18  1  0  0  0  0
  1 19  1  0  0  0  0
  1 20  1  0  0  0  0
  2  3  1  0  0  0  0
  3  7  1  0  0  0  0
  3  4  1  0  0  0  0
  3 21  1  0  0  0  0
  4  5  1  0  0  0  0
  4 22  1  0  0  0  0
  4 23  1  0  0  0  0
  5  6  1  0  0  0  0
  5 24  1  0  0  0  0
  5 25  1  0  0  0  0
  6  7  1  0  0  0  0
  6 26  1  0  0  0  0
  6 27  1  0  0  0  0
  7  8  1  0  0  0  0
  7 28  1  0  0  0  0
  8  9  1  0  0  0  0
  8 29  1  0  0  0  0
  9 10  2  0  0  0  0
  9 11  1  0  0  0  0
 11 12  1  0  0  0  0
 11 30  1  0  0  0  0
 12 16  1  0  0  0  0
 12 13  2  0  0  0  0
 13 14  1  0  0  0  0
 13 31  1  0  0  0  0
 14 15  2  0  0  0  0
 14 32  1  0  0  0  0
 15 16  1  0  0  0  0
 16 17  1  0  0  0  0
 17 33  1  0  0  0  0
 17 34  1  0  0  0  0
 17 35  1  0  0  0  0
M  END
> <s_m_source_file>
AV-unprocessed.smi

> <i_m_source_file_index>
2789

> <i_lp_mmshare_version>
43012

> <i_f3d_flags>
0

> <s_epik_input>
W0NIM11PW0NAQEhdMVtDSDJdW0NIMl1bQ0gyXVtDQEhdMVtOSF1DKD1PKVtOSF1jMltjSF1bY0hdbm4yW0NIM10=

> <s_epik_cmdline>
J2VwaWtfcHl0aG9uJywgJy1waCcsICc3LjAnLCAnLXRuJywgJzgnLCAnLW1hJywgJzIwMCcsICctbWV0YWxfYmluZGluZycsICctaW1hZScsICc8aW5maWxlLm1hZT4nLCAnLW9tYWUnLCAnPG91dGZpbGUubWFlPic=

> <r_lp_tautomer_probability>
1

> <r_epik_Ionization_Penalty>
4.40608e-05

> <r_epik_Ionization_Penalty_Charging>
0

> <r_epik_Ionization_Penalty_Neutral>
4.40608e-05

> <r_epik_State_Penalty>
-0

> <r_epik_Charging_Adjusted_Penalty>
0

> <i_epik_Tot_Q>
0

> <i_epik_Tot_abs_Q>
0

> <r_epik_Metal_State_Penalty>
-0

> <b_epik_Metal_Only>
0

> <s_lp_Force_Field>
OPLS_2005

> <r_lp_Energy>
23.3685

> <b_lp_Chiralities_Consistent>
1

> <s_lp_Variant>
AV-unprocessed.smi:2789-3

> <Gold.Version>
5.8.1

> <Gold.Id.Protein>
6NUR|6NUR_protein|mol2

> <Gold.PLP.Fitness>
45.2292

> <Gold.PLP.PLP>
-36.6007

> <Gold.PLP.part.hbond>
-2.0000

> <Gold.PLP.part.metal>
0.0000

> <Gold.PLP.part.buried>
-4.6342

> <Gold.PLP.part.nonpolar>
-30.9687

> <Gold.PLP.part.repulsive>
0.9742

> <Gold.PLP.ligand.clash>
0.0000

> <Gold.PLP.ligand.torsion>
0.0499

> <Gold.PLP.Chemscore.Hbond>
1.9040

> <Gold.PLP.Chemscore.CHOScore>
1.0017

> <Gold.PLP.Chemscore.Metal>
0.0000

> <Gold.Chemscore.Hbonds>
donor molecule, donor type, donor heavy atom, donor atom, acceptor molecule, acceptor atom, score
      L1  H     8    29       P1  8028  0.88
      L1  H    11    30       P1  8028  0.93
      L1  C    14    32       P1  7948  1.00

> <Gold.PLP.Chemscore.Internal.Correction>
0.0113

> <Gold.Rescore>
     Score         DG    S(hbond)    S(metal)    S(lipo)     H(rot)  DE(clash)    DE(int)     intcor
     16.28     -18.89       1.97        0.00      86.21       1.27       1.46       1.15       ----

> <Gold.Chemscore.Fitness>
16.2847

> <Gold.Chemscore.DG>
-18.8901

> <Gold.Chemscore.ZeroCoef>
-5.4800

> <Gold.Chemscore.Hbond>
1.9695

> <Gold.Chemscore.Metal>
0.0000

> <Gold.Chemscore.Lipo>
86.2090

> <Gold.Chemscore.Internal_Hbond>
0.0000

> <Gold.Chemscore.DEClash>
1.4581

> <Gold.Chemscore.DEInternal>
1.1473

> <Gold.Chemscore.Rot>
1.2712

> <Gold.Chemscore.Internal.Correction>
   9.000000E+99

> <Gold.Chemscore.Hbonds>
donor molecule, donor type, donor heavy atom, donor atom, acceptor molecule, acceptor atom, score
      L1  H     8    29       P1  8028  0.73
      L1  H    11    30       P1  8028  0.89

> <Gold.Chemscore.Hbond.Weighted>
-6.5781

> <Gold.Chemscore.Metal.Weighted>
-0.0000

> <Gold.Chemscore.Lipo.Weighted>
-10.0865

> <Gold.Chemscore.Internal_Hbond.Weighted>
0.0000

> <Gold.Chemscore.DEClash.Weighted>
1.4581

> <Gold.Chemscore.DEInternal.Weighted>
1.1473

> <Gold.Chemscore.Rot.Weighted>
3.2544

> <Gold.Chemscore.Internal.Correction.Weighted>
   9.000000E+99

> <Gold.Protein.RotatedTorsions>
[ 6907 6896 6895 6894 ] final  -12.14 input  -60.11 | X-H torsion
[ 7974 7965 7964 7962 ] final  174.47 input  175.53 | X-H torsion
[ 8008 7997 7996 7995 ] final -111.59 input   59.86 | X-H torsion
[ 10167 10162 10161 10158 ] final   34.58 input  -65.29 | X-H torsion
[ 10718 10713 10712 10709 ] final -110.61 input   66.30 | X-H torsion
[ 10763 10752 10751 10750 ] final  129.43 input  -60.55 | X-H torsion
[ 11005 11000 10999 10996 ] final -115.63 input  -57.11 | X-H torsion

> <Gold.Protein.ActiveResidues>
 VAL166  LYS551  ARG553  GLY616  TRP617  ASP618  TYR619  PRO620  LYS621  CYS622 
 ASP623  PHE694  ASN695  SER759  ASP760  ASP761  ALA762  ILE779  LEU786  VAL792 
 PHE793  MET794  SER795  GLU796  ALA797  LYS798  CYS799  TRP800  GLU811  SER814 

> <Gold.Protein.RotatedAtoms>
  151.3752  135.0930  159.9478 H   0  0  0  0  0  0  0  0  0  0  0  0  # atno 6907 bound_to 6896
  152.5124  133.9126  159.7505 H   0  0  0  0  0  0  0  0  0  0  0  0  # atno 6908 bound_to 6896
  150.9548  133.6455  159.2794 H   0  0  0  0  0  0  0  0  0  0  0  0  # atno 6909 bound_to 6896
  144.7221  139.9801  143.6438 H   0  0  0  0  0  0  0  0  0  0  0  0  # atno 7974 bound_to 7965
  154.9922  140.0395  157.2324 H   0  0  0  0  0  0  0  0  0  0  0  0  # atno 8008 bound_to 7997
  154.7618  140.2786  155.6185 H   0  0  0  0  0  0  0  0  0  0  0  0  # atno 8009 bound_to 7997
  156.2905  140.2627  156.2399 H   0  0  0  0  0  0  0  0  0  0  0  0  # atno 8010 bound_to 7997
  140.4302  144.1335  150.6158 H   0  0  0  0  0  0  0  0  0  0  0  0  # atno 10167 bound_to 10162
  156.0601  130.5824  150.8261 H   0  0  0  0  0  0  0  0  0  0  0  0  # atno 10718 bound_to 10713
  153.7417  135.3223  155.3305 H   0  0  0  0  0  0  0  0  0  0  0  0  # atno 10763 bound_to 10752
  154.8293  135.4546  154.1020 H   0  0  0  0  0  0  0  0  0  0  0  0  # atno 10764 bound_to 10752
  153.2197  135.6946  153.8097 H   0  0  0  0  0  0  0  0  0  0  0  0  # atno 10765 bound_to 10752
  141.0475  133.9740  157.2893 H   0  0  0  0  0  0  0  0  0  0  0  0  # atno 11005 bound_to 11000
  146.0494  139.3497  143.0648 LP  0  0  0  0  0  0  0  0  0  0  0  0  # atno 17320 bound_to 7965
  145.8234  140.9667  143.0887 LP  0  0  0  0  0  0  0  0  0  0  0  0  # atno 17321 bound_to 7965
  140.4436  143.2516  151.9441 LP  0  0  0  0  0  0  0  0  0  0  0  0  # atno 17342 bound_to 10162
  139.4784  144.5631  151.8208 LP  0  0  0  0  0  0  0  0  0  0  0  0  # atno 17343 bound_to 10162
  157.5602  131.0945  150.9570 LP  0  0  0  0  0  0  0  0  0  0  0  0  # atno 17370 bound_to 10713
  156.9809  130.5527  149.5296 LP  0  0  0  0  0  0  0  0  0  0  0  0  # atno 17371 bound_to 10713
  139.9323  135.0199  156.8442 LP  0  0  0  0  0  0  0  0  0  0  0  0  # atno 17394 bound_to 11000
  140.6119  134.0075  155.7580 LP  0  0  0  0  0  0  0  0  0  0  0  0  # atno 17395 bound_to 11000

$$$$
