AV-unprocessed.smi:982|AV-procd|sdf|4315|dock1
  -GOLD-   22720 2223D 1   1.00000     0.00000
 Structure written by MMmdl.
 29 30  0  0  0  0  0  0  0  0  1 V2000
  149.5115  138.5495  153.3258 N   0  0  0  0  0  0  0  0  0  0  0  0
  150.6782  138.2715  154.1395 C   0  0  0  0  0  0  0  0  0  0  0  0
  150.9333  139.3466  155.1762 C   0  0  0  0  0  0  0  0  0  0  0  0
  151.9844  139.2233  156.1053 C   0  0  0  0  0  0  0  0  0  0  0  0
  152.1827  140.2485  157.0500 C   0  0  0  0  0  0  0  0  0  0  0  0
  151.3238  141.3739  157.0391 C   0  0  0  0  0  0  0  0  0  0  0  0
  151.5071  142.4164  157.9738 N   0  0  0  0  0  0  0  0  0  0  0  0
  152.4573  142.1417  159.0491 C   0  0  0  0  0  0  0  0  0  0  0  0
  152.3425  143.2082  160.1520 C   0  0  0  0  0  0  0  0  0  0  0  0
  152.5044  144.5056  159.5885 O   0  0  0  0  0  0  0  0  0  0  0  0
  151.4970  144.7927  158.6248 C   0  0  0  0  0  0  0  0  0  0  0  0
  151.5868  143.7852  157.4664 C   0  0  0  0  0  0  0  0  0  0  0  0
  150.3077  141.4819  156.1468 N   0  0  0  0  0  0  0  0  0  0  0  0
  150.1227  140.4970  155.2425 C   0  0  0  0  0  0  0  0  0  0  0  0
  149.7803  139.1295  152.5437 H   0  0  0  0  0  0  0  0  0  0  0  0
  149.1689  137.6871  152.9270 H   0  0  0  0  0  0  0  0  0  0  0  0
  150.5502  137.3047  154.6275 H   0  0  0  0  0  0  0  0  0  0  0  0
  151.5503  138.1877  153.4905 H   0  0  0  0  0  0  0  0  0  0  0  0
  152.6286  138.3563  156.0970 H   0  0  0  0  0  0  0  0  0  0  0  0
  152.9773  140.1531  157.7748 H   0  0  0  0  0  0  0  0  0  0  0  0
  152.2965  141.1594  159.4907 H   0  0  0  0  0  0  0  0  0  0  0  0
  153.4660  142.1418  158.6344 H   0  0  0  0  0  0  0  0  0  0  0  0
  151.3798  143.1386  160.6611 H   0  0  0  0  0  0  0  0  0  0  0  0
  153.1132  143.0512  160.9068 H   0  0  0  0  0  0  0  0  0  0  0  0
  150.5113  144.7621  159.0919 H   0  0  0  0  0  0  0  0  0  0  0  0
  151.6408  145.8068  158.2518 H   0  0  0  0  0  0  0  0  0  0  0  0
  152.5267  143.9176  156.9288 H   0  0  0  0  0  0  0  0  0  0  0  0
  150.7770  143.9742  156.7607 H   0  0  0  0  0  0  0  0  0  0  0  0
  149.3026  140.6338  154.5531 H   0  0  0  0  0  0  0  0  0  0  0  0
  1  2  1  0  0  0  0
  1 15  1  0  0  0  0
  1 16  1  0  0  0  0
  2  3  1  0  0  0  0
  2 17  1  0  0  0  0
  2 18  1  0  0  0  0
  3 14  1  0  0  0  0
  3  4  2  0  0  0  0
  4  5  1  0  0  0  0
  4 19  1  0  0  0  0
  5  6  2  0  0  0  0
  5 20  1  0  0  0  0
  6  7  1  0  0  0  0
  6 13  1  0  0  0  0
  7 12  1  0  0  0  0
  7  8  1  0  0  0  0
  8  9  1  0  0  0  0
  8 21  1  0  0  0  0
  8 22  1  0  0  0  0
  9 10  1  0  0  0  0
  9 23  1  0  0  0  0
  9 24  1  0  0  0  0
 10 11  1  0  0  0  0
 11 12  1  0  0  0  0
 11 25  1  0  0  0  0
 11 26  1  0  0  0  0
 12 27  1  0  0  0  0
 12 28  1  0  0  0  0
 13 14  2  0  0  0  0
 14 29  1  0  0  0  0
M  END
> <s_m_source_file>
AV-unprocessed.smi

> <i_m_source_file_index>
982

> <i_lp_mmshare_version>
43012

> <i_f3d_flags>
0

> <s_epik_input>
W05IMl1bQ0gyXWMxW2NIXVtjSF1jKG5bY0hdMSlOMltDSDJdW0NIMl1PW0NIMl1bQ0gyXTI=

> <s_epik_cmdline>
J2VwaWtfcHl0aG9uJywgJy1waCcsICc3LjAnLCAnLXRuJywgJzgnLCAnLW1hJywgJzIwMCcsICctbWV0YWxfYmluZGluZycsICctaW1hZScsICc8aW5maWxlLm1hZT4nLCAnLW9tYWUnLCAnPG91dGZpbGUubWFlPic=

> <r_lp_tautomer_probability>
1

> <r_epik_Ionization_Penalty>
1.39093

> <r_epik_Ionization_Penalty_Charging>
0

> <r_epik_Ionization_Penalty_Neutral>
1.39093

> <r_epik_State_Penalty>
1.46593

> <r_epik_Charging_Adjusted_Penalty>
1.46593

> <i_epik_Tot_Q>
0

> <i_epik_Tot_abs_Q>
0

> <r_epik_Metal_State_Penalty>
1.46056

> <b_epik_Metal_Only>
0

> <s_lp_Force_Field>
OPLS_2005

> <r_lp_Energy>
15.7707

> <b_lp_Chiralities_Consistent>
1

> <s_lp_Variant>
AV-unprocessed.smi:982-2

> <Gold.Version>
5.8.1

> <Gold.Id.Protein>
6NUR|6NUR_protein|mol2

> <Gold.PLP.Fitness>
37.9812

> <Gold.PLP.PLP>
-32.0002

> <Gold.PLP.part.hbond>
-2.0000

> <Gold.PLP.part.metal>
0.0000

> <Gold.PLP.part.buried>
-3.3090

> <Gold.PLP.part.nonpolar>
-26.0799

> <Gold.PLP.part.repulsive>
0.1359

> <Gold.PLP.ligand.clash>
0.0000

> <Gold.PLP.ligand.torsion>
0.1762

> <Gold.PLP.Chemscore.Hbond>
2.0000

> <Gold.PLP.Chemscore.CHOScore>
0.0000

> <Gold.PLP.Chemscore.Metal>
0.0000

> <Gold.Chemscore.Hbonds>
donor molecule, donor type, donor heavy atom, donor atom, acceptor molecule, acceptor atom, score
      L1  H     1    15       P1  7957  1.00
      L1  H     1    16       P1  7948  1.00

> <Gold.PLP.Chemscore.Internal.Correction>
0.3333

> <Gold.Rescore>
     Score         DG    S(hbond)    S(metal)    S(lipo)     H(rot)  DE(clash)    DE(int)     intcor
     18.33     -18.61       1.99        0.00      83.55       1.29       0.07       0.21       ----

> <Gold.Chemscore.Fitness>
18.3340

> <Gold.Chemscore.DG>
-18.6126

> <Gold.Chemscore.ZeroCoef>
-5.4800

> <Gold.Chemscore.Hbond>
1.9922

> <Gold.Chemscore.Metal>
0.0000

> <Gold.Chemscore.Lipo>
83.5453

> <Gold.Chemscore.Internal_Hbond>
0.0000

> <Gold.Chemscore.DEClash>
0.0686

> <Gold.Chemscore.DEInternal>
0.2100

> <Gold.Chemscore.Rot>
1.2875

> <Gold.Chemscore.Internal.Correction>
   9.000000E+99

> <Gold.Chemscore.Hbonds>
donor molecule, donor type, donor heavy atom, donor atom, acceptor molecule, acceptor atom, score
      L1  H     1    15       P1  7957  0.87
      L1  H     1    16       P1  7948  0.99

> <Gold.Chemscore.Hbond.Weighted>
-6.6539

> <Gold.Chemscore.Metal.Weighted>
-0.0000

> <Gold.Chemscore.Lipo.Weighted>
-9.7748

> <Gold.Chemscore.Internal_Hbond.Weighted>
0.0000

> <Gold.Chemscore.DEClash.Weighted>
0.0686

> <Gold.Chemscore.DEInternal.Weighted>
0.2100

> <Gold.Chemscore.Rot.Weighted>
3.2961

> <Gold.Chemscore.Internal.Correction.Weighted>
   9.000000E+99

> <Gold.Protein.RotatedTorsions>
[ 6907 6896 6895 6894 ] final  131.01 input  -60.11 | X-H torsion
[ 7974 7965 7964 7962 ] final  139.86 input  175.53 | X-H torsion
[ 8008 7997 7996 7995 ] final  105.41 input   59.86 | X-H torsion
[ 10167 10162 10161 10158 ] final   81.97 input  -65.29 | X-H torsion
[ 10718 10713 10712 10709 ] final  -71.23 input   66.30 | X-H torsion
[ 10763 10752 10751 10750 ] final  -79.68 input  -60.55 | X-H torsion
[ 11005 11000 10999 10996 ] final -107.51 input  -57.11 | X-H torsion

> <Gold.Protein.ActiveResidues>
 VAL166  LYS551  ARG553  GLY616  TRP617  ASP618  TYR619  PRO620  LYS621  CYS622 
 ASP623  PHE694  ASN695  SER759  ASP760  ASP761  ALA762  ILE779  LEU786  VAL792 
 PHE793  MET794  SER795  GLU796  ALA797  LYS798  CYS799  TRP800  GLU811  SER814 

> <Gold.Protein.RotatedAtoms>
  152.3469  133.6133  159.5916 H   0  0  0  0  0  0  0  0  0  0  0  0  # atno 6907 bound_to 6896
  150.7513  133.9634  159.3532 H   0  0  0  0  0  0  0  0  0  0  0  0  # atno 6908 bound_to 6896
  151.7491  135.0837  160.0379 H   0  0  0  0  0  0  0  0  0  0  0  0  # atno 6909 bound_to 6896
  144.9240  139.5131  143.5650 H   0  0  0  0  0  0  0  0  0  0  0  0  # atno 7974 bound_to 7965
  156.1657  140.3131  155.8884 H   0  0  0  0  0  0  0  0  0  0  0  0  # atno 8008 bound_to 7997
  155.3691  140.0481  157.3062 H   0  0  0  0  0  0  0  0  0  0  0  0  # atno 8009 bound_to 7997
  154.5190  140.2191  155.9022 H   0  0  0  0  0  0  0  0  0  0  0  0  # atno 8010 bound_to 7997
  139.9336  144.6135  150.8320 H   0  0  0  0  0  0  0  0  0  0  0  0  # atno 10167 bound_to 10162
  156.0372  130.4347  150.2413 H   0  0  0  0  0  0  0  0  0  0  0  0  # atno 10718 bound_to 10713
  154.5417  135.5687  153.6845 H   0  0  0  0  0  0  0  0  0  0  0  0  # atno 10763 bound_to 10752
  152.9965  135.6229  154.2493 H   0  0  0  0  0  0  0  0  0  0  0  0  # atno 10764 bound_to 10752
  154.2424  135.2862  155.2828 H   0  0  0  0  0  0  0  0  0  0  0  0  # atno 10765 bound_to 10752
  141.0950  133.8987  157.1985 H   0  0  0  0  0  0  0  0  0  0  0  0  # atno 11005 bound_to 11000
  146.3217  139.8141  142.8940 LP  0  0  0  0  0  0  0  0  0  0  0  0  # atno 17320 bound_to 7965
  145.3250  141.0253  143.3479 LP  0  0  0  0  0  0  0  0  0  0  0  0  # atno 17321 bound_to 7965
  140.7630  143.3213  151.2616 LP  0  0  0  0  0  0  0  0  0  0  0  0  # atno 17342 bound_to 10162
  139.6761  143.9934  152.2782 LP  0  0  0  0  0  0  0  0  0  0  0  0  # atno 17343 bound_to 10162
  157.0512  131.0063  151.3253 LP  0  0  0  0  0  0  0  0  0  0  0  0  # atno 17370 bound_to 10713
  157.5139  130.7956  149.7735 LP  0  0  0  0  0  0  0  0  0  0  0  0  # atno 17371 bound_to 10713
  139.9784  135.0106  156.9689 LP  0  0  0  0  0  0  0  0  0  0  0  0  # atno 17394 bound_to 11000
  140.5162  134.0953  155.7281 LP  0  0  0  0  0  0  0  0  0  0  0  0  # atno 17395 bound_to 11000

$$$$
