AV-unprocessed.smi:952|AV-procd|sdf|4256|dock9
  -GOLD-   22720 2163D 1   1.00000     0.00000
 Structure written by MMmdl.
 35 35  0  0  0  0  0  0  0  0  1 V2000
  151.4244  144.8609  159.1714 C   0  0  0  0  0  0  0  0  0  0  0  0
  152.5393  143.8710  158.8183 C   0  0  0  0  0  0  0  0  0  0  0  0
  152.5712  142.6605  159.7655 C   0  0  0  0  0  0  0  0  0  0  0  0
  151.5966  141.6488  159.3748 N   0  0  0  0  0  0  0  0  0  0  0  0
  151.8716  140.5514  158.6535 C   0  0  0  0  0  0  0  0  0  0  0  0
  152.9964  140.2902  158.2239 O   0  0  0  0  0  0  0  0  0  0  0  0
  150.6853  139.6242  158.3611 C   0  0  0  0  0  0  0  0  0  0  0  0
  150.4154  139.4760  156.9333 N   0  0  0  0  0  0  0  0  0  0  0  0
  150.3664  140.4821  156.0450 C   0  0  0  0  0  0  0  0  0  0  0  0
  150.5602  141.6594  156.3516 O   0  0  0  0  0  0  0  0  0  0  0  0
  150.0538  140.0891  154.5928 C   0  0  1  0  0  0  0  0  0  0  0  0
  150.3233  138.6006  154.3057 C   0  0  0  0  0  0  0  0  0  0  0  0
  148.6822  140.4464  154.2543 N   0  0  0  0  0  0  0  0  0  0  0  0
  148.0520  141.6712  154.3649 C   0  0  0  0  0  0  0  0  0  0  0  0
  146.7682  141.5119  153.9286 C   0  0  0  0  0  0  0  0  0  0  0  0
  146.7023  140.1372  153.5693 C   0  0  0  0  0  0  0  0  0  0  0  0
  147.8465  139.5027  153.7668 N   0  0  0  0  0  0  0  0  0  0  0  0
  151.4311  145.7121  158.4901 H   0  0  0  0  0  0  0  0  0  0  0  0
  151.5439  145.2445  160.1851 H   0  0  0  0  0  0  0  0  0  0  0  0
  150.4439  144.3886  159.1039 H   0  0  0  0  0  0  0  0  0  0  0  0
  152.4028  143.5345  157.7900 H   0  0  0  0  0  0  0  0  0  0  0  0
  153.5002  144.3861  158.8491 H   0  0  0  0  0  0  0  0  0  0  0  0
  153.5601  142.2014  159.7473 H   0  0  0  0  0  0  0  0  0  0  0  0
  152.3942  142.9748  160.7956 H   0  0  0  0  0  0  0  0  0  0  0  0
  150.6451  141.7885  159.6828 H   0  0  0  0  0  0  0  0  0  0  0  0
  150.8531  138.6447  158.8129 H   0  0  0  0  0  0  0  0  0  0  0  0
  149.7966  140.0397  158.8360 H   0  0  0  0  0  0  0  0  0  0  0  0
  150.2420  138.5397  156.5972 H   0  0  0  0  0  0  0  0  0  0  0  0
  150.7232  140.6682  153.9530 H   0  0  0  0  0  0  0  0  0  0  0  0
  151.3517  138.3311  154.5489 H   0  0  0  0  0  0  0  0  0  0  0  0
  150.1683  138.3757  153.2502 H   0  0  0  0  0  0  0  0  0  0  0  0
  149.6631  137.9503  154.8810 H   0  0  0  0  0  0  0  0  0  0  0  0
  148.5653  142.5444  154.7399 H   0  0  0  0  0  0  0  0  0  0  0  0
  145.9940  142.2629  153.8753 H   0  0  0  0  0  0  0  0  0  0  0  0
  145.8624  139.5848  153.1742 H   0  0  0  0  0  0  0  0  0  0  0  0
  1  2  1  0  0  0  0
  1 18  1  0  0  0  0
  1 19  1  0  0  0  0
  1 20  1  0  0  0  0
  2  3  1  0  0  0  0
  2 21  1  0  0  0  0
  2 22  1  0  0  0  0
  3  4  1  0  0  0  0
  3 23  1  0  0  0  0
  3 24  1  0  0  0  0
  4  5  1  0  0  0  0
  4 25  1  0  0  0  0
  5  6  2  0  0  0  0
  5  7  1  0  0  0  0
  7  8  1  0  0  0  0
  7 26  1  0  0  0  0
  7 27  1  0  0  0  0
  8  9  1  0  0  0  0
  8 28  1  0  0  0  0
  9 10  2  0  0  0  0
  9 11  1  0  0  0  0
 11 12  1  0  0  0  0
 11 13  1  0  0  0  0
 11 29  1  0  0  0  0
 12 30  1  0  0  0  0
 12 31  1  0  0  0  0
 12 32  1  0  0  0  0
 13 17  1  0  0  0  0
 13 14  1  0  0  0  0
 14 15  2  0  0  0  0
 14 33  1  0  0  0  0
 15 16  1  0  0  0  0
 15 34  1  0  0  0  0
 16 17  2  0  0  0  0
 16 35  1  0  0  0  0
M  END
> <s_m_source_file>
AV-unprocessed.smi

> <i_m_source_file_index>
952

> <i_lp_mmshare_version>
43012

> <i_f3d_flags>
0

> <s_epik_input>
W0NIM11bQ0gyXVtDSDJdW05IXUMoPU8pW0NIMl1bTkhdQyg9TylbQ0BIXShbQ0gzXSluMVtjSF1bY0hdW2NIXW4x

> <s_epik_cmdline>
J2VwaWtfcHl0aG9uJywgJy1waCcsICc3LjAnLCAnLXRuJywgJzgnLCAnLW1hJywgJzIwMCcsICctbWV0YWxfYmluZGluZycsICctaW1hZScsICc8aW5maWxlLm1hZT4nLCAnLW9tYWUnLCAnPG91dGZpbGUubWFlPic=

> <r_lp_tautomer_probability>
1

> <r_epik_Ionization_Penalty>
2.62173e-05

> <r_epik_Ionization_Penalty_Charging>
0

> <r_epik_Ionization_Penalty_Neutral>
2.62173e-05

> <r_epik_State_Penalty>
-0

> <r_epik_Charging_Adjusted_Penalty>
0

> <i_epik_Tot_Q>
0

> <i_epik_Tot_abs_Q>
0

> <r_epik_Metal_State_Penalty>
-0

> <b_epik_Metal_Only>
0

> <s_lp_Force_Field>
OPLS_2005

> <r_lp_Energy>
2.421

> <b_lp_Chiralities_Consistent>
1

> <s_lp_Variant>
AV-unprocessed.smi:952-2

> <Gold.Version>
5.8.1

> <Gold.Id.Protein>
6NUR|6NUR_protein|mol2

> <Gold.PLP.Fitness>
42.6961

> <Gold.PLP.PLP>
-35.3280

> <Gold.PLP.part.hbond>
-1.0000

> <Gold.PLP.part.metal>
0.0000

> <Gold.PLP.part.buried>
-1.6637

> <Gold.PLP.part.nonpolar>
-33.3629

> <Gold.PLP.part.repulsive>
0.5066

> <Gold.PLP.ligand.clash>
0.0000

> <Gold.PLP.ligand.torsion>
0.8587

> <Gold.PLP.Chemscore.Hbond>
1.0000

> <Gold.PLP.Chemscore.CHOScore>
2.0000

> <Gold.PLP.Chemscore.Metal>
0.0000

> <Gold.Chemscore.Hbonds>
donor molecule, donor type, donor heavy atom, donor atom, acceptor molecule, acceptor atom, score
      P1  H  7997  8009       L1     6  0.93
      L1  C    14    33       P1  8028  1.00
      L1  C    16    35       P1 10175  0.95

> <Gold.PLP.Chemscore.Internal.Correction>
0.0856

> <Gold.Rescore>
     Score         DG    S(hbond)    S(metal)    S(lipo)     H(rot)  DE(clash)    DE(int)     intcor
      9.81     -12.28       0.96        0.00      79.69       2.24       0.24       2.23       ----

> <Gold.Chemscore.Fitness>
9.8144

> <Gold.Chemscore.DG>
-12.2837

> <Gold.Chemscore.ZeroCoef>
-5.4800

> <Gold.Chemscore.Hbond>
0.9597

> <Gold.Chemscore.Metal>
0.0000

> <Gold.Chemscore.Lipo>
79.6881

> <Gold.Chemscore.Internal_Hbond>
0.0000

> <Gold.Chemscore.DEClash>
0.2406

> <Gold.Chemscore.DEInternal>
2.2288

> <Gold.Chemscore.Rot>
2.2364

> <Gold.Chemscore.Internal.Correction>
   9.000000E+99

> <Gold.Chemscore.Hbonds>
donor molecule, donor type, donor heavy atom, donor atom, acceptor molecule, acceptor atom, score
      P1  H  7997  8009       L1     6  0.86

> <Gold.Chemscore.Hbond.Weighted>
-3.2054

> <Gold.Chemscore.Metal.Weighted>
-0.0000

> <Gold.Chemscore.Lipo.Weighted>
-9.3235

> <Gold.Chemscore.Internal_Hbond.Weighted>
0.0000

> <Gold.Chemscore.DEClash.Weighted>
0.2406

> <Gold.Chemscore.DEInternal.Weighted>
2.2288

> <Gold.Chemscore.Rot.Weighted>
5.7251

> <Gold.Chemscore.Internal.Correction.Weighted>
   9.000000E+99

> <Gold.Protein.RotatedTorsions>
[ 6907 6896 6895 6894 ] final  -40.07 input  -60.11 | X-H torsion
[ 7974 7965 7964 7962 ] final  -14.98 input  175.53 | X-H torsion
[ 8008 7997 7996 7995 ] final  159.11 input   59.86 | X-H torsion
[ 10167 10162 10161 10158 ] final  156.62 input  -65.29 | X-H torsion
[ 10718 10713 10712 10709 ] final   -9.55 input   66.30 | X-H torsion
[ 10763 10752 10751 10750 ] final  173.77 input  -60.55 | X-H torsion
[ 11005 11000 10999 10996 ] final  -65.49 input  -57.11 | X-H torsion

> <Gold.Protein.ActiveResidues>
 VAL166  LYS551  ARG553  GLY616  TRP617  ASP618  TYR619  PRO620  LYS621  CYS622 
 ASP623  PHE694  ASN695  SER759  ASP760  ASP761  ALA762  ILE779  LEU786  VAL792 
 PHE793  MET794  SER795  GLU796  ALA797  LYS798  CYS799  TRP800  GLU811  SER814 

> <Gold.Protein.RotatedAtoms>
  150.9828  134.9180  159.7853 H   0  0  0  0  0  0  0  0  0  0  0  0  # atno 6907 bound_to 6896
  152.5227  134.3387  159.9219 H   0  0  0  0  0  0  0  0  0  0  0  0  # atno 6908 bound_to 6896
  151.3394  133.3927  159.2704 H   0  0  0  0  0  0  0  0  0  0  0  0  # atno 6909 bound_to 6896
  146.2051  140.3427  142.8410 H   0  0  0  0  0  0  0  0  0  0  0  0  # atno 7974 bound_to 7965
  156.2260  140.1840  156.7362 H   0  0  0  0  0  0  0  0  0  0  0  0  # atno 8008 bound_to 7997
  154.5942  140.0646  156.9308 H   0  0  0  0  0  0  0  0  0  0  0  0  # atno 8009 bound_to 7997
  155.2284  140.3313  155.4309 H   0  0  0  0  0  0  0  0  0  0  0  0  # atno 8010 bound_to 7997
  139.4821  144.4992  151.8193 H   0  0  0  0  0  0  0  0  0  0  0  0  # atno 10167 bound_to 10162
  156.6864  130.5052  149.5956 H   0  0  0  0  0  0  0  0  0  0  0  0  # atno 10718 bound_to 10713
  154.4446  135.2763  155.1824 H   0  0  0  0  0  0  0  0  0  0  0  0  # atno 10763 bound_to 10752
  154.3676  135.6116  153.5726 H   0  0  0  0  0  0  0  0  0  0  0  0  # atno 10764 bound_to 10752
  152.9843  135.5849  154.4780 H   0  0  0  0  0  0  0  0  0  0  0  0  # atno 10765 bound_to 10752
  141.1456  133.6682  156.5994 H   0  0  0  0  0  0  0  0  0  0  0  0  # atno 11005 bound_to 11000
  144.8774  140.7355  143.6008 LP  0  0  0  0  0  0  0  0  0  0  0  0  # atno 17320 bound_to 7965
  145.3347  139.1749  143.4518 LP  0  0  0  0  0  0  0  0  0  0  0  0  # atno 17321 bound_to 7965
  140.4484  144.1889  150.5895 LP  0  0  0  0  0  0  0  0  0  0  0  0  # atno 17342 bound_to 10162
  140.4610  143.2449  151.9219 LP  0  0  0  0  0  0  0  0  0  0  0  0  # atno 17343 bound_to 10162
  156.1830  130.6511  151.0973 LP  0  0  0  0  0  0  0  0  0  0  0  0  # atno 17370 bound_to 10713
  157.7025  131.0770  150.6774 LP  0  0  0  0  0  0  0  0  0  0  0  0  # atno 17371 bound_to 10713
  140.3701  134.7613  157.4592 LP  0  0  0  0  0  0  0  0  0  0  0  0  # atno 17394 bound_to 11000
  140.0718  134.5852  155.8634 LP  0  0  0  0  0  0  0  0  0  0  0  0  # atno 17395 bound_to 11000

$$$$
