AV-unprocessed.smi:2889|AV-procd|sdf|11113|dock8
  -GOLD-   2272015583D 1   1.00000     0.00000
 Structure written by MMmdl.
 35 36  0  0  0  0  0  0  0  0  2 V2000
  149.9429  143.4345  158.4356 C   0  0  0  0  0  0  0  0  0  0  0  0
  151.5611  144.1505  158.0292 S   0  0  0  0  0  0  0  0  0  0  0  0
  152.5537  143.7124  159.4991 C   0  0  1  0  0  0  0  0  0  0  0  0
  151.8150  144.1423  160.7960 C   0  0  0  0  0  0  0  0  0  0  0  0
  152.6346  143.8667  162.0739 C   0  0  0  0  0  0  0  0  0  0  0  0
  153.0540  142.3832  162.1135 C   0  0  0  0  0  0  0  0  0  0  0  0
  153.7892  141.9334  160.8241 C   0  0  0  0  0  0  0  0  0  0  0  0
  153.0100  142.2210  159.5159 C   0  0  1  0  0  0  0  0  0  0  0  0
  151.8654  141.3238  159.4132 N   0  5  0  0  0  0  0  0  0  0  0  0
  152.0017  139.9367  158.5846 S   0  0  0  0  0  0  0  0  0  0  0  0
  153.4017  139.5420  158.3538 O   0  0  0  0  0  0  0  0  0  0  0  0
  151.0876  138.9018  159.0943 O   0  0  0  0  0  0  0  0  0  0  0  0
  151.3255  140.4489  156.9440 C   0  0  0  0  0  0  0  0  0  0  0  0
  151.3166  139.2841  155.9912 C   0  0  0  0  0  0  0  0  0  0  0  0
  150.2659  138.8495  155.1358 C   0  0  0  0  0  0  0  0  0  0  0  0
  150.7991  137.7676  154.4979 C   0  0  0  0  0  0  0  0  0  0  0  0
  152.0649  137.5379  154.9295 O   0  0  0  0  0  0  0  0  0  0  0  0
  152.3850  138.5082  155.8859 N   0  0  0  0  0  0  0  0  0  0  0  0
  149.2620  143.5546  157.5934 H   0  0  0  0  0  0  0  0  0  0  0  0
  149.5027  143.9307  159.3002 H   0  0  0  0  0  0  0  0  0  0  0  0
  150.0386  142.3709  158.6532 H   0  0  0  0  0  0  0  0  0  0  0  0
  153.4539  144.3256  159.4419 H   0  0  0  0  0  0  0  0  0  0  0  0
  151.5861  145.2073  160.7460 H   0  0  0  0  0  0  0  0  0  0  0  0
  150.8493  143.6370  160.8677 H   0  0  0  0  0  0  0  0  0  0  0  0
  153.5225  144.5000  162.0845 H   0  0  0  0  0  0  0  0  0  0  0  0
  152.0543  144.1219  162.9609 H   0  0  0  0  0  0  0  0  0  0  0  0
  153.6998  142.2132  162.9754 H   0  0  0  0  0  0  0  0  0  0  0  0
  152.1714  141.7619  162.2788 H   0  0  0  0  0  0  0  0  0  0  0  0
  154.7458  142.4549  160.7766 H   0  0  0  0  0  0  0  0  0  0  0  0
  154.0353  140.8726  160.8886 H   0  0  0  0  0  0  0  0  0  0  0  0
  153.6994  142.0733  158.6839 H   0  0  0  0  0  0  0  0  0  0  0  0
  150.3145  140.8221  157.1077 H   0  0  0  0  0  0  0  0  0  0  0  0
  151.9220  141.2771  156.5625 H   0  0  0  0  0  0  0  0  0  0  0  0
  149.2831  139.2766  155.0017 H   0  0  0  0  0  0  0  0  0  0  0  0
  150.4218  137.0877  153.7484 H   0  0  0  0  0  0  0  0  0  0  0  0
  1  2  1  0  0  0  0
  1 19  1  0  0  0  0
  1 20  1  0  0  0  0
  1 21  1  0  0  0  0
  2  3  1  0  0  0  0
  3  8  1  0  0  0  0
  3  4  1  0  0  0  0
  3 22  1  0  0  0  0
  4  5  1  0  0  0  0
  4 23  1  0  0  0  0
  4 24  1  0  0  0  0
  5  6  1  0  0  0  0
  5 25  1  0  0  0  0
  5 26  1  0  0  0  0
  6  7  1  0  0  0  0
  6 27  1  0  0  0  0
  6 28  1  0  0  0  0
  7  8  1  0  0  0  0
  7 29  1  0  0  0  0
  7 30  1  0  0  0  0
  8  9  1  0  0  0  0
  8 31  1  0  0  0  0
  9 10  1  0  0  0  0
 10 11  2  0  0  0  0
 10 12  2  0  0  0  0
 10 13  1  0  0  0  0
 13 14  1  0  0  0  0
 13 32  1  0  0  0  0
 13 33  1  0  0  0  0
 14 18  2  0  0  0  0
 14 15  1  0  0  0  0
 15 16  2  0  0  0  0
 15 34  1  0  0  0  0
 16 17  1  0  0  0  0
 16 35  1  0  0  0  0
 17 18  1  0  0  0  0
M  CHG  1   9  -1
M  END
> <s_m_source_file>
AV-unprocessed.smi

> <i_m_source_file_index>
2889

> <i_lp_mmshare_version>
43012

> <i_f3d_flags>
0

> <s_epik_input>
W0NIM11TW0NAQEhdMVtDSDJdW0NIMl1bQ0gyXVtDSDJdW0NASF0xW05IXVMoPU8pKD1PKVtDSDJdYzJbY0hdW2NIXW9uMg==

> <s_epik_cmdline>
J2VwaWtfcHl0aG9uJywgJy1waCcsICc3LjAnLCAnLXRuJywgJzgnLCAnLW1hJywgJzIwMCcsICctbWV0YWxfYmluZGluZycsICctaW1hZScsICc8aW5maWxlLm1hZT4nLCAnLW9tYWUnLCAnPG91dGZpbGUubWFlPic=

> <r_lp_tautomer_probability>
1

> <r_epik_Ionization_Penalty>
4.65467

> <r_epik_Ionization_Penalty_Charging>
4.65467

> <r_epik_Ionization_Penalty_Neutral>
2.71476e-10

> <r_epik_State_Penalty>
4.65444

> <r_epik_Charging_Adjusted_Penalty>
9.30911

> <i_epik_Tot_Q>
-1

> <i_epik_Tot_abs_Q>
1

> <r_epik_Metal_State_Penalty>
0.901484

> <b_epik_Metal_Only>
1

> <s_lp_Force_Field>
OPLS_2005

> <r_lp_Energy>
11.2119

> <b_lp_Chiralities_Consistent>
1

> <s_lp_Variant>
AV-unprocessed.smi:2889-6

> <Gold.Version>
5.8.1

> <Gold.Id.Protein>
6NUR|6NUR_protein|mol2

> <Gold.PLP.Fitness>
51.9875

> <Gold.PLP.PLP>
-45.6229

> <Gold.PLP.part.hbond>
-2.4055

> <Gold.PLP.part.metal>
0.0000

> <Gold.PLP.part.buried>
-4.8158

> <Gold.PLP.part.nonpolar>
-39.1882

> <Gold.PLP.part.repulsive>
0.0708

> <Gold.PLP.ligand.clash>
0.0000

> <Gold.PLP.ligand.torsion>
1.0923

> <Gold.PLP.Chemscore.Hbond>
1.3744

> <Gold.PLP.Chemscore.CHOScore>
1.1300

> <Gold.PLP.Chemscore.Metal>
0.0000

> <Gold.Chemscore.Hbonds>
donor molecule, donor type, donor heavy atom, donor atom, acceptor molecule, acceptor atom, score
      P1  H  7997  8009       L1    11  1.00
      P1  H 10752 10764       L1    17  0.59
      L1  C    16    35       P1  7948  0.75
      L1  C    16    35       P1  7949  0.35

> <Gold.PLP.Chemscore.Internal.Correction>
1.0360

> <Gold.Rescore>
     Score         DG    S(hbond)    S(metal)    S(lipo)     H(rot)  DE(clash)    DE(int)     intcor
     19.88     -21.60       1.86        0.00     118.10       1.53       0.45       1.27       ----

> <Gold.Chemscore.Fitness>
19.8846

> <Gold.Chemscore.DG>
-21.6017

> <Gold.Chemscore.ZeroCoef>
-5.4800

> <Gold.Chemscore.Hbond>
1.8636

> <Gold.Chemscore.Metal>
0.0000

> <Gold.Chemscore.Lipo>
118.1006

> <Gold.Chemscore.Internal_Hbond>
0.0000

> <Gold.Chemscore.DEClash>
0.4492

> <Gold.Chemscore.DEInternal>
1.2680

> <Gold.Chemscore.Rot>
1.5314

> <Gold.Chemscore.Internal.Correction>
   9.000000E+99

> <Gold.Chemscore.Hbonds>
donor molecule, donor type, donor heavy atom, donor atom, acceptor molecule, acceptor atom, score
      P1  H  7997  8009       L1    11  0.99
      P1  H 10752 10764       L1    17  0.55

> <Gold.Chemscore.Hbond.Weighted>
-6.2244

> <Gold.Chemscore.Metal.Weighted>
-0.0000

> <Gold.Chemscore.Lipo.Weighted>
-13.8178

> <Gold.Chemscore.Internal_Hbond.Weighted>
0.0000

> <Gold.Chemscore.DEClash.Weighted>
0.4492

> <Gold.Chemscore.DEInternal.Weighted>
1.2680

> <Gold.Chemscore.Rot.Weighted>
3.9205

> <Gold.Chemscore.Internal.Correction.Weighted>
   9.000000E+99

> <Gold.Protein.RotatedTorsions>
[ 6907 6896 6895 6894 ] final   76.18 input  -60.11 | X-H torsion
[ 7974 7965 7964 7962 ] final -178.68 input  175.53 | X-H torsion
[ 8008 7997 7996 7995 ] final  161.60 input   59.86 | X-H torsion
[ 10167 10162 10161 10158 ] final   26.22 input  -65.29 | X-H torsion
[ 10718 10713 10712 10709 ] final    2.67 input   66.30 | X-H torsion
[ 10763 10752 10751 10750 ] final  -68.94 input  -60.55 | X-H torsion
[ 11005 11000 10999 10996 ] final   -3.44 input  -57.11 | X-H torsion

> <Gold.Protein.ActiveResidues>
 VAL166  LYS551  ARG553  GLY616  TRP617  ASP618  TYR619  PRO620  LYS621  CYS622 
 ASP623  PHE694  ASN695  SER759  ASP760  ASP761  ALA762  ILE779  LEU786  VAL792 
 PHE793  MET794  SER795  GLU796  ALA797  LYS798  CYS799  TRP800  GLU811  SER814 

> <Gold.Protein.RotatedAtoms>
  152.5061  134.4008  159.9415 H   0  0  0  0  0  0  0  0  0  0  0  0  # atno 6907 bound_to 6896
  151.3972  133.3763  159.2735 H   0  0  0  0  0  0  0  0  0  0  0  0  # atno 6908 bound_to 6896
  150.9389  134.8820  159.7658 H   0  0  0  0  0  0  0  0  0  0  0  0  # atno 6909 bound_to 6896
  144.7132  140.0832  143.6424 H   0  0  0  0  0  0  0  0  0  0  0  0  # atno 7974 bound_to 7965
  156.2092  140.1773  156.7733 H   0  0  0  0  0  0  0  0  0  0  0  0  # atno 8008 bound_to 7997
  154.5698  140.0684  156.8976 H   0  0  0  0  0  0  0  0  0  0  0  0  # atno 8009 bound_to 7997
  155.2694  140.3341  155.4269 H   0  0  0  0  0  0  0  0  0  0  0  0  # atno 8010 bound_to 7997
  140.5041  144.0267  150.6345 H   0  0  0  0  0  0  0  0  0  0  0  0  # atno 10167 bound_to 10162
  156.8665  130.5605  149.5660 H   0  0  0  0  0  0  0  0  0  0  0  0  # atno 10718 bound_to 10713
  154.3962  135.6041  153.5871 H   0  0  0  0  0  0  0  0  0  0  0  0  # atno 10763 bound_to 10752
  152.9787  135.5895  154.4238 H   0  0  0  0  0  0  0  0  0  0  0  0  # atno 10764 bound_to 10752
  154.4030  135.2843  155.2063 H   0  0  0  0  0  0  0  0  0  0  0  0  # atno 10765 bound_to 10752
  140.6694  133.9250  155.8485 H   0  0  0  0  0  0  0  0  0  0  0  0  # atno 11005 bound_to 11000
  145.9684  139.2851  143.1113 LP  0  0  0  0  0  0  0  0  0  0  0  0  # atno 17320 bound_to 7965
  145.9144  140.9158  143.0437 LP  0  0  0  0  0  0  0  0  0  0  0  0  # atno 17321 bound_to 7965
  140.3571  143.2929  152.0424 LP  0  0  0  0  0  0  0  0  0  0  0  0  # atno 17342 bound_to 10162
  139.4879  144.6330  151.7031 LP  0  0  0  0  0  0  0  0  0  0  0  0  # atno 17343 bound_to 10162
  156.0749  130.5773  150.9454 LP  0  0  0  0  0  0  0  0  0  0  0  0  # atno 17370 bound_to 10713
  157.6220  131.0929  150.8604 LP  0  0  0  0  0  0  0  0  0  0  0  0  # atno 17371 bound_to 10713
  141.0404  134.0629  157.3909 LP  0  0  0  0  0  0  0  0  0  0  0  0  # atno 17394 bound_to 11000
  139.8986  135.0155  156.7159 LP  0  0  0  0  0  0  0  0  0  0  0  0  # atno 17395 bound_to 11000

$$$$
