AV-unprocessed.smi:102|AV-procd|sdf|962|dock1
  -GOLD-   2262017503D 1   1.00000     0.00000
 Structure written by MMmdl.
 43 44  0  0  0  0  0  0  0  0  2 V2000
  151.4643  143.3303  158.8768 C   0  0  0  0  0  0  0  0  0  0  0  0
  150.8901  142.6415  157.6459 C   0  0  0  0  0  0  0  0  0  0  0  0
  150.7160  143.2514  156.5905 O   0  0  0  0  0  0  0  0  0  0  0  0
  150.6219  141.3421  157.8639 O   0  0  0  0  0  0  0  0  0  0  0  0
  150.0272  140.5463  156.8472 C   0  0  0  0  0  0  0  0  0  0  0  0
  150.8835  140.5650  155.5614 C   0  0  1  0  0  0  0  0  0  0  0  0
  152.2203  140.1773  155.8766 O   0  0  0  0  0  0  0  0  0  0  0  0
  152.4461  138.8241  155.5841 C   0  0  1  0  0  0  0  0  0  0  0  0
  152.8737  138.0915  156.8413 N   0  0  0  0  0  0  0  0  0  0  0  0
  152.1290  138.1522  158.0080 C   0  0  0  0  0  0  0  0  0  0  0  0
  152.5163  137.4940  159.1194 C   0  0  0  0  0  0  0  0  0  0  0  0
  151.7716  137.5710  160.2358 F   0  0  0  0  0  0  0  0  0  0  0  0
  153.7453  136.7034  159.1011 C   0  0  0  0  0  0  0  0  0  0  0  0
  154.0892  136.0999  160.1160 O   0  0  0  0  0  0  0  0  0  0  0  0
  154.4659  136.6716  157.9429 N   0  5  0  0  0  0  0  0  0  0  0  0
  154.0786  137.3375  156.8159 C   0  0  0  0  0  0  0  0  0  0  0  0
  154.7203  137.3159  155.7654 O   0  0  0  0  0  0  0  0  0  0  0  0
  151.1498  138.2601  154.9625 C   0  0  1  0  0  0  0  0  0  0  0  0
  150.3738  137.5622  155.9379 O   0  0  0  0  0  0  0  0  0  0  0  0
  150.5446  136.2449  156.1412 C   0  0  0  0  0  0  0  0  0  0  0  0
  149.6511  135.7127  157.2530 C   0  0  0  0  0  0  0  0  0  0  0  0
  151.3132  135.5066  155.5254 O   0  0  0  0  0  0  0  0  0  0  0  0
  150.4698  139.5420  154.5021 C   0  0  1  0  0  0  0  0  0  0  0  0
  149.0596  139.4341  154.3363 O   0  0  0  0  0  0  0  0  0  0  0  0
  148.3533  140.4652  153.8419 C   0  0  0  0  0  0  0  0  0  0  0  0
  146.9628  140.0477  153.3831 C   0  0  0  0  0  0  0  0  0  0  0  0
  148.7425  141.6285  153.7391 O   0  0  0  0  0  0  0  0  0  0  0  0
  150.9150  143.0344  159.7708 H   0  0  0  0  0  0  0  0  0  0  0  0
  151.3993  144.4138  158.7749 H   0  0  0  0  0  0  0  0  0  0  0  0
  152.5114  143.0569  159.0064 H   0  0  0  0  0  0  0  0  0  0  0  0
  149.9174  139.5310  157.2253 H   0  0  0  0  0  0  0  0  0  0  0  0
  149.0175  140.9054  156.6439 H   0  0  0  0  0  0  0  0  0  0  0  0
  150.8778  141.5649  155.1270 H   0  0  0  0  0  0  0  0  0  0  0  0
  153.3021  138.7659  154.9098 H   0  0  0  0  0  0  0  0  0  0  0  0
  151.2204  138.7322  158.0498 H   0  0  0  0  0  0  0  0  0  0  0  0
  151.4116  137.6153  154.1223 H   0  0  0  0  0  0  0  0  0  0  0  0
  148.6416  136.1121  157.1546 H   0  0  0  0  0  0  0  0  0  0  0  0
  150.0471  136.0051  158.2255 H   0  0  0  0  0  0  0  0  0  0  0  0
  149.5975  134.6247  157.2128 H   0  0  0  0  0  0  0  0  0  0  0  0
  150.9299  139.8536  153.5626 H   0  0  0  0  0  0  0  0  0  0  0  0
  146.4712  139.4503  154.1510 H   0  0  0  0  0  0  0  0  0  0  0  0
  147.0302  139.4545  152.4709 H   0  0  0  0  0  0  0  0  0  0  0  0
  146.3471  140.9244  153.1808 H   0  0  0  0  0  0  0  0  0  0  0  0
  1  2  1  0  0  0  0
  1 28  1  0  0  0  0
  1 29  1  0  0  0  0
  1 30  1  0  0  0  0
  2  3  2  0  0  0  0
  2  4  1  0  0  0  0
  4  5  1  0  0  0  0
  5  6  1  0  0  0  0
  5 31  1  0  0  0  0
  5 32  1  0  0  0  0
  6 23  1  0  0  0  0
  6  7  1  0  0  0  0
  6 33  1  0  0  0  0
  7  8  1  0  0  0  0
  8  9  1  0  0  0  0
  8 18  1  0  0  0  0
  8 34  1  0  0  0  0
  9 16  1  0  0  0  0
  9 10  1  0  0  0  0
 10 11  2  0  0  0  0
 10 35  1  0  0  0  0
 11 12  1  0  0  0  0
 11 13  1  0  0  0  0
 13 14  2  0  0  0  0
 13 15  1  0  0  0  0
 15 16  1  0  0  0  0
 16 17  2  0  0  0  0
 18 19  1  0  0  0  0
 18 23  1  0  0  0  0
 18 36  1  0  0  0  0
 19 20  1  0  0  0  0
 20 21  1  0  0  0  0
 20 22  2  0  0  0  0
 21 37  1  0  0  0  0
 21 38  1  0  0  0  0
 21 39  1  0  0  0  0
 23 24  1  0  0  0  0
 23 40  1  0  0  0  0
 24 25  1  0  0  0  0
 25 26  1  0  0  0  0
 25 27  2  0  0  0  0
 26 41  1  0  0  0  0
 26 42  1  0  0  0  0
 26 43  1  0  0  0  0
M  CHG  1  15  -1
M  END
> <s_m_source_file>
AV-unprocessed.smi

> <i_m_source_file_index>
102

> <i_lp_mmshare_version>
43012

> <i_f3d_flags>
0

> <s_epik_input>
W0NIM11DKD1PKU9bQ0gyXVtDQEBIXTFPW0NASF0oW0NAQEhdKE9DKD1PKVtDSDNdKVtDQEhdMU9DKD1PKVtDSDNdKW4yW2NIXWMoRiljKD1PKVtuSF1jMj1P

> <s_epik_cmdline>
J2VwaWtfcHl0aG9uJywgJy1waCcsICc3LjAnLCAnLXRuJywgJzgnLCAnLW1hJywgJzIwMCcsICctbWV0YWxfYmluZGluZycsICctaW1hZScsICc8aW5maWxlLm1hZT4nLCAnLW9tYWUnLCAnPG91dGZpbGUubWFlPic=

> <r_epik_Ionization_Penalty>
1.40304

> <r_epik_Ionization_Penalty_Charging>
1.43915e-08

> <r_epik_Ionization_Penalty_Neutral>
1.40304

> <r_epik_State_Penalty>
1.48536

> <r_epik_Charging_Adjusted_Penalty>
1.48536

> <i_epik_Tot_Q>
-1

> <i_epik_Tot_abs_Q>
1

> <r_epik_Metal_State_Penalty>
0.00663881

> <b_epik_Metal_Only>
0

> <s_epik_Chemistry_Notes>
This compound has an ester and may undergo hydrolysis at high or low pH. This compound contains an acetal/aminal-like group ( X-CH(R)-Y where X, Y are N, S, or O) that may be acid/base labile, releasing an aldehyde.

> <s_lp_Force_Field>
OPLS_2005

> <r_lp_Energy>
25.6088

> <b_lp_Chiralities_Consistent>
1

> <s_lp_Variant>
AV-unprocessed.smi:102-18

> <Gold.Version>
5.8.1

> <Gold.Id.Protein>
6NUR|6NUR_protein|mol2

> <Gold.PLP.Fitness>
36.2468

> <Gold.PLP.PLP>
-28.7407

> <Gold.PLP.part.hbond>
-4.6947

> <Gold.PLP.part.metal>
0.0000

> <Gold.PLP.part.buried>
-0.3354

> <Gold.PLP.part.nonpolar>
-27.1603

> <Gold.PLP.part.repulsive>
2.5700

> <Gold.PLP.ligand.clash>
0.0000

> <Gold.PLP.ligand.torsion>
0.6654

> <Gold.PLP.Chemscore.Hbond>
2.8744

> <Gold.PLP.Chemscore.CHOScore>
0.0000

> <Gold.PLP.Chemscore.Metal>
0.0000

> <Gold.Chemscore.Hbonds>
donor molecule, donor type, donor heavy atom, donor atom, acceptor molecule, acceptor atom, score
      P1  H  6896  6907       L1    14  0.44
      P1  H  7997  8009       L1     7  0.10
      P1  H  8011  8017       L1    27  0.66
      P1  H 10752 10764       L1    22  1.00
      P1  H 10752 10765       L1    17  0.20

> <Gold.PLP.Chemscore.Internal.Correction>
0.2136

> <Gold.Rescore>
     Score         DG    S(hbond)    S(metal)    S(lipo)     H(rot)  DE(clash)    DE(int)     intcor
      3.70      -8.01       2.02        0.00      51.45       4.00       0.68       3.63       ----

> <Gold.Chemscore.Fitness>
3.6986

> <Gold.Chemscore.DG>
-8.0097

> <Gold.Chemscore.ZeroCoef>
-5.4800

> <Gold.Chemscore.Hbond>
2.0172

> <Gold.Chemscore.Metal>
0.0000

> <Gold.Chemscore.Lipo>
51.4513

> <Gold.Chemscore.Internal_Hbond>
0.0000

> <Gold.Chemscore.DEClash>
0.6777

> <Gold.Chemscore.DEInternal>
3.6334

> <Gold.Chemscore.Rot>
3.9951

> <Gold.Chemscore.Internal.Correction>
   9.000000E+99

> <Gold.Chemscore.Hbonds>
donor molecule, donor type, donor heavy atom, donor atom, acceptor molecule, acceptor atom, score
      P1  H  6896  6907       L1    14  0.05
      P1  H  8011  8017       L1    27  0.66
      P1  H 10752 10764       L1    22  0.99
      P1  H 10752 10765       L1    17  0.13

> <Gold.Chemscore.Hbond.Weighted>
-6.7373

> <Gold.Chemscore.Metal.Weighted>
-0.0000

> <Gold.Chemscore.Lipo.Weighted>
-6.0198

> <Gold.Chemscore.Internal_Hbond.Weighted>
0.0000

> <Gold.Chemscore.DEClash.Weighted>
0.6777

> <Gold.Chemscore.DEInternal.Weighted>
3.6334

> <Gold.Chemscore.Rot.Weighted>
10.2274

> <Gold.Chemscore.Internal.Correction.Weighted>
   9.000000E+99

> <Gold.Protein.RotatedTorsions>
[ 6907 6896 6895 6894 ] final   61.50 input  -60.11 | X-H torsion
[ 7974 7965 7964 7962 ] final   27.72 input  175.53 | X-H torsion
[ 8008 7997 7996 7995 ] final -163.55 input   59.86 | X-H torsion
[ 10167 10162 10161 10158 ] final  145.43 input  -65.29 | X-H torsion
[ 10718 10713 10712 10709 ] final   22.55 input   66.30 | X-H torsion
[ 10763 10752 10751 10750 ] final  -48.52 input  -60.55 | X-H torsion
[ 11005 11000 10999 10996 ] final  140.12 input  -57.11 | X-H torsion

> <Gold.Protein.ActiveResidues>
 VAL166  LYS551  ARG553  GLY616  TRP617  ASP618  TYR619  PRO620  LYS621  CYS622 
 ASP623  PHE694  ASN695  SER759  ASP760  ASP761  ALA762  ILE779  LEU786  VAL792 
 PHE793  MET794  SER795  GLU796  ALA797  LYS798  CYS799  TRP800  GLU811  SER814 

> <Gold.Protein.RotatedAtoms>
  152.4093  134.6151  160.0035 H   0  0  0  0  0  0  0  0  0  0  0  0  # atno 6907 bound_to 6896
  151.6333  133.3325  159.3122 H   0  0  0  0  0  0  0  0  0  0  0  0  # atno 6908 bound_to 6896
  150.7986  134.7104  159.6645 H   0  0  0  0  0  0  0  0  0  0  0  0  # atno 6909 bound_to 6896
  146.1769  139.7153  142.8928 H   0  0  0  0  0  0  0  0  0  0  0  0  # atno 7974 bound_to 7965
  155.8229  140.0922  157.1838 H   0  0  0  0  0  0  0  0  0  0  0  0  # atno 8008 bound_to 7997
  154.3979  140.1433  156.3582 H   0  0  0  0  0  0  0  0  0  0  0  0  # atno 8009 bound_to 7997
  155.8247  140.3445  155.5538 H   0  0  0  0  0  0  0  0  0  0  0  0  # atno 8010 bound_to 7997
  139.4926  144.5902  151.6695 H   0  0  0  0  0  0  0  0  0  0  0  0  # atno 10167 bound_to 10162
  157.1539  130.6687  149.6021 H   0  0  0  0  0  0  0  0  0  0  0  0  # atno 10718 bound_to 10713
  154.0791  135.6594  153.4835 H   0  0  0  0  0  0  0  0  0  0  0  0  # atno 10763 bound_to 10752
  153.0362  135.5175  154.7492 H   0  0  0  0  0  0  0  0  0  0  0  0  # atno 10764 bound_to 10752
  154.6581  135.3011  154.9870 H   0  0  0  0  0  0  0  0  0  0  0  0  # atno 10765 bound_to 10752
  140.0304  134.9354  157.0651 H   0  0  0  0  0  0  0  0  0  0  0  0  # atno 11005 bound_to 11000
  145.4188  141.0404  143.2976 LP  0  0  0  0  0  0  0  0  0  0  0  0  # atno 17320 bound_to 7965
  144.8250  139.5726  143.6969 LP  0  0  0  0  0  0  0  0  0  0  0  0  # atno 17321 bound_to 7965
  140.5528  144.0398  150.6134 LP  0  0  0  0  0  0  0  0  0  0  0  0  # atno 17342 bound_to 10162
  140.3457  143.2992  152.0540 LP  0  0  0  0  0  0  0  0  0  0  0  0  # atno 17343 bound_to 10162
  155.9765  130.4735  150.6535 LP  0  0  0  0  0  0  0  0  0  0  0  0  # atno 17370 bound_to 10713
  157.4195  131.0835  151.1144 LP  0  0  0  0  0  0  0  0  0  0  0  0  # atno 17371 bound_to 10713
  140.4235  134.1855  155.7165 LP  0  0  0  0  0  0  0  0  0  0  0  0  # atno 17394 bound_to 11000
  141.1827  133.8379  157.1199 LP  0  0  0  0  0  0  0  0  0  0  0  0  # atno 17395 bound_to 11000

$$$$
