AV-unprocessed.smi:970|AV-procd|sdf|4293|dock3
  -GOLD-   22720 2203D 1   1.00000     0.00000
 Structure written by MMmdl.
 31 31  0  0  0  0  0  0  0  0  1 V2000
  149.2763  141.5208  154.7836 C   0  0  0  0  0  0  0  0  0  0  0  0
  149.7031  140.7586  155.9467 N   0  0  0  0  0  0  0  0  0  0  0  0
  150.7422  139.9117  155.9532 C   0  0  0  0  0  0  0  0  0  0  0  0
  151.4488  139.7060  154.9646 O   0  0  0  0  0  0  0  0  0  0  0  0
  151.0344  139.2029  157.2863 C   0  0  2  0  0  0  0  0  0  0  0  0
  149.7790  138.4127  157.6909 C   0  0  0  0  0  0  0  0  0  0  0  0
  151.3057  140.1860  158.3329 N   0  0  0  0  0  0  0  0  0  0  0  0
  152.5126  140.4416  158.8642 C   0  0  0  0  0  0  0  0  0  0  0  0
  153.5286  139.8178  158.5550 O   0  0  0  0  0  0  0  0  0  0  0  0
  152.5720  141.5851  159.8880 C   0  0  1  0  0  0  0  0  0  0  0  0
  153.9632  141.7334  160.5378 C   0  0  0  0  0  0  0  0  0  0  0  0
  152.1102  142.8241  159.2733 N   0  0  0  0  0  0  0  0  0  0  0  0
  151.9706  144.0420  159.8017 C   0  0  0  0  0  0  0  0  0  0  0  0
  151.4651  144.9381  158.9660 N   0  0  0  0  0  0  0  0  0  0  0  0
  151.2883  144.1484  157.8656 C   0  0  0  0  0  0  0  0  0  0  0  0
  151.6487  142.8721  157.9986 N   0  0  0  0  0  0  0  0  0  0  0  0
  148.4011  142.1210  155.0328 H   0  0  0  0  0  0  0  0  0  0  0  0
  149.0109  140.8568  153.9599 H   0  0  0  0  0  0  0  0  0  0  0  0
  150.0672  142.1932  154.4487 H   0  0  0  0  0  0  0  0  0  0  0  0
  149.1728  140.8760  156.7979 H   0  0  0  0  0  0  0  0  0  0  0  0
  151.8802  138.5208  157.1791 H   0  0  0  0  0  0  0  0  0  0  0  0
  149.5270  137.6594  156.9435 H   0  0  0  0  0  0  0  0  0  0  0  0
  148.9110  139.0623  157.8144 H   0  0  0  0  0  0  0  0  0  0  0  0
  149.9361  137.8911  158.6354 H   0  0  0  0  0  0  0  0  0  0  0  0
  150.5246  140.7470  158.6400 H   0  0  0  0  0  0  0  0  0  0  0  0
  151.8686  141.3440  160.6869 H   0  0  0  0  0  0  0  0  0  0  0  0
  154.2624  140.8119  161.0384 H   0  0  0  0  0  0  0  0  0  0  0  0
  153.9585  142.5247  161.2879 H   0  0  0  0  0  0  0  0  0  0  0  0
  154.7351  141.9768  159.8067 H   0  0  0  0  0  0  0  0  0  0  0  0
  152.2383  144.2767  160.8216 H   0  0  0  0  0  0  0  0  0  0  0  0
  150.8758  144.5239  156.9408 H   0  0  0  0  0  0  0  0  0  0  0  0
  1  2  1  0  0  0  0
  1 17  1  0  0  0  0
  1 18  1  0  0  0  0
  1 19  1  0  0  0  0
  2  3  1  0  0  0  0
  2 20  1  0  0  0  0
  3  4  2  0  0  0  0
  3  5  1  0  0  0  0
  5  6  1  0  0  0  0
  5  7  1  0  0  0  0
  5 21  1  0  0  0  0
  6 22  1  0  0  0  0
  6 23  1  0  0  0  0
  6 24  1  0  0  0  0
  7  8  1  0  0  0  0
  7 25  1  0  0  0  0
  8  9  2  0  0  0  0
  8 10  1  0  0  0  0
 10 11  1  0  0  0  0
 10 12  1  0  0  0  0
 10 26  1  0  0  0  0
 11 27  1  0  0  0  0
 11 28  1  0  0  0  0
 11 29  1  0  0  0  0
 12 16  1  0  0  0  0
 12 13  1  0  0  0  0
 13 14  2  0  0  0  0
 13 30  1  0  0  0  0
 14 15  1  0  0  0  0
 15 16  2  0  0  0  0
 15 31  1  0  0  0  0
M  END
> <s_m_source_file>
AV-unprocessed.smi

> <i_m_source_file_index>
970

> <i_lp_mmshare_version>
43012

> <i_f3d_flags>
0

> <s_epik_input>
W0NIM11bTkhdQyg9TylbQ0BIXShbQ0gzXSlbTkhdQyg9TylbQ0BIXShbQ0gzXSluMVtjSF1uW2NIXW4x

> <s_epik_cmdline>
J2VwaWtfcHl0aG9uJywgJy1waCcsICc3LjAnLCAnLXRuJywgJzgnLCAnLW1hJywgJzIwMCcsICctbWV0YWxfYmluZGluZycsICctaW1hZScsICc8aW5maWxlLm1hZT4nLCAnLW9tYWUnLCAnPG91dGZpbGUubWFlPic=

> <r_lp_tautomer_probability>
1

> <r_epik_Ionization_Penalty>
1.07271e-05

> <r_epik_Ionization_Penalty_Charging>
0

> <r_epik_Ionization_Penalty_Neutral>
1.07271e-05

> <r_epik_State_Penalty>
-0

> <r_epik_Charging_Adjusted_Penalty>
0

> <i_epik_Tot_Q>
0

> <i_epik_Tot_abs_Q>
0

> <r_epik_Metal_State_Penalty>
-0

> <b_epik_Metal_Only>
0

> <s_lp_Force_Field>
OPLS_2005

> <r_lp_Energy>
8.21169

> <b_lp_Chiralities_Consistent>
1

> <s_lp_Variant>
AV-unprocessed.smi:970-3

> <Gold.Version>
5.8.1

> <Gold.Id.Protein>
6NUR|6NUR_protein|mol2

> <Gold.PLP.Fitness>
39.4675

> <Gold.PLP.PLP>
-30.8667

> <Gold.PLP.part.hbond>
-2.0000

> <Gold.PLP.part.metal>
0.0000

> <Gold.PLP.part.buried>
-3.2486

> <Gold.PLP.part.nonpolar>
-25.2075

> <Gold.PLP.part.repulsive>
0.3742

> <Gold.PLP.ligand.clash>
0.0000

> <Gold.PLP.ligand.torsion>
0.2580

> <Gold.PLP.Chemscore.Hbond>
2.0000

> <Gold.PLP.Chemscore.CHOScore>
1.0000

> <Gold.PLP.Chemscore.Metal>
0.0000

> <Gold.Chemscore.Hbonds>
donor molecule, donor type, donor heavy atom, donor atom, acceptor molecule, acceptor atom, score
      P1  H  7989  7998       L1     4  1.00
      P1  H  7997  8010       L1     9  1.00
      L1  C    15    31       P1  8028  1.00

> <Gold.PLP.Chemscore.Internal.Correction>
0.1169

> <Gold.Rescore>
     Score         DG    S(hbond)    S(metal)    S(lipo)     H(rot)  DE(clash)    DE(int)     intcor
      7.88      -9.46       1.99        0.00      33.85       2.59       0.00       1.58       ----

> <Gold.Chemscore.Fitness>
7.8796

> <Gold.Chemscore.DG>
-9.4588

> <Gold.Chemscore.ZeroCoef>
-5.4800

> <Gold.Chemscore.Hbond>
1.9871

> <Gold.Chemscore.Metal>
0.0000

> <Gold.Chemscore.Lipo>
33.8462

> <Gold.Chemscore.Internal_Hbond>
0.0000

> <Gold.Chemscore.DEClash>
0.0018

> <Gold.Chemscore.DEInternal>
1.5773

> <Gold.Chemscore.Rot>
2.5852

> <Gold.Chemscore.Internal.Correction>
   9.000000E+99

> <Gold.Chemscore.Hbonds>
donor molecule, donor type, donor heavy atom, donor atom, acceptor molecule, acceptor atom, score
      P1  H  7989  7998       L1     4  0.99
      P1  H  7997  8010       L1     9  0.98

> <Gold.Chemscore.Hbond.Weighted>
-6.6369

> <Gold.Chemscore.Metal.Weighted>
-0.0000

> <Gold.Chemscore.Lipo.Weighted>
-3.9600

> <Gold.Chemscore.Internal_Hbond.Weighted>
0.0000

> <Gold.Chemscore.DEClash.Weighted>
0.0018

> <Gold.Chemscore.DEInternal.Weighted>
1.5773

> <Gold.Chemscore.Rot.Weighted>
6.6182

> <Gold.Chemscore.Internal.Correction.Weighted>
   9.000000E+99

> <Gold.Protein.RotatedTorsions>
[ 6907 6896 6895 6894 ] final -133.85 input  -60.11 | X-H torsion
[ 7974 7965 7964 7962 ] final -176.00 input  175.53 | X-H torsion
[ 8008 7997 7996 7995 ] final   16.68 input   59.86 | X-H torsion
[ 10167 10162 10161 10158 ] final  -70.92 input  -65.29 | X-H torsion
[ 10718 10713 10712 10709 ] final   49.91 input   66.30 | X-H torsion
[ 10763 10752 10751 10750 ] final   16.57 input  -60.55 | X-H torsion
[ 11005 11000 10999 10996 ] final -134.72 input  -57.11 | X-H torsion

> <Gold.Protein.ActiveResidues>
 VAL166  LYS551  ARG553  GLY616  TRP617  ASP618  TYR619  PRO620  LYS621  CYS622 
 ASP623  PHE694  ASN695  SER759  ASP760  ASP761  ALA762  ILE779  LEU786  VAL792 
 PHE793  MET794  SER795  GLU796  ALA797  LYS798  CYS799  TRP800  GLU811  SER814 

> <Gold.Protein.RotatedAtoms>
  150.9789  133.6266  159.2725 H   0  0  0  0  0  0  0  0  0  0  0  0  # atno 6907 bound_to 6896
  151.3528  135.0887  159.9418 H   0  0  0  0  0  0  0  0  0  0  0  0  # atno 6908 bound_to 6896
  152.5209  133.9378  159.7666 H   0  0  0  0  0  0  0  0  0  0  0  0  # atno 6909 bound_to 6896
  144.7127  140.1237  143.6403 H   0  0  0  0  0  0  0  0  0  0  0  0  # atno 7974 bound_to 7965
  154.8804  140.2972  155.5428 H   0  0  0  0  0  0  0  0  0  0  0  0  # atno 8008 bound_to 7997
  156.3022  140.2443  156.3739 H   0  0  0  0  0  0  0  0  0  0  0  0  # atno 8009 bound_to 7997
  154.8723  140.0401  157.1721 H   0  0  0  0  0  0  0  0  0  0  0  0  # atno 8010 bound_to 7997
  140.5314  143.2321  151.7255 H   0  0  0  0  0  0  0  0  0  0  0  0  # atno 10167 bound_to 10162
  157.4833  130.8329  149.8118 H   0  0  0  0  0  0  0  0  0  0  0  0  # atno 10718 bound_to 10713
  153.1419  135.6761  153.9015 H   0  0  0  0  0  0  0  0  0  0  0  0  # atno 10763 bound_to 10752
  153.8469  135.3098  155.3431 H   0  0  0  0  0  0  0  0  0  0  0  0  # atno 10764 bound_to 10752
  154.7794  135.4897  153.9896 H   0  0  0  0  0  0  0  0  0  0  0  0  # atno 10765 bound_to 10752
  140.8964  134.1746  157.4491 H   0  0  0  0  0  0  0  0  0  0  0  0  # atno 11005 bound_to 11000
  145.9348  139.2630  143.1303 LP  0  0  0  0  0  0  0  0  0  0  0  0  # atno 17320 bound_to 7965
  145.9485  140.8927  143.0271 LP  0  0  0  0  0  0  0  0  0  0  0  0  # atno 17321 bound_to 7965
  139.4955  144.4108  152.0082 LP  0  0  0  0  0  0  0  0  0  0  0  0  # atno 17342 bound_to 10162
  140.3211  144.3427  150.6009 LP  0  0  0  0  0  0  0  0  0  0  0  0  # atno 17343 bound_to 10162
  156.0133  130.3824  150.2192 LP  0  0  0  0  0  0  0  0  0  0  0  0  # atno 17370 bound_to 10713
  157.0379  131.0026  151.3292 LP  0  0  0  0  0  0  0  0  0  0  0  0  # atno 17371 bound_to 10713
  139.8736  134.9880  156.5393 LP  0  0  0  0  0  0  0  0  0  0  0  0  # atno 17394 bound_to 11000
  140.8284  133.8299  155.8960 LP  0  0  0  0  0  0  0  0  0  0  0  0  # atno 17395 bound_to 11000

$$$$
