AV-unprocessed.smi:2365|AV-procd|sdf|9421|dock3
  -GOLD-   2272013 53D 1   1.00000     0.00000
 Structure written by MMmdl.
 29 30  0  0  0  0  0  0  0  0  1 V2000
  148.5186  140.7864  154.4237 C   0  0  0  0  0  0  0  0  0  0  0  0
  149.7150  139.8294  154.4132 C   0  0  2  0  0  0  0  0  0  0  0  0
  149.5277  138.5867  155.2760 C   0  0  0  0  0  0  0  0  0  0  0  0
  150.9597  138.1332  155.4770 C   0  0  0  0  0  0  0  0  0  0  0  0
  151.7623  139.4469  155.4466 C   0  0  2  0  0  0  0  0  0  0  0  0
  152.2999  139.8817  156.8153 C   0  0  0  0  0  0  0  0  0  0  0  0
  153.1305  139.1841  157.3976 O   0  0  0  0  0  0  0  0  0  0  0  0
  151.8097  141.0406  157.2911 N   0  0  0  0  0  0  0  0  0  0  0  0
  152.1161  141.6948  158.5170 C   0  0  0  0  0  0  0  0  0  0  0  0
  152.6147  141.0174  159.6574 C   0  0  0  0  0  0  0  0  0  0  0  0
  152.8872  141.6304  160.8288 N   0  0  0  0  0  0  0  0  0  0  0  0
  152.6650  142.9578  160.9158 C   0  0  0  0  0  0  0  0  0  0  0  0
  152.1563  143.7289  159.8527 C   0  0  0  0  0  0  0  0  0  0  0  0
  151.8942  145.4238  160.0637 Cl  0  0  0  0  0  0  0  0  0  0  0  0
  151.8708  143.0833  158.6299 C   0  0  0  0  0  0  0  0  0  0  0  0
  151.2373  143.9816  157.2920 Cl  0  0  0  0  0  0  0  0  0  0  0  0
  150.8552  140.4490  154.9897 O   0  0  0  0  0  0  0  0  0  0  0  0
  147.6307  140.3078  154.0099 H   0  0  0  0  0  0  0  0  0  0  0  0
  148.7273  141.6750  153.8276 H   0  0  0  0  0  0  0  0  0  0  0  0
  148.2830  141.1131  155.4369 H   0  0  0  0  0  0  0  0  0  0  0  0
  149.9565  139.5378  153.3894 H   0  0  0  0  0  0  0  0  0  0  0  0
  149.0831  138.8518  156.2364 H   0  0  0  0  0  0  0  0  0  0  0  0
  148.9015  137.8286  154.8050 H   0  0  0  0  0  0  0  0  0  0  0  0
  151.0826  137.5544  156.3936 H   0  0  0  0  0  0  0  0  0  0  0  0
  151.2681  137.4961  154.6472 H   0  0  0  0  0  0  0  0  0  0  0  0
  152.5822  139.3572  154.7319 H   0  0  0  0  0  0  0  0  0  0  0  0
  151.2004  141.5503  156.6674 H   0  0  0  0  0  0  0  0  0  0  0  0
  152.7850  139.9518  159.6578 H   0  0  0  0  0  0  0  0  0  0  0  0
  152.8944  143.4182  161.8656 H   0  0  0  0  0  0  0  0  0  0  0  0
  1  2  1  0  0  0  0
  1 18  1  0  0  0  0
  1 19  1  0  0  0  0
  1 20  1  0  0  0  0
  2 17  1  0  0  0  0
  2  3  1  0  0  0  0
  2 21  1  0  0  0  0
  3  4  1  0  0  0  0
  3 22  1  0  0  0  0
  3 23  1  0  0  0  0
  4  5  1  0  0  0  0
  4 24  1  0  0  0  0
  4 25  1  0  0  0  0
  5  6  1  0  0  0  0
  5 17  1  0  0  0  0
  5 26  1  0  0  0  0
  6  7  2  0  0  0  0
  6  8  1  0  0  0  0
  8  9  1  0  0  0  0
  8 27  1  0  0  0  0
  9 15  1  0  0  0  0
  9 10  2  0  0  0  0
 10 11  1  0  0  0  0
 10 28  1  0  0  0  0
 11 12  2  0  0  0  0
 12 13  1  0  0  0  0
 12 29  1  0  0  0  0
 13 14  1  0  0  0  0
 13 15  2  0  0  0  0
 15 16  1  0  0  0  0
M  END
> <s_m_source_file>
AV-unprocessed.smi

> <i_m_source_file_index>
2365

> <i_lp_mmshare_version>
43012

> <i_f3d_flags>
0

> <s_epik_input>
W0NIM11bQ0BASF0xW0NIMl1bQ0gyXVtDQEhdKE8xKUMoPU8pW05IXWMyW2NIXW5bY0hdYyhDbCljMkNs

> <s_epik_cmdline>
J2VwaWtfcHl0aG9uJywgJy1waCcsICc3LjAnLCAnLXRuJywgJzgnLCAnLW1hJywgJzIwMCcsICctbWV0YWxfYmluZGluZycsICctaW1hZScsICc8aW5maWxlLm1hZT4nLCAnLW9tYWUnLCAnPG91dGZpbGUubWFlPic=

> <r_lp_tautomer_probability>
1

> <r_epik_Ionization_Penalty>
7.32461e-06

> <r_epik_Ionization_Penalty_Charging>
0

> <r_epik_Ionization_Penalty_Neutral>
7.32461e-06

> <r_epik_State_Penalty>
-0

> <r_epik_Charging_Adjusted_Penalty>
0

> <i_epik_Tot_Q>
0

> <i_epik_Tot_abs_Q>
0

> <r_epik_Metal_State_Penalty>
-0

> <b_epik_Metal_Only>
0

> <s_lp_Force_Field>
OPLS_2005

> <r_lp_Energy>
23.8837

> <b_lp_Chiralities_Consistent>
1

> <s_lp_Variant>
AV-unprocessed.smi:2365-3

> <Gold.Version>
5.8.1

> <Gold.Id.Protein>
6NUR|6NUR_protein|mol2

> <Gold.PLP.Fitness>
40.7302

> <Gold.PLP.PLP>
-35.2883

> <Gold.PLP.part.hbond>
-2.0000

> <Gold.PLP.part.metal>
0.0000

> <Gold.PLP.part.buried>
-0.5004

> <Gold.PLP.part.nonpolar>
-32.8057

> <Gold.PLP.part.repulsive>
0.1694

> <Gold.PLP.ligand.clash>
0.0000

> <Gold.PLP.ligand.torsion>
0.1329

> <Gold.PLP.Chemscore.Hbond>
1.9000

> <Gold.PLP.Chemscore.CHOScore>
0.0000

> <Gold.PLP.Chemscore.Metal>
0.0000

> <Gold.Chemscore.Hbonds>
donor molecule, donor type, donor heavy atom, donor atom, acceptor molecule, acceptor atom, score
      P1  H  7989  7998       L1    17  0.85
      P1  H  7997  8010       L1     7  1.00

> <Gold.PLP.Chemscore.Internal.Correction>
0.0078

> <Gold.Rescore>
     Score         DG    S(hbond)    S(metal)    S(lipo)     H(rot)  DE(clash)    DE(int)     intcor
     16.23     -17.97       0.82        0.00     105.11       1.00       0.43       1.32       ----

> <Gold.Chemscore.Fitness>
16.2262

> <Gold.Chemscore.DG>
-17.9691

> <Gold.Chemscore.ZeroCoef>
-5.4800

> <Gold.Chemscore.Hbond>
0.8239

> <Gold.Chemscore.Metal>
0.0000

> <Gold.Chemscore.Lipo>
105.1057

> <Gold.Chemscore.Internal_Hbond>
0.0000

> <Gold.Chemscore.DEClash>
0.4275

> <Gold.Chemscore.DEInternal>
1.3154

> <Gold.Chemscore.Rot>
1.0000

> <Gold.Chemscore.Internal.Correction>
   9.000000E+99

> <Gold.Chemscore.Hbonds>
donor molecule, donor type, donor heavy atom, donor atom, acceptor molecule, acceptor atom, score
      P1  H  7989  7998       L1    17  0.04
      P1  H  7997  8010       L1     7  0.37

> <Gold.Chemscore.Hbond.Weighted>
-2.7517

> <Gold.Chemscore.Metal.Weighted>
-0.0000

> <Gold.Chemscore.Lipo.Weighted>
-12.2974

> <Gold.Chemscore.Internal_Hbond.Weighted>
0.0000

> <Gold.Chemscore.DEClash.Weighted>
0.4275

> <Gold.Chemscore.DEInternal.Weighted>
1.3154

> <Gold.Chemscore.Rot.Weighted>
2.5600

> <Gold.Chemscore.Internal.Correction.Weighted>
   9.000000E+99

> <Gold.Protein.RotatedTorsions>
[ 6907 6896 6895 6894 ] final  -81.93 input  -60.11 | X-H torsion
[ 7974 7965 7964 7962 ] final  117.17 input  175.53 | X-H torsion
[ 8008 7997 7996 7995 ] final   28.64 input   59.86 | X-H torsion
[ 10167 10162 10161 10158 ] final  102.90 input  -65.29 | X-H torsion
[ 10718 10713 10712 10709 ] final   12.20 input   66.30 | X-H torsion
[ 10763 10752 10751 10750 ] final -122.37 input  -60.55 | X-H torsion
[ 11005 11000 10999 10996 ] final   43.21 input  -57.11 | X-H torsion

> <Gold.Protein.ActiveResidues>
 VAL166  LYS551  ARG553  GLY616  TRP617  ASP618  TYR619  PRO620  LYS621  CYS622 
 ASP623  PHE694  ASN695  SER759  ASP760  ASP761  ALA762  ILE779  LEU786  VAL792 
 PHE793  MET794  SER795  GLU796  ALA797  LYS798  CYS799  TRP800  GLU811  SER814 

> <Gold.Protein.RotatedAtoms>
  150.6904  134.3742  159.5005 H   0  0  0  0  0  0  0  0  0  0  0  0  # atno 6907 bound_to 6896
  152.1553  134.8953  160.0554 H   0  0  0  0  0  0  0  0  0  0  0  0  # atno 6908 bound_to 6896
  152.0035  133.3799  159.4228 H   0  0  0  0  0  0  0  0  0  0  0  0  # atno 6909 bound_to 6896
  145.1707  139.3103  143.4469 H   0  0  0  0  0  0  0  0  0  0  0  0  # atno 7974 bound_to 7965
  155.0619  140.3191  155.4658 H   0  0  0  0  0  0  0  0  0  0  0  0  # atno 8008 bound_to 7997
  156.2811  140.2127  156.5691 H   0  0  0  0  0  0  0  0  0  0  0  0  # atno 8009 bound_to 7997
  154.7125  140.0497  157.0551 H   0  0  0  0  0  0  0  0  0  0  0  0  # atno 8010 bound_to 7997
  139.7310  144.7036  151.0723 H   0  0  0  0  0  0  0  0  0  0  0  0  # atno 10167 bound_to 10162
  157.0067  130.6101  149.5703 H   0  0  0  0  0  0  0  0  0  0  0  0  # atno 10718 bound_to 10713
  154.8688  135.4135  154.2770 H   0  0  0  0  0  0  0  0  0  0  0  0  # atno 10763 bound_to 10752
  153.3670  135.7006  153.6673 H   0  0  0  0  0  0  0  0  0  0  0  0  # atno 10764 bound_to 10752
  153.5550  135.3621  155.2748 H   0  0  0  0  0  0  0  0  0  0  0  0  # atno 10765 bound_to 10752
  140.1666  134.4275  155.8283 H   0  0  0  0  0  0  0  0  0  0  0  0  # atno 11005 bound_to 11000
  146.3469  140.1851  142.8589 LP  0  0  0  0  0  0  0  0  0  0  0  0  # atno 17320 bound_to 7965
  145.0236  140.8814  143.5152 LP  0  0  0  0  0  0  0  0  0  0  0  0  # atno 17321 bound_to 7965
  140.7771  143.5044  150.9731 LP  0  0  0  0  0  0  0  0  0  0  0  0  # atno 17342 bound_to 10162
  139.8732  143.7166  152.3164 LP  0  0  0  0  0  0  0  0  0  0  0  0  # atno 17343 bound_to 10162
  156.0151  130.5245  150.8110 LP  0  0  0  0  0  0  0  0  0  0  0  0  # atno 17370 bound_to 10713
  157.5351  131.0938  150.9903 LP  0  0  0  0  0  0  0  0  0  0  0  0  # atno 17371 bound_to 10713
  141.2214  133.6937  156.7689 LP  0  0  0  0  0  0  0  0  0  0  0  0  # atno 17394 bound_to 11000
  140.2427  134.8601  157.3589 LP  0  0  0  0  0  0  0  0  0  0  0  0  # atno 17395 bound_to 11000

$$$$
