AV-unprocessed.smi:33|AV-procd|sdf|213|dock2
  -GOLD-   2262015513D 1   1.00000     0.00000
 Structure written by MMmdl.
 67 72  0  0  0  0  0  0  0  0  1 V2000
  150.2743  141.6965  156.8348 O   0  0  0  0  0  0  0  0  0  0  0  0
  151.2040  141.7825  157.6399 C   0  0  0  0  0  0  0  0  0  0  0  0
  152.1800  140.8604  157.7572 O   0  0  0  0  0  0  0  0  0  0  0  0
  151.9742  139.5363  157.2911 C   0  0  0  0  0  0  0  0  0  0  0  0
  151.9677  139.5390  155.7557 C   0  0  2  0  0  0  0  0  0  0  0  0
  150.6206  139.6889  155.3002 O   0  0  0  0  0  0  0  0  0  0  0  0
  150.1877  138.5427  154.6332 C   0  0  2  0  0  0  0  0  0  0  0  0
  148.7857  138.2080  155.0421 N   0  0  0  0  0  0  0  0  0  0  0  0
  147.7102  137.9924  154.2093 C   0  0  0  0  0  0  0  0  0  0  0  0
  146.5869  137.6983  154.8058 N   0  0  0  0  0  0  0  0  0  0  0  0
  146.9116  137.7135  156.1557 C   0  0  0  0  0  0  0  0  0  0  0  0
  146.1775  137.4795  157.3500 C   0  0  0  0  0  0  0  0  0  0  0  0
  144.8642  137.1498  157.3526 N   0  0  0  0  0  0  0  0  0  0  0  0
  144.4849  135.9144  156.6514 C   0  0  0  0  0  0  0  0  0  0  0  0
  145.3177  135.0175  156.5055 O   0  0  0  0  0  0  0  0  0  0  0  0
  143.0809  135.7217  156.1521 C   0  0  0  0  0  0  0  0  0  0  0  0
  142.5960  134.4218  155.8888 C   0  0  0  0  0  0  0  0  0  0  0  0
  141.2858  134.2369  155.4063 C   0  0  0  0  0  0  0  0  0  0  0  0
  140.4595  135.3509  155.1651 C   0  0  0  0  0  0  0  0  0  0  0  0
  140.9465  136.6510  155.3979 C   0  0  0  0  0  0  0  0  0  0  0  0
  142.2557  136.8367  155.8823 C   0  0  0  0  0  0  0  0  0  0  0  0
  143.9421  138.0528  158.0572 C   0  0  0  0  0  0  0  0  0  0  0  0
  142.8747  137.6139  158.4897 O   0  0  0  0  0  0  0  0  0  0  0  0
  144.3173  139.4867  158.3050 C   0  0  0  0  0  0  0  0  0  0  0  0
  143.9737  140.1053  159.5270 C   0  0  0  0  0  0  0  0  0  0  0  0
  144.3100  141.4530  159.7604 C   0  0  0  0  0  0  0  0  0  0  0  0
  144.9762  142.1954  158.7670 C   0  0  0  0  0  0  0  0  0  0  0  0
  145.2972  141.5928  157.5360 C   0  0  0  0  0  0  0  0  0  0  0  0
  144.9605  140.2458  157.3014 C   0  0  0  0  0  0  0  0  0  0  0  0
  146.8334  137.5882  158.5343 N   0  0  0  0  0  0  0  0  0  0  0  0
  148.1314  137.9036  158.5462 C   0  0  0  0  0  0  0  0  0  0  0  0
  148.9402  138.1431  157.5121 N   0  0  0  0  0  0  0  0  0  0  0  0
  148.2865  138.0383  156.3194 C   0  0  0  0  0  0  0  0  0  0  0  0
  151.1847  137.4194  154.9415 C   0  0  2  0  0  0  0  0  0  0  0  0
  150.8472  136.6349  156.0716 O   0  0  0  0  0  0  0  0  0  0  0  0
  152.4587  138.2101  155.1686 C   0  0  1  0  0  0  0  0  0  0  0  0
  153.0502  138.4359  153.9939 F   0  0  0  0  0  0  0  0  0  0  0  0
  151.3698  142.9249  158.5839 C   0  0  0  0  0  0  0  0  0  0  0  0
  152.2598  142.7980  159.6761 C   0  0  0  0  0  0  0  0  0  0  0  0
  152.4387  143.8607  160.5830 C   0  0  0  0  0  0  0  0  0  0  0  0
  151.7295  145.0635  160.4088 C   0  0  0  0  0  0  0  0  0  0  0  0
  150.8397  145.2016  159.3277 C   0  0  0  0  0  0  0  0  0  0  0  0
  150.6588  144.1397  158.4203 C   0  0  0  0  0  0  0  0  0  0  0  0
  152.7838  138.9079  157.6632 H   0  0  0  0  0  0  0  0  0  0  0  0
  151.0419  139.1202  157.6731 H   0  0  0  0  0  0  0  0  0  0  0  0
  152.5793  140.3659  155.3927 H   0  0  0  0  0  0  0  0  0  0  0  0
  150.1235  138.7617  153.5664 H   0  0  0  0  0  0  0  0  0  0  0  0
  147.7878  138.0550  153.1334 H   0  0  0  0  0  0  0  0  0  0  0  0
  143.2215  133.5595  156.0697 H   0  0  0  0  0  0  0  0  0  0  0  0
  140.9153  133.2398  155.2199 H   0  0  0  0  0  0  0  0  0  0  0  0
  139.4549  135.2085  154.7950 H   0  0  0  0  0  0  0  0  0  0  0  0
  140.3168  137.5068  155.2037 H   0  0  0  0  0  0  0  0  0  0  0  0
  142.6204  137.8395  156.0531 H   0  0  0  0  0  0  0  0  0  0  0  0
  143.4632  139.5447  160.2968 H   0  0  0  0  0  0  0  0  0  0  0  0
  144.0559  141.9169  160.7019 H   0  0  0  0  0  0  0  0  0  0  0  0
  145.2342  143.2286  158.9464 H   0  0  0  0  0  0  0  0  0  0  0  0
  145.8008  142.1645  156.7706 H   0  0  0  0  0  0  0  0  0  0  0  0
  145.2067  139.7962  156.3502 H   0  0  0  0  0  0  0  0  0  0  0  0
  148.5890  137.9723  159.5222 H   0  0  0  0  0  0  0  0  0  0  0  0
  151.2604  136.7532  154.0814 H   0  0  0  0  0  0  0  0  0  0  0  0
  150.6887  137.2142  156.8015 H   0  0  0  0  0  0  0  0  0  0  0  0
  153.1898  137.6958  155.7939 H   0  0  0  0  0  0  0  0  0  0  0  0
  152.8145  141.8837  159.8304 H   0  0  0  0  0  0  0  0  0  0  0  0
  153.1210  143.7520  161.4129 H   0  0  0  0  0  0  0  0  0  0  0  0
  151.8672  145.8785  161.1040 H   0  0  0  0  0  0  0  0  0  0  0  0
  150.2940  146.1240  159.1933 H   0  0  0  0  0  0  0  0  0  0  0  0
  149.9673  144.2785  157.6020 H   0  0  0  0  0  0  0  0  0  0  0  0
  1  2  2  0  0  0  0
  2  3  1  0  0  0  0
  2 38  1  0  0  0  0
  3  4  1  0  0  0  0
  4  5  1  0  0  0  0
  4 44  1  0  0  0  0
  4 45  1  0  0  0  0
  5 36  1  0  0  0  0
  5  6  1  0  0  0  0
  5 46  1  0  0  0  0
  6  7  1  0  0  0  0
  7  8  1  0  0  0  0
  7 34  1  0  0  0  0
  7 47  1  0  0  0  0
  8 33  1  0  0  0  0
  8  9  1  0  0  0  0
  9 10  2  0  0  0  0
  9 48  1  0  0  0  0
 10 11  1  0  0  0  0
 11 33  2  0  0  0  0
 11 12  1  0  0  0  0
 12 13  1  0  0  0  0
 12 30  2  0  0  0  0
 13 14  1  0  0  0  0
 13 22  1  0  0  0  0
 14 15  2  0  0  0  0
 14 16  1  0  0  0  0
 16 21  1  0  0  0  0
 16 17  2  0  0  0  0
 17 18  1  0  0  0  0
 17 49  1  0  0  0  0
 18 19  2  0  0  0  0
 18 50  1  0  0  0  0
 19 20  1  0  0  0  0
 19 51  1  0  0  0  0
 20 21  2  0  0  0  0
 20 52  1  0  0  0  0
 21 53  1  0  0  0  0
 22 23  2  0  0  0  0
 22 24  1  0  0  0  0
 24 29  1  0  0  0  0
 24 25  2  0  0  0  0
 25 26  1  0  0  0  0
 25 54  1  0  0  0  0
 26 27  2  0  0  0  0
 26 55  1  0  0  0  0
 27 28  1  0  0  0  0
 27 56  1  0  0  0  0
 28 29  2  0  0  0  0
 28 57  1  0  0  0  0
 29 58  1  0  0  0  0
 30 31  1  0  0  0  0
 31 32  2  0  0  0  0
 31 59  1  0  0  0  0
 32 33  1  0  0  0  0
 34 35  1  0  0  0  0
 34 36  1  0  0  0  0
 34 60  1  0  0  0  0
 35 61  1  0  0  0  0
 36 37  1  0  0  0  0
 36 62  1  0  0  0  0
 38 43  1  0  0  0  0
 38 39  2  0  0  0  0
 39 40  1  0  0  0  0
 39 63  1  0  0  0  0
 40 41  2  0  0  0  0
 40 64  1  0  0  0  0
 41 42  1  0  0  0  0
 41 65  1  0  0  0  0
 42 43  2  0  0  0  0
 42 66  1  0  0  0  0
 43 67  1  0  0  0  0
M  END
> <s_m_source_file>
AV-unprocessed.smi

> <i_m_source_file_index>
33

> <i_lp_mmshare_version>
43012

> <i_f3d_flags>
0

> <s_epik_input>
W2NIXTFbY0hdW2NIXVtjSF1bY0hdYzFDKD1PKU9bQ0gyXVtDQEBIXTJPW0NASF0oW0NAQEhdKFtPSF0pW0NAQEhdMkYpbihbY0hdbjMpYyhjMzQpbltjSF1uYzROKEMoPU8pYzVbY0hdW2NIXVtjSF1bY0hdW2NIXTUpQyg9TyljNltjSF1bY0hdW2NIXVtjSF1bY0hdNg==

> <s_epik_cmdline>
J2VwaWtfcHl0aG9uJywgJy1waCcsICc3LjAnLCAnLXRuJywgJzgnLCAnLW1hJywgJzIwMCcsICctbWV0YWxfYmluZGluZycsICctaW1hZScsICc8aW5maWxlLm1hZT4nLCAnLW9tYWUnLCAnPG91dGZpbGUubWFlPic=

> <r_lp_tautomer_probability>
1

> <r_epik_Ionization_Penalty>
0.00067664

> <r_epik_Ionization_Penalty_Charging>
0

> <r_epik_Ionization_Penalty_Neutral>
0.00067664

> <r_epik_State_Penalty>
0.000428095

> <r_epik_Charging_Adjusted_Penalty>
0.000428095

> <i_epik_Tot_Q>
0

> <i_epik_Tot_abs_Q>
0

> <r_epik_Metal_State_Penalty>
-0

> <b_epik_Metal_Only>
0

> <s_epik_Chemistry_Notes>
This compound has an ester and may undergo hydrolysis at high or low pH. This compound contains an acetal/aminal-like group ( X-CH(R)-Y where X, Y are N, S, or O) that may be acid/base labile, releasing an aldehyde.

> <s_lp_Force_Field>
OPLS_2005

> <r_lp_Energy>
74.9187

> <b_lp_Chiralities_Consistent>
1

> <s_lp_Variant>
AV-unprocessed.smi:33-15

> <Gold.Version>
5.8.1

> <Gold.Id.Protein>
6NUR|6NUR_protein|mol2

> <Gold.PLP.Fitness>
54.6385

> <Gold.PLP.PLP>
-52.3881

> <Gold.PLP.part.hbond>
-1.0000

> <Gold.PLP.part.metal>
0.0000

> <Gold.PLP.part.buried>
-7.2079

> <Gold.PLP.part.nonpolar>
-45.0653

> <Gold.PLP.part.repulsive>
0.3073

> <Gold.PLP.ligand.clash>
2.2874

> <Gold.PLP.ligand.torsion>
3.3250

> <Gold.PLP.Chemscore.Hbond>
0.6500

> <Gold.PLP.Chemscore.CHOScore>
1.2890

> <Gold.PLP.Chemscore.Metal>
0.0000

> <Gold.Chemscore.Hbonds>
donor molecule, donor type, donor heavy atom, donor atom, acceptor molecule, acceptor atom, score
      P1  H  7989  7998       L1     6  0.03
      L1  C     9    48       P1  7948  0.81

> <Gold.PLP.Chemscore.Internal.Correction>
5.3710

> <Gold.Rescore>
     Score         DG    S(hbond)    S(metal)    S(lipo)     H(rot)  DE(clash)    DE(int)     intcor
      4.22     -14.20       0.02        0.00     129.27       2.52       0.52       9.46       ----

> <Gold.Chemscore.Fitness>
4.2184

> <Gold.Chemscore.DG>
-14.2008

> <Gold.Chemscore.ZeroCoef>
-5.4800

> <Gold.Chemscore.Hbond>
0.0178

> <Gold.Chemscore.Metal>
0.0000

> <Gold.Chemscore.Lipo>
129.2686

> <Gold.Chemscore.Internal_Hbond>
0.0000

> <Gold.Chemscore.DEClash>
0.5240

> <Gold.Chemscore.DEInternal>
9.4584

> <Gold.Chemscore.Rot>
2.5247

> <Gold.Chemscore.Internal.Correction>
   9.000000E+99

> <Gold.Chemscore.Hbond.Weighted>
-0.0596

> <Gold.Chemscore.Metal.Weighted>
-0.0000

> <Gold.Chemscore.Lipo.Weighted>
-15.1244

> <Gold.Chemscore.Internal_Hbond.Weighted>
0.0000

> <Gold.Chemscore.DEClash.Weighted>
0.5240

> <Gold.Chemscore.DEInternal.Weighted>
9.4584

> <Gold.Chemscore.Rot.Weighted>
6.4633

> <Gold.Chemscore.Internal.Correction.Weighted>
   9.000000E+99

> <Gold.Protein.RotatedTorsions>
[ 6907 6896 6895 6894 ] final   84.39 input  -60.11 | X-H torsion
[ 7974 7965 7964 7962 ] final  -14.12 input  175.53 | X-H torsion
[ 8008 7997 7996 7995 ] final  122.51 input   59.86 | X-H torsion
[ 10167 10162 10161 10158 ] final  -15.64 input  -65.29 | X-H torsion
[ 10718 10713 10712 10709 ] final  -84.54 input   66.30 | X-H torsion
[ 10763 10752 10751 10750 ] final   86.97 input  -60.55 | X-H torsion
[ 11005 11000 10999 10996 ] final -171.46 input  -57.11 | X-H torsion

> <Gold.Protein.ActiveResidues>
 VAL166  LYS551  ARG553  GLY616  TRP617  ASP618  TYR619  PRO620  LYS621  CYS622 
 ASP623  PHE694  ASN695  SER759  ASP760  ASP761  ALA762  ILE779  LEU786  VAL792 
 PHE793  MET794  SER795  GLU796  ALA797  LYS798  CYS799  TRP800  GLU811  SER814 

> <Gold.Protein.RotatedAtoms>
  152.5351  134.2748  159.8984 H   0  0  0  0  0  0  0  0  0  0  0  0  # atno 6907 bound_to 6896
  151.2703  133.4251  159.2628 H   0  0  0  0  0  0  0  0  0  0  0  0  # atno 6908 bound_to 6896
  151.0373  134.9597  159.8199 H   0  0  0  0  0  0  0  0  0  0  0  0  # atno 6909 bound_to 6896
  146.2087  140.3302  142.8398 H   0  0  0  0  0  0  0  0  0  0  0  0  # atno 7974 bound_to 7965
  156.2730  140.2784  156.1480 H   0  0  0  0  0  0  0  0  0  0  0  0  # atno 8008 bound_to 7997
  155.0884  140.0388  157.2678 H   0  0  0  0  0  0  0  0  0  0  0  0  # atno 8009 bound_to 7997
  154.6909  140.2629  155.6819 H   0  0  0  0  0  0  0  0  0  0  0  0  # atno 8010 bound_to 7997
  140.7221  143.5197  150.9648 H   0  0  0  0  0  0  0  0  0  0  0  0  # atno 10167 bound_to 10162
  156.0005  130.4701  150.4426 H   0  0  0  0  0  0  0  0  0  0  0  0  # atno 10718 bound_to 10713
  153.1622  135.4560  154.9788 H   0  0  0  0  0  0  0  0  0  0  0  0  # atno 10763 bound_to 10752
  154.7906  135.3219  154.7788 H   0  0  0  0  0  0  0  0  0  0  0  0  # atno 10764 bound_to 10752
  153.8276  135.6941  153.4873 H   0  0  0  0  0  0  0  0  0  0  0  0  # atno 10765 bound_to 10752
  140.5080  134.5829  157.5009 H   0  0  0  0  0  0  0  0  0  0  0  0  # atno 11005 bound_to 11000
  144.8857  140.7459  143.5958 LP  0  0  0  0  0  0  0  0  0  0  0  0  # atno 17320 bound_to 7965
  145.3224  139.1784  143.4581 LP  0  0  0  0  0  0  0  0  0  0  0  0  # atno 17321 bound_to 7965
  139.8914  143.6948  152.3144 LP  0  0  0  0  0  0  0  0  0  0  0  0  # atno 17342 bound_to 10162
  139.7266  144.7591  151.0870 LP  0  0  0  0  0  0  0  0  0  0  0  0  # atno 17343 bound_to 10162
  157.2466  131.0537  151.2405 LP  0  0  0  0  0  0  0  0  0  0  0  0  # atno 17370 bound_to 10713
  157.3569  130.7111  149.6476 LP  0  0  0  0  0  0  0  0  0  0  0  0  # atno 17371 bound_to 10713
  139.9675  134.7348  156.0109 LP  0  0  0  0  0  0  0  0  0  0  0  0  # atno 17394 bound_to 11000
  141.1400  133.6566  156.3704 LP  0  0  0  0  0  0  0  0  0  0  0  0  # atno 17395 bound_to 11000

$$$$
