AV-unprocessed.smi:1434|AV-procd|sdf|5853|dock3
  -GOLD-   22720 5523D 1   1.00000     0.00000
 Structure written by MMmdl.
 43 44  0  0  0  0  0  0  0  0  2 V2000
  150.0663  135.2918  157.6948 C   0  0  0  0  0  0  0  0  0  0  0  0
  151.5798  135.1220  158.7214 S   0  0  0  0  0  0  0  0  0  0  0  0
  151.2617  135.7539  160.0119 O   0  0  0  0  0  0  0  0  0  0  0  0
  151.8927  133.6839  158.7357 O   0  0  0  0  0  0  0  0  0  0  0  0
  152.6336  135.9865  157.8423 N   0  5  0  0  0  0  0  0  0  0  0  0
  152.1616  136.7780  156.7156 C   0  0  2  0  0  0  0  0  0  0  0  0
  152.6478  136.1772  155.3691 C   0  0  0  0  0  0  0  0  0  0  0  0
  152.4023  137.1078  154.1507 C   0  0  0  0  0  0  0  0  0  0  0  0
  152.9236  138.5437  154.3871 C   0  0  0  0  0  0  0  0  0  0  0  0
  152.3129  139.0342  155.6431 N   0  0  0  0  0  0  0  0  0  0  0  0
  151.4658  140.0920  155.7519 C   0  0  0  0  0  0  0  0  0  0  0  0
  150.9676  140.6628  154.7805 O   0  0  0  0  0  0  0  0  0  0  0  0
  151.2511  140.5146  157.0095 N   0  0  0  0  0  0  0  0  0  0  0  0
  150.4482  141.6738  157.3813 C   0  0  0  0  0  0  0  0  0  0  0  0
  151.3061  142.9471  157.4701 C   0  0  0  0  0  0  0  0  0  0  0  0
  151.6730  143.2951  158.8999 C   0  0  0  0  0  0  0  0  0  0  0  0
  151.0661  144.3883  159.5545 C   0  0  0  0  0  0  0  0  0  0  0  0
  151.4458  144.6702  160.8812 C   0  0  0  0  0  0  0  0  0  0  0  0
  152.4135  143.8541  161.4981 C   0  0  0  0  0  0  0  0  0  0  0  0
  152.9612  142.7874  160.7575 C   0  0  0  0  0  0  0  0  0  0  0  0
  152.6039  142.5083  159.4854 N   0  0  0  0  0  0  0  0  0  0  0  0
  152.7097  138.2283  156.8211 C   0  0  0  0  0  0  0  0  0  0  0  0
  149.2477  134.7505  158.1678 H   0  0  0  0  0  0  0  0  0  0  0  0
  150.2513  134.8774  156.7043 H   0  0  0  0  0  0  0  0  0  0  0  0
  149.8031  136.3454  157.6065 H   0  0  0  0  0  0  0  0  0  0  0  0
  151.0726  136.8361  156.6954 H   0  0  0  0  0  0  0  0  0  0  0  0
  153.7181  135.9742  155.4326 H   0  0  0  0  0  0  0  0  0  0  0  0
  152.1674  135.2154  155.1897 H   0  0  0  0  0  0  0  0  0  0  0  0
  152.8825  136.6846  153.2682 H   0  0  0  0  0  0  0  0  0  0  0  0
  151.3354  137.1446  153.9211 H   0  0  0  0  0  0  0  0  0  0  0  0
  154.0084  138.5317  154.5026 H   0  0  0  0  0  0  0  0  0  0  0  0
  152.7284  139.1627  153.5118 H   0  0  0  0  0  0  0  0  0  0  0  0
  151.7038  140.0118  157.7588 H   0  0  0  0  0  0  0  0  0  0  0  0
  149.6327  141.8075  156.6684 H   0  0  0  0  0  0  0  0  0  0  0  0
  149.9864  141.4700  158.3476 H   0  0  0  0  0  0  0  0  0  0  0  0
  152.2187  142.8229  156.8853 H   0  0  0  0  0  0  0  0  0  0  0  0
  150.7755  143.7932  157.0307 H   0  0  0  0  0  0  0  0  0  0  0  0
  150.3278  144.9974  159.0540 H   0  0  0  0  0  0  0  0  0  0  0  0
  151.0028  145.4976  161.4157 H   0  0  0  0  0  0  0  0  0  0  0  0
  152.7287  144.0403  162.5140 H   0  0  0  0  0  0  0  0  0  0  0  0
  153.7058  142.1414  161.1984 H   0  0  0  0  0  0  0  0  0  0  0  0
  152.3759  138.6736  157.7597 H   0  0  0  0  0  0  0  0  0  0  0  0
  153.7995  138.2152  156.8781 H   0  0  0  0  0  0  0  0  0  0  0  0
  1  2  1  0  0  0  0
  1 23  1  0  0  0  0
  1 24  1  0  0  0  0
  1 25  1  0  0  0  0
  2  3  2  0  0  0  0
  2  4  2  0  0  0  0
  2  5  1  0  0  0  0
  5  6  1  0  0  0  0
  6 22  1  0  0  0  0
  6  7  1  0  0  0  0
  6 26  1  0  0  0  0
  7  8  1  0  0  0  0
  7 27  1  0  0  0  0
  7 28  1  0  0  0  0
  8  9  1  0  0  0  0
  8 29  1  0  0  0  0
  8 30  1  0  0  0  0
  9 10  1  0  0  0  0
  9 31  1  0  0  0  0
  9 32  1  0  0  0  0
 10 11  1  0  0  0  0
 10 22  1  0  0  0  0
 11 12  2  0  0  0  0
 11 13  1  0  0  0  0
 13 14  1  0  0  0  0
 13 33  1  0  0  0  0
 14 15  1  0  0  0  0
 14 34  1  0  0  0  0
 14 35  1  0  0  0  0
 15 16  1  0  0  0  0
 15 36  1  0  0  0  0
 15 37  1  0  0  0  0
 16 21  1  0  0  0  0
 16 17  2  0  0  0  0
 17 18  1  0  0  0  0
 17 38  1  0  0  0  0
 18 19  2  0  0  0  0
 18 39  1  0  0  0  0
 19 20  1  0  0  0  0
 19 40  1  0  0  0  0
 20 21  2  0  0  0  0
 20 41  1  0  0  0  0
 22 42  1  0  0  0  0
 22 43  1  0  0  0  0
M  CHG  1   5  -1
M  END
> <s_m_source_file>
AV-unprocessed.smi

> <i_m_source_file_index>
1434

> <i_lp_mmshare_version>
43012

> <i_f3d_flags>
0

> <s_epik_input>
W0NIM11TKD1PKSg9TylbTkhdW0NAQEhdMVtDSDJdW0NIMl1bQ0gyXU4oW0NIMl0xKUMoPU8pW05IXVtDSDJdW0NIMl1jMltjSF1bY0hdW2NIXVtjSF1uMg==

> <s_epik_cmdline>
J2VwaWtfcHl0aG9uJywgJy1waCcsICc3LjAnLCAnLXRuJywgJzgnLCAnLW1hJywgJzIwMCcsICctbWV0YWxfYmluZGluZycsICctaW1hZScsICc8aW5maWxlLm1hZT4nLCAnLW9tYWUnLCAnPG91dGZpbGUubWFlPic=

> <r_epik_Ionization_Penalty>
6.57847

> <r_epik_Ionization_Penalty_Charging>
6.53351

> <r_epik_Ionization_Penalty_Neutral>
0.0449527

> <r_epik_State_Penalty>
6.57157

> <r_epik_Charging_Adjusted_Penalty>
13.1051

> <i_epik_Tot_Q>
-1

> <i_epik_Tot_abs_Q>
1

> <r_epik_Metal_State_Penalty>
2.53928

> <b_epik_Metal_Only>
1

> <s_lp_Force_Field>
OPLS_2005

> <r_lp_Energy>
19.5099

> <b_lp_Chiralities_Consistent>
1

> <s_lp_Variant>
AV-unprocessed.smi:1434-5

> <Gold.Version>
5.8.1

> <Gold.Id.Protein>
6NUR|6NUR_protein|mol2

> <Gold.PLP.Fitness>
49.3890

> <Gold.PLP.PLP>
-38.5681

> <Gold.PLP.part.hbond>
-4.0000

> <Gold.PLP.part.metal>
0.0000

> <Gold.PLP.part.buried>
-7.0812

> <Gold.PLP.part.nonpolar>
-27.4493

> <Gold.PLP.part.repulsive>
0.0966

> <Gold.PLP.ligand.clash>
1.1668

> <Gold.PLP.ligand.torsion>
1.4015

> <Gold.PLP.Chemscore.Hbond>
4.5840

> <Gold.PLP.Chemscore.CHOScore>
0.0000

> <Gold.PLP.Chemscore.Metal>
0.0000

> <Gold.Chemscore.Hbonds>
donor molecule, donor type, donor heavy atom, donor atom, acceptor molecule, acceptor atom, score
      P1  H  7989  7998       L1    12  0.78

> <Gold.PLP.Chemscore.Internal.Correction>
1.0386

> <Gold.Rescore>
     Score         DG    S(hbond)    S(metal)    S(lipo)     H(rot)  DE(clash)    DE(int)     intcor
     21.76     -23.12       3.42        0.00      89.99       1.68       0.23       1.13       ----

> <Gold.Chemscore.Fitness>
21.7601

> <Gold.Chemscore.DG>
-23.1183

> <Gold.Chemscore.ZeroCoef>
-5.4800

> <Gold.Chemscore.Hbond>
3.4173

> <Gold.Chemscore.Metal>
0.0000

> <Gold.Chemscore.Lipo>
89.9895

> <Gold.Chemscore.Internal_Hbond>
0.0000

> <Gold.Chemscore.DEClash>
0.2302

> <Gold.Chemscore.DEInternal>
1.1281

> <Gold.Chemscore.Rot>
1.6813

> <Gold.Chemscore.Internal.Correction>
   9.000000E+99

> <Gold.Chemscore.Hbonds>
donor molecule, donor type, donor heavy atom, donor atom, acceptor molecule, acceptor atom, score
      P1  H  7989  7998       L1    12  0.74

> <Gold.Chemscore.Hbond.Weighted>
-11.4138

> <Gold.Chemscore.Metal.Weighted>
-0.0000

> <Gold.Chemscore.Lipo.Weighted>
-10.5288

> <Gold.Chemscore.Internal_Hbond.Weighted>
0.0000

> <Gold.Chemscore.DEClash.Weighted>
0.2302

> <Gold.Chemscore.DEInternal.Weighted>
1.1281

> <Gold.Chemscore.Rot.Weighted>
4.3042

> <Gold.Chemscore.Internal.Correction.Weighted>
   9.000000E+99

> <Gold.Protein.RotatedTorsions>
[ 6907 6896 6895 6894 ] final   58.86 input  -60.11 | X-H torsion
[ 7974 7965 7964 7962 ] final -140.61 input  175.53 | X-H torsion
[ 8008 7997 7996 7995 ] final -173.94 input   59.86 | X-H torsion
[ 10167 10162 10161 10158 ] final  134.71 input  -65.29 | X-H torsion
[ 10718 10713 10712 10709 ] final  118.32 input   66.30 | X-H torsion
[ 10763 10752 10751 10750 ] final  -51.41 input  -60.55 | X-H torsion
[ 11005 11000 10999 10996 ] final  -92.61 input  -57.11 | X-H torsion

> <Gold.Protein.ActiveResidues>
 VAL166  LYS551  ARG553  GLY616  TRP617  ASP618  TYR619  PRO620  LYS621  CYS622 
 ASP623  PHE694  ASN695  SER759  ASP760  ASP761  ALA762  ILE779  LEU786  VAL792 
 PHE793  MET794  SER795  GLU796  ALA797  LYS798  CYS799  TRP800  GLU811  SER814 

> <Gold.Protein.RotatedAtoms>
  152.3862  134.6513  160.0124 H   0  0  0  0  0  0  0  0  0  0  0  0  # atno 6907 bound_to 6896
  151.6761  133.3307  159.3216 H   0  0  0  0  0  0  0  0  0  0  0  0  # atno 6908 bound_to 6896
  150.7788  134.6757  159.6461 H   0  0  0  0  0  0  0  0  0  0  0  0  # atno 6909 bound_to 6896
  144.8584  140.6179  143.5344 H   0  0  0  0  0  0  0  0  0  0  0  0  # atno 7974 bound_to 7965
  155.9639  140.1149  157.0872 H   0  0  0  0  0  0  0  0  0  0  0  0  # atno 8008 bound_to 7997
  154.4139  140.1176  156.5282 H   0  0  0  0  0  0  0  0  0  0  0  0  # atno 8009 bound_to 7997
  155.6685  140.3473  155.4811 H   0  0  0  0  0  0  0  0  0  0  0  0  # atno 8010 bound_to 7997
  139.5245  144.6554  151.5179 H   0  0  0  0  0  0  0  0  0  0  0  0  # atno 10167 bound_to 10162
  157.6038  131.1047  150.7740 H   0  0  0  0  0  0  0  0  0  0  0  0  # atno 10718 bound_to 10713
  154.1261  135.6527  153.4912 H   0  0  0  0  0  0  0  0  0  0  0  0  # atno 10763 bound_to 10752
  153.0210  135.5282  154.7048 H   0  0  0  0  0  0  0  0  0  0  0  0  # atno 10764 bound_to 10752
  154.6269  135.2971  155.0232 H   0  0  0  0  0  0  0  0  0  0  0  0  # atno 10765 bound_to 10752
  141.1517  133.7832  157.0044 H   0  0  0  0  0  0  0  0  0  0  0  0  # atno 11005 bound_to 11000
  145.4361  139.1542  143.3996 LP  0  0  0  0  0  0  0  0  0  0  0  0  # atno 17320 bound_to 7965
  146.2841  140.4480  142.8765 LP  0  0  0  0  0  0  0  0  0  0  0  0  # atno 17321 bound_to 7965
  140.6377  143.8951  150.6662 LP  0  0  0  0  0  0  0  0  0  0  0  0  # atno 17342 bound_to 10162
  140.2276  143.3760  152.1592 LP  0  0  0  0  0  0  0  0  0  0  0  0  # atno 17343 bound_to 10162
  156.8133  130.4959  149.5353 LP  0  0  0  0  0  0  0  0  0  0  0  0  # atno 17370 bound_to 10713
  156.1118  130.6046  151.0059 LP  0  0  0  0  0  0  0  0  0  0  0  0  # atno 17371 bound_to 10713
  140.0919  134.9587  157.1789 LP  0  0  0  0  0  0  0  0  0  0  0  0  # atno 17394 bound_to 11000
  140.3435  134.2678  155.7208 LP  0  0  0  0  0  0  0  0  0  0  0  0  # atno 17395 bound_to 11000

$$$$
