AV-unprocessed.smi:1961|AV-procd|sdf|7921|dock4
  -GOLD-   2272010 83D 1   1.00000     0.00000
 Structure written by MMmdl.
 35 36  0  0  0  0  0  0  0  0  2 V2000
  152.1901  143.9111  161.8141 C   0  0  0  0  0  0  0  0  0  0  0  0
  152.3307  144.0435  160.2908 C   0  0  0  0  0  0  0  0  0  0  0  0
  151.4967  145.1923  159.7053 C   0  0  0  0  0  0  0  0  0  0  0  0
  152.0787  142.7472  159.5859 C   0  0  0  0  0  0  0  0  0  0  0  0
  151.2402  142.6285  158.5516 N   0  0  0  0  0  0  0  0  0  0  0  0
  151.1801  141.3286  158.0715 N   0  0  0  0  0  0  0  0  0  0  0  0
  151.9773  140.4837  158.7403 C   0  0  0  0  0  0  0  0  0  0  0  0
  152.0630  139.1784  158.4344 N   0  5  0  0  0  0  0  0  0  0  0  0
  152.2580  138.7962  157.1517 C   0  0  0  0  0  0  0  0  0  0  0  0
  153.3434  138.7048  156.5729 O   0  0  0  0  0  0  0  0  0  0  0  0
  151.1279  138.4984  156.4977 N   0  0  0  0  0  0  0  0  0  0  0  0
  151.0559  138.0506  155.1135 C   0  0  0  0  0  0  0  0  0  0  0  0
  150.3099  139.0754  154.2479 C   0  0  1  0  0  0  0  0  0  0  0  0
  148.7901  139.0020  154.3859 C   0  0  0  0  0  0  0  0  0  0  0  0
  148.3789  140.4021  153.9927 C   0  0  0  0  0  0  0  0  0  0  0  0
  149.4915  141.2394  154.6161 C   0  0  0  0  0  0  0  0  0  0  0  0
  150.6481  140.4065  154.6330 O   0  0  0  0  0  0  0  0  0  0  0  0
  152.8651  141.2492  160.0571 S   0  0  0  0  0  0  0  0  0  0  0  0
  152.8613  143.1453  162.2042 H   0  0  0  0  0  0  0  0  0  0  0  0
  151.1727  143.6375  162.0957 H   0  0  0  0  0  0  0  0  0  0  0  0
  152.4323  144.8489  162.3144 H   0  0  0  0  0  0  0  0  0  0  0  0
  153.3746  144.2971  160.1014 H   0  0  0  0  0  0  0  0  0  0  0  0
  151.6863  145.3089  158.6378 H   0  0  0  0  0  0  0  0  0  0  0  0
  151.7378  146.1390  160.1891 H   0  0  0  0  0  0  0  0  0  0  0  0
  150.4287  145.0147  159.8364 H   0  0  0  0  0  0  0  0  0  0  0  0
  150.2569  138.5802  157.0016 H   0  0  0  0  0  0  0  0  0  0  0  0
  152.0689  137.9134  154.7320 H   0  0  0  0  0  0  0  0  0  0  0  0
  150.5578  137.0810  155.0664 H   0  0  0  0  0  0  0  0  0  0  0  0
  150.5773  138.9506  153.1972 H   0  0  0  0  0  0  0  0  0  0  0  0
  148.3426  138.2312  153.7578 H   0  0  0  0  0  0  0  0  0  0  0  0
  148.5055  138.8082  155.4213 H   0  0  0  0  0  0  0  0  0  0  0  0
  148.3930  140.5053  152.9070 H   0  0  0  0  0  0  0  0  0  0  0  0
  147.3864  140.6763  154.3511 H   0  0  0  0  0  0  0  0  0  0  0  0
  149.6733  142.1627  154.0655 H   0  0  0  0  0  0  0  0  0  0  0  0
  149.2408  141.5020  155.6446 H   0  0  0  0  0  0  0  0  0  0  0  0
  1  2  1  0  0  0  0
  1 19  1  0  0  0  0
  1 20  1  0  0  0  0
  1 21  1  0  0  0  0
  2  3  1  0  0  0  0
  2  4  1  0  0  0  0
  2 22  1  0  0  0  0
  3 23  1  0  0  0  0
  3 24  1  0  0  0  0
  3 25  1  0  0  0  0
  4 18  1  0  0  0  0
  4  5  2  0  0  0  0
  5  6  1  0  0  0  0
  6  7  2  0  0  0  0
  7  8  1  0  0  0  0
  7 18  1  0  0  0  0
  8  9  1  0  0  0  0
  9 10  2  0  0  0  0
  9 11  1  0  0  0  0
 11 12  1  0  0  0  0
 11 26  1  0  0  0  0
 12 13  1  0  0  0  0
 12 27  1  0  0  0  0
 12 28  1  0  0  0  0
 13 17  1  0  0  0  0
 13 14  1  0  0  0  0
 13 29  1  0  0  0  0
 14 15  1  0  0  0  0
 14 30  1  0  0  0  0
 14 31  1  0  0  0  0
 15 16  1  0  0  0  0
 15 32  1  0  0  0  0
 15 33  1  0  0  0  0
 16 17  1  0  0  0  0
 16 34  1  0  0  0  0
 16 35  1  0  0  0  0
M  CHG  1   8  -1
M  END
> <s_m_source_file>
AV-unprocessed.smi

> <i_m_source_file_index>
1961

> <i_lp_mmshare_version>
43012

> <i_f3d_flags>
0

> <s_epik_input>
W0NIM11bQ0hdKFtDSDNdKWMxbm5jKHMxKVtOSF1DKD1PKVtOSF1bQ0gyXVtDQEBIXTJbQ0gyXVtDSDJdW0NIMl1PMg==

> <s_epik_cmdline>
J2VwaWtfcHl0aG9uJywgJy1waCcsICc3LjAnLCAnLXRuJywgJzgnLCAnLW1hJywgJzIwMCcsICctbWV0YWxfYmluZGluZycsICctaW1hZScsICc8aW5maWxlLm1hZT4nLCAnLW9tYWUnLCAnPG91dGZpbGUubWFlPic=

> <r_lp_tautomer_probability>
1

> <r_epik_Ionization_Penalty>
4.36179

> <r_epik_Ionization_Penalty_Charging>
4.21437

> <r_epik_Ionization_Penalty_Neutral>
0.147417

> <r_epik_State_Penalty>
4.21389

> <r_epik_Charging_Adjusted_Penalty>
8.42826

> <i_epik_Tot_Q>
-1

> <i_epik_Tot_abs_Q>
1

> <r_epik_Metal_State_Penalty>
0.693772

> <b_epik_Metal_Only>
1

> <s_lp_Force_Field>
OPLS_2005

> <r_lp_Energy>
8.86259

> <b_lp_Chiralities_Consistent>
1

> <s_lp_Variant>
AV-unprocessed.smi:1961-4

> <Gold.Version>
5.8.1

> <Gold.Id.Protein>
6NUR|6NUR_protein|mol2

> <Gold.PLP.Fitness>
40.3796

> <Gold.PLP.PLP>
-37.2342

> <Gold.PLP.part.hbond>
-1.9570

> <Gold.PLP.part.metal>
0.0000

> <Gold.PLP.part.buried>
-3.7524

> <Gold.PLP.part.nonpolar>
-30.2509

> <Gold.PLP.part.repulsive>
0.1700

> <Gold.PLP.ligand.clash>
0.0000

> <Gold.PLP.ligand.torsion>
1.4602

> <Gold.PLP.Chemscore.Hbond>
1.9760

> <Gold.PLP.Chemscore.CHOScore>
0.0000

> <Gold.PLP.Chemscore.Metal>
0.0000

> <Gold.Chemscore.Hbonds>
donor molecule, donor type, donor heavy atom, donor atom, acceptor molecule, acceptor atom, score
      P1  H  7989  7998       L1    17  1.00
      P1  H  7997  8009       L1    10  1.00

> <Gold.PLP.Chemscore.Internal.Correction>
0.1378

> <Gold.Rescore>
     Score         DG    S(hbond)    S(metal)    S(lipo)     H(rot)  DE(clash)    DE(int)     intcor
     16.75     -18.27       1.66        0.00      92.95       1.42       0.03       1.48       ----

> <Gold.Chemscore.Fitness>
16.7500

> <Gold.Chemscore.DG>
-18.2655

> <Gold.Chemscore.ZeroCoef>
-5.4800

> <Gold.Chemscore.Hbond>
1.6596

> <Gold.Chemscore.Metal>
0.0000

> <Gold.Chemscore.Lipo>
92.9539

> <Gold.Chemscore.Internal_Hbond>
0.0000

> <Gold.Chemscore.DEClash>
0.0322

> <Gold.Chemscore.DEInternal>
1.4833

> <Gold.Chemscore.Rot>
1.4193

> <Gold.Chemscore.Internal.Correction>
   9.000000E+99

> <Gold.Chemscore.Hbonds>
donor molecule, donor type, donor heavy atom, donor atom, acceptor molecule, acceptor atom, score
      P1  H  7989  7998       L1    17  0.28
      P1  H  7997  8009       L1    10  0.92

> <Gold.Chemscore.Hbond.Weighted>
-5.5432

> <Gold.Chemscore.Metal.Weighted>
-0.0000

> <Gold.Chemscore.Lipo.Weighted>
-10.8756

> <Gold.Chemscore.Internal_Hbond.Weighted>
0.0000

> <Gold.Chemscore.DEClash.Weighted>
0.0322

> <Gold.Chemscore.DEInternal.Weighted>
1.4833

> <Gold.Chemscore.Rot.Weighted>
3.6333

> <Gold.Chemscore.Internal.Correction.Weighted>
   9.000000E+99

> <Gold.Protein.RotatedTorsions>
[ 6907 6896 6895 6894 ] final  -50.14 input  -60.11 | X-H torsion
[ 7974 7965 7964 7962 ] final  -65.12 input  175.53 | X-H torsion
[ 8008 7997 7996 7995 ] final -172.46 input   59.86 | X-H torsion
[ 10167 10162 10161 10158 ] final  -97.61 input  -65.29 | X-H torsion
[ 10718 10713 10712 10709 ] final  -96.12 input   66.30 | X-H torsion
[ 10763 10752 10751 10750 ] final   73.32 input  -60.55 | X-H torsion
[ 11005 11000 10999 10996 ] final -168.15 input  -57.11 | X-H torsion

> <Gold.Protein.ActiveResidues>
 VAL166  LYS551  ARG553  GLY616  TRP617  ASP618  TYR619  PRO620  LYS621  CYS622 
 ASP623  PHE694  ASN695  SER759  ASP760  ASP761  ALA762  ILE779  LEU786  VAL792 
 PHE793  MET794  SER795  GLU796  ALA797  LYS798  CYS799  TRP800  GLU811  SER814 

> <Gold.Protein.RotatedAtoms>
  150.8736  134.8115  159.7173 H   0  0  0  0  0  0  0  0  0  0  0  0  # atno 6907 bound_to 6896
  152.4732  134.4907  159.9704 H   0  0  0  0  0  0  0  0  0  0  0  0  # atno 6908 bound_to 6896
  151.4991  133.3469  159.2901 H   0  0  0  0  0  0  0  0  0  0  0  0  # atno 6909 bound_to 6896
  145.7582  140.8875  143.0444 H   0  0  0  0  0  0  0  0  0  0  0  0  # atno 7974 bound_to 7965
  155.9448  140.1115  157.1025 H   0  0  0  0  0  0  0  0  0  0  0  0  # atno 8008 bound_to 7997
  154.4097  140.1212  156.5041 H   0  0  0  0  0  0  0  0  0  0  0  0  # atno 8009 bound_to 7997
  155.6916  140.3472  155.4898 H   0  0  0  0  0  0  0  0  0  0  0  0  # atno 8010 bound_to 7997
  140.2816  143.3278  152.0435 H   0  0  0  0  0  0  0  0  0  0  0  0  # atno 10167 bound_to 10162
  156.0056  130.5138  150.6178 H   0  0  0  0  0  0  0  0  0  0  0  0  # atno 10718 bound_to 10713
  153.0514  135.5067  154.7876 H   0  0  0  0  0  0  0  0  0  0  0  0  # atno 10763 bound_to 10752
  154.6735  135.2957  154.9712 H   0  0  0  0  0  0  0  0  0  0  0  0  # atno 10764 bound_to 10752
  154.0522  135.6702  153.4854 H   0  0  0  0  0  0  0  0  0  0  0  0  # atno 10765 bound_to 10752
  140.5452  134.5483  157.5109 H   0  0  0  0  0  0  0  0  0  0  0  0  # atno 11005 bound_to 11000
  144.6836  139.9686  143.7481 LP  0  0  0  0  0  0  0  0  0  0  0  0  # atno 17320 bound_to 7965
  146.0290  139.3318  143.0767 LP  0  0  0  0  0  0  0  0  0  0  0  0  # atno 17321 bound_to 7965
  139.4961  144.6588  151.6513 LP  0  0  0  0  0  0  0  0  0  0  0  0  # atno 17342 bound_to 10162
  140.5807  143.9951  150.6266 LP  0  0  0  0  0  0  0  0  0  0  0  0  # atno 17343 bound_to 10162
  157.3999  131.0808  151.1318 LP  0  0  0  0  0  0  0  0  0  0  0  0  # atno 17370 bound_to 10713
  157.1982  130.6383  149.5729 LP  0  0  0  0  0  0  0  0  0  0  0  0  # atno 17371 bound_to 10713
  139.9483  134.7662  156.0509 LP  0  0  0  0  0  0  0  0  0  0  0  0  # atno 17394 bound_to 11000
  141.1204  133.6615  156.3200 LP  0  0  0  0  0  0  0  0  0  0  0  0  # atno 17395 bound_to 11000

$$$$
