AV-unprocessed.smi:2188|AV-procd|sdf|8882|dock9
  -GOLD-   2272012 83D 1   1.00000     0.00000
 Structure written by MMmdl.
 38 40  0  0  0  0  0  0  0  0  2 V2000
  151.4891  140.3003  155.5800 O   0  0  0  0  0  0  0  0  0  0  0  0
  150.7937  140.9892  156.3383 C   0  0  0  0  0  0  0  0  0  0  0  0
  149.4275  141.0690  156.2923 N   0  5  0  0  0  0  0  0  0  0  0  0
  148.5308  140.0496  155.7456 C   0  0  0  0  0  0  0  0  0  0  0  0
  147.7245  140.6457  154.5742 C   0  0  0  0  0  0  0  0  0  0  0  0
  147.0420  139.5994  153.7033 C   0  0  0  0  0  0  0  0  0  0  0  0
  146.3000  138.5455  154.2806 C   0  0  0  0  0  0  0  0  0  0  0  0
  145.6961  137.5952  153.4353 C   0  0  0  0  0  0  0  0  0  0  0  0
  145.8632  137.7345  152.0433 C   0  0  0  0  0  0  0  0  0  0  0  0
  146.5748  138.7327  151.4774 N   0  0  0  0  0  0  0  0  0  0  0  0
  147.1499  139.6412  152.2951 C   0  0  0  0  0  0  0  0  0  0  0  0
  151.4597  141.8208  157.3625 C   0  0  0  0  0  0  0  0  0  0  0  0
  151.1964  143.1547  157.3878 C   0  0  0  0  0  0  0  0  0  0  0  0
  151.7923  144.0320  158.3639 C   0  0  0  0  0  0  0  0  0  0  0  0
  152.6520  143.5039  159.2407 C   0  0  0  0  0  0  0  0  0  0  0  0
  152.9955  142.1534  159.2542 N   0  0  0  0  0  0  0  0  0  0  0  0
  154.0247  141.7438  160.2039 C   0  0  0  0  0  0  0  0  0  0  0  0
  153.6590  140.4154  160.8400 C   0  0  0  0  0  0  0  0  0  0  0  0
  153.6418  139.1998  159.4748 S   0  0  0  0  0  0  0  0  0  0  0  0
  154.9836  139.1729  158.8717 O   0  0  0  0  0  0  0  0  0  0  0  0
  153.0545  137.9508  159.9831 O   0  0  0  0  0  0  0  0  0  0  0  0
  152.5759  139.9442  158.4194 N   0  0  0  0  0  0  0  0  0  0  0  0
  152.3812  141.2317  158.3591 C   0  0  0  0  0  0  0  0  0  0  0  0
  149.0700  139.1731  155.3835 H   0  0  0  0  0  0  0  0  0  0  0  0
  147.8391  139.6812  156.5039 H   0  0  0  0  0  0  0  0  0  0  0  0
  146.9654  141.3298  154.9566 H   0  0  0  0  0  0  0  0  0  0  0  0
  148.3805  141.2451  153.9407 H   0  0  0  0  0  0  0  0  0  0  0  0
  146.1918  138.4693  155.3527 H   0  0  0  0  0  0  0  0  0  0  0  0
  145.1183  136.7795  153.8445 H   0  0  0  0  0  0  0  0  0  0  0  0
  145.4141  137.0230  151.3663 H   0  0  0  0  0  0  0  0  0  0  0  0
  147.7129  140.4255  151.8105 H   0  0  0  0  0  0  0  0  0  0  0  0
  150.5329  143.6059  156.6637 H   0  0  0  0  0  0  0  0  0  0  0  0
  151.5509  145.0844  158.3847 H   0  0  0  0  0  0  0  0  0  0  0  0
  153.1320  144.1109  159.9945 H   0  0  0  0  0  0  0  0  0  0  0  0
  154.9844  141.6783  159.6902 H   0  0  0  0  0  0  0  0  0  0  0  0
  154.1432  142.4890  160.9911 H   0  0  0  0  0  0  0  0  0  0  0  0
  154.3960  140.1022  161.5790 H   0  0  0  0  0  0  0  0  0  0  0  0
  152.6775  140.4423  161.3148 H   0  0  0  0  0  0  0  0  0  0  0  0
  1  2  2  0  0  0  0
  2  3  1  0  0  0  0
  2 12  1  0  0  0  0
  3  4  1  0  0  0  0
  4  5  1  0  0  0  0
  4 24  1  0  0  0  0
  4 25  1  0  0  0  0
  5  6  1  0  0  0  0
  5 26  1  0  0  0  0
  5 27  1  0  0  0  0
  6 11  1  0  0  0  0
  6  7  2  0  0  0  0
  7  8  1  0  0  0  0
  7 28  1  0  0  0  0
  8  9  2  0  0  0  0
  8 29  1  0  0  0  0
  9 10  1  0  0  0  0
  9 30  1  0  0  0  0
 10 11  2  0  0  0  0
 11 31  1  0  0  0  0
 12 23  1  0  0  0  0
 12 13  2  0  0  0  0
 13 14  1  0  0  0  0
 13 32  1  0  0  0  0
 14 15  2  0  0  0  0
 14 33  1  0  0  0  0
 15 16  1  0  0  0  0
 15 34  1  0  0  0  0
 16 23  1  0  0  0  0
 16 17  1  0  0  0  0
 17 18  1  0  0  0  0
 17 35  1  0  0  0  0
 17 36  1  0  0  0  0
 18 19  1  0  0  0  0
 18 37  1  0  0  0  0
 18 38  1  0  0  0  0
 19 20  2  0  0  0  0
 19 21  2  0  0  0  0
 19 22  1  0  0  0  0
 22 23  2  0  0  0  0
M  CHG  1   3  -1
M  END
> <s_m_source_file>
AV-unprocessed.smi

> <i_m_source_file_index>
2188

> <i_lp_mmshare_version>
43012

> <i_f3d_flags>
0

> <s_epik_input>
W0NIMl0xW0NIMl1TKD1PKSg9TylOPUMoTjEyKUMoPVtDSF1bQ0hdPVtDSF0yKUMoPU8pW05IXVtDSDJdW0NIMl1jM1tjSF1bY0hdW2NIXW5bY0hdMw==

> <s_epik_cmdline>
J2VwaWtfcHl0aG9uJywgJy1waCcsICc3LjAnLCAnLXRuJywgJzgnLCAnLW1hJywgJzIwMCcsICctbWV0YWxfYmluZGluZycsICctaW1hZScsICc8aW5maWxlLm1hZT4nLCAnLW9tYWUnLCAnPG91dGZpbGUubWFlPic=

> <r_epik_Ionization_Penalty>
5.61471

> <r_epik_Ionization_Penalty_Charging>
5.5942

> <r_epik_Ionization_Penalty_Neutral>
0.0205175

> <r_epik_State_Penalty>
5.60129

> <r_epik_Charging_Adjusted_Penalty>
11.1955

> <i_epik_Tot_Q>
-1

> <i_epik_Tot_abs_Q>
1

> <r_epik_Metal_State_Penalty>
1.60393

> <b_epik_Metal_Only>
1

> <s_lp_Force_Field>
OPLS_2005

> <r_lp_Energy>
34.9518

> <b_lp_Chiralities_Consistent>
1

> <s_lp_Variant>
AV-unprocessed.smi:2188-3

> <Gold.Version>
5.8.1

> <Gold.Id.Protein>
6NUR|6NUR_protein|mol2

> <Gold.PLP.Fitness>
46.5168

> <Gold.PLP.PLP>
-39.3844

> <Gold.PLP.part.hbond>
-3.1981

> <Gold.PLP.part.metal>
0.0000

> <Gold.PLP.part.buried>
0.0478

> <Gold.PLP.part.nonpolar>
-37.0788

> <Gold.PLP.part.repulsive>
1.5736

> <Gold.PLP.ligand.clash>
0.0000

> <Gold.PLP.ligand.torsion>
1.3306

> <Gold.PLP.Chemscore.Hbond>
2.3594

> <Gold.PLP.Chemscore.CHOScore>
0.8083

> <Gold.PLP.Chemscore.Metal>
0.0000

> <Gold.Chemscore.Hbonds>
donor molecule, donor type, donor heavy atom, donor atom, acceptor molecule, acceptor atom, score
      P1  H  7954  7966       L1    10  0.08
      P1  H  7989  7998       L1     1  0.63
      P1  H  7997  8009       L1    20  1.00
      L1  C     9    30       P1 10171  0.27
      L1  C    11    31       P1  7957  0.75

> <Gold.PLP.Chemscore.Internal.Correction>
0.2906

> <Gold.Rescore>
     Score         DG    S(hbond)    S(metal)    S(lipo)     H(rot)  DE(clash)    DE(int)     intcor
     18.77     -22.19       2.45        0.00     104.56       1.44       2.01       1.42       ----

> <Gold.Chemscore.Fitness>
18.7673

> <Gold.Chemscore.DG>
-22.1940

> <Gold.Chemscore.ZeroCoef>
-5.4800

> <Gold.Chemscore.Hbond>
2.4477

> <Gold.Chemscore.Metal>
0.0000

> <Gold.Chemscore.Lipo>
104.5611

> <Gold.Chemscore.Internal_Hbond>
0.0000

> <Gold.Chemscore.DEClash>
2.0056

> <Gold.Chemscore.DEInternal>
1.4211

> <Gold.Chemscore.Rot>
1.4433

> <Gold.Chemscore.Internal.Correction>
   9.000000E+99

> <Gold.Chemscore.Hbonds>
donor molecule, donor type, donor heavy atom, donor atom, acceptor molecule, acceptor atom, score
      P1  H  7954  7966       L1    10  0.07
      P1  H  7989  7998       L1     1  0.59
      P1  H  7997  8009       L1    20  0.88

> <Gold.Chemscore.Hbond.Weighted>
-8.1752

> <Gold.Chemscore.Metal.Weighted>
-0.0000

> <Gold.Chemscore.Lipo.Weighted>
-12.2336

> <Gold.Chemscore.Internal_Hbond.Weighted>
0.0000

> <Gold.Chemscore.DEClash.Weighted>
2.0056

> <Gold.Chemscore.DEInternal.Weighted>
1.4211

> <Gold.Chemscore.Rot.Weighted>
3.6949

> <Gold.Chemscore.Internal.Correction.Weighted>
   9.000000E+99

> <Gold.Protein.RotatedTorsions>
[ 6907 6896 6895 6894 ] final -110.14 input  -60.11 | X-H torsion
[ 7974 7965 7964 7962 ] final   84.81 input  175.53 | X-H torsion
[ 8008 7997 7996 7995 ] final  123.13 input   59.86 | X-H torsion
[ 10167 10162 10161 10158 ] final  -35.81 input  -65.29 | X-H torsion
[ 10718 10713 10712 10709 ] final   17.53 input   66.30 | X-H torsion
[ 10763 10752 10751 10750 ] final   20.96 input  -60.55 | X-H torsion
[ 11005 11000 10999 10996 ] final  -87.05 input  -57.11 | X-H torsion

> <Gold.Protein.ActiveResidues>
 VAL166  LYS551  ARG553  GLY616  TRP617  ASP618  TYR619  PRO620  LYS621  CYS622 
 ASP623  PHE694  ASN695  SER759  ASP760  ASP761  ALA762  ILE779  LEU786  VAL792 
 PHE793  MET794  SER795  GLU796  ALA797  LYS798  CYS799  TRP800  GLU811  SER814 

> <Gold.Protein.RotatedAtoms>
  150.7606  133.9425  159.3460 H   0  0  0  0  0  0  0  0  0  0  0  0  # atno 6907 bound_to 6896
  151.7335  135.0868  160.0313 H   0  0  0  0  0  0  0  0  0  0  0  0  # atno 6908 bound_to 6896
  152.3574  133.6217  159.6025 H   0  0  0  0  0  0  0  0  0  0  0  0  # atno 6909 bound_to 6896
  145.5938  139.2342  143.2284 H   0  0  0  0  0  0  0  0  0  0  0  0  # atno 7974 bound_to 7965
  156.2754  140.2770  156.1578 H   0  0  0  0  0  0  0  0  0  0  0  0  # atno 8008 bound_to 7997
  155.0785  140.0387  157.2649 H   0  0  0  0  0  0  0  0  0  0  0  0  # atno 8009 bound_to 7997
  154.6983  140.2643  155.6750 H   0  0  0  0  0  0  0  0  0  0  0  0  # atno 8010 bound_to 7997
  140.7157  143.3452  151.2272 H   0  0  0  0  0  0  0  0  0  0  0  0  # atno 10167 bound_to 10162
  157.0834  130.6397  149.5831 H   0  0  0  0  0  0  0  0  0  0  0  0  # atno 10718 bound_to 10713
  153.1034  135.6678  153.9630 H   0  0  0  0  0  0  0  0  0  0  0  0  # atno 10763 bound_to 10752
  153.9194  135.3016  155.3449 H   0  0  0  0  0  0  0  0  0  0  0  0  # atno 10764 bound_to 10752
  154.7455  135.5059  153.9273 H   0  0  0  0  0  0  0  0  0  0  0  0  # atno 10765 bound_to 10752
  141.1622  133.7489  156.9251 H   0  0  0  0  0  0  0  0  0  0  0  0  # atno 11005 bound_to 11000
  146.1627  140.6764  142.9270 LP  0  0  0  0  0  0  0  0  0  0  0  0  # atno 17320 bound_to 7965
  144.7339  140.4753  143.6917 LP  0  0  0  0  0  0  0  0  0  0  0  0  # atno 17321 bound_to 7965
  139.6969  143.9598  152.2887 LP  0  0  0  0  0  0  0  0  0  0  0  0  # atno 17342 bound_to 10162
  139.9278  144.6760  150.8394 LP  0  0  0  0  0  0  0  0  0  0  0  0  # atno 17343 bound_to 10162
  155.9917  130.4973  150.7311 LP  0  0  0  0  0  0  0  0  0  0  0  0  # atno 17370 bound_to 10713
  157.4781  131.0900  151.0567 LP  0  0  0  0  0  0  0  0  0  0  0  0  # atno 17371 bound_to 10713
  140.1425  134.9284  157.2485 LP  0  0  0  0  0  0  0  0  0  0  0  0  # atno 17394 bound_to 11000
  140.2820  134.3339  155.7340 LP  0  0  0  0  0  0  0  0  0  0  0  0  # atno 17395 bound_to 11000

$$$$
