AV-unprocessed.smi:502|AV-procd|sdf|2745|dock1
  -GOLD-   2262023203D 1   1.00000     0.00000
 Structure written by MMmdl.
 49 51  0  0  0  0  0  0  0  0  2 V2000
  145.0441  135.7707  150.4007 C   0  0  0  0  0  0  0  0  0  0  0  0
  144.9624  136.4538  151.7614 C   0  0  0  0  0  0  0  0  0  0  0  0
  143.8696  136.6360  152.2977 O   0  0  0  0  0  0  0  0  0  0  0  0
  146.1281  136.8282  152.3097 N   0  0  0  0  0  0  0  0  0  0  0  0
  146.2673  137.5111  153.5906 C   0  0  0  0  0  0  0  0  0  0  0  0
  146.8588  138.9208  153.4250 C   0  0  0  0  0  0  0  0  0  0  0  0
  148.2682  138.9854  153.9186 C   0  0  0  0  0  0  0  0  0  0  0  0
  149.2516  138.0900  153.6189 N   0  3  0  0  0  0  0  0  0  0  0  0
  150.4355  138.4534  154.2613 C   0  0  0  0  0  0  0  0  0  0  0  0
  151.6936  137.8588  154.2598 C   0  0  0  0  0  0  0  0  0  0  0  0
  152.6926  138.4900  155.0300 C   0  0  0  0  0  0  0  0  0  0  0  0
  152.4233  139.6653  155.7612 C   0  0  0  0  0  0  0  0  0  0  0  0
  151.1438  140.2589  155.7544 C   0  0  0  0  0  0  0  0  0  0  0  0
  150.1615  139.6272  154.9920 C   0  0  0  0  0  0  0  0  0  0  0  0
  148.8120  139.9151  154.7579 N   0  0  0  0  0  0  0  0  0  0  0  0
  148.2158  141.0943  155.4012 C   0  0  0  0  0  0  0  0  0  0  0  0
  146.7922  140.8227  155.9056 C   0  0  0  0  0  0  0  0  0  0  0  0
  146.2389  142.0455  156.3689 O   0  0  0  0  0  0  0  0  0  0  0  0
  145.8365  142.9800  155.4365 C   0  0  0  0  0  0  0  0  0  0  0  0
  146.3091  143.0121  154.0992 C   0  0  0  0  0  0  0  0  0  0  0  0
  145.8533  143.9966  153.2021 C   0  0  0  0  0  0  0  0  0  0  0  0
  144.9210  144.9599  153.6258 C   0  0  0  0  0  0  0  0  0  0  0  0
  144.4449  144.9384  154.9491 C   0  0  0  0  0  0  0  0  0  0  0  0
  144.8990  143.9546  155.8525 C   0  0  0  0  0  0  0  0  0  0  0  0
  144.3743  143.9462  157.2761 C   0  0  0  0  0  0  0  0  0  0  0  0
  145.6500  134.8665  150.4628 H   0  0  0  0  0  0  0  0  0  0  0  0
  145.4936  136.4388  149.6657 H   0  0  0  0  0  0  0  0  0  0  0  0
  144.0513  135.4925  150.0457 H   0  0  0  0  0  0  0  0  0  0  0  0
  146.9772  136.6391  151.7964 H   0  0  0  0  0  0  0  0  0  0  0  0
  145.2800  137.5711  154.0473 H   0  0  0  0  0  0  0  0  0  0  0  0
  146.8850  136.9134  154.2631 H   0  0  0  0  0  0  0  0  0  0  0  0
  146.8460  139.2163  152.3751 H   0  0  0  0  0  0  0  0  0  0  0  0
  146.2536  139.6546  153.9573 H   0  0  0  0  0  0  0  0  0  0  0  0
  151.9021  136.9586  153.7006 H   0  0  0  0  0  0  0  0  0  0  0  0
  153.6851  138.0641  155.0608 H   0  0  0  0  0  0  0  0  0  0  0  0
  153.2139  140.1208  156.3401 H   0  0  0  0  0  0  0  0  0  0  0  0
  150.9466  141.1582  156.3190 H   0  0  0  0  0  0  0  0  0  0  0  0
  148.8664  141.4116  156.2170 H   0  0  0  0  0  0  0  0  0  0  0  0
  148.2065  141.9090  154.6777 H   0  0  0  0  0  0  0  0  0  0  0  0
  146.1832  140.4159  155.0975 H   0  0  0  0  0  0  0  0  0  0  0  0
  146.8139  140.0918  156.7151 H   0  0  0  0  0  0  0  0  0  0  0  0
  147.0245  142.2913  153.7339 H   0  0  0  0  0  0  0  0  0  0  0  0
  146.2204  144.0120  152.1865 H   0  0  0  0  0  0  0  0  0  0  0  0
  144.5709  145.7143  152.9369 H   0  0  0  0  0  0  0  0  0  0  0  0
  143.7284  145.6816  155.2675 H   0  0  0  0  0  0  0  0  0  0  0  0
  143.6482  144.7431  157.4394 H   0  0  0  0  0  0  0  0  0  0  0  0
  145.1933  144.0842  157.9823 H   0  0  0  0  0  0  0  0  0  0  0  0
  143.8876  142.9952  157.4944 H   0  0  0  0  0  0  0  0  0  0  0  0
  149.1187  137.2879  153.0161 H   0  0  0  0  0  0  0  0  0  0  0  0
  1  2  1  0  0  0  0
  1 26  1  0  0  0  0
  1 27  1  0  0  0  0
  1 28  1  0  0  0  0
  2  3  2  0  0  0  0
  2  4  1  0  0  0  0
  4  5  1  0  0  0  0
  4 29  1  0  0  0  0
  5  6  1  0  0  0  0
  5 30  1  0  0  0  0
  5 31  1  0  0  0  0
  6  7  1  0  0  0  0
  6 32  1  0  0  0  0
  6 33  1  0  0  0  0
  7 15  1  0  0  0  0
  7  8  2  0  0  0  0
  8  9  1  0  0  0  0
  8 49  1  0  0  0  0
  9 14  2  0  0  0  0
  9 10  1  0  0  0  0
 10 11  2  0  0  0  0
 10 34  1  0  0  0  0
 11 12  1  0  0  0  0
 11 35  1  0  0  0  0
 12 13  2  0  0  0  0
 12 36  1  0  0  0  0
 13 14  1  0  0  0  0
 13 37  1  0  0  0  0
 14 15  1  0  0  0  0
 15 16  1  0  0  0  0
 16 17  1  0  0  0  0
 16 38  1  0  0  0  0
 16 39  1  0  0  0  0
 17 18  1  0  0  0  0
 17 40  1  0  0  0  0
 17 41  1  0  0  0  0
 18 19  1  0  0  0  0
 19 24  1  0  0  0  0
 19 20  2  0  0  0  0
 20 21  1  0  0  0  0
 20 42  1  0  0  0  0
 21 22  2  0  0  0  0
 21 43  1  0  0  0  0
 22 23  1  0  0  0  0
 22 44  1  0  0  0  0
 23 24  2  0  0  0  0
 23 45  1  0  0  0  0
 24 25  1  0  0  0  0
 25 46  1  0  0  0  0
 25 47  1  0  0  0  0
 25 48  1  0  0  0  0
M  CHG  1   8   1
M  END
> <s_m_source_file>
AV-unprocessed.smi

> <i_m_source_file_index>
502

> <i_lp_mmshare_version>
43012

> <i_f3d_flags>
0

> <s_epik_input>
W0NIM11DKD1PKVtOSF1bQ0gyXVtDSDJdYyhuMSluKGMoYzEyKVtjSF1bY0hdW2NIXVtjSF0yKVtDSDJdW0NIMl1PYzNbY0hdW2NIXVtjSF1bY0hdYzNbQ0gzXQ==

> <s_epik_cmdline>
J2VwaWtfcHl0aG9uJywgJy1waCcsICc3LjAnLCAnLXRuJywgJzgnLCAnLW1hJywgJzIwMCcsICctbWV0YWxfYmluZGluZycsICctaW1hZScsICc8aW5maWxlLm1hZT4nLCAnLW9tYWUnLCAnPG91dGZpbGUubWFlPic=

> <r_lp_tautomer_probability>
1

> <r_epik_Ionization_Penalty>
1.10789

> <r_epik_Ionization_Penalty_Charging>
1.10789

> <r_epik_Ionization_Penalty_Neutral>
3.05925e-07

> <r_epik_State_Penalty>
1.16562

> <r_epik_Charging_Adjusted_Penalty>
2.27351

> <i_epik_Tot_Q>
1

> <i_epik_Tot_abs_Q>
1

> <r_epik_Metal_State_Penalty>
1.2518

> <b_epik_Metal_Only>
0

> <s_lp_Force_Field>
OPLS_2005

> <r_lp_Energy>
20.1677

> <b_lp_Chiralities_Consistent>
1

> <s_lp_Variant>
AV-unprocessed.smi:502-2

> <Gold.Version>
5.8.1

> <Gold.Id.Protein>
6NUR|6NUR_protein|mol2

> <Gold.PLP.Fitness>
53.6722

> <Gold.PLP.PLP>
-46.4821

> <Gold.PLP.part.hbond>
-2.7139

> <Gold.PLP.part.metal>
0.0000

> <Gold.PLP.part.buried>
-4.3127

> <Gold.PLP.part.nonpolar>
-39.6222

> <Gold.PLP.part.repulsive>
0.3185

> <Gold.PLP.ligand.clash>
0.0000

> <Gold.PLP.ligand.torsion>
1.1175

> <Gold.PLP.Chemscore.Hbond>
3.0000

> <Gold.PLP.Chemscore.CHOScore>
0.0000

> <Gold.PLP.Chemscore.Metal>
0.0000

> <Gold.Chemscore.Hbonds>
donor molecule, donor type, donor heavy atom, donor atom, acceptor molecule, acceptor atom, score
      L1  H     4    29       P1  7948  0.98
      L1  H     8    49       P1  7948  2.00

> <Gold.PLP.Chemscore.Internal.Correction>
0.4250

> <Gold.Rescore>
     Score         DG    S(hbond)    S(metal)    S(lipo)     H(rot)  DE(clash)    DE(int)     intcor
     17.34     -18.85       1.98        0.00     105.38       2.18       0.49       1.02       ----

> <Gold.Chemscore.Fitness>
17.3413

> <Gold.Chemscore.DG>
-18.8505

> <Gold.Chemscore.ZeroCoef>
-5.4800

> <Gold.Chemscore.Hbond>
1.9822

> <Gold.Chemscore.Metal>
0.0000

> <Gold.Chemscore.Lipo>
105.3763

> <Gold.Chemscore.Internal_Hbond>
0.0000

> <Gold.Chemscore.DEClash>
0.4870

> <Gold.Chemscore.DEInternal>
1.0222

> <Gold.Chemscore.Rot>
2.1793

> <Gold.Chemscore.Internal.Correction>
   9.000000E+99

> <Gold.Chemscore.Hbonds>
donor molecule, donor type, donor heavy atom, donor atom, acceptor molecule, acceptor atom, score
      L1  H     4    29       P1  7948  0.90
      L1  H     8    49       P1  7948  0.95

> <Gold.Chemscore.Hbond.Weighted>
-6.6206

> <Gold.Chemscore.Metal.Weighted>
-0.0000

> <Gold.Chemscore.Lipo.Weighted>
-12.3290

> <Gold.Chemscore.Internal_Hbond.Weighted>
0.0000

> <Gold.Chemscore.DEClash.Weighted>
0.4870

> <Gold.Chemscore.DEInternal.Weighted>
1.0222

> <Gold.Chemscore.Rot.Weighted>
5.5791

> <Gold.Chemscore.Internal.Correction.Weighted>
   9.000000E+99

> <Gold.Protein.RotatedTorsions>
[ 6907 6896 6895 6894 ] final  -86.91 input  -60.11 | X-H torsion
[ 7974 7965 7964 7962 ] final -153.53 input  175.53 | X-H torsion
[ 8008 7997 7996 7995 ] final  -38.61 input   59.86 | X-H torsion
[ 10167 10162 10161 10158 ] final -124.56 input  -65.29 | X-H torsion
[ 10718 10713 10712 10709 ] final  141.74 input   66.30 | X-H torsion
[ 10763 10752 10751 10750 ] final  118.29 input  -60.55 | X-H torsion
[ 11005 11000 10999 10996 ] final -144.44 input  -57.11 | X-H torsion

> <Gold.Protein.ActiveResidues>
 VAL166  LYS551  ARG553  GLY616  TRP617  ASP618  TYR619  PRO620  LYS621  CYS622 
 ASP623  PHE694  ASN695  SER759  ASP760  ASP761  ALA762  ILE779  LEU786  VAL792 
 PHE793  MET794  SER795  GLU796  ALA797  LYS798  CYS799  TRP800  GLU811  SER814 

> <Gold.Protein.RotatedAtoms>
  150.6866  134.2977  159.4692 H   0  0  0  0  0  0  0  0  0  0  0  0  # atno 6907 bound_to 6896
  152.0876  134.9426  160.0581 H   0  0  0  0  0  0  0  0  0  0  0  0  # atno 6908 bound_to 6896
  152.0755  133.4092  159.4515 H   0  0  0  0  0  0  0  0  0  0  0  0  # atno 6909 bound_to 6896
  144.7736  140.4513  143.5889 H   0  0  0  0  0  0  0  0  0  0  0  0  # atno 7974 bound_to 7965
  154.4034  140.1573  156.2729 H   0  0  0  0  0  0  0  0  0  0  0  0  # atno 8008 bound_to 7997
  155.8937  140.3437  155.5953 H   0  0  0  0  0  0  0  0  0  0  0  0  # atno 8009 bound_to 7997
  155.7528  140.0807  157.2183 H   0  0  0  0  0  0  0  0  0  0  0  0  # atno 8010 bound_to 7997
  139.9915  143.5636  152.2340 H   0  0  0  0  0  0  0  0  0  0  0  0  # atno 10167 bound_to 10162
  157.3885  131.1001  151.0670 H   0  0  0  0  0  0  0  0  0  0  0  0  # atno 10718 bound_to 10713
  153.5654  135.3512  155.2816 H   0  0  0  0  0  0  0  0  0  0  0  0  # atno 10763 bound_to 10752
  154.8689  135.4146  154.2785 H   0  0  0  0  0  0  0  0  0  0  0  0  # atno 10764 bound_to 10752
  153.3539  135.7056  153.6836 H   0  0  0  0  0  0  0  0  0  0  0  0  # atno 10765 bound_to 10752
  140.8024  134.2841  157.4973 H   0  0  0  0  0  0  0  0  0  0  0  0  # atno 11005 bound_to 11000
  145.6252  139.1529  143.3000 LP  0  0  0  0  0  0  0  0  0  0  0  0  # atno 17320 bound_to 7965
  146.1900  140.6359  142.9150 LP  0  0  0  0  0  0  0  0  0  0  0  0  # atno 17321 bound_to 7965
  139.6336  144.7647  151.2484 LP  0  0  0  0  0  0  0  0  0  0  0  0  # atno 17342 bound_to 10162
  140.7453  143.6436  150.8312 LP  0  0  0  0  0  0  0  0  0  0  0  0  # atno 17343 bound_to 10162
  157.1712  130.6268  149.5641 LP  0  0  0  0  0  0  0  0  0  0  0  0  # atno 17370 bound_to 10713
  155.9792  130.4784  150.6704 LP  0  0  0  0  0  0  0  0  0  0  0  0  # atno 17371 bound_to 10713
  139.8720  134.9437  156.3860 LP  0  0  0  0  0  0  0  0  0  0  0  0  # atno 17394 bound_to 11000
  140.9281  133.7598  155.9990 LP  0  0  0  0  0  0  0  0  0  0  0  0  # atno 17395 bound_to 11000

$$$$
