AV-unprocessed.smi:131|AV-procd|sdf|1161|dock9
  -GOLD-   2262018303D 1   1.00000     0.00000
 Structure written by MMmdl.
 55 58  0  0  0  0  0  0  0  0  1 V2000
  153.9665  135.4436  159.6625 O   0  0  0  0  0  0  0  0  0  0  0  0
  154.3751  136.6047  159.6970 C   0  0  0  0  0  0  0  0  0  0  0  0
  153.7107  137.6287  160.6311 C   0  0  0  0  0  0  0  0  0  0  0  0
  153.2108  138.8252  159.9193 N   0  0  0  0  0  0  0  0  0  0  0  0
  152.3726  138.6384  158.7921 C   0  0  0  0  0  0  0  0  0  0  0  0
  152.0716  137.5097  158.4006 O   0  0  0  0  0  0  0  0  0  0  0  0
  151.9002  139.8591  158.1489 C   0  0  0  0  0  0  0  0  0  0  0  0
  151.1146  139.7769  157.0618 F   0  0  0  0  0  0  0  0  0  0  0  0
  152.2400  141.0736  158.6275 C   0  0  0  0  0  0  0  0  0  0  0  0
  153.0423  141.2414  159.7424 N   0  0  0  0  0  0  0  0  0  0  0  0
  153.4040  142.6119  160.2759 C   0  0  2  0  0  0  0  0  0  0  0  0
  152.8646  142.7967  161.7078 C   0  0  0  0  0  0  0  0  0  0  0  0
  152.1025  144.1038  161.6145 C   0  0  0  0  0  0  0  0  0  0  0  0
  151.6641  144.1093  160.1581 C   0  0  0  0  0  0  0  0  0  0  0  0
  152.8096  143.6025  159.4860 O   0  0  0  0  0  0  0  0  0  0  0  0
  153.5563  140.1075  160.4083 C   0  0  0  0  0  0  0  0  0  0  0  0
  154.2806  140.2364  161.3980 O   0  0  0  0  0  0  0  0  0  0  0  0
  155.4220  137.0695  158.9903 N   0  0  0  0  0  0  0  0  0  0  0  0
  156.2352  136.3983  158.0355 C   0  0  0  0  0  0  0  0  0  0  0  0
  155.7621  135.1580  157.5552 C   0  0  0  0  0  0  0  0  0  0  0  0
  156.5114  134.4157  156.6221 C   0  0  0  0  0  0  0  0  0  0  0  0
  157.7462  134.9165  156.1677 C   0  0  0  0  0  0  0  0  0  0  0  0
  158.7213  133.9730  155.0029 S   0  0  0  0  0  0  0  0  0  0  0  0
  160.0865  133.8044  155.5255 O   0  0  0  0  0  0  0  0  0  0  0  0
  157.9275  132.7992  154.6073 O   0  0  0  0  0  0  0  0  0  0  0  0
  158.8029  135.0311  153.6348 N   0  0  0  0  0  0  0  0  0  0  0  0
  157.5578  135.5473  153.0527 C   0  0  0  0  0  0  0  0  0  0  0  0
  157.7040  135.3629  151.5415 C   0  0  0  0  0  0  0  0  0  0  0  0
  159.2086  135.4310  151.3213 C   0  0  0  0  0  0  0  0  0  0  0  0
  159.7731  134.7525  152.5686 C   0  0  0  0  0  0  0  0  0  0  0  0
  158.2390  136.1451  156.6469 C   0  0  0  0  0  0  0  0  0  0  0  0
  157.4883  136.8828  157.5825 C   0  0  0  0  0  0  0  0  0  0  0  0
  152.9097  137.1236  161.1728 H   0  0  0  0  0  0  0  0  0  0  0  0
  154.4162  137.9165  161.4128 H   0  0  0  0  0  0  0  0  0  0  0  0
  151.8589  141.9361  158.1028 H   0  0  0  0  0  0  0  0  0  0  0  0
  154.4901  142.6828  160.1934 H   0  0  0  0  0  0  0  0  0  0  0  0
  152.1882  141.9802  161.9663 H   0  0  0  0  0  0  0  0  0  0  0  0
  153.6791  142.8248  162.4320 H   0  0  0  0  0  0  0  0  0  0  0  0
  151.2674  144.1634  162.3129 H   0  0  0  0  0  0  0  0  0  0  0  0
  152.7718  144.9437  161.8057 H   0  0  0  0  0  0  0  0  0  0  0  0
  150.8118  143.4454  160.0061 H   0  0  0  0  0  0  0  0  0  0  0  0
  151.3956  145.1036  159.8011 H   0  0  0  0  0  0  0  0  0  0  0  0
  155.6924  138.0220  159.1890 H   0  0  0  0  0  0  0  0  0  0  0  0
  154.8159  134.7686  157.9019 H   0  0  0  0  0  0  0  0  0  0  0  0
  156.1365  133.4688  156.2634 H   0  0  0  0  0  0  0  0  0  0  0  0
  156.6870  135.0166  153.4392 H   0  0  0  0  0  0  0  0  0  0  0  0
  157.4587  136.6015  153.3124 H   0  0  0  0  0  0  0  0  0  0  0  0
  157.3326  134.3791  151.2509 H   0  0  0  0  0  0  0  0  0  0  0  0
  157.1570  136.1127  150.9693 H   0  0  0  0  0  0  0  0  0  0  0  0
  159.5247  134.9475  150.3966 H   0  0  0  0  0  0  0  0  0  0  0  0
  159.5312  136.4726  151.2859 H   0  0  0  0  0  0  0  0  0  0  0  0
  160.7632  135.1225  152.8359 H   0  0  0  0  0  0  0  0  0  0  0  0
  159.8409  133.6758  152.4101 H   0  0  0  0  0  0  0  0  0  0  0  0
  159.1929  136.5193  156.3049 H   0  0  0  0  0  0  0  0  0  0  0  0
  157.9056  137.8086  157.9453 H   0  0  0  0  0  0  0  0  0  0  0  0
  1  2  2  0  0  0  0
  2  3  1  0  0  0  0
  2 18  1  0  0  0  0
  3  4  1  0  0  0  0
  3 33  1  0  0  0  0
  3 34  1  0  0  0  0
  4 16  1  0  0  0  0
  4  5  1  0  0  0  0
  5  6  2  0  0  0  0
  5  7  1  0  0  0  0
  7  8  1  0  0  0  0
  7  9  2  0  0  0  0
  9 10  1  0  0  0  0
  9 35  1  0  0  0  0
 10 11  1  0  0  0  0
 10 16  1  0  0  0  0
 11 15  1  0  0  0  0
 11 12  1  0  0  0  0
 11 36  1  0  0  0  0
 12 13  1  0  0  0  0
 12 37  1  0  0  0  0
 12 38  1  0  0  0  0
 13 14  1  0  0  0  0
 13 39  1  0  0  0  0
 13 40  1  0  0  0  0
 14 15  1  0  0  0  0
 14 41  1  0  0  0  0
 14 42  1  0  0  0  0
 16 17  2  0  0  0  0
 18 19  1  0  0  0  0
 18 43  1  0  0  0  0
 19 32  1  0  0  0  0
 19 20  2  0  0  0  0
 20 21  1  0  0  0  0
 20 44  1  0  0  0  0
 21 22  2  0  0  0  0
 21 45  1  0  0  0  0
 22 23  1  0  0  0  0
 22 31  1  0  0  0  0
 23 24  2  0  0  0  0
 23 25  2  0  0  0  0
 23 26  1  0  0  0  0
 26 30  1  0  0  0  0
 26 27  1  0  0  0  0
 27 28  1  0  0  0  0
 27 46  1  0  0  0  0
 27 47  1  0  0  0  0
 28 29  1  0  0  0  0
 28 48  1  0  0  0  0
 28 49  1  0  0  0  0
 29 30  1  0  0  0  0
 29 50  1  0  0  0  0
 29 51  1  0  0  0  0
 30 52  1  0  0  0  0
 30 53  1  0  0  0  0
 31 32  2  0  0  0  0
 31 54  1  0  0  0  0
 32 55  1  0  0  0  0
M  END
> <s_m_source_file>
AV-unprocessed.smi

> <i_m_source_file_index>
131

> <i_lp_mmshare_version>
43012

> <i_f3d_flags>
0

> <s_epik_input>
W0NIMl0xW0NIMl1bQ0gyXVtDSDJdTjFTKD1PKSg9TyljKFtjSF1bY0hdMilbY0hdW2NIXWMyW05IXUMoPU8pW0NIMl1uM2MoPU8pYyhGKVtjSF1uKGMzPU8pW0NAQEhdNFtDSDJdW0NIMl1bQ0gyXU80

> <s_epik_cmdline>
J2VwaWtfcHl0aG9uJywgJy1waCcsICc3LjAnLCAnLXRuJywgJzgnLCAnLW1hJywgJzIwMCcsICctbWV0YWxfYmluZGluZycsICctaW1hZScsICc8aW5maWxlLm1hZT4nLCAnLW9tYWUnLCAnPG91dGZpbGUubWFlPic=

> <r_lp_tautomer_probability>
1

> <r_epik_Ionization_Penalty>
1.92533e-06

> <r_epik_Ionization_Penalty_Charging>
3.88729e-08

> <r_epik_Ionization_Penalty_Neutral>
1.88646e-06

> <r_epik_State_Penalty>
-0

> <r_epik_Charging_Adjusted_Penalty>
3.88729e-08

> <i_epik_Tot_Q>
0

> <i_epik_Tot_abs_Q>
0

> <r_epik_Metal_State_Penalty>
-0

> <b_epik_Metal_Only>
0

> <s_epik_Chemistry_Notes>
This compound contains an acetal/aminal-like group ( X-CH(R)-Y where X, Y are N, S, or O) that may be acid/base labile, releasing an aldehyde.

> <s_lp_Force_Field>
OPLS_2005

> <r_lp_Energy>
42.8804

> <b_lp_Chiralities_Consistent>
1

> <s_lp_Variant>
AV-unprocessed.smi:131-1

> <Gold.Version>
5.8.1

> <Gold.Id.Protein>
6NUR|6NUR_protein|mol2

> <Gold.PLP.Fitness>
51.7783

> <Gold.PLP.PLP>
-49.2200

> <Gold.PLP.part.hbond>
-1.0000

> <Gold.PLP.part.metal>
0.0000

> <Gold.PLP.part.buried>
-8.0871

> <Gold.PLP.part.nonpolar>
-40.1207

> <Gold.PLP.part.repulsive>
0.1184

> <Gold.PLP.ligand.clash>
0.0000

> <Gold.PLP.ligand.torsion>
1.5331

> <Gold.PLP.Chemscore.Hbond>
1.0000

> <Gold.PLP.Chemscore.CHOScore>
0.0000

> <Gold.PLP.Chemscore.Metal>
0.0000

> <Gold.Chemscore.Hbonds>
donor molecule, donor type, donor heavy atom, donor atom, acceptor molecule, acceptor atom, score
      P1  H  6896  6908       L1     1  1.00

> <Gold.PLP.Chemscore.Internal.Correction>
2.6246

> <Gold.Rescore>
     Score         DG    S(hbond)    S(metal)    S(lipo)     H(rot)  DE(clash)    DE(int)     intcor
     12.03     -17.42       0.99        0.00     115.78       1.92       0.05       5.34       ----

> <Gold.Chemscore.Fitness>
12.0291

> <Gold.Chemscore.DG>
-17.4219

> <Gold.Chemscore.ZeroCoef>
-5.4800

> <Gold.Chemscore.Hbond>
0.9885

> <Gold.Chemscore.Metal>
0.0000

> <Gold.Chemscore.Lipo>
115.7838

> <Gold.Chemscore.Internal_Hbond>
0.0000

> <Gold.Chemscore.DEClash>
0.0517

> <Gold.Chemscore.DEInternal>
5.3412

> <Gold.Chemscore.Rot>
1.9166

> <Gold.Chemscore.Internal.Correction>
   9.000000E+99

> <Gold.Chemscore.Hbonds>
donor molecule, donor type, donor heavy atom, donor atom, acceptor molecule, acceptor atom, score
      P1  H  6896  6908       L1     1  1.00

> <Gold.Chemscore.Hbond.Weighted>
-3.3016

> <Gold.Chemscore.Metal.Weighted>
-0.0000

> <Gold.Chemscore.Lipo.Weighted>
-13.5467

> <Gold.Chemscore.Internal_Hbond.Weighted>
0.0000

> <Gold.Chemscore.DEClash.Weighted>
0.0517

> <Gold.Chemscore.DEInternal.Weighted>
5.3412

> <Gold.Chemscore.Rot.Weighted>
4.9064

> <Gold.Chemscore.Internal.Correction.Weighted>
   9.000000E+99

> <Gold.Protein.RotatedTorsions>
[ 6907 6896 6895 6894 ] final  -52.40 input  -60.11 | X-H torsion
[ 7974 7965 7964 7962 ] final  116.42 input  175.53 | X-H torsion
[ 8008 7997 7996 7995 ] final   45.28 input   59.86 | X-H torsion
[ 10167 10162 10161 10158 ] final   62.72 input  -65.29 | X-H torsion
[ 10718 10713 10712 10709 ] final   33.84 input   66.30 | X-H torsion
[ 10763 10752 10751 10750 ] final -149.19 input  -60.55 | X-H torsion
[ 11005 11000 10999 10996 ] final   37.78 input  -57.11 | X-H torsion

> <Gold.Protein.ActiveResidues>
 VAL166  LYS551  ARG553  GLY616  TRP617  ASP618  TYR619  PRO620  LYS621  CYS622 
 ASP623  PHE694  ASN695  SER759  ASP760  ASP761  ALA762  ILE779  LEU786  VAL792 
 PHE793  MET794  SER795  GLU796  ALA797  LYS798  CYS799  TRP800  GLU811  SER814 

> <Gold.Protein.RotatedAtoms>
  150.8521  134.7849  159.7016 H   0  0  0  0  0  0  0  0  0  0  0  0  # atno 6907 bound_to 6896
  152.4583  134.5239  159.9800 H   0  0  0  0  0  0  0  0  0  0  0  0  # atno 6908 bound_to 6896
  151.5358  133.3403  159.2962 H   0  0  0  0  0  0  0  0  0  0  0  0  # atno 6909 bound_to 6896
  145.1799  139.3056  143.4423 H   0  0  0  0  0  0  0  0  0  0  0  0  # atno 7974 bound_to 7965
  155.3332  140.3404  155.4239 H   0  0  0  0  0  0  0  0  0  0  0  0  # atno 8008 bound_to 7997
  156.1851  140.1677  156.8237 H   0  0  0  0  0  0  0  0  0  0  0  0  # atno 8009 bound_to 7997
  154.5377  140.0731  156.8439 H   0  0  0  0  0  0  0  0  0  0  0  0  # atno 8010 bound_to 7997
  140.1408  144.4555  150.6812 H   0  0  0  0  0  0  0  0  0  0  0  0  # atno 10167 bound_to 10162
  157.3029  130.7360  149.6678 H   0  0  0  0  0  0  0  0  0  0  0  0  # atno 10718 bound_to 10713
  154.8191  135.3315  154.7091 H   0  0  0  0  0  0  0  0  0  0  0  0  # atno 10763 bound_to 10752
  153.7727  135.6924  153.4908 H   0  0  0  0  0  0  0  0  0  0  0  0  # atno 10764 bound_to 10752
  153.2034  135.4508  155.0242 H   0  0  0  0  0  0  0  0  0  0  0  0  # atno 10765 bound_to 10752
  140.2191  134.3662  155.8013 H   0  0  0  0  0  0  0  0  0  0  0  0  # atno 11005 bound_to 11000
  146.3455  140.1974  142.8589 LP  0  0  0  0  0  0  0  0  0  0  0  0  # atno 17320 bound_to 7965
  145.0147  140.8744  143.5203 LP  0  0  0  0  0  0  0  0  0  0  0  0  # atno 17321 bound_to 7965
  140.6762  143.2306  151.5502 LP  0  0  0  0  0  0  0  0  0  0  0  0  # atno 17342 bound_to 10162
  139.5473  144.2487  152.1466 LP  0  0  0  0  0  0  0  0  0  0  0  0  # atno 17343 bound_to 10162
  155.9672  130.4274  150.4744 LP  0  0  0  0  0  0  0  0  0  0  0  0  # atno 17370 bound_to 10713
  157.2728  131.0590  151.2248 LP  0  0  0  0  0  0  0  0  0  0  0  0  # atno 17371 bound_to 10713
  141.2224  133.7184  156.8546 LP  0  0  0  0  0  0  0  0  0  0  0  0  # atno 17394 bound_to 11000
  140.1869  134.8994  157.3014 LP  0  0  0  0  0  0  0  0  0  0  0  0  # atno 17395 bound_to 11000

$$$$
