AV-unprocessed.smi:1131|AV-procd|sdf|4852|dock1
  -GOLD-   22720 3423D 1   1.00000     0.00000
 Structure written by MMmdl.
 32 33  0  0  0  0  0  0  0  0  2 V2000
  151.2219  140.5414  155.3304 O   0  0  0  0  0  0  0  0  0  0  0  0
  150.4894  141.5254  155.2210 C   0  0  0  0  0  0  0  0  0  0  0  0
  149.5880  141.6910  153.9914 C   0  0  0  0  0  0  0  0  0  0  0  0
  148.1667  141.8095  154.3522 N   0  0  0  0  0  0  0  0  0  0  0  0
  147.5199  143.0284  154.0824 C   0  0  0  0  0  0  0  0  0  0  0  0
  146.2216  143.2247  154.3815 C   0  0  0  0  0  0  0  0  0  0  0  0
  145.4830  142.1317  155.0019 C   0  0  0  0  0  0  0  0  0  0  0  0
  144.2958  142.2918  155.2783 O   0  0  0  0  0  0  0  0  0  0  0  0
  146.1562  140.9697  155.2476 N   0  5  0  0  0  0  0  0  0  0  0  0
  147.4773  140.7848  154.9395 C   0  0  0  0  0  0  0  0  0  0  0  0
  148.0662  139.7280  155.1714 O   0  0  0  0  0  0  0  0  0  0  0  0
  150.4101  142.4920  156.1471 N   0  0  0  0  0  0  0  0  0  0  0  0
  151.2110  142.5587  157.3639 C   0  0  0  0  0  0  0  0  0  0  0  0
  151.2995  143.9947  157.9172 C   0  0  2  0  0  0  0  0  0  0  0  0
  152.3757  144.1853  158.9658 C   0  0  0  0  0  0  0  0  0  0  0  0
  151.9201  145.4750  159.6367 C   0  0  0  0  0  0  0  0  0  0  0  0
  150.4998  145.3971  159.6539 O   0  0  0  0  0  0  0  0  0  0  0  0
  150.0492  144.4796  158.6593 C   0  0  0  0  0  0  0  0  0  0  0  0
  149.9217  142.5725  153.4426 H   0  0  0  0  0  0  0  0  0  0  0  0
  149.7285  140.8544  153.3041 H   0  0  0  0  0  0  0  0  0  0  0  0
  148.1390  143.7878  153.6279 H   0  0  0  0  0  0  0  0  0  0  0  0
  145.7399  144.1680  154.1700 H   0  0  0  0  0  0  0  0  0  0  0  0
  149.7774  143.2598  155.9740 H   0  0  0  0  0  0  0  0  0  0  0  0
  150.7532  141.9000  158.1023 H   0  0  0  0  0  0  0  0  0  0  0  0
  152.2099  142.1629  157.1736 H   0  0  0  0  0  0  0  0  0  0  0  0
  151.5024  144.6880  157.0989 H   0  0  0  0  0  0  0  0  0  0  0  0
  152.3623  143.3648  159.6849 H   0  0  0  0  0  0  0  0  0  0  0  0
  153.3785  144.2568  158.5436 H   0  0  0  0  0  0  0  0  0  0  0  0
  152.3279  145.5953  160.6405 H   0  0  0  0  0  0  0  0  0  0  0  0
  152.2176  146.3393  159.0414 H   0  0  0  0  0  0  0  0  0  0  0  0
  149.3329  144.9503  157.9848 H   0  0  0  0  0  0  0  0  0  0  0  0
  149.5441  143.6534  159.1610 H   0  0  0  0  0  0  0  0  0  0  0  0
  1  2  2  0  0  0  0
  2  3  1  0  0  0  0
  2 12  1  0  0  0  0
  3  4  1  0  0  0  0
  3 19  1  0  0  0  0
  3 20  1  0  0  0  0
  4 10  1  0  0  0  0
  4  5  1  0  0  0  0
  5  6  2  0  0  0  0
  5 21  1  0  0  0  0
  6  7  1  0  0  0  0
  6 22  1  0  0  0  0
  7  8  2  0  0  0  0
  7  9  1  0  0  0  0
  9 10  1  0  0  0  0
 10 11  2  0  0  0  0
 12 13  1  0  0  0  0
 12 23  1  0  0  0  0
 13 14  1  0  0  0  0
 13 24  1  0  0  0  0
 13 25  1  0  0  0  0
 14 18  1  0  0  0  0
 14 15  1  0  0  0  0
 14 26  1  0  0  0  0
 15 16  1  0  0  0  0
 15 27  1  0  0  0  0
 15 28  1  0  0  0  0
 16 17  1  0  0  0  0
 16 29  1  0  0  0  0
 16 30  1  0  0  0  0
 17 18  1  0  0  0  0
 18 31  1  0  0  0  0
 18 32  1  0  0  0  0
M  CHG  1   9  -1
M  END
> <s_m_source_file>
AV-unprocessed.smi

> <i_m_source_file_index>
1131

> <i_lp_mmshare_version>
43012

> <i_f3d_flags>
0

> <s_epik_input>
W0NIMl0xT1tDSDJdW0NIMl1bQ0BIXTFbQ0gyXVtOSF1DKD1PKVtDSDJdbjJbY0hdW2NIXWMoPU8pW25IXWMyPU8=

> <s_epik_cmdline>
J2VwaWtfcHl0aG9uJywgJy1waCcsICc3LjAnLCAnLXRuJywgJzgnLCAnLW1hJywgJzIwMCcsICctbWV0YWxfYmluZGluZycsICctaW1hZScsICc8aW5maWxlLm1hZT4nLCAnLW9tYWUnLCAnPG91dGZpbGUubWFlPic=

> <r_lp_tautomer_probability>
0.999537

> <r_epik_Ionization_Penalty>
3.07866

> <r_epik_Ionization_Penalty_Charging>
2.6898e-08

> <r_epik_Ionization_Penalty_Neutral>
3.07866

> <r_epik_State_Penalty>
3.07769

> <r_epik_Charging_Adjusted_Penalty>
3.07769

> <i_epik_Tot_Q>
-1

> <i_epik_Tot_abs_Q>
1

> <r_epik_Metal_State_Penalty>
0.459839

> <b_epik_Metal_Only>
1

> <s_lp_Force_Field>
OPLS_2005

> <r_lp_Energy>
26.4243

> <b_lp_Chiralities_Consistent>
1

> <s_lp_Variant>
AV-unprocessed.smi:1131-3

> <Gold.Version>
5.8.1

> <Gold.Id.Protein>
6NUR|6NUR_protein|mol2

> <Gold.PLP.Fitness>
38.0479

> <Gold.PLP.PLP>
-31.2109

> <Gold.PLP.part.hbond>
-2.0000

> <Gold.PLP.part.metal>
0.0000

> <Gold.PLP.part.buried>
-3.1016

> <Gold.PLP.part.nonpolar>
-25.7763

> <Gold.PLP.part.repulsive>
0.3408

> <Gold.PLP.ligand.clash>
0.0000

> <Gold.PLP.ligand.torsion>
0.3138

> <Gold.PLP.Chemscore.Hbond>
1.6960

> <Gold.PLP.Chemscore.CHOScore>
0.7873

> <Gold.PLP.Chemscore.Metal>
0.0000

> <Gold.Chemscore.Hbonds>
donor molecule, donor type, donor heavy atom, donor atom, acceptor molecule, acceptor atom, score
      L1  H    12    23       P1  8028  1.00
      P1  H  7989  7998       L1     1  0.18
      L1  C     5    21       P1  8028  0.33

> <Gold.PLP.Chemscore.Internal.Correction>
0.0146

> <Gold.Rescore>
     Score         DG    S(hbond)    S(metal)    S(lipo)     H(rot)  DE(clash)    DE(int)     intcor
     12.12     -13.64       1.52        0.00      71.04       2.05       0.06       1.47       ----

> <Gold.Chemscore.Fitness>
12.1160

> <Gold.Chemscore.DG>
-13.6399

> <Gold.Chemscore.ZeroCoef>
-5.4800

> <Gold.Chemscore.Hbond>
1.5230

> <Gold.Chemscore.Metal>
0.0000

> <Gold.Chemscore.Lipo>
71.0410

> <Gold.Chemscore.Internal_Hbond>
0.0000

> <Gold.Chemscore.DEClash>
0.0582

> <Gold.Chemscore.DEInternal>
1.4657

> <Gold.Chemscore.Rot>
2.0463

> <Gold.Chemscore.Internal.Correction>
   9.000000E+99

> <Gold.Chemscore.Hbonds>
donor molecule, donor type, donor heavy atom, donor atom, acceptor molecule, acceptor atom, score
      L1  H    12    23       P1  8028  1.00

> <Gold.Chemscore.Hbond.Weighted>
-5.0867

> <Gold.Chemscore.Metal.Weighted>
-0.0000

> <Gold.Chemscore.Lipo.Weighted>
-8.3118

> <Gold.Chemscore.Internal_Hbond.Weighted>
0.0000

> <Gold.Chemscore.DEClash.Weighted>
0.0582

> <Gold.Chemscore.DEInternal.Weighted>
1.4657

> <Gold.Chemscore.Rot.Weighted>
5.2386

> <Gold.Chemscore.Internal.Correction.Weighted>
   9.000000E+99

> <Gold.Protein.RotatedTorsions>
[ 6907 6896 6895 6894 ] final -102.33 input  -60.11 | X-H torsion
[ 7974 7965 7964 7962 ] final  107.68 input  175.53 | X-H torsion
[ 8008 7997 7996 7995 ] final   97.41 input   59.86 | X-H torsion
[ 10167 10162 10161 10158 ] final   66.29 input  -65.29 | X-H torsion
[ 10718 10713 10712 10709 ] final   63.28 input   66.30 | X-H torsion
[ 10763 10752 10751 10750 ] final  176.52 input  -60.55 | X-H torsion
[ 11005 11000 10999 10996 ] final  -90.37 input  -57.11 | X-H torsion

> <Gold.Protein.ActiveResidues>
 VAL166  LYS551  ARG553  GLY616  TRP617  ASP618  TYR619  PRO620  LYS621  CYS622 
 ASP623  PHE694  ASN695  SER759  ASP760  ASP761  ALA762  ILE779  LEU786  VAL792 
 PHE793  MET794  SER795  GLU796  ALA797  LYS798  CYS799  TRP800  GLU811  SER814 

> <Gold.Protein.RotatedAtoms>
  150.7191  134.0598  159.3826 H   0  0  0  0  0  0  0  0  0  0  0  0  # atno 6907 bound_to 6896
  151.8577  135.0533  160.0475 H   0  0  0  0  0  0  0  0  0  0  0  0  # atno 6908 bound_to 6896
  152.2741  133.5374  159.5494 H   0  0  0  0  0  0  0  0  0  0  0  0  # atno 6909 bound_to 6896
  145.2905  139.2602  143.3867 H   0  0  0  0  0  0  0  0  0  0  0  0  # atno 7974 bound_to 7965
  156.0898  140.3259  155.7801 H   0  0  0  0  0  0  0  0  0  0  0  0  # atno 8008 bound_to 7997
  155.5015  140.0569  157.2955 H   0  0  0  0  0  0  0  0  0  0  0  0  # atno 8009 bound_to 7997
  154.4631  140.1976  156.0207 H   0  0  0  0  0  0  0  0  0  0  0  0  # atno 8010 bound_to 7997
  140.1020  144.4895  150.7031 H   0  0  0  0  0  0  0  0  0  0  0  0  # atno 10167 bound_to 10162
  157.5960  130.9097  149.9696 H   0  0  0  0  0  0  0  0  0  0  0  0  # atno 10718 bound_to 10713
  154.4822  135.2775  155.1561 H   0  0  0  0  0  0  0  0  0  0  0  0  # atno 10763 bound_to 10752
  154.3267  135.6198  153.5536 H   0  0  0  0  0  0  0  0  0  0  0  0  # atno 10764 bound_to 10752
  152.9877  135.5755  154.5226 H   0  0  0  0  0  0  0  0  0  0  0  0  # atno 10765 bound_to 10752
  141.1567  133.7688  156.9728 H   0  0  0  0  0  0  0  0  0  0  0  0  # atno 11005 bound_to 11000
  146.3186  140.3395  142.8647 LP  0  0  0  0  0  0  0  0  0  0  0  0  # atno 17320 bound_to 7965
  144.9176  140.7831  143.5768 LP  0  0  0  0  0  0  0  0  0  0  0  0  # atno 17321 bound_to 7965
  140.6972  143.2411  151.4966 LP  0  0  0  0  0  0  0  0  0  0  0  0  # atno 17342 bound_to 10162
  139.5666  144.2028  152.1774 LP  0  0  0  0  0  0  0  0  0  0  0  0  # atno 17343 bound_to 10162
  156.1023  130.3655  150.0195 LP  0  0  0  0  0  0  0  0  0  0  0  0  # atno 17370 bound_to 10713
  156.8308  130.9392  151.3637 LP  0  0  0  0  0  0  0  0  0  0  0  0  # atno 17371 bound_to 10713
  140.1118  134.9472  157.2076 LP  0  0  0  0  0  0  0  0  0  0  0  0  # atno 17394 bound_to 11000
  140.3184  134.2944  155.7251 LP  0  0  0  0  0  0  0  0  0  0  0  0  # atno 17395 bound_to 11000

$$$$
