AV-unprocessed.smi:104|AV-procd|sdf|1000|dock5
  -GOLD-   2262017583D 1   1.00000     0.00000
 Structure written by MMmdl.
 47 49  0  0  0  0  0  0  0  0  1 V2000
  153.7940  137.5929  159.8737 C   0  0  0  0  0  0  0  0  0  0  0  0
  153.4830  138.4373  158.6446 C   0  0  0  0  0  0  0  0  0  0  0  0
  153.4985  139.6673  158.6909 O   0  0  0  0  0  0  0  0  0  0  0  0
  153.2099  137.6917  157.5637 O   0  0  0  0  0  0  0  0  0  0  0  0
  153.0279  138.3161  156.3029 C   0  0  0  0  0  0  0  0  0  0  0  0
  151.7699  137.7527  155.6138 C   0  0  1  0  0  0  0  0  0  0  0  0
  151.9078  136.3413  155.5359 O   0  0  0  0  0  0  0  0  0  0  0  0
  151.4148  135.7574  156.7028 C   0  0  2  0  0  0  0  0  0  0  0  0
  150.7045  134.4956  156.3170 N   0  0  0  0  0  0  0  0  0  0  0  0
  149.5628  134.3376  155.5652 C   0  0  0  0  0  0  0  0  0  0  0  0
  148.6197  135.8153  154.8212 Br  0  0  0  0  0  0  0  0  0  0  0  0
  149.1496  133.1185  155.3583 N   0  0  0  0  0  0  0  0  0  0  0  0
  150.1014  132.3562  156.0243 C   0  0  0  0  0  0  0  0  0  0  0  0
  150.2925  130.9644  156.2125 C   0  0  0  0  0  0  0  0  0  0  0  0
  149.4646  130.0383  155.7098 N   0  0  0  0  0  0  0  0  0  0  0  0
  151.3624  130.5489  156.9298 N   0  0  0  0  0  0  0  0  0  0  0  0
  152.2060  131.4524  157.4389 C   0  0  0  0  0  0  0  0  0  0  0  0
  152.1588  132.7842  157.3484 N   0  0  0  0  0  0  0  0  0  0  0  0
  151.0774  133.2026  156.6269 C   0  0  0  0  0  0  0  0  0  0  0  0
  150.4836  136.7805  157.3906 C   0  0  2  0  0  0  0  0  0  0  0  0
  149.1753  136.2613  157.6112 O   0  0  0  0  0  0  0  0  0  0  0  0
  148.4757  136.6166  158.6994 C   0  0  0  0  0  0  0  0  0  0  0  0
  147.1055  135.9540  158.7451 C   0  0  0  0  0  0  0  0  0  0  0  0
  148.8498  137.3857  159.5845 O   0  0  0  0  0  0  0  0  0  0  0  0
  150.4582  137.9287  156.3917 C   0  0  1  0  0  0  0  0  0  0  0  0
  150.3627  139.1751  157.0702 O   0  0  0  0  0  0  0  0  0  0  0  0
  150.4462  140.3266  156.3830 C   0  0  0  0  0  0  0  0  0  0  0  0
  150.3909  141.5478  157.2905 C   0  0  0  0  0  0  0  0  0  0  0  0
  150.5654  140.4363  155.1629 O   0  0  0  0  0  0  0  0  0  0  0  0
  153.9478  136.5486  159.6000 H   0  0  0  0  0  0  0  0  0  0  0  0
  152.9707  137.6468  160.5859 H   0  0  0  0  0  0  0  0  0  0  0  0
  154.6984  137.9567  160.3614 H   0  0  0  0  0  0  0  0  0  0  0  0
  152.9089  139.3873  156.4701 H   0  0  0  0  0  0  0  0  0  0  0  0
  153.9038  138.1836  155.6660 H   0  0  0  0  0  0  0  0  0  0  0  0
  151.6893  138.1600  154.6054 H   0  0  0  0  0  0  0  0  0  0  0  0
  152.2400  135.4431  157.3411 H   0  0  0  0  0  0  0  0  0  0  0  0
  148.6609  130.3228  155.1686 H   0  0  0  0  0  0  0  0  0  0  0  0
  149.6451  129.0584  155.8735 H   0  0  0  0  0  0  0  0  0  0  0  0
  153.0382  131.0513  157.9982 H   0  0  0  0  0  0  0  0  0  0  0  0
  150.9662  137.0817  158.3221 H   0  0  0  0  0  0  0  0  0  0  0  0
  147.2022  134.8744  158.6287 H   0  0  0  0  0  0  0  0  0  0  0  0
  146.4755  136.3340  157.9407 H   0  0  0  0  0  0  0  0  0  0  0  0
  146.6126  136.1564  159.6961 H   0  0  0  0  0  0  0  0  0  0  0  0
  149.6168  137.7805  155.7124 H   0  0  0  0  0  0  0  0  0  0  0  0
  149.4174  141.6134  157.7766 H   0  0  0  0  0  0  0  0  0  0  0  0
  150.5531  142.4598  156.7156 H   0  0  0  0  0  0  0  0  0  0  0  0
  151.1605  141.4840  158.0599 H   0  0  0  0  0  0  0  0  0  0  0  0
  1  2  1  0  0  0  0
  1 30  1  0  0  0  0
  1 31  1  0  0  0  0
  1 32  1  0  0  0  0
  2  3  2  0  0  0  0
  2  4  1  0  0  0  0
  4  5  1  0  0  0  0
  5  6  1  0  0  0  0
  5 33  1  0  0  0  0
  5 34  1  0  0  0  0
  6 25  1  0  0  0  0
  6  7  1  0  0  0  0
  6 35  1  0  0  0  0
  7  8  1  0  0  0  0
  8  9  1  0  0  0  0
  8 20  1  0  0  0  0
  8 36  1  0  0  0  0
  9 19  1  0  0  0  0
  9 10  1  0  0  0  0
 10 11  1  0  0  0  0
 10 12  2  0  0  0  0
 12 13  1  0  0  0  0
 13 19  2  0  0  0  0
 13 14  1  0  0  0  0
 14 15  1  0  0  0  0
 14 16  2  0  0  0  0
 15 37  1  0  0  0  0
 15 38  1  0  0  0  0
 16 17  1  0  0  0  0
 17 18  2  0  0  0  0
 17 39  1  0  0  0  0
 18 19  1  0  0  0  0
 20 21  1  0  0  0  0
 20 25  1  0  0  0  0
 20 40  1  0  0  0  0
 21 22  1  0  0  0  0
 22 23  1  0  0  0  0
 22 24  2  0  0  0  0
 23 41  1  0  0  0  0
 23 42  1  0  0  0  0
 23 43  1  0  0  0  0
 25 26  1  0  0  0  0
 25 44  1  0  0  0  0
 26 27  1  0  0  0  0
 27 28  1  0  0  0  0
 27 29  2  0  0  0  0
 28 45  1  0  0  0  0
 28 46  1  0  0  0  0
 28 47  1  0  0  0  0
M  END
> <s_m_source_file>
AV-unprocessed.smi

> <i_m_source_file_index>
104

> <i_lp_mmshare_version>
43012

> <i_f3d_flags>
0

> <s_epik_input>
W0NIM11DKD1PKU9bQ0gyXVtDQEBIXTFPW0NASF0oW0NAQEhdKE9DKD1PKVtDSDNdKVtDQEhdMU9DKD1PKVtDSDNdKW4oYyhCciluMiljKGMyMyluW2NIXW5jM1tOSDJd

> <s_epik_cmdline>
J2VwaWtfcHl0aG9uJywgJy1waCcsICc3LjAnLCAnLXRuJywgJzgnLCAnLW1hJywgJzIwMCcsICctbWV0YWxfYmluZGluZycsICctaW1hZScsICc8aW5maWxlLm1hZT4nLCAnLW9tYWUnLCAnPG91dGZpbGUubWFlPic=

> <r_lp_tautomer_probability>
1

> <r_epik_Ionization_Penalty>
7.36622e-05

> <r_epik_Ionization_Penalty_Charging>
0

> <r_epik_Ionization_Penalty_Neutral>
7.36622e-05

> <r_epik_State_Penalty>
-0

> <r_epik_Charging_Adjusted_Penalty>
0

> <i_epik_Tot_Q>
0

> <i_epik_Tot_abs_Q>
0

> <r_epik_Metal_State_Penalty>
-0

> <b_epik_Metal_Only>
0

> <s_epik_Chemistry_Notes>
This compound has an ester and may undergo hydrolysis at high or low pH. This compound contains an acetal/aminal-like group ( X-CH(R)-Y where X, Y are N, S, or O) that may be acid/base labile, releasing an aldehyde.

> <s_lp_Force_Field>
OPLS_2005

> <r_lp_Energy>
18.9649

> <b_lp_Chiralities_Consistent>
1

> <s_lp_Variant>
AV-unprocessed.smi:104-8

> <Gold.Version>
5.8.1

> <Gold.Id.Protein>
6NUR|6NUR_protein|mol2

> <Gold.PLP.Fitness>
36.4594

> <Gold.PLP.PLP>
-26.3181

> <Gold.PLP.part.hbond>
-5.3527

> <Gold.PLP.part.metal>
0.0000

> <Gold.PLP.part.buried>
-4.1854

> <Gold.PLP.part.nonpolar>
-18.3631

> <Gold.PLP.part.repulsive>
0.1329

> <Gold.PLP.ligand.clash>
0.0000

> <Gold.PLP.ligand.torsion>
0.9914

> <Gold.PLP.Chemscore.Hbond>
3.9922

> <Gold.PLP.Chemscore.CHOScore>
0.0000

> <Gold.PLP.Chemscore.Metal>
0.0000

> <Gold.Chemscore.Hbonds>
donor molecule, donor type, donor heavy atom, donor atom, acceptor molecule, acceptor atom, score
      P1  H  6896  6908       L1    18  0.90
      P1  H  7989  7998       L1    29  1.00
      P1  H  7997  8009       L1     3  0.95
      P1  H 10752 10763       L1     7  0.93

> <Gold.PLP.Chemscore.Internal.Correction>
0.1475

> <Gold.Rescore>
     Score         DG    S(hbond)    S(metal)    S(lipo)     H(rot)  DE(clash)    DE(int)     intcor
      4.42      -9.57       3.18        0.00      38.41       4.31       0.21       4.94       ----

> <Gold.Chemscore.Fitness>
4.4238

> <Gold.Chemscore.DG>
-9.5677

> <Gold.Chemscore.ZeroCoef>
-5.4800

> <Gold.Chemscore.Hbond>
3.1795

> <Gold.Chemscore.Metal>
0.0000

> <Gold.Chemscore.Lipo>
38.4121

> <Gold.Chemscore.Internal_Hbond>
0.0000

> <Gold.Chemscore.DEClash>
0.2089

> <Gold.Chemscore.DEInternal>
4.9350

> <Gold.Chemscore.Rot>
4.3070

> <Gold.Chemscore.Internal.Correction>
   9.000000E+99

> <Gold.Chemscore.Hbonds>
donor molecule, donor type, donor heavy atom, donor atom, acceptor molecule, acceptor atom, score
      P1  H  6896  6908       L1    18  0.14
      P1  H  6931  6943       L1    24  0.02
      P1  H  7989  7998       L1    29  0.91
      P1  H  7997  8009       L1     3  0.21
      P1  H 10752 10763       L1     7  0.88

> <Gold.Chemscore.Hbond.Weighted>
-10.6194

> <Gold.Chemscore.Metal.Weighted>
-0.0000

> <Gold.Chemscore.Lipo.Weighted>
-4.4942

> <Gold.Chemscore.Internal_Hbond.Weighted>
0.0000

> <Gold.Chemscore.DEClash.Weighted>
0.2089

> <Gold.Chemscore.DEInternal.Weighted>
4.9350

> <Gold.Chemscore.Rot.Weighted>
11.0259

> <Gold.Chemscore.Internal.Correction.Weighted>
   9.000000E+99

> <Gold.Protein.RotatedTorsions>
[ 6907 6896 6895 6894 ] final   56.38 input  -60.11 | X-H torsion
[ 7974 7965 7964 7962 ] final  -59.31 input  175.53 | X-H torsion
[ 8008 7997 7996 7995 ] final  138.34 input   59.86 | X-H torsion
[ 10167 10162 10161 10158 ] final  -46.70 input  -65.29 | X-H torsion
[ 10718 10713 10712 10709 ] final -173.63 input   66.30 | X-H torsion
[ 10763 10752 10751 10750 ] final   52.95 input  -60.55 | X-H torsion
[ 11005 11000 10999 10996 ] final  108.47 input  -57.11 | X-H torsion

> <Gold.Protein.ActiveResidues>
 VAL166  LYS551  ARG553  GLY616  TRP617  ASP618  TYR619  PRO620  LYS621  CYS622 
 ASP623  PHE694  ASN695  SER759  ASP760  ASP761  ALA762  ILE779  LEU786  VAL792 
 PHE793  MET794  SER795  GLU796  ALA797  LYS798  CYS799  TRP800  GLU811  SER814 

> <Gold.Protein.RotatedAtoms>
  152.3631  134.6843  160.0200 H   0  0  0  0  0  0  0  0  0  0  0  0  # atno 6907 bound_to 6896
  151.7160  133.3308  159.3311 H   0  0  0  0  0  0  0  0  0  0  0  0  # atno 6908 bound_to 6896
  150.7619  134.6424  159.6289 H   0  0  0  0  0  0  0  0  0  0  0  0  # atno 6909 bound_to 6896
  145.8290  140.8492  143.0093 H   0  0  0  0  0  0  0  0  0  0  0  0  # atno 7974 bound_to 7965
  156.2998  140.2396  156.4057 H   0  0  0  0  0  0  0  0  0  0  0  0  # atno 8008 bound_to 7997
  154.8487  140.0425  157.1609 H   0  0  0  0  0  0  0  0  0  0  0  0  # atno 8009 bound_to 7997
  154.9023  140.2978  155.5315 H   0  0  0  0  0  0  0  0  0  0  0  0  # atno 8010 bound_to 7997
  140.6806  143.2819  151.3820 H   0  0  0  0  0  0  0  0  0  0  0  0  # atno 10167 bound_to 10162
  156.7732  130.9456  151.3120 H   0  0  0  0  0  0  0  0  0  0  0  0  # atno 10718 bound_to 10713
  152.9792  135.5795  154.4661 H   0  0  0  0  0  0  0  0  0  0  0  0  # atno 10763 bound_to 10752
  154.4230  135.2772  155.1964 H   0  0  0  0  0  0  0  0  0  0  0  0  # atno 10764 bound_to 10752
  154.3705  135.6169  153.5791 H   0  0  0  0  0  0  0  0  0  0  0  0  # atno 10765 bound_to 10752
  139.8844  134.9431  156.5977 H   0  0  0  0  0  0  0  0  0  0  0  0  # atno 11005 bound_to 11000
  144.6741  140.0644  143.7475 LP  0  0  0  0  0  0  0  0  0  0  0  0  # atno 17320 bound_to 7965
  145.9592  139.2788  143.1166 LP  0  0  0  0  0  0  0  0  0  0  0  0  # atno 17321 bound_to 7965
  139.6127  144.1066  152.2315 LP  0  0  0  0  0  0  0  0  0  0  0  0  # atno 17342 bound_to 10162
  140.0485  144.5951  150.7355 LP  0  0  0  0  0  0  0  0  0  0  0  0  # atno 17343 bound_to 10162
  157.6681  130.9026  149.9978 LP  0  0  0  0  0  0  0  0  0  0  0  0  # atno 17370 bound_to 10713
  156.1265  130.3644  149.9802 LP  0  0  0  0  0  0  0  0  0  0  0  0  # atno 17371 bound_to 10713
  140.7907  133.8584  155.8644 LP  0  0  0  0  0  0  0  0  0  0  0  0  # atno 17394 bound_to 11000
  140.9679  134.1569  157.4600 LP  0  0  0  0  0  0  0  0  0  0  0  0  # atno 17395 bound_to 11000

$$$$
