AV-unprocessed.smi:163|AV-procd|sdf|1380|dock3
  -GOLD-   2262019103D 1   1.00000     0.00000
 Structure written by MMmdl.
 48 51  0  0  0  0  0  0  0  0  1 V2000
  152.8156  139.5195  154.9405 N   0  0  0  0  0  0  0  0  0  0  0  0
  151.8918  140.0890  155.3426 C   0  0  0  0  0  0  0  0  0  0  0  0
  150.7169  140.8125  155.8572 C   0  0  0  0  0  0  0  0  0  0  0  0
  149.5864  140.9568  154.8299 C   0  0  0  0  0  0  0  0  0  0  0  0
  149.8264  141.5014  153.7515 O   0  0  0  0  0  0  0  0  0  0  0  0
  148.3589  140.4809  155.1447 N   0  0  0  0  0  0  0  0  0  0  0  0
  147.1961  140.4788  154.2498 C   0  0  0  0  0  0  0  0  0  0  0  0
  146.8676  139.0247  153.8645 C   0  0  0  0  0  0  0  0  0  0  0  0
  146.6950  138.1956  155.0600 N   0  0  0  0  0  0  0  0  0  0  0  0
  146.1491  136.9725  154.8366 C   0  0  0  0  0  0  0  0  0  0  0  0
  146.2575  136.0007  155.7823 N   0  0  0  0  0  0  0  0  0  0  0  0
  145.7314  134.7907  155.5721 C   0  0  0  0  0  0  0  0  0  0  0  0
  145.0640  134.3450  154.5068 N   0  0  0  0  0  0  0  0  0  0  0  0
  144.9459  135.3150  153.5557 C   0  0  0  0  0  0  0  0  0  0  0  0
  145.4503  136.6439  153.6399 C   0  0  0  0  0  0  0  0  0  0  0  0
  145.1142  137.3482  152.4893 N   0  0  0  0  0  0  0  0  0  0  0  0
  144.4594  136.4838  151.7640 C   0  0  0  0  0  0  0  0  0  0  0  0
  144.3209  135.2333  152.3231 N   0  0  0  0  0  0  0  0  0  0  0  0
  143.6407  134.0857  151.7408 C   0  0  0  0  0  0  0  0  0  0  0  0
  144.3359  133.5230  150.4767 C   0  0  1  0  0  0  0  0  0  0  0  0
  144.2102  134.4624  149.4250 O   0  0  0  0  0  0  0  0  0  0  0  0
  145.8203  133.2316  150.7090 C   0  0  0  0  0  0  0  0  0  0  0  0
  145.8899  131.7095  150.7248 C   0  0  0  0  0  0  0  0  0  0  0  0
  144.9063  131.3454  149.7733 O   0  0  0  0  0  0  0  0  0  0  0  0
  143.7714  132.1648  150.0132 C   0  0  0  0  0  0  0  0  0  0  0  0
  147.7614  138.2937  156.0617 C   0  0  0  0  0  0  0  0  0  0  0  0
  148.0708  139.7653  156.3930 C   0  0  0  0  0  0  0  0  0  0  0  0
  150.3589  140.2695  156.7322 H   0  0  0  0  0  0  0  0  0  0  0  0
  151.0580  141.7970  156.1796 H   0  0  0  0  0  0  0  0  0  0  0  0
  146.3471  140.9251  154.7699 H   0  0  0  0  0  0  0  0  0  0  0  0
  147.3344  141.0766  153.3505 H   0  0  0  0  0  0  0  0  0  0  0  0
  145.9764  139.0142  153.2390 H   0  0  0  0  0  0  0  0  0  0  0  0
  147.6767  138.6077  153.2629 H   0  0  0  0  0  0  0  0  0  0  0  0
  145.8643  134.0778  156.3725 H   0  0  0  0  0  0  0  0  0  0  0  0
  144.0563  136.7386  150.7947 H   0  0  0  0  0  0  0  0  0  0  0  0
  143.5637  133.3108  152.5047 H   0  0  0  0  0  0  0  0  0  0  0  0
  142.6177  134.3817  151.5048 H   0  0  0  0  0  0  0  0  0  0  0  0
  145.0124  134.4624  148.9253 H   0  0  0  0  0  0  0  0  0  0  0  0
  146.4273  133.6045  149.8822 H   0  0  0  0  0  0  0  0  0  0  0  0
  146.2128  133.6735  151.6255 H   0  0  0  0  0  0  0  0  0  0  0  0
  146.8749  131.3283  150.4546 H   0  0  0  0  0  0  0  0  0  0  0  0
  145.6211  131.3141  151.7057 H   0  0  0  0  0  0  0  0  0  0  0  0
  143.1888  131.6897  150.8029 H   0  0  0  0  0  0  0  0  0  0  0  0
  143.1346  132.2335  149.1302 H   0  0  0  0  0  0  0  0  0  0  0  0
  147.4657  137.7701  156.9719 H   0  0  0  0  0  0  0  0  0  0  0  0
  148.6601  137.8042  155.6831 H   0  0  0  0  0  0  0  0  0  0  0  0
  148.8888  139.8177  157.1124 H   0  0  0  0  0  0  0  0  0  0  0  0
  147.2122  140.2279  156.8817 H   0  0  0  0  0  0  0  0  0  0  0  0
  1  2  3  0  0  0  0
  2  3  1  0  0  0  0
  3  4  1  0  0  0  0
  3 28  1  0  0  0  0
  3 29  1  0  0  0  0
  4  5  2  0  0  0  0
  4  6  1  0  0  0  0
  6 27  1  0  0  0  0
  6  7  1  0  0  0  0
  7  8  1  0  0  0  0
  7 30  1  0  0  0  0
  7 31  1  0  0  0  0
  8  9  1  0  0  0  0
  8 32  1  0  0  0  0
  8 33  1  0  0  0  0
  9 10  1  0  0  0  0
  9 26  1  0  0  0  0
 10 15  1  0  0  0  0
 10 11  2  0  0  0  0
 11 12  1  0  0  0  0
 12 13  2  0  0  0  0
 12 34  1  0  0  0  0
 13 14  1  0  0  0  0
 14 18  1  0  0  0  0
 14 15  2  0  0  0  0
 15 16  1  0  0  0  0
 16 17  2  0  0  0  0
 17 18  1  0  0  0  0
 17 35  1  0  0  0  0
 18 19  1  0  0  0  0
 19 20  1  0  0  0  0
 19 36  1  0  0  0  0
 19 37  1  0  0  0  0
 20 25  1  0  0  0  0
 20 21  1  0  0  0  0
 20 22  1  0  0  0  0
 21 38  1  0  0  0  0
 22 23  1  0  0  0  0
 22 39  1  0  0  0  0
 22 40  1  0  0  0  0
 23 24  1  0  0  0  0
 23 41  1  0  0  0  0
 23 42  1  0  0  0  0
 24 25  1  0  0  0  0
 25 43  1  0  0  0  0
 25 44  1  0  0  0  0
 26 27  1  0  0  0  0
 26 45  1  0  0  0  0
 26 46  1  0  0  0  0
 27 47  1  0  0  0  0
 27 48  1  0  0  0  0
M  END
> <s_m_source_file>
AV-unprocessed.smi

> <i_m_source_file_index>
163

> <i_lp_mmshare_version>
43012

> <i_f3d_flags>
0

> <s_epik_input>
TiNDW0NIMl1DKD1PKU4xW0NIMl1bQ0gyXU4oW0NIMl1bQ0gyXTEpYyhuW2NIXW4yKWMoYzIzKW5bY0hdbjNbQ0gyXVtDQEBdNChbT0hdKVtDSDJdW0NIMl1PW0NIMl00

> <s_epik_cmdline>
J2VwaWtfcHl0aG9uJywgJy1waCcsICc3LjAnLCAnLXRuJywgJzgnLCAnLW1hJywgJzIwMCcsICctbWV0YWxfYmluZGluZycsICctaW1hZScsICc8aW5maWxlLm1hZT4nLCAnLW9tYWUnLCAnPG91dGZpbGUubWFlPic=

> <r_lp_tautomer_probability>
1

> <r_epik_Ionization_Penalty>
0.000981096

> <r_epik_Ionization_Penalty_Charging>
0

> <r_epik_Ionization_Penalty_Neutral>
0.000981096

> <r_epik_State_Penalty>
0.000482875

> <r_epik_Charging_Adjusted_Penalty>
0.000482875

> <i_epik_Tot_Q>
0

> <i_epik_Tot_abs_Q>
0

> <r_epik_Metal_State_Penalty>
-0

> <b_epik_Metal_Only>
0

> <s_lp_Force_Field>
OPLS_2005

> <r_lp_Energy>
52.1528

> <b_lp_Chiralities_Consistent>
1

> <s_lp_Variant>
AV-unprocessed.smi:163-1

> <Gold.Version>
5.8.1

> <Gold.Id.Protein>
6NUR|6NUR_protein|mol2

> <Gold.PLP.Fitness>
42.5673

> <Gold.PLP.PLP>
-31.5292

> <Gold.PLP.part.hbond>
-6.6502

> <Gold.PLP.part.metal>
0.0000

> <Gold.PLP.part.buried>
-0.9531

> <Gold.PLP.part.nonpolar>
-24.3119

> <Gold.PLP.part.repulsive>
0.6759

> <Gold.PLP.ligand.clash>
0.0000

> <Gold.PLP.ligand.torsion>
0.6435

> <Gold.PLP.Chemscore.Hbond>
2.9468

> <Gold.PLP.Chemscore.CHOScore>
1.0000

> <Gold.PLP.Chemscore.Metal>
0.0000

> <Gold.Chemscore.Hbonds>
donor molecule, donor type, donor heavy atom, donor atom, acceptor molecule, acceptor atom, score
      L1  H    21    38       P1  7921  1.00
      P1  H  7989  7998       L1     5  0.13
      P1  H  7997  8009       L1     1  1.00
      P1  H  8011  8017       L1     5  0.70
      L1  C    17    35       P1 10171  1.00

> <Gold.PLP.Chemscore.Internal.Correction>
0.4847

> <Gold.Rescore>
     Score         DG    S(hbond)    S(metal)    S(lipo)     H(rot)  DE(clash)    DE(int)     intcor
     10.81     -13.08       2.49        0.00      53.61       2.72       0.22       2.05       ----

> <Gold.Chemscore.Fitness>
10.8097

> <Gold.Chemscore.DG>
-13.0835

> <Gold.Chemscore.ZeroCoef>
-5.4800

> <Gold.Chemscore.Hbond>
2.4858

> <Gold.Chemscore.Metal>
0.0000

> <Gold.Chemscore.Lipo>
53.6059

> <Gold.Chemscore.Internal_Hbond>
0.0000

> <Gold.Chemscore.DEClash>
0.2230

> <Gold.Chemscore.DEInternal>
2.0508

> <Gold.Chemscore.Rot>
2.7230

> <Gold.Chemscore.Internal.Correction>
   9.000000E+99

> <Gold.Chemscore.Hbonds>
donor molecule, donor type, donor heavy atom, donor atom, acceptor molecule, acceptor atom, score
      L1  H    21    38       P1  7921  0.99
      P1  H  7989  7998       L1     5  0.04
      P1  H  7997  8009       L1     1  0.62
      P1  H  8011  8017       L1     5  0.70

> <Gold.Chemscore.Hbond.Weighted>
-8.3025

> <Gold.Chemscore.Metal.Weighted>
-0.0000

> <Gold.Chemscore.Lipo.Weighted>
-6.2719

> <Gold.Chemscore.Internal_Hbond.Weighted>
0.0000

> <Gold.Chemscore.DEClash.Weighted>
0.2230

> <Gold.Chemscore.DEInternal.Weighted>
2.0508

> <Gold.Chemscore.Rot.Weighted>
6.9709

> <Gold.Chemscore.Internal.Correction.Weighted>
   9.000000E+99

> <Gold.Protein.RotatedTorsions>
[ 6907 6896 6895 6894 ] final  156.94 input  -60.11 | X-H torsion
[ 7974 7965 7964 7962 ] final -175.65 input  175.53 | X-H torsion
[ 8008 7997 7996 7995 ] final -138.74 input   59.86 | X-H torsion
[ 10167 10162 10161 10158 ] final  -88.73 input  -65.29 | X-H torsion
[ 10718 10713 10712 10709 ] final   57.64 input   66.30 | X-H torsion
[ 10763 10752 10751 10750 ] final -142.27 input  -60.55 | X-H torsion
[ 11005 11000 10999 10996 ] final -140.90 input  -57.11 | X-H torsion

> <Gold.Protein.ActiveResidues>
 VAL166  LYS551  ARG553  GLY616  TRP617  ASP618  TYR619  PRO620  LYS621  CYS622 
 ASP623  PHE694  ASN695  SER759  ASP760  ASP761  ALA762  ILE779  LEU786  VAL792 
 PHE793  MET794  SER795  GLU796  ALA797  LYS798  CYS799  TRP800  GLU811  SER814 

> <Gold.Protein.RotatedAtoms>
  152.0223  133.3904  159.4263 H   0  0  0  0  0  0  0  0  0  0  0  0  # atno 6907 bound_to 6896
  150.6889  134.3612  159.4960 H   0  0  0  0  0  0  0  0  0  0  0  0  # atno 6908 bound_to 6896
  152.1387  134.9079  160.0605 H   0  0  0  0  0  0  0  0  0  0  0  0  # atno 6909 bound_to 6896
  144.7128  140.1289  143.6400 H   0  0  0  0  0  0  0  0  0  0  0  0  # atno 7974 bound_to 7965
  155.4333  140.0526  157.3016 H   0  0  0  0  0  0  0  0  0  0  0  0  # atno 8008 bound_to 7997
  154.4850  140.2097  155.9634 H   0  0  0  0  0  0  0  0  0  0  0  0  # atno 8009 bound_to 7997
  156.1261  140.3180  155.8285 H   0  0  0  0  0  0  0  0  0  0  0  0  # atno 8010 bound_to 7997
  140.3718  143.2791  151.9491 H   0  0  0  0  0  0  0  0  0  0  0  0  # atno 10167 bound_to 10162
  157.5531  130.8780  149.8994 H   0  0  0  0  0  0  0  0  0  0  0  0  # atno 10718 bound_to 10713
  154.8515  135.3501  154.6001 H   0  0  0  0  0  0  0  0  0  0  0  0  # atno 10763 bound_to 10752
  153.6609  135.6989  153.5182 H   0  0  0  0  0  0  0  0  0  0  0  0  # atno 10764 bound_to 10752
  153.2818  135.4261  155.1043 H   0  0  0  0  0  0  0  0  0  0  0  0  # atno 10765 bound_to 10752
  140.8377  134.2440  157.4826 H   0  0  0  0  0  0  0  0  0  0  0  0  # atno 11005 bound_to 11000
  145.9304  139.2603  143.1328 LP  0  0  0  0  0  0  0  0  0  0  0  0  # atno 17320 bound_to 7965
  145.9528  140.8895  143.0250 LP  0  0  0  0  0  0  0  0  0  0  0  0  # atno 17321 bound_to 7965
  139.4803  144.5900  151.7788 LP  0  0  0  0  0  0  0  0  0  0  0  0  # atno 17342 bound_to 10162
  140.5026  144.1146  150.5974 LP  0  0  0  0  0  0  0  0  0  0  0  0  # atno 17343 bound_to 10162
  156.0594  130.3702  150.1016 LP  0  0  0  0  0  0  0  0  0  0  0  0  # atno 17370 bound_to 10713
  156.9187  130.9676  151.3552 LP  0  0  0  0  0  0  0  0  0  0  0  0  # atno 17371 bound_to 10713
  139.8704  134.9619  156.4411 LP  0  0  0  0  0  0  0  0  0  0  0  0  # atno 17394 bound_to 11000
  140.8929  133.7835  155.9593 LP  0  0  0  0  0  0  0  0  0  0  0  0  # atno 17395 bound_to 11000

$$$$
