AV-unprocessed.smi:1464|AV-procd|sdf|5947|dock9
  -GOLD-   22720 6 33D 1   1.00000     0.00000
 Structure written by MMmdl.
 41 42  0  0  0  0  0  0  0  0  1 V2000
  152.9213  142.3793  159.3256 C   0  0  0  0  0  0  0  0  0  0  0  0
  152.3862  143.4115  158.3116 C   0  0  2  0  0  0  0  0  0  0  0  0
  152.3180  144.8257  158.9228 C   0  0  0  0  0  0  0  0  0  0  0  0
  151.1714  144.9652  159.9360 C   0  0  0  0  0  0  0  0  0  0  0  0
  149.8253  144.5863  159.3039 C   0  0  0  0  0  0  0  0  0  0  0  0
  149.8539  143.1750  158.6858 C   0  0  1  0  0  0  0  0  0  0  0  0
  148.5679  142.9282  158.0349 N   0  0  0  0  0  0  0  0  0  0  0  0
  147.3939  142.7283  158.6540 C   0  0  0  0  0  0  0  0  0  0  0  0
  147.2665  142.7082  159.8792 O   0  0  0  0  0  0  0  0  0  0  0  0
  146.1877  142.4883  157.7346 C   0  0  0  0  0  0  0  0  0  0  0  0
  146.5603  142.0270  156.3896 N   0  0  0  0  0  0  0  0  0  0  0  0
  147.7033  141.2427  156.3557 N   0  0  0  0  0  0  0  0  0  0  0  0
  148.1271  140.7698  155.2327 C   0  0  0  0  0  0  0  0  0  0  0  0
  149.2609  139.9955  155.2452 O   0  0  0  0  0  0  0  0  0  0  0  0
  147.4323  141.0444  153.9946 C   0  0  0  0  0  0  0  0  0  0  0  0
  146.3215  141.8123  154.0371 C   0  0  0  0  0  0  0  0  0  0  0  0
  145.8128  142.3646  155.2939 C   0  0  0  0  0  0  0  0  0  0  0  0
  144.8054  143.0684  155.3623 O   0  0  0  0  0  0  0  0  0  0  0  0
  151.0229  143.0286  157.6753 C   0  0  2  0  0  0  0  0  0  0  0  0
  151.0646  141.6478  156.9907 C   0  0  0  0  0  0  0  0  0  0  0  0
  148.9640  139.1138  155.0803 H   0  0  0  0  0  0  0  0  0  0  0  0
  152.2297  142.2151  160.1512 H   0  0  0  0  0  0  0  0  0  0  0  0
  153.8678  142.7100  159.7533 H   0  0  0  0  0  0  0  0  0  0  0  0
  153.1078  141.4145  158.8546 H   0  0  0  0  0  0  0  0  0  0  0  0
  153.1204  143.4539  157.5058 H   0  0  0  0  0  0  0  0  0  0  0  0
  153.2670  145.0801  159.3962 H   0  0  0  0  0  0  0  0  0  0  0  0
  152.1758  145.5548  158.1240 H   0  0  0  0  0  0  0  0  0  0  0  0
  151.3607  144.3352  160.8054 H   0  0  0  0  0  0  0  0  0  0  0  0
  151.1292  145.9899  160.3059 H   0  0  0  0  0  0  0  0  0  0  0  0
  149.0384  144.6476  160.0569 H   0  0  0  0  0  0  0  0  0  0  0  0
  149.5731  145.3194  158.5362 H   0  0  0  0  0  0  0  0  0  0  0  0
  150.0014  142.4596  159.4962 H   0  0  0  0  0  0  0  0  0  0  0  0
  148.5712  142.9170  157.0252 H   0  0  0  0  0  0  0  0  0  0  0  0
  145.5115  141.7680  158.1993 H   0  0  0  0  0  0  0  0  0  0  0  0
  145.6230  143.4203  157.6714 H   0  0  0  0  0  0  0  0  0  0  0  0
  147.8006  140.6408  153.0629 H   0  0  0  0  0  0  0  0  0  0  0  0
  145.7926  142.0255  153.1200 H   0  0  0  0  0  0  0  0  0  0  0  0
  150.8450  143.7532  156.8787 H   0  0  0  0  0  0  0  0  0  0  0  0
  151.1027  140.8393  157.7211 H   0  0  0  0  0  0  0  0  0  0  0  0
  151.9359  141.5561  156.3421 H   0  0  0  0  0  0  0  0  0  0  0  0
  150.1844  141.4839  156.3689 H   0  0  0  0  0  0  0  0  0  0  0  0
  1  2  1  0  0  0  0
  1 22  1  0  0  0  0
  1 23  1  0  0  0  0
  1 24  1  0  0  0  0
  2 19  1  0  0  0  0
  2  3  1  0  0  0  0
  2 25  1  0  0  0  0
  3  4  1  0  0  0  0
  3 26  1  0  0  0  0
  3 27  1  0  0  0  0
  4  5  1  0  0  0  0
  4 28  1  0  0  0  0
  4 29  1  0  0  0  0
  5  6  1  0  0  0  0
  5 30  1  0  0  0  0
  5 31  1  0  0  0  0
  6  7  1  0  0  0  0
  6 19  1  0  0  0  0
  6 32  1  0  0  0  0
  7  8  1  0  0  0  0
  7 33  1  0  0  0  0
  8  9  2  0  0  0  0
  8 10  1  0  0  0  0
 10 34  1  0  0  0  0
 10 35  1  0  0  0  0
 10 11  1  0  0  0  0
 11 12  1  0  0  0  0
 11 17  1  0  0  0  0
 12 13  2  0  0  0  0
 13 14  1  0  0  0  0
 13 15  1  0  0  0  0
 14 21  1  0  0  0  0
 15 36  1  0  0  0  0
 15 16  2  0  0  0  0
 16 37  1  0  0  0  0
 16 17  1  0  0  0  0
 17 18  2  0  0  0  0
 19 20  1  0  0  0  0
 19 38  1  0  0  0  0
 20 39  1  0  0  0  0
 20 40  1  0  0  0  0
 20 41  1  0  0  0  0
M  END
> <s_m_source_file>
AV-unprocessed.smi

> <i_m_source_file_index>
1464

> <i_lp_mmshare_version>
43012

> <i_f3d_flags>
0

> <s_epik_input>
W0NIM11bQ0BASF0xW0NIMl1bQ0gyXVtDSDJdW0NASF0oW0NASF0xW0NIM10pW05IXUMoPU8pW0NIMl1uMltuSF1jKD1PKVtjSF1bY0hdYzI9Tw==

> <s_epik_cmdline>
J2VwaWtfcHl0aG9uJywgJy1waCcsICc3LjAnLCAnLXRuJywgJzgnLCAnLW1hJywgJzIwMCcsICctbWV0YWxfYmluZGluZycsICctaW1hZScsICc8aW5maWxlLm1hZT4nLCAnLW9tYWUnLCAnPG91dGZpbGUubWFlPic=

> <r_lp_tautomer_probability>
0.9996

> <r_epik_Ionization_Penalty>
2.10335

> <r_epik_Ionization_Penalty_Charging>
3.98079e-08

> <r_epik_Ionization_Penalty_Neutral>
2.10335

> <r_epik_State_Penalty>
1.67957

> <r_epik_Charging_Adjusted_Penalty>
1.67957

> <i_epik_Tot_Q>
0

> <i_epik_Tot_abs_Q>
0

> <r_epik_Metal_State_Penalty>
1.67957

> <b_epik_Metal_Only>
0

> <s_lp_Force_Field>
OPLS_2005

> <r_lp_Energy>
25.8074

> <b_lp_Chiralities_Consistent>
1

> <s_lp_Variant>
AV-unprocessed.smi:1464-13

> <Gold.Version>
5.8.1

> <Gold.Id.Protein>
6NUR|6NUR_protein|mol2

> <Gold.PLP.Fitness>
46.9185

> <Gold.PLP.PLP>
-41.6437

> <Gold.PLP.part.hbond>
-4.0000

> <Gold.PLP.part.metal>
0.0000

> <Gold.PLP.part.buried>
-4.5543

> <Gold.PLP.part.nonpolar>
-33.8751

> <Gold.PLP.part.repulsive>
0.3993

> <Gold.PLP.ligand.clash>
0.0000

> <Gold.PLP.ligand.torsion>
0.8125

> <Gold.PLP.Chemscore.Hbond>
2.2976

> <Gold.PLP.Chemscore.CHOScore>
0.0000

> <Gold.PLP.Chemscore.Metal>
0.0000

> <Gold.Chemscore.Hbonds>
donor molecule, donor type, donor heavy atom, donor atom, acceptor molecule, acceptor atom, score
      L1  H     7    33       P1  8028  0.20
      P1  H  6933  6944       L1     9  0.74
      P1  H  6934  6946       L1     9  0.71

> <Gold.PLP.Chemscore.Internal.Correction>
0.0072

> <Gold.Rescore>
     Score         DG    S(hbond)    S(metal)    S(lipo)     H(rot)  DE(clash)    DE(int)     intcor
     13.51     -15.77       1.60        0.00      91.04       2.22       0.01       2.25       ----

> <Gold.Chemscore.Fitness>
13.5125

> <Gold.Chemscore.DG>
-15.7727

> <Gold.Chemscore.ZeroCoef>
-5.4800

> <Gold.Chemscore.Hbond>
1.5960

> <Gold.Chemscore.Metal>
0.0000

> <Gold.Chemscore.Lipo>
91.0386

> <Gold.Chemscore.Internal_Hbond>
0.0000

> <Gold.Chemscore.DEClash>
0.0090

> <Gold.Chemscore.DEInternal>
2.2512

> <Gold.Chemscore.Rot>
2.2224

> <Gold.Chemscore.Internal.Correction>
   9.000000E+99

> <Gold.Chemscore.Hbonds>
donor molecule, donor type, donor heavy atom, donor atom, acceptor molecule, acceptor atom, score
      L1  H     7    33       P1  8028  0.12
      P1  H  6933  6944       L1     9  0.70
      P1  H  6934  6946       L1     9  0.62

> <Gold.Chemscore.Hbond.Weighted>
-5.3305

> <Gold.Chemscore.Metal.Weighted>
-0.0000

> <Gold.Chemscore.Lipo.Weighted>
-10.6515

> <Gold.Chemscore.Internal_Hbond.Weighted>
0.0000

> <Gold.Chemscore.DEClash.Weighted>
0.0090

> <Gold.Chemscore.DEInternal.Weighted>
2.2512

> <Gold.Chemscore.Rot.Weighted>
5.6893

> <Gold.Chemscore.Internal.Correction.Weighted>
   9.000000E+99

> <Gold.Protein.RotatedTorsions>
[ 6907 6896 6895 6894 ] final  -64.52 input  -60.11 | X-H torsion
[ 7974 7965 7964 7962 ] final -175.85 input  175.53 | X-H torsion
[ 8008 7997 7996 7995 ] final  135.67 input   59.86 | X-H torsion
[ 10167 10162 10161 10158 ] final -144.15 input  -65.29 | X-H torsion
[ 10718 10713 10712 10709 ] final   87.87 input   66.30 | X-H torsion
[ 10763 10752 10751 10750 ] final -110.51 input  -60.55 | X-H torsion
[ 11005 11000 10999 10996 ] final   46.45 input  -57.11 | X-H torsion

> <Gold.Protein.ActiveResidues>
 VAL166  LYS551  ARG553  GLY616  TRP617  ASP618  TYR619  PRO620  LYS621  CYS622 
 ASP623  PHE694  ASN695  SER759  ASP760  ASP761  ALA762  ILE779  LEU786  VAL792 
 PHE793  MET794  SER795  GLU796  ALA797  LYS798  CYS799  TRP800  GLU811  SER814 

> <Gold.Protein.RotatedAtoms>
  150.7580  134.6286  159.6173 H   0  0  0  0  0  0  0  0  0  0  0  0  # atno 6907 bound_to 6896
  152.3571  134.6922  160.0228 H   0  0  0  0  0  0  0  0  0  0  0  0  # atno 6908 bound_to 6896
  151.7324  133.3282  159.3380 H   0  0  0  0  0  0  0  0  0  0  0  0  # atno 6909 bound_to 6896
  144.7127  140.1259  143.6402 H   0  0  0  0  0  0  0  0  0  0  0  0  # atno 7974 bound_to 7965
  156.3003  140.2465  156.3619 H   0  0  0  0  0  0  0  0  0  0  0  0  # atno 8008 bound_to 7997
  154.8869  140.0410  157.1835 H   0  0  0  0  0  0  0  0  0  0  0  0  # atno 8009 bound_to 7997
  154.8638  140.2924  155.5527 H   0  0  0  0  0  0  0  0  0  0  0  0  # atno 8010 bound_to 7997
  139.7926  143.7944  152.2651 H   0  0  0  0  0  0  0  0  0  0  0  0  # atno 10167 bound_to 10162
  157.6944  131.0272  150.3189 H   0  0  0  0  0  0  0  0  0  0  0  0  # atno 10718 bound_to 10713
  154.8251  135.4561  154.0896 H   0  0  0  0  0  0  0  0  0  0  0  0  # atno 10763 bound_to 10752
  153.2216  135.6895  153.8000 H   0  0  0  0  0  0  0  0  0  0  0  0  # atno 10764 bound_to 10752
  153.7414  135.3312  155.3281 H   0  0  0  0  0  0  0  0  0  0  0  0  # atno 10765 bound_to 10752
  140.1368  134.4634  155.8479 H   0  0  0  0  0  0  0  0  0  0  0  0  # atno 11005 bound_to 11000
  145.9330  139.2619  143.1314 LP  0  0  0  0  0  0  0  0  0  0  0  0  # atno 17320 bound_to 7965
  145.9503  140.8914  143.0262 LP  0  0  0  0  0  0  0  0  0  0  0  0  # atno 17321 bound_to 7965
  139.8040  144.7362  150.9786 LP  0  0  0  0  0  0  0  0  0  0  0  0  # atno 17342 bound_to 10162
  140.7820  143.4316  151.0686 LP  0  0  0  0  0  0  0  0  0  0  0  0  # atno 17343 bound_to 10162
  156.3679  130.3858  149.7199 LP  0  0  0  0  0  0  0  0  0  0  0  0  # atno 17370 bound_to 10713
  156.4623  130.7958  151.2977 LP  0  0  0  0  0  0  0  0  0  0  0  0  # atno 17371 bound_to 10713
  141.2179  133.6817  156.7172 LP  0  0  0  0  0  0  0  0  0  0  0  0  # atno 17394 bound_to 11000
  140.2772  134.8345  157.3901 LP  0  0  0  0  0  0  0  0  0  0  0  0  # atno 17395 bound_to 11000

$$$$
