AV-unprocessed.smi:2475|AV-procd|sdf|9756|dock1
  -GOLD-   2272013393D 1   1.00000     0.00000
 Structure written by MMmdl.
 37 38  0  0  0  0  0  0  0  0  1 V2000
  147.0770  140.4863  153.8174 C   0  0  0  0  0  0  0  0  0  0  0  0
  148.4812  140.5049  154.3825 C   0  0  0  0  0  0  0  0  0  0  0  0
  148.9628  141.6018  155.1275 C   0  0  0  0  0  0  0  0  0  0  0  0
  150.2873  141.5198  155.6122 C   0  0  0  0  0  0  0  0  0  0  0  0
  150.7439  142.6389  156.3551 N   0  0  0  0  0  0  0  0  0  0  0  0
  151.5593  142.6534  157.4273 C   0  0  0  0  0  0  0  0  0  0  0  0
  152.0176  141.6434  157.9625 O   0  0  0  0  0  0  0  0  0  0  0  0
  151.8902  144.0376  158.0159 C   0  0  1  0  0  0  0  0  0  0  0  0
  150.6852  144.7320  158.6855 C   0  0  0  0  0  0  0  0  0  0  0  0
  151.1227  144.9434  160.1253 C   0  0  0  0  0  0  0  0  0  0  0  0
  152.2099  143.8950  160.3061 C   0  0  0  0  0  0  0  0  0  0  0  0
  152.8698  143.9174  159.0503 O   0  0  0  0  0  0  0  0  0  0  0  0
  151.0348  140.4187  155.3546 N   0  0  0  0  0  0  0  0  0  0  0  0
  150.4847  139.4334  154.6374 C   0  0  0  0  0  0  0  0  0  0  0  0
  151.3486  138.2077  154.3704 C   0  0  0  0  0  0  0  0  0  0  0  0
  150.6826  136.9166  154.8710 C   0  0  0  0  0  0  0  0  0  0  0  0
  152.7815  138.3871  154.8958 C   0  0  0  0  0  0  0  0  0  0  0  0
  149.2455  139.4197  154.1386 N   0  0  0  0  0  0  0  0  0  0  0  0
  146.5657  141.4316  154.0011 H   0  0  0  0  0  0  0  0  0  0  0  0
  146.4944  139.6881  154.2781 H   0  0  0  0  0  0  0  0  0  0  0  0
  147.1025  140.3171  152.7406 H   0  0  0  0  0  0  0  0  0  0  0  0
  148.3437  142.4665  155.3173 H   0  0  0  0  0  0  0  0  0  0  0  0
  150.4282  143.5400  156.0271 H   0  0  0  0  0  0  0  0  0  0  0  0
  152.3015  144.6593  157.2200 H   0  0  0  0  0  0  0  0  0  0  0  0
  150.4414  145.6783  158.2018 H   0  0  0  0  0  0  0  0  0  0  0  0
  149.7859  144.1146  158.6627 H   0  0  0  0  0  0  0  0  0  0  0  0
  151.5497  145.9405  160.2405 H   0  0  0  0  0  0  0  0  0  0  0  0
  150.3066  144.8384  160.8408 H   0  0  0  0  0  0  0  0  0  0  0  0
  152.8913  144.1285  161.1244 H   0  0  0  0  0  0  0  0  0  0  0  0
  151.7792  142.9083  160.4830 H   0  0  0  0  0  0  0  0  0  0  0  0
  151.4342  138.1051  153.2871 H   0  0  0  0  0  0  0  0  0  0  0  0
  149.6996  136.7829  154.4186 H   0  0  0  0  0  0  0  0  0  0  0  0
  150.5527  136.9293  155.9537 H   0  0  0  0  0  0  0  0  0  0  0  0
  151.2839  136.0428  154.6196 H   0  0  0  0  0  0  0  0  0  0  0  0
  153.2486  139.2724  154.4634 H   0  0  0  0  0  0  0  0  0  0  0  0
  153.4029  137.5281  154.6417 H   0  0  0  0  0  0  0  0  0  0  0  0
  152.7975  138.4975  155.9807 H   0  0  0  0  0  0  0  0  0  0  0  0
  1  2  1  0  0  0  0
  1 19  1  0  0  0  0
  1 20  1  0  0  0  0
  1 21  1  0  0  0  0
  2 18  1  0  0  0  0
  2  3  2  0  0  0  0
  3  4  1  0  0  0  0
  3 22  1  0  0  0  0
  4  5  1  0  0  0  0
  4 13  2  0  0  0  0
  5  6  1  0  0  0  0
  5 23  1  0  0  0  0
  6  7  2  0  0  0  0
  6  8  1  0  0  0  0
  8 12  1  0  0  0  0
  8  9  1  0  0  0  0
  8 24  1  0  0  0  0
  9 10  1  0  0  0  0
  9 25  1  0  0  0  0
  9 26  1  0  0  0  0
 10 11  1  0  0  0  0
 10 27  1  0  0  0  0
 10 28  1  0  0  0  0
 11 12  1  0  0  0  0
 11 29  1  0  0  0  0
 11 30  1  0  0  0  0
 13 14  1  0  0  0  0
 14 15  1  0  0  0  0
 14 18  2  0  0  0  0
 15 16  1  0  0  0  0
 15 17  1  0  0  0  0
 15 31  1  0  0  0  0
 16 32  1  0  0  0  0
 16 33  1  0  0  0  0
 16 34  1  0  0  0  0
 17 35  1  0  0  0  0
 17 36  1  0  0  0  0
 17 37  1  0  0  0  0
M  END
> <s_m_source_file>
AV-unprocessed.smi

> <i_m_source_file_index>
2475

> <i_lp_mmshare_version>
43012

> <i_f3d_flags>
0

> <s_epik_input>
W0NIM11bQ0hdKFtDSDNdKWMobjEpbmMoW2NIXWMxW0NIM10pW05IXUMoPU8pW0NAQEhdMltDSDJdW0NIMl1bQ0gyXU8y

> <s_epik_cmdline>
J2VwaWtfcHl0aG9uJywgJy1waCcsICc3LjAnLCAnLXRuJywgJzgnLCAnLW1hJywgJzIwMCcsICctbWV0YWxfYmluZGluZycsICctaW1hZScsICc8aW5maWxlLm1hZT4nLCAnLW9tYWUnLCAnPG91dGZpbGUubWFlPic=

> <r_lp_tautomer_probability>
1

> <r_epik_Ionization_Penalty>
1.42804e-05

> <r_epik_Ionization_Penalty_Charging>
0

> <r_epik_Ionization_Penalty_Neutral>
1.42804e-05

> <r_epik_State_Penalty>
-0

> <r_epik_Charging_Adjusted_Penalty>
0

> <i_epik_Tot_Q>
0

> <i_epik_Tot_abs_Q>
0

> <r_epik_Metal_State_Penalty>
-0

> <b_epik_Metal_Only>
0

> <s_lp_Force_Field>
OPLS_2005

> <r_lp_Energy>
11.5588

> <b_lp_Chiralities_Consistent>
1

> <s_lp_Variant>
AV-unprocessed.smi:2475-2

> <Gold.Version>
5.8.1

> <Gold.Id.Protein>
6NUR|6NUR_protein|mol2

> <Gold.PLP.Fitness>
42.3388

> <Gold.PLP.PLP>
-40.1815

> <Gold.PLP.part.hbond>
-2.0000

> <Gold.PLP.part.metal>
0.0000

> <Gold.PLP.part.buried>
-5.5234

> <Gold.PLP.part.nonpolar>
-33.2620

> <Gold.PLP.part.repulsive>
0.8298

> <Gold.PLP.ligand.clash>
0.0000

> <Gold.PLP.ligand.torsion>
0.4250

> <Gold.PLP.Chemscore.Hbond>
0.9760

> <Gold.PLP.Chemscore.CHOScore>
0.0000

> <Gold.PLP.Chemscore.Metal>
0.0000

> <Gold.Chemscore.Hbonds>
donor molecule, donor type, donor heavy atom, donor atom, acceptor molecule, acceptor atom, score
      L1  H     5    23       P1  8028  0.96

> <Gold.PLP.Chemscore.Internal.Correction>
0.0793

> <Gold.Rescore>
     Score         DG    S(hbond)    S(metal)    S(lipo)     H(rot)  DE(clash)    DE(int)     intcor
     14.44     -15.82       0.95        0.00      87.08       1.18       0.03       1.36       ----

> <Gold.Chemscore.Fitness>
14.4357

> <Gold.Chemscore.DG>
-15.8236

> <Gold.Chemscore.ZeroCoef>
-5.4800

> <Gold.Chemscore.Hbond>
0.9541

> <Gold.Chemscore.Metal>
0.0000

> <Gold.Chemscore.Lipo>
87.0786

> <Gold.Chemscore.Internal_Hbond>
0.0000

> <Gold.Chemscore.DEClash>
0.0314

> <Gold.Chemscore.DEInternal>
1.3564

> <Gold.Chemscore.Rot>
1.1842

> <Gold.Chemscore.Internal.Correction>
   9.000000E+99

> <Gold.Chemscore.Hbonds>
donor molecule, donor type, donor heavy atom, donor atom, acceptor molecule, acceptor atom, score
      L1  H     5    23       P1  8028  0.91

> <Gold.Chemscore.Hbond.Weighted>
-3.1868

> <Gold.Chemscore.Metal.Weighted>
-0.0000

> <Gold.Chemscore.Lipo.Weighted>
-10.1882

> <Gold.Chemscore.Internal_Hbond.Weighted>
0.0000

> <Gold.Chemscore.DEClash.Weighted>
0.0314

> <Gold.Chemscore.DEInternal.Weighted>
1.3564

> <Gold.Chemscore.Rot.Weighted>
3.0315

> <Gold.Chemscore.Internal.Correction.Weighted>
   9.000000E+99

> <Gold.Protein.RotatedTorsions>
[ 6907 6896 6895 6894 ] final  -53.89 input  -60.11 | X-H torsion
[ 7974 7965 7964 7962 ] final  105.97 input  175.53 | X-H torsion
[ 8008 7997 7996 7995 ] final -152.92 input   59.86 | X-H torsion
[ 10167 10162 10161 10158 ] final   54.12 input  -65.29 | X-H torsion
[ 10718 10713 10712 10709 ] final  -11.52 input   66.30 | X-H torsion
[ 10763 10752 10751 10750 ] final   18.89 input  -60.55 | X-H torsion
[ 11005 11000 10999 10996 ] final  150.13 input  -57.11 | X-H torsion

> <Gold.Protein.ActiveResidues>
 VAL166  LYS551  ARG553  GLY616  TRP617  ASP618  TYR619  PRO620  LYS621  CYS622 
 ASP623  PHE694  ASN695  SER759  ASP760  ASP761  ALA762  ILE779  LEU786  VAL792 
 PHE793  MET794  SER795  GLU796  ALA797  LYS798  CYS799  TRP800  GLU811  SER814 

> <Gold.Protein.RotatedAtoms>
  150.8386  134.7669  159.6913 H   0  0  0  0  0  0  0  0  0  0  0  0  # atno 6907 bound_to 6896
  152.4478  134.5455  159.9861 H   0  0  0  0  0  0  0  0  0  0  0  0  # atno 6908 bound_to 6896
  151.5599  133.3367  159.3005 H   0  0  0  0  0  0  0  0  0  0  0  0  # atno 6909 bound_to 6896
  145.3127  139.2535  143.3754 H   0  0  0  0  0  0  0  0  0  0  0  0  # atno 7974 bound_to 7965
  155.6628  140.0724  157.2548 H   0  0  0  0  0  0  0  0  0  0  0  0  # atno 8008 bound_to 7997
  154.4139  140.1713  156.1845 H   0  0  0  0  0  0  0  0  0  0  0  0  # atno 8009 bound_to 7997
  155.9683  140.3364  155.6555 H   0  0  0  0  0  0  0  0  0  0  0  0  # atno 8010 bound_to 7997
  140.2335  144.3661  150.6406 H   0  0  0  0  0  0  0  0  0  0  0  0  # atno 10167 bound_to 10162
  156.6578  130.4973  149.6040 H   0  0  0  0  0  0  0  0  0  0  0  0  # atno 10718 bound_to 10713
  153.1209  135.6719  153.9337 H   0  0  0  0  0  0  0  0  0  0  0  0  # atno 10763 bound_to 10752
  153.8852  135.3053  155.3447 H   0  0  0  0  0  0  0  0  0  0  0  0  # atno 10764 bound_to 10752
  154.7621  135.4983  153.9563 H   0  0  0  0  0  0  0  0  0  0  0  0  # atno 10765 bound_to 10752
  140.1105  134.8927  157.1929 H   0  0  0  0  0  0  0  0  0  0  0  0  # atno 11005 bound_to 11000
  146.3112  140.3667  142.8670 LP  0  0  0  0  0  0  0  0  0  0  0  0  # atno 17320 bound_to 7965
  144.9002  140.7633  143.5871 LP  0  0  0  0  0  0  0  0  0  0  0  0  # atno 17321 bound_to 7965
  140.6167  143.2173  151.6777 LP  0  0  0  0  0  0  0  0  0  0  0  0  # atno 17342 bound_to 10162
  139.5102  144.3552  152.0615 LP  0  0  0  0  0  0  0  0  0  0  0  0  # atno 17343 bound_to 10162
  156.2034  130.6634  151.1192 LP  0  0  0  0  0  0  0  0  0  0  0  0  # atno 17370 bound_to 10713
  157.7119  131.0729  150.6468 LP  0  0  0  0  0  0  0  0  0  0  0  0  # atno 17371 bound_to 10713
  140.3098  134.3037  155.7269 LP  0  0  0  0  0  0  0  0  0  0  0  0  # atno 17394 bound_to 11000
  141.2129  133.7643  156.9760 LP  0  0  0  0  0  0  0  0  0  0  0  0  # atno 17395 bound_to 11000

$$$$
