AV-unprocessed.smi:694|AV-procd|sdf|3379|dock4
  -GOLD-   22720 0363D 1   1.00000     0.00000
 Structure written by MMmdl.
 43 44  0  0  0  0  0  0  0  0  2 V2000
  143.2301  131.9892  150.5510 C   0  0  0  0  0  0  0  0  0  0  0  0
  144.4350  132.7413  150.2189 N   0  0  0  0  0  0  0  0  0  0  0  0
  145.3638  132.2380  149.2155 C   0  0  0  0  0  0  0  0  0  0  0  0
  144.6964  133.9685  150.8660 C   0  0  0  0  0  0  0  0  0  0  0  0
  144.1338  134.3227  152.1166 C   0  0  0  0  0  0  0  0  0  0  0  0
  144.4451  135.5688  152.6985 C   0  0  0  0  0  0  0  0  0  0  0  0
  145.3208  136.4549  152.0374 C   0  0  0  0  0  0  0  0  0  0  0  0
  145.5942  137.7034  152.6603 N   0  0  0  0  0  0  0  0  0  0  0  0
  146.3341  138.7276  152.2010 C   0  0  0  0  0  0  0  0  0  0  0  0
  146.9387  138.7432  151.1292 O   0  0  0  0  0  0  0  0  0  0  0  0
  146.3538  139.7426  153.0769 N   0  0  0  0  0  0  0  0  0  0  0  0
  147.0836  140.9956  152.9042 C   0  0  0  0  0  0  0  0  0  0  0  0
  147.9431  141.3336  154.1386 C   0  0  1  0  0  0  0  0  0  0  0  0
  147.1604  141.4192  155.4576 C   0  0  0  0  0  0  0  0  0  0  0  0
  148.1670  141.1074  156.5754 C   0  0  0  0  0  0  0  0  0  0  0  0
  149.4370  140.5942  155.8844 C   0  0  0  0  0  0  0  0  0  0  0  0
  149.0194  140.2873  154.4442 C   0  0  2  0  0  0  0  0  0  0  0  0
  150.1166  140.3733  153.5588 O   0  0  0  0  0  0  0  0  0  0  0  0
  145.8490  136.0599  150.7851 C   0  0  0  0  0  0  0  0  0  0  0  0
  145.5235  134.8576  150.2638 N   0  3  0  0  0  0  0  0  0  0  0  0
  143.2354  131.7035  151.6035 H   0  0  0  0  0  0  0  0  0  0  0  0
  143.1543  131.0772  149.9583 H   0  0  0  0  0  0  0  0  0  0  0  0
  142.3387  132.5867  150.3575 H   0  0  0  0  0  0  0  0  0  0  0  0
  145.4506  132.9409  148.3865 H   0  0  0  0  0  0  0  0  0  0  0  0
  145.0295  131.2834  148.8087 H   0  0  0  0  0  0  0  0  0  0  0  0
  146.3522  132.0863  149.6501 H   0  0  0  0  0  0  0  0  0  0  0  0
  143.4653  133.6576  152.6427 H   0  0  0  0  0  0  0  0  0  0  0  0
  144.0142  135.8372  153.6521 H   0  0  0  0  0  0  0  0  0  0  0  0
  145.2152  137.8156  153.5894 H   0  0  0  0  0  0  0  0  0  0  0  0
  145.8313  139.6408  153.9348 H   0  0  0  0  0  0  0  0  0  0  0  0
  147.6988  140.9712  152.0032 H   0  0  0  0  0  0  0  0  0  0  0  0
  146.3485  141.7852  152.7454 H   0  0  0  0  0  0  0  0  0  0  0  0
  148.4347  142.2952  153.9772 H   0  0  0  0  0  0  0  0  0  0  0  0
  146.6856  142.3918  155.5901 H   0  0  0  0  0  0  0  0  0  0  0  0
  146.3705  140.6673  155.4722 H   0  0  0  0  0  0  0  0  0  0  0  0
  148.3868  141.9949  157.1697 H   0  0  0  0  0  0  0  0  0  0  0  0
  147.7588  140.3556  157.2517 H   0  0  0  0  0  0  0  0  0  0  0  0
  150.1899  141.3842  155.8949 H   0  0  0  0  0  0  0  0  0  0  0  0
  149.8658  139.7265  156.3868 H   0  0  0  0  0  0  0  0  0  0  0  0
  148.5907  139.2850  154.3933 H   0  0  0  0  0  0  0  0  0  0  0  0
  149.8178  140.1558  152.6890 H   0  0  0  0  0  0  0  0  0  0  0  0
  146.5089  136.6526  150.1699 H   0  0  0  0  0  0  0  0  0  0  0  0
  145.9242  134.6053  149.3601 H   0  0  0  0  0  0  0  0  0  0  0  0
  1  2  1  0  0  0  0
  1 21  1  0  0  0  0
  1 22  1  0  0  0  0
  1 23  1  0  0  0  0
  2  3  1  0  0  0  0
  2  4  1  0  0  0  0
  3 24  1  0  0  0  0
  3 25  1  0  0  0  0
  3 26  1  0  0  0  0
  4 20  1  0  0  0  0
  4  5  2  0  0  0  0
  5  6  1  0  0  0  0
  5 27  1  0  0  0  0
  6  7  2  0  0  0  0
  6 28  1  0  0  0  0
  7  8  1  0  0  0  0
  7 19  1  0  0  0  0
  8  9  1  0  0  0  0
  8 29  1  0  0  0  0
  9 10  2  0  0  0  0
  9 11  1  0  0  0  0
 11 12  1  0  0  0  0
 11 30  1  0  0  0  0
 12 13  1  0  0  0  0
 12 31  1  0  0  0  0
 12 32  1  0  0  0  0
 13 17  1  0  0  0  0
 13 14  1  0  0  0  0
 13 33  1  0  0  0  0
 14 15  1  0  0  0  0
 14 34  1  0  0  0  0
 14 35  1  0  0  0  0
 15 16  1  0  0  0  0
 15 36  1  0  0  0  0
 15 37  1  0  0  0  0
 16 17  1  0  0  0  0
 16 38  1  0  0  0  0
 16 39  1  0  0  0  0
 17 18  1  0  0  0  0
 17 40  1  0  0  0  0
 18 41  1  0  0  0  0
 19 20  2  0  0  0  0
 19 42  1  0  0  0  0
 20 43  1  0  0  0  0
M  CHG  1  20   1
M  END
> <s_m_source_file>
AV-unprocessed.smi

> <i_m_source_file_index>
694

> <i_lp_mmshare_version>
43012

> <i_f3d_flags>
0

> <s_epik_input>
W0NIM11OKFtDSDNdKWMxW2NIXVtjSF1jKFtjSF1uMSlbTkhdQyg9TylbTkhdW0NIMl1bQ0BASF0yW0NIMl1bQ0gyXVtDSDJdW0NASF0yW09IXQ==

> <s_epik_cmdline>
J2VwaWtfcHl0aG9uJywgJy1waCcsICc3LjAnLCAnLXRuJywgJzgnLCAnLW1hJywgJzIwMCcsICctbWV0YWxfYmluZGluZycsICctaW1hZScsICc8aW5maWxlLm1hZT4nLCAnLW9tYWUnLCAnPG91dGZpbGUubWFlPic=

> <r_lp_tautomer_probability>
0.999994

> <r_epik_Ionization_Penalty>
0.266135

> <r_epik_Ionization_Penalty_Charging>
0.266113

> <r_epik_Ionization_Penalty_Neutral>
2.14137e-05

> <r_epik_State_Penalty>
0.258052

> <r_epik_Charging_Adjusted_Penalty>
0.524165

> <i_epik_Tot_Q>
1

> <i_epik_Tot_abs_Q>
1

> <r_epik_Metal_State_Penalty>
0.544313

> <b_epik_Metal_Only>
0

> <s_lp_Force_Field>
OPLS_2005

> <r_lp_Energy>
30.8894

> <b_lp_Chiralities_Consistent>
1

> <s_lp_Variant>
AV-unprocessed.smi:694-4

> <Gold.Version>
5.8.1

> <Gold.Id.Protein>
6NUR|6NUR_protein|mol2

> <Gold.PLP.Fitness>
46.6830

> <Gold.PLP.PLP>
-36.2585

> <Gold.PLP.part.hbond>
-4.7953

> <Gold.PLP.part.metal>
0.0000

> <Gold.PLP.part.buried>
-3.4353

> <Gold.PLP.part.nonpolar>
-28.4811

> <Gold.PLP.part.repulsive>
2.1258

> <Gold.PLP.ligand.clash>
0.0000

> <Gold.PLP.ligand.torsion>
0.2563

> <Gold.PLP.Chemscore.Hbond>
3.6400

> <Gold.PLP.Chemscore.CHOScore>
0.0000

> <Gold.PLP.Chemscore.Metal>
0.0000

> <Gold.Chemscore.Hbonds>
donor molecule, donor type, donor heavy atom, donor atom, acceptor molecule, acceptor atom, score
      L1  H    18    41       P1  7957  1.00
      L1  H    20    43       P1  7921  1.00
      P1  H  7954  7966       L1    10  0.96
      P1  H  7989  7998       L1    18  0.59

> <Gold.PLP.Chemscore.Internal.Correction>
0.0170

> <Gold.Rescore>
     Score         DG    S(hbond)    S(metal)    S(lipo)     H(rot)  DE(clash)    DE(int)     intcor
     18.13     -19.67       2.95        0.00      75.42       1.75       0.22       1.32       ----

> <Gold.Chemscore.Fitness>
18.1334

> <Gold.Chemscore.DG>
-19.6715

> <Gold.Chemscore.ZeroCoef>
-5.4800

> <Gold.Chemscore.Hbond>
2.9472

> <Gold.Chemscore.Metal>
0.0000

> <Gold.Chemscore.Lipo>
75.4193

> <Gold.Chemscore.Internal_Hbond>
0.0000

> <Gold.Chemscore.DEClash>
0.2188

> <Gold.Chemscore.DEInternal>
1.3192

> <Gold.Chemscore.Rot>
1.7485

> <Gold.Chemscore.Internal.Correction>
   9.000000E+99

> <Gold.Chemscore.Hbonds>
donor molecule, donor type, donor heavy atom, donor atom, acceptor molecule, acceptor atom, score
      L1  H    18    41       P1  7957  0.94
      L1  H    20    43       P1  7921  0.68
      P1  H  7954  7966       L1    10  0.91
      P1  H  7989  7998       L1    18  0.38

> <Gold.Chemscore.Hbond.Weighted>
-9.8436

> <Gold.Chemscore.Metal.Weighted>
-0.0000

> <Gold.Chemscore.Lipo.Weighted>
-8.8241

> <Gold.Chemscore.Internal_Hbond.Weighted>
0.0000

> <Gold.Chemscore.DEClash.Weighted>
0.2188

> <Gold.Chemscore.DEInternal.Weighted>
1.3192

> <Gold.Chemscore.Rot.Weighted>
4.4762

> <Gold.Chemscore.Internal.Correction.Weighted>
   9.000000E+99

> <Gold.Protein.RotatedTorsions>
[ 6907 6896 6895 6894 ] final  128.31 input  -60.11 | X-H torsion
[ 7974 7965 7964 7962 ] final  -23.10 input  175.53 | X-H torsion
[ 8008 7997 7996 7995 ] final  116.36 input   59.86 | X-H torsion
[ 10167 10162 10161 10158 ] final -148.09 input  -65.29 | X-H torsion
[ 10718 10713 10712 10709 ] final  177.21 input   66.30 | X-H torsion
[ 10763 10752 10751 10750 ] final  -21.39 input  -60.55 | X-H torsion
[ 11005 11000 10999 10996 ] final -171.78 input  -57.11 | X-H torsion

> <Gold.Protein.ActiveResidues>
 VAL166  LYS551  ARG553  GLY616  TRP617  ASP618  TYR619  PRO620  LYS621  CYS622 
 ASP623  PHE694  ASN695  SER759  ASP760  ASP761  ALA762  ILE779  LEU786  VAL792 
 PHE793  MET794  SER795  GLU796  ALA797  LYS798  CYS799  TRP800  GLU811  SER814 

> <Gold.Protein.RotatedAtoms>
  152.3731  133.6446  159.6102 H   0  0  0  0  0  0  0  0  0  0  0  0  # atno 6907 bound_to 6896
  150.7684  133.9237  159.3414 H   0  0  0  0  0  0  0  0  0  0  0  0  # atno 6908 bound_to 6896
  151.7056  135.0923  160.0310 H   0  0  0  0  0  0  0  0  0  0  0  0  # atno 6909 bound_to 6896
  146.1636  140.4569  142.8561 H   0  0  0  0  0  0  0  0  0  0  0  0  # atno 7974 bound_to 7965
  156.2435  140.2919  156.0511 H   0  0  0  0  0  0  0  0  0  0  0  0  # atno 8008 bound_to 7997
  155.1880  140.0406  157.2912 H   0  0  0  0  0  0  0  0  0  0  0  0  # atno 8009 bound_to 7997
  154.6214  140.2477  155.7552 H   0  0  0  0  0  0  0  0  0  0  0  0  # atno 8010 bound_to 7997
  139.7563  143.8443  152.2598 H   0  0  0  0  0  0  0  0  0  0  0  0  # atno 10167 bound_to 10162
  156.9087  130.9902  151.3024 H   0  0  0  0  0  0  0  0  0  0  0  0  # atno 10718 bound_to 10713
  153.6354  135.6987  153.5260 H   0  0  0  0  0  0  0  0  0  0  0  0  # atno 10763 bound_to 10752
  153.2826  135.4181  155.1092 H   0  0  0  0  0  0  0  0  0  0  0  0  # atno 10764 bound_to 10752
  154.8512  135.3605  154.5897 H   0  0  0  0  0  0  0  0  0  0  0  0  # atno 10765 bound_to 10752
  140.5043  134.5863  157.4998 H   0  0  0  0  0  0  0  0  0  0  0  0  # atno 11005 bound_to 11000
  144.8062  140.6303  143.6445 LP  0  0  0  0  0  0  0  0  0  0  0  0  # atno 17320 bound_to 7965
  145.4524  139.1522  143.3911 LP  0  0  0  0  0  0  0  0  0  0  0  0  # atno 17321 bound_to 7965
  139.8436  144.7198  150.9301 LP  0  0  0  0  0  0  0  0  0  0  0  0  # atno 17342 bound_to 10162
  140.7803  143.3961  151.1227 LP  0  0  0  0  0  0  0  0  0  0  0  0  # atno 17343 bound_to 10162
  157.5981  130.8492  149.8760 LP  0  0  0  0  0  0  0  0  0  0  0  0  # atno 17370 bound_to 10713
  156.0546  130.3711  150.1120 LP  0  0  0  0  0  0  0  0  0  0  0  0  # atno 17371 bound_to 10713
  139.9695  134.7317  156.0070 LP  0  0  0  0  0  0  0  0  0  0  0  0  # atno 17394 bound_to 11000
  141.1419  133.6563  156.3754 LP  0  0  0  0  0  0  0  0  0  0  0  0  # atno 17395 bound_to 11000

$$$$
