AV-unprocessed.smi:303|AV-procd|sdf|2275|dock5
  -GOLD-   2262022173D 1   1.00000     0.00000
 Structure written by MMmdl.
 46 47  0  0  0  0  0  0  0  0  2 V2000
  153.3961  140.9883  160.0739 C   0  0  0  0  0  0  0  0  0  0  0  0
  152.0480  140.9208  159.3466 C   0  0  0  0  0  0  0  0  0  0  0  0
  152.0047  139.5640  158.0910 S   0  0  0  0  0  0  0  0  0  0  0  0
  153.3423  138.9555  158.0262 O   0  0  0  0  0  0  0  0  0  0  0  0
  150.8289  138.7169  158.3460 O   0  0  0  0  0  0  0  0  0  0  0  0
  151.7370  140.3895  156.5809 N   0  0  0  0  0  0  0  0  0  0  0  0
  151.7982  139.6386  155.3126 C   0  0  0  0  0  0  0  0  0  0  0  0
  150.3902  139.3487  154.7653 C   0  0  0  0  0  0  0  0  0  0  0  0
  149.5717  140.6429  154.6104 C   0  0  0  0  0  0  0  0  0  0  0  0
  148.1629  140.3381  154.0844 C   0  0  0  0  0  0  0  0  0  0  0  0
  147.1793  140.8784  154.5920 O   0  0  0  0  0  0  0  0  0  0  0  0
  148.0764  139.4618  153.0714 N   0  0  0  0  0  0  0  0  0  0  0  0
  146.8309  139.0210  152.4541 C   0  0  0  0  0  0  0  0  0  0  0  0
  146.1492  137.9204  153.2850 C   0  0  0  0  0  0  0  0  0  0  0  0
  145.5275  136.8434  152.4178 C   0  0  0  0  0  0  0  0  0  0  0  0
  144.1447  136.5602  152.4504 C   0  0  0  0  0  0  0  0  0  0  0  0
  143.6295  135.5447  151.6176 C   0  0  0  0  0  0  0  0  0  0  0  0
  144.5063  134.8362  150.7701 C   0  0  0  0  0  0  0  0  0  0  0  0
  145.8780  135.1622  150.7759 C   0  0  0  0  0  0  0  0  0  0  0  0
  146.3334  136.1415  151.5884 N   0  3  0  0  0  0  0  0  0  0  0  0
  149.5160  141.3673  155.9681 C   0  0  0  0  0  0  0  0  0  0  0  0
  150.9255  141.6240  156.5308 C   0  0  0  0  0  0  0  0  0  0  0  0
  153.3890  141.7742  160.8290 H   0  0  0  0  0  0  0  0  0  0  0  0
  154.2074  141.2050  159.3787 H   0  0  0  0  0  0  0  0  0  0  0  0
  153.6270  140.0480  160.5736 H   0  0  0  0  0  0  0  0  0  0  0  0
  151.2234  140.7969  160.0437 H   0  0  0  0  0  0  0  0  0  0  0  0
  151.8795  141.8593  158.8187 H   0  0  0  0  0  0  0  0  0  0  0  0
  152.3602  140.2285  154.5877 H   0  0  0  0  0  0  0  0  0  0  0  0
  152.3515  138.7098  155.4492 H   0  0  0  0  0  0  0  0  0  0  0  0
  150.4765  138.8434  153.8024 H   0  0  0  0  0  0  0  0  0  0  0  0
  149.8746  138.6532  155.4277 H   0  0  0  0  0  0  0  0  0  0  0  0
  150.0810  141.2904  153.8943 H   0  0  0  0  0  0  0  0  0  0  0  0
  148.9330  139.0672  152.7099 H   0  0  0  0  0  0  0  0  0  0  0  0
  146.1598  139.8716  152.3211 H   0  0  0  0  0  0  0  0  0  0  0  0
  147.0611  138.6482  151.4556 H   0  0  0  0  0  0  0  0  0  0  0  0
  146.8726  137.4586  153.9588 H   0  0  0  0  0  0  0  0  0  0  0  0
  145.3726  138.3509  153.9188 H   0  0  0  0  0  0  0  0  0  0  0  0
  143.4856  137.1128  153.1045 H   0  0  0  0  0  0  0  0  0  0  0  0
  142.5745  135.3120  151.6294 H   0  0  0  0  0  0  0  0  0  0  0  0
  144.1317  134.0542  150.1256 H   0  0  0  0  0  0  0  0  0  0  0  0
  146.6191  134.6726  150.1612 H   0  0  0  0  0  0  0  0  0  0  0  0
  148.9982  142.3210  155.8572 H   0  0  0  0  0  0  0  0  0  0  0  0
  148.9302  140.7946  156.6860 H   0  0  0  0  0  0  0  0  0  0  0  0
  150.8608  142.0799  157.5180 H   0  0  0  0  0  0  0  0  0  0  0  0
  151.4420  142.3446  155.8958 H   0  0  0  0  0  0  0  0  0  0  0  0
  147.3299  136.3594  151.5767 H   0  0  0  0  0  0  0  0  0  0  0  0
  1  2  1  0  0  0  0
  1 23  1  0  0  0  0
  1 24  1  0  0  0  0
  1 25  1  0  0  0  0
  2  3  1  0  0  0  0
  2 26  1  0  0  0  0
  2 27  1  0  0  0  0
  3  4  2  0  0  0  0
  3  5  2  0  0  0  0
  3  6  1  0  0  0  0
  6 22  1  0  0  0  0
  6  7  1  0  0  0  0
  7  8  1  0  0  0  0
  7 28  1  0  0  0  0
  7 29  1  0  0  0  0
  8  9  1  0  0  0  0
  8 30  1  0  0  0  0
  8 31  1  0  0  0  0
  9 10  1  0  0  0  0
  9 21  1  0  0  0  0
  9 32  1  0  0  0  0
 10 11  2  0  0  0  0
 10 12  1  0  0  0  0
 12 13  1  0  0  0  0
 12 33  1  0  0  0  0
 13 14  1  0  0  0  0
 13 34  1  0  0  0  0
 13 35  1  0  0  0  0
 14 15  1  0  0  0  0
 14 36  1  0  0  0  0
 14 37  1  0  0  0  0
 15 20  1  0  0  0  0
 15 16  2  0  0  0  0
 16 17  1  0  0  0  0
 16 38  1  0  0  0  0
 17 18  2  0  0  0  0
 17 39  1  0  0  0  0
 18 19  1  0  0  0  0
 18 40  1  0  0  0  0
 19 20  2  0  0  0  0
 19 41  1  0  0  0  0
 20 46  1  0  0  0  0
 21 22  1  0  0  0  0
 21 42  1  0  0  0  0
 21 43  1  0  0  0  0
 22 44  1  0  0  0  0
 22 45  1  0  0  0  0
M  CHG  1  20   1
M  END
> <s_m_source_file>
AV-unprocessed.smi

> <i_m_source_file_index>
303

> <i_lp_mmshare_version>
43012

> <i_f3d_flags>
0

> <s_epik_input>
W0NIM11bQ0gyXVMoPU8pKD1PKU4xW0NIMl1bQ0gyXVtDSF0oW0NIMl1bQ0gyXTEpQyg9TylbTkhdW0NIMl1bQ0gyXWMyW2NIXVtjSF1bY0hdW2NIXW4y

> <s_epik_cmdline>
J2VwaWtfcHl0aG9uJywgJy1waCcsICc3LjAnLCAnLXRuJywgJzgnLCAnLW1hJywgJzIwMCcsICctbWV0YWxfYmluZGluZycsICctaW1hZScsICc8aW5maWxlLm1hZT4nLCAnLW9tYWUnLCAnPG91dGZpbGUubWFlPic=

> <r_epik_Ionization_Penalty>
1.82741

> <r_epik_Ionization_Penalty_Charging>
1.82741

> <r_epik_Ionization_Penalty_Neutral>
1.89562e-08

> <r_epik_State_Penalty>
1.94311

> <r_epik_Charging_Adjusted_Penalty>
3.77052

> <i_epik_Tot_Q>
1

> <i_epik_Tot_abs_Q>
1

> <r_epik_Metal_State_Penalty>
1.96983

> <b_epik_Metal_Only>
0

> <s_lp_Force_Field>
OPLS_2005

> <r_lp_Energy>
6.79825

> <b_lp_Chiralities_Consistent>
1

> <s_lp_Variant>
AV-unprocessed.smi:303-2

> <Gold.Version>
5.8.1

> <Gold.Id.Protein>
6NUR|6NUR_protein|mol2

> <Gold.PLP.Fitness>
50.2727

> <Gold.PLP.PLP>
-42.3141

> <Gold.PLP.part.hbond>
-2.8493

> <Gold.PLP.part.metal>
0.0000

> <Gold.PLP.part.buried>
-2.7883

> <Gold.PLP.part.nonpolar>
-36.4379

> <Gold.PLP.part.repulsive>
0.2868

> <Gold.PLP.ligand.clash>
0.0000

> <Gold.PLP.ligand.torsion>
2.0190

> <Gold.PLP.Chemscore.Hbond>
3.2720

> <Gold.PLP.Chemscore.CHOScore>
0.0000

> <Gold.PLP.Chemscore.Metal>
0.0000

> <Gold.Chemscore.Hbonds>
donor molecule, donor type, donor heavy atom, donor atom, acceptor molecule, acceptor atom, score
      L1  H    12    33       P1  7957  0.26
      L1  H    20    46       P1  7948  2.00
      P1  H  7997  8008       L1     4  1.00

> <Gold.PLP.Chemscore.Internal.Correction>
2.1806

> <Gold.Rescore>
     Score         DG    S(hbond)    S(metal)    S(lipo)     H(rot)  DE(clash)    DE(int)     intcor
     16.97     -19.41       2.31        0.00      91.69       1.76       0.28       2.16       ----

> <Gold.Chemscore.Fitness>
16.9722

> <Gold.Chemscore.DG>
-19.4113

> <Gold.Chemscore.ZeroCoef>
-5.4800

> <Gold.Chemscore.Hbond>
2.3079

> <Gold.Chemscore.Metal>
0.0000

> <Gold.Chemscore.Lipo>
91.6869

> <Gold.Chemscore.Internal_Hbond>
0.0000

> <Gold.Chemscore.DEClash>
0.2787

> <Gold.Chemscore.DEInternal>
2.1604

> <Gold.Chemscore.Rot>
1.7596

> <Gold.Chemscore.Internal.Correction>
   9.000000E+99

> <Gold.Chemscore.Hbonds>
donor molecule, donor type, donor heavy atom, donor atom, acceptor molecule, acceptor atom, score
      L1  H    12    33       P1  7957  0.26
      L1  H    20    46       P1  7948  0.99
      P1  H  7997  8008       L1     4  0.64

> <Gold.Chemscore.Hbond.Weighted>
-7.7084

> <Gold.Chemscore.Metal.Weighted>
-0.0000

> <Gold.Chemscore.Lipo.Weighted>
-10.7274

> <Gold.Chemscore.Internal_Hbond.Weighted>
0.0000

> <Gold.Chemscore.DEClash.Weighted>
0.2787

> <Gold.Chemscore.DEInternal.Weighted>
2.1604

> <Gold.Chemscore.Rot.Weighted>
4.5045

> <Gold.Chemscore.Internal.Correction.Weighted>
   9.000000E+99

> <Gold.Protein.RotatedTorsions>
[ 6907 6896 6895 6894 ] final -177.38 input  -60.11 | X-H torsion
[ 7974 7965 7964 7962 ] final  -54.19 input  175.53 | X-H torsion
[ 8008 7997 7996 7995 ] final  -70.62 input   59.86 | X-H torsion
[ 10167 10162 10161 10158 ] final  -66.63 input  -65.29 | X-H torsion
[ 10718 10713 10712 10709 ] final   88.85 input   66.30 | X-H torsion
[ 10763 10752 10751 10750 ] final  156.08 input  -60.55 | X-H torsion
[ 11005 11000 10999 10996 ] final   76.52 input  -57.11 | X-H torsion

> <Gold.Protein.ActiveResidues>
 VAL166  LYS551  ARG553  GLY616  TRP617  ASP618  TYR619  PRO620  LYS621  CYS622 
 ASP623  PHE694  ASN695  SER759  ASP760  ASP761  ALA762  ILE779  LEU786  VAL792 
 PHE793  MET794  SER795  GLU796  ALA797  LYS798  CYS799  TRP800  GLU811  SER814 

> <Gold.Protein.RotatedAtoms>
  151.6200  133.3340  159.3085 H   0  0  0  0  0  0  0  0  0  0  0  0  # atno 6907 bound_to 6896
  150.8111  134.7270  159.6700 H   0  0  0  0  0  0  0  0  0  0  0  0  # atno 6908 bound_to 6896
  152.4207  134.5964  160.0040 H   0  0  0  0  0  0  0  0  0  0  0  0  # atno 6909 bound_to 6896
  145.8883  140.8090  142.9804 H   0  0  0  0  0  0  0  0  0  0  0  0  # atno 7974 bound_to 7965
  154.5026  140.0831  156.7828 H   0  0  0  0  0  0  0  0  0  0  0  0  # atno 8008 bound_to 7997
  155.3968  140.3435  155.4236 H   0  0  0  0  0  0  0  0  0  0  0  0  # atno 8009 bound_to 7997
  156.1475  140.1548  156.8811 H   0  0  0  0  0  0  0  0  0  0  0  0  # atno 8010 bound_to 7997
  140.5642  143.2314  151.6667 H   0  0  0  0  0  0  0  0  0  0  0  0  # atno 10167 bound_to 10162
  157.6952  131.0310  150.3336 H   0  0  0  0  0  0  0  0  0  0  0  0  # atno 10718 bound_to 10713
  154.1787  135.2800  155.3059 H   0  0  0  0  0  0  0  0  0  0  0  0  # atno 10763 bound_to 10752
  154.6019  135.5527  153.7387 H   0  0  0  0  0  0  0  0  0  0  0  0  # atno 10764 bound_to 10752
  153.0144  135.6394  154.1926 H   0  0  0  0  0  0  0  0  0  0  0  0  # atno 10765 bound_to 10752
  139.9295  134.7607  156.1405 H   0  0  0  0  0  0  0  0  0  0  0  0  # atno 11005 bound_to 11000
  144.6729  140.1491  143.7431 LP  0  0  0  0  0  0  0  0  0  0  0  0  # atno 17320 bound_to 7965
  145.8939  139.2391  143.1533 LP  0  0  0  0  0  0  0  0  0  0  0  0  # atno 17321 bound_to 7965
  139.5085  144.3609  152.0563 LP  0  0  0  0  0  0  0  0  0  0  0  0  # atno 17342 bound_to 10162
  140.2739  144.3934  150.6142 LP  0  0  0  0  0  0  0  0  0  0  0  0  # atno 17343 bound_to 10162
  156.3807  130.3880  149.7104 LP  0  0  0  0  0  0  0  0  0  0  0  0  # atno 17370 bound_to 10713
  156.4487  130.7896  151.2918 LP  0  0  0  0  0  0  0  0  0  0  0  0  # atno 17371 bound_to 10713
  141.0874  133.6728  156.2466 LP  0  0  0  0  0  0  0  0  0  0  0  0  # atno 17394 bound_to 11000
  140.6242  134.5330  157.5551 LP  0  0  0  0  0  0  0  0  0  0  0  0  # atno 17395 bound_to 11000

$$$$
