AV-unprocessed.smi:3085|AV-procd|sdf|11756|dock3
  -GOLD-   2272017143D 1   1.00000     0.00000
 Structure written by MMmdl.
 27 28  0  0  0  0  0  0  0  0  1 V2000
  153.0607  142.3449  161.1757 C   0  0  0  0  0  0  0  0  0  0  0  0
  152.2294  143.4962  160.5984 C   0  0  0  0  0  0  0  0  0  0  0  0
  151.8278  143.2490  159.1819 C   0  0  0  0  0  0  0  0  0  0  0  0
  152.1719  142.1127  158.5043 N   0  0  0  0  0  0  0  0  0  0  0  0
  151.5652  142.3371  157.3421 C   0  0  0  0  0  0  0  0  0  0  0  0
  151.5679  141.4139  156.1645 C   0  0  2  0  0  0  0  0  0  0  0  0
  150.1451  141.1091  155.6567 C   0  0  0  0  0  0  0  0  0  0  0  0
  150.1945  140.1381  154.5649 N   0  0  0  0  0  0  0  0  0  0  0  0
  150.9043  138.9258  154.9705 C   0  0  0  0  0  0  0  0  0  0  0  0
  152.3056  139.2781  155.5019 C   0  0  0  0  0  0  0  0  0  0  0  0
  152.1900  140.2008  156.5801 O   0  0  0  0  0  0  0  0  0  0  0  0
  150.9033  143.4965  157.3310 N   0  0  0  0  0  0  0  0  0  0  0  0
  151.0521  144.1096  158.5241 N   0  0  0  0  0  0  0  0  0  0  0  0
  150.3597  143.8859  156.5741 H   0  0  0  0  0  0  0  0  0  0  0  0
  153.3430  142.5498  162.2084 H   0  0  0  0  0  0  0  0  0  0  0  0
  153.9767  142.1962  160.6030 H   0  0  0  0  0  0  0  0  0  0  0  0
  152.5007  141.4095  161.1627 H   0  0  0  0  0  0  0  0  0  0  0  0
  151.3351  143.6466  161.2043 H   0  0  0  0  0  0  0  0  0  0  0  0
  152.7979  144.4253  160.6500 H   0  0  0  0  0  0  0  0  0  0  0  0
  152.1608  141.8699  155.3690 H   0  0  0  0  0  0  0  0  0  0  0  0
  149.5385  140.7146  156.4731 H   0  0  0  0  0  0  0  0  0  0  0  0
  149.6610  142.0263  155.3210 H   0  0  0  0  0  0  0  0  0  0  0  0
  149.2501  139.8993  154.2792 H   0  0  0  0  0  0  0  0  0  0  0  0
  150.3401  138.4071  155.7464 H   0  0  0  0  0  0  0  0  0  0  0  0
  150.9835  138.2387  154.1279 H   0  0  0  0  0  0  0  0  0  0  0  0
  152.8073  138.3790  155.8595 H   0  0  0  0  0  0  0  0  0  0  0  0
  152.9303  139.6964  154.7108 H   0  0  0  0  0  0  0  0  0  0  0  0
  1  2  1  0  0  0  0
  1 15  1  0  0  0  0
  1 16  1  0  0  0  0
  1 17  1  0  0  0  0
  2 18  1  0  0  0  0
  2 19  1  0  0  0  0
  2  3  1  0  0  0  0
  3  4  1  0  0  0  0
  3 13  2  0  0  0  0
  4  5  2  0  0  0  0
  5  6  1  0  0  0  0
  5 12  1  0  0  0  0
  6 11  1  0  0  0  0
  6  7  1  0  0  0  0
  6 20  1  0  0  0  0
  7  8  1  0  0  0  0
  7 21  1  0  0  0  0
  7 22  1  0  0  0  0
  8  9  1  0  0  0  0
  8 23  1  0  0  0  0
  9 10  1  0  0  0  0
  9 24  1  0  0  0  0
  9 25  1  0  0  0  0
 10 11  1  0  0  0  0
 10 26  1  0  0  0  0
 10 27  1  0  0  0  0
 12 13  1  0  0  0  0
 12 14  1  0  0  0  0
M  END
> <s_m_source_file>
AV-unprocessed.smi

> <i_m_source_file_index>
3085

> <i_lp_mmshare_version>
43012

> <i_f3d_flags>
0

> <s_epik_input>
W0NIM11bQ0gyXWMxbmMobltuSF0xKVtDQEBIXTJbQ0gyXVtOSF1bQ0gyXVtDSDJdTzI=

> <s_epik_cmdline>
J2VwaWtfcHl0aG9uJywgJy1waCcsICc3LjAnLCAnLXRuJywgJzgnLCAnLW1hJywgJzIwMCcsICctbWV0YWxfYmluZGluZycsICctaW1hZScsICc8aW5maWxlLm1hZT4nLCAnLW9tYWUnLCAnPG91dGZpbGUubWFlPic=

> <r_epik_Ionization_Penalty>
0.98256

> <r_epik_Ionization_Penalty_Charging>
0

> <r_epik_Ionization_Penalty_Neutral>
0.98256

> <r_epik_State_Penalty>
1.54989

> <r_epik_Charging_Adjusted_Penalty>
1.54989

> <i_epik_Tot_Q>
0

> <i_epik_Tot_abs_Q>
0

> <r_epik_Metal_State_Penalty>
1.76981

> <b_epik_Metal_Only>
0

> <s_lp_Force_Field>
OPLS_2005

> <r_lp_Energy>
9.52309

> <b_lp_Chiralities_Consistent>
1

> <s_lp_Variant>
AV-unprocessed.smi:3085-7

> <Gold.Version>
5.8.1

> <Gold.Id.Protein>
6NUR|6NUR_protein|mol2

> <Gold.PLP.Fitness>
31.3833

> <Gold.PLP.PLP>
-25.2719

> <Gold.PLP.part.hbond>
-2.5184

> <Gold.PLP.part.metal>
0.0000

> <Gold.PLP.part.buried>
-5.7326

> <Gold.PLP.part.nonpolar>
-17.0847

> <Gold.PLP.part.repulsive>
0.1309

> <Gold.PLP.ligand.clash>
0.0000

> <Gold.PLP.ligand.torsion>
0.1265

> <Gold.PLP.Chemscore.Hbond>
2.1189

> <Gold.PLP.Chemscore.CHOScore>
0.0000

> <Gold.PLP.Chemscore.Metal>
0.0000

> <Gold.Chemscore.Hbonds>
donor molecule, donor type, donor heavy atom, donor atom, acceptor molecule, acceptor atom, score
      L1  H    12    14       P1  8028  1.00
      P1  H  7989  7998       L1     8  0.85
      P1  H  7997  8010       L1    11  0.13

> <Gold.PLP.Chemscore.Internal.Correction>
0.0076

> <Gold.Rescore>
     Score         DG    S(hbond)    S(metal)    S(lipo)     H(rot)  DE(clash)    DE(int)     intcor
     11.53     -11.60       1.00        0.00      51.82       1.28       0.03       0.04       ----

> <Gold.Chemscore.Fitness>
11.5279

> <Gold.Chemscore.DG>
-11.5997

> <Gold.Chemscore.ZeroCoef>
-5.4800

> <Gold.Chemscore.Hbond>
0.9992

> <Gold.Chemscore.Metal>
0.0000

> <Gold.Chemscore.Lipo>
51.8198

> <Gold.Chemscore.Internal_Hbond>
0.0000

> <Gold.Chemscore.DEClash>
0.0323

> <Gold.Chemscore.DEInternal>
0.0396

> <Gold.Chemscore.Rot>
1.2815

> <Gold.Chemscore.Internal.Correction>
   9.000000E+99

> <Gold.Chemscore.Hbonds>
donor molecule, donor type, donor heavy atom, donor atom, acceptor molecule, acceptor atom, score
      L1  H    12    14       P1  8028  0.99
      P1  H  7989  7998       L1     8  0.04

> <Gold.Chemscore.Hbond.Weighted>
-3.3373

> <Gold.Chemscore.Metal.Weighted>
-0.0000

> <Gold.Chemscore.Lipo.Weighted>
-6.0629

> <Gold.Chemscore.Internal_Hbond.Weighted>
0.0000

> <Gold.Chemscore.DEClash.Weighted>
0.0323

> <Gold.Chemscore.DEInternal.Weighted>
0.0396

> <Gold.Chemscore.Rot.Weighted>
3.2805

> <Gold.Chemscore.Internal.Correction.Weighted>
   9.000000E+99

> <Gold.Protein.RotatedTorsions>
[ 6907 6896 6895 6894 ] final   62.96 input  -60.11 | X-H torsion
[ 7974 7965 7964 7962 ] final  -19.68 input  175.53 | X-H torsion
[ 8008 7997 7996 7995 ] final   56.86 input   59.86 | X-H torsion
[ 10167 10162 10161 10158 ] final   96.56 input  -65.29 | X-H torsion
[ 10718 10713 10712 10709 ] final -127.32 input   66.30 | X-H torsion
[ 10763 10752 10751 10750 ] final   70.41 input  -60.55 | X-H torsion
[ 11005 11000 10999 10996 ] final   11.60 input  -57.11 | X-H torsion

> <Gold.Protein.ActiveResidues>
 VAL166  LYS551  ARG553  GLY616  TRP617  ASP618  TYR619  PRO620  LYS621  CYS622 
 ASP623  PHE694  ASN695  SER759  ASP760  ASP761  ALA762  ILE779  LEU786  VAL792 
 PHE793  MET794  SER795  GLU796  ALA797  LYS798  CYS799  TRP800  GLU811  SER814 

> <Gold.Protein.RotatedAtoms>
  152.4215  134.5947  159.9983 H   0  0  0  0  0  0  0  0  0  0  0  0  # atno 6907 bound_to 6896
  151.6095  133.3343  159.3072 H   0  0  0  0  0  0  0  0  0  0  0  0  # atno 6908 bound_to 6896
  150.8103  134.7292  159.6747 H   0  0  0  0  0  0  0  0  0  0  0  0  # atno 6909 bound_to 6896
  146.1828  140.4097  142.8488 H   0  0  0  0  0  0  0  0  0  0  0  0  # atno 7974 bound_to 7965
  155.5244  140.3480  155.4413 H   0  0  0  0  0  0  0  0  0  0  0  0  # atno 8008 bound_to 7997
  156.0762  140.1375  156.9795 H   0  0  0  0  0  0  0  0  0  0  0  0  # atno 8009 bound_to 7997
  154.4554  140.0955  156.6718 H   0  0  0  0  0  0  0  0  0  0  0  0  # atno 8010 bound_to 7997
  139.7883  144.6862  150.9927 H   0  0  0  0  0  0  0  0  0  0  0  0  # atno 10167 bound_to 10162
  156.1846  130.6755  151.0348 H   0  0  0  0  0  0  0  0  0  0  0  0  # atno 10718 bound_to 10713
  153.0340  135.5175  154.7436 H   0  0  0  0  0  0  0  0  0  0  0  0  # atno 10763 bound_to 10752
  154.6428  135.2914  155.0085 H   0  0  0  0  0  0  0  0  0  0  0  0  # atno 10764 bound_to 10752
  154.0996  135.6638  153.4918 H   0  0  0  0  0  0  0  0  0  0  0  0  # atno 10765 bound_to 10752
  140.5014  134.0742  155.7795 H   0  0  0  0  0  0  0  0  0  0  0  0  # atno 11005 bound_to 11000
  144.8345  140.6759  143.6269 LP  0  0  0  0  0  0  0  0  0  0  0  0  # atno 17320 bound_to 7965
  145.4026  139.1595  143.4169 LP  0  0  0  0  0  0  0  0  0  0  0  0  # atno 17321 bound_to 7965
  140.7820  143.4408  151.0554 LP  0  0  0  0  0  0  0  0  0  0  0  0  # atno 17342 bound_to 10162
  139.8086  143.7983  152.3169 LP  0  0  0  0  0  0  0  0  0  0  0  0  # atno 17343 bound_to 10162
  157.6890  131.0816  150.7160 LP  0  0  0  0  0  0  0  0  0  0  0  0  # atno 17370 bound_to 10713
  156.7217  130.4682  149.5521 LP  0  0  0  0  0  0  0  0  0  0  0  0  # atno 17371 bound_to 10713
  141.1433  133.9099  157.2274 LP  0  0  0  0  0  0  0  0  0  0  0  0  # atno 17394 bound_to 11000
  139.9711  135.0128  156.9514 LP  0  0  0  0  0  0  0  0  0  0  0  0  # atno 17395 bound_to 11000

$$$$
