AV-unprocessed.smi:2553|AV-procd|sdf|10018|dock8
  -GOLD-   2272014 63D 1   1.00000     0.00000
 Structure written by MMmdl.
 28 29  0  0  0  0  0  0  0  0  2 V2000
  152.4002  137.5951  154.1346 O   0  0  0  0  0  0  0  0  0  0  0  0
  152.4890  137.9322  155.3145 C   0  0  0  0  0  0  0  0  0  0  0  0
  153.3409  137.3250  156.1919 N   0  5  0  0  0  0  0  0  0  0  0  0
  153.4555  137.6869  157.5069 C   0  0  0  0  0  0  0  0  0  0  0  0
  154.2205  137.1140  158.2833 O   0  0  0  0  0  0  0  0  0  0  0  0
  152.6908  138.7177  157.9739 N   0  0  0  0  0  0  0  0  0  0  0  0
  152.7361  139.1630  159.3735 C   0  0  0  0  0  0  0  0  0  0  0  0
  154.0929  139.7964  159.7174 C   0  0  0  0  0  0  0  0  0  0  0  0
  153.8963  140.7490  160.7535 O   0  0  0  0  0  0  0  0  0  0  0  0
  153.2725  141.9392  160.4488 C   0  0  0  0  0  0  0  0  0  0  0  0
  152.8508  142.2991  159.1437 C   0  0  0  0  0  0  0  0  0  0  0  0
  152.2148  143.5346  158.9148 C   0  0  0  0  0  0  0  0  0  0  0  0
  151.9926  144.4234  159.9823 C   0  0  0  0  0  0  0  0  0  0  0  0
  151.3806  145.6108  159.7607 F   0  0  0  0  0  0  0  0  0  0  0  0
  152.4068  144.0754  161.2809 C   0  0  0  0  0  0  0  0  0  0  0  0
  153.0432  142.8402  161.5126 C   0  0  0  0  0  0  0  0  0  0  0  0
  153.5467  142.4361  163.1151 Cl  0  0  0  0  0  0  0  0  0  0  0  0
  151.7916  139.3712  157.1143 C   0  0  0  0  0  0  0  0  0  0  0  0
  151.6585  139.0237  155.8199 C   0  0  0  0  0  0  0  0  0  0  0  0
  150.5349  139.8378  154.7906 Cl  0  0  0  0  0  0  0  0  0  0  0  0
  151.9357  139.8779  159.5704 H   0  0  0  0  0  0  0  0  0  0  0  0
  152.5393  138.3261  160.0450 H   0  0  0  0  0  0  0  0  0  0  0  0
  154.8012  139.0256  160.0256 H   0  0  0  0  0  0  0  0  0  0  0  0
  154.4959  140.2908  158.8327 H   0  0  0  0  0  0  0  0  0  0  0  0
  153.0013  141.6422  158.3007 H   0  0  0  0  0  0  0  0  0  0  0  0
  151.8962  143.7998  157.9175 H   0  0  0  0  0  0  0  0  0  0  0  0
  152.2362  144.7576  162.1006 H   0  0  0  0  0  0  0  0  0  0  0  0
  151.2125  140.1595  157.5733 H   0  0  0  0  0  0  0  0  0  0  0  0
  1  2  2  0  0  0  0
  2 19  1  0  0  0  0
  2  3  1  0  0  0  0
  3  4  1  0  0  0  0
  4  5  2  0  0  0  0
  4  6  1  0  0  0  0
  6  7  1  0  0  0  0
  6 18  1  0  0  0  0
  7  8  1  0  0  0  0
  7 21  1  0  0  0  0
  7 22  1  0  0  0  0
  8  9  1  0  0  0  0
  8 23  1  0  0  0  0
  8 24  1  0  0  0  0
  9 10  1  0  0  0  0
 10 16  1  0  0  0  0
 10 11  2  0  0  0  0
 11 12  1  0  0  0  0
 11 25  1  0  0  0  0
 12 13  2  0  0  0  0
 12 26  1  0  0  0  0
 13 14  1  0  0  0  0
 13 15  1  0  0  0  0
 15 16  2  0  0  0  0
 15 27  1  0  0  0  0
 16 17  1  0  0  0  0
 18 19  2  0  0  0  0
 18 28  1  0  0  0  0
 19 20  1  0  0  0  0
M  CHG  1   3  -1
M  END
> <s_m_source_file>
AV-unprocessed.smi

> <i_m_source_file_index>
2553

> <i_lp_mmshare_version>
43012

> <i_f3d_flags>
0

> <s_epik_input>
Tz1jMVtuSF1jKD1PKW4oW2NIXWMxQ2wpW0NIMl1bQ0gyXU9jMltjSF1bY0hdYyhGKVtjSF1jMkNs

> <s_epik_cmdline>
J2VwaWtfcHl0aG9uJywgJy1waCcsICc3LjAnLCAnLXRuJywgJzgnLCAnLW1hJywgJzIwMCcsICctbWV0YWxfYmluZGluZycsICctaW1hZScsICc8aW5maWxlLm1hZT4nLCAnLW9tYWUnLCAnPG91dGZpbGUubWFlPic=

> <r_lp_tautomer_probability>
1

> <r_epik_Ionization_Penalty>
1.51646

> <r_epik_Ionization_Penalty_Charging>
6.90068e-09

> <r_epik_Ionization_Penalty_Neutral>
1.51646

> <r_epik_State_Penalty>
1.60792

> <r_epik_Charging_Adjusted_Penalty>
1.60792

> <i_epik_Tot_Q>
-1

> <i_epik_Tot_abs_Q>
1

> <r_epik_Metal_State_Penalty>
0.00828827

> <b_epik_Metal_Only>
0

> <s_lp_Force_Field>
OPLS_2005

> <r_lp_Energy>
21.8883

> <b_lp_Chiralities_Consistent>
1

> <s_lp_Variant>
AV-unprocessed.smi:2553-2

> <Gold.Version>
5.8.1

> <Gold.Id.Protein>
6NUR|6NUR_protein|mol2

> <Gold.PLP.Fitness>
48.6523

> <Gold.PLP.PLP>
-45.1639

> <Gold.PLP.part.hbond>
-2.0000

> <Gold.PLP.part.metal>
0.0000

> <Gold.PLP.part.buried>
-4.1490

> <Gold.PLP.part.nonpolar>
-39.0990

> <Gold.PLP.part.repulsive>
0.1395

> <Gold.PLP.ligand.clash>
0.0000

> <Gold.PLP.ligand.torsion>
0.2610

> <Gold.PLP.Chemscore.Hbond>
1.3333

> <Gold.PLP.Chemscore.CHOScore>
0.0000

> <Gold.PLP.Chemscore.Metal>
0.0000

> <Gold.Chemscore.Hbonds>
donor molecule, donor type, donor heavy atom, donor atom, acceptor molecule, acceptor atom, score
      P1  H 10752 10763       L1     3  0.66
      P1  H 10752 10765       L1     1  0.62

> <Gold.PLP.Chemscore.Internal.Correction>
0.0105

> <Gold.Rescore>
     Score         DG    S(hbond)    S(metal)    S(lipo)     H(rot)  DE(clash)    DE(int)     intcor
     16.19     -16.50       0.79        0.00     112.63       1.88       0.00       0.30       ----

> <Gold.Chemscore.Fitness>
16.1866

> <Gold.Chemscore.DG>
-16.4955

> <Gold.Chemscore.ZeroCoef>
-5.4800

> <Gold.Chemscore.Hbond>
0.7945

> <Gold.Chemscore.Metal>
0.0000

> <Gold.Chemscore.Lipo>
112.6339

> <Gold.Chemscore.Internal_Hbond>
0.0000

> <Gold.Chemscore.DEClash>
0.0042

> <Gold.Chemscore.DEInternal>
0.3047

> <Gold.Chemscore.Rot>
1.8814

> <Gold.Chemscore.Internal.Correction>
   9.000000E+99

> <Gold.Chemscore.Hbonds>
donor molecule, donor type, donor heavy atom, donor atom, acceptor molecule, acceptor atom, score
      P1  H 10752 10763       L1     3  0.16
      P1  H 10752 10765       L1     1  0.48

> <Gold.Chemscore.Hbond.Weighted>
-2.6537

> <Gold.Chemscore.Metal.Weighted>
-0.0000

> <Gold.Chemscore.Lipo.Weighted>
-13.1782

> <Gold.Chemscore.Internal_Hbond.Weighted>
0.0000

> <Gold.Chemscore.DEClash.Weighted>
0.0042

> <Gold.Chemscore.DEInternal.Weighted>
0.3047

> <Gold.Chemscore.Rot.Weighted>
4.8163

> <Gold.Chemscore.Internal.Correction.Weighted>
   9.000000E+99

> <Gold.Protein.RotatedTorsions>
[ 6907 6896 6895 6894 ] final  -76.91 input  -60.11 | X-H torsion
[ 7974 7965 7964 7962 ] final -150.45 input  175.53 | X-H torsion
[ 8008 7997 7996 7995 ] final   62.84 input   59.86 | X-H torsion
[ 10167 10162 10161 10158 ] final -178.93 input  -65.29 | X-H torsion
[ 10718 10713 10712 10709 ] final  -40.29 input   66.30 | X-H torsion
[ 10763 10752 10751 10750 ] final  129.24 input  -60.55 | X-H torsion
[ 11005 11000 10999 10996 ] final -116.63 input  -57.11 | X-H torsion

> <Gold.Protein.ActiveResidues>
 VAL166  LYS551  ARG553  GLY616  TRP617  ASP618  TYR619  PRO620  LYS621  CYS622 
 ASP623  PHE694  ASN695  SER759  ASP760  ASP761  ALA762  ILE779  LEU786  VAL792 
 PHE793  MET794  SER795  GLU796  ALA797  LYS798  CYS799  TRP800  GLU811  SER814 

> <Gold.Protein.RotatedAtoms>
  150.7014  134.4502  159.5332 H   0  0  0  0  0  0  0  0  0  0  0  0  # atno 6907 bound_to 6896
  152.2195  134.8423  160.0497 H   0  0  0  0  0  0  0  0  0  0  0  0  # atno 6908 bound_to 6896
  151.9278  133.3568  159.3957 H   0  0  0  0  0  0  0  0  0  0  0  0  # atno 6909 bound_to 6896
  144.7907  140.4930  143.5775 H   0  0  0  0  0  0  0  0  0  0  0  0  # atno 7974 bound_to 7965
  155.6207  140.3495  155.4651 H   0  0  0  0  0  0  0  0  0  0  0  0  # atno 8008 bound_to 7997
  156.0081  140.1227  157.0505 H   0  0  0  0  0  0  0  0  0  0  0  0  # atno 8009 bound_to 7997
  154.4271  140.1087  156.5777 H   0  0  0  0  0  0  0  0  0  0  0  0  # atno 8010 bound_to 7997
  139.5409  144.2365  152.0894 H   0  0  0  0  0  0  0  0  0  0  0  0  # atno 10167 bound_to 10162
  156.2830  130.4219  149.8317 H   0  0  0  0  0  0  0  0  0  0  0  0  # atno 10718 bound_to 10713
  153.7385  135.3228  155.3299 H   0  0  0  0  0  0  0  0  0  0  0  0  # atno 10763 bound_to 10752
  154.8303  135.4539  154.1050 H   0  0  0  0  0  0  0  0  0  0  0  0  # atno 10764 bound_to 10752
  153.2218  135.6949  153.8073 H   0  0  0  0  0  0  0  0  0  0  0  0  # atno 10765 bound_to 10752
  141.0409  133.9837  157.2996 H   0  0  0  0  0  0  0  0  0  0  0  0  # atno 11005 bound_to 11000
  145.5803  139.1488  143.3239 LP  0  0  0  0  0  0  0  0  0  0  0  0  # atno 17320 bound_to 7965
  146.2157  140.5933  142.9039 LP  0  0  0  0  0  0  0  0  0  0  0  0  # atno 17321 bound_to 7965
  140.1843  144.4814  150.6512 LP  0  0  0  0  0  0  0  0  0  0  0  0  # atno 17342 bound_to 10162
  140.6639  143.2261  151.5790 LP  0  0  0  0  0  0  0  0  0  0  0  0  # atno 17343 bound_to 10162
  156.5758  130.8444  151.3369 LP  0  0  0  0  0  0  0  0  0  0  0  0  # atno 17370 bound_to 10713
  157.7320  130.9708  150.1907 LP  0  0  0  0  0  0  0  0  0  0  0  0  # atno 17371 bound_to 10713
  139.9275  135.0201  156.8285 LP  0  0  0  0  0  0  0  0  0  0  0  0  # atno 17394 bound_to 11000
  140.6236  133.9970  155.7630 LP  0  0  0  0  0  0  0  0  0  0  0  0  # atno 17395 bound_to 11000

$$$$
