AV-unprocessed.smi:235|AV-procd|sdf|1806|dock4
  -GOLD-   2262020383D 1   1.00000     0.00000
 Structure written by MMmdl.
 54 58  0  0  0  0  0  0  0  0  1 V2000
  146.6420  137.7246  160.2977 O   0  0  0  0  0  0  0  0  0  0  0  0
  147.0234  136.7216  159.6925 C   0  0  0  0  0  0  0  0  0  0  0  0
  147.4855  135.6208  160.3029 N   0  0  0  0  0  0  0  0  0  0  0  0
  147.6172  135.4488  161.7130 C   0  0  0  0  0  0  0  0  0  0  0  0
  147.0158  134.2036  162.3274 C   0  0  0  0  0  0  0  0  0  0  0  0
  146.3610  135.5387  162.5520 C   0  0  0  0  0  0  0  0  0  0  0  0
  146.9868  136.6780  158.1564 C   0  0  1  0  0  0  0  0  0  0  0  0
  146.0182  135.5996  157.6443 C   0  0  0  0  0  0  0  0  0  0  0  0
  145.5796  136.1266  156.2819 C   0  0  0  0  0  0  0  0  0  0  0  0
  145.5300  137.6397  156.4896 C   0  0  0  0  0  0  0  0  0  0  0  0
  146.4612  137.9172  157.5763 N   0  0  0  0  0  0  0  0  0  0  0  0
  147.1669  139.0803  157.5727 C   0  0  0  0  0  0  0  0  0  0  0  0
  146.5043  140.2631  157.4624 N   0  0  0  0  0  0  0  0  0  0  0  0
  147.1733  141.4191  157.4547 C   0  0  0  0  0  0  0  0  0  0  0  0
  148.4885  141.6217  157.5410 N   0  0  0  0  0  0  0  0  0  0  0  0
  149.1622  140.4412  157.6461 C   0  0  0  0  0  0  0  0  0  0  0  0
  148.5879  139.1380  157.6702 C   0  0  0  0  0  0  0  0  0  0  0  0
  149.5954  138.1847  157.7753 N   0  0  0  0  0  0  0  0  0  0  0  0
  150.6969  138.8829  157.8198 C   0  0  0  0  0  0  0  0  0  0  0  0
  150.5272  140.2468  157.7535 N   0  0  0  0  0  0  0  0  0  0  0  0
  151.5686  141.2573  157.7850 C   0  0  0  0  0  0  0  0  0  0  0  0
  151.0144  142.6976  157.8033 C   0  0  2  0  0  0  0  0  0  0  0  0
  151.0490  143.1753  156.4734 O   0  0  0  0  0  0  0  0  0  0  0  0
  151.8008  143.6702  158.7100 C   0  0  1  0  0  0  0  0  0  0  0  0
  151.3160  145.1202  158.6567 C   0  0  0  0  0  0  0  0  0  0  0  0
  151.7992  145.7058  159.9734 C   0  0  0  0  0  0  0  0  0  0  0  0
  152.0685  144.4771  160.8457 C   0  0  0  0  0  0  0  0  0  0  0  0
  151.6040  143.3715  160.0845 O   0  0  0  0  0  0  0  0  0  0  0  0
  147.7773  134.8482  159.7220 H   0  0  0  0  0  0  0  0  0  0  0  0
  148.5272  135.8239  162.1793 H   0  0  0  0  0  0  0  0  0  0  0  0
  146.5125  133.5014  161.6652 H   0  0  0  0  0  0  0  0  0  0  0  0
  147.5436  133.7548  163.1664 H   0  0  0  0  0  0  0  0  0  0  0  0
  146.4497  135.9799  163.5428 H   0  0  0  0  0  0  0  0  0  0  0  0
  145.4188  135.7280  162.0410 H   0  0  0  0  0  0  0  0  0  0  0  0
  147.9822  136.4843  157.7517 H   0  0  0  0  0  0  0  0  0  0  0  0
  146.4848  134.6165  157.5778 H   0  0  0  0  0  0  0  0  0  0  0  0
  145.1449  135.5105  158.2936 H   0  0  0  0  0  0  0  0  0  0  0  0
  146.3359  135.8811  155.5351 H   0  0  0  0  0  0  0  0  0  0  0  0
  144.6284  135.7114  155.9478 H   0  0  0  0  0  0  0  0  0  0  0  0
  145.7859  138.1666  155.5691 H   0  0  0  0  0  0  0  0  0  0  0  0
  144.5312  137.9526  156.7964 H   0  0  0  0  0  0  0  0  0  0  0  0
  146.5677  142.3089  157.3669 H   0  0  0  0  0  0  0  0  0  0  0  0
  151.6685  138.4192  157.9091 H   0  0  0  0  0  0  0  0  0  0  0  0
  152.1938  141.0818  158.6618 H   0  0  0  0  0  0  0  0  0  0  0  0
  152.2068  141.1085  156.9129 H   0  0  0  0  0  0  0  0  0  0  0  0
  149.9696  142.6821  158.1159 H   0  0  0  0  0  0  0  0  0  0  0  0
  150.2368  143.6245  156.2957 H   0  0  0  0  0  0  0  0  0  0  0  0
  152.8679  143.6264  158.4826 H   0  0  0  0  0  0  0  0  0  0  0  0
  151.6945  145.6615  157.7891 H   0  0  0  0  0  0  0  0  0  0  0  0
  150.2259  145.1502  158.6227 H   0  0  0  0  0  0  0  0  0  0  0  0
  152.7149  146.2819  159.8355 H   0  0  0  0  0  0  0  0  0  0  0  0
  151.0495  146.3646  160.4126 H   0  0  0  0  0  0  0  0  0  0  0  0
  153.1373  144.3630  161.0312 H   0  0  0  0  0  0  0  0  0  0  0  0
  151.5590  144.5265  161.8082 H   0  0  0  0  0  0  0  0  0  0  0  0
  1  2  2  0  0  0  0
  2  3  1  0  0  0  0
  2  7  1  0  0  0  0
  3  4  1  0  0  0  0
  3 29  1  0  0  0  0
  4  6  1  0  0  0  0
  4  5  1  0  0  0  0
  4 30  1  0  0  0  0
  5  6  1  0  0  0  0
  5 31  1  0  0  0  0
  5 32  1  0  0  0  0
  6 33  1  0  0  0  0
  6 34  1  0  0  0  0
  7 11  1  0  0  0  0
  7  8  1  0  0  0  0
  7 35  1  0  0  0  0
  8  9  1  0  0  0  0
  8 36  1  0  0  0  0
  8 37  1  0  0  0  0
  9 10  1  0  0  0  0
  9 38  1  0  0  0  0
  9 39  1  0  0  0  0
 10 11  1  0  0  0  0
 10 40  1  0  0  0  0
 10 41  1  0  0  0  0
 11 12  1  0  0  0  0
 12 17  1  0  0  0  0
 12 13  2  0  0  0  0
 13 14  1  0  0  0  0
 14 15  2  0  0  0  0
 14 42  1  0  0  0  0
 15 16  1  0  0  0  0
 16 20  1  0  0  0  0
 16 17  2  0  0  0  0
 17 18  1  0  0  0  0
 18 19  2  0  0  0  0
 19 20  1  0  0  0  0
 19 43  1  0  0  0  0
 20 21  1  0  0  0  0
 21 22  1  0  0  0  0
 21 44  1  0  0  0  0
 21 45  1  0  0  0  0
 22 23  1  0  0  0  0
 22 24  1  0  0  0  0
 22 46  1  0  0  0  0
 23 47  1  0  0  0  0
 24 28  1  0  0  0  0
 24 25  1  0  0  0  0
 24 48  1  0  0  0  0
 25 26  1  0  0  0  0
 25 49  1  0  0  0  0
 25 50  1  0  0  0  0
 26 27  1  0  0  0  0
 26 51  1  0  0  0  0
 26 52  1  0  0  0  0
 27 28  1  0  0  0  0
 27 53  1  0  0  0  0
 27 54  1  0  0  0  0
M  END
> <s_m_source_file>
AV-unprocessed.smi

> <i_m_source_file_index>
235

> <i_lp_mmshare_version>
43012

> <i_f3d_flags>
0

> <s_epik_input>
W0NIMl0xW0NIMl1bQ0hdMVtOSF1DKD1PKVtDQEBIXTJbQ0gyXVtDSDJdW0NIMl1OMmMobltjSF1uMyljKGMzNCluW2NIXW40W0NIMl1bQ0BIXShbT0hdKVtDQEBIXTVbQ0gyXVtDSDJdW0NIMl1PNQ==

> <s_epik_cmdline>
J2VwaWtfcHl0aG9uJywgJy1waCcsICc3LjAnLCAnLXRuJywgJzgnLCAnLW1hJywgJzIwMCcsICctbWV0YWxfYmluZGluZycsICctaW1hZScsICc8aW5maWxlLm1hZT4nLCAnLW9tYWUnLCAnPG91dGZpbGUubWFlPic=

> <r_lp_tautomer_probability>
1

> <r_epik_Ionization_Penalty>
0.000526714

> <r_epik_Ionization_Penalty_Charging>
0

> <r_epik_Ionization_Penalty_Neutral>
0.000526714

> <r_epik_State_Penalty>
0.000272704

> <r_epik_Charging_Adjusted_Penalty>
0.000272704

> <i_epik_Tot_Q>
0

> <i_epik_Tot_abs_Q>
0

> <r_epik_Metal_State_Penalty>
-0

> <b_epik_Metal_Only>
0

> <s_lp_Force_Field>
OPLS_2005

> <r_lp_Energy>
59.6109

> <b_lp_Chiralities_Consistent>
1

> <s_lp_Variant>
AV-unprocessed.smi:235-6

> <Gold.Version>
5.8.1

> <Gold.Id.Protein>
6NUR|6NUR_protein|mol2

> <Gold.PLP.Fitness>
45.2801

> <Gold.PLP.PLP>
-41.4752

> <Gold.PLP.part.hbond>
-2.0000

> <Gold.PLP.part.metal>
0.0000

> <Gold.PLP.part.buried>
-8.0682

> <Gold.PLP.part.nonpolar>
-30.8121

> <Gold.PLP.part.repulsive>
0.2307

> <Gold.PLP.ligand.clash>
0.0000

> <Gold.PLP.ligand.torsion>
1.2728

> <Gold.PLP.Chemscore.Hbond>
2.0000

> <Gold.PLP.Chemscore.CHOScore>
0.0000

> <Gold.PLP.Chemscore.Metal>
0.0000

> <Gold.Chemscore.Hbonds>
donor molecule, donor type, donor heavy atom, donor atom, acceptor molecule, acceptor atom, score
      L1  H    23    47       P1  8028  1.00
      P1  H  6934  6947       L1     1  1.00

> <Gold.PLP.Chemscore.Internal.Correction>
0.3506

> <Gold.Rescore>
     Score         DG    S(hbond)    S(metal)    S(lipo)     H(rot)  DE(clash)    DE(int)     intcor
     13.13     -16.15       1.96        0.00      93.66       2.68       0.11       2.91       ----

> <Gold.Chemscore.Fitness>
13.1309

> <Gold.Chemscore.DG>
-16.1460

> <Gold.Chemscore.ZeroCoef>
-5.4800

> <Gold.Chemscore.Hbond>
1.9637

> <Gold.Chemscore.Metal>
0.0000

> <Gold.Chemscore.Lipo>
93.6563

> <Gold.Chemscore.Internal_Hbond>
0.0000

> <Gold.Chemscore.DEClash>
0.1092

> <Gold.Chemscore.DEInternal>
2.9059

> <Gold.Chemscore.Rot>
2.6760

> <Gold.Chemscore.Internal.Correction>
   9.000000E+99

> <Gold.Chemscore.Hbonds>
donor molecule, donor type, donor heavy atom, donor atom, acceptor molecule, acceptor atom, score
      L1  H    23    47       P1  8028  1.00
      P1  H  6934  6947       L1     1  0.93

> <Gold.Chemscore.Hbond.Weighted>
-6.5588

> <Gold.Chemscore.Metal.Weighted>
-0.0000

> <Gold.Chemscore.Lipo.Weighted>
-10.9578

> <Gold.Chemscore.Internal_Hbond.Weighted>
0.0000

> <Gold.Chemscore.DEClash.Weighted>
0.1092

> <Gold.Chemscore.DEInternal.Weighted>
2.9059

> <Gold.Chemscore.Rot.Weighted>
6.8506

> <Gold.Chemscore.Internal.Correction.Weighted>
   9.000000E+99

> <Gold.Protein.RotatedTorsions>
[ 6907 6896 6895 6894 ] final  126.42 input  -60.11 | X-H torsion
[ 7974 7965 7964 7962 ] final -160.93 input  175.53 | X-H torsion
[ 8008 7997 7996 7995 ] final -121.07 input   59.86 | X-H torsion
[ 10167 10162 10161 10158 ] final -112.63 input  -65.29 | X-H torsion
[ 10718 10713 10712 10709 ] final -150.16 input   66.30 | X-H torsion
[ 10763 10752 10751 10750 ] final   11.83 input  -60.55 | X-H torsion
[ 11005 11000 10999 10996 ] final -160.72 input  -57.11 | X-H torsion

> <Gold.Protein.ActiveResidues>
 VAL166  LYS551  ARG553  GLY616  TRP617  ASP618  TYR619  PRO620  LYS621  CYS622 
 ASP623  PHE694  ASN695  SER759  ASP760  ASP761  ALA762  ILE779  LEU786  VAL792 
 PHE793  MET794  SER795  GLU796  ALA797  LYS798  CYS799  TRP800  GLU811  SER814 

> <Gold.Protein.RotatedAtoms>
  152.3905  133.6671  159.6233 H   0  0  0  0  0  0  0  0  0  0  0  0  # atno 6907 bound_to 6896
  150.7814  133.8963  159.3337 H   0  0  0  0  0  0  0  0  0  0  0  0  # atno 6908 bound_to 6896
  151.6751  135.0972  160.0256 H   0  0  0  0  0  0  0  0  0  0  0  0  # atno 6909 bound_to 6896
  144.7409  140.3471  143.6123 H   0  0  0  0  0  0  0  0  0  0  0  0  # atno 7974 bound_to 7965
  155.1421  140.0402  157.2801 H   0  0  0  0  0  0  0  0  0  0  0  0  # atno 8008 bound_to 7997
  154.6466  140.2559  155.7235 H   0  0  0  0  0  0  0  0  0  0  0  0  # atno 8009 bound_to 7997
  156.2557  140.2845  156.0881 H   0  0  0  0  0  0  0  0  0  0  0  0  # atno 8010 bound_to 7997
  140.1207  143.4446  152.1693 H   0  0  0  0  0  0  0  0  0  0  0  0  # atno 10167 bound_to 10162
  156.4425  130.8128  151.2358 H   0  0  0  0  0  0  0  0  0  0  0  0  # atno 10718 bound_to 10713
  153.1886  135.6839  153.8383 H   0  0  0  0  0  0  0  0  0  0  0  0  # atno 10763 bound_to 10752
  153.7690  135.3199  155.3350 H   0  0  0  0  0  0  0  0  0  0  0  0  # atno 10764 bound_to 10752
  154.8103  135.4721  154.0597 H   0  0  0  0  0  0  0  0  0  0  0  0  # atno 10765 bound_to 10752
  140.6284  134.4677  157.5228 H   0  0  0  0  0  0  0  0  0  0  0  0  # atno 11005 bound_to 11000
  145.7314  139.1737  143.2428 LP  0  0  0  0  0  0  0  0  0  0  0  0  # atno 17320 bound_to 7965
  146.1203  140.7317  142.9461 LP  0  0  0  0  0  0  0  0  0  0  0  0  # atno 17321 bound_to 7965
  139.5570  144.7380  151.4264 LP  0  0  0  0  0  0  0  0  0  0  0  0  # atno 17342 bound_to 10162
  140.6874  143.7942  150.7205 LP  0  0  0  0  0  0  0  0  0  0  0  0  # atno 17343 bound_to 10162
  157.7506  131.0164  150.3542 LP  0  0  0  0  0  0  0  0  0  0  0  0  # atno 17370 bound_to 10713
  156.3902  130.3896  149.7035 LP  0  0  0  0  0  0  0  0  0  0  0  0  # atno 17371 bound_to 10713
  139.9126  134.8313  156.1476 LP  0  0  0  0  0  0  0  0  0  0  0  0  # atno 17394 bound_to 11000
  141.0693  133.6804  156.2108 LP  0  0  0  0  0  0  0  0  0  0  0  0  # atno 17395 bound_to 11000

$$$$
