AV-unprocessed.smi:790|AV-procd|sdf|3743|dock3
  -GOLD-   22720 1173D 1   1.00000     0.00000
 Structure written by MMmdl.
 38 40  0  0  0  0  0  0  0  0  1 V2000
  145.7693  137.6613  154.3330 O   0  0  0  0  0  0  0  0  0  0  0  0
  146.7083  137.1302  153.7416 C   0  0  0  0  0  0  0  0  0  0  0  0
  147.9116  137.6892  153.5265 N   0  0  0  0  0  0  0  0  0  0  0  0
  148.3680  138.9873  153.8840 C   0  0  0  0  0  0  0  0  0  0  0  0
  147.4521  140.0553  153.7887 C   0  0  0  0  0  0  0  0  0  0  0  0
  147.8664  141.3511  154.1504 C   0  0  0  0  0  0  0  0  0  0  0  0
  149.1875  141.5290  154.6039 C   0  0  0  0  0  0  0  0  0  0  0  0
  150.0736  140.5172  154.7143 N   0  0  0  0  0  0  0  0  0  0  0  0
  149.6696  139.2765  154.3649 C   0  0  0  0  0  0  0  0  0  0  0  0
  146.6596  135.8866  153.2439 N   0  0  0  0  0  0  0  0  0  0  0  0
  145.4954  134.9995  153.2875 C   0  0  1  0  0  0  0  0  0  0  0  0
  144.4589  135.3356  152.1864 C   0  0  1  0  0  0  0  0  0  0  0  0
  145.1233  135.4296  150.7961 C   0  0  0  0  0  0  0  0  0  0  0  0
  145.4906  133.9646  150.5005 C   0  0  0  0  0  0  0  0  0  0  0  0
  144.9578  133.2172  151.7411 C   0  0  2  0  0  0  0  0  0  0  0  0
  143.6998  134.0194  152.0526 C   0  0  0  0  0  0  0  0  0  0  0  0
  145.8099  133.5015  153.0026 C   0  0  1  0  0  0  0  0  0  0  0  0
  147.2961  133.0848  152.9228 C   0  0  0  0  0  0  0  0  0  0  0  0
  147.4060  131.7299  152.5406 O   0  0  0  0  0  0  0  0  0  0  0  0
  148.6018  137.0963  153.0891 H   0  0  0  0  0  0  0  0  0  0  0  0
  146.4436  139.8871  153.4398 H   0  0  0  0  0  0  0  0  0  0  0  0
  147.1881  142.1887  154.0827 H   0  0  0  0  0  0  0  0  0  0  0  0
  149.5401  142.5089  154.8894 H   0  0  0  0  0  0  0  0  0  0  0  0
  150.4159  138.5099  154.4999 H   0  0  0  0  0  0  0  0  0  0  0  0
  147.4833  135.5267  152.7849 H   0  0  0  0  0  0  0  0  0  0  0  0
  145.0065  135.0838  154.2602 H   0  0  0  0  0  0  0  0  0  0  0  0
  143.8357  136.1976  152.4263 H   0  0  0  0  0  0  0  0  0  0  0  0
  144.4076  135.7937  150.0577 H   0  0  0  0  0  0  0  0  0  0  0  0
  145.9855  136.0954  150.7623 H   0  0  0  0  0  0  0  0  0  0  0  0
  144.9784  133.6226  149.6003 H   0  0  0  0  0  0  0  0  0  0  0  0
  146.5580  133.8231  150.3363 H   0  0  0  0  0  0  0  0  0  0  0  0
  144.7825  132.1551  151.5663 H   0  0  0  0  0  0  0  0  0  0  0  0
  143.2029  133.7102  152.9740 H   0  0  0  0  0  0  0  0  0  0  0  0
  142.9715  134.0184  151.2395 H   0  0  0  0  0  0  0  0  0  0  0  0
  145.3738  132.9250  153.8208 H   0  0  0  0  0  0  0  0  0  0  0  0
  147.8621  133.7022  152.2264 H   0  0  0  0  0  0  0  0  0  0  0  0
  147.7681  133.1962  153.8991 H   0  0  0  0  0  0  0  0  0  0  0  0
  147.9350  131.6801  151.7591 H   0  0  0  0  0  0  0  0  0  0  0  0
  1  2  2  0  0  0  0
  2  3  1  0  0  0  0
  2 10  1  0  0  0  0
  3  4  1  0  0  0  0
  3 20  1  0  0  0  0
  4  9  1  0  0  0  0
  4  5  2  0  0  0  0
  5  6  1  0  0  0  0
  5 21  1  0  0  0  0
  6  7  2  0  0  0  0
  6 22  1  0  0  0  0
  7  8  1  0  0  0  0
  7 23  1  0  0  0  0
  8  9  2  0  0  0  0
  9 24  1  0  0  0  0
 10 11  1  0  0  0  0
 10 25  1  0  0  0  0
 11 17  1  0  0  0  0
 11 12  1  0  0  0  0
 11 26  1  0  0  0  0
 12 16  1  0  0  0  0
 12 13  1  0  0  0  0
 12 27  1  0  0  0  0
 13 14  1  0  0  0  0
 13 28  1  0  0  0  0
 13 29  1  0  0  0  0
 14 15  1  0  0  0  0
 14 30  1  0  0  0  0
 14 31  1  0  0  0  0
 15 16  1  0  0  0  0
 15 17  1  0  0  0  0
 15 32  1  0  0  0  0
 16 33  1  0  0  0  0
 16 34  1  0  0  0  0
 17 18  1  0  0  0  0
 17 35  1  0  0  0  0
 18 19  1  0  0  0  0
 18 36  1  0  0  0  0
 18 37  1  0  0  0  0
 19 38  1  0  0  0  0
M  END
> <s_m_source_file>
AV-unprocessed.smi

> <i_m_source_file_index>
790

> <i_lp_mmshare_version>
43012

> <i_f3d_flags>
0

> <s_epik_input>
W0NIMl0xW0NIMl1bQ0BASF0oW0NIMl0yKVtDQEBIXShbQ0gyXVtPSF0pW0NAQEhdKFtDQEhdMTIpW05IXUMoPU8pW05IXWMzW2NIXVtjSF1bY0hdbltjSF0z

> <s_epik_cmdline>
J2VwaWtfcHl0aG9uJywgJy1waCcsICc3LjAnLCAnLXRuJywgJzgnLCAnLW1hJywgJzIwMCcsICctbWV0YWxfYmluZGluZycsICctaW1hZScsICc8aW5maWxlLm1hZT4nLCAnLW9tYWUnLCAnPG91dGZpbGUubWFlPic=

> <r_epik_Ionization_Penalty>
0.00497582

> <r_epik_Ionization_Penalty_Charging>
0

> <r_epik_Ionization_Penalty_Neutral>
0.00497582

> <r_epik_State_Penalty>
0.00358602

> <r_epik_Charging_Adjusted_Penalty>
0.00358602

> <i_epik_Tot_Q>
0

> <i_epik_Tot_abs_Q>
0

> <r_epik_Metal_State_Penalty>
-0

> <b_epik_Metal_Only>
0

> <s_lp_Force_Field>
OPLS_2005

> <r_lp_Energy>
55.7442

> <b_lp_Chiralities_Consistent>
1

> <s_lp_Variant>
AV-unprocessed.smi:790-4

> <Gold.Version>
5.8.1

> <Gold.Id.Protein>
6NUR|6NUR_protein|mol2

> <Gold.PLP.Fitness>
42.8729

> <Gold.PLP.PLP>
-30.0447

> <Gold.PLP.part.hbond>
-3.7035

> <Gold.PLP.part.metal>
0.0000

> <Gold.PLP.part.buried>
-2.5583

> <Gold.PLP.part.nonpolar>
-24.4297

> <Gold.PLP.part.repulsive>
0.2090

> <Gold.PLP.ligand.clash>
0.0000

> <Gold.PLP.ligand.torsion>
0.5513

> <Gold.PLP.Chemscore.Hbond>
3.6400

> <Gold.PLP.Chemscore.CHOScore>
1.0000

> <Gold.PLP.Chemscore.Metal>
0.0000

> <Gold.Chemscore.Hbonds>
donor molecule, donor type, donor heavy atom, donor atom, acceptor molecule, acceptor atom, score
      L1  H     3    20       P1  7948  0.93
      L1  H    10    25       P1  7948  0.75
      L1  H    19    38       P1 10747  1.00
      P1  H  7989  7998       L1     8  0.91
      L1  C     7    23       P1  8028  1.00

> <Gold.PLP.Chemscore.Internal.Correction>
0.0107

> <Gold.Rescore>
     Score         DG    S(hbond)    S(metal)    S(lipo)     H(rot)  DE(clash)    DE(int)     intcor
     18.00     -19.77       3.13        0.00      71.68       1.78       0.10       1.68       ----

> <Gold.Chemscore.Fitness>
17.9964

> <Gold.Chemscore.DG>
-19.7694

> <Gold.Chemscore.ZeroCoef>
-5.4800

> <Gold.Chemscore.Hbond>
3.1304

> <Gold.Chemscore.Metal>
0.0000

> <Gold.Chemscore.Lipo>
71.6775

> <Gold.Chemscore.Internal_Hbond>
0.0000

> <Gold.Chemscore.DEClash>
0.0964

> <Gold.Chemscore.DEInternal>
1.6766

> <Gold.Chemscore.Rot>
1.7783

> <Gold.Chemscore.Internal.Correction>
   9.000000E+99

> <Gold.Chemscore.Hbonds>
donor molecule, donor type, donor heavy atom, donor atom, acceptor molecule, acceptor atom, score
      L1  H     3    20       P1  7948  0.85
      L1  H    10    25       P1  7948  0.76
      L1  H    19    38       P1 10747  0.97
      P1  H  7989  7998       L1     8  0.25

> <Gold.Chemscore.Hbond.Weighted>
-10.4556

> <Gold.Chemscore.Metal.Weighted>
-0.0000

> <Gold.Chemscore.Lipo.Weighted>
-8.3863

> <Gold.Chemscore.Internal_Hbond.Weighted>
0.0000

> <Gold.Chemscore.DEClash.Weighted>
0.0964

> <Gold.Chemscore.DEInternal.Weighted>
1.6766

> <Gold.Chemscore.Rot.Weighted>
4.5525

> <Gold.Chemscore.Internal.Correction.Weighted>
   9.000000E+99

> <Gold.Protein.RotatedTorsions>
[ 6907 6896 6895 6894 ] final   32.71 input  -60.11 | X-H torsion
[ 7974 7965 7964 7962 ] final  -87.50 input  175.53 | X-H torsion
[ 8008 7997 7996 7995 ] final -130.91 input   59.86 | X-H torsion
[ 10167 10162 10161 10158 ] final  121.29 input  -65.29 | X-H torsion
[ 10718 10713 10712 10709 ] final   23.91 input   66.30 | X-H torsion
[ 10763 10752 10751 10750 ] final   35.15 input  -60.55 | X-H torsion
[ 11005 11000 10999 10996 ] final  137.14 input  -57.11 | X-H torsion

> <Gold.Protein.ActiveResidues>
 VAL166  LYS551  ARG553  GLY616  TRP617  ASP618  TYR619  PRO620  LYS621  CYS622 
 ASP623  PHE694  ASN695  SER759  ASP760  ASP761  ALA762  ILE779  LEU786  VAL792 
 PHE793  MET794  SER795  GLU796  ALA797  LYS798  CYS799  TRP800  GLU811  SER814 

> <Gold.Protein.RotatedAtoms>
  152.0783  134.9488  160.0573 H   0  0  0  0  0  0  0  0  0  0  0  0  # atno 6907 bound_to 6896
  152.0787  133.4137  159.4499 H   0  0  0  0  0  0  0  0  0  0  0  0  # atno 6908 bound_to 6896
  150.6836  134.2927  159.4717 H   0  0  0  0  0  0  0  0  0  0  0  0  # atno 6909 bound_to 6896
  145.4657  140.9560  143.1945 H   0  0  0  0  0  0  0  0  0  0  0  0  # atno 7974 bound_to 7965
  155.3035  140.0454  157.3031 H   0  0  0  0  0  0  0  0  0  0  0  0  # atno 8008 bound_to 7997
  154.5473  140.2306  155.8509 H   0  0  0  0  0  0  0  0  0  0  0  0  # atno 8009 bound_to 7997
  156.1935  140.3044  155.9387 H   0  0  0  0  0  0  0  0  0  0  0  0  # atno 8010 bound_to 7997
  139.5928  144.7031  151.3248 H   0  0  0  0  0  0  0  0  0  0  0  0  # atno 10167 bound_to 10162
  157.1725  130.6766  149.6083 H   0  0  0  0  0  0  0  0  0  0  0  0  # atno 10718 bound_to 10713
  153.0132  135.6341  154.1781 H   0  0  0  0  0  0  0  0  0  0  0  0  # atno 10763 bound_to 10752
  154.1522  135.2828  155.3134 H   0  0  0  0  0  0  0  0  0  0  0  0  # atno 10764 bound_to 10752
  154.6045  135.5576  153.7469 H   0  0  0  0  0  0  0  0  0  0  0  0  # atno 10765 bound_to 10752
  140.0094  134.9445  157.0245 H   0  0  0  0  0  0  0  0  0  0  0  0  # atno 11005 bound_to 11000
  144.7975  139.6205  143.7086 LP  0  0  0  0  0  0  0  0  0  0  0  0  # atno 17320 bound_to 7965
  146.2425  139.6031  142.9481 LP  0  0  0  0  0  0  0  0  0  0  0  0  # atno 17321 bound_to 7965
  140.7187  143.7194  150.7707 LP  0  0  0  0  0  0  0  0  0  0  0  0  # atno 17342 bound_to 10162
  140.0754  143.5020  152.2558 LP  0  0  0  0  0  0  0  0  0  0  0  0  # atno 17343 bound_to 10162
  155.9736  130.4674  150.6323 LP  0  0  0  0  0  0  0  0  0  0  0  0  # atno 17370 bound_to 10713
  157.4029  131.0812  151.1291 LP  0  0  0  0  0  0  0  0  0  0  0  0  # atno 17371 bound_to 10713
  140.4582  134.1511  155.7188 LP  0  0  0  0  0  0  0  0  0  0  0  0  # atno 17394 bound_to 11000
  141.1700  133.8627  157.1599 LP  0  0  0  0  0  0  0  0  0  0  0  0  # atno 17395 bound_to 11000

$$$$
