AV-unprocessed.smi:79|AV-procd|sdf|779|dock2
  -GOLD-   2262017133D 1   1.00000     0.00000
 Structure written by MMmdl.
 56 59  0  0  0  0  0  0  0  0  2 V2000
  145.2194  131.4334  150.8512 C   0  0  0  0  0  0  0  0  0  0  0  0
  145.4044  132.9565  150.8560 C   0  0  2  0  0  0  0  0  0  0  0  0
  144.7797  133.4719  149.6973 O   0  0  0  0  0  0  0  0  0  0  0  0
  146.8956  133.3501  150.8542 C   0  0  0  0  0  0  0  0  0  0  0  0
  147.3832  133.7795  152.1900 N   0  3  1  0  0  0  0  0  0  0  0  0
  146.3203  134.3630  153.0475 C   0  0  0  0  0  0  0  0  0  0  0  0
  146.9037  134.8645  154.3763 C   0  0  0  0  0  0  0  0  0  0  0  0
  147.6570  133.8130  155.0522 N   0  0  0  0  0  0  0  0  0  0  0  0
  148.0302  134.1989  156.2927 C   0  0  0  0  0  0  0  0  0  0  0  0
  149.0232  135.1167  156.3814 N   0  0  0  0  0  0  0  0  0  0  0  0
  149.4347  135.5399  157.5808 C   0  0  0  0  0  0  0  0  0  0  0  0
  148.9983  135.1769  158.7891 N   0  0  0  0  0  0  0  0  0  0  0  0
  148.0019  134.2496  158.7009 C   0  0  0  0  0  0  0  0  0  0  0  0
  147.4607  133.7084  157.5015 C   0  0  0  0  0  0  0  0  0  0  0  0
  146.4648  132.7875  157.8029 N   0  0  0  0  0  0  0  0  0  0  0  0
  146.4205  132.7842  159.1075 C   0  0  0  0  0  0  0  0  0  0  0  0
  147.3037  133.6392  159.7284 N   0  0  0  0  0  0  0  0  0  0  0  0
  147.4699  133.8335  161.1608 C   0  0  0  0  0  0  0  0  0  0  0  0
  146.8426  135.1388  161.6895 C   0  0  0  0  0  0  0  0  0  0  0  0
  145.3477  134.9382  161.9948 C   0  0  0  0  0  0  0  0  0  0  0  0
  145.1503  133.9907  163.0246 O   0  0  0  0  0  0  0  0  0  0  0  0
  147.6243  135.8536  162.8012 C   0  0  0  0  0  0  0  0  0  0  0  0
  147.6137  137.1059  162.0848 O   0  0  0  0  0  0  0  0  0  0  0  0
  147.1755  136.4109  160.8980 C   0  0  0  0  0  0  0  0  0  0  0  0
  148.7045  133.1868  154.2371 C   0  0  1  0  0  0  0  0  0  0  0  0
  149.4075  132.0205  154.9611 C   0  0  0  0  0  0  0  0  0  0  0  0
  148.1130  132.6979  152.8980 C   0  0  0  0  0  0  0  0  0  0  0  0
  145.6641  130.9826  151.7388 H   0  0  0  0  0  0  0  0  0  0  0  0
  145.6865  130.9766  149.9779 H   0  0  0  0  0  0  0  0  0  0  0  0
  144.1622  131.1654  150.8416 H   0  0  0  0  0  0  0  0  0  0  0  0
  144.8936  133.3583  151.7303 H   0  0  0  0  0  0  0  0  0  0  0  0
  145.4329  133.8799  149.1502 H   0  0  0  0  0  0  0  0  0  0  0  0
  147.5093  132.5195  150.5019 H   0  0  0  0  0  0  0  0  0  0  0  0
  147.0373  134.1563  150.1324 H   0  0  0  0  0  0  0  0  0  0  0  0
  145.8281  135.1923  152.5413 H   0  0  0  0  0  0  0  0  0  0  0  0
  145.5544  133.6100  153.2401 H   0  0  0  0  0  0  0  0  0  0  0  0
  147.5562  135.7186  154.1889 H   0  0  0  0  0  0  0  0  0  0  0  0
  146.0966  135.2164  155.0211 H   0  0  0  0  0  0  0  0  0  0  0  0
  150.2269  136.2742  157.5711 H   0  0  0  0  0  0  0  0  0  0  0  0
  145.7376  132.1513  159.6553 H   0  0  0  0  0  0  0  0  0  0  0  0
  147.0298  132.9704  161.6619 H   0  0  0  0  0  0  0  0  0  0  0  0
  148.5337  133.7914  161.3964 H   0  0  0  0  0  0  0  0  0  0  0  0
  144.8622  135.8739  162.2720 H   0  0  0  0  0  0  0  0  0  0  0  0
  144.8225  134.5777  161.1095 H   0  0  0  0  0  0  0  0  0  0  0  0
  144.3434  134.1967  163.4720 H   0  0  0  0  0  0  0  0  0  0  0  0
  147.0950  135.9090  163.7533 H   0  0  0  0  0  0  0  0  0  0  0  0
  148.6407  135.4835  162.9424 H   0  0  0  0  0  0  0  0  0  0  0  0
  147.9867  136.2867  160.1790 H   0  0  0  0  0  0  0  0  0  0  0  0
  146.3113  136.8842  160.4305 H   0  0  0  0  0  0  0  0  0  0  0  0
  149.4543  133.9456  154.0097 H   0  0  0  0  0  0  0  0  0  0  0  0
  150.1455  131.5470  154.3129 H   0  0  0  0  0  0  0  0  0  0  0  0
  148.6928  131.2541  155.2632 H   0  0  0  0  0  0  0  0  0  0  0  0
  149.9375  132.3533  155.8541 H   0  0  0  0  0  0  0  0  0  0  0  0
  147.4320  131.8622  153.0705 H   0  0  0  0  0  0  0  0  0  0  0  0
  148.9180  132.3251  152.2629 H   0  0  0  0  0  0  0  0  0  0  0  0
  148.0624  134.5081  152.0243 H   0  0  0  0  0  0  0  0  0  0  0  0
  1  2  1  0  0  0  0
  1 28  1  0  0  0  0
  1 29  1  0  0  0  0
  1 30  1  0  0  0  0
  2  3  1  0  0  0  0
  2  4  1  0  0  0  0
  2 31  1  0  0  0  0
  3 32  1  0  0  0  0
  4  5  1  0  0  0  0
  4 33  1  0  0  0  0
  4 34  1  0  0  0  0
  5 27  1  0  0  0  0
  5  6  1  0  0  0  0
  5 56  1  0  0  0  0
  6  7  1  0  0  0  0
  6 35  1  0  0  0  0
  6 36  1  0  0  0  0
  7  8  1  0  0  0  0
  7 37  1  0  0  0  0
  7 38  1  0  0  0  0
  8  9  1  0  0  0  0
  8 25  1  0  0  0  0
  9 14  1  0  0  0  0
  9 10  2  0  0  0  0
 10 11  1  0  0  0  0
 11 12  2  0  0  0  0
 11 39  1  0  0  0  0
 12 13  1  0  0  0  0
 13 17  1  0  0  0  0
 13 14  2  0  0  0  0
 14 15  1  0  0  0  0
 15 16  2  0  0  0  0
 16 17  1  0  0  0  0
 16 40  1  0  0  0  0
 17 18  1  0  0  0  0
 18 19  1  0  0  0  0
 18 41  1  0  0  0  0
 18 42  1  0  0  0  0
 19 24  1  0  0  0  0
 19 20  1  0  0  0  0
 19 22  1  0  0  0  0
 20 21  1  0  0  0  0
 20 43  1  0  0  0  0
 20 44  1  0  0  0  0
 21 45  1  0  0  0  0
 22 23  1  0  0  0  0
 22 46  1  0  0  0  0
 22 47  1  0  0  0  0
 23 24  1  0  0  0  0
 24 48  1  0  0  0  0
 24 49  1  0  0  0  0
 25 26  1  0  0  0  0
 25 27  1  0  0  0  0
 25 50  1  0  0  0  0
 26 51  1  0  0  0  0
 26 52  1  0  0  0  0
 26 53  1  0  0  0  0
 27 54  1  0  0  0  0
 27 55  1  0  0  0  0
M  CHG  1   5   1
M  END
> <s_m_source_file>
AV-unprocessed.smi

> <i_m_source_file_index>
79

> <i_lp_mmshare_version>
43012

> <i_f3d_flags>
0

> <s_epik_input>
W0NIM11bQ0BIXShbT0hdKVtDSDJdTjFbQ0gyXVtDSDJdTihbQ0BASF0oW0NIM10pW0NIMl0xKWMobltjSF1uMiljKGMyMyluW2NIXW4zW0NIMl1DNChbQ0gyXVtPSF0pW0NIMl1PW0NIMl00

> <s_epik_cmdline>
J2VwaWtfcHl0aG9uJywgJy1waCcsICc3LjAnLCAnLXRuJywgJzgnLCAnLW1hJywgJzIwMCcsICctbWV0YWxfYmluZGluZycsICctaW1hZScsICc8aW5maWxlLm1hZT4nLCAnLW9tYWUnLCAnPG91dGZpbGUubWFlPic=

> <r_lp_tautomer_probability>
1

> <r_epik_Ionization_Penalty>
0.00515943

> <r_epik_Ionization_Penalty_Charging>
0.00509693

> <r_epik_Ionization_Penalty_Neutral>
6.25007e-05

> <r_epik_State_Penalty>
-0

> <r_epik_Charging_Adjusted_Penalty>
0.00509693

> <i_epik_Tot_Q>
1

> <i_epik_Tot_abs_Q>
1

> <r_epik_Metal_State_Penalty>
-0

> <b_epik_Metal_Only>
0

> <s_lp_Force_Field>
OPLS_2005

> <r_lp_Energy>
50.7064

> <b_lp_Chiralities_Consistent>
1

> <s_lp_Variant>
AV-unprocessed.smi:79-3

> <Gold.Version>
5.8.1

> <Gold.Id.Protein>
6NUR|6NUR_protein|mol2

> <Gold.PLP.Fitness>
52.8491

> <Gold.PLP.PLP>
-40.8798

> <Gold.PLP.part.hbond>
-6.0000

> <Gold.PLP.part.metal>
0.0000

> <Gold.PLP.part.buried>
-6.5345

> <Gold.PLP.part.nonpolar>
-28.1953

> <Gold.PLP.part.repulsive>
0.0909

> <Gold.PLP.ligand.clash>
0.0000

> <Gold.PLP.ligand.torsion>
1.9677

> <Gold.PLP.Chemscore.Hbond>
5.0505

> <Gold.PLP.Chemscore.CHOScore>
0.0000

> <Gold.PLP.Chemscore.Metal>
0.0000

> <Gold.Chemscore.Hbonds>
donor molecule, donor type, donor heavy atom, donor atom, acceptor molecule, acceptor atom, score
      L1  H     3    32       P1  7921  1.00
      L1  H     5    56       P1  7948  1.60
      P1  H  6896  6908       L1    12  0.95
      P1  H  6931  6943       L1    23  0.99
      P1  H  6934  6947       L1    23  0.09

> <Gold.PLP.Chemscore.Internal.Correction>
0.7533

> <Gold.Rescore>
     Score         DG    S(hbond)    S(metal)    S(lipo)     H(rot)  DE(clash)    DE(int)     intcor
     14.44     -16.75       3.34        0.00      82.44       3.72       0.23       2.07       ----

> <Gold.Chemscore.Fitness>
14.4439

> <Gold.Chemscore.DG>
-16.7461

> <Gold.Chemscore.ZeroCoef>
-5.4800

> <Gold.Chemscore.Hbond>
3.3386

> <Gold.Chemscore.Metal>
0.0000

> <Gold.Chemscore.Lipo>
82.4372

> <Gold.Chemscore.Internal_Hbond>
0.0000

> <Gold.Chemscore.DEClash>
0.2339

> <Gold.Chemscore.DEInternal>
2.0683

> <Gold.Chemscore.Rot>
3.7226

> <Gold.Chemscore.Internal.Correction>
   9.000000E+99

> <Gold.Chemscore.Hbonds>
donor molecule, donor type, donor heavy atom, donor atom, acceptor molecule, acceptor atom, score
      L1  H     3    32       P1  7921  0.69
      L1  H     5    56       P1  7948  0.12
      P1  H  6896  6908       L1    12  0.18
      P1  H  6931  6943       L1    23  0.90

> <Gold.Chemscore.Hbond.Weighted>
-11.1508

> <Gold.Chemscore.Metal.Weighted>
-0.0000

> <Gold.Chemscore.Lipo.Weighted>
-9.6452

> <Gold.Chemscore.Internal_Hbond.Weighted>
0.0000

> <Gold.Chemscore.DEClash.Weighted>
0.2339

> <Gold.Chemscore.DEInternal.Weighted>
2.0683

> <Gold.Chemscore.Rot.Weighted>
9.5298

> <Gold.Chemscore.Internal.Correction.Weighted>
   9.000000E+99

> <Gold.Protein.RotatedTorsions>
[ 6907 6896 6895 6894 ] final  158.48 input  -60.11 | X-H torsion
[ 7974 7965 7964 7962 ] final   73.39 input  175.53 | X-H torsion
[ 8008 7997 7996 7995 ] final -107.56 input   59.86 | X-H torsion
[ 10167 10162 10161 10158 ] final -125.39 input  -65.29 | X-H torsion
[ 10718 10713 10712 10709 ] final  178.84 input   66.30 | X-H torsion
[ 10763 10752 10751 10750 ] final  -53.73 input  -60.55 | X-H torsion
[ 11005 11000 10999 10996 ] final -106.92 input  -57.11 | X-H torsion

> <Gold.Protein.ActiveResidues>
 VAL166  LYS551  ARG553  GLY616  TRP617  ASP618  TYR619  PRO620  LYS621  CYS622 
 ASP623  PHE694  ASN695  SER759  ASP760  ASP761  ALA762  ILE779  LEU786  VAL792 
 PHE793  MET794  SER795  GLU796  ALA797  LYS798  CYS799  TRP800  GLU811  SER814 

> <Gold.Protein.RotatedAtoms>
  151.9998  133.3821  159.4176 H   0  0  0  0  0  0  0  0  0  0  0  0  # atno 6907 bound_to 6896
  150.6911  134.3847  159.5059 H   0  0  0  0  0  0  0  0  0  0  0  0  # atno 6908 bound_to 6896
  152.1592  134.8925  160.0593 H   0  0  0  0  0  0  0  0  0  0  0  0  # atno 6909 bound_to 6896
  145.7415  139.2723  143.1484 H   0  0  0  0  0  0  0  0  0  0  0  0  # atno 7974 bound_to 7965
  154.9312  140.0405  157.2049 H   0  0  0  0  0  0  0  0  0  0  0  0  # atno 8008 bound_to 7997
  154.8159  140.2875  155.5799 H   0  0  0  0  0  0  0  0  0  0  0  0  # atno 8009 bound_to 7997
  156.2976  140.2528  156.3056 H   0  0  0  0  0  0  0  0  0  0  0  0  # atno 8010 bound_to 7997
  139.9826  143.5726  152.2372 H   0  0  0  0  0  0  0  0  0  0  0  0  # atno 10167 bound_to 10162
  156.8846  130.9827  151.3057 H   0  0  0  0  0  0  0  0  0  0  0  0  # atno 10718 bound_to 10713
  154.1636  135.6470  153.4992 H   0  0  0  0  0  0  0  0  0  0  0  0  # atno 10763 bound_to 10752
  153.0104  135.5366  154.6685 H   0  0  0  0  0  0  0  0  0  0  0  0  # atno 10764 bound_to 10752
  154.6006  135.2943  155.0511 H   0  0  0  0  0  0  0  0  0  0  0  0  # atno 10765 bound_to 10752
  141.0980  133.8935  157.1913 H   0  0  0  0  0  0  0  0  0  0  0  0  # atno 11005 bound_to 11000
  146.0443  140.8133  142.9813 LP  0  0  0  0  0  0  0  0  0  0  0  0  # atno 17320 bound_to 7965
  144.6869  140.2957  143.7271 LP  0  0  0  0  0  0  0  0  0  0  0  0  # atno 17321 bound_to 7965
  139.6399  144.7653  151.2361 LP  0  0  0  0  0  0  0  0  0  0  0  0  # atno 17342 bound_to 10162
  140.7484  143.6335  150.8400 LP  0  0  0  0  0  0  0  0  0  0  0  0  # atno 17343 bound_to 10162
  157.6120  130.8590  149.8967 LP  0  0  0  0  0  0  0  0  0  0  0  0  # atno 17370 bound_to 10713
  156.0660  130.3692  150.0878 LP  0  0  0  0  0  0  0  0  0  0  0  0  # atno 17371 bound_to 10713
  139.9823  135.0094  156.9779 LP  0  0  0  0  0  0  0  0  0  0  0  0  # atno 17394 bound_to 11000
  140.5091  134.1020  155.7266 LP  0  0  0  0  0  0  0  0  0  0  0  0  # atno 17395 bound_to 11000

$$$$
