AV-unprocessed.smi:1978|AV-procd|sdf|8003|dock9
  -GOLD-   2272010193D 1   1.00000     0.00000
 Structure written by MMmdl.
 44 45  0  0  0  0  0  0  0  0  3 V2000
  146.5633  135.7833  162.7280 C   0  0  0  0  0  0  0  0  0  0  0  0
  147.3432  135.8524  161.4596 C   0  0  0  0  0  0  0  0  0  0  0  0
  147.8869  134.8941  160.6521 C   0  0  0  0  0  0  0  0  0  0  0  0
  148.4972  135.6513  159.6148 C   0  0  0  0  0  0  0  0  0  0  0  0
  149.1587  135.1560  158.5573 N   0  5  0  0  0  0  0  0  0  0  0  0
  149.0685  135.7624  157.3517 C   0  0  0  0  0  0  0  0  0  0  0  0
  149.3406  136.9389  157.1017 O   0  0  0  0  0  0  0  0  0  0  0  0
  148.6325  134.9524  156.3773 N   0  0  0  0  0  0  0  0  0  0  0  0
  148.3980  135.3280  154.9863 C   0  0  0  0  0  0  0  0  0  0  0  0
  146.8947  135.2543  154.6353 C   0  0  1  0  0  0  0  0  0  0  0  0
  146.0956  136.4490  155.2012 C   0  0  0  0  0  0  0  0  0  0  0  0
  146.6788  135.0573  153.1641 N   0  3  2  0  0  0  0  0  0  0  0  0
  145.4152  135.6669  152.6515 C   0  0  0  0  0  0  0  0  0  0  0  0
  145.3755  135.6761  151.1167 C   0  0  0  0  0  0  0  0  0  0  0  0
  145.5257  134.2566  150.5666 C   0  0  0  0  0  0  0  0  0  0  0  0
  146.8072  133.6247  151.1188 C   0  0  0  0  0  0  0  0  0  0  0  0
  146.8451  133.6508  152.6630 C   0  0  1  0  0  0  0  0  0  0  0  0
  148.1429  132.9675  153.1406 C   0  0  0  0  0  0  0  0  0  0  0  0
  148.3258  136.9531  159.7713 N   0  0  0  0  0  0  0  0  0  0  0  0
  147.5913  137.0910  160.9552 O   0  0  0  0  0  0  0  0  0  0  0  0
  145.5868  135.3311  162.5547 H   0  0  0  0  0  0  0  0  0  0  0  0
  146.4059  136.7769  163.1486 H   0  0  0  0  0  0  0  0  0  0  0  0
  147.0881  135.1823  163.4707 H   0  0  0  0  0  0  0  0  0  0  0  0
  147.8572  133.8230  160.7833 H   0  0  0  0  0  0  0  0  0  0  0  0
  148.4299  133.9969  156.6331 H   0  0  0  0  0  0  0  0  0  0  0  0
  148.7843  136.3318  154.8142 H   0  0  0  0  0  0  0  0  0  0  0  0
  148.9696  134.6528  154.3484 H   0  0  0  0  0  0  0  0  0  0  0  0
  146.5497  134.3622  155.1527 H   0  0  0  0  0  0  0  0  0  0  0  0
  146.1613  136.4868  156.2888 H   0  0  0  0  0  0  0  0  0  0  0  0
  145.0364  136.3821  154.9545 H   0  0  0  0  0  0  0  0  0  0  0  0
  146.4700  137.4013  154.8254 H   0  0  0  0  0  0  0  0  0  0  0  0
  144.5552  135.1157  153.0335 H   0  0  0  0  0  0  0  0  0  0  0  0
  145.3030  136.6938  152.9921 H   0  0  0  0  0  0  0  0  0  0  0  0
  144.4373  136.1110  150.7705 H   0  0  0  0  0  0  0  0  0  0  0  0
  146.1738  136.3111  150.7301 H   0  0  0  0  0  0  0  0  0  0  0  0
  144.6618  133.6540  150.8505 H   0  0  0  0  0  0  0  0  0  0  0  0
  145.5520  134.2741  149.4766 H   0  0  0  0  0  0  0  0  0  0  0  0
  146.8830  132.5980  150.7580 H   0  0  0  0  0  0  0  0  0  0  0  0
  147.6735  134.1545  150.7199 H   0  0  0  0  0  0  0  0  0  0  0  0
  146.0047  133.0578  153.0262 H   0  0  0  0  0  0  0  0  0  0  0  0
  148.2953  132.0187  152.6255 H   0  0  0  0  0  0  0  0  0  0  0  0
  148.1152  132.7310  154.2040 H   0  0  0  0  0  0  0  0  0  0  0  0
  149.0171  133.5899  152.9466 H   0  0  0  0  0  0  0  0  0  0  0  0
  147.4265  135.5782  152.7283 H   0  0  0  0  0  0  0  0  0  0  0  0
  1  2  1  0  0  0  0
  1 21  1  0  0  0  0
  1 22  1  0  0  0  0
  1 23  1  0  0  0  0
  2 20  1  0  0  0  0
  2  3  2  0  0  0  0
  3  4  1  0  0  0  0
  3 24  1  0  0  0  0
  4  5  1  0  0  0  0
  4 19  2  0  0  0  0
  5  6  1  0  0  0  0
  6  7  2  0  0  0  0
  6  8  1  0  0  0  0
  8  9  1  0  0  0  0
  8 25  1  0  0  0  0
  9 10  1  0  0  0  0
  9 26  1  0  0  0  0
  9 27  1  0  0  0  0
 10 11  1  0  0  0  0
 10 12  1  0  0  0  0
 10 28  1  0  0  0  0
 11 29  1  0  0  0  0
 11 30  1  0  0  0  0
 11 31  1  0  0  0  0
 12 17  1  0  0  0  0
 12 13  1  0  0  0  0
 12 44  1  0  0  0  0
 13 14  1  0  0  0  0
 13 32  1  0  0  0  0
 13 33  1  0  0  0  0
 14 15  1  0  0  0  0
 14 34  1  0  0  0  0
 14 35  1  0  0  0  0
 15 16  1  0  0  0  0
 15 36  1  0  0  0  0
 15 37  1  0  0  0  0
 16 17  1  0  0  0  0
 16 38  1  0  0  0  0
 16 39  1  0  0  0  0
 17 18  1  0  0  0  0
 17 40  1  0  0  0  0
 18 41  1  0  0  0  0
 18 42  1  0  0  0  0
 18 43  1  0  0  0  0
 19 20  1  0  0  0  0
M  CHG  1   5  -1
M  CHG  1  12   1
M  END
> <s_m_source_file>
AV-unprocessed.smi

> <i_m_source_file_index>
1978

> <i_lp_mmshare_version>
43012

> <i_f3d_flags>
0

> <s_epik_input>
W0NIM11jMVtjSF1jKG5vMSlbTkhdQyg9TylbTkhdW0NIMl1bQ0BIXShbQ0gzXSlOMltDSDJdW0NIMl1bQ0gyXVtDSDJdW0NASF0yW0NIM10=

> <s_epik_cmdline>
J2VwaWtfcHl0aG9uJywgJy1waCcsICc3LjAnLCAnLXRuJywgJzgnLCAnLW1hJywgJzIwMCcsICctbWV0YWxfYmluZGluZycsICctaW1hZScsICc8aW5maWxlLm1hZT4nLCAnLW9tYWUnLCAnPG91dGZpbGUubWFlPic=

> <r_epik_Ionization_Penalty>
6.22372

> <r_epik_Ionization_Penalty_Charging>
6.22362

> <r_epik_Ionization_Penalty_Neutral>
9.65074e-05

> <r_epik_State_Penalty>
6.22363

> <r_epik_Charging_Adjusted_Penalty>
12.4472

> <i_epik_Tot_Q>
0

> <i_epik_Tot_abs_Q>
2

> <r_epik_Metal_State_Penalty>
2.16675

> <b_epik_Metal_Only>
1

> <s_lp_Force_Field>
OPLS_2005

> <r_lp_Energy>
13.2836

> <b_lp_Chiralities_Consistent>
1

> <s_lp_Variant>
AV-unprocessed.smi:1978-12

> <Gold.Version>
5.8.1

> <Gold.Id.Protein>
6NUR|6NUR_protein|mol2

> <Gold.PLP.Fitness>
42.2474

> <Gold.PLP.PLP>
-28.5029

> <Gold.PLP.part.hbond>
-4.3453

> <Gold.PLP.part.metal>
0.0000

> <Gold.PLP.part.buried>
-2.9185

> <Gold.PLP.part.nonpolar>
-20.6966

> <Gold.PLP.part.repulsive>
0.0189

> <Gold.PLP.ligand.clash>
0.0000

> <Gold.PLP.ligand.torsion>
1.7080

> <Gold.PLP.Chemscore.Hbond>
5.6720

> <Gold.PLP.Chemscore.CHOScore>
0.0000

> <Gold.PLP.Chemscore.Metal>
0.0000

> <Gold.Chemscore.Hbonds>
donor molecule, donor type, donor heavy atom, donor atom, acceptor molecule, acceptor atom, score
      L1  H    12    44       P1  7948  2.00
      P1  H  6896  6908       L1     5  2.00
      P1  H  6931  6943       L1    20  0.56
      P1  H  6934  6947       L1    20  0.96

> <Gold.PLP.Chemscore.Internal.Correction>
0.1446

> <Gold.Rescore>
     Score         DG    S(hbond)    S(metal)    S(lipo)     H(rot)  DE(clash)    DE(int)     intcor
     14.76     -17.98       2.76        0.00      61.22       1.52       0.03       3.20       ----

> <Gold.Chemscore.Fitness>
14.7551

> <Gold.Chemscore.DG>
-17.9784

> <Gold.Chemscore.ZeroCoef>
-5.4800

> <Gold.Chemscore.Hbond>
2.7616

> <Gold.Chemscore.Metal>
0.0000

> <Gold.Chemscore.Lipo>
61.2250

> <Gold.Chemscore.Internal_Hbond>
0.0000

> <Gold.Chemscore.DEClash>
0.0263

> <Gold.Chemscore.DEInternal>
3.1971

> <Gold.Chemscore.Rot>
1.5190

> <Gold.Chemscore.Internal.Correction>
   9.000000E+99

> <Gold.Chemscore.Hbonds>
donor molecule, donor type, donor heavy atom, donor atom, acceptor molecule, acceptor atom, score
      L1  H    12    44       P1  7948  1.00
      P1  H  6896  6908       L1     5  0.38
      P1  H  6931  6943       L1    20  0.05
      P1  H  6934  6947       L1    20  0.27

> <Gold.Chemscore.Hbond.Weighted>
-9.2238

> <Gold.Chemscore.Metal.Weighted>
-0.0000

> <Gold.Chemscore.Lipo.Weighted>
-7.1633

> <Gold.Chemscore.Internal_Hbond.Weighted>
0.0000

> <Gold.Chemscore.DEClash.Weighted>
0.0263

> <Gold.Chemscore.DEInternal.Weighted>
3.1971

> <Gold.Chemscore.Rot.Weighted>
3.8886

> <Gold.Chemscore.Internal.Correction.Weighted>
   9.000000E+99

> <Gold.Protein.RotatedTorsions>
[ 6907 6896 6895 6894 ] final  144.07 input  -60.11 | X-H torsion
[ 7974 7965 7964 7962 ] final   -1.70 input  175.53 | X-H torsion
[ 8008 7997 7996 7995 ] final  179.46 input   59.86 | X-H torsion
[ 10167 10162 10161 10158 ] final   12.05 input  -65.29 | X-H torsion
[ 10718 10713 10712 10709 ] final  -78.95 input   66.30 | X-H torsion
[ 10763 10752 10751 10750 ] final -125.68 input  -60.55 | X-H torsion
[ 11005 11000 10999 10996 ] final  164.57 input  -57.11 | X-H torsion

> <Gold.Protein.ActiveResidues>
 VAL166  LYS551  ARG553  GLY616  TRP617  ASP618  TYR619  PRO620  LYS621  CYS622 
 ASP623  PHE694  ASN695  SER759  ASP760  ASP761  ALA762  ILE779  LEU786  VAL792 
 PHE793  MET794  SER795  GLU796  ALA797  LYS798  CYS799  TRP800  GLU811  SER814 

> <Gold.Protein.RotatedAtoms>
  152.1983  133.4823  159.5044 H   0  0  0  0  0  0  0  0  0  0  0  0  # atno 6907 bound_to 6896
  150.6964  134.1623  159.4190 H   0  0  0  0  0  0  0  0  0  0  0  0  # atno 6908 bound_to 6896
  151.9539  135.0155  160.0594 H   0  0  0  0  0  0  0  0  0  0  0  0  # atno 6909 bound_to 6896
  146.2414  140.1460  142.8334 H   0  0  0  0  0  0  0  0  0  0  0  0  # atno 7974 bound_to 7965
  156.0431  140.1308  157.0134 H   0  0  0  0  0  0  0  0  0  0  0  0  # atno 8008 bound_to 7997
  154.4400  140.1026  156.6336 H   0  0  0  0  0  0  0  0  0  0  0  0  # atno 8009 bound_to 7997
  155.5637  140.3465  155.4500 H   0  0  0  0  0  0  0  0  0  0  0  0  # atno 8010 bound_to 7997
  140.6093  143.8442  150.7047 H   0  0  0  0  0  0  0  0  0  0  0  0  # atno 10167 bound_to 10162
  156.0104  130.4532  150.3574 H   0  0  0  0  0  0  0  0  0  0  0  0  # atno 10718 bound_to 10713
  154.8738  135.4021  154.3307 H   0  0  0  0  0  0  0  0  0  0  0  0  # atno 10763 bound_to 10752
  153.4121  135.7021  153.6357 H   0  0  0  0  0  0  0  0  0  0  0  0  # atno 10764 bound_to 10752
  153.5055  135.3718  155.2531 H   0  0  0  0  0  0  0  0  0  0  0  0  # atno 10765 bound_to 10752
  140.2473  134.8005  157.3468 H   0  0  0  0  0  0  0  0  0  0  0  0  # atno 11005 bound_to 11000
  145.0207  140.8791  143.5168 LP  0  0  0  0  0  0  0  0  0  0  0  0  # atno 17320 bound_to 7965
  145.1508  139.2516  143.5442 LP  0  0  0  0  0  0  0  0  0  0  0  0  # atno 17321 bound_to 7965
  140.2007  143.3962  152.1794 LP  0  0  0  0  0  0  0  0  0  0  0  0  # atno 17342 bound_to 10162
  139.5349  144.7198  151.4929 LP  0  0  0  0  0  0  0  0  0  0  0  0  # atno 17343 bound_to 10162
  157.1664  131.0358  151.2817 LP  0  0  0  0  0  0  0  0  0  0  0  0  # atno 17370 bound_to 10713
  157.4267  130.7468  149.6957 LP  0  0  0  0  0  0  0  0  0  0  0  0  # atno 17371 bound_to 10713
  140.1593  134.4749  155.7905 LP  0  0  0  0  0  0  0  0  0  0  0  0  # atno 17394 bound_to 11000
  141.2205  133.6895  156.7517 LP  0  0  0  0  0  0  0  0  0  0  0  0  # atno 17395 bound_to 11000

$$$$
