AV-unprocessed.smi:3350|AV-procd|sdf|12945|dock5
  -GOLD-   2272019383D 1   1.00000     0.00000
 Structure written by MMmdl.
 41 42  0  0  0  0  0  0  0  0  1 V2000
  144.1982  135.0628  153.1628 C   0  0  0  0  0  0  0  0  0  0  0  0
  144.8903  136.1063  152.2756 C   0  0  2  0  0  0  0  0  0  0  0  0
  145.0217  135.6069  150.8202 C   0  0  0  0  0  0  0  0  0  0  0  0
  145.1269  134.1614  150.7252 N   0  0  0  0  0  0  0  0  0  0  0  0
  144.2281  133.2707  150.1770 C   0  0  0  0  0  0  0  0  0  0  0  0
  144.7504  132.0189  150.3317 C   0  0  0  0  0  0  0  0  0  0  0  0
  145.9919  132.2501  150.9872 C   0  0  0  0  0  0  0  0  0  0  0  0
  146.2171  133.5337  151.2161 N   0  0  0  0  0  0  0  0  0  0  0  0
  146.2034  136.4136  152.8421 N   0  0  0  0  0  0  0  0  0  0  0  0
  146.4248  137.1010  153.9719 C   0  0  0  0  0  0  0  0  0  0  0  0
  145.5346  137.5507  154.6934 O   0  0  0  0  0  0  0  0  0  0  0  0
  147.7355  137.2578  154.2067 N   0  0  0  0  0  0  0  0  0  0  0  0
  148.3200  137.9879  155.3307 C   0  0  1  0  0  0  0  0  0  0  0  0
  147.6781  137.4866  156.6327 C   0  0  0  0  0  0  0  0  0  0  0  0
  149.8548  137.8233  155.3468 C   0  0  1  0  0  0  0  0  0  0  0  0
  150.5837  138.4003  154.1300 C   0  0  0  0  0  0  0  0  0  0  0  0
  151.9580  138.6767  154.6919 C   0  0  0  0  0  0  0  0  0  0  0  0
  151.6177  139.1792  156.0902 C   0  0  0  0  0  0  0  0  0  0  0  0
  150.4193  138.5057  156.4656 O   0  0  0  0  0  0  0  0  0  0  0  0
  143.2007  134.8303  152.7883 H   0  0  0  0  0  0  0  0  0  0  0  0
  144.0877  135.4268  154.1847 H   0  0  0  0  0  0  0  0  0  0  0  0
  144.7652  134.1318  153.1990 H   0  0  0  0  0  0  0  0  0  0  0  0
  144.2642  137.0005  152.2863 H   0  0  0  0  0  0  0  0  0  0  0  0
  144.1690  135.9355  150.2244 H   0  0  0  0  0  0  0  0  0  0  0  0
  145.9091  136.0382  150.3544 H   0  0  0  0  0  0  0  0  0  0  0  0
  143.2978  133.5975  149.7364 H   0  0  0  0  0  0  0  0  0  0  0  0
  144.3116  131.0810  150.0255 H   0  0  0  0  0  0  0  0  0  0  0  0
  146.7317  131.5284  151.3006 H   0  0  0  0  0  0  0  0  0  0  0  0
  147.0059  136.0878  152.3238 H   0  0  0  0  0  0  0  0  0  0  0  0
  148.3841  136.8494  153.5499 H   0  0  0  0  0  0  0  0  0  0  0  0
  148.0885  139.0508  155.2398 H   0  0  0  0  0  0  0  0  0  0  0  0
  148.0582  138.0336  157.4958 H   0  0  0  0  0  0  0  0  0  0  0  0
  147.8815  136.4276  156.7953 H   0  0  0  0  0  0  0  0  0  0  0  0
  146.5960  137.6196  156.6130 H   0  0  0  0  0  0  0  0  0  0  0  0
  150.1164  136.7681  155.4422 H   0  0  0  0  0  0  0  0  0  0  0  0
  150.6006  137.7161  153.2818 H   0  0  0  0  0  0  0  0  0  0  0  0
  150.1216  139.3346  153.8081 H   0  0  0  0  0  0  0  0  0  0  0  0
  152.5327  137.7514  154.7510 H   0  0  0  0  0  0  0  0  0  0  0  0
  152.5258  139.3987  154.1045 H   0  0  0  0  0  0  0  0  0  0  0  0
  152.4195  138.9966  156.8058 H   0  0  0  0  0  0  0  0  0  0  0  0
  151.4182  140.2510  156.0701 H   0  0  0  0  0  0  0  0  0  0  0  0
  1  2  1  0  0  0  0
  1 20  1  0  0  0  0
  1 21  1  0  0  0  0
  1 22  1  0  0  0  0
  2  3  1  0  0  0  0
  2  9  1  0  0  0  0
  2 23  1  0  0  0  0
  3  4  1  0  0  0  0
  3 24  1  0  0  0  0
  3 25  1  0  0  0  0
  4  8  1  0  0  0  0
  4  5  1  0  0  0  0
  5  6  2  0  0  0  0
  5 26  1  0  0  0  0
  6  7  1  0  0  0  0
  6 27  1  0  0  0  0
  7  8  2  0  0  0  0
  7 28  1  0  0  0  0
  9 10  1  0  0  0  0
  9 29  1  0  0  0  0
 10 11  2  0  0  0  0
 10 12  1  0  0  0  0
 12 13  1  0  0  0  0
 12 30  1  0  0  0  0
 13 14  1  0  0  0  0
 13 15  1  0  0  0  0
 13 31  1  0  0  0  0
 14 32  1  0  0  0  0
 14 33  1  0  0  0  0
 14 34  1  0  0  0  0
 15 19  1  0  0  0  0
 15 16  1  0  0  0  0
 15 35  1  0  0  0  0
 16 17  1  0  0  0  0
 16 36  1  0  0  0  0
 16 37  1  0  0  0  0
 17 18  1  0  0  0  0
 17 38  1  0  0  0  0
 17 39  1  0  0  0  0
 18 19  1  0  0  0  0
 18 40  1  0  0  0  0
 18 41  1  0  0  0  0
M  END
> <s_m_source_file>
AV-unprocessed.smi

> <i_m_source_file_index>
3350

> <i_lp_mmshare_version>
43012

> <i_f3d_flags>
0

> <s_epik_input>
bjFbY0hdW2NIXVtjSF1uMVtDSDJdW0NAQEhdKFtDSDNdKVtOSF1DKD1PKVtOSF1bQ0BIXShbQ0gzXSlbQ0BASF0yW0NIMl1bQ0gyXVtDSDJdTzI=

> <s_epik_cmdline>
J2VwaWtfcHl0aG9uJywgJy1waCcsICc3LjAnLCAnLXRuJywgJzgnLCAnLW1hJywgJzIwMCcsICctbWV0YWxfYmluZGluZycsICctaW1hZScsICc8aW5maWxlLm1hZT4nLCAnLW9tYWUnLCAnPG91dGZpbGUubWFlPic=

> <r_lp_tautomer_probability>
1

> <r_epik_Ionization_Penalty>
6.42349e-05

> <r_epik_Ionization_Penalty_Charging>
0

> <r_epik_Ionization_Penalty_Neutral>
6.42349e-05

> <r_epik_State_Penalty>
-0

> <r_epik_Charging_Adjusted_Penalty>
0

> <i_epik_Tot_Q>
0

> <i_epik_Tot_abs_Q>
0

> <r_epik_Metal_State_Penalty>
-0

> <b_epik_Metal_Only>
0

> <s_lp_Force_Field>
OPLS_2005

> <r_lp_Energy>
14.6241

> <b_lp_Chiralities_Consistent>
1

> <s_lp_Variant>
AV-unprocessed.smi:3350-7

> <Gold.Version>
5.8.1

> <Gold.Id.Protein>
6NUR|6NUR_protein|mol2

> <Gold.PLP.Fitness>
40.0992

> <Gold.PLP.PLP>
-29.3634

> <Gold.PLP.part.hbond>
-2.0000

> <Gold.PLP.part.metal>
0.0000

> <Gold.PLP.part.buried>
-5.8178

> <Gold.PLP.part.nonpolar>
-22.9157

> <Gold.PLP.part.repulsive>
0.2538

> <Gold.PLP.ligand.clash>
0.0000

> <Gold.PLP.ligand.torsion>
0.6466

> <Gold.PLP.Chemscore.Hbond>
2.0000

> <Gold.PLP.Chemscore.CHOScore>
2.0000

> <Gold.PLP.Chemscore.Metal>
0.0000

> <Gold.Chemscore.Hbonds>
donor molecule, donor type, donor heavy atom, donor atom, acceptor molecule, acceptor atom, score
      L1  H     9    29       P1  7948  1.00
      L1  H    12    30       P1  7948  1.00
      L1  C     5    26       P1 10186  1.00
      L1  C     7    28       P1 10747  0.93

> <Gold.PLP.Chemscore.Internal.Correction>
0.0291

> <Gold.Rescore>
     Score         DG    S(hbond)    S(metal)    S(lipo)     H(rot)  DE(clash)    DE(int)     intcor
     13.89     -15.64       1.94        0.00      71.19       1.82       0.05       1.71       ----

> <Gold.Chemscore.Fitness>
13.8876

> <Gold.Chemscore.DG>
-15.6420

> <Gold.Chemscore.ZeroCoef>
-5.4800

> <Gold.Chemscore.Hbond>
1.9435

> <Gold.Chemscore.Metal>
0.0000

> <Gold.Chemscore.Lipo>
71.1895

> <Gold.Chemscore.Internal_Hbond>
0.0000

> <Gold.Chemscore.DEClash>
0.0462

> <Gold.Chemscore.DEInternal>
1.7081

> <Gold.Chemscore.Rot>
1.8197

> <Gold.Chemscore.Internal.Correction>
   9.000000E+99

> <Gold.Chemscore.Hbonds>
donor molecule, donor type, donor heavy atom, donor atom, acceptor molecule, acceptor atom, score
      L1  H     9    29       P1  7948  0.92
      L1  H    12    30       P1  7948  0.98

> <Gold.Chemscore.Hbond.Weighted>
-6.4911

> <Gold.Chemscore.Metal.Weighted>
-0.0000

> <Gold.Chemscore.Lipo.Weighted>
-8.3292

> <Gold.Chemscore.Internal_Hbond.Weighted>
0.0000

> <Gold.Chemscore.DEClash.Weighted>
0.0462

> <Gold.Chemscore.DEInternal.Weighted>
1.7081

> <Gold.Chemscore.Rot.Weighted>
4.6583

> <Gold.Chemscore.Internal.Correction.Weighted>
   9.000000E+99

> <Gold.Protein.RotatedTorsions>
[ 6907 6896 6895 6894 ] final -142.72 input  -60.11 | X-H torsion
[ 7974 7965 7964 7962 ] final  -55.20 input  175.53 | X-H torsion
[ 8008 7997 7996 7995 ] final  -87.80 input   59.86 | X-H torsion
[ 10167 10162 10161 10158 ] final  162.62 input  -65.29 | X-H torsion
[ 10718 10713 10712 10709 ] final -108.58 input   66.30 | X-H torsion
[ 10763 10752 10751 10750 ] final -147.96 input  -60.55 | X-H torsion
[ 11005 11000 10999 10996 ] final  104.91 input  -57.11 | X-H torsion

> <Gold.Protein.ActiveResidues>
 VAL166  LYS551  ARG553  GLY616  TRP617  ASP618  TYR619  PRO620  LYS621  CYS622 
 ASP623  PHE694  ASN695  SER759  ASP760  ASP761  ALA762  ILE779  LEU786  VAL792 
 PHE793  MET794  SER795  GLU796  ALA797  LYS798  CYS799  TRP800  GLU811  SER814 

> <Gold.Protein.RotatedAtoms>
  151.0909  133.5317  159.2614 H   0  0  0  0  0  0  0  0  0  0  0  0  # atno 6907 bound_to 6896
  151.2185  135.0508  159.8950 H   0  0  0  0  0  0  0  0  0  0  0  0  # atno 6908 bound_to 6896
  152.5434  134.0714  159.8249 H   0  0  0  0  0  0  0  0  0  0  0  0  # atno 6909 bound_to 6896
  145.8769  140.8174  142.9859 H   0  0  0  0  0  0  0  0  0  0  0  0  # atno 7974 bound_to 7965
  154.6674  140.0561  157.0129 H   0  0  0  0  0  0  0  0  0  0  0  0  # atno 8008 bound_to 7997
  155.1138  140.3241  155.4496 H   0  0  0  0  0  0  0  0  0  0  0  0  # atno 8009 bound_to 7997
  156.2643  140.2009  156.6262 H   0  0  0  0  0  0  0  0  0  0  0  0  # atno 8010 bound_to 7997
  139.4863  144.4419  151.8940 H   0  0  0  0  0  0  0  0  0  0  0  0  # atno 10167 bound_to 10162
  156.0493  130.5720  150.7981 H   0  0  0  0  0  0  0  0  0  0  0  0  # atno 10718 bound_to 10713
  154.8258  135.3347  154.6899 H   0  0  0  0  0  0  0  0  0  0  0  0  # atno 10763 bound_to 10752
  153.7525  135.6938  153.4947 H   0  0  0  0  0  0  0  0  0  0  0  0  # atno 10764 bound_to 10752
  153.2166  135.4463  155.0392 H   0  0  0  0  0  0  0  0  0  0  0  0  # atno 10765 bound_to 10752
  139.8796  134.9317  156.5433 H   0  0  0  0  0  0  0  0  0  0  0  0  # atno 11005 bound_to 11000
  144.6726  140.1325  143.7443 LP  0  0  0  0  0  0  0  0  0  0  0  0  # atno 17320 bound_to 7965
  145.9070  139.2464  143.1460 LP  0  0  0  0  0  0  0  0  0  0  0  0  # atno 17321 bound_to 7965
  140.3872  144.2662  150.5903 LP  0  0  0  0  0  0  0  0  0  0  0  0  # atno 17342 bound_to 10162
  140.5180  143.2273  151.8434 LP  0  0  0  0  0  0  0  0  0  0  0  0  # atno 17343 bound_to 10162
  157.5402  131.0940  150.9837 LP  0  0  0  0  0  0  0  0  0  0  0  0  # atno 17370 bound_to 10713
  157.0122  130.5641  149.5322 LP  0  0  0  0  0  0  0  0  0  0  0  0  # atno 17371 bound_to 10713
  140.8294  133.8291  155.8970 LP  0  0  0  0  0  0  0  0  0  0  0  0  # atno 17394 bound_to 11000
  140.9343  134.1982  157.4842 LP  0  0  0  0  0  0  0  0  0  0  0  0  # atno 17395 bound_to 11000

$$$$
