AV-unprocessed.smi:674|AV-procd|sdf|3299|dock10
  -GOLD-   22720 0263D 1   1.00000     0.00000
 Structure written by MMmdl.
 47 48  0  0  0  0  0  0  0  0  1 V2000
  144.6144  131.4067  150.6431 C   0  0  0  0  0  0  0  0  0  0  0  0
  145.4201  130.5556  151.6313 C   0  0  0  0  0  0  0  0  0  0  0  0
  146.3996  131.3822  152.4161 C   0  0  0  0  0  0  0  0  0  0  0  0
  146.5713  132.7967  152.3874 C   0  0  0  0  0  0  0  0  0  0  0  0
  147.5965  132.9950  153.2717 C   0  0  0  0  0  0  0  0  0  0  0  0
  148.1972  134.1605  153.6320 N   0  0  0  0  0  0  0  0  0  0  0  0
  148.5576  134.5766  154.8585 C   0  0  0  0  0  0  0  0  0  0  0  0
  148.4436  133.9253  155.8971 O   0  0  0  0  0  0  0  0  0  0  0  0
  149.0760  135.8114  154.8173 N   0  0  0  0  0  0  0  0  0  0  0  0
  149.5593  136.5379  155.9867 C   0  0  2  0  0  0  0  0  0  0  0  0
  148.4279  137.0447  156.8792 C   0  0  0  0  0  0  0  0  0  0  0  0
  149.2798  138.3083  157.1094 C   0  0  1  0  0  0  0  0  0  0  0  0
  148.5835  139.6574  157.3275 C   0  0  0  0  0  0  0  0  0  0  0  0
  150.2495  138.0712  158.1394 O   0  0  0  0  0  0  0  0  0  0  0  0
  149.8081  138.1720  159.4879 C   0  0  0  0  0  0  0  0  0  0  0  0
  149.9470  138.0158  155.7253 C   0  0  0  0  0  0  0  0  0  0  0  0
  151.4475  138.3057  155.6120 C   0  0  0  0  0  0  0  0  0  0  0  0
  149.2973  138.6957  154.5050 C   0  0  0  0  0  0  0  0  0  0  0  0
  147.9879  131.7746  153.7793 N   0  0  0  0  0  0  0  0  0  0  0  0
  149.0298  131.4493  154.7340 C   0  0  0  0  0  0  0  0  0  0  0  0
  147.2441  130.7814  153.2474 N   0  0  0  0  0  0  0  0  0  0  0  0
  143.9076  130.7913  150.0864 H   0  0  0  0  0  0  0  0  0  0  0  0
  145.2676  131.8983  149.9215 H   0  0  0  0  0  0  0  0  0  0  0  0
  144.0470  132.1796  151.1623 H   0  0  0  0  0  0  0  0  0  0  0  0
  144.7352  130.0486  152.3116 H   0  0  0  0  0  0  0  0  0  0  0  0
  145.9445  129.7682  151.0888 H   0  0  0  0  0  0  0  0  0  0  0  0
  146.0283  133.5230  151.8018 H   0  0  0  0  0  0  0  0  0  0  0  0
  148.3820  134.8006  152.8740 H   0  0  0  0  0  0  0  0  0  0  0  0
  149.1392  136.2800  153.9255 H   0  0  0  0  0  0  0  0  0  0  0  0
  150.3128  135.9963  156.5637 H   0  0  0  0  0  0  0  0  0  0  0  0
  147.5018  137.2505  156.3393 H   0  0  0  0  0  0  0  0  0  0  0  0
  148.2390  136.4248  157.7551 H   0  0  0  0  0  0  0  0  0  0  0  0
  147.9193  139.9094  156.5016 H   0  0  0  0  0  0  0  0  0  0  0  0
  149.3088  140.4658  157.4222 H   0  0  0  0  0  0  0  0  0  0  0  0
  147.9636  139.6566  158.2236 H   0  0  0  0  0  0  0  0  0  0  0  0
  150.5974  137.8111  160.1470 H   0  0  0  0  0  0  0  0  0  0  0  0
  148.9182  137.5741  159.6816 H   0  0  0  0  0  0  0  0  0  0  0  0
  149.6037  139.2054  159.7672 H   0  0  0  0  0  0  0  0  0  0  0  0
  151.6584  139.3677  155.7418 H   0  0  0  0  0  0  0  0  0  0  0  0
  151.8421  138.0064  154.6403 H   0  0  0  0  0  0  0  0  0  0  0  0
  152.0259  137.7659  156.3622 H   0  0  0  0  0  0  0  0  0  0  0  0
  149.4764  139.7712  154.5052 H   0  0  0  0  0  0  0  0  0  0  0  0
  148.2174  138.5504  154.4776 H   0  0  0  0  0  0  0  0  0  0  0  0
  149.6941  138.3044  153.5676 H   0  0  0  0  0  0  0  0  0  0  0  0
  149.3545  132.3431  155.2668 H   0  0  0  0  0  0  0  0  0  0  0  0
  149.8831  131.0177  154.2100 H   0  0  0  0  0  0  0  0  0  0  0  0
  148.6552  130.7272  155.4606 H   0  0  0  0  0  0  0  0  0  0  0  0
  1  2  1  0  0  0  0
  1 22  1  0  0  0  0
  1 23  1  0  0  0  0
  1 24  1  0  0  0  0
  2  3  1  0  0  0  0
  2 25  1  0  0  0  0
  2 26  1  0  0  0  0
  3 21  2  0  0  0  0
  3  4  1  0  0  0  0
  4  5  2  0  0  0  0
  4 27  1  0  0  0  0
  5  6  1  0  0  0  0
  5 19  1  0  0  0  0
  6  7  1  0  0  0  0
  6 28  1  0  0  0  0
  7  8  2  0  0  0  0
  7  9  1  0  0  0  0
  9 10  1  0  0  0  0
  9 29  1  0  0  0  0
 10 16  1  0  0  0  0
 10 11  1  0  0  0  0
 10 30  1  0  0  0  0
 11 12  1  0  0  0  0
 11 31  1  0  0  0  0
 11 32  1  0  0  0  0
 12 13  1  0  0  0  0
 12 14  1  0  0  0  0
 12 16  1  0  0  0  0
 13 33  1  0  0  0  0
 13 34  1  0  0  0  0
 13 35  1  0  0  0  0
 14 15  1  0  0  0  0
 15 36  1  0  0  0  0
 15 37  1  0  0  0  0
 15 38  1  0  0  0  0
 16 17  1  0  0  0  0
 16 18  1  0  0  0  0
 17 39  1  0  0  0  0
 17 40  1  0  0  0  0
 17 41  1  0  0  0  0
 18 42  1  0  0  0  0
 18 43  1  0  0  0  0
 18 44  1  0  0  0  0
 19 20  1  0  0  0  0
 19 21  1  0  0  0  0
 20 45  1  0  0  0  0
 20 46  1  0  0  0  0
 20 47  1  0  0  0  0
M  END
> <s_m_source_file>
AV-unprocessed.smi

> <i_m_source_file_index>
674

> <i_lp_mmshare_version>
43012

> <i_f3d_flags>
0

> <s_epik_input>
W0NIM11bQ0gyXWMxW2NIXWMobihuMSlbQ0gzXSlbTkhdQyg9TylbTkhdW0NAQEhdKEMyKFtDSDNdKVtDSDNdKVtDSDJdW0NAQF0yKFtDSDNdKU9bQ0gzXQ==

> <s_epik_cmdline>
J2VwaWtfcHl0aG9uJywgJy1waCcsICc3LjAnLCAnLXRuJywgJzgnLCAnLW1hJywgJzIwMCcsICctbWV0YWxfYmluZGluZycsICctaW1hZScsICc8aW5maWxlLm1hZT4nLCAnLW9tYWUnLCAnPG91dGZpbGUubWFlPic=

> <r_lp_tautomer_probability>
1

> <r_epik_Ionization_Penalty>
0.000101626

> <r_epik_Ionization_Penalty_Charging>
0

> <r_epik_Ionization_Penalty_Neutral>
0.000101626

> <r_epik_State_Penalty>
-0

> <r_epik_Charging_Adjusted_Penalty>
0

> <i_epik_Tot_Q>
0

> <i_epik_Tot_abs_Q>
0

> <r_epik_Metal_State_Penalty>
-0

> <b_epik_Metal_Only>
0

> <s_lp_Force_Field>
OPLS_2005

> <r_lp_Energy>
22.7412

> <b_lp_Chiralities_Consistent>
1

> <s_lp_Variant>
AV-unprocessed.smi:674-1

> <Gold.Version>
5.8.1

> <Gold.Id.Protein>
6NUR|6NUR_protein|mol2

> <Gold.PLP.Fitness>
36.9250

> <Gold.PLP.PLP>
-31.8310

> <Gold.PLP.part.hbond>
-2.0000

> <Gold.PLP.part.metal>
0.0000

> <Gold.PLP.part.buried>
-4.7848

> <Gold.PLP.part.nonpolar>
-26.0181

> <Gold.PLP.part.repulsive>
0.1748

> <Gold.PLP.ligand.clash>
0.0000

> <Gold.PLP.ligand.torsion>
0.6057

> <Gold.PLP.Chemscore.Hbond>
1.9760

> <Gold.PLP.Chemscore.CHOScore>
0.0000

> <Gold.PLP.Chemscore.Metal>
0.0000

> <Gold.Chemscore.Hbonds>
donor molecule, donor type, donor heavy atom, donor atom, acceptor molecule, acceptor atom, score
      L1  H     6    28       P1  7948  1.00
      L1  H     9    29       P1  7948  0.93

> <Gold.PLP.Chemscore.Internal.Correction>
0.3774

> <Gold.Rescore>
     Score         DG    S(hbond)    S(metal)    S(lipo)     H(rot)  DE(clash)    DE(int)     intcor
     13.13     -15.22       1.67        0.00      65.39       1.37       0.00       2.09       ----

> <Gold.Chemscore.Fitness>
13.1345

> <Gold.Chemscore.DG>
-15.2232

> <Gold.Chemscore.ZeroCoef>
-5.4800

> <Gold.Chemscore.Hbond>
1.6734

> <Gold.Chemscore.Metal>
0.0000

> <Gold.Chemscore.Lipo>
65.3873

> <Gold.Chemscore.Internal_Hbond>
0.0000

> <Gold.Chemscore.DEClash>
0.0000

> <Gold.Chemscore.DEInternal>
2.0887

> <Gold.Chemscore.Rot>
1.3658

> <Gold.Chemscore.Internal.Correction>
   9.000000E+99

> <Gold.Chemscore.Hbonds>
donor molecule, donor type, donor heavy atom, donor atom, acceptor molecule, acceptor atom, score
      L1  H     6    28       P1  7948  0.55
      L1  H     9    29       P1  7948  0.81

> <Gold.Chemscore.Hbond.Weighted>
-5.5892

> <Gold.Chemscore.Metal.Weighted>
-0.0000

> <Gold.Chemscore.Lipo.Weighted>
-7.6503

> <Gold.Chemscore.Internal_Hbond.Weighted>
0.0000

> <Gold.Chemscore.DEClash.Weighted>
0.0000

> <Gold.Chemscore.DEInternal.Weighted>
2.0887

> <Gold.Chemscore.Rot.Weighted>
3.4963

> <Gold.Chemscore.Internal.Correction.Weighted>
   9.000000E+99

> <Gold.Protein.RotatedTorsions>
[ 6907 6896 6895 6894 ] final   80.77 input  -60.11 | X-H torsion
[ 7974 7965 7964 7962 ] final  106.88 input  175.53 | X-H torsion
[ 8008 7997 7996 7995 ] final  124.21 input   59.86 | X-H torsion
[ 10167 10162 10161 10158 ] final  -58.21 input  -65.29 | X-H torsion
[ 10718 10713 10712 10709 ] final  161.98 input   66.30 | X-H torsion
[ 10763 10752 10751 10750 ] final  108.37 input  -60.55 | X-H torsion
[ 11005 11000 10999 10996 ] final -135.42 input  -57.11 | X-H torsion

> <Gold.Protein.ActiveResidues>
 VAL166  LYS551  ARG553  GLY616  TRP617  ASP618  TYR619  PRO620  LYS621  CYS622 
 ASP623  PHE694  ASN695  SER759  ASP760  ASP761  ALA762  ILE779  LEU786  VAL792 
 PHE793  MET794  SER795  GLU796  ALA797  LYS798  CYS799  TRP800  GLU811  SER814 

> <Gold.Protein.RotatedAtoms>
  152.5246  134.3307  159.9181 H   0  0  0  0  0  0  0  0  0  0  0  0  # atno 6907 bound_to 6896
  151.3256  133.4015  159.2666 H   0  0  0  0  0  0  0  0  0  0  0  0  # atno 6908 bound_to 6896
  150.9923  134.9272  159.7964 H   0  0  0  0  0  0  0  0  0  0  0  0  # atno 6909 bound_to 6896
  145.3009  139.2570  143.3814 H   0  0  0  0  0  0  0  0  0  0  0  0  # atno 7974 bound_to 7965
  156.2793  140.2745  156.1752 H   0  0  0  0  0  0  0  0  0  0  0  0  # atno 8008 bound_to 7997
  155.0613  140.0386  157.2595 H   0  0  0  0  0  0  0  0  0  0  0  0  # atno 8009 bound_to 7997
  154.7114  140.2669  155.6631 H   0  0  0  0  0  0  0  0  0  0  0  0  # atno 8010 bound_to 7997
  140.6211  143.2420  151.5478 H   0  0  0  0  0  0  0  0  0  0  0  0  # atno 10167 bound_to 10162
  157.1290  131.0512  151.2380 H   0  0  0  0  0  0  0  0  0  0  0  0  # atno 10718 bound_to 10713
  153.4197  135.3814  155.2103 H   0  0  0  0  0  0  0  0  0  0  0  0  # atno 10763 bound_to 10752
  154.8744  135.3814  154.4399 H   0  0  0  0  0  0  0  0  0  0  0  0  # atno 10764 bound_to 10752
  153.4917  135.7088  153.5943 H   0  0  0  0  0  0  0  0  0  0  0  0  # atno 10765 bound_to 10752
  140.8899  134.1824  157.4534 H   0  0  0  0  0  0  0  0  0  0  0  0  # atno 11005 bound_to 11000
  146.3152  140.3522  142.8657 LP  0  0  0  0  0  0  0  0  0  0  0  0  # atno 17320 bound_to 7965
  144.9095  140.7740  143.5817 LP  0  0  0  0  0  0  0  0  0  0  0  0  # atno 17321 bound_to 7965
  139.5439  144.2572  152.1405 LP  0  0  0  0  0  0  0  0  0  0  0  0  # atno 17342 bound_to 10162
  140.1793  144.4860  150.6537 LP  0  0  0  0  0  0  0  0  0  0  0  0  # atno 17343 bound_to 10162
  157.4409  130.7543  149.7069 LP  0  0  0  0  0  0  0  0  0  0  0  0  # atno 17370 bound_to 10713
  155.9812  130.4022  150.3485 LP  0  0  0  0  0  0  0  0  0  0  0  0  # atno 17371 bound_to 10713
  139.8728  134.9854  156.5280 LP  0  0  0  0  0  0  0  0  0  0  0  0  # atno 17394 bound_to 11000
  140.8359  133.8243  155.9028 LP  0  0  0  0  0  0  0  0  0  0  0  0  # atno 17395 bound_to 11000

$$$$
