AV-unprocessed.smi:72|AV-procd|sdf|680|dock1
  -GOLD-   2262016593D 1   1.00000     0.00000
 Structure written by MMmdl.
 29 30  0  0  0  0  0  0  0  0  1 V2000
  152.7515  139.5129  159.0303 N   0  0  0  0  0  0  0  0  0  0  0  0
  151.7660  139.6086  158.2119 C   0  0  0  0  0  0  0  0  0  0  0  0
  150.4108  139.6376  158.5731 N   0  0  0  0  0  0  0  0  0  0  0  0
  149.5194  139.7362  157.6353 C   0  0  0  0  0  0  0  0  0  0  0  0
  149.8806  139.8143  156.2266 N   0  0  0  0  0  0  0  0  0  0  0  0
  148.8392  139.9336  155.1294 C   0  0  1  0  0  0  0  0  0  0  0  0
  147.5560  139.8419  155.6842 O   0  0  0  0  0  0  0  0  0  0  0  0
  146.8817  141.0867  155.5415 C   0  0  2  0  0  0  0  0  0  0  0  0
  145.3561  140.8939  155.6161 C   0  0  0  0  0  0  0  0  0  0  0  0
  144.8946  139.9306  154.6915 O   0  0  0  0  0  0  0  0  0  0  0  0
  147.4530  141.6651  154.2466 C   0  0  1  0  0  0  0  0  0  0  0  0
  147.2448  143.0594  154.1185 O   0  0  0  0  0  0  0  0  0  0  0  0
  148.9235  141.2702  154.3483 C   0  0  1  0  0  0  0  0  0  0  0  0
  149.7037  142.2606  155.0022 O   0  0  0  0  0  0  0  0  0  0  0  0
  151.2452  139.7978  155.8483 C   0  0  0  0  0  0  0  0  0  0  0  0
  151.6040  139.8848  154.6742 O   0  0  0  0  0  0  0  0  0  0  0  0
  152.1307  139.6885  156.8619 N   0  0  0  0  0  0  0  0  0  0  0  0
  148.9774  139.0580  154.4928 H   0  0  0  0  0  0  0  0  0  0  0  0
  147.1912  141.7147  156.3787 H   0  0  0  0  0  0  0  0  0  0  0  0
  147.0193  141.1629  153.3814 H   0  0  0  0  0  0  0  0  0  0  0  0
  149.3563  141.0912  153.3636 H   0  0  0  0  0  0  0  0  0  0  0  0
  152.4096  139.4601  159.9794 H   0  0  0  0  0  0  0  0  0  0  0  0
  148.4508  139.7686  157.8477 H   0  0  0  0  0  0  0  0  0  0  0  0
  145.0550  140.6081  156.6243 H   0  0  0  0  0  0  0  0  0  0  0  0
  144.8567  141.8361  155.3900 H   0  0  0  0  0  0  0  0  0  0  0  0
  144.6705  140.3702  153.8854 H   0  0  0  0  0  0  0  0  0  0  0  0
  147.9597  143.5089  154.5421 H   0  0  0  0  0  0  0  0  0  0  0  0
  149.2193  143.0719  155.0001 H   0  0  0  0  0  0  0  0  0  0  0  0
  153.1125  139.6698  156.6274 H   0  0  0  0  0  0  0  0  0  0  0  0
  1  2  2  0  0  0  0
  1 22  1  0  0  0  0
  2 17  1  0  0  0  0
  2  3  1  0  0  0  0
  3  4  2  0  0  0  0
  4  5  1  0  0  0  0
  4 23  1  0  0  0  0
  5  6  1  0  0  0  0
  5 15  1  0  0  0  0
  6 18  1  0  0  0  0
  6 13  1  0  0  0  0
  6  7  1  0  0  0  0
  7  8  1  0  0  0  0
  8 19  1  0  0  0  0
  8  9  1  0  0  0  0
  8 11  1  0  0  0  0
  9 10  1  0  0  0  0
  9 24  1  0  0  0  0
  9 25  1  0  0  0  0
 10 26  1  0  0  0  0
 11 20  1  0  0  0  0
 11 12  1  0  0  0  0
 11 13  1  0  0  0  0
 12 27  1  0  0  0  0
 13 21  1  0  0  0  0
 13 14  1  0  0  0  0
 14 28  1  0  0  0  0
 15 16  2  0  0  0  0
 15 17  1  0  0  0  0
 17 29  1  0  0  0  0
M  END
> <s_m_source_file>
AV-unprocessed.smi

> <i_m_source_file_index>
72

> <i_lp_mmshare_version>
43012

> <i_f3d_flags>
0

> <s_epik_input>
W05IMl1jMW5bY0hdbihjKD1PKW4xKVtDQEBIXTJPW0NASF0oW0NIMl1bT0hdKVtDQEBIXShbT0hdKVtDQEhdMltPSF0=

> <s_epik_cmdline>
J2VwaWtfcHl0aG9uJywgJy1waCcsICc3LjAnLCAnLXRuJywgJzgnLCAnLW1hJywgJzIwMCcsICctbWV0YWxfYmluZGluZycsICctaW1hZScsICc8aW5maWxlLm1hZT4nLCAnLW9tYWUnLCAnPG91dGZpbGUubWFlPic=

> <r_lp_tautomer_probability>
7.17554e-07

> <r_epik_Ionization_Penalty>
0.0066451

> <r_epik_Ionization_Penalty_Charging>
0.00663793

> <r_epik_Ionization_Penalty_Neutral>
7.17052e-06

> <r_epik_State_Penalty>
0.419231

> <r_epik_Charging_Adjusted_Penalty>
0.425868

> <i_epik_Tot_Q>
0

> <i_epik_Tot_abs_Q>
0

> <r_epik_Metal_State_Penalty>
1.44144

> <b_epik_Metal_Only>
0

> <s_epik_Chemistry_Notes>
This compound contains an acetal/aminal-like group ( X-CH(R)-Y where X, Y are N, S, or O) that may be acid/base labile, releasing an aldehyde.

> <s_lp_Force_Field>
OPLS_2005

> <r_lp_Energy>
48.597

> <b_lp_Chiralities_Consistent>
1

> <s_lp_Variant>
AV-unprocessed.smi:72-18

> <Gold.Version>
5.8.1

> <Gold.Id.Protein>
6NUR|6NUR_protein|mol2

> <Gold.PLP.Fitness>
32.3633

> <Gold.PLP.PLP>
-20.4154

> <Gold.PLP.part.hbond>
-5.8981

> <Gold.PLP.part.metal>
0.0000

> <Gold.PLP.part.buried>
-2.5642

> <Gold.PLP.part.nonpolar>
-12.9085

> <Gold.PLP.part.repulsive>
0.1942

> <Gold.PLP.ligand.clash>
0.0000

> <Gold.PLP.ligand.torsion>
0.0501

> <Gold.PLP.Chemscore.Hbond>
4.0000

> <Gold.PLP.Chemscore.CHOScore>
0.0000

> <Gold.PLP.Chemscore.Metal>
0.0000

> <Gold.Chemscore.Hbonds>
donor molecule, donor type, donor heavy atom, donor atom, acceptor molecule, acceptor atom, score
      L1  H    10    26       P1 10175  0.99
      L1  H    12    27       P1  8028  1.00
      L1  H    14    28       P1  8028  1.00
      P1  H  7989  7998       L1    16  0.99

> <Gold.PLP.Chemscore.Internal.Correction>
0.0482

> <Gold.Rescore>
     Score         DG    S(hbond)    S(metal)    S(lipo)     H(rot)  DE(clash)    DE(int)     intcor
      9.66     -10.18       3.82        0.00      19.81       4.06       0.34       0.19       ----

> <Gold.Chemscore.Fitness>
9.6565

> <Gold.Chemscore.DG>
-10.1778

> <Gold.Chemscore.ZeroCoef>
-5.4800

> <Gold.Chemscore.Hbond>
3.8244

> <Gold.Chemscore.Metal>
0.0000

> <Gold.Chemscore.Lipo>
19.8105

> <Gold.Chemscore.Internal_Hbond>
0.0000

> <Gold.Chemscore.DEClash>
0.3354

> <Gold.Chemscore.DEInternal>
0.1859

> <Gold.Chemscore.Rot>
4.0600

> <Gold.Chemscore.Internal.Correction>
   9.000000E+99

> <Gold.Chemscore.Hbonds>
donor molecule, donor type, donor heavy atom, donor atom, acceptor molecule, acceptor atom, score
      L1  H    10    26       P1 10175  0.94
      L1  H    12    27       P1  8028  0.74
      L1  H    14    28       P1  8028  0.96
      P1  H  7989  7998       L1    16  0.91

> <Gold.Chemscore.Hbond.Weighted>
-12.7736

> <Gold.Chemscore.Metal.Weighted>
-0.0000

> <Gold.Chemscore.Lipo.Weighted>
-2.3178

> <Gold.Chemscore.Internal_Hbond.Weighted>
0.0000

> <Gold.Chemscore.DEClash.Weighted>
0.3354

> <Gold.Chemscore.DEInternal.Weighted>
0.1859

> <Gold.Chemscore.Rot.Weighted>
10.3936

> <Gold.Chemscore.Internal.Correction.Weighted>
   9.000000E+99

> <Gold.Protein.RotatedTorsions>
[ 6907 6896 6895 6894 ] final   47.08 input  -60.11 | X-H torsion
[ 7974 7965 7964 7962 ] final -115.36 input  175.53 | X-H torsion
[ 8008 7997 7996 7995 ] final  103.52 input   59.86 | X-H torsion
[ 10167 10162 10161 10158 ] final  -86.35 input  -65.29 | X-H torsion
[ 10718 10713 10712 10709 ] final  -68.95 input   66.30 | X-H torsion
[ 10763 10752 10751 10750 ] final  -88.79 input  -60.55 | X-H torsion
[ 11005 11000 10999 10996 ] final  156.35 input  -57.11 | X-H torsion

> <Gold.Protein.ActiveResidues>
 VAL166  LYS551  ARG553  GLY616  TRP617  ASP618  TYR619  PRO620  LYS621  CYS622 
 ASP623  PHE694  ASN695  SER759  ASP760  ASP761  ALA762  ILE779  LEU786  VAL792 
 PHE793  MET794  SER795  GLU796  ALA797  LYS798  CYS799  TRP800  GLU811  SER814 

> <Gold.Protein.RotatedAtoms>
  152.2639  134.8005  160.0425 H   0  0  0  0  0  0  0  0  0  0  0  0  # atno 6907 bound_to 6896
  151.8641  133.3457  159.3721 H   0  0  0  0  0  0  0  0  0  0  0  0  # atno 6908 bound_to 6896
  150.7127  134.5105  159.5649 H   0  0  0  0  0  0  0  0  0  0  0  0  # atno 6909 bound_to 6896
  145.1093  140.8601  143.3879 H   0  0  0  0  0  0  0  0  0  0  0  0  # atno 7974 bound_to 7965
  156.1491  140.3163  155.8619 H   0  0  0  0  0  0  0  0  0  0  0  0  # atno 8008 bound_to 7997
  155.4006  140.0499  157.3054 H   0  0  0  0  0  0  0  0  0  0  0  0  # atno 8009 bound_to 7997
  154.5042  140.2141  155.9296 H   0  0  0  0  0  0  0  0  0  0  0  0  # atno 8010 bound_to 7997
  140.3950  143.2688  151.9216 H   0  0  0  0  0  0  0  0  0  0  0  0  # atno 10167 bound_to 10162
  156.0479  130.4304  150.2075 H   0  0  0  0  0  0  0  0  0  0  0  0  # atno 10718 bound_to 10713
  154.6483  135.5364  153.7871 H   0  0  0  0  0  0  0  0  0  0  0  0  # atno 10763 bound_to 10752
  153.0372  135.6476  154.1056 H   0  0  0  0  0  0  0  0  0  0  0  0  # atno 10764 bound_to 10752
  154.0975  135.2935  155.3238 H   0  0  0  0  0  0  0  0  0  0  0  0  # atno 10765 bound_to 10752
  140.1666  134.8572  157.2640 H   0  0  0  0  0  0  0  0  0  0  0  0  # atno 11005 bound_to 11000
  145.0865  139.2921  143.5757 LP  0  0  0  0  0  0  0  0  0  0  0  0  # atno 17320 bound_to 7965
  146.3527  140.0389  142.8644 LP  0  0  0  0  0  0  0  0  0  0  0  0  # atno 17321 bound_to 7965
  139.4787  144.5690  151.8119 LP  0  0  0  0  0  0  0  0  0  0  0  0  # atno 17342 bound_to 10162
  140.4800  144.1464  150.5931 LP  0  0  0  0  0  0  0  0  0  0  0  0  # atno 17343 bound_to 10162
  157.0163  130.9966  151.3352 LP  0  0  0  0  0  0  0  0  0  0  0  0  # atno 17370 bound_to 10713
  157.5375  130.8098  149.7990 LP  0  0  0  0  0  0  0  0  0  0  0  0  # atno 17371 bound_to 10713
  140.2426  134.3777  155.7474 LP  0  0  0  0  0  0  0  0  0  0  0  0  # atno 17394 bound_to 11000
  141.2214  133.7273  156.8813 LP  0  0  0  0  0  0  0  0  0  0  0  0  # atno 17395 bound_to 11000

$$$$
