AV-unprocessed.smi:153|AV-procd|sdf|1258|dock6
  -GOLD-   2262018503D 1   1.00000     0.00000
 Structure written by MMmdl.
 59 62  0  0  0  0  0  0  0  0  1 V2000
  146.6176  132.1051  161.5065 C   0  0  0  0  0  0  0  0  0  0  0  0
  146.3437  133.4091  162.2710 C   0  0  2  0  0  0  0  0  0  0  0  0
  144.9358  133.5436  162.4390 O   0  0  0  0  0  0  0  0  0  0  0  0
  144.6336  134.9207  162.5714 C   0  0  0  0  0  0  0  0  0  0  0  0
  145.5206  135.5458  161.5060 C   0  0  0  0  0  0  0  0  0  0  0  0
  146.8119  134.7335  161.6028 C   0  0  1  0  0  0  0  0  0  0  0  0
  147.6717  135.3930  162.5167 O   0  0  0  0  0  0  0  0  0  0  0  0
  147.5579  134.5991  160.2483 C   0  0  0  0  0  0  0  0  0  0  0  0
  147.9563  135.8786  159.6800 N   0  0  0  0  0  0  0  0  0  0  0  0
  149.1467  136.5352  159.8873 C   0  0  0  0  0  0  0  0  0  0  0  0
  149.2717  137.6683  159.2543 N   0  0  0  0  0  0  0  0  0  0  0  0
  148.0750  137.8167  158.5589 C   0  0  0  0  0  0  0  0  0  0  0  0
  147.5412  138.8063  157.6752 C   0  0  0  0  0  0  0  0  0  0  0  0
  148.2055  139.9312  157.2740 N   0  0  0  0  0  0  0  0  0  0  0  0
  147.4793  140.9464  156.5200 C   0  0  0  0  0  0  0  0  0  0  0  0
  149.4225  140.3528  157.9724 C   0  0  0  0  0  0  0  0  0  0  0  0
  150.5161  140.8660  157.0086 C   0  0  2  0  0  0  0  0  0  0  0  0
  150.9332  139.7883  156.1941 O   0  0  0  0  0  0  0  0  0  0  0  0
  151.7547  141.3776  157.7750 C   0  0  0  0  0  0  0  0  0  0  0  0
  151.5131  142.5042  158.6777 N   0  0  0  0  0  0  0  0  0  0  0  0
  151.5405  143.7689  157.9505 C   0  0  0  0  0  0  0  0  0  0  0  0
  151.2946  144.9722  158.8771 C   0  0  0  0  0  0  0  0  0  0  0  0
  152.2650  144.9759  159.9187 O   0  0  0  0  0  0  0  0  0  0  0  0
  152.2481  143.7773  160.6866 C   0  0  0  0  0  0  0  0  0  0  0  0
  152.4899  142.5684  159.7661 C   0  0  0  0  0  0  0  0  0  0  0  0
  146.2789  138.5904  157.2123 N   0  0  0  0  0  0  0  0  0  0  0  0
  145.5948  137.4975  157.5580 C   0  0  0  0  0  0  0  0  0  0  0  0
  145.9735  136.4962  158.3508 N   0  0  0  0  0  0  0  0  0  0  0  0
  147.2309  136.7003  158.8347 C   0  0  0  0  0  0  0  0  0  0  0  0
  147.6859  131.9501  161.3562 H   0  0  0  0  0  0  0  0  0  0  0  0
  146.1292  132.0992  160.5323 H   0  0  0  0  0  0  0  0  0  0  0  0
  146.2395  131.2481  162.0642 H   0  0  0  0  0  0  0  0  0  0  0  0
  146.7772  133.3164  163.2689 H   0  0  0  0  0  0  0  0  0  0  0  0
  143.5739  135.1192  162.4106 H   0  0  0  0  0  0  0  0  0  0  0  0
  144.9077  135.2688  163.5686 H   0  0  0  0  0  0  0  0  0  0  0  0
  145.0523  135.3911  160.5333 H   0  0  0  0  0  0  0  0  0  0  0  0
  145.6609  136.6195  161.6393 H   0  0  0  0  0  0  0  0  0  0  0  0
  148.4458  134.8642  162.6362 H   0  0  0  0  0  0  0  0  0  0  0  0
  148.4494  133.9804  160.3599 H   0  0  0  0  0  0  0  0  0  0  0  0
  146.9251  134.0999  159.5142 H   0  0  0  0  0  0  0  0  0  0  0  0
  149.9279  136.1426  160.5222 H   0  0  0  0  0  0  0  0  0  0  0  0
  147.3524  140.6350  155.4831 H   0  0  0  0  0  0  0  0  0  0  0  0
  148.0205  141.8929  156.5141 H   0  0  0  0  0  0  0  0  0  0  0  0
  146.4975  141.1316  156.9573 H   0  0  0  0  0  0  0  0  0  0  0  0
  149.1559  141.1241  158.6960 H   0  0  0  0  0  0  0  0  0  0  0  0
  149.8004  139.5284  158.5791 H   0  0  0  0  0  0  0  0  0  0  0  0
  150.1059  141.6458  156.3689 H   0  0  0  0  0  0  0  0  0  0  0  0
  150.6195  139.9364  155.3154 H   0  0  0  0  0  0  0  0  0  0  0  0
  152.1806  140.5591  158.3575 H   0  0  0  0  0  0  0  0  0  0  0  0
  152.5231  141.6443  157.0475 H   0  0  0  0  0  0  0  0  0  0  0  0
  152.5038  143.8894  157.4522 H   0  0  0  0  0  0  0  0  0  0  0  0
  150.7824  143.7609  157.1665 H   0  0  0  0  0  0  0  0  0  0  0  0
  151.3695  145.9040  158.3164 H   0  0  0  0  0  0  0  0  0  0  0  0
  150.2910  144.9335  159.3039 H   0  0  0  0  0  0  0  0  0  0  0  0
  153.0235  143.8327  161.4506 H   0  0  0  0  0  0  0  0  0  0  0  0
  151.2926  143.6824  161.2048 H   0  0  0  0  0  0  0  0  0  0  0  0
  152.4547  141.6640  160.3711 H   0  0  0  0  0  0  0  0  0  0  0  0
  153.4991  142.6275  159.3550 H   0  0  0  0  0  0  0  0  0  0  0  0
  144.6040  137.4124  157.1361 H   0  0  0  0  0  0  0  0  0  0  0  0
  1  2  1  0  0  0  0
  1 30  1  0  0  0  0
  1 31  1  0  0  0  0
  1 32  1  0  0  0  0
  2  6  1  0  0  0  0
  2  3  1  0  0  0  0
  2 33  1  0  0  0  0
  3  4  1  0  0  0  0
  4  5  1  0  0  0  0
  4 34  1  0  0  0  0
  4 35  1  0  0  0  0
  5  6  1  0  0  0  0
  5 36  1  0  0  0  0
  5 37  1  0  0  0  0
  6  7  1  0  0  0  0
  6  8  1  0  0  0  0
  7 38  1  0  0  0  0
  8  9  1  0  0  0  0
  8 39  1  0  0  0  0
  8 40  1  0  0  0  0
  9 29  1  0  0  0  0
  9 10  1  0  0  0  0
 10 11  2  0  0  0  0
 10 41  1  0  0  0  0
 11 12  1  0  0  0  0
 12 29  2  0  0  0  0
 12 13  1  0  0  0  0
 13 14  1  0  0  0  0
 13 26  2  0  0  0  0
 14 15  1  0  0  0  0
 14 16  1  0  0  0  0
 15 42  1  0  0  0  0
 15 43  1  0  0  0  0
 15 44  1  0  0  0  0
 16 17  1  0  0  0  0
 16 45  1  0  0  0  0
 16 46  1  0  0  0  0
 17 18  1  0  0  0  0
 17 19  1  0  0  0  0
 17 47  1  0  0  0  0
 18 48  1  0  0  0  0
 19 20  1  0  0  0  0
 19 49  1  0  0  0  0
 19 50  1  0  0  0  0
 20 25  1  0  0  0  0
 20 21  1  0  0  0  0
 21 22  1  0  0  0  0
 21 51  1  0  0  0  0
 21 52  1  0  0  0  0
 22 23  1  0  0  0  0
 22 53  1  0  0  0  0
 22 54  1  0  0  0  0
 23 24  1  0  0  0  0
 24 25  1  0  0  0  0
 24 55  1  0  0  0  0
 24 56  1  0  0  0  0
 25 57  1  0  0  0  0
 25 58  1  0  0  0  0
 26 27  1  0  0  0  0
 27 28  2  0  0  0  0
 27 59  1  0  0  0  0
 28 29  1  0  0  0  0
M  END
> <s_m_source_file>
AV-unprocessed.smi

> <i_m_source_file_index>
153

> <i_lp_mmshare_version>
43012

> <i_f3d_flags>
0

> <s_epik_input>
W0NIMl0xW0NIMl1PW0NAQEhdKFtDSDNdKVtDQEBdMShbT0hdKVtDSDJdbihbY0hdbjIpYyhjMjMpbltjSF1uYzNOKFtDSDNdKVtDSDJdW0NASF0oW09IXSlbQ0gyXU40W0NIMl1bQ0gyXU9bQ0gyXVtDSDJdNA==

> <s_epik_cmdline>
J2VwaWtfcHl0aG9uJywgJy1waCcsICc3LjAnLCAnLXRuJywgJzgnLCAnLW1hJywgJzIwMCcsICctbWV0YWxfYmluZGluZycsICctaW1hZScsICc8aW5maWxlLm1hZT4nLCAnLW9tYWUnLCAnPG91dGZpbGUubWFlPic=

> <r_lp_tautomer_probability>
1

> <r_epik_Ionization_Penalty>
0.424123

> <r_epik_Ionization_Penalty_Charging>
0

> <r_epik_Ionization_Penalty_Neutral>
0.424123

> <r_epik_State_Penalty>
0.421495

> <r_epik_Charging_Adjusted_Penalty>
0.421495

> <i_epik_Tot_Q>
0

> <i_epik_Tot_abs_Q>
0

> <r_epik_Metal_State_Penalty>
0.421223

> <b_epik_Metal_Only>
0

> <s_lp_Force_Field>
OPLS_2005

> <r_lp_Energy>
56.4475

> <b_lp_Chiralities_Consistent>
1

> <s_lp_Variant>
AV-unprocessed.smi:153-9

> <Gold.Version>
5.8.1

> <Gold.Id.Protein>
6NUR|6NUR_protein|mol2

> <Gold.PLP.Fitness>
40.0765

> <Gold.PLP.PLP>
-41.3261

> <Gold.PLP.part.hbond>
-0.8454

> <Gold.PLP.part.metal>
0.0000

> <Gold.PLP.part.buried>
-8.0791

> <Gold.PLP.part.nonpolar>
-33.2895

> <Gold.PLP.part.repulsive>
0.1726

> <Gold.PLP.ligand.clash>
0.0000

> <Gold.PLP.ligand.torsion>
0.8487

> <Gold.PLP.Chemscore.Hbond>
0.0000

> <Gold.PLP.Chemscore.CHOScore>
0.0000

> <Gold.PLP.Chemscore.Metal>
0.0000

> <Gold.PLP.Chemscore.Internal.Correction>
0.4478

> <Gold.Rescore>
     Score         DG    S(hbond)    S(metal)    S(lipo)     H(rot)  DE(clash)    DE(int)     intcor
      7.08      -9.05       0.00        0.00     107.43       3.52       0.04       1.93       ----

> <Gold.Chemscore.Fitness>
7.0768

> <Gold.Chemscore.DG>
-9.0460

> <Gold.Chemscore.ZeroCoef>
-5.4800

> <Gold.Chemscore.Hbond>
0.0000

> <Gold.Chemscore.Metal>
0.0000

> <Gold.Chemscore.Lipo>
107.4324

> <Gold.Chemscore.Internal_Hbond>
0.0000

> <Gold.Chemscore.DEClash>
0.0357

> <Gold.Chemscore.DEInternal>
1.9335

> <Gold.Chemscore.Rot>
3.5170

> <Gold.Chemscore.Internal.Correction>
   9.000000E+99

> <Gold.Chemscore.Hbond.Weighted>
-0.0000

> <Gold.Chemscore.Metal.Weighted>
-0.0000

> <Gold.Chemscore.Lipo.Weighted>
-12.5696

> <Gold.Chemscore.Internal_Hbond.Weighted>
0.0000

> <Gold.Chemscore.DEClash.Weighted>
0.0357

> <Gold.Chemscore.DEInternal.Weighted>
1.9335

> <Gold.Chemscore.Rot.Weighted>
9.0036

> <Gold.Chemscore.Internal.Correction.Weighted>
   9.000000E+99

> <Gold.Protein.RotatedTorsions>
[ 6907 6896 6895 6894 ] final   57.17 input  -60.11 | X-H torsion
[ 7974 7965 7964 7962 ] final   -6.29 input  175.53 | X-H torsion
[ 8008 7997 7996 7995 ] final  -62.96 input   59.86 | X-H torsion
[ 10167 10162 10161 10158 ] final  123.91 input  -65.29 | X-H torsion
[ 10718 10713 10712 10709 ] final -107.42 input   66.30 | X-H torsion
[ 10763 10752 10751 10750 ] final  125.02 input  -60.55 | X-H torsion
[ 11005 11000 10999 10996 ] final  -12.97 input  -57.11 | X-H torsion

> <Gold.Protein.ActiveResidues>
 VAL166  LYS551  ARG553  GLY616  TRP617  ASP618  TYR619  PRO620  LYS621  CYS622 
 ASP623  PHE694  ASN695  SER759  ASP760  ASP761  ALA762  ILE779  LEU786  VAL792 
 PHE793  MET794  SER795  GLU796  ALA797  LYS798  CYS799  TRP800  GLU811  SER814 

> <Gold.Protein.RotatedAtoms>
  152.3706  134.6739  160.0177 H   0  0  0  0  0  0  0  0  0  0  0  0  # atno 6907 bound_to 6896
  151.7034  133.3306  159.3280 H   0  0  0  0  0  0  0  0  0  0  0  0  # atno 6908 bound_to 6896
  150.7671  134.6531  159.6343 H   0  0  0  0  0  0  0  0  0  0  0  0  # atno 6909 bound_to 6896
  146.2334  140.2149  142.8336 H   0  0  0  0  0  0  0  0  0  0  0  0  # atno 7974 bound_to 7965
  154.4528  140.0985  156.6668 H   0  0  0  0  0  0  0  0  0  0  0  0  # atno 8008 bound_to 7997
  155.5233  140.3479  155.4392 H   0  0  0  0  0  0  0  0  0  0  0  0  # atno 8009 bound_to 7997
  156.0716  140.1351  156.9811 H   0  0  0  0  0  0  0  0  0  0  0  0  # atno 8010 bound_to 7997
  139.5772  144.6969  151.3622 H   0  0  0  0  0  0  0  0  0  0  0  0  # atno 10167 bound_to 10162
  156.0436  130.5662  150.7819 H   0  0  0  0  0  0  0  0  0  0  0  0  # atno 10718 bound_to 10713
  153.6707  135.3331  155.3152 H   0  0  0  0  0  0  0  0  0  0  0  0  # atno 10763 bound_to 10752
  154.8491  135.4385  154.1708 H   0  0  0  0  0  0  0  0  0  0  0  0  # atno 10764 bound_to 10752
  153.2699  135.6999  153.7568 H   0  0  0  0  0  0  0  0  0  0  0  0  # atno 10765 bound_to 10752
  140.7713  133.8436  155.9209 H   0  0  0  0  0  0  0  0  0  0  0  0  # atno 11005 bound_to 11000
  144.9677  140.8338  143.5474 LP  0  0  0  0  0  0  0  0  0  0  0  0  # atno 17320 bound_to 7965
  145.2127  139.2197  143.5134 LP  0  0  0  0  0  0  0  0  0  0  0  0  # atno 17321 bound_to 7965
  140.7053  143.7528  150.7472 LP  0  0  0  0  0  0  0  0  0  0  0  0  # atno 17342 bound_to 10162
  140.1051  143.4751  152.2403 LP  0  0  0  0  0  0  0  0  0  0  0  0  # atno 17343 bound_to 10162
  157.5284  131.0935  150.9987 LP  0  0  0  0  0  0  0  0  0  0  0  0  # atno 17370 bound_to 10713
  157.0300  130.5707  149.5342 LP  0  0  0  0  0  0  0  0  0  0  0  0  # atno 17371 bound_to 10713
  140.9571  134.1703  157.4683 LP  0  0  0  0  0  0  0  0  0  0  0  0  # atno 17394 bound_to 11000
  139.8755  134.9931  156.5628 LP  0  0  0  0  0  0  0  0  0  0  0  0  # atno 17395 bound_to 11000

$$$$
