AV-unprocessed.smi:2414|AV-procd|sdf|9538|dock9
  -GOLD-   2272013173D 1   1.00000     0.00000
 Structure written by MMmdl.
 43 44  0  0  0  0  0  0  0  0  1 V2000
  151.2186  141.9648  158.0289 C   0  0  0  0  0  0  0  0  0  0  0  0
  150.7166  141.3001  156.7924 C   0  0  0  0  0  0  0  0  0  0  0  0
  151.4419  140.5987  155.8613 C   0  0  0  0  0  0  0  0  0  0  0  0
  150.6747  140.1030  154.8046 N   0  0  0  0  0  0  0  0  0  0  0  0
  149.3810  140.4152  154.9224 C   0  0  0  0  0  0  0  0  0  0  0  0
  148.3352  140.0369  153.9173 C   0  0  2  0  0  0  0  0  0  0  0  0
  147.4658  141.2334  153.5069 C   0  0  0  0  0  0  0  0  0  0  0  0
  147.5036  138.8039  154.3376 C   0  0  0  0  0  0  0  0  0  0  0  0
  147.3791  137.8136  153.2721 N   0  0  0  0  0  0  0  0  0  0  0  0
  146.2238  137.4058  152.7310 C   0  0  0  0  0  0  0  0  0  0  0  0
  145.1140  137.7819  153.1084 O   0  0  0  0  0  0  0  0  0  0  0  0
  146.4294  136.5611  151.7122 N   0  0  0  0  0  0  0  0  0  0  0  0
  145.3937  135.9628  150.8741 C   0  0  0  0  0  0  0  0  0  0  0  0
  145.1056  134.4891  151.2430 C   0  0  1  0  0  0  0  0  0  0  0  0
  144.6031  134.3958  152.6942 C   0  0  0  0  0  0  0  0  0  0  0  0
  144.1373  133.7701  150.2819 C   0  0  0  0  0  0  0  0  0  0  0  0
  144.7344  132.3847  150.1676 C   0  0  0  0  0  0  0  0  0  0  0  0
  146.2222  132.6969  150.2276 C   0  0  0  0  0  0  0  0  0  0  0  0
  146.3252  133.7438  151.1856 O   0  0  0  0  0  0  0  0  0  0  0  0
  149.0254  141.3493  156.3710 S   0  0  0  0  0  0  0  0  0  0  0  0
  152.2890  141.8018  158.1558 H   0  0  0  0  0  0  0  0  0  0  0  0
  150.7114  141.5741  158.9111 H   0  0  0  0  0  0  0  0  0  0  0  0
  151.0456  143.0400  157.9873 H   0  0  0  0  0  0  0  0  0  0  0  0
  152.5048  140.4077  155.8694 H   0  0  0  0  0  0  0  0  0  0  0  0
  148.8805  139.7470  153.0183 H   0  0  0  0  0  0  0  0  0  0  0  0
  148.0779  142.0474  153.1172 H   0  0  0  0  0  0  0  0  0  0  0  0
  146.8977  141.6191  154.3539 H   0  0  0  0  0  0  0  0  0  0  0  0
  146.7549  140.9531  152.7294 H   0  0  0  0  0  0  0  0  0  0  0  0
  147.9892  138.3082  155.1788 H   0  0  0  0  0  0  0  0  0  0  0  0
  146.5155  139.1068  154.6878 H   0  0  0  0  0  0  0  0  0  0  0  0
  148.2386  137.4447  152.8925 H   0  0  0  0  0  0  0  0  0  0  0  0
  147.3833  136.3273  151.4787 H   0  0  0  0  0  0  0  0  0  0  0  0
  144.4903  136.5573  151.0126 H   0  0  0  0  0  0  0  0  0  0  0  0
  145.6464  136.0425  149.8154 H   0  0  0  0  0  0  0  0  0  0  0  0
  143.6646  134.9361  152.8224 H   0  0  0  0  0  0  0  0  0  0  0  0
  145.3271  134.8210  153.3898 H   0  0  0  0  0  0  0  0  0  0  0  0
  144.4331  133.3607  152.9921 H   0  0  0  0  0  0  0  0  0  0  0  0
  143.1067  133.7565  150.6374 H   0  0  0  0  0  0  0  0  0  0  0  0
  144.1301  134.2322  149.2960 H   0  0  0  0  0  0  0  0  0  0  0  0
  144.4415  131.7724  151.0212 H   0  0  0  0  0  0  0  0  0  0  0  0
  144.4409  131.8642  149.2560 H   0  0  0  0  0  0  0  0  0  0  0  0
  146.8248  131.8335  150.5091 H   0  0  0  0  0  0  0  0  0  0  0  0
  146.5758  133.0615  149.2620 H   0  0  0  0  0  0  0  0  0  0  0  0
  1  2  1  0  0  0  0
  1 21  1  0  0  0  0
  1 22  1  0  0  0  0
  1 23  1  0  0  0  0
  2 20  1  0  0  0  0
  2  3  2  0  0  0  0
  3  4  1  0  0  0  0
  3 24  1  0  0  0  0
  4  5  2  0  0  0  0
  5  6  1  0  0  0  0
  5 20  1  0  0  0  0
  6  7  1  0  0  0  0
  6  8  1  0  0  0  0
  6 25  1  0  0  0  0
  7 26  1  0  0  0  0
  7 27  1  0  0  0  0
  7 28  1  0  0  0  0
  8  9  1  0  0  0  0
  8 29  1  0  0  0  0
  8 30  1  0  0  0  0
  9 10  1  0  0  0  0
  9 31  1  0  0  0  0
 10 11  2  0  0  0  0
 10 12  1  0  0  0  0
 12 13  1  0  0  0  0
 12 32  1  0  0  0  0
 13 14  1  0  0  0  0
 13 33  1  0  0  0  0
 13 34  1  0  0  0  0
 14 19  1  0  0  0  0
 14 15  1  0  0  0  0
 14 16  1  0  0  0  0
 15 35  1  0  0  0  0
 15 36  1  0  0  0  0
 15 37  1  0  0  0  0
 16 17  1  0  0  0  0
 16 38  1  0  0  0  0
 16 39  1  0  0  0  0
 17 18  1  0  0  0  0
 17 40  1  0  0  0  0
 17 41  1  0  0  0  0
 18 19  1  0  0  0  0
 18 42  1  0  0  0  0
 18 43  1  0  0  0  0
M  END
> <s_m_source_file>
AV-unprocessed.smi

> <i_m_source_file_index>
2414

> <i_lp_mmshare_version>
43012

> <i_f3d_flags>
0

> <s_epik_input>
W0NIM11jMVtjSF1uYyhzMSlbQ0BIXShbQ0gzXSlbQ0gyXVtOSF1DKD1PKVtOSF1bQ0gyXVtDQEBdMihbQ0gzXSlbQ0gyXVtDSDJdW0NIMl1PMg==

> <s_epik_cmdline>
J2VwaWtfcHl0aG9uJywgJy1waCcsICc3LjAnLCAnLXRuJywgJzgnLCAnLW1hJywgJzIwMCcsICctbWV0YWxfYmluZGluZycsICctaW1hZScsICc8aW5maWxlLm1hZT4nLCAnLW9tYWUnLCAnPG91dGZpbGUubWFlPic=

> <r_epik_Ionization_Penalty>
0.000646956

> <r_epik_Ionization_Penalty_Charging>
0

> <r_epik_Ionization_Penalty_Neutral>
0.000646956

> <r_epik_State_Penalty>
0.000375727

> <r_epik_Charging_Adjusted_Penalty>
0.000375727

> <i_epik_Tot_Q>
0

> <i_epik_Tot_abs_Q>
0

> <r_epik_Metal_State_Penalty>
-0

> <b_epik_Metal_Only>
0

> <s_lp_Force_Field>
OPLS_2005

> <r_lp_Energy>
5.80605

> <b_lp_Chiralities_Consistent>
1

> <s_lp_Variant>
AV-unprocessed.smi:2414-1

> <Gold.Version>
5.8.1

> <Gold.Id.Protein>
6NUR|6NUR_protein|mol2

> <Gold.PLP.Fitness>
41.2231

> <Gold.PLP.PLP>
-34.8790

> <Gold.PLP.part.hbond>
-2.9834

> <Gold.PLP.part.metal>
0.0000

> <Gold.PLP.part.buried>
-4.4133

> <Gold.PLP.part.nonpolar>
-28.4589

> <Gold.PLP.part.repulsive>
0.9201

> <Gold.PLP.ligand.clash>
0.0000

> <Gold.PLP.ligand.torsion>
1.1335

> <Gold.PLP.Chemscore.Hbond>
2.8280

> <Gold.PLP.Chemscore.CHOScore>
0.0000

> <Gold.PLP.Chemscore.Metal>
0.0000

> <Gold.Chemscore.Hbonds>
donor molecule, donor type, donor heavy atom, donor atom, acceptor molecule, acceptor atom, score
      L1  H     9    31       P1  7948  0.93
      L1  H    12    32       P1  7948  1.00
      P1  H  7989  7998       L1     4  0.80

> <Gold.PLP.Chemscore.Internal.Correction>
0.1272

> <Gold.Rescore>
     Score         DG    S(hbond)    S(metal)    S(lipo)     H(rot)  DE(clash)    DE(int)     intcor
     17.22     -18.70       1.95        0.00      93.40       1.65       0.42       1.07       ----

> <Gold.Chemscore.Fitness>
17.2209

> <Gold.Chemscore.DG>
-18.7025

> <Gold.Chemscore.ZeroCoef>
-5.4800

> <Gold.Chemscore.Hbond>
1.9535

> <Gold.Chemscore.Metal>
0.0000

> <Gold.Chemscore.Lipo>
93.3972

> <Gold.Chemscore.Internal_Hbond>
0.0000

> <Gold.Chemscore.DEClash>
0.4158

> <Gold.Chemscore.DEInternal>
1.0657

> <Gold.Chemscore.Rot>
1.6522

> <Gold.Chemscore.Internal.Correction>
   9.000000E+99

> <Gold.Chemscore.Hbonds>
donor molecule, donor type, donor heavy atom, donor atom, acceptor molecule, acceptor atom, score
      L1  H     9    31       P1  7948  0.90
      L1  H    12    32       P1  7948  0.94
      P1  H  7989  7998       L1     4  0.11

> <Gold.Chemscore.Hbond.Weighted>
-6.5245

> <Gold.Chemscore.Metal.Weighted>
-0.0000

> <Gold.Chemscore.Lipo.Weighted>
-10.9275

> <Gold.Chemscore.Internal_Hbond.Weighted>
0.0000

> <Gold.Chemscore.DEClash.Weighted>
0.4158

> <Gold.Chemscore.DEInternal.Weighted>
1.0657

> <Gold.Chemscore.Rot.Weighted>
4.2295

> <Gold.Chemscore.Internal.Correction.Weighted>
   9.000000E+99

> <Gold.Protein.RotatedTorsions>
[ 6907 6896 6895 6894 ] final  140.88 input  -60.11 | X-H torsion
[ 7974 7965 7964 7962 ] final  152.79 input  175.53 | X-H torsion
[ 8008 7997 7996 7995 ] final -158.56 input   59.86 | X-H torsion
[ 10167 10162 10161 10158 ] final   58.98 input  -65.29 | X-H torsion
[ 10718 10713 10712 10709 ] final -151.59 input   66.30 | X-H torsion
[ 10763 10752 10751 10750 ] final  -53.13 input  -60.55 | X-H torsion
[ 11005 11000 10999 10996 ] final  -87.55 input  -57.11 | X-H torsion

> <Gold.Protein.ActiveResidues>
 VAL166  LYS551  ARG553  GLY616  TRP617  ASP618  TYR619  PRO620  LYS621  CYS622 
 ASP623  PHE694  ASN695  SER759  ASP760  ASP761  ALA762  ILE779  LEU786  VAL792 
 PHE793  MET794  SER795  GLU796  ALA797  LYS798  CYS799  TRP800  GLU811  SER814 

> <Gold.Protein.RotatedAtoms>
  152.2377  133.5110  159.5251 H   0  0  0  0  0  0  0  0  0  0  0  0  # atno 6907 bound_to 6896
  150.7055  134.1131  159.4016 H   0  0  0  0  0  0  0  0  0  0  0  0  # atno 6908 bound_to 6896
  151.9052  135.0362  160.0560 H   0  0  0  0  0  0  0  0  0  0  0  0  # atno 6909 bound_to 6896
  144.8198  139.6715  143.6105 H   0  0  0  0  0  0  0  0  0  0  0  0  # atno 7974 bound_to 7965
  155.7494  140.0824  157.2208 H   0  0  0  0  0  0  0  0  0  0  0  0  # atno 8008 bound_to 7997
  154.4013  140.1563  156.2762 H   0  0  0  0  0  0  0  0  0  0  0  0  # atno 8009 bound_to 7997
  155.8945  140.3413  155.5983 H   0  0  0  0  0  0  0  0  0  0  0  0  # atno 8010 bound_to 7997
  140.1814  144.4178  150.6614 H   0  0  0  0  0  0  0  0  0  0  0  0  # atno 10167 bound_to 10162
  156.4613  130.8214  151.2445 H   0  0  0  0  0  0  0  0  0  0  0  0  # atno 10718 bound_to 10713
  154.1538  135.6486  153.4969 H   0  0  0  0  0  0  0  0  0  0  0  0  # atno 10763 bound_to 10752
  153.0130  135.5344  154.6781 H   0  0  0  0  0  0  0  0  0  0  0  0  # atno 10764 bound_to 10752
  154.6076  135.2950  155.0439 H   0  0  0  0  0  0  0  0  0  0  0  0  # atno 10765 bound_to 10752
  141.1615  133.7518  156.9323 H   0  0  0  0  0  0  0  0  0  0  0  0  # atno 11005 bound_to 11000
  146.2503  139.6185  142.9432 LP  0  0  0  0  0  0  0  0  0  0  0  0  # atno 17320 bound_to 7965
  145.5131  141.0435  143.2477 LP  0  0  0  0  0  0  0  0  0  0  0  0  # atno 17321 bound_to 7965
  140.6517  143.2227  151.6061 LP  0  0  0  0  0  0  0  0  0  0  0  0  # atno 17342 bound_to 10162
  139.5295  144.2959  152.1113 LP  0  0  0  0  0  0  0  0  0  0  0  0  # atno 17343 bound_to 10162
  157.7497  131.0106  150.3313 LP  0  0  0  0  0  0  0  0  0  0  0  0  # atno 17370 bound_to 10713
  156.3714  130.3864  149.7173 LP  0  0  0  0  0  0  0  0  0  0  0  0  # atno 17371 bound_to 10713
  140.1378  134.9314  157.2425 LP  0  0  0  0  0  0  0  0  0  0  0  0  # atno 17394 bound_to 11000
  140.2874  134.3280  155.7325 LP  0  0  0  0  0  0  0  0  0  0  0  0  # atno 17395 bound_to 11000

$$$$
