AV-unprocessed.smi:2948|AV-procd|sdf|11284|dock2
  -GOLD-   2272016173D 1   1.00000     0.00000
 Structure written by MMmdl.
 33 34  0  0  0  0  0  0  0  0  2 V2000
  150.5574  135.2361  155.1234 C   0  0  0  0  0  0  0  0  0  0  0  0
  150.5374  136.7605  155.2528 C   0  0  0  0  0  0  0  0  0  0  0  0
  151.8733  137.2319  155.2564 O   0  0  0  0  0  0  0  0  0  0  0  0
  151.9622  138.6451  155.3339 C   0  0  0  0  0  0  0  0  0  0  0  0
  151.3797  139.1288  156.6699 C   0  0  0  0  0  0  0  0  0  0  0  0
  150.9788  140.5432  156.6232 N   0  0  0  0  0  0  0  0  0  0  0  0
  150.0755  141.1741  155.8191 C   0  0  0  0  0  0  0  0  0  0  0  0
  149.2364  140.5527  154.7523 C   0  0  0  0  0  0  0  0  0  0  0  0
  149.5708  141.0240  153.4660 O   0  0  0  0  0  0  0  0  0  0  0  0
  150.0704  142.4903  156.1720 N   0  3  0  0  0  0  0  0  0  0  0  0
  150.9839  142.7065  157.2042 C   0  0  0  0  0  0  0  0  0  0  0  0
  151.3317  143.8698  157.8836 C   0  0  0  0  0  0  0  0  0  0  0  0
  152.3129  143.7463  158.8892 C   0  0  0  0  0  0  0  0  0  0  0  0
  152.9072  142.5027  159.1860 C   0  0  0  0  0  0  0  0  0  0  0  0
  152.5447  141.3296  158.4918 C   0  0  0  0  0  0  0  0  0  0  0  0
  151.5730  141.4599  157.4993 C   0  0  0  0  0  0  0  0  0  0  0  0
  149.5451  134.8318  155.1164 H   0  0  0  0  0  0  0  0  0  0  0  0
  151.0949  134.7800  155.9550 H   0  0  0  0  0  0  0  0  0  0  0  0
  151.0472  134.9292  154.1990 H   0  0  0  0  0  0  0  0  0  0  0  0
  149.9854  137.1962  154.4188 H   0  0  0  0  0  0  0  0  0  0  0  0
  150.0319  137.0522  156.1743 H   0  0  0  0  0  0  0  0  0  0  0  0
  153.0044  138.9572  155.2512 H   0  0  0  0  0  0  0  0  0  0  0  0
  151.4186  139.1000  154.5047 H   0  0  0  0  0  0  0  0  0  0  0  0
  150.4979  138.5415  156.9279 H   0  0  0  0  0  0  0  0  0  0  0  0
  152.0906  138.9837  157.4832 H   0  0  0  0  0  0  0  0  0  0  0  0
  149.3614  139.4699  154.7779 H   0  0  0  0  0  0  0  0  0  0  0  0
  148.1839  140.7577  154.9479 H   0  0  0  0  0  0  0  0  0  0  0  0
  149.3836  140.3431  152.8376 H   0  0  0  0  0  0  0  0  0  0  0  0
  150.8792  144.8239  157.6567 H   0  0  0  0  0  0  0  0  0  0  0  0
  152.6168  144.6235  159.4424 H   0  0  0  0  0  0  0  0  0  0  0  0
  153.6581  142.4469  159.9609 H   0  0  0  0  0  0  0  0  0  0  0  0
  153.0113  140.3836  158.7232 H   0  0  0  0  0  0  0  0  0  0  0  0
  149.4819  143.1880  155.7353 H   0  0  0  0  0  0  0  0  0  0  0  0
  1  2  1  0  0  0  0
  1 17  1  0  0  0  0
  1 18  1  0  0  0  0
  1 19  1  0  0  0  0
  2  3  1  0  0  0  0
  2 20  1  0  0  0  0
  2 21  1  0  0  0  0
  3  4  1  0  0  0  0
  4  5  1  0  0  0  0
  4 22  1  0  0  0  0
  4 23  1  0  0  0  0
  5  6  1  0  0  0  0
  5 24  1  0  0  0  0
  5 25  1  0  0  0  0
  6 16  1  0  0  0  0
  6  7  1  0  0  0  0
  7  8  1  0  0  0  0
  7 10  2  0  0  0  0
  8  9  1  0  0  0  0
  8 26  1  0  0  0  0
  8 27  1  0  0  0  0
  9 28  1  0  0  0  0
 10 11  1  0  0  0  0
 10 33  1  0  0  0  0
 11 16  2  0  0  0  0
 11 12  1  0  0  0  0
 12 13  2  0  0  0  0
 12 29  1  0  0  0  0
 13 14  1  0  0  0  0
 13 30  1  0  0  0  0
 14 15  2  0  0  0  0
 14 31  1  0  0  0  0
 15 16  1  0  0  0  0
 15 32  1  0  0  0  0
M  CHG  1  10   1
M  END
> <s_m_source_file>
AV-unprocessed.smi

> <i_m_source_file_index>
2948

> <i_lp_mmshare_version>
43012

> <i_f3d_flags>
0

> <s_epik_input>
W0NIM11bQ0gyXU9bQ0gyXVtDSDJdbihjKG4xKVtDSDJdW09IXSljKGMxMilbY0hdW2NIXVtjSF1bY0hdMg==

> <s_epik_cmdline>
J2VwaWtfcHl0aG9uJywgJy1waCcsICc3LjAnLCAnLXRuJywgJzgnLCAnLW1hJywgJzIwMCcsICctbWV0YWxfYmluZGluZycsICctaW1hZScsICc8aW5maWxlLm1hZT4nLCAnLW9tYWUnLCAnPG91dGZpbGUubWFlPic=

> <r_epik_Ionization_Penalty>
1.38898

> <r_epik_Ionization_Penalty_Charging>
1.38812

> <r_epik_Ionization_Penalty_Neutral>
0.000855784

> <r_epik_State_Penalty>
1.46922

> <r_epik_Charging_Adjusted_Penalty>
2.85735

> <i_epik_Tot_Q>
1

> <i_epik_Tot_abs_Q>
1

> <r_epik_Metal_State_Penalty>
5.51019

> <b_epik_Metal_Only>
0

> <s_lp_Force_Field>
OPLS_2005

> <r_lp_Energy>
9.27044

> <b_lp_Chiralities_Consistent>
1

> <s_lp_Variant>
AV-unprocessed.smi:2948-2

> <Gold.Version>
5.8.1

> <Gold.Id.Protein>
6NUR|6NUR_protein|mol2

> <Gold.PLP.Fitness>
51.0057

> <Gold.PLP.PLP>
-36.3737

> <Gold.PLP.part.hbond>
-4.8699

> <Gold.PLP.part.metal>
0.0000

> <Gold.PLP.part.buried>
-4.2931

> <Gold.PLP.part.nonpolar>
-28.2568

> <Gold.PLP.part.repulsive>
0.1779

> <Gold.PLP.ligand.clash>
0.0000

> <Gold.PLP.ligand.torsion>
0.1408

> <Gold.PLP.Chemscore.Hbond>
4.9552

> <Gold.PLP.Chemscore.CHOScore>
0.0000

> <Gold.PLP.Chemscore.Metal>
0.0000

> <Gold.Chemscore.Hbonds>
donor molecule, donor type, donor heavy atom, donor atom, acceptor molecule, acceptor atom, score
      L1  H     9    28       P1  7957  0.77
      L1  H    10    33       P1  8028  2.00
      P1  H  7989  7998       L1     9  0.23
      P1  H  8011  8017       L1     9  0.95
      P1  H 10752 10765       L1     3  0.92

> <Gold.PLP.Chemscore.Internal.Correction>
0.0480

> <Gold.Rescore>
     Score         DG    S(hbond)    S(metal)    S(lipo)     H(rot)  DE(clash)    DE(int)     intcor
     20.03     -20.31       2.99        0.00      91.78       2.30       0.04       0.24       ----

> <Gold.Chemscore.Fitness>
20.0325

> <Gold.Chemscore.DG>
-20.3128

> <Gold.Chemscore.ZeroCoef>
-5.4800

> <Gold.Chemscore.Hbond>
2.9904

> <Gold.Chemscore.Metal>
0.0000

> <Gold.Chemscore.Lipo>
91.7803

> <Gold.Chemscore.Internal_Hbond>
0.0000

> <Gold.Chemscore.DEClash>
0.0383

> <Gold.Chemscore.DEInternal>
0.2420

> <Gold.Chemscore.Rot>
2.3021

> <Gold.Chemscore.Internal.Correction>
   9.000000E+99

> <Gold.Chemscore.Hbonds>
donor molecule, donor type, donor heavy atom, donor atom, acceptor molecule, acceptor atom, score
      L1  H     9    28       P1  7957  0.76
      L1  H    10    33       P1  8028  0.95
      P1  H  7989  7998       L1     9  0.02
      P1  H  8011  8017       L1     9  0.21
      P1  H 10752 10765       L1     3  0.38

> <Gold.Chemscore.Hbond.Weighted>
-9.9878

> <Gold.Chemscore.Metal.Weighted>
-0.0000

> <Gold.Chemscore.Lipo.Weighted>
-10.7383

> <Gold.Chemscore.Internal_Hbond.Weighted>
0.0000

> <Gold.Chemscore.DEClash.Weighted>
0.0383

> <Gold.Chemscore.DEInternal.Weighted>
0.2420

> <Gold.Chemscore.Rot.Weighted>
5.8933

> <Gold.Chemscore.Internal.Correction.Weighted>
   9.000000E+99

> <Gold.Protein.RotatedTorsions>
[ 6907 6896 6895 6894 ] final  175.52 input  -60.11 | X-H torsion
[ 7974 7965 7964 7962 ] final  171.60 input  175.53 | X-H torsion
[ 8008 7997 7996 7995 ] final -104.57 input   59.86 | X-H torsion
[ 10167 10162 10161 10158 ] final -160.35 input  -65.29 | X-H torsion
[ 10718 10713 10712 10709 ] final  -78.91 input   66.30 | X-H torsion
[ 10763 10752 10751 10750 ] final -177.72 input  -60.55 | X-H torsion
[ 11005 11000 10999 10996 ] final -131.35 input  -57.11 | X-H torsion

> <Gold.Protein.ActiveResidues>
 VAL166  LYS551  ARG553  GLY616  TRP617  ASP618  TYR619  PRO620  LYS621  CYS622 
 ASP623  PHE694  ASN695  SER759  ASP760  ASP761  ALA762  ILE779  LEU786  VAL792 
 PHE793  MET794  SER795  GLU796  ALA797  LYS798  CYS799  TRP800  GLU811  SER814 

> <Gold.Protein.RotatedAtoms>
  151.7349  133.3319  159.3349 H   0  0  0  0  0  0  0  0  0  0  0  0  # atno 6907 bound_to 6896
  150.7597  134.6330  159.6206 H   0  0  0  0  0  0  0  0  0  0  0  0  # atno 6908 bound_to 6896
  152.3568  134.6931  160.0271 H   0  0  0  0  0  0  0  0  0  0  0  0  # atno 6909 bound_to 6896
  144.7290  139.9374  143.6427 H   0  0  0  0  0  0  0  0  0  0  0  0  # atno 7974 bound_to 7965
  154.8872  140.0417  157.1817 H   0  0  0  0  0  0  0  0  0  0  0  0  # atno 8008 bound_to 7997
  154.8578  140.2939  155.5537 H   0  0  0  0  0  0  0  0  0  0  0  0  # atno 8009 bound_to 7997
  156.2998  140.2452  156.3547 H   0  0  0  0  0  0  0  0  0  0  0  0  # atno 8010 bound_to 7997
  139.6546  144.0022  152.2185 H   0  0  0  0  0  0  0  0  0  0  0  0  # atno 10167 bound_to 10162
  156.0105  130.4531  150.3569 H   0  0  0  0  0  0  0  0  0  0  0  0  # atno 10718 bound_to 10713
  154.5566  135.2817  155.0958 H   0  0  0  0  0  0  0  0  0  0  0  0  # atno 10763 bound_to 10752
  154.2383  135.6361  153.5202 H   0  0  0  0  0  0  0  0  0  0  0  0  # atno 10764 bound_to 10752
  153.0017  135.5554  154.6148 H   0  0  0  0  0  0  0  0  0  0  0  0  # atno 10765 bound_to 10752
  140.9267  134.1374  157.4269 H   0  0  0  0  0  0  0  0  0  0  0  0  # atno 11005 bound_to 11000
  146.0811  139.3799  143.0464 LP  0  0  0  0  0  0  0  0  0  0  0  0  # atno 17320 bound_to 7965
  145.7839  140.9844  143.1084 LP  0  0  0  0  0  0  0  0  0  0  0  0  # atno 17321 bound_to 7965
  139.9745  144.6471  150.7958 LP  0  0  0  0  0  0  0  0  0  0  0  0  # atno 17342 bound_to 10162
  140.7553  143.3044  151.3000 LP  0  0  0  0  0  0  0  0  0  0  0  0  # atno 17343 bound_to 10162
  157.1659  131.0356  151.2819 LP  0  0  0  0  0  0  0  0  0  0  0  0  # atno 17370 bound_to 10713
  157.4271  130.7470  149.6960 LP  0  0  0  0  0  0  0  0  0  0  0  0  # atno 17371 bound_to 10713
  139.8787  134.9990  156.5933 LP  0  0  0  0  0  0  0  0  0  0  0  0  # atno 17394 bound_to 11000
  140.7917  133.8577  155.8652 LP  0  0  0  0  0  0  0  0  0  0  0  0  # atno 17395 bound_to 11000

$$$$
