AV-unprocessed.smi:1983|AV-procd|sdf|8028|dock2
  -GOLD-   2272010223D 1   1.00000     0.00000
 Structure written by MMmdl.
 49 50  0  0  0  0  0  0  0  0  1 V2000
  150.9837  135.0184  156.2018 C   0  0  0  0  0  0  0  0  0  0  0  0
  149.6458  134.7808  155.4797 C   0  0  2  0  0  0  0  0  0  0  0  0
  149.6553  133.4890  154.6438 C   0  0  0  0  0  0  0  0  0  0  0  0
  149.9023  132.3679  155.4656 O   0  0  0  0  0  0  0  0  0  0  0  0
  149.3345  135.9110  154.6087 N   0  0  0  0  0  0  0  0  0  0  0  0
  149.1888  137.1825  155.0076 C   0  0  0  0  0  0  0  0  0  0  0  0
  149.2991  137.5590  156.1744 O   0  0  0  0  0  0  0  0  0  0  0  0
  148.9194  137.9971  153.9777 N   0  0  0  0  0  0  0  0  0  0  0  0
  148.7281  139.4413  154.0785 C   0  0  0  0  0  0  0  0  0  0  0  0
  149.6048  140.1447  155.1084 C   0  0  0  0  0  0  0  0  0  0  0  0
  150.9572  139.8027  155.3284 C   0  0  0  0  0  0  0  0  0  0  0  0
  151.6935  140.5102  156.2976 C   0  0  0  0  0  0  0  0  0  0  0  0
  151.0626  141.5471  157.0239 C   0  0  0  0  0  0  0  0  0  0  0  0
  151.7843  142.2656  158.0009 N   0  0  0  0  0  0  0  0  0  0  0  0
  151.2474  143.5513  158.4408 C   0  0  0  0  0  0  0  0  0  0  0  0
  152.2965  144.3148  159.2700 C   0  0  1  0  0  0  0  0  0  0  0  0
  151.7375  145.6205  159.8442 C   0  0  0  0  0  0  0  0  0  0  0  0
  152.7197  143.4930  160.3545 O   0  0  0  0  0  0  0  0  0  0  0  0
  153.3392  142.2872  159.9146 C   0  0  1  0  0  0  0  0  0  0  0  0
  153.8331  141.5247  161.1485 C   0  0  0  0  0  0  0  0  0  0  0  0
  152.3278  141.4642  159.0937 C   0  0  0  0  0  0  0  0  0  0  0  0
  149.7674  141.8815  156.8025 N   0  0  0  0  0  0  0  0  0  0  0  0
  149.0653  141.1971  155.8751 C   0  0  0  0  0  0  0  0  0  0  0  0
  151.2233  134.1906  156.8695 H   0  0  0  0  0  0  0  0  0  0  0  0
  150.9514  135.9245  156.8075 H   0  0  0  0  0  0  0  0  0  0  0  0
  151.8057  135.1213  155.4926 H   0  0  0  0  0  0  0  0  0  0  0  0
  148.8528  134.6953  156.2257 H   0  0  0  0  0  0  0  0  0  0  0  0
  148.6878  133.3396  154.1628 H   0  0  0  0  0  0  0  0  0  0  0  0
  150.4042  133.5371  153.8525 H   0  0  0  0  0  0  0  0  0  0  0  0
  149.1870  131.7584  155.3661 H   0  0  0  0  0  0  0  0  0  0  0  0
  149.2279  135.7081  153.6256 H   0  0  0  0  0  0  0  0  0  0  0  0
  148.8493  137.5925  153.0556 H   0  0  0  0  0  0  0  0  0  0  0  0
  148.9412  139.8741  153.1009 H   0  0  0  0  0  0  0  0  0  0  0  0
  147.6803  139.6638  154.2885 H   0  0  0  0  0  0  0  0  0  0  0  0
  151.4382  139.0149  154.7686 H   0  0  0  0  0  0  0  0  0  0  0  0
  152.7313  140.2616  156.4615 H   0  0  0  0  0  0  0  0  0  0  0  0
  150.9595  144.1521  157.5771 H   0  0  0  0  0  0  0  0  0  0  0  0
  150.3487  143.3811  159.0356 H   0  0  0  0  0  0  0  0  0  0  0  0
  153.1585  144.5529  158.6438 H   0  0  0  0  0  0  0  0  0  0  0  0
  151.4144  146.2922  159.0485 H   0  0  0  0  0  0  0  0  0  0  0  0
  152.4929  146.1417  160.4327 H   0  0  0  0  0  0  0  0  0  0  0  0
  150.8816  145.4319  160.4929 H   0  0  0  0  0  0  0  0  0  0  0  0
  154.2009  142.5354  159.2923 H   0  0  0  0  0  0  0  0  0  0  0  0
  154.3273  140.5956  160.8639 H   0  0  0  0  0  0  0  0  0  0  0  0
  153.0064  141.2743  161.8139 H   0  0  0  0  0  0  0  0  0  0  0  0
  154.5476  142.1216  161.7161 H   0  0  0  0  0  0  0  0  0  0  0  0
  151.5038  141.1381  159.7300 H   0  0  0  0  0  0  0  0  0  0  0  0
  152.8171  140.5638  158.7244 H   0  0  0  0  0  0  0  0  0  0  0  0
  148.0377  141.5014  155.7402 H   0  0  0  0  0  0  0  0  0  0  0  0
  1  2  1  0  0  0  0
  1 24  1  0  0  0  0
  1 25  1  0  0  0  0
  1 26  1  0  0  0  0
  2  3  1  0  0  0  0
  2  5  1  0  0  0  0
  2 27  1  0  0  0  0
  3  4  1  0  0  0  0
  3 28  1  0  0  0  0
  3 29  1  0  0  0  0
  4 30  1  0  0  0  0
  5  6  1  0  0  0  0
  5 31  1  0  0  0  0
  6  7  2  0  0  0  0
  6  8  1  0  0  0  0
  8  9  1  0  0  0  0
  8 32  1  0  0  0  0
  9 10  1  0  0  0  0
  9 33  1  0  0  0  0
  9 34  1  0  0  0  0
 10 23  1  0  0  0  0
 10 11  2  0  0  0  0
 11 12  1  0  0  0  0
 11 35  1  0  0  0  0
 12 13  2  0  0  0  0
 12 36  1  0  0  0  0
 13 14  1  0  0  0  0
 13 22  1  0  0  0  0
 14 21  1  0  0  0  0
 14 15  1  0  0  0  0
 15 16  1  0  0  0  0
 15 37  1  0  0  0  0
 15 38  1  0  0  0  0
 16 17  1  0  0  0  0
 16 18  1  0  0  0  0
 16 39  1  0  0  0  0
 17 40  1  0  0  0  0
 17 41  1  0  0  0  0
 17 42  1  0  0  0  0
 18 19  1  0  0  0  0
 19 20  1  0  0  0  0
 19 21  1  0  0  0  0
 19 43  1  0  0  0  0
 20 44  1  0  0  0  0
 20 45  1  0  0  0  0
 20 46  1  0  0  0  0
 21 47  1  0  0  0  0
 21 48  1  0  0  0  0
 22 23  2  0  0  0  0
 23 49  1  0  0  0  0
M  END
> <s_m_source_file>
AV-unprocessed.smi

> <i_m_source_file_index>
1983

> <i_lp_mmshare_version>
43012

> <i_f3d_flags>
0

> <s_epik_input>
W09IXVtDSDJdW0NAQEhdKFtDSDNdKVtOSF1DKD1PKVtOSF1bQ0gyXWMxW2NIXVtjSF1jKG5bY0hdMSlOMltDSDJdW0NAQEhdKFtDSDNdKU9bQ0BASF0oW0NIM10pW0NIMl0y

> <s_epik_cmdline>
J2VwaWtfcHl0aG9uJywgJy1waCcsICc3LjAnLCAnLXRuJywgJzgnLCAnLW1hJywgJzIwMCcsICctbWV0YWxfYmluZGluZycsICctaW1hZScsICc8aW5maWxlLm1hZT4nLCAnLW9tYWUnLCAnPG91dGZpbGUubWFlPic=

> <r_lp_tautomer_probability>
1

> <r_epik_Ionization_Penalty>
0.00801967

> <r_epik_Ionization_Penalty_Charging>
0

> <r_epik_Ionization_Penalty_Neutral>
0.00801967

> <r_epik_State_Penalty>
0.00598289

> <r_epik_Charging_Adjusted_Penalty>
0.00598289

> <i_epik_Tot_Q>
0

> <i_epik_Tot_abs_Q>
0

> <r_epik_Metal_State_Penalty>
0.00590297

> <b_epik_Metal_Only>
0

> <s_lp_Force_Field>
OPLS_2005

> <r_lp_Energy>
13.3716

> <b_lp_Chiralities_Consistent>
1

> <s_lp_Variant>
AV-unprocessed.smi:1983-1

> <Gold.Version>
5.8.1

> <Gold.Id.Protein>
6NUR|6NUR_protein|mol2

> <Gold.PLP.Fitness>
49.0184

> <Gold.PLP.PLP>
-44.0378

> <Gold.PLP.part.hbond>
-2.0000

> <Gold.PLP.part.metal>
0.0000

> <Gold.PLP.part.buried>
-5.3475

> <Gold.PLP.part.nonpolar>
-36.9934

> <Gold.PLP.part.repulsive>
0.2156

> <Gold.PLP.ligand.clash>
0.0000

> <Gold.PLP.ligand.torsion>
0.7103

> <Gold.PLP.Chemscore.Hbond>
2.0000

> <Gold.PLP.Chemscore.CHOScore>
0.0000

> <Gold.PLP.Chemscore.Metal>
0.0000

> <Gold.Chemscore.Hbonds>
donor molecule, donor type, donor heavy atom, donor atom, acceptor molecule, acceptor atom, score
      L1  H     5    31       P1  7948  1.00
      L1  H     8    32       P1  7948  1.00

> <Gold.PLP.Chemscore.Internal.Correction>
0.4012

> <Gold.Rescore>
     Score         DG    S(hbond)    S(metal)    S(lipo)     H(rot)  DE(clash)    DE(int)     intcor
     15.93     -17.91       1.91        0.00     108.97       2.61       0.02       1.96       ----

> <Gold.Chemscore.Fitness>
15.9307

> <Gold.Chemscore.DG>
-17.9146

> <Gold.Chemscore.ZeroCoef>
-5.4800

> <Gold.Chemscore.Hbond>
1.9058

> <Gold.Chemscore.Metal>
0.0000

> <Gold.Chemscore.Lipo>
108.9746

> <Gold.Chemscore.Internal_Hbond>
0.0000

> <Gold.Chemscore.DEClash>
0.0234

> <Gold.Chemscore.DEInternal>
1.9604

> <Gold.Chemscore.Rot>
2.6097

> <Gold.Chemscore.Internal.Correction>
   9.000000E+99

> <Gold.Chemscore.Hbonds>
donor molecule, donor type, donor heavy atom, donor atom, acceptor molecule, acceptor atom, score
      L1  H     5    31       P1  7948  0.63
      L1  H     8    32       P1  7948  0.98

> <Gold.Chemscore.Hbond.Weighted>
-6.3655

> <Gold.Chemscore.Metal.Weighted>
-0.0000

> <Gold.Chemscore.Lipo.Weighted>
-12.7500

> <Gold.Chemscore.Internal_Hbond.Weighted>
0.0000

> <Gold.Chemscore.DEClash.Weighted>
0.0234

> <Gold.Chemscore.DEInternal.Weighted>
1.9604

> <Gold.Chemscore.Rot.Weighted>
6.6809

> <Gold.Chemscore.Internal.Correction.Weighted>
   9.000000E+99

> <Gold.Protein.RotatedTorsions>
[ 6907 6896 6895 6894 ] final  -95.64 input  -60.11 | X-H torsion
[ 7974 7965 7964 7962 ] final -157.47 input  175.53 | X-H torsion
[ 8008 7997 7996 7995 ] final -176.27 input   59.86 | X-H torsion
[ 10167 10162 10161 10158 ] final -166.94 input  -65.29 | X-H torsion
[ 10718 10713 10712 10709 ] final   67.18 input   66.30 | X-H torsion
[ 10763 10752 10751 10750 ] final   72.52 input  -60.55 | X-H torsion
[ 11005 11000 10999 10996 ] final -166.42 input  -57.11 | X-H torsion

> <Gold.Protein.ActiveResidues>
 VAL166  LYS551  ARG553  GLY616  TRP617  ASP618  TYR619  PRO620  LYS621  CYS622 
 ASP623  PHE694  ASN695  SER759  ASP760  ASP761  ALA762  ILE779  LEU786  VAL792 
 PHE793  MET794  SER795  GLU796  ALA797  LYS798  CYS799  TRP800  GLU811  SER814 

> <Gold.Protein.RotatedAtoms>
  150.6969  134.1626  159.4181 H   0  0  0  0  0  0  0  0  0  0  0  0  # atno 6907 bound_to 6896
  151.9606  135.0123  160.0556 H   0  0  0  0  0  0  0  0  0  0  0  0  # atno 6908 bound_to 6896
  152.1930  133.4752  159.5055 H   0  0  0  0  0  0  0  0  0  0  0  0  # atno 6909 bound_to 6896
  144.7547  140.3965  143.6021 H   0  0  0  0  0  0  0  0  0  0  0  0  # atno 7974 bound_to 7965
  155.9928  140.1204  157.0622 H   0  0  0  0  0  0  0  0  0  0  0  0  # atno 8008 bound_to 7997
  154.4217  140.1122  156.5657 H   0  0  0  0  0  0  0  0  0  0  0  0  # atno 8009 bound_to 7997
  155.6319  140.3473  155.4688 H   0  0  0  0  0  0  0  0  0  0  0  0  # atno 8010 bound_to 7997
  139.6082  144.0869  152.1815 H   0  0  0  0  0  0  0  0  0  0  0  0  # atno 10167 bound_to 10162
  157.6215  130.9307  150.0208 H   0  0  0  0  0  0  0  0  0  0  0  0  # atno 10718 bound_to 10713
  153.0464  135.5097  154.7756 H   0  0  0  0  0  0  0  0  0  0  0  0  # atno 10763 bound_to 10752
  154.6653  135.2944  154.9816 H   0  0  0  0  0  0  0  0  0  0  0  0  # atno 10764 bound_to 10752
  154.0653  135.6685  153.4869 H   0  0  0  0  0  0  0  0  0  0  0  0  # atno 10765 bound_to 10752
  140.5647  134.5298  157.5150 H   0  0  0  0  0  0  0  0  0  0  0  0  # atno 11005 bound_to 11000
  145.6821  139.1620  143.2695 LP  0  0  0  0  0  0  0  0  0  0  0  0  # atno 17320 bound_to 7965
  146.1542  140.6881  142.9307 LP  0  0  0  0  0  0  0  0  0  0  0  0  # atno 17321 bound_to 7965
  140.0481  144.5954  150.7357 LP  0  0  0  0  0  0  0  0  0  0  0  0  # atno 17342 bound_to 10162
  140.7300  143.2679  151.3985 LP  0  0  0  0  0  0  0  0  0  0  0  0  # atno 17343 bound_to 10162
  156.1363  130.3642  149.9653 LP  0  0  0  0  0  0  0  0  0  0  0  0  # atno 17370 bound_to 10713
  156.7703  130.9184  151.3644 LP  0  0  0  0  0  0  0  0  0  0  0  0  # atno 17371 bound_to 10713
  139.9390  134.7821  156.0726 LP  0  0  0  0  0  0  0  0  0  0  0  0  # atno 17394 bound_to 11000
  141.1093  133.6649  156.2939 LP  0  0  0  0  0  0  0  0  0  0  0  0  # atno 17395 bound_to 11000

$$$$
