AV-unprocessed.smi:3270|AV-procd|sdf|12513|dock4
  -GOLD-   2272018423D 1   1.00000     0.00000
 Structure written by MMmdl.
 38 39  0  0  0  0  0  0  0  0  1 V2000
  143.2028  135.7150  152.6664 C   0  0  0  0  0  0  0  0  0  0  0  0
  144.4162  135.8486  151.7239 C   0  0  1  0  0  0  0  0  0  0  0  0
  145.5731  136.6589  152.3427 C   0  0  0  0  0  0  0  0  0  0  0  0
  146.1710  136.2424  153.3357 O   0  0  0  0  0  0  0  0  0  0  0  0
  145.8703  137.8304  151.7580 N   0  0  0  0  0  0  0  0  0  0  0  0
  146.9324  138.7269  152.1908 C   0  0  0  0  0  0  0  0  0  0  0  0
  146.6383  139.2582  153.6029 C   0  0  0  0  0  0  0  0  0  0  0  0
  147.8204  139.5001  154.4280 N   0  0  0  0  0  0  0  0  0  0  0  0
  148.3748  140.8392  154.2384 C   0  0  0  0  0  0  0  0  0  0  0  0
  149.6345  141.0657  155.0930 C   0  0  0  0  0  0  0  0  0  0  0  0
  150.6033  140.0657  154.7951 O   0  0  0  0  0  0  0  0  0  0  0  0
  150.1145  138.7466  155.0146 C   0  0  0  0  0  0  0  0  0  0  0  0
  148.8605  138.5140  154.1541 C   0  0  0  0  0  0  0  0  0  0  0  0
  144.8672  134.5419  151.2538 N   0  0  0  0  0  0  0  0  0  0  0  0
  144.1324  133.5760  150.5961 C   0  0  0  0  0  0  0  0  0  0  0  0
  144.9704  132.5303  150.3341 C   0  0  0  0  0  0  0  0  0  0  0  0
  146.2175  132.9536  150.8717 C   0  0  0  0  0  0  0  0  0  0  0  0
  146.1545  134.1566  151.4180 N   0  0  0  0  0  0  0  0  0  0  0  0
  142.7952  136.6916  152.9299 H   0  0  0  0  0  0  0  0  0  0  0  0
  143.4637  135.2028  153.5935 H   0  0  0  0  0  0  0  0  0  0  0  0
  142.4022  135.1478  152.1905 H   0  0  0  0  0  0  0  0  0  0  0  0
  144.0864  136.4072  150.8467 H   0  0  0  0  0  0  0  0  0  0  0  0
  145.3355  138.1086  150.9480 H   0  0  0  0  0  0  0  0  0  0  0  0
  147.8741  138.1787  152.1636 H   0  0  0  0  0  0  0  0  0  0  0  0
  147.0208  139.5628  151.4947 H   0  0  0  0  0  0  0  0  0  0  0  0
  146.0910  140.1959  153.4945 H   0  0  0  0  0  0  0  0  0  0  0  0
  145.9623  138.5747  154.1191 H   0  0  0  0  0  0  0  0  0  0  0  0
  148.6207  140.9929  153.1864 H   0  0  0  0  0  0  0  0  0  0  0  0
  147.6371  141.5963  154.5016 H   0  0  0  0  0  0  0  0  0  0  0  0
  150.0609  142.0478  154.8875 H   0  0  0  0  0  0  0  0  0  0  0  0
  149.3896  141.0384  156.1560 H   0  0  0  0  0  0  0  0  0  0  0  0
  150.8928  138.0297  154.7533 H   0  0  0  0  0  0  0  0  0  0  0  0
  149.8897  138.6050  156.0728 H   0  0  0  0  0  0  0  0  0  0  0  0
  148.4778  137.5102  154.3417 H   0  0  0  0  0  0  0  0  0  0  0  0
  149.1364  138.5505  153.0989 H   0  0  0  0  0  0  0  0  0  0  0  0
  143.0844  133.7117  150.3717 H   0  0  0  0  0  0  0  0  0  0  0  0
  144.7295  131.6042  149.8337 H   0  0  0  0  0  0  0  0  0  0  0  0
  147.1603  132.4267  150.8796 H   0  0  0  0  0  0  0  0  0  0  0  0
  1  2  1  0  0  0  0
  1 19  1  0  0  0  0
  1 20  1  0  0  0  0
  1 21  1  0  0  0  0
  2  3  1  0  0  0  0
  2 14  1  0  0  0  0
  2 22  1  0  0  0  0
  3  4  2  0  0  0  0
  3  5  1  0  0  0  0
  5  6  1  0  0  0  0
  5 23  1  0  0  0  0
  6  7  1  0  0  0  0
  6 24  1  0  0  0  0
  6 25  1  0  0  0  0
  7  8  1  0  0  0  0
  7 26  1  0  0  0  0
  7 27  1  0  0  0  0
  8 13  1  0  0  0  0
  8  9  1  0  0  0  0
  9 10  1  0  0  0  0
  9 28  1  0  0  0  0
  9 29  1  0  0  0  0
 10 11  1  0  0  0  0
 10 30  1  0  0  0  0
 10 31  1  0  0  0  0
 11 12  1  0  0  0  0
 12 13  1  0  0  0  0
 12 32  1  0  0  0  0
 12 33  1  0  0  0  0
 13 34  1  0  0  0  0
 13 35  1  0  0  0  0
 14 18  1  0  0  0  0
 14 15  1  0  0  0  0
 15 16  2  0  0  0  0
 15 36  1  0  0  0  0
 16 17  1  0  0  0  0
 16 37  1  0  0  0  0
 17 18  2  0  0  0  0
 17 38  1  0  0  0  0
M  END
> <s_m_source_file>
AV-unprocessed.smi

> <i_m_source_file_index>
3270

> <i_lp_mmshare_version>
43012

> <i_f3d_flags>
0

> <s_epik_input>
bjFbY0hdW2NIXVtjSF1uMVtDQEhdKFtDSDNdKUMoPU8pW05IXVtDSDJdW0NIMl1OMltDSDJdW0NIMl1PW0NIMl1bQ0gyXTI=

> <s_epik_cmdline>
J2VwaWtfcHl0aG9uJywgJy1waCcsICc3LjAnLCAnLXRuJywgJzgnLCAnLW1hJywgJzIwMCcsICctbWV0YWxfYmluZGluZycsICctaW1hZScsICc8aW5maWxlLm1hZT4nLCAnLW9tYWUnLCAnPG91dGZpbGUubWFlPic=

> <r_lp_tautomer_probability>
1

> <r_epik_Ionization_Penalty>
0.203323

> <r_epik_Ionization_Penalty_Charging>
0

> <r_epik_Ionization_Penalty_Neutral>
0.203323

> <r_epik_State_Penalty>
0.193192

> <r_epik_Charging_Adjusted_Penalty>
0.193192

> <i_epik_Tot_Q>
0

> <i_epik_Tot_abs_Q>
0

> <r_epik_Metal_State_Penalty>
0.193187

> <b_epik_Metal_Only>
0

> <s_lp_Force_Field>
OPLS_2005

> <r_lp_Energy>
25.3567

> <b_lp_Chiralities_Consistent>
1

> <s_lp_Variant>
AV-unprocessed.smi:3270-2

> <Gold.Version>
5.8.1

> <Gold.Id.Protein>
6NUR|6NUR_protein|mol2

> <Gold.PLP.Fitness>
44.5898

> <Gold.PLP.PLP>
-33.6213

> <Gold.PLP.part.hbond>
-2.0000

> <Gold.PLP.part.metal>
0.0000

> <Gold.PLP.part.buried>
-3.5412

> <Gold.PLP.part.nonpolar>
-29.1377

> <Gold.PLP.part.repulsive>
1.1002

> <Gold.PLP.ligand.clash>
0.0000

> <Gold.PLP.ligand.torsion>
0.5836

> <Gold.PLP.Chemscore.Hbond>
2.0000

> <Gold.PLP.Chemscore.CHOScore>
2.0000

> <Gold.PLP.Chemscore.Metal>
0.0000

> <Gold.Chemscore.Hbonds>
donor molecule, donor type, donor heavy atom, donor atom, acceptor molecule, acceptor atom, score
      L1  H     5    23       P1 10171  1.00
      P1  H  7989  7998       L1    11  1.00
      L1  C    15    36       P1 10186  1.00
      L1  C    17    38       P1 10747  1.00

> <Gold.PLP.Chemscore.Internal.Correction>
0.1356

> <Gold.Rescore>
     Score         DG    S(hbond)    S(metal)    S(lipo)     H(rot)  DE(clash)    DE(int)     intcor
     12.99     -16.06       1.93        0.00      75.20       1.83       0.40       2.66       ----

> <Gold.Chemscore.Fitness>
12.9911

> <Gold.Chemscore.DG>
-16.0559

> <Gold.Chemscore.ZeroCoef>
-5.4800

> <Gold.Chemscore.Hbond>
1.9341

> <Gold.Chemscore.Metal>
0.0000

> <Gold.Chemscore.Lipo>
75.1988

> <Gold.Chemscore.Internal_Hbond>
0.0000

> <Gold.Chemscore.DEClash>
0.4000

> <Gold.Chemscore.DEInternal>
2.6648

> <Gold.Chemscore.Rot>
1.8290

> <Gold.Chemscore.Internal.Correction>
   9.000000E+99

> <Gold.Chemscore.Hbonds>
donor molecule, donor type, donor heavy atom, donor atom, acceptor molecule, acceptor atom, score
      L1  H     5    23       P1 10171  1.00
      P1  H  7989  7998       L1    11  0.40

> <Gold.Chemscore.Hbond.Weighted>
-6.4598

> <Gold.Chemscore.Metal.Weighted>
-0.0000

> <Gold.Chemscore.Lipo.Weighted>
-8.7983

> <Gold.Chemscore.Internal_Hbond.Weighted>
0.0000

> <Gold.Chemscore.DEClash.Weighted>
0.4000

> <Gold.Chemscore.DEInternal.Weighted>
2.6648

> <Gold.Chemscore.Rot.Weighted>
4.6821

> <Gold.Chemscore.Internal.Correction.Weighted>
   9.000000E+99

> <Gold.Protein.RotatedTorsions>
[ 6907 6896 6895 6894 ] final  165.24 input  -60.11 | X-H torsion
[ 7974 7965 7964 7962 ] final  133.32 input  175.53 | X-H torsion
[ 8008 7997 7996 7995 ] final  -55.29 input   59.86 | X-H torsion
[ 10167 10162 10161 10158 ] final  135.37 input  -65.29 | X-H torsion
[ 10718 10713 10712 10709 ] final -135.92 input   66.30 | X-H torsion
[ 10763 10752 10751 10750 ] final   31.35 input  -60.55 | X-H torsion
[ 11005 11000 10999 10996 ] final  -92.43 input  -57.11 | X-H torsion

> <Gold.Protein.ActiveResidues>
 VAL166  LYS551  ARG553  GLY616  TRP617  ASP618  TYR619  PRO620  LYS621  CYS622 
 ASP623  PHE694  ASN695  SER759  ASP760  ASP761  ALA762  ILE779  LEU786  VAL792 
 PHE793  MET794  SER795  GLU796  ALA797  LYS798  CYS799  TRP800  GLU811  SER814 

> <Gold.Protein.RotatedAtoms>
  151.8975  133.3530  159.3819 H   0  0  0  0  0  0  0  0  0  0  0  0  # atno 6907 bound_to 6896
  150.7088  134.4861  159.5503 H   0  0  0  0  0  0  0  0  0  0  0  0  # atno 6908 bound_to 6896
  152.2443  134.8197  160.0506 H   0  0  0  0  0  0  0  0  0  0  0  0  # atno 6909 bound_to 6896
  144.9877  139.4438  143.5355 H   0  0  0  0  0  0  0  0  0  0  0  0  # atno 7974 bound_to 7965
  154.4190  140.1156  156.5453 H   0  0  0  0  0  0  0  0  0  0  0  0  # atno 8008 bound_to 7997
  155.6466  140.3496  155.4714 H   0  0  0  0  0  0  0  0  0  0  0  0  # atno 8009 bound_to 7997
  155.9827  140.1163  157.0701 H   0  0  0  0  0  0  0  0  0  0  0  0  # atno 8010 bound_to 7997
  139.5220  144.6520  151.5273 H   0  0  0  0  0  0  0  0  0  0  0  0  # atno 10167 bound_to 10162
  156.2714  130.7268  151.1236 H   0  0  0  0  0  0  0  0  0  0  0  0  # atno 10718 bound_to 10713
  153.0321  135.6441  154.1185 H   0  0  0  0  0  0  0  0  0  0  0  0  # atno 10763 bound_to 10752
  154.0906  135.2866  155.3274 H   0  0  0  0  0  0  0  0  0  0  0  0  # atno 10764 bound_to 10752
  154.6467  135.5440  153.7917 H   0  0  0  0  0  0  0  0  0  0  0  0  # atno 10765 bound_to 10752
  141.1522  133.7821  157.0019 H   0  0  0  0  0  0  0  0  0  0  0  0  # atno 11005 bound_to 11000
  146.3424  139.9189  142.8769 LP  0  0  0  0  0  0  0  0  0  0  0  0  # atno 17320 bound_to 7965
  145.2330  140.9980  143.3980 LP  0  0  0  0  0  0  0  0  0  0  0  0  # atno 17321 bound_to 7965
  140.6330  143.9040  150.6622 LP  0  0  0  0  0  0  0  0  0  0  0  0  # atno 17342 bound_to 10162
  140.2350  143.3707  152.1534 LP  0  0  0  0  0  0  0  0  0  0  0  0  # atno 17343 bound_to 10162
  157.7285  131.0631  150.5817 LP  0  0  0  0  0  0  0  0  0  0  0  0  # atno 17370 bound_to 10713
  156.5914  130.4330  149.5935 LP  0  0  0  0  0  0  0  0  0  0  0  0  # atno 17371 bound_to 10713
  140.0934  134.9579  157.1812 LP  0  0  0  0  0  0  0  0  0  0  0  0  # atno 17394 bound_to 11000
  140.3415  134.2699  155.7211 LP  0  0  0  0  0  0  0  0  0  0  0  0  # atno 17395 bound_to 11000

$$$$
