AV-unprocessed.smi:281|AV-procd|sdf|2109|dock3
  -GOLD-   2262021403D 1   1.00000     0.00000
 Structure written by MMmdl.
 55 59  0  0  0  0  0  0  0  0  1 V2000
  154.9334  140.9483  160.7097 C   0  0  0  0  0  0  0  0  0  0  0  0
  153.5337  141.4344  160.3201 C   0  0  2  0  0  0  0  0  0  0  0  0
  152.8786  140.5215  159.2693 C   0  0  0  0  0  0  0  0  0  0  0  0
  151.6012  141.0829  158.8465 N   0  0  0  0  0  0  0  0  0  0  0  0
  150.7858  140.2270  158.1799 C   0  0  0  0  0  0  0  0  0  0  0  0
  150.4447  139.0363  158.7422 N   0  0  0  0  0  0  0  0  0  0  0  0
  149.6347  138.1917  158.0976 C   0  0  0  0  0  0  0  0  0  0  0  0
  149.0645  138.3332  156.8999 N   0  0  0  0  0  0  0  0  0  0  0  0
  149.4125  139.5188  156.3233 C   0  0  0  0  0  0  0  0  0  0  0  0
  150.2571  140.5154  156.8897 C   0  0  0  0  0  0  0  0  0  0  0  0
  150.3840  141.5824  156.0080 N   0  0  0  0  0  0  0  0  0  0  0  0
  149.6480  141.2417  154.9861 C   0  0  0  0  0  0  0  0  0  0  0  0
  149.0396  140.0103  155.0839 N   0  0  0  0  0  0  0  0  0  0  0  0
  148.1784  139.3823  154.0929 C   0  0  0  0  0  0  0  0  0  0  0  0
  146.8490  140.1347  153.8185 C   0  0  1  0  0  0  0  0  0  0  0  0
  146.2005  139.4734  152.7496 O   0  0  0  0  0  0  0  0  0  0  0  0
  145.9075  140.2093  155.0200 C   0  0  0  0  0  0  0  0  0  0  0  0
  146.1398  141.6040  155.6143 C   0  0  0  0  0  0  0  0  0  0  0  0
  147.0556  142.2608  154.7465 O   0  0  0  0  0  0  0  0  0  0  0  0
  147.0249  141.6186  153.4821 C   0  0  0  0  0  0  0  0  0  0  0  0
  151.7191  142.4508  158.3495 C   0  0  0  0  0  0  0  0  0  0  0  0
  152.4172  143.3556  159.3964 C   0  0  2  0  0  0  0  0  0  0  0  0
  151.5313  143.6590  160.6015 C   0  0  0  0  0  0  0  0  0  0  0  0
  150.7019  144.8470  160.1290 C   0  0  0  0  0  0  0  0  0  0  0  0
  151.5475  145.5719  159.2449 O   0  0  0  0  0  0  0  0  0  0  0  0
  152.6924  144.7925  158.9071 C   0  0  2  0  0  0  0  0  0  0  0  0
  153.0502  144.9656  157.4241 C   0  0  0  0  0  0  0  0  0  0  0  0
  153.6539  142.7576  159.7968 O   0  0  0  0  0  0  0  0  0  0  0  0
  154.8966  139.9429  161.1297 H   0  0  0  0  0  0  0  0  0  0  0  0
  155.3790  141.6046  161.4575 H   0  0  0  0  0  0  0  0  0  0  0  0
  155.5986  140.9268  159.8460 H   0  0  0  0  0  0  0  0  0  0  0  0
  152.9183  141.4511  161.2204 H   0  0  0  0  0  0  0  0  0  0  0  0
  153.5266  140.4280  158.3966 H   0  0  0  0  0  0  0  0  0  0  0  0
  152.7596  139.5201  159.6811 H   0  0  0  0  0  0  0  0  0  0  0  0
  149.4119  137.2708  158.6159 H   0  0  0  0  0  0  0  0  0  0  0  0
  149.5360  141.8810  154.1227 H   0  0  0  0  0  0  0  0  0  0  0  0
  148.7468  139.2786  153.1676 H   0  0  0  0  0  0  0  0  0  0  0  0
  147.9665  138.3670  154.4312 H   0  0  0  0  0  0  0  0  0  0  0  0
  145.3619  139.8852  152.6076 H   0  0  0  0  0  0  0  0  0  0  0  0
  144.8661  140.1358  154.7018 H   0  0  0  0  0  0  0  0  0  0  0  0
  146.0748  139.4095  155.7414 H   0  0  0  0  0  0  0  0  0  0  0  0
  145.2063  142.1658  155.6602 H   0  0  0  0  0  0  0  0  0  0  0  0
  146.5555  141.5554  156.6213 H   0  0  0  0  0  0  0  0  0  0  0  0
  147.9168  141.8268  152.8916 H   0  0  0  0  0  0  0  0  0  0  0  0
  146.1637  141.9990  152.9295 H   0  0  0  0  0  0  0  0  0  0  0  0
  152.3014  142.4204  157.4278 H   0  0  0  0  0  0  0  0  0  0  0  0
  150.7362  142.8503  158.0967 H   0  0  0  0  0  0  0  0  0  0  0  0
  150.9165  142.8184  160.9247 H   0  0  0  0  0  0  0  0  0  0  0  0
  152.1482  143.9648  161.4478 H   0  0  0  0  0  0  0  0  0  0  0  0
  149.8252  144.5079  159.5764 H   0  0  0  0  0  0  0  0  0  0  0  0
  150.3597  145.4708  160.9549 H   0  0  0  0  0  0  0  0  0  0  0  0
  153.5109  145.1992  159.5036 H   0  0  0  0  0  0  0  0  0  0  0  0
  153.9134  144.3564  157.1550 H   0  0  0  0  0  0  0  0  0  0  0  0
  153.2977  146.0048  157.2070 H   0  0  0  0  0  0  0  0  0  0  0  0
  152.2204  144.6867  156.7745 H   0  0  0  0  0  0  0  0  0  0  0  0
  1  2  1  0  0  0  0
  1 29  1  0  0  0  0
  1 30  1  0  0  0  0
  1 31  1  0  0  0  0
  2 28  1  0  0  0  0
  2  3  1  0  0  0  0
  2 32  1  0  0  0  0
  3  4  1  0  0  0  0
  3 33  1  0  0  0  0
  3 34  1  0  0  0  0
  4  5  1  0  0  0  0
  4 21  1  0  0  0  0
  5 10  1  0  0  0  0
  5  6  2  0  0  0  0
  6  7  1  0  0  0  0
  7  8  2  0  0  0  0
  7 35  1  0  0  0  0
  8  9  1  0  0  0  0
  9 13  1  0  0  0  0
  9 10  2  0  0  0  0
 10 11  1  0  0  0  0
 11 12  2  0  0  0  0
 12 13  1  0  0  0  0
 12 36  1  0  0  0  0
 13 14  1  0  0  0  0
 14 15  1  0  0  0  0
 14 37  1  0  0  0  0
 14 38  1  0  0  0  0
 15 20  1  0  0  0  0
 15 16  1  0  0  0  0
 15 17  1  0  0  0  0
 16 39  1  0  0  0  0
 17 18  1  0  0  0  0
 17 40  1  0  0  0  0
 17 41  1  0  0  0  0
 18 19  1  0  0  0  0
 18 42  1  0  0  0  0
 18 43  1  0  0  0  0
 19 20  1  0  0  0  0
 20 44  1  0  0  0  0
 20 45  1  0  0  0  0
 21 22  1  0  0  0  0
 21 46  1  0  0  0  0
 21 47  1  0  0  0  0
 22 26  1  0  0  0  0
 22 23  1  0  0  0  0
 22 28  1  0  0  0  0
 23 24  1  0  0  0  0
 23 48  1  0  0  0  0
 23 49  1  0  0  0  0
 24 25  1  0  0  0  0
 24 50  1  0  0  0  0
 24 51  1  0  0  0  0
 25 26  1  0  0  0  0
 26 27  1  0  0  0  0
 26 52  1  0  0  0  0
 27 53  1  0  0  0  0
 27 54  1  0  0  0  0
 27 55  1  0  0  0  0
M  END
> <s_m_source_file>
AV-unprocessed.smi

> <i_m_source_file_index>
281

> <i_lp_mmshare_version>
43012

> <i_f3d_flags>
0

> <s_epik_input>
W0NIM11bQ0BASF0xT1tDSDJdW0NIMl1bQ0BAXTEyW0NIMl1OKFtDSDJdW0NASF0oTzIpW0NIM10pYyhuW2NIXW4zKWMoYzM0KW5bY0hdbjRbQ0gyXVtDQEBdNShbT0hdKVtDSDJdW0NIMl1PW0NIMl01

> <s_epik_cmdline>
J2VwaWtfcHl0aG9uJywgJy1waCcsICc3LjAnLCAnLXRuJywgJzgnLCAnLW1hJywgJzIwMCcsICctbWV0YWxfYmluZGluZycsICctaW1hZScsICc8aW5maWxlLm1hZT4nLCAnLW9tYWUnLCAnPG91dGZpbGUubWFlPic=

> <r_lp_tautomer_probability>
1

> <r_epik_Ionization_Penalty>
0.00571331

> <r_epik_Ionization_Penalty_Charging>
0

> <r_epik_Ionization_Penalty_Neutral>
0.00571331

> <r_epik_State_Penalty>
0.00399586

> <r_epik_Charging_Adjusted_Penalty>
0.00399586

> <i_epik_Tot_Q>
0

> <i_epik_Tot_abs_Q>
0

> <r_epik_Metal_State_Penalty>
-0

> <b_epik_Metal_Only>
0

> <s_lp_Force_Field>
OPLS_2005

> <r_lp_Energy>
56.9386

> <b_lp_Chiralities_Consistent>
1

> <s_lp_Variant>
AV-unprocessed.smi:281-9

> <Gold.Version>
5.8.1

> <Gold.Id.Protein>
6NUR|6NUR_protein|mol2

> <Gold.PLP.Fitness>
46.7938

> <Gold.PLP.PLP>
-43.9123

> <Gold.PLP.part.hbond>
-1.9164

> <Gold.PLP.part.metal>
0.0000

> <Gold.PLP.part.buried>
-9.1231

> <Gold.PLP.part.nonpolar>
-33.2369

> <Gold.PLP.part.repulsive>
0.3686

> <Gold.PLP.ligand.clash>
0.0000

> <Gold.PLP.ligand.torsion>
0.2162

> <Gold.PLP.Chemscore.Hbond>
1.0000

> <Gold.PLP.Chemscore.CHOScore>
0.0000

> <Gold.PLP.Chemscore.Metal>
0.0000

> <Gold.Chemscore.Hbonds>
donor molecule, donor type, donor heavy atom, donor atom, acceptor molecule, acceptor atom, score
      L1  H    16    39       P1 10175  1.00

> <Gold.PLP.Chemscore.Internal.Correction>
0.3139

> <Gold.Rescore>
     Score         DG    S(hbond)    S(metal)    S(lipo)     H(rot)  DE(clash)    DE(int)     intcor
     13.96     -18.25       0.99        0.00     126.78       2.09       0.65       3.65       ----

> <Gold.Chemscore.Fitness>
13.9556

> <Gold.Chemscore.DG>
-18.2525

> <Gold.Chemscore.ZeroCoef>
-5.4800

> <Gold.Chemscore.Hbond>
0.9872

> <Gold.Chemscore.Metal>
0.0000

> <Gold.Chemscore.Lipo>
126.7752

> <Gold.Chemscore.Internal_Hbond>
0.0000

> <Gold.Chemscore.DEClash>
0.6517

> <Gold.Chemscore.DEInternal>
3.6452

> <Gold.Chemscore.Rot>
2.0927

> <Gold.Chemscore.Internal.Correction>
   9.000000E+99

> <Gold.Chemscore.Hbonds>
donor molecule, donor type, donor heavy atom, donor atom, acceptor molecule, acceptor atom, score
      L1  H    16    39       P1 10175  0.99

> <Gold.Chemscore.Hbond.Weighted>
-3.2972

> <Gold.Chemscore.Metal.Weighted>
-0.0000

> <Gold.Chemscore.Lipo.Weighted>
-14.8327

> <Gold.Chemscore.Internal_Hbond.Weighted>
0.0000

> <Gold.Chemscore.DEClash.Weighted>
0.6517

> <Gold.Chemscore.DEInternal.Weighted>
3.6452

> <Gold.Chemscore.Rot.Weighted>
5.3573

> <Gold.Chemscore.Internal.Correction.Weighted>
   9.000000E+99

> <Gold.Protein.RotatedTorsions>
[ 6907 6896 6895 6894 ] final  119.05 input  -60.11 | X-H torsion
[ 7974 7965 7964 7962 ] final   49.95 input  175.53 | X-H torsion
[ 8008 7997 7996 7995 ] final   38.61 input   59.86 | X-H torsion
[ 10167 10162 10161 10158 ] final -129.84 input  -65.29 | X-H torsion
[ 10718 10713 10712 10709 ] final   10.41 input   66.30 | X-H torsion
[ 10763 10752 10751 10750 ] final  130.75 input  -60.55 | X-H torsion
[ 11005 11000 10999 10996 ] final -112.28 input  -57.11 | X-H torsion

> <Gold.Protein.ActiveResidues>
 VAL166  LYS551  ARG553  GLY616  TRP617  ASP618  TYR619  PRO620  LYS621  CYS622 
 ASP623  PHE694  ASN695  SER759  ASP760  ASP761  ALA762  ILE779  LEU786  VAL792 
 PHE793  MET794  SER795  GLU796  ALA797  LYS798  CYS799  TRP800  GLU811  SER814 

> <Gold.Protein.RotatedAtoms>
  152.4500  133.7610  159.6746 H   0  0  0  0  0  0  0  0  0  0  0  0  # atno 6907 bound_to 6896
  150.8409  133.7928  159.3067 H   0  0  0  0  0  0  0  0  0  0  0  0  # atno 6908 bound_to 6896
  151.5553  135.1069  160.0011 H   0  0  0  0  0  0  0  0  0  0  0  0  # atno 6909 bound_to 6896
  146.0059  139.4490  142.9986 H   0  0  0  0  0  0  0  0  0  0  0  0  # atno 7974 bound_to 7965
  155.2230  140.3332  155.4313 H   0  0  0  0  0  0  0  0  0  0  0  0  # atno 8008 bound_to 7997
  156.2326  140.1857  156.7251 H   0  0  0  0  0  0  0  0  0  0  0  0  # atno 8009 bound_to 7997
  154.6003  140.0624  156.9345 H   0  0  0  0  0  0  0  0  0  0  0  0  # atno 8010 bound_to 7997
  139.9355  143.6222  152.2518 H   0  0  0  0  0  0  0  0  0  0  0  0  # atno 10167 bound_to 10162
  156.9805  130.6004  149.5676 H   0  0  0  0  0  0  0  0  0  0  0  0  # atno 10718 bound_to 10713
  153.7632  135.3193  155.3340 H   0  0  0  0  0  0  0  0  0  0  0  0  # atno 10763 bound_to 10752
  154.8223  135.4595  154.0817 H   0  0  0  0  0  0  0  0  0  0  0  0  # atno 10764 bound_to 10752
  153.2054  135.6928  153.8262 H   0  0  0  0  0  0  0  0  0  0  0  0  # atno 10765 bound_to 10752
  141.0685  133.9419  157.2532 H   0  0  0  0  0  0  0  0  0  0  0  0  # atno 11005 bound_to 11000
  145.7416  141.0006  143.1298 LP  0  0  0  0  0  0  0  0  0  0  0  0  # atno 17320 bound_to 7965
  144.6935  139.9106  143.7463 LP  0  0  0  0  0  0  0  0  0  0  0  0  # atno 17321 bound_to 7965
  139.6747  144.7659  151.1718 LP  0  0  0  0  0  0  0  0  0  0  0  0  # atno 17342 bound_to 10162
  140.7625  143.5813  150.8892 LP  0  0  0  0  0  0  0  0  0  0  0  0  # atno 17343 bound_to 10162
  156.0246  130.5340  150.8371 LP  0  0  0  0  0  0  0  0  0  0  0  0  # atno 17370 bound_to 10713
  157.5529  131.0944  150.9670 LP  0  0  0  0  0  0  0  0  0  0  0  0  # atno 17371 bound_to 10713
  139.9499  135.0177  156.8964 LP  0  0  0  0  0  0  0  0  0  0  0  0  # atno 17394 bound_to 11000
  140.5724  134.0431  155.7435 LP  0  0  0  0  0  0  0  0  0  0  0  0  # atno 17395 bound_to 11000

$$$$
