AV-unprocessed.smi:1345|AV-procd|sdf|5510|dock2
  -GOLD-   22720 5 93D 1   1.00000     0.00000
 Structure written by MMmdl.
 40 41  0  0  0  0  0  0  0  0  1 V2000
  150.7139  145.2626  160.0215 C   0  0  0  0  0  0  0  0  0  0  0  0
  151.2771  143.8463  159.8043 C   0  0  0  0  0  0  0  0  0  0  0  0
  152.4215  143.5921  160.8049 C   0  0  0  0  0  0  0  0  0  0  0  0
  151.7155  143.6008  158.3355 C   0  0  2  0  0  0  0  0  0  0  0  0
  152.3397  144.8426  157.6703 C   0  0  0  0  0  0  0  0  0  0  0  0
  150.5722  143.1625  157.5351 N   0  0  0  0  0  0  0  0  0  0  0  0
  149.8577  142.0431  157.7342 C   0  0  0  0  0  0  0  0  0  0  0  0
  150.0995  141.2414  158.6381 O   0  0  0  0  0  0  0  0  0  0  0  0
  148.6972  141.8130  156.7573 C   0  0  0  0  0  0  0  0  0  0  0  0
  147.3592  141.8551  157.4426 C   0  0  0  0  0  0  0  0  0  0  0  0
  146.1848  141.2966  156.9988 C   0  0  0  0  0  0  0  0  0  0  0  0
  144.8658  141.5861  158.1001 S   0  0  0  0  0  0  0  0  0  0  0  0
  145.9729  142.4820  159.1381 C   0  0  0  0  0  0  0  0  0  0  0  0
  145.5755  143.0968  160.3629 N   0  0  0  0  0  0  0  0  0  0  0  0
  144.2067  142.9876  160.8531 C   0  0  0  0  0  0  0  0  0  0  0  0
  144.2195  143.7822  162.1556 C   0  0  0  0  0  0  0  0  0  0  0  0
  145.5921  144.2246  162.2290 N   0  0  0  0  0  0  0  0  0  0  0  0
  146.3435  143.8251  161.2004 C   0  0  0  0  0  0  0  0  0  0  0  0
  147.5364  144.0970  161.0727 O   0  0  0  0  0  0  0  0  0  0  0  0
  147.2218  142.5314  158.6592 N   0  0  0  0  0  0  0  0  0  0  0  0
  151.4361  146.0256  159.7297 H   0  0  0  0  0  0  0  0  0  0  0  0
  150.4625  145.4285  161.0696 H   0  0  0  0  0  0  0  0  0  0  0  0
  149.8006  145.4278  159.4508 H   0  0  0  0  0  0  0  0  0  0  0  0
  150.4796  143.1405  160.0414 H   0  0  0  0  0  0  0  0  0  0  0  0
  153.2741  144.2410  160.6016 H   0  0  0  0  0  0  0  0  0  0  0  0
  152.7719  142.5604  160.7714 H   0  0  0  0  0  0  0  0  0  0  0  0
  152.0982  143.7828  161.8288 H   0  0  0  0  0  0  0  0  0  0  0  0
  152.4638  142.8059  158.3412 H   0  0  0  0  0  0  0  0  0  0  0  0
  153.2717  145.1342  158.1532 H   0  0  0  0  0  0  0  0  0  0  0  0
  151.6609  145.6955  157.7058 H   0  0  0  0  0  0  0  0  0  0  0  0
  152.5769  144.6521  156.6233 H   0  0  0  0  0  0  0  0  0  0  0  0
  150.2999  143.7642  156.7714 H   0  0  0  0  0  0  0  0  0  0  0  0
  148.7534  142.5695  155.9734 H   0  0  0  0  0  0  0  0  0  0  0  0
  148.8320  140.8491  156.2649 H   0  0  0  0  0  0  0  0  0  0  0  0
  146.0180  140.7291  156.0953 H   0  0  0  0  0  0  0  0  0  0  0  0
  143.5036  143.4122  160.1351 H   0  0  0  0  0  0  0  0  0  0  0  0
  143.9423  141.9434  161.0268 H   0  0  0  0  0  0  0  0  0  0  0  0
  143.5427  144.6367  162.1213 H   0  0  0  0  0  0  0  0  0  0  0  0
  143.9682  143.1628  163.0174 H   0  0  0  0  0  0  0  0  0  0  0  0
  145.9403  144.7839  162.9942 H   0  0  0  0  0  0  0  0  0  0  0  0
  1  2  1  0  0  0  0
  1 21  1  0  0  0  0
  1 22  1  0  0  0  0
  1 23  1  0  0  0  0
  2  3  1  0  0  0  0
  2  4  1  0  0  0  0
  2 24  1  0  0  0  0
  3 25  1  0  0  0  0
  3 26  1  0  0  0  0
  3 27  1  0  0  0  0
  4  5  1  0  0  0  0
  4  6  1  0  0  0  0
  4 28  1  0  0  0  0
  5 29  1  0  0  0  0
  5 30  1  0  0  0  0
  5 31  1  0  0  0  0
  6  7  1  0  0  0  0
  6 32  1  0  0  0  0
  7  8  2  0  0  0  0
  7  9  1  0  0  0  0
  9 10  1  0  0  0  0
  9 33  1  0  0  0  0
  9 34  1  0  0  0  0
 10 20  1  0  0  0  0
 10 11  2  0  0  0  0
 11 12  1  0  0  0  0
 11 35  1  0  0  0  0
 12 13  1  0  0  0  0
 13 14  1  0  0  0  0
 13 20  2  0  0  0  0
 14 18  1  0  0  0  0
 14 15  1  0  0  0  0
 15 16  1  0  0  0  0
 15 36  1  0  0  0  0
 15 37  1  0  0  0  0
 16 17  1  0  0  0  0
 16 38  1  0  0  0  0
 16 39  1  0  0  0  0
 17 18  1  0  0  0  0
 17 40  1  0  0  0  0
 18 19  2  0  0  0  0
M  END
> <s_m_source_file>
AV-unprocessed.smi

> <i_m_source_file_index>
1345

> <i_lp_mmshare_version>
43012

> <i_f3d_flags>
0

> <s_epik_input>
W0NIM11bQ0hdKFtDSDNdKVtDQEhdKFtDSDNdKVtOSF1DKD1PKVtDSDJdYzFbY0hdc2MobjEpTjJbQ0gyXVtDSDJdW05IXUMyPU8=

> <s_epik_cmdline>
J2VwaWtfcHl0aG9uJywgJy1waCcsICc3LjAnLCAnLXRuJywgJzgnLCAnLW1hJywgJzIwMCcsICctbWV0YWxfYmluZGluZycsICctaW1hZScsICc8aW5maWxlLm1hZT4nLCAnLW9tYWUnLCAnPG91dGZpbGUubWFlPic=

> <r_lp_tautomer_probability>
1

> <r_epik_Ionization_Penalty>
0.000122034

> <r_epik_Ionization_Penalty_Charging>
0

> <r_epik_Ionization_Penalty_Neutral>
0.000122034

> <r_epik_State_Penalty>
-0

> <r_epik_Charging_Adjusted_Penalty>
0

> <i_epik_Tot_Q>
0

> <i_epik_Tot_abs_Q>
0

> <r_epik_Metal_State_Penalty>
-0

> <b_epik_Metal_Only>
0

> <s_lp_Force_Field>
OPLS_2005

> <r_lp_Energy>
36.09

> <b_lp_Chiralities_Consistent>
1

> <s_lp_Variant>
AV-unprocessed.smi:1345-1

> <Gold.Version>
5.8.1

> <Gold.Id.Protein>
6NUR|6NUR_protein|mol2

> <Gold.PLP.Fitness>
38.2555

> <Gold.PLP.PLP>
-34.1271

> <Gold.PLP.part.hbond>
-2.6056

> <Gold.PLP.part.metal>
0.0000

> <Gold.PLP.part.buried>
-7.2187

> <Gold.PLP.part.nonpolar>
-25.7967

> <Gold.PLP.part.repulsive>
0.7560

> <Gold.PLP.ligand.clash>
0.0000

> <Gold.PLP.ligand.torsion>
0.9829

> <Gold.PLP.Chemscore.Hbond>
2.0000

> <Gold.PLP.Chemscore.CHOScore>
0.0000

> <Gold.PLP.Chemscore.Metal>
0.0000

> <Gold.Chemscore.Hbonds>
donor molecule, donor type, donor heavy atom, donor atom, acceptor molecule, acceptor atom, score
      L1  H     6    32       P1  8028  1.00
      P1  H  6933  6944       L1    19  1.00

> <Gold.PLP.Chemscore.Internal.Correction>
0.0943

> <Gold.Rescore>
     Score         DG    S(hbond)    S(metal)    S(lipo)     H(rot)  DE(clash)    DE(int)     intcor
     13.63     -16.28       1.92        0.00      75.60       1.74       0.20       2.45       ----

> <Gold.Chemscore.Fitness>
13.6293

> <Gold.Chemscore.DG>
-16.2805

> <Gold.Chemscore.ZeroCoef>
-5.4800

> <Gold.Chemscore.Hbond>
1.9155

> <Gold.Chemscore.Metal>
0.0000

> <Gold.Chemscore.Lipo>
75.5994

> <Gold.Chemscore.Internal_Hbond>
0.0000

> <Gold.Chemscore.DEClash>
0.1975

> <Gold.Chemscore.DEInternal>
2.4537

> <Gold.Chemscore.Rot>
1.7353

> <Gold.Chemscore.Internal.Correction>
   9.000000E+99

> <Gold.Chemscore.Hbonds>
donor molecule, donor type, donor heavy atom, donor atom, acceptor molecule, acceptor atom, score
      L1  H     6    32       P1  8028  0.90
      P1  H  6933  6944       L1    19  0.47

> <Gold.Chemscore.Hbond.Weighted>
-6.3977

> <Gold.Chemscore.Metal.Weighted>
-0.0000

> <Gold.Chemscore.Lipo.Weighted>
-8.8451

> <Gold.Chemscore.Internal_Hbond.Weighted>
0.0000

> <Gold.Chemscore.DEClash.Weighted>
0.1975

> <Gold.Chemscore.DEInternal.Weighted>
2.4537

> <Gold.Chemscore.Rot.Weighted>
4.4423

> <Gold.Chemscore.Internal.Correction.Weighted>
   9.000000E+99

> <Gold.Protein.RotatedTorsions>
[ 6907 6896 6895 6894 ] final -128.30 input  -60.11 | X-H torsion
[ 7974 7965 7964 7962 ] final   93.28 input  175.53 | X-H torsion
[ 8008 7997 7996 7995 ] final  -63.39 input   59.86 | X-H torsion
[ 10167 10162 10161 10158 ] final -155.81 input  -65.29 | X-H torsion
[ 10718 10713 10712 10709 ] final   43.65 input   66.30 | X-H torsion
[ 10763 10752 10751 10750 ] final  -46.18 input  -60.55 | X-H torsion
[ 11005 11000 10999 10996 ] final  100.14 input  -57.11 | X-H torsion

> <Gold.Protein.ActiveResidues>
 VAL166  LYS551  ARG553  GLY616  TRP617  ASP618  TYR619  PRO620  LYS621  CYS622 
 ASP623  PHE694  ASN695  SER759  ASP760  ASP761  ALA762  ILE779  LEU786  VAL792 
 PHE793  MET794  SER795  GLU796  ALA797  LYS798  CYS799  TRP800  GLU811  SER814 

> <Gold.Protein.RotatedAtoms>
  150.9164  133.6934  159.2842 H   0  0  0  0  0  0  0  0  0  0  0  0  # atno 6907 bound_to 6896
  151.4403  135.1018  159.9678 H   0  0  0  0  0  0  0  0  0  0  0  0  # atno 6908 bound_to 6896
  152.4957  133.8574  159.7288 H   0  0  0  0  0  0  0  0  0  0  0  0  # atno 6909 bound_to 6896
  145.4810  139.2278  143.2882 H   0  0  0  0  0  0  0  0  0  0  0  0  # atno 7974 bound_to 7965
  154.4552  140.0976  156.6735 H   0  0  0  0  0  0  0  0  0  0  0  0  # atno 8008 bound_to 7997
  155.5162  140.3477  155.4379 H   0  0  0  0  0  0  0  0  0  0  0  0  # atno 8009 bound_to 7997
  156.0762  140.1361  156.9757 H   0  0  0  0  0  0  0  0  0  0  0  0  # atno 8010 bound_to 7997
  139.6901  143.9435  152.2381 H   0  0  0  0  0  0  0  0  0  0  0  0  # atno 10167 bound_to 10162
  157.4182  130.7954  149.7491 H   0  0  0  0  0  0  0  0  0  0  0  0  # atno 10718 bound_to 10713
  154.0408  135.6644  153.4790 H   0  0  0  0  0  0  0  0  0  0  0  0  # atno 10763 bound_to 10752
  153.0502  135.5089  154.7844 H   0  0  0  0  0  0  0  0  0  0  0  0  # atno 10764 bound_to 10752
  154.6819  135.3046  154.9567 H   0  0  0  0  0  0  0  0  0  0  0  0  # atno 10765 bound_to 10752
  139.8771  134.9127  156.4711 H   0  0  0  0  0  0  0  0  0  0  0  0  # atno 11005 bound_to 11000
  146.2341  140.5597  142.8962 LP  0  0  0  0  0  0  0  0  0  0  0  0  # atno 17320 bound_to 7965
  144.7889  140.5992  143.6555 LP  0  0  0  0  0  0  0  0  0  0  0  0  # atno 17321 bound_to 7965
  139.9248  144.6777  150.8423 LP  0  0  0  0  0  0  0  0  0  0  0  0  # atno 17342 bound_to 10162
  140.7680  143.3349  151.2330 LP  0  0  0  0  0  0  0  0  0  0  0  0  # atno 17343 bound_to 10162
  155.9872  130.3969  150.3176 LP  0  0  0  0  0  0  0  0  0  0  0  0  # atno 17370 bound_to 10713
  157.1322  131.0274  151.2964 LP  0  0  0  0  0  0  0  0  0  0  0  0  # atno 17371 bound_to 10713
  140.8795  133.7928  155.9451 LP  0  0  0  0  0  0  0  0  0  0  0  0  # atno 17394 bound_to 11000
  140.8869  134.2543  157.5115 LP  0  0  0  0  0  0  0  0  0  0  0  0  # atno 17395 bound_to 11000

$$$$
