AV-unprocessed.smi:1726|AV-procd|sdf|6961|dock8
  -GOLD-   22720 8173D 1   1.00000     0.00000
 Structure written by MMmdl.
 42 43  0  0  0  0  0  0  0  0  3 V2000
  145.0494  135.3389  151.5614 C   0  0  0  0  0  0  0  0  0  0  0  0
  145.7007  135.6137  152.9247 C   0  0  0  0  0  0  0  0  0  0  0  0
  146.5818  136.8090  152.9071 N   0  3  1  0  0  0  0  0  0  0  0  0
  145.9040  137.9940  152.3194 C   0  0  0  0  0  0  0  0  0  0  0  0
  146.8719  139.1811  152.1850 C   0  0  0  0  0  0  0  0  0  0  0  0
  147.5062  139.5315  153.5371 C   0  0  0  0  0  0  0  0  0  0  0  0
  148.1798  138.2882  154.1375 C   0  0  1  0  0  0  0  0  0  0  0  0
  148.7329  138.6068  155.4500 N   0  0  0  0  0  0  0  0  0  0  0  0
  149.8030  139.3851  155.6670 C   0  0  0  0  0  0  0  0  0  0  0  0
  150.4416  139.9172  154.7588 O   0  0  0  0  0  0  0  0  0  0  0  0
  150.0766  139.4697  156.9810 N   0  0  0  0  0  0  0  0  0  0  0  0
  151.0912  140.1919  157.6312 C   0  0  0  0  0  0  0  0  0  0  0  0
  151.0066  141.5062  157.9778 C   0  0  0  0  0  0  0  0  0  0  0  0
  152.0855  142.2015  158.6680 C   0  0  0  0  0  0  0  0  0  0  0  0
  152.0654  143.6871  158.9813 C   0  0  0  0  0  0  0  0  0  0  0  0
  152.9845  144.3172  158.2510 F   0  0  0  0  0  0  0  0  0  0  0  0
  150.8756  144.2207  158.7026 F   0  0  0  0  0  0  0  0  0  0  0  0
  152.3343  143.9071  160.2683 F   0  0  0  0  0  0  0  0  0  0  0  0
  153.1704  141.3802  158.9067 C   0  0  0  0  0  0  0  0  0  0  0  0
  153.3225  140.0679  158.6229 N   0  5  0  0  0  0  0  0  0  0  0  0
  152.3064  139.4271  157.9793 C   0  0  0  0  0  0  0  0  0  0  0  0
  152.3805  138.2335  157.6848 O   0  0  0  0  0  0  0  0  0  0  0  0
  147.1727  137.1227  154.2354 C   0  0  0  0  0  0  0  0  0  0  0  0
  144.3352  134.5188  151.6382 H   0  0  0  0  0  0  0  0  0  0  0  0
  145.7809  135.0570  150.8047 H   0  0  0  0  0  0  0  0  0  0  0  0
  144.5085  136.2136  151.1990 H   0  0  0  0  0  0  0  0  0  0  0  0
  144.8989  135.7711  153.6473 H   0  0  0  0  0  0  0  0  0  0  0  0
  146.2585  134.7415  153.2685 H   0  0  0  0  0  0  0  0  0  0  0  0
  145.5100  137.7433  151.3338 H   0  0  0  0  0  0  0  0  0  0  0  0
  145.0512  138.2720  152.9410 H   0  0  0  0  0  0  0  0  0  0  0  0
  147.6543  138.9360  151.4655 H   0  0  0  0  0  0  0  0  0  0  0  0
  146.3453  140.0482  151.7854 H   0  0  0  0  0  0  0  0  0  0  0  0
  148.2335  140.3344  153.4109 H   0  0  0  0  0  0  0  0  0  0  0  0
  146.7387  139.9074  154.2156 H   0  0  0  0  0  0  0  0  0  0  0  0
  148.9976  137.9932  153.4764 H   0  0  0  0  0  0  0  0  0  0  0  0
  148.2694  138.2057  156.2525 H   0  0  0  0  0  0  0  0  0  0  0  0
  149.5067  138.9102  157.5987 H   0  0  0  0  0  0  0  0  0  0  0  0
  150.1159  142.0760  157.7695 H   0  0  0  0  0  0  0  0  0  0  0  0
  154.0502  141.8490  159.3967 H   0  0  0  0  0  0  0  0  0  0  0  0
  146.3755  137.3683  154.9392 H   0  0  0  0  0  0  0  0  0  0  0  0
  147.6806  136.2439  154.6309 H   0  0  0  0  0  0  0  0  0  0  0  0
  147.3502  136.5884  152.2895 H   0  0  0  0  0  0  0  0  0  0  0  0
  1  2  1  0  0  0  0
  1 24  1  0  0  0  0
  1 25  1  0  0  0  0
  1 26  1  0  0  0  0
  2  3  1  0  0  0  0
  2 27  1  0  0  0  0
  2 28  1  0  0  0  0
  3 23  1  0  0  0  0
  3  4  1  0  0  0  0
  3 42  1  0  0  0  0
  4  5  1  0  0  0  0
  4 29  1  0  0  0  0
  4 30  1  0  0  0  0
  5  6  1  0  0  0  0
  5 31  1  0  0  0  0
  5 32  1  0  0  0  0
  6  7  1  0  0  0  0
  6 33  1  0  0  0  0
  6 34  1  0  0  0  0
  7  8  1  0  0  0  0
  7 23  1  0  0  0  0
  7 35  1  0  0  0  0
  8  9  1  0  0  0  0
  8 36  1  0  0  0  0
  9 10  2  0  0  0  0
  9 11  1  0  0  0  0
 11 12  1  0  0  0  0
 11 37  1  0  0  0  0
 12 21  1  0  0  0  0
 12 13  2  0  0  0  0
 13 14  1  0  0  0  0
 13 38  1  0  0  0  0
 14 15  1  0  0  0  0
 14 19  2  0  0  0  0
 15 16  1  0  0  0  0
 15 17  1  0  0  0  0
 15 18  1  0  0  0  0
 19 20  1  0  0  0  0
 19 39  1  0  0  0  0
 20 21  1  0  0  0  0
 21 22  2  0  0  0  0
 23 40  1  0  0  0  0
 23 41  1  0  0  0  0
M  CHG  1   3   1
M  CHG  1  20  -1
M  END
> <s_m_source_file>
AV-unprocessed.smi

> <i_m_source_file_index>
1726

> <i_lp_mmshare_version>
43012

> <i_f3d_flags>
0

> <s_epik_input>
W0NIM11bQ0gyXU4xW0NIMl1bQ0gyXVtDSDJdW0NASF0oW0NIMl0xKVtOSF1DKD1PKVtOSF1jMltjSF1jKEMoRikoRilGKVtjSF1bbkhdYzI9Tw==

> <s_epik_cmdline>
J2VwaWtfcHl0aG9uJywgJy1waCcsICc3LjAnLCAnLXRuJywgJzgnLCAnLW1hJywgJzIwMCcsICctbWV0YWxfYmluZGluZycsICctaW1hZScsICc8aW5maWxlLm1hZT4nLCAnLW9tYWUnLCAnPG91dGZpbGUubWFlPic=

> <r_lp_tautomer_probability>
1

> <r_epik_Ionization_Penalty>
3.01007

> <r_epik_Ionization_Penalty_Charging>
0.14897

> <r_epik_Ionization_Penalty_Neutral>
2.8611

> <r_epik_State_Penalty>
2.85632

> <r_epik_Charging_Adjusted_Penalty>
3.00529

> <i_epik_Tot_Q>
0

> <i_epik_Tot_abs_Q>
2

> <r_epik_Metal_State_Penalty>
0.443826

> <b_epik_Metal_Only>
1

> <s_lp_Force_Field>
OPLS_2005

> <r_lp_Energy>
27.5117

> <b_lp_Chiralities_Consistent>
1

> <s_lp_Variant>
AV-unprocessed.smi:1726-5

> <Gold.Version>
5.8.1

> <Gold.Id.Protein>
6NUR|6NUR_protein|mol2

> <Gold.PLP.Fitness>
49.4929

> <Gold.PLP.PLP>
-36.5846

> <Gold.PLP.part.hbond>
-3.0000

> <Gold.PLP.part.metal>
0.0000

> <Gold.PLP.part.buried>
-1.0398

> <Gold.PLP.part.nonpolar>
-32.8247

> <Gold.PLP.part.repulsive>
0.1027

> <Gold.PLP.ligand.clash>
0.0000

> <Gold.PLP.ligand.torsion>
1.0103

> <Gold.PLP.Chemscore.Hbond>
4.9520

> <Gold.PLP.Chemscore.CHOScore>
0.0000

> <Gold.PLP.Chemscore.Metal>
0.0000

> <Gold.Chemscore.Hbonds>
donor molecule, donor type, donor heavy atom, donor atom, acceptor molecule, acceptor atom, score
      L1  H     3    42       P1  7948  2.00
      P1  H  7989  7998       L1    10  1.00
      P1  H  7997  8010       L1    20  1.98

> <Gold.PLP.Chemscore.Internal.Correction>
0.0728

> <Gold.Rescore>
     Score         DG    S(hbond)    S(metal)    S(lipo)     H(rot)  DE(clash)    DE(int)     intcor
     17.01     -18.14       2.13        0.00      75.52       1.28       0.12       1.01       ----

> <Gold.Chemscore.Fitness>
17.0080

> <Gold.Chemscore.DG>
-18.1378

> <Gold.Chemscore.ZeroCoef>
-5.4800

> <Gold.Chemscore.Hbond>
2.1251

> <Gold.Chemscore.Metal>
0.0000

> <Gold.Chemscore.Lipo>
75.5182

> <Gold.Chemscore.Internal_Hbond>
0.0000

> <Gold.Chemscore.DEClash>
0.1181

> <Gold.Chemscore.DEInternal>
1.0116

> <Gold.Chemscore.Rot>
1.2796

> <Gold.Chemscore.Internal.Correction>
   9.000000E+99

> <Gold.Chemscore.Hbonds>
donor molecule, donor type, donor heavy atom, donor atom, acceptor molecule, acceptor atom, score
      L1  H     3    42       P1  7948  0.99
      P1  H  7989  7998       L1    10  0.98
      P1  H  7997  8010       L1    20  0.10

> <Gold.Chemscore.Hbond.Weighted>
-7.0980

> <Gold.Chemscore.Metal.Weighted>
-0.0000

> <Gold.Chemscore.Lipo.Weighted>
-8.8356

> <Gold.Chemscore.Internal_Hbond.Weighted>
0.0000

> <Gold.Chemscore.DEClash.Weighted>
0.1181

> <Gold.Chemscore.DEInternal.Weighted>
1.0116

> <Gold.Chemscore.Rot.Weighted>
3.2759

> <Gold.Chemscore.Internal.Correction.Weighted>
   9.000000E+99

> <Gold.Protein.RotatedTorsions>
[ 6907 6896 6895 6894 ] final  -52.91 input  -60.11 | X-H torsion
[ 7974 7965 7964 7962 ] final  -91.03 input  175.53 | X-H torsion
[ 8008 7997 7996 7995 ] final   23.02 input   59.86 | X-H torsion
[ 10167 10162 10161 10158 ] final  -69.42 input  -65.29 | X-H torsion
[ 10718 10713 10712 10709 ] final -145.52 input   66.30 | X-H torsion
[ 10763 10752 10751 10750 ] final   23.10 input  -60.55 | X-H torsion
[ 11005 11000 10999 10996 ] final -112.67 input  -57.11 | X-H torsion

> <Gold.Protein.ActiveResidues>
 VAL166  LYS551  ARG553  GLY616  TRP617  ASP618  TYR619  PRO620  LYS621  CYS622 
 ASP623  PHE694  ASN695  SER759  ASP760  ASP761  ALA762  ILE779  LEU786  VAL792 
 PHE793  MET794  SER795  GLU796  ALA797  LYS798  CYS799  TRP800  GLU811  SER814 

> <Gold.Protein.RotatedAtoms>
  150.8474  134.7788  159.6981 H   0  0  0  0  0  0  0  0  0  0  0  0  # atno 6907 bound_to 6896
  152.4548  134.5313  159.9821 H   0  0  0  0  0  0  0  0  0  0  0  0  # atno 6908 bound_to 6896
  151.5440  133.3390  159.2976 H   0  0  0  0  0  0  0  0  0  0  0  0  # atno 6909 bound_to 6896
  145.4185  140.9549  143.2194 H   0  0  0  0  0  0  0  0  0  0  0  0  # atno 7974 bound_to 7965
  154.9746  140.3094  155.4973 H   0  0  0  0  0  0  0  0  0  0  0  0  # atno 8008 bound_to 7997
  156.2961  140.2278  156.4780 H   0  0  0  0  0  0  0  0  0  0  0  0  # atno 8009 bound_to 7997
  154.7845  140.0444  157.1142 H   0  0  0  0  0  0  0  0  0  0  0  0  # atno 8010 bound_to 7997
  140.5432  143.2314  151.7051 H   0  0  0  0  0  0  0  0  0  0  0  0  # atno 10167 bound_to 10162
  156.3835  130.7849  151.2044 H   0  0  0  0  0  0  0  0  0  0  0  0  # atno 10718 bound_to 10713
  153.0864  135.6634  153.9941 H   0  0  0  0  0  0  0  0  0  0  0  0  # atno 10763 bound_to 10752
  153.9549  135.2980  155.3438 H   0  0  0  0  0  0  0  0  0  0  0  0  # atno 10764 bound_to 10752
  154.7273  135.5138  153.8979 H   0  0  0  0  0  0  0  0  0  0  0  0  # atno 10765 bound_to 10752
  141.0661  133.9457  157.2576 H   0  0  0  0  0  0  0  0  0  0  0  0  # atno 11005 bound_to 11000
  144.8261  139.5708  143.6965 LP  0  0  0  0  0  0  0  0  0  0  0  0  # atno 17320 bound_to 7965
  146.2668  139.6540  142.9323 LP  0  0  0  0  0  0  0  0  0  0  0  0  # atno 17321 bound_to 7965
  139.4997  144.3936  152.0254 LP  0  0  0  0  0  0  0  0  0  0  0  0  # atno 17342 bound_to 10162
  140.3047  144.3607  150.6050 LP  0  0  0  0  0  0  0  0  0  0  0  0  # atno 17343 bound_to 10162
  157.7494  131.0337  150.4283 LP  0  0  0  0  0  0  0  0  0  0  0  0  # atno 17370 bound_to 10713
  156.4531  130.4016  149.6623 LP  0  0  0  0  0  0  0  0  0  0  0  0  # atno 17371 bound_to 10713
  139.9478  135.0181  156.8903 LP  0  0  0  0  0  0  0  0  0  0  0  0  # atno 17394 bound_to 11000
  140.5771  134.0388  155.7450 LP  0  0  0  0  0  0  0  0  0  0  0  0  # atno 17395 bound_to 11000

$$$$
