AV-unprocessed.smi:937|AV-procd|sdf|4214|dock4
  -GOLD-   22720 2123D 1   1.00000     0.00000
 Structure written by MMmdl.
 46 47  0  0  0  0  0  0  0  0  2 V2000
  151.2186  143.5253  158.1834 C   0  0  0  0  0  0  0  0  0  0  0  0
  150.9709  142.3376  157.2776 C   0  0  0  0  0  0  0  0  0  0  0  0
  151.6987  141.1343  157.4002 C   0  0  0  0  0  0  0  0  0  0  0  0
  151.4137  140.0645  156.5262 C   0  0  0  0  0  0  0  0  0  0  0  0
  150.4064  140.2192  155.5490 C   0  0  0  0  0  0  0  0  0  0  0  0
  150.0735  139.0910  154.5931 C   0  0  0  0  0  0  0  0  0  0  0  0
  150.7427  137.7686  155.0007 C   0  0  0  0  0  0  0  0  0  0  0  0
  150.0959  136.6280  154.3643 N   0  0  0  0  0  0  0  0  0  0  0  0
  149.9698  135.4102  154.9188 C   0  0  0  0  0  0  0  0  0  0  0  0
  150.3809  135.1356  156.0449 O   0  0  0  0  0  0  0  0  0  0  0  0
  149.3584  134.4958  154.1444 N   0  0  0  0  0  0  0  0  0  0  0  0
  149.0676  133.0932  154.4474 C   0  0  1  0  0  0  0  0  0  0  0  0
  148.3685  132.4100  153.2541 C   0  0  0  0  0  0  0  0  0  0  0  0
  148.1369  130.9160  153.5234 C   0  0  0  0  0  0  0  0  0  0  0  0
  149.4512  130.2015  153.8737 C   0  0  0  0  0  0  0  0  0  0  0  0
  150.1558  130.8646  155.0760 C   0  0  1  0  0  0  0  0  0  0  0  0
  151.4679  130.1432  155.4475 C   0  0  0  0  0  0  0  0  0  0  0  0
  152.2195  129.9376  154.3654 F   0  0  0  0  0  0  0  0  0  0  0  0
  152.1604  130.8754  156.3202 F   0  0  0  0  0  0  0  0  0  0  0  0
  151.1979  128.9672  156.0144 F   0  0  0  0  0  0  0  0  0  0  0  0
  150.3809  132.3660  154.7944 C   0  0  0  0  0  0  0  0  0  0  0  0
  149.7120  141.4456  155.4723 C   0  0  0  0  0  0  0  0  0  0  0  0
  150.0147  142.4461  156.3281 N   0  3  0  0  0  0  0  0  0  0  0  0
  152.2354  143.5072  158.5767 H   0  0  0  0  0  0  0  0  0  0  0  0
  150.5254  143.5085  159.0245 H   0  0  0  0  0  0  0  0  0  0  0  0
  151.0818  144.4625  157.6427 H   0  0  0  0  0  0  0  0  0  0  0  0
  152.4652  141.0298  158.1544 H   0  0  0  0  0  0  0  0  0  0  0  0
  151.9627  139.1376  156.6066 H   0  0  0  0  0  0  0  0  0  0  0  0
  148.9906  138.9646  154.5504 H   0  0  0  0  0  0  0  0  0  0  0  0
  150.3877  139.3814  153.5896 H   0  0  0  0  0  0  0  0  0  0  0  0
  151.8040  137.7813  154.7461 H   0  0  0  0  0  0  0  0  0  0  0  0
  150.6843  137.6374  156.0816 H   0  0  0  0  0  0  0  0  0  0  0  0
  149.7261  136.7682  153.4352 H   0  0  0  0  0  0  0  0  0  0  0  0
  149.0516  134.8157  153.2369 H   0  0  0  0  0  0  0  0  0  0  0  0
  148.4180  133.0375  155.3228 H   0  0  0  0  0  0  0  0  0  0  0  0
  147.4136  132.8926  153.0436 H   0  0  0  0  0  0  0  0  0  0  0  0
  148.9758  132.5247  152.3551 H   0  0  0  0  0  0  0  0  0  0  0  0
  147.4267  130.7977  154.3426 H   0  0  0  0  0  0  0  0  0  0  0  0
  147.6819  130.4481  152.6499 H   0  0  0  0  0  0  0  0  0  0  0  0
  149.2447  129.1529  154.0903 H   0  0  0  0  0  0  0  0  0  0  0  0
  150.1119  130.2121  153.0061 H   0  0  0  0  0  0  0  0  0  0  0  0
  149.4881  130.7860  155.9355 H   0  0  0  0  0  0  0  0  0  0  0  0
  151.0910  132.4798  153.9738 H   0  0  0  0  0  0  0  0  0  0  0  0
  150.8386  132.8399  155.6636 H   0  0  0  0  0  0  0  0  0  0  0  0
  148.9296  141.6554  154.7571 H   0  0  0  0  0  0  0  0  0  0  0  0
  149.4979  143.3227  156.2539 H   0  0  0  0  0  0  0  0  0  0  0  0
  1  2  1  0  0  0  0
  1 24  1  0  0  0  0
  1 25  1  0  0  0  0
  1 26  1  0  0  0  0
  2 23  1  0  0  0  0
  2  3  2  0  0  0  0
  3  4  1  0  0  0  0
  3 27  1  0  0  0  0
  4  5  2  0  0  0  0
  4 28  1  0  0  0  0
  5  6  1  0  0  0  0
  5 22  1  0  0  0  0
  6  7  1  0  0  0  0
  6 29  1  0  0  0  0
  6 30  1  0  0  0  0
  7  8  1  0  0  0  0
  7 31  1  0  0  0  0
  7 32  1  0  0  0  0
  8  9  1  0  0  0  0
  8 33  1  0  0  0  0
  9 10  2  0  0  0  0
  9 11  1  0  0  0  0
 11 12  1  0  0  0  0
 11 34  1  0  0  0  0
 12 21  1  0  0  0  0
 12 13  1  0  0  0  0
 12 35  1  0  0  0  0
 13 14  1  0  0  0  0
 13 36  1  0  0  0  0
 13 37  1  0  0  0  0
 14 15  1  0  0  0  0
 14 38  1  0  0  0  0
 14 39  1  0  0  0  0
 15 16  1  0  0  0  0
 15 40  1  0  0  0  0
 15 41  1  0  0  0  0
 16 17  1  0  0  0  0
 16 21  1  0  0  0  0
 16 42  1  0  0  0  0
 17 18  1  0  0  0  0
 17 19  1  0  0  0  0
 17 20  1  0  0  0  0
 21 43  1  0  0  0  0
 21 44  1  0  0  0  0
 22 23  2  0  0  0  0
 22 45  1  0  0  0  0
 23 46  1  0  0  0  0
M  CHG  1  23   1
M  END
> <s_m_source_file>
AV-unprocessed.smi

> <i_m_source_file_index>
937

> <i_lp_mmshare_version>
43012

> <i_f3d_flags>
0

> <s_epik_input>
W0NIM11jMVtjSF1bY0hdYyhbY0hdbjEpW0NIMl1bQ0gyXVtOSF1DKD1PKVtOSF1bQ0BASF0yW0NIMl1bQ0gyXVtDSDJdW0NAQEhdKEMoRikoRilGKVtDSDJdMg==

> <s_epik_cmdline>
J2VwaWtfcHl0aG9uJywgJy1waCcsICc3LjAnLCAnLXRuJywgJzgnLCAnLW1hJywgJzIwMCcsICctbWV0YWxfYmluZGluZycsICctaW1hZScsICc8aW5maWxlLm1hZT4nLCAnLW9tYWUnLCAnPG91dGZpbGUubWFlPic=

> <r_epik_Ionization_Penalty>
1.4226

> <r_epik_Ionization_Penalty_Charging>
1.42255

> <r_epik_Ionization_Penalty_Neutral>
5.16456e-05

> <r_epik_State_Penalty>
1.50646

> <r_epik_Charging_Adjusted_Penalty>
2.92901

> <i_epik_Tot_Q>
1

> <i_epik_Tot_abs_Q>
1

> <r_epik_Metal_State_Penalty>
1.55846

> <b_epik_Metal_Only>
0

> <s_lp_Force_Field>
OPLS_2005

> <r_lp_Energy>
24.5693

> <b_lp_Chiralities_Consistent>
1

> <s_lp_Variant>
AV-unprocessed.smi:937-6

> <Gold.Version>
5.8.1

> <Gold.Id.Protein>
6NUR|6NUR_protein|mol2

> <Gold.PLP.Fitness>
52.6391

> <Gold.PLP.PLP>
-42.2289

> <Gold.PLP.part.hbond>
-3.5819

> <Gold.PLP.part.metal>
0.0000

> <Gold.PLP.part.buried>
-5.0826

> <Gold.PLP.part.nonpolar>
-35.2752

> <Gold.PLP.part.repulsive>
0.2142

> <Gold.PLP.ligand.clash>
0.0000

> <Gold.PLP.ligand.torsion>
0.6589

> <Gold.PLP.Chemscore.Hbond>
3.9000

> <Gold.PLP.Chemscore.CHOScore>
0.0000

> <Gold.PLP.Chemscore.Metal>
0.0000

> <Gold.Chemscore.Hbonds>
donor molecule, donor type, donor heavy atom, donor atom, acceptor molecule, acceptor atom, score
      L1  H     8    33       P1  7948  1.00
      L1  H    11    34       P1  7948  0.75
      L1  H    23    46       P1  8028  2.00

> <Gold.PLP.Chemscore.Internal.Correction>
0.0280

> <Gold.Rescore>
     Score         DG    S(hbond)    S(metal)    S(lipo)     H(rot)  DE(clash)    DE(int)     intcor
     19.39     -20.87       2.62        0.00      93.09       1.66       0.06       1.42       ----

> <Gold.Chemscore.Fitness>
19.3898

> <Gold.Chemscore.DG>
-20.8715

> <Gold.Chemscore.ZeroCoef>
-5.4800

> <Gold.Chemscore.Hbond>
2.6184

> <Gold.Chemscore.Metal>
0.0000

> <Gold.Chemscore.Lipo>
93.0919

> <Gold.Chemscore.Internal_Hbond>
0.0000

> <Gold.Chemscore.DEClash>
0.0641

> <Gold.Chemscore.DEInternal>
1.4175

> <Gold.Chemscore.Rot>
1.6585

> <Gold.Chemscore.Internal.Correction>
   9.000000E+99

> <Gold.Chemscore.Hbonds>
donor molecule, donor type, donor heavy atom, donor atom, acceptor molecule, acceptor atom, score
      L1  H     8    33       P1  7948  0.49
      L1  H    11    34       P1  7948  0.09
      L1  H    23    46       P1  8028  0.99

> <Gold.Chemscore.Hbond.Weighted>
-8.7454

> <Gold.Chemscore.Metal.Weighted>
-0.0000

> <Gold.Chemscore.Lipo.Weighted>
-10.8918

> <Gold.Chemscore.Internal_Hbond.Weighted>
0.0000

> <Gold.Chemscore.DEClash.Weighted>
0.0641

> <Gold.Chemscore.DEInternal.Weighted>
1.4175

> <Gold.Chemscore.Rot.Weighted>
4.2457

> <Gold.Chemscore.Internal.Correction.Weighted>
   9.000000E+99

> <Gold.Protein.RotatedTorsions>
[ 6907 6896 6895 6894 ] final   22.25 input  -60.11 | X-H torsion
[ 7974 7965 7964 7962 ] final  116.83 input  175.53 | X-H torsion
[ 8008 7997 7996 7995 ] final   71.24 input   59.86 | X-H torsion
[ 10167 10162 10161 10158 ] final  -37.22 input  -65.29 | X-H torsion
[ 10718 10713 10712 10709 ] final -154.58 input   66.30 | X-H torsion
[ 10763 10752 10751 10750 ] final  -14.35 input  -60.55 | X-H torsion
[ 11005 11000 10999 10996 ] final   86.22 input  -57.11 | X-H torsion

> <Gold.Protein.ActiveResidues>
 VAL166  LYS551  ARG553  GLY616  TRP617  ASP618  TYR619  PRO620  LYS621  CYS622 
 ASP623  PHE694  ASN695  SER759  ASP760  ASP761  ALA762  ILE779  LEU786  VAL792 
 PHE793  MET794  SER795  GLU796  ALA797  LYS798  CYS799  TRP800  GLU811  SER814 

> <Gold.Protein.RotatedAtoms>
  151.9243  135.0285  160.0524 H   0  0  0  0  0  0  0  0  0  0  0  0  # atno 6907 bound_to 6896
  152.2173  133.4952  159.5151 H   0  0  0  0  0  0  0  0  0  0  0  0  # atno 6908 bound_to 6896
  150.6991  134.1305  159.4111 H   0  0  0  0  0  0  0  0  0  0  0  0  # atno 6909 bound_to 6896
  145.1748  139.3082  143.4449 H   0  0  0  0  0  0  0  0  0  0  0  0  # atno 7974 bound_to 7965
  155.7510  140.3488  155.5150 H   0  0  0  0  0  0  0  0  0  0  0  0  # atno 8008 bound_to 7997
  155.9005  140.1033  157.1375 H   0  0  0  0  0  0  0  0  0  0  0  0  # atno 8009 bound_to 7997
  154.4043  140.1287  156.4417 H   0  0  0  0  0  0  0  0  0  0  0  0  # atno 8010 bound_to 7997
  140.7124  143.3356  151.2469 H   0  0  0  0  0  0  0  0  0  0  0  0  # atno 10167 bound_to 10162
  156.5012  130.8392  151.2610 H   0  0  0  0  0  0  0  0  0  0  0  0  # atno 10718 bound_to 10713
  153.5269  135.7015  153.5703 H   0  0  0  0  0  0  0  0  0  0  0  0  # atno 10763 bound_to 10752
  153.3727  135.3940  155.1800 H   0  0  0  0  0  0  0  0  0  0  0  0  # atno 10764 bound_to 10752
  154.8689  135.3816  154.4762 H   0  0  0  0  0  0  0  0  0  0  0  0  # atno 10765 bound_to 10752
  139.8950  134.8341  156.2691 H   0  0  0  0  0  0  0  0  0  0  0  0  # atno 11005 bound_to 11000
  146.3463  140.1906  142.8589 LP  0  0  0  0  0  0  0  0  0  0  0  0  # atno 17320 bound_to 7965
  145.0196  140.8783  143.5174 LP  0  0  0  0  0  0  0  0  0  0  0  0  # atno 17321 bound_to 7965
  139.6851  143.9788  152.2829 LP  0  0  0  0  0  0  0  0  0  0  0  0  # atno 17342 bound_to 10162
  139.9431  144.6669  150.8246 LP  0  0  0  0  0  0  0  0  0  0  0  0  # atno 17343 bound_to 10162
  157.7462  130.9981  150.2840 LP  0  0  0  0  0  0  0  0  0  0  0  0  # atno 17370 bound_to 10713
  156.3331  130.3803  149.7474 LP  0  0  0  0  0  0  0  0  0  0  0  0  # atno 17371 bound_to 10713
  141.0112  133.7094  156.1115 LP  0  0  0  0  0  0  0  0  0  0  0  0  # atno 17394 bound_to 11000
  140.7364  134.4198  157.5560 LP  0  0  0  0  0  0  0  0  0  0  0  0  # atno 17395 bound_to 11000

$$$$
