AV-unprocessed.smi:27|AV-procd|sdf|188|dock7
  -GOLD-   2262015453D 1   1.00000     0.00000
 Structure written by MMmdl.
 53 56  0  0  0  0  0  0  0  0  1 V2000
  149.9105  132.3961  158.3419 O   0  0  0  0  0  0  0  0  0  0  0  0
  149.1205  133.0601  157.6687 C   0  0  0  0  0  0  0  0  0  0  0  0
  149.5131  133.5994  156.2850 C   0  0  0  0  0  0  0  0  0  0  0  0
  148.9547  132.8119  155.1645 N   0  0  0  0  0  0  0  0  0  0  0  0
  149.4377  131.4973  154.9499 C   0  0  0  0  0  0  0  0  0  0  0  0
  150.2990  131.0059  155.6809 O   0  0  0  0  0  0  0  0  0  0  0  0
  148.8526  130.7890  153.8170 C   0  0  0  0  0  0  0  0  0  0  0  0
  149.2420  129.5316  153.5463 F   0  0  0  0  0  0  0  0  0  0  0  0
  147.9227  131.3752  153.0350 C   0  0  0  0  0  0  0  0  0  0  0  0
  147.4720  132.6661  153.2471 N   0  0  0  0  0  0  0  0  0  0  0  0
  146.4292  133.3116  152.3587 C   0  0  1  0  0  0  0  0  0  0  0  0
  146.9215  133.3739  150.9003 C   0  0  0  0  0  0  0  0  0  0  0  0
  145.7678  132.7615  150.1314 C   0  0  0  0  0  0  0  0  0  0  0  0
  145.1835  131.7997  151.1550 C   0  0  0  0  0  0  0  0  0  0  0  0
  145.2586  132.5449  152.3634 O   0  0  0  0  0  0  0  0  0  0  0  0
  147.9840  133.4139  154.3296 C   0  0  0  0  0  0  0  0  0  0  0  0
  147.5963  134.5664  154.5346 O   0  0  0  0  0  0  0  0  0  0  0  0
  147.8764  133.3547  158.0743 N   0  0  0  0  0  0  0  0  0  0  0  0
  147.2772  132.9450  159.3448 C   0  0  0  0  0  0  0  0  0  0  0  0
  145.8380  132.4627  159.1896 C   0  0  0  0  0  0  0  0  0  0  0  0
  144.7777  133.0849  159.8881 C   0  0  0  0  0  0  0  0  0  0  0  0
  143.4570  132.6201  159.7374 C   0  0  0  0  0  0  0  0  0  0  0  0
  143.1861  131.5287  158.8905 C   0  0  0  0  0  0  0  0  0  0  0  0
  144.2375  130.9003  158.1963 C   0  0  0  0  0  0  0  0  0  0  0  0
  145.5586  131.3645  158.3474 C   0  0  0  0  0  0  0  0  0  0  0  0
  147.3674  134.0481  160.3921 C   0  0  0  0  0  0  0  0  0  0  0  0
  147.7460  135.3625  160.0350 C   0  0  0  0  0  0  0  0  0  0  0  0
  147.8195  136.3723  161.0139 C   0  0  0  0  0  0  0  0  0  0  0  0
  147.5127  136.0772  162.3557 C   0  0  0  0  0  0  0  0  0  0  0  0
  147.1274  134.7724  162.7173 C   0  0  0  0  0  0  0  0  0  0  0  0
  147.0525  133.7624  161.7385 C   0  0  0  0  0  0  0  0  0  0  0  0
  149.2035  134.6439  156.2232 H   0  0  0  0  0  0  0  0  0  0  0  0
  150.6018  133.6442  156.2245 H   0  0  0  0  0  0  0  0  0  0  0  0
  147.5279  130.7948  152.2154 H   0  0  0  0  0  0  0  0  0  0  0  0
  146.2246  134.2868  152.8041 H   0  0  0  0  0  0  0  0  0  0  0  0
  147.1399  134.4003  150.6039 H   0  0  0  0  0  0  0  0  0  0  0  0
  147.8225  132.7703  150.7792 H   0  0  0  0  0  0  0  0  0  0  0  0
  145.0349  133.5290  149.8787 H   0  0  0  0  0  0  0  0  0  0  0  0
  146.0808  132.2685  149.2108 H   0  0  0  0  0  0  0  0  0  0  0  0
  144.1584  131.5087  150.9254 H   0  0  0  0  0  0  0  0  0  0  0  0
  145.7910  130.8968  151.2302 H   0  0  0  0  0  0  0  0  0  0  0  0
  147.2967  133.9050  157.4577 H   0  0  0  0  0  0  0  0  0  0  0  0
  147.8648  132.1064  159.7242 H   0  0  0  0  0  0  0  0  0  0  0  0
  144.9703  133.9195  160.5459 H   0  0  0  0  0  0  0  0  0  0  0  0
  142.6515  133.1006  160.2730 H   0  0  0  0  0  0  0  0  0  0  0  0
  142.1729  131.1728  158.7748 H   0  0  0  0  0  0  0  0  0  0  0  0
  144.0313  130.0613  157.5484 H   0  0  0  0  0  0  0  0  0  0  0  0
  146.3586  130.8738  157.8127 H   0  0  0  0  0  0  0  0  0  0  0  0
  147.9763  135.6058  159.0083 H   0  0  0  0  0  0  0  0  0  0  0  0
  148.1096  137.3744  160.7343 H   0  0  0  0  0  0  0  0  0  0  0  0
  147.5695  136.8519  163.1063 H   0  0  0  0  0  0  0  0  0  0  0  0
  146.8882  134.5455  163.7458 H   0  0  0  0  0  0  0  0  0  0  0  0
  146.7526  132.7653  162.0265 H   0  0  0  0  0  0  0  0  0  0  0  0
  1  2  2  0  0  0  0
  2  3  1  0  0  0  0
  2 18  1  0  0  0  0
  3  4  1  0  0  0  0
  3 32  1  0  0  0  0
  3 33  1  0  0  0  0
  4 16  1  0  0  0  0
  4  5  1  0  0  0  0
  5  6  2  0  0  0  0
  5  7  1  0  0  0  0
  7  8  1  0  0  0  0
  7  9  2  0  0  0  0
  9 10  1  0  0  0  0
  9 34  1  0  0  0  0
 10 11  1  0  0  0  0
 10 16  1  0  0  0  0
 11 15  1  0  0  0  0
 11 12  1  0  0  0  0
 11 35  1  0  0  0  0
 12 13  1  0  0  0  0
 12 36  1  0  0  0  0
 12 37  1  0  0  0  0
 13 14  1  0  0  0  0
 13 38  1  0  0  0  0
 13 39  1  0  0  0  0
 14 15  1  0  0  0  0
 14 40  1  0  0  0  0
 14 41  1  0  0  0  0
 16 17  2  0  0  0  0
 18 19  1  0  0  0  0
 18 42  1  0  0  0  0
 19 20  1  0  0  0  0
 19 26  1  0  0  0  0
 19 43  1  0  0  0  0
 20 25  1  0  0  0  0
 20 21  2  0  0  0  0
 21 22  1  0  0  0  0
 21 44  1  0  0  0  0
 22 23  2  0  0  0  0
 22 45  1  0  0  0  0
 23 24  1  0  0  0  0
 23 46  1  0  0  0  0
 24 25  2  0  0  0  0
 24 47  1  0  0  0  0
 25 48  1  0  0  0  0
 26 31  1  0  0  0  0
 26 27  2  0  0  0  0
 27 28  1  0  0  0  0
 27 49  1  0  0  0  0
 28 29  2  0  0  0  0
 28 50  1  0  0  0  0
 29 30  1  0  0  0  0
 29 51  1  0  0  0  0
 30 31  2  0  0  0  0
 30 52  1  0  0  0  0
 31 53  1  0  0  0  0
M  END
> <s_m_source_file>
AV-unprocessed.smi

> <i_m_source_file_index>
27

> <i_lp_mmshare_version>
43012

> <i_f3d_flags>
0

> <s_epik_input>
W2NIXTFbY0hdW2NIXVtjSF1bY0hdYzFbQ0hdKGMyW2NIXVtjSF1bY0hdW2NIXVtjSF0yKVtOSF1DKD1PKVtDSDJdbjNjKD1PKWMoRilbY0hdbihjMz1PKVtDQEBIXTRbQ0gyXVtDSDJdW0NIMl1PNA==

> <s_epik_cmdline>
J2VwaWtfcHl0aG9uJywgJy1waCcsICc3LjAnLCAnLXRuJywgJzgnLCAnLW1hJywgJzIwMCcsICctbWV0YWxfYmluZGluZycsICctaW1hZScsICc8aW5maWxlLm1hZT4nLCAnLW9tYWUnLCAnPG91dGZpbGUubWFlPic=

> <r_lp_tautomer_probability>
1

> <r_epik_Ionization_Penalty>
5.29953e-08

> <r_epik_Ionization_Penalty_Charging>
3.6115e-09

> <r_epik_Ionization_Penalty_Neutral>
4.93838e-08

> <r_epik_State_Penalty>
-0

> <r_epik_Charging_Adjusted_Penalty>
3.6115e-09

> <i_epik_Tot_Q>
0

> <i_epik_Tot_abs_Q>
0

> <r_epik_Metal_State_Penalty>
-0

> <b_epik_Metal_Only>
0

> <s_epik_Chemistry_Notes>
This compound contains an acetal/aminal-like group ( X-CH(R)-Y where X, Y are N, S, or O) that may be acid/base labile, releasing an aldehyde.

> <s_lp_Force_Field>
OPLS_2005

> <r_lp_Energy>
31.2801

> <b_lp_Chiralities_Consistent>
1

> <s_lp_Variant>
AV-unprocessed.smi:27-2

> <Gold.Version>
5.8.1

> <Gold.Id.Protein>
6NUR|6NUR_protein|mol2

> <Gold.PLP.Fitness>
47.7193

> <Gold.PLP.PLP>
-44.2465

> <Gold.PLP.part.hbond>
-1.0000

> <Gold.PLP.part.metal>
0.0000

> <Gold.PLP.part.buried>
-5.3941

> <Gold.PLP.part.nonpolar>
-38.1858

> <Gold.PLP.part.repulsive>
0.2683

> <Gold.PLP.ligand.clash>
0.0000

> <Gold.PLP.ligand.torsion>
0.7415

> <Gold.PLP.Chemscore.Hbond>
1.0000

> <Gold.PLP.Chemscore.CHOScore>
0.5931

> <Gold.PLP.Chemscore.Metal>
0.0000

> <Gold.Chemscore.Hbonds>
donor molecule, donor type, donor heavy atom, donor atom, acceptor molecule, acceptor atom, score
      P1  H  6896  6907       L1     1  0.99
      L1  C     9    34       P1 10747  0.64

> <Gold.PLP.Chemscore.Internal.Correction>
0.1765

> <Gold.Rescore>
     Score         DG    S(hbond)    S(metal)    S(lipo)     H(rot)  DE(clash)    DE(int)     intcor
     13.51     -14.42       0.96        0.00      96.24       2.16       0.03       0.87       ----

> <Gold.Chemscore.Fitness>
13.5130

> <Gold.Chemscore.DG>
-14.4152

> <Gold.Chemscore.ZeroCoef>
-5.4800

> <Gold.Chemscore.Hbond>
0.9627

> <Gold.Chemscore.Metal>
0.0000

> <Gold.Chemscore.Lipo>
96.2406

> <Gold.Chemscore.Internal_Hbond>
0.0000

> <Gold.Chemscore.DEClash>
0.0310

> <Gold.Chemscore.DEInternal>
0.8712

> <Gold.Chemscore.Rot>
2.1642

> <Gold.Chemscore.Internal.Correction>
   9.000000E+99

> <Gold.Chemscore.Hbonds>
donor molecule, donor type, donor heavy atom, donor atom, acceptor molecule, acceptor atom, score
      P1  H  6896  6907       L1     1  0.85

> <Gold.Chemscore.Hbond.Weighted>
-3.2155

> <Gold.Chemscore.Metal.Weighted>
-0.0000

> <Gold.Chemscore.Lipo.Weighted>
-11.2601

> <Gold.Chemscore.Internal_Hbond.Weighted>
0.0000

> <Gold.Chemscore.DEClash.Weighted>
0.0310

> <Gold.Chemscore.DEInternal.Weighted>
0.8712

> <Gold.Chemscore.Rot.Weighted>
5.5404

> <Gold.Chemscore.Internal.Correction.Weighted>
   9.000000E+99

> <Gold.Protein.RotatedTorsions>
[ 6907 6896 6895 6894 ] final -156.59 input  -60.11 | X-H torsion
[ 7974 7965 7964 7962 ] final   79.63 input  175.53 | X-H torsion
[ 8008 7997 7996 7995 ] final   73.50 input   59.86 | X-H torsion
[ 10167 10162 10161 10158 ] final  -17.05 input  -65.29 | X-H torsion
[ 10718 10713 10712 10709 ] final  133.15 input   66.30 | X-H torsion
[ 10763 10752 10751 10750 ] final  -21.29 input  -60.55 | X-H torsion
[ 11005 11000 10999 10996 ] final  -49.67 input  -57.11 | X-H torsion

> <Gold.Protein.ActiveResidues>
 VAL166  LYS551  ARG553  GLY616  TRP617  ASP618  TYR619  PRO620  LYS621  CYS622 
 ASP623  PHE694  ASN695  SER759  ASP760  ASP761  ALA762  ILE779  LEU786  VAL792 
 PHE793  MET794  SER795  GLU796  ALA797  LYS798  CYS799  TRP800  GLU811  SER814 

> <Gold.Protein.RotatedAtoms>
  151.2900  133.4170  159.2632 H   0  0  0  0  0  0  0  0  0  0  0  0  # atno 6907 bound_to 6896
  151.0286  134.9523  159.8109 H   0  0  0  0  0  0  0  0  0  0  0  0  # atno 6908 bound_to 6896
  152.5340  134.2861  159.9078 H   0  0  0  0  0  0  0  0  0  0  0  0  # atno 6909 bound_to 6896
  145.6617  139.2473  143.1919 H   0  0  0  0  0  0  0  0  0  0  0  0  # atno 7974 bound_to 7965
  155.7846  140.3481  155.5316 H   0  0  0  0  0  0  0  0  0  0  0  0  # atno 8008 bound_to 7997
  155.8695  140.0984  157.1580 H   0  0  0  0  0  0  0  0  0  0  0  0  # atno 8009 bound_to 7997
  154.4016  140.1343  156.4047 H   0  0  0  0  0  0  0  0  0  0  0  0  # atno 8010 bound_to 7997
  140.7242  143.5054  150.9816 H   0  0  0  0  0  0  0  0  0  0  0  0  # atno 10167 bound_to 10162
  157.4801  131.1085  150.9693 H   0  0  0  0  0  0  0  0  0  0  0  0  # atno 10718 bound_to 10713
  153.6339  135.6988  153.5265 H   0  0  0  0  0  0  0  0  0  0  0  0  # atno 10763 bound_to 10752
  153.2837  135.4178  155.1102 H   0  0  0  0  0  0  0  0  0  0  0  0  # atno 10764 bound_to 10752
  154.8516  135.3608  154.5882 H   0  0  0  0  0  0  0  0  0  0  0  0  # atno 10765 bound_to 10752
  141.0773  133.6662  156.3620 H   0  0  0  0  0  0  0  0  0  0  0  0  # atno 11005 bound_to 11000
  146.1120  140.7417  142.9499 LP  0  0  0  0  0  0  0  0  0  0  0  0  # atno 17320 bound_to 7965
  144.7087  140.3954  143.7098 LP  0  0  0  0  0  0  0  0  0  0  0  0  # atno 17321 bound_to 7965
  139.8766  143.7125  152.3161 LP  0  0  0  0  0  0  0  0  0  0  0  0  # atno 17342 bound_to 10162
  139.7393  144.7563  151.0678 LP  0  0  0  0  0  0  0  0  0  0  0  0  # atno 17343 bound_to 10162
  157.0429  130.5756  149.5359 LP  0  0  0  0  0  0  0  0  0  0  0  0  # atno 17370 bound_to 10713
  156.0117  130.5209  150.8009 LP  0  0  0  0  0  0  0  0  0  0  0  0  # atno 17371 bound_to 10713
  140.5546  134.5994  157.5417 LP  0  0  0  0  0  0  0  0  0  0  0  0  # atno 17394 bound_to 11000
  139.9585  134.7493  156.0288 LP  0  0  0  0  0  0  0  0  0  0  0  0  # atno 17395 bound_to 11000

$$$$
