AV-unprocessed.smi:1899|AV-procd|sdf|7706|dock3
  -GOLD-   22720 9443D 1   1.00000     0.00000
 Structure written by MMmdl.
 34 35  0  0  0  0  0  0  0  0  2 V2000
  151.4867  140.8555  156.6458 O   0  0  0  0  0  0  0  0  0  0  0  0
  150.8485  141.8951  156.8115 C   0  0  0  0  0  0  0  0  0  0  0  0
  149.9122  142.3267  155.9526 N   0  0  0  0  0  0  0  0  0  0  0  0
  149.5064  141.6397  154.7297 C   0  0  0  0  0  0  0  0  0  0  0  0
  147.9949  141.3391  154.6837 C   0  0  0  0  0  0  0  0  0  0  0  0
  147.6682  140.2205  153.7944 N   0  0  0  0  0  0  0  0  0  0  0  0
  146.6650  140.1655  152.8614 C   0  0  0  0  0  0  0  0  0  0  0  0
  146.7430  138.9274  152.2772 C   0  0  0  0  0  0  0  0  0  0  0  0
  147.7895  138.2799  152.8778 N   0  3  0  0  0  0  0  0  0  0  0  0
  148.3524  139.0688  153.7987 C   0  0  0  0  0  0  0  0  0  0  0  0
  151.0915  142.7635  158.0524 C   0  0  1  0  0  0  0  0  0  0  0  0
  152.0384  142.0532  159.0471 C   0  0  0  0  0  0  0  0  0  0  0  0
  152.4998  142.9788  160.1588 C   0  0  0  0  0  0  0  0  0  0  0  0
  152.3885  144.3171  160.1003 C   0  0  0  0  0  0  0  0  0  0  0  0
  151.7939  145.0558  158.9142 C   0  0  0  0  0  0  0  0  0  0  0  0
  151.6481  144.1515  157.6755 C   0  0  0  0  0  0  0  0  0  0  0  0
  149.4447  143.1971  156.1629 H   0  0  0  0  0  0  0  0  0  0  0  0
  149.7868  142.2630  153.8802 H   0  0  0  0  0  0  0  0  0  0  0  0
  150.0736  140.7129  154.6307 H   0  0  0  0  0  0  0  0  0  0  0  0
  147.6364  141.0802  155.6807 H   0  0  0  0  0  0  0  0  0  0  0  0
  147.4250  142.2133  154.3660 H   0  0  0  0  0  0  0  0  0  0  0  0
  145.9880  140.9895  152.6876 H   0  0  0  0  0  0  0  0  0  0  0  0
  146.1477  138.4708  151.4997 H   0  0  0  0  0  0  0  0  0  0  0  0
  149.1907  138.8227  154.4263 H   0  0  0  0  0  0  0  0  0  0  0  0
  150.1328  142.9198  158.5511 H   0  0  0  0  0  0  0  0  0  0  0  0
  151.5289  141.1993  159.4953 H   0  0  0  0  0  0  0  0  0  0  0  0
  152.9253  141.6654  158.5439 H   0  0  0  0  0  0  0  0  0  0  0  0
  152.9490  142.5152  161.0250 H   0  0  0  0  0  0  0  0  0  0  0  0
  152.7246  144.9205  160.9310 H   0  0  0  0  0  0  0  0  0  0  0  0
  150.8206  145.4463  159.2130 H   0  0  0  0  0  0  0  0  0  0  0  0
  152.4211  145.9148  158.6742 H   0  0  0  0  0  0  0  0  0  0  0  0
  152.6254  144.0365  157.2035 H   0  0  0  0  0  0  0  0  0  0  0  0
  151.0076  144.6396  156.9395 H   0  0  0  0  0  0  0  0  0  0  0  0
  148.0958  137.3403  152.6580 H   0  0  0  0  0  0  0  0  0  0  0  0
  1  2  2  0  0  0  0
  2  3  1  0  0  0  0
  2 11  1  0  0  0  0
  3  4  1  0  0  0  0
  3 17  1  0  0  0  0
  4  5  1  0  0  0  0
  4 18  1  0  0  0  0
  4 19  1  0  0  0  0
  5  6  1  0  0  0  0
  5 20  1  0  0  0  0
  5 21  1  0  0  0  0
  6 10  1  0  0  0  0
  6  7  1  0  0  0  0
  7  8  2  0  0  0  0
  7 22  1  0  0  0  0
  8  9  1  0  0  0  0
  8 23  1  0  0  0  0
  9 10  2  0  0  0  0
  9 34  1  0  0  0  0
 10 24  1  0  0  0  0
 11 16  1  0  0  0  0
 11 12  1  0  0  0  0
 11 25  1  0  0  0  0
 12 13  1  0  0  0  0
 12 26  1  0  0  0  0
 12 27  1  0  0  0  0
 13 14  2  0  0  0  0
 13 28  1  0  0  0  0
 14 15  1  0  0  0  0
 14 29  1  0  0  0  0
 15 16  1  0  0  0  0
 15 30  1  0  0  0  0
 15 31  1  0  0  0  0
 16 32  1  0  0  0  0
 16 33  1  0  0  0  0
M  CHG  1   9   1
M  END
> <s_m_source_file>
AV-unprocessed.smi

> <i_m_source_file_index>
1899

> <i_lp_mmshare_version>
43012

> <i_f3d_flags>
0

> <s_epik_input>
W0NIMl0xW0NIMl1bQ0hdPVtDSF1bQ0gyXVtDQEhdMUMoPU8pW05IXVtDSDJdW0NIMl1uMltjSF1bY0hdbltjSF0y

> <s_epik_cmdline>
J2VwaWtfcHl0aG9uJywgJy1waCcsICc3LjAnLCAnLXRuJywgJzgnLCAnLW1hJywgJzIwMCcsICctbWV0YWxfYmluZGluZycsICctaW1hZScsICc8aW5maWxlLm1hZT4nLCAnLW9tYWUnLCAnPG91dGZpbGUubWFlPic=

> <r_lp_tautomer_probability>
1

> <r_epik_Ionization_Penalty>
0.268283

> <r_epik_Ionization_Penalty_Charging>
0

> <r_epik_Ionization_Penalty_Neutral>
0.268283

> <r_epik_State_Penalty>
0.260312

> <r_epik_Charging_Adjusted_Penalty>
0.260312

> <i_epik_Tot_Q>
1

> <i_epik_Tot_abs_Q>
1

> <r_epik_Metal_State_Penalty>
0.545819

> <b_epik_Metal_Only>
0

> <s_lp_Force_Field>
OPLS_2005

> <r_lp_Energy>
11.7263

> <b_lp_Chiralities_Consistent>
1

> <s_lp_Variant>
AV-unprocessed.smi:1899-2

> <Gold.Version>
5.8.1

> <Gold.Id.Protein>
6NUR|6NUR_protein|mol2

> <Gold.PLP.Fitness>
50.0973

> <Gold.PLP.PLP>
-39.4115

> <Gold.PLP.part.hbond>
-2.7346

> <Gold.PLP.part.metal>
0.0000

> <Gold.PLP.part.buried>
-0.6337

> <Gold.PLP.part.nonpolar>
-36.7218

> <Gold.PLP.part.repulsive>
0.1930

> <Gold.PLP.ligand.clash>
0.0000

> <Gold.PLP.ligand.torsion>
0.3814

> <Gold.PLP.Chemscore.Hbond>
2.9920

> <Gold.PLP.Chemscore.CHOScore>
0.8141

> <Gold.PLP.Chemscore.Metal>
0.0000

> <Gold.Chemscore.Hbonds>
donor molecule, donor type, donor heavy atom, donor atom, acceptor molecule, acceptor atom, score
      L1  H     3    17       P1  8028  0.99
      L1  H     9    34       P1  7948  2.00
      L1  C     7    22       P1 10175  0.68

> <Gold.PLP.Chemscore.Internal.Correction>
0.0305

> <Gold.Rescore>
     Score         DG    S(hbond)    S(metal)    S(lipo)     H(rot)  DE(clash)    DE(int)     intcor
     18.13     -18.63       1.82        0.00     101.31       1.87       0.29       0.22       ----

> <Gold.Chemscore.Fitness>
18.1261

> <Gold.Chemscore.DG>
-18.6298

> <Gold.Chemscore.ZeroCoef>
-5.4800

> <Gold.Chemscore.Hbond>
1.8249

> <Gold.Chemscore.Metal>
0.0000

> <Gold.Chemscore.Lipo>
101.3082

> <Gold.Chemscore.Internal_Hbond>
0.0000

> <Gold.Chemscore.DEClash>
0.2861

> <Gold.Chemscore.DEInternal>
0.2175

> <Gold.Chemscore.Rot>
1.8743

> <Gold.Chemscore.Internal.Correction>
   9.000000E+99

> <Gold.Chemscore.Hbonds>
donor molecule, donor type, donor heavy atom, donor atom, acceptor molecule, acceptor atom, score
      L1  H     3    17       P1  8028  0.94
      L1  H     9    34       P1  7948  0.96

> <Gold.Chemscore.Hbond.Weighted>
-6.0950

> <Gold.Chemscore.Metal.Weighted>
-0.0000

> <Gold.Chemscore.Lipo.Weighted>
-11.8531

> <Gold.Chemscore.Internal_Hbond.Weighted>
0.0000

> <Gold.Chemscore.DEClash.Weighted>
0.2861

> <Gold.Chemscore.DEInternal.Weighted>
0.2175

> <Gold.Chemscore.Rot.Weighted>
4.7983

> <Gold.Chemscore.Internal.Correction.Weighted>
   9.000000E+99

> <Gold.Protein.RotatedTorsions>
[ 6907 6896 6895 6894 ] final  167.96 input  -60.11 | X-H torsion
[ 7974 7965 7964 7962 ] final -164.39 input  175.53 | X-H torsion
[ 8008 7997 7996 7995 ] final   35.67 input   59.86 | X-H torsion
[ 10167 10162 10161 10158 ] final  101.24 input  -65.29 | X-H torsion
[ 10718 10713 10712 10709 ] final  -88.84 input   66.30 | X-H torsion
[ 10763 10752 10751 10750 ] final  -75.88 input  -60.55 | X-H torsion
[ 11005 11000 10999 10996 ] final   20.40 input  -57.11 | X-H torsion

> <Gold.Protein.ActiveResidues>
 VAL166  LYS551  ARG553  GLY616  TRP617  ASP618  TYR619  PRO620  LYS621  CYS622 
 ASP623  PHE694  ASN695  SER759  ASP760  ASP761  ALA762  ILE779  LEU786  VAL792 
 PHE793  MET794  SER795  GLU796  ALA797  LYS798  CYS799  TRP800  GLU811  SER814 

> <Gold.Protein.RotatedAtoms>
  151.8551  133.3447  159.3685 H   0  0  0  0  0  0  0  0  0  0  0  0  # atno 6907 bound_to 6896
  150.7195  134.5261  159.5686 H   0  0  0  0  0  0  0  0  0  0  0  0  # atno 6908 bound_to 6896
  152.2762  134.7879  160.0456 H   0  0  0  0  0  0  0  0  0  0  0  0  # atno 6909 bound_to 6896
  144.7298  140.2968  143.6211 H   0  0  0  0  0  0  0  0  0  0  0  0  # atno 7974 bound_to 7965
  155.1749  140.3295  155.4385 H   0  0  0  0  0  0  0  0  0  0  0  0  # atno 8008 bound_to 7997
  156.2497  140.1937  156.6801 H   0  0  0  0  0  0  0  0  0  0  0  0  # atno 8009 bound_to 7997
  154.6311  140.0582  156.9719 H   0  0  0  0  0  0  0  0  0  0  0  0  # atno 8010 bound_to 7997
  139.7456  144.6999  151.0509 H   0  0  0  0  0  0  0  0  0  0  0  0  # atno 10167 bound_to 10162
  155.9983  130.4850  150.5080 H   0  0  0  0  0  0  0  0  0  0  0  0  # atno 10718 bound_to 10713
  154.4924  135.5816  153.6469 H   0  0  0  0  0  0  0  0  0  0  0  0  # atno 10763 bound_to 10752
  152.9864  135.6116  154.3108 H   0  0  0  0  0  0  0  0  0  0  0  0  # atno 10764 bound_to 10752
  154.3009  135.2847  155.2591 H   0  0  0  0  0  0  0  0  0  0  0  0  # atno 10765 bound_to 10752
  140.4030  134.1698  155.7664 H   0  0  0  0  0  0  0  0  0  0  0  0  # atno 11005 bound_to 11000
  145.7800  139.1888  143.2163 LP  0  0  0  0  0  0  0  0  0  0  0  0  # atno 17320 bound_to 7965
  146.0841  140.7730  142.9627 LP  0  0  0  0  0  0  0  0  0  0  0  0  # atno 17321 bound_to 7965
  140.7791  143.4871  150.9942 LP  0  0  0  0  0  0  0  0  0  0  0  0  # atno 17342 bound_to 10162
  139.8559  143.7377  152.3176 LP  0  0  0  0  0  0  0  0  0  0  0  0  # atno 17343 bound_to 10162
  157.3056  131.0654  151.2037 LP  0  0  0  0  0  0  0  0  0  0  0  0  # atno 17370 bound_to 10713
  157.3001  130.6838  149.6159 LP  0  0  0  0  0  0  0  0  0  0  0  0  # atno 17371 bound_to 10713
  141.1849  133.8333  157.1122 LP  0  0  0  0  0  0  0  0  0  0  0  0  # atno 17394 bound_to 11000
  140.0322  134.9895  157.0802 LP  0  0  0  0  0  0  0  0  0  0  0  0  # atno 17395 bound_to 11000

$$$$
