AV-unprocessed.smi:3036|AV-procd|sdf|11585|dock5
  -GOLD-   2272016563D 1   1.00000     0.00000
 Structure written by MMmdl.
 41 42  0  0  0  0  0  0  0  0  1 V2000
  145.3238  136.0294  151.2219 C   0  0  0  0  0  0  0  0  0  0  0  0
  145.5470  134.8617  152.1966 C   0  0  1  0  0  0  0  0  0  0  0  0
  144.5153  133.7378  151.9768 C   0  0  0  0  0  0  0  0  0  0  0  0
  144.7391  133.0231  150.7315 N   0  0  0  0  0  0  0  0  0  0  0  0
  143.9076  132.9291  149.6350 C   0  0  0  0  0  0  0  0  0  0  0  0
  144.5509  132.1688  148.7012 C   0  0  0  0  0  0  0  0  0  0  0  0
  145.7853  131.8385  149.3272 C   0  0  0  0  0  0  0  0  0  0  0  0
  145.8946  132.3500  150.5428 N   0  0  0  0  0  0  0  0  0  0  0  0
  146.8836  134.3091  152.0093 N   0  0  0  0  0  0  0  0  0  0  0  0
  147.2906  133.4437  153.1091 C   0  0  0  0  0  0  0  0  0  0  0  0
  148.7192  132.9031  152.8920 C   0  0  0  0  0  0  0  0  0  0  0  0
  149.1407  131.7595  153.8384 C   0  0  0  0  0  0  0  0  0  0  0  0
  148.6062  130.6552  153.7218 O   0  0  0  0  0  0  0  0  0  0  0  0
  150.0864  132.0013  154.7783 N   0  0  0  0  0  0  0  0  0  0  0  0
  150.5484  130.9855  155.7289 C   0  0  0  0  0  0  0  0  0  0  0  0
  150.1164  131.4108  157.1434 C   0  0  0  0  0  0  0  0  0  0  0  0
  150.6553  132.6964  157.4418 O   0  0  0  0  0  0  0  0  0  0  0  0
  150.2457  133.7014  156.5177 C   0  0  0  0  0  0  0  0  0  0  0  0
  150.6778  133.3058  155.0939 C   0  0  0  0  0  0  0  0  0  0  0  0
  144.3188  136.4375  151.3310 H   0  0  0  0  0  0  0  0  0  0  0  0
  145.4403  135.7117  150.1851 H   0  0  0  0  0  0  0  0  0  0  0  0
  146.0227  136.8462  151.4025 H   0  0  0  0  0  0  0  0  0  0  0  0
  145.4398  135.2239  153.2201 H   0  0  0  0  0  0  0  0  0  0  0  0
  144.5648  133.0169  152.7944 H   0  0  0  0  0  0  0  0  0  0  0  0
  143.4992  134.1354  151.9762 H   0  0  0  0  0  0  0  0  0  0  0  0
  142.9422  133.4125  149.6086 H   0  0  0  0  0  0  0  0  0  0  0  0
  144.1955  131.8937  147.7194 H   0  0  0  0  0  0  0  0  0  0  0  0
  146.6001  131.2469  148.9367 H   0  0  0  0  0  0  0  0  0  0  0  0
  147.5571  135.0470  151.8618 H   0  0  0  0  0  0  0  0  0  0  0  0
  147.2476  133.9991  154.0459 H   0  0  0  0  0  0  0  0  0  0  0  0
  146.5949  132.6084  153.2017 H   0  0  0  0  0  0  0  0  0  0  0  0
  148.8038  132.5625  151.8594 H   0  0  0  0  0  0  0  0  0  0  0  0
  149.4270  133.7235  153.0159 H   0  0  0  0  0  0  0  0  0  0  0  0
  150.1635  129.9891  155.5090 H   0  0  0  0  0  0  0  0  0  0  0  0
  151.6350  130.9071  155.6748 H   0  0  0  0  0  0  0  0  0  0  0  0
  149.0286  131.4329  157.2276 H   0  0  0  0  0  0  0  0  0  0  0  0
  150.4804  130.6953  157.8810 H   0  0  0  0  0  0  0  0  0  0  0  0
  149.1645  133.8396  156.5713 H   0  0  0  0  0  0  0  0  0  0  0  0
  150.7034  134.6491  156.8019 H   0  0  0  0  0  0  0  0  0  0  0  0
  151.7646  133.2296  155.0402 H   0  0  0  0  0  0  0  0  0  0  0  0
  150.4000  134.0982  154.4015 H   0  0  0  0  0  0  0  0  0  0  0  0
  1  2  1  0  0  0  0
  1 20  1  0  0  0  0
  1 21  1  0  0  0  0
  1 22  1  0  0  0  0
  2  3  1  0  0  0  0
  2  9  1  0  0  0  0
  2 23  1  0  0  0  0
  3  4  1  0  0  0  0
  3 24  1  0  0  0  0
  3 25  1  0  0  0  0
  4  8  1  0  0  0  0
  4  5  1  0  0  0  0
  5  6  2  0  0  0  0
  5 26  1  0  0  0  0
  6  7  1  0  0  0  0
  6 27  1  0  0  0  0
  7  8  2  0  0  0  0
  7 28  1  0  0  0  0
  9 10  1  0  0  0  0
  9 29  1  0  0  0  0
 10 11  1  0  0  0  0
 10 30  1  0  0  0  0
 10 31  1  0  0  0  0
 11 12  1  0  0  0  0
 11 32  1  0  0  0  0
 11 33  1  0  0  0  0
 12 13  2  0  0  0  0
 12 14  1  0  0  0  0
 14 19  1  0  0  0  0
 14 15  1  0  0  0  0
 15 16  1  0  0  0  0
 15 34  1  0  0  0  0
 15 35  1  0  0  0  0
 16 17  1  0  0  0  0
 16 36  1  0  0  0  0
 16 37  1  0  0  0  0
 17 18  1  0  0  0  0
 18 19  1  0  0  0  0
 18 38  1  0  0  0  0
 18 39  1  0  0  0  0
 19 40  1  0  0  0  0
 19 41  1  0  0  0  0
M  END
> <s_m_source_file>
AV-unprocessed.smi

> <i_m_source_file_index>
3036

> <i_lp_mmshare_version>
43012

> <i_f3d_flags>
0

> <s_epik_input>
bjFbY0hdW2NIXVtjSF1uMVtDSDJdW0NAQEhdKFtDSDNdKVtOSF1bQ0gyXVtDSDJdQyg9TylOMltDSDJdW0NIMl1PW0NIMl1bQ0gyXTI=

> <s_epik_cmdline>
J2VwaWtfcHl0aG9uJywgJy1waCcsICc3LjAnLCAnLXRuJywgJzgnLCAnLW1hJywgJzIwMCcsICctbWV0YWxfYmluZGluZycsICctaW1hZScsICc8aW5maWxlLm1hZT4nLCAnLW9tYWUnLCAnPG91dGZpbGUubWFlPic=

> <r_lp_tautomer_probability>
1

> <r_epik_Ionization_Penalty>
2.55703

> <r_epik_Ionization_Penalty_Charging>
0

> <r_epik_Ionization_Penalty_Neutral>
2.55703

> <r_epik_State_Penalty>
2.726

> <r_epik_Charging_Adjusted_Penalty>
2.726

> <i_epik_Tot_Q>
0

> <i_epik_Tot_abs_Q>
0

> <r_epik_Metal_State_Penalty>
2.72597

> <b_epik_Metal_Only>
0

> <s_lp_Force_Field>
OPLS_2005

> <r_lp_Energy>
21.9246

> <b_lp_Chiralities_Consistent>
1

> <s_lp_Variant>
AV-unprocessed.smi:3036-4

> <Gold.Version>
5.8.1

> <Gold.Id.Protein>
6NUR|6NUR_protein|mol2

> <Gold.PLP.Fitness>
45.6567

> <Gold.PLP.PLP>
-34.2956

> <Gold.PLP.part.hbond>
-2.0000

> <Gold.PLP.part.metal>
0.0000

> <Gold.PLP.part.buried>
-2.8860

> <Gold.PLP.part.nonpolar>
-29.7880

> <Gold.PLP.part.repulsive>
0.2215

> <Gold.PLP.ligand.clash>
0.0000

> <Gold.PLP.ligand.torsion>
0.2731

> <Gold.PLP.Chemscore.Hbond>
1.9920

> <Gold.PLP.Chemscore.CHOScore>
1.9499

> <Gold.PLP.Chemscore.Metal>
0.0000

> <Gold.Chemscore.Hbonds>
donor molecule, donor type, donor heavy atom, donor atom, acceptor molecule, acceptor atom, score
      L1  H     9    29       P1  7948  1.00
      P1  H  6896  6909       L1    17  1.00
      L1  C     5    26       P1 10186  1.00
      L1  C     7    28       P1 10747  0.47

> <Gold.PLP.Chemscore.Internal.Correction>
0.0815

> <Gold.Rescore>
     Score         DG    S(hbond)    S(metal)    S(lipo)     H(rot)  DE(clash)    DE(int)     intcor
     15.71     -16.03       1.92        0.00      79.00       1.99       0.08       0.25       ----

> <Gold.Chemscore.Fitness>
15.7068

> <Gold.Chemscore.DG>
-16.0309

> <Gold.Chemscore.ZeroCoef>
-5.4800

> <Gold.Chemscore.Hbond>
1.9170

> <Gold.Chemscore.Metal>
0.0000

> <Gold.Chemscore.Lipo>
78.9959

> <Gold.Chemscore.Internal_Hbond>
0.0000

> <Gold.Chemscore.DEClash>
0.0777

> <Gold.Chemscore.DEInternal>
0.2464

> <Gold.Chemscore.Rot>
1.9900

> <Gold.Chemscore.Internal.Correction>
   9.000000E+99

> <Gold.Chemscore.Hbonds>
donor molecule, donor type, donor heavy atom, donor atom, acceptor molecule, acceptor atom, score
      L1  H     9    29       P1  7948  0.85
      P1  H  6896  6909       L1    17  0.86

> <Gold.Chemscore.Hbond.Weighted>
-6.4027

> <Gold.Chemscore.Metal.Weighted>
-0.0000

> <Gold.Chemscore.Lipo.Weighted>
-9.2425

> <Gold.Chemscore.Internal_Hbond.Weighted>
0.0000

> <Gold.Chemscore.DEClash.Weighted>
0.0777

> <Gold.Chemscore.DEInternal.Weighted>
0.2464

> <Gold.Chemscore.Rot.Weighted>
5.0944

> <Gold.Chemscore.Internal.Correction.Weighted>
   9.000000E+99

> <Gold.Protein.RotatedTorsions>
[ 6907 6896 6895 6894 ] final  -41.22 input  -60.11 | X-H torsion
[ 7974 7965 7964 7962 ] final -107.15 input  175.53 | X-H torsion
[ 8008 7997 7996 7995 ] final  -25.66 input   59.86 | X-H torsion
[ 10167 10162 10161 10158 ] final  141.58 input  -65.29 | X-H torsion
[ 10718 10713 10712 10709 ] final  171.50 input   66.30 | X-H torsion
[ 10763 10752 10751 10750 ] final -164.07 input  -60.55 | X-H torsion
[ 11005 11000 10999 10996 ] final  -61.23 input  -57.11 | X-H torsion

> <Gold.Protein.ActiveResidues>
 VAL166  LYS551  ARG553  GLY616  TRP617  ASP618  TYR619  PRO620  LYS621  CYS622 
 ASP623  PHE694  ASN695  SER759  ASP760  ASP761  ALA762  ILE779  LEU786  VAL792 
 PHE793  MET794  SER795  GLU796  ALA797  LYS798  CYS799  TRP800  GLU811  SER814 

> <Gold.Protein.RotatedAtoms>
  150.9693  134.9069  159.7778 H   0  0  0  0  0  0  0  0  0  0  0  0  # atno 6907 bound_to 6896
  152.5184  134.3563  159.9279 H   0  0  0  0  0  0  0  0  0  0  0  0  # atno 6908 bound_to 6896
  151.3572  133.3862  159.2720 H   0  0  0  0  0  0  0  0  0  0  0  0  # atno 6909 bound_to 6896
  145.2089  140.9088  143.3326 H   0  0  0  0  0  0  0  0  0  0  0  0  # atno 7974 bound_to 7965
  154.4464  140.1920  156.0654 H   0  0  0  0  0  0  0  0  0  0  0  0  # atno 8008 bound_to 7997
  156.0551  140.3303  155.7369 H   0  0  0  0  0  0  0  0  0  0  0  0  # atno 8009 bound_to 7997
  155.5497  140.0594  157.2843 H   0  0  0  0  0  0  0  0  0  0  0  0  # atno 8010 bound_to 7997
  139.5017  144.6162  151.6157 H   0  0  0  0  0  0  0  0  0  0  0  0  # atno 10167 bound_to 10162
  156.9927  131.0152  151.2852 H   0  0  0  0  0  0  0  0  0  0  0  0  # atno 10718 bound_to 10713
  154.7063  135.2997  154.9265 H   0  0  0  0  0  0  0  0  0  0  0  0  # atno 10763 bound_to 10752
  154.0181  135.6686  153.4774 H   0  0  0  0  0  0  0  0  0  0  0  0  # atno 10764 bound_to 10752
  153.0720  135.5056  154.8236 H   0  0  0  0  0  0  0  0  0  0  0  0  # atno 10765 bound_to 10752
  141.1317  133.6628  156.5344 H   0  0  0  0  0  0  0  0  0  0  0  0  # atno 11005 bound_to 11000
  144.9875  139.3722  143.6231 LP  0  0  0  0  0  0  0  0  0  0  0  0  # atno 17320 bound_to 7965
  146.3402  139.9043  142.8789 LP  0  0  0  0  0  0  0  0  0  0  0  0  # atno 17321 bound_to 7965
  140.5851  143.9878  150.6291 LP  0  0  0  0  0  0  0  0  0  0  0  0  # atno 17342 bound_to 10162
  140.3040  143.3242  152.0944 LP  0  0  0  0  0  0  0  0  0  0  0  0  # atno 17343 bound_to 10162
  157.5447  130.8143  149.8071 LP  0  0  0  0  0  0  0  0  0  0  0  0  # atno 17370 bound_to 10713
  156.0201  130.3799  150.1988 LP  0  0  0  0  0  0  0  0  0  0  0  0  # atno 17371 bound_to 10713
  140.4190  134.7205  157.4879 LP  0  0  0  0  0  0  0  0  0  0  0  0  # atno 17394 bound_to 11000
  140.0373  134.6318  155.9026 LP  0  0  0  0  0  0  0  0  0  0  0  0  # atno 17395 bound_to 11000

$$$$
