AV-unprocessed.smi:3158|AV-procd|sdf|12044|dock2
  -GOLD-   2272017463D 1   1.00000     0.00000
 Structure written by MMmdl.
 40 40  0  0  0  0  0  0  0  0  2 V2000
  150.8930  137.3101  154.6677 C   0  0  0  0  0  0  0  0  0  0  0  0
  150.5952  138.7197  154.1359 C   0  0  0  0  0  0  0  0  0  0  0  0
  149.1614  139.1990  154.4288 C   0  0  1  0  0  0  0  0  0  0  0  0
  149.0456  140.7288  154.3598 C   0  0  0  0  0  0  0  0  0  0  0  0
  148.2249  138.5943  153.4838 N   0  0  0  0  0  0  0  0  0  0  0  0
  146.8890  138.7199  153.5158 C   0  0  0  0  0  0  0  0  0  0  0  0
  146.2884  139.3701  154.3724 O   0  0  0  0  0  0  0  0  0  0  0  0
  146.1121  137.9863  152.4129 C   0  0  1  0  0  0  0  0  0  0  0  0
  146.5053  138.5424  151.0355 C   0  0  0  0  0  0  0  0  0  0  0  0
  146.3468  136.5240  152.4479 N   0  3  0  0  0  0  0  0  0  0  0  0
  145.7359  135.7627  151.3373 C   0  0  0  0  0  0  0  0  0  0  0  0
  146.3986  134.3866  151.1864 C   0  0  0  0  0  0  0  0  0  0  0  0
  145.4263  133.3530  150.8899 N   0  0  0  0  0  0  0  0  0  0  0  0
  145.6366  132.0017  150.7114 C   0  0  0  0  0  0  0  0  0  0  0  0
  144.4229  131.4337  150.4497 C   0  0  0  0  0  0  0  0  0  0  0  0
  143.5195  132.5324  150.4879 C   0  0  0  0  0  0  0  0  0  0  0  0
  144.1235  133.6803  150.7520 N   0  0  0  0  0  0  0  0  0  0  0  0
  151.9310  137.0364  154.4772 H   0  0  0  0  0  0  0  0  0  0  0  0
  150.2624  136.5586  154.1919 H   0  0  0  0  0  0  0  0  0  0  0  0
  150.7278  137.2538  155.7440 H   0  0  0  0  0  0  0  0  0  0  0  0
  151.3038  139.4164  154.5855 H   0  0  0  0  0  0  0  0  0  0  0  0
  150.7841  138.7478  153.0618 H   0  0  0  0  0  0  0  0  0  0  0  0
  148.9127  138.8900  155.4458 H   0  0  0  0  0  0  0  0  0  0  0  0
  149.7207  141.2053  155.0711 H   0  0  0  0  0  0  0  0  0  0  0  0
  148.0337  141.0587  154.5975 H   0  0  0  0  0  0  0  0  0  0  0  0
  149.2932  141.1022  153.3654 H   0  0  0  0  0  0  0  0  0  0  0  0
  148.6294  138.0340  152.7475 H   0  0  0  0  0  0  0  0  0  0  0  0
  145.0447  138.1623  152.5569 H   0  0  0  0  0  0  0  0  0  0  0  0
  146.3141  139.6143  150.9693 H   0  0  0  0  0  0  0  0  0  0  0  0
  145.9323  138.0618  150.2421 H   0  0  0  0  0  0  0  0  0  0  0  0
  147.5634  138.3799  150.8247 H   0  0  0  0  0  0  0  0  0  0  0  0
  147.3438  136.3673  152.4124 H   0  0  0  0  0  0  0  0  0  0  0  0
  144.6678  135.6360  151.5182 H   0  0  0  0  0  0  0  0  0  0  0  0
  145.8401  136.3337  150.4137 H   0  0  0  0  0  0  0  0  0  0  0  0
  147.1425  134.4027  150.3884 H   0  0  0  0  0  0  0  0  0  0  0  0
  146.9226  134.1154  152.1039 H   0  0  0  0  0  0  0  0  0  0  0  0
  146.6199  131.5607  150.7850 H   0  0  0  0  0  0  0  0  0  0  0  0
  144.2123  130.3917  150.2590 H   0  0  0  0  0  0  0  0  0  0  0  0
  142.4508  132.5294  150.3328 H   0  0  0  0  0  0  0  0  0  0  0  0
  145.9946  136.1670  153.3250 H   0  0  0  0  0  0  0  0  0  0  0  0
  1  2  1  0  0  0  0
  1 18  1  0  0  0  0
  1 19  1  0  0  0  0
  1 20  1  0  0  0  0
  2  3  1  0  0  0  0
  2 21  1  0  0  0  0
  2 22  1  0  0  0  0
  3  4  1  0  0  0  0
  3  5  1  0  0  0  0
  3 23  1  0  0  0  0
  4 24  1  0  0  0  0
  4 25  1  0  0  0  0
  4 26  1  0  0  0  0
  5  6  1  0  0  0  0
  5 27  1  0  0  0  0
  6  7  2  0  0  0  0
  6  8  1  0  0  0  0
  8  9  1  0  0  0  0
  8 10  1  0  0  0  0
  8 28  1  0  0  0  0
  9 29  1  0  0  0  0
  9 30  1  0  0  0  0
  9 31  1  0  0  0  0
 10 11  1  0  0  0  0
 10 32  1  0  0  0  0
 10 40  1  0  0  0  0
 11 12  1  0  0  0  0
 11 33  1  0  0  0  0
 11 34  1  0  0  0  0
 12 13  1  0  0  0  0
 12 35  1  0  0  0  0
 12 36  1  0  0  0  0
 13 17  1  0  0  0  0
 13 14  1  0  0  0  0
 14 15  2  0  0  0  0
 14 37  1  0  0  0  0
 15 16  1  0  0  0  0
 15 38  1  0  0  0  0
 16 17  2  0  0  0  0
 16 39  1  0  0  0  0
M  CHG  1  10   1
M  END
> <s_m_source_file>
AV-unprocessed.smi

> <i_m_source_file_index>
3158

> <i_lp_mmshare_version>
43012

> <i_f3d_flags>
0

> <s_epik_input>
W0NIM11bQ0gyXVtDQEhdKFtDSDNdKVtOSF1DKD1PKVtDQEhdKFtDSDNdKVtOSF1bQ0gyXVtDSDJdbjFbY0hdW2NIXVtjSF1uMQ==

> <s_epik_cmdline>
J2VwaWtfcHl0aG9uJywgJy1waCcsICc3LjAnLCAnLXRuJywgJzgnLCAnLW1hJywgJzIwMCcsICctbWV0YWxfYmluZGluZycsICctaW1hZScsICc8aW5maWxlLm1hZT4nLCAnLW9tYWUnLCAnPG91dGZpbGUubWFlPic=

> <r_lp_tautomer_probability>
1

> <r_epik_Ionization_Penalty>
0.20724

> <r_epik_Ionization_Penalty_Charging>
0.207237

> <r_epik_Ionization_Penalty_Neutral>
3.33806e-06

> <r_epik_State_Penalty>
0.197234

> <r_epik_Charging_Adjusted_Penalty>
0.404471

> <i_epik_Tot_Q>
1

> <i_epik_Tot_abs_Q>
1

> <r_epik_Metal_State_Penalty>
0.197524

> <b_epik_Metal_Only>
0

> <s_lp_Force_Field>
OPLS_2005

> <r_lp_Energy>
5.19885

> <b_lp_Chiralities_Consistent>
1

> <s_lp_Variant>
AV-unprocessed.smi:3158-4

> <Gold.Version>
5.8.1

> <Gold.Id.Protein>
6NUR|6NUR_protein|mol2

> <Gold.PLP.Fitness>
47.9515

> <Gold.PLP.PLP>
-33.3002

> <Gold.PLP.part.hbond>
-2.9585

> <Gold.PLP.part.metal>
0.0000

> <Gold.PLP.part.buried>
-0.1869

> <Gold.PLP.part.nonpolar>
-31.8518

> <Gold.PLP.part.repulsive>
0.3298

> <Gold.PLP.ligand.clash>
0.0000

> <Gold.PLP.ligand.torsion>
0.5909

> <Gold.PLP.Chemscore.Hbond>
3.0000

> <Gold.PLP.Chemscore.CHOScore>
2.2261

> <Gold.PLP.Chemscore.Metal>
0.0000

> <Gold.Chemscore.Hbonds>
donor molecule, donor type, donor heavy atom, donor atom, acceptor molecule, acceptor atom, score
      L1  H     5    27       P1  7948  1.00
      L1  H    10    32       P1  7948  2.00
      L1  C    14    37       P1 10747  1.00
      L1  C    16    39       P1 10186  0.97
      L1  C    16    39       P1 10952  0.27

> <Gold.PLP.Chemscore.Internal.Correction>
0.1548

> <Gold.Rescore>
     Score         DG    S(hbond)    S(metal)    S(lipo)     H(rot)  DE(clash)    DE(int)     intcor
     15.41     -16.88       1.95        0.00      90.28       2.21       0.82       0.65       ----

> <Gold.Chemscore.Fitness>
15.4067

> <Gold.Chemscore.DG>
-16.8760

> <Gold.Chemscore.ZeroCoef>
-5.4800

> <Gold.Chemscore.Hbond>
1.9459

> <Gold.Chemscore.Metal>
0.0000

> <Gold.Chemscore.Lipo>
90.2785

> <Gold.Chemscore.Internal_Hbond>
0.0000

> <Gold.Chemscore.DEClash>
0.8166

> <Gold.Chemscore.DEInternal>
0.6527

> <Gold.Chemscore.Rot>
2.2132

> <Gold.Chemscore.Internal.Correction>
   9.000000E+99

> <Gold.Chemscore.Hbonds>
donor molecule, donor type, donor heavy atom, donor atom, acceptor molecule, acceptor atom, score
      L1  H     5    27       P1  7948  0.92
      L1  H    10    32       P1  7948  1.00

> <Gold.Chemscore.Hbond.Weighted>
-6.4993

> <Gold.Chemscore.Metal.Weighted>
-0.0000

> <Gold.Chemscore.Lipo.Weighted>
-10.5626

> <Gold.Chemscore.Internal_Hbond.Weighted>
0.0000

> <Gold.Chemscore.DEClash.Weighted>
0.8166

> <Gold.Chemscore.DEInternal.Weighted>
0.6527

> <Gold.Chemscore.Rot.Weighted>
5.6658

> <Gold.Chemscore.Internal.Correction.Weighted>
   9.000000E+99

> <Gold.Protein.RotatedTorsions>
[ 6907 6896 6895 6894 ] final  -11.87 input  -60.11 | X-H torsion
[ 7974 7965 7964 7962 ] final  -42.66 input  175.53 | X-H torsion
[ 8008 7997 7996 7995 ] final   36.76 input   59.86 | X-H torsion
[ 10167 10162 10161 10158 ] final   81.00 input  -65.29 | X-H torsion
[ 10718 10713 10712 10709 ] final   53.20 input   66.30 | X-H torsion
[ 10763 10752 10751 10750 ] final   20.66 input  -60.55 | X-H torsion
[ 11005 11000 10999 10996 ] final  161.98 input  -57.11 | X-H torsion

> <Gold.Protein.ActiveResidues>
 VAL166  LYS551  ARG553  GLY616  TRP617  ASP618  TYR619  PRO620  LYS621  CYS622 
 ASP623  PHE694  ASN695  SER759  ASP760  ASP761  ALA762  ILE779  LEU786  VAL792 
 PHE793  MET794  SER795  GLU796  ALA797  LYS798  CYS799  TRP800  GLU811  SER814 

> <Gold.Protein.RotatedAtoms>
  151.3795  135.0937  159.9491 H   0  0  0  0  0  0  0  0  0  0  0  0  # atno 6907 bound_to 6896
  152.5112  133.9086  159.7487 H   0  0  0  0  0  0  0  0  0  0  0  0  # atno 6908 bound_to 6896
  150.9516  133.6487  159.2800 H   0  0  0  0  0  0  0  0  0  0  0  0  # atno 6909 bound_to 6896
  146.0094  140.6982  142.9231 H   0  0  0  0  0  0  0  0  0  0  0  0  # atno 7974 bound_to 7965
  155.1927  140.3309  155.4356 H   0  0  0  0  0  0  0  0  0  0  0  0  # atno 8008 bound_to 7997
  156.2436  140.1907  156.6969 H   0  0  0  0  0  0  0  0  0  0  0  0  # atno 8009 bound_to 7997
  154.6195  140.0597  156.9582 H   0  0  0  0  0  0  0  0  0  0  0  0  # atno 8010 bound_to 7997
  139.9438  144.6072  150.8226 H   0  0  0  0  0  0  0  0  0  0  0  0  # atno 10167 bound_to 10162
  157.5145  130.8523  149.8478 H   0  0  0  0  0  0  0  0  0  0  0  0  # atno 10718 bound_to 10713
  153.1059  135.6684  153.9587 H   0  0  0  0  0  0  0  0  0  0  0  0  # atno 10763 bound_to 10752
  153.9144  135.3021  155.3449 H   0  0  0  0  0  0  0  0  0  0  0  0  # atno 10764 bound_to 10752
  154.7480  135.5048  153.9315 H   0  0  0  0  0  0  0  0  0  0  0  0  # atno 10765 bound_to 10752
  140.2212  134.8195  157.3222 H   0  0  0  0  0  0  0  0  0  0  0  0  # atno 11005 bound_to 11000
  144.6947  140.3372  143.7205 LP  0  0  0  0  0  0  0  0  0  0  0  0  # atno 17320 bound_to 7965
  145.7365  139.1751  143.2400 LP  0  0  0  0  0  0  0  0  0  0  0  0  # atno 17321 bound_to 7965
  140.7603  143.3148  151.2758 LP  0  0  0  0  0  0  0  0  0  0  0  0  # atno 17342 bound_to 10162
  139.6683  144.0065  152.2737 LP  0  0  0  0  0  0  0  0  0  0  0  0  # atno 17343 bound_to 10162
  156.0311  130.3764  150.1685 LP  0  0  0  0  0  0  0  0  0  0  0  0  # atno 17370 bound_to 10713
  156.9874  130.9883  151.3423 LP  0  0  0  0  0  0  0  0  0  0  0  0  # atno 17371 bound_to 10713
  140.1848  134.4445  155.7750 LP  0  0  0  0  0  0  0  0  0  0  0  0  # atno 17394 bound_to 11000
  141.2223  133.7000  156.7929 LP  0  0  0  0  0  0  0  0  0  0  0  0  # atno 17395 bound_to 11000

$$$$
