AV-unprocessed.smi:3335|AV-procd|sdf|12848|dock10
  -GOLD-   2272019233D 1   1.00000     0.00000
 Structure written by MMmdl.
 46 47  0  0  0  0  0  0  0  0  1 V2000
  145.8774  143.5012  153.7541 C   0  0  0  0  0  0  0  0  0  0  0  0
  146.6412  142.2118  153.8464 C   0  0  0  0  0  0  0  0  0  0  0  0
  148.0503  142.0244  153.7715 C   0  0  0  0  0  0  0  0  0  0  0  0
  148.4074  140.7563  153.8896 N   0  0  0  0  0  0  0  0  0  0  0  0
  147.2423  140.0875  154.0420 N   0  0  0  0  0  0  0  0  0  0  0  0
  147.2408  138.6396  154.2129 C   0  0  1  0  0  0  0  0  0  0  0  0
  146.9454  138.2825  155.6826 C   0  0  0  0  0  0  0  0  0  0  0  0
  146.2782  137.9393  153.2150 C   0  0  1  0  0  0  0  0  0  0  0  0
  146.4074  138.4607  151.7710 C   0  0  0  0  0  0  0  0  0  0  0  0
  146.5769  136.5070  153.1817 N   0  0  0  0  0  0  0  0  0  0  0  0
  145.5806  135.6859  152.4687 C   0  0  2  0  0  0  0  0  0  0  0  0
  144.2855  135.6160  153.2914 C   0  0  0  0  0  0  0  0  0  0  0  0
  146.0847  134.2574  152.1619 C   0  0  0  0  0  0  0  0  0  0  0  0
  147.0723  133.8373  152.7675 O   0  0  0  0  0  0  0  0  0  0  0  0
  145.4416  133.5050  151.2425 N   0  0  0  0  0  0  0  0  0  0  0  0
  145.8119  132.1588  150.8060 C   0  0  0  0  0  0  0  0  0  0  0  0
  144.9348  131.8577  149.5907 C   0  0  0  0  0  0  0  0  0  0  0  0
  143.7111  132.7404  149.7871 C   0  0  0  0  0  0  0  0  0  0  0  0
  144.2513  133.9637  150.5277 C   0  0  0  0  0  0  0  0  0  0  0  0
  146.1616  140.9445  154.0204 C   0  0  0  0  0  0  0  0  0  0  0  0
  145.7383  143.8111  152.7184 H   0  0  0  0  0  0  0  0  0  0  0  0
  146.3934  144.3132  154.2668 H   0  0  0  0  0  0  0  0  0  0  0  0
  144.8867  143.4185  154.2013 H   0  0  0  0  0  0  0  0  0  0  0  0
  148.8205  142.7694  153.6361 H   0  0  0  0  0  0  0  0  0  0  0  0
  148.2561  138.3046  153.9939 H   0  0  0  0  0  0  0  0  0  0  0  0
  147.1007  137.2208  155.8732 H   0  0  0  0  0  0  0  0  0  0  0  0
  145.9169  138.5216  155.9541 H   0  0  0  0  0  0  0  0  0  0  0  0
  147.6041  138.8292  156.3581 H   0  0  0  0  0  0  0  0  0  0  0  0
  145.2531  138.1225  153.5403 H   0  0  0  0  0  0  0  0  0  0  0  0
  146.1139  139.5076  151.6937 H   0  0  0  0  0  0  0  0  0  0  0  0
  145.7652  137.9025  151.0891 H   0  0  0  0  0  0  0  0  0  0  0  0
  147.4319  138.3754  151.4075 H   0  0  0  0  0  0  0  0  0  0  0  0
  147.5059  136.3591  152.8137 H   0  0  0  0  0  0  0  0  0  0  0  0
  145.3475  136.2089  151.5432 H   0  0  0  0  0  0  0  0  0  0  0  0
  143.5125  135.0538  152.7658 H   0  0  0  0  0  0  0  0  0  0  0  0
  143.8894  136.6139  153.4815 H   0  0  0  0  0  0  0  0  0  0  0  0
  144.4484  135.1350  154.2568 H   0  0  0  0  0  0  0  0  0  0  0  0
  146.8696  132.0841  150.5499 H   0  0  0  0  0  0  0  0  0  0  0  0
  145.6015  131.4527  151.6109 H   0  0  0  0  0  0  0  0  0  0  0  0
  145.4566  132.1564  148.6806 H   0  0  0  0  0  0  0  0  0  0  0  0
  144.6847  130.8004  149.5006 H   0  0  0  0  0  0  0  0  0  0  0  0
  143.2177  132.9967  148.8492 H   0  0  0  0  0  0  0  0  0  0  0  0
  142.9855  132.2230  150.4162 H   0  0  0  0  0  0  0  0  0  0  0  0
  143.5015  134.3797  151.2027 H   0  0  0  0  0  0  0  0  0  0  0  0
  144.5403  134.7427  149.8204 H   0  0  0  0  0  0  0  0  0  0  0  0
  145.1490  140.5853  154.1323 H   0  0  0  0  0  0  0  0  0  0  0  0
  1  2  1  0  0  0  0
  1 21  1  0  0  0  0
  1 22  1  0  0  0  0
  1 23  1  0  0  0  0
  2 20  2  0  0  0  0
  2  3  1  0  0  0  0
  3  4  2  0  0  0  0
  3 24  1  0  0  0  0
  4  5  1  0  0  0  0
  5  6  1  0  0  0  0
  5 20  1  0  0  0  0
  6  7  1  0  0  0  0
  6  8  1  0  0  0  0
  6 25  1  0  0  0  0
  7 26  1  0  0  0  0
  7 27  1  0  0  0  0
  7 28  1  0  0  0  0
  8  9  1  0  0  0  0
  8 10  1  0  0  0  0
  8 29  1  0  0  0  0
  9 30  1  0  0  0  0
  9 31  1  0  0  0  0
  9 32  1  0  0  0  0
 10 11  1  0  0  0  0
 10 33  1  0  0  0  0
 11 12  1  0  0  0  0
 11 13  1  0  0  0  0
 11 34  1  0  0  0  0
 12 35  1  0  0  0  0
 12 36  1  0  0  0  0
 12 37  1  0  0  0  0
 13 14  2  0  0  0  0
 13 15  1  0  0  0  0
 15 19  1  0  0  0  0
 15 16  1  0  0  0  0
 16 17  1  0  0  0  0
 16 38  1  0  0  0  0
 16 39  1  0  0  0  0
 17 18  1  0  0  0  0
 17 40  1  0  0  0  0
 17 41  1  0  0  0  0
 18 19  1  0  0  0  0
 18 42  1  0  0  0  0
 18 43  1  0  0  0  0
 19 44  1  0  0  0  0
 19 45  1  0  0  0  0
 20 46  1  0  0  0  0
M  END
> <s_m_source_file>
AV-unprocessed.smi

> <i_m_source_file_index>
3335

> <i_lp_mmshare_version>
43012

> <i_f3d_flags>
0

> <s_epik_input>
W0NIM11jMVtjSF1ubihbY0hdMSlbQ0BIXShbQ0gzXSlbQ0BIXShbQ0gzXSlbTkhdW0NASF0oW0NIM10pQyg9TylOMltDSDJdW0NIMl1bQ0gyXVtDSDJdMg==

> <s_epik_cmdline>
J2VwaWtfcHl0aG9uJywgJy1waCcsICc3LjAnLCAnLXRuJywgJzgnLCAnLW1hJywgJzIwMCcsICctbWV0YWxfYmluZGluZycsICctaW1hZScsICc8aW5maWxlLm1hZT4nLCAnLW9tYWUnLCAnPG91dGZpbGUubWFlPic=

> <r_lp_tautomer_probability>
1

> <r_epik_Ionization_Penalty>
0.918803

> <r_epik_Ionization_Penalty_Charging>
0

> <r_epik_Ionization_Penalty_Neutral>
0.918803

> <r_epik_State_Penalty>
0.958258

> <r_epik_Charging_Adjusted_Penalty>
0.958258

> <i_epik_Tot_Q>
0

> <i_epik_Tot_abs_Q>
0

> <r_epik_Metal_State_Penalty>
0.956786

> <b_epik_Metal_Only>
0

> <s_lp_Force_Field>
OPLS_2005

> <r_lp_Energy>
37.1843

> <b_lp_Chiralities_Consistent>
1

> <s_lp_Variant>
AV-unprocessed.smi:3335-12

> <Gold.Version>
5.8.1

> <Gold.Id.Protein>
6NUR|6NUR_protein|mol2

> <Gold.PLP.Fitness>
42.2108

> <Gold.PLP.PLP>
-35.5464

> <Gold.PLP.part.hbond>
-1.0000

> <Gold.PLP.part.metal>
0.0000

> <Gold.PLP.part.buried>
-1.7328

> <Gold.PLP.part.nonpolar>
-33.6838

> <Gold.PLP.part.repulsive>
1.0892

> <Gold.PLP.ligand.clash>
0.0000

> <Gold.PLP.ligand.torsion>
0.8797

> <Gold.PLP.Chemscore.Hbond>
1.0000

> <Gold.PLP.Chemscore.CHOScore>
1.7757

> <Gold.PLP.Chemscore.Metal>
0.0000

> <Gold.Chemscore.Hbonds>
donor molecule, donor type, donor heavy atom, donor atom, acceptor molecule, acceptor atom, score
      L1  H    10    33       P1  7948  1.00
      L1  C     3    24       P1  8028  0.27
      L1  C    20    46       P1 10175  0.88

> <Gold.PLP.Chemscore.Internal.Correction>
0.0968

> <Gold.Rescore>
     Score         DG    S(hbond)    S(metal)    S(lipo)     H(rot)  DE(clash)    DE(int)     intcor
     13.71     -14.90       1.00        0.00      87.47       1.62       0.37       0.82       ----

> <Gold.Chemscore.Fitness>
13.7112

> <Gold.Chemscore.DG>
-14.8970

> <Gold.Chemscore.ZeroCoef>
-5.4800

> <Gold.Chemscore.Hbond>
0.9975

> <Gold.Chemscore.Metal>
0.0000

> <Gold.Chemscore.Lipo>
87.4657

> <Gold.Chemscore.Internal_Hbond>
0.0000

> <Gold.Chemscore.DEClash>
0.3675

> <Gold.Chemscore.DEInternal>
0.8183

> <Gold.Chemscore.Rot>
1.6204

> <Gold.Chemscore.Internal.Correction>
   9.000000E+99

> <Gold.Chemscore.Hbonds>
donor molecule, donor type, donor heavy atom, donor atom, acceptor molecule, acceptor atom, score
      L1  H    10    33       P1  7948  1.00

> <Gold.Chemscore.Hbond.Weighted>
-3.3317

> <Gold.Chemscore.Metal.Weighted>
-0.0000

> <Gold.Chemscore.Lipo.Weighted>
-10.2335

> <Gold.Chemscore.Internal_Hbond.Weighted>
0.0000

> <Gold.Chemscore.DEClash.Weighted>
0.3675

> <Gold.Chemscore.DEInternal.Weighted>
0.8183

> <Gold.Chemscore.Rot.Weighted>
4.1482

> <Gold.Chemscore.Internal.Correction.Weighted>
   9.000000E+99

> <Gold.Protein.RotatedTorsions>
[ 6907 6896 6895 6894 ] final  -20.58 input  -60.11 | X-H torsion
[ 7974 7965 7964 7962 ] final   24.62 input  175.53 | X-H torsion
[ 8008 7997 7996 7995 ] final  153.12 input   59.86 | X-H torsion
[ 10167 10162 10161 10158 ] final   78.32 input  -65.29 | X-H torsion
[ 10718 10713 10712 10709 ] final  -45.26 input   66.30 | X-H torsion
[ 10763 10752 10751 10750 ] final  -54.80 input  -60.55 | X-H torsion
[ 11005 11000 10999 10996 ] final   23.25 input  -57.11 | X-H torsion

> <Gold.Protein.ActiveResidues>
 VAL166  LYS551  ARG553  GLY616  TRP617  ASP618  TYR619  PRO620  LYS621  CYS622 
 ASP623  PHE694  ASN695  SER759  ASP760  ASP761  ALA762  ILE779  LEU786  VAL792 
 PHE793  MET794  SER795  GLU796  ALA797  LYS798  CYS799  TRP800  GLU811  SER814 

> <Gold.Protein.RotatedAtoms>
  151.2461  135.0606  159.9043 H   0  0  0  0  0  0  0  0  0  0  0  0  # atno 6907 bound_to 6896
  152.5386  134.0382  159.8066 H   0  0  0  0  0  0  0  0  0  0  0  0  # atno 6908 bound_to 6896
  151.0583  133.5516  159.2667 H   0  0  0  0  0  0  0  0  0  0  0  0  # atno 6909 bound_to 6896
  146.1928  139.7579  142.8819 H   0  0  0  0  0  0  0  0  0  0  0  0  # atno 7974 bound_to 7965
  156.2597  140.2002  156.6440 H   0  0  0  0  0  0  0  0  0  0  0  0  # atno 8008 bound_to 7997
  154.6587  140.0563  157.0063 H   0  0  0  0  0  0  0  0  0  0  0  0  # atno 8009 bound_to 7997
  155.1308  140.3233  155.4477 H   0  0  0  0  0  0  0  0  0  0  0  0  # atno 8010 bound_to 7997
  139.9722  144.5886  150.7975 H   0  0  0  0  0  0  0  0  0  0  0  0  # atno 10167 bound_to 10162
  156.2301  130.4172  149.8885 H   0  0  0  0  0  0  0  0  0  0  0  0  # atno 10718 bound_to 10713
  154.1806  135.6444  153.5033 H   0  0  0  0  0  0  0  0  0  0  0  0  # atno 10763 bound_to 10752
  153.0060  135.5405  154.6518 H   0  0  0  0  0  0  0  0  0  0  0  0  # atno 10764 bound_to 10752
  154.5881  135.2931  155.0636 H   0  0  0  0  0  0  0  0  0  0  0  0  # atno 10765 bound_to 10752
  140.3716  134.2016  155.7666 H   0  0  0  0  0  0  0  0  0  0  0  0  # atno 11005 bound_to 11000
  145.3738  141.0347  143.3216 LP  0  0  0  0  0  0  0  0  0  0  0  0  # atno 17320 bound_to 7965
  144.8521  139.5306  143.6851 LP  0  0  0  0  0  0  0  0  0  0  0  0  # atno 17321 bound_to 7965
  140.7518  143.2979  151.3156 LP  0  0  0  0  0  0  0  0  0  0  0  0  # atno 17342 bound_to 10162
  139.6473  144.0428  152.2600 LP  0  0  0  0  0  0  0  0  0  0  0  0  # atno 17343 bound_to 10162
  156.6502  130.8740  151.3530 LP  0  0  0  0  0  0  0  0  0  0  0  0  # atno 17370 bound_to 10713
  157.7129  130.9462  150.1152 LP  0  0  0  0  0  0  0  0  0  0  0  0  # atno 17371 bound_to 10713
  141.1952  133.8110  157.0723 LP  0  0  0  0  0  0  0  0  0  0  0  0  # atno 17394 bound_to 11000
  140.0547  134.9787  157.1199 LP  0  0  0  0  0  0  0  0  0  0  0  0  # atno 17395 bound_to 11000

$$$$
