AV-unprocessed.smi:40|AV-procd|sdf|368|dock6
  -GOLD-   2262016213D 1   1.00000     0.00000
 Structure written by MMmdl.
 47 48  0  0  0  0  0  0  0  0  1 V2000
  151.9973  143.9912  158.2136 C   0  0  0  0  0  0  0  0  0  0  0  0
  150.7765  143.1156  157.9014 C   0  0  0  0  0  0  0  0  0  0  0  0
  151.0665  141.9792  156.9071 C   0  0  0  0  0  0  0  0  0  0  0  0
  149.8507  141.5785  156.0524 C   0  0  0  0  0  0  0  0  0  0  0  0
  150.0378  140.2348  155.3352 C   0  0  0  0  0  0  0  0  0  0  0  0
  148.7987  139.8078  154.7943 O   0  0  0  0  0  0  0  0  0  0  0  0
  148.5673  138.5025  154.5677 C   0  0  0  0  0  0  0  0  0  0  0  0
  149.3294  137.5996  154.9124 O   0  0  0  0  0  0  0  0  0  0  0  0
  147.3296  138.2949  153.8326 N   0  0  0  0  0  0  0  0  0  0  0  0
  146.7573  137.1374  153.4179 C   0  0  0  0  0  0  0  0  0  0  0  0
  146.7877  136.0236  154.1334 N   0  0  0  0  0  0  0  0  0  0  0  0
  146.2335  134.8388  153.7306 C   0  0  0  0  0  0  0  0  0  0  0  0
  146.3009  133.8371  154.4420 O   0  0  0  0  0  0  0  0  0  0  0  0
  145.5942  134.8153  152.4694 N   0  0  0  0  0  0  0  0  0  0  0  0
  144.9814  133.5124  151.9979 C   0  0  1  0  0  0  0  0  0  0  0  0
  144.2441  133.7398  150.8301 O   0  0  0  0  0  0  0  0  0  0  0  0
  144.8572  133.0808  149.7262 C   0  0  2  0  0  0  0  0  0  0  0  0
  143.8047  132.7475  148.6629 C   0  0  0  0  0  0  0  0  0  0  0  0
  145.5078  131.8589  150.3702 C   0  0  1  0  0  0  0  0  0  0  0  0
  146.5132  131.2783  149.5610 O   0  0  0  0  0  0  0  0  0  0  0  0
  146.0340  132.4225  151.6858 C   0  0  1  0  0  0  0  0  0  0  0  0
  147.3564  132.9261  151.5620 O   0  0  0  0  0  0  0  0  0  0  0  0
  145.5697  135.9645  151.6927 C   0  0  0  0  0  0  0  0  0  0  0  0
  146.1267  137.1199  152.1150 C   0  0  0  0  0  0  0  0  0  0  0  0
  146.0926  138.2201  151.3432 F   0  0  0  0  0  0  0  0  0  0  0  0
  144.2709  133.2135  152.7703 H   0  0  0  0  0  0  0  0  0  0  0  0
  145.6231  133.7340  149.3056 H   0  0  0  0  0  0  0  0  0  0  0  0
  144.7456  131.1080  150.5839 H   0  0  0  0  0  0  0  0  0  0  0  0
  146.0263  131.6709  152.4758 H   0  0  0  0  0  0  0  0  0  0  0  0
  151.7230  144.8132  158.8752 H   0  0  0  0  0  0  0  0  0  0  0  0
  152.4142  144.4238  157.3038 H   0  0  0  0  0  0  0  0  0  0  0  0
  152.7842  143.4225  158.7081 H   0  0  0  0  0  0  0  0  0  0  0  0
  150.3691  142.7047  158.8259 H   0  0  0  0  0  0  0  0  0  0  0  0
  149.9948  143.7516  157.4847 H   0  0  0  0  0  0  0  0  0  0  0  0
  151.8715  142.3028  156.2460 H   0  0  0  0  0  0  0  0  0  0  0  0
  151.4479  141.1094  157.4433 H   0  0  0  0  0  0  0  0  0  0  0  0
  148.9659  141.5088  156.6845 H   0  0  0  0  0  0  0  0  0  0  0  0
  149.6420  142.3567  155.3172 H   0  0  0  0  0  0  0  0  0  0  0  0
  150.7795  140.3276  154.5409 H   0  0  0  0  0  0  0  0  0  0  0  0
  150.4042  139.4882  156.0410 H   0  0  0  0  0  0  0  0  0  0  0  0
  146.8170  139.1447  153.6468 H   0  0  0  0  0  0  0  0  0  0  0  0
  144.2527  132.2187  147.8215 H   0  0  0  0  0  0  0  0  0  0  0  0
  143.3416  133.6559  148.2776 H   0  0  0  0  0  0  0  0  0  0  0  0
  143.0142  132.1175  149.0719 H   0  0  0  0  0  0  0  0  0  0  0  0
  147.2774  131.1263  150.0960 H   0  0  0  0  0  0  0  0  0  0  0  0
  147.8664  132.3044  151.0661 H   0  0  0  0  0  0  0  0  0  0  0  0
  145.1033  135.9585  150.7194 H   0  0  0  0  0  0  0  0  0  0  0  0
  1  2  1  0  0  0  0
  1 30  1  0  0  0  0
  1 31  1  0  0  0  0
  1 32  1  0  0  0  0
  2  3  1  0  0  0  0
  2 33  1  0  0  0  0
  2 34  1  0  0  0  0
  3  4  1  0  0  0  0
  3 35  1  0  0  0  0
  3 36  1  0  0  0  0
  4  5  1  0  0  0  0
  4 37  1  0  0  0  0
  4 38  1  0  0  0  0
  5  6  1  0  0  0  0
  5 39  1  0  0  0  0
  5 40  1  0  0  0  0
  6  7  1  0  0  0  0
  7  8  2  0  0  0  0
  7  9  1  0  0  0  0
  9 10  1  0  0  0  0
  9 41  1  0  0  0  0
 10 24  1  0  0  0  0
 10 11  2  0  0  0  0
 11 12  1  0  0  0  0
 12 13  2  0  0  0  0
 12 14  1  0  0  0  0
 14 15  1  0  0  0  0
 14 23  1  0  0  0  0
 15 26  1  0  0  0  0
 15 21  1  0  0  0  0
 15 16  1  0  0  0  0
 16 17  1  0  0  0  0
 17 27  1  0  0  0  0
 17 18  1  0  0  0  0
 17 19  1  0  0  0  0
 18 42  1  0  0  0  0
 18 43  1  0  0  0  0
 18 44  1  0  0  0  0
 19 28  1  0  0  0  0
 19 20  1  0  0  0  0
 19 21  1  0  0  0  0
 20 45  1  0  0  0  0
 21 29  1  0  0  0  0
 21 22  1  0  0  0  0
 22 46  1  0  0  0  0
 23 24  2  0  0  0  0
 23 47  1  0  0  0  0
 24 25  1  0  0  0  0
M  END
> <s_m_source_file>
AV-unprocessed.smi

> <i_m_source_file_index>
40

> <i_lp_mmshare_version>
43012

> <i_f3d_flags>
0

> <s_epik_input>
W0NIM11bQ0gyXVtDSDJdW0NIMl1bQ0gyXU9DKD1PKVtOSF1jMW5jKD1PKW4oW2NIXWMxRilbQ0BASF0yT1tDQEhdKFtDSDNdKVtDQEBIXShbT0hdKVtDQEhdMltPSF0=

> <s_epik_cmdline>
J2VwaWtfcHl0aG9uJywgJy1waCcsICc3LjAnLCAnLXRuJywgJzgnLCAnLW1hJywgJzIwMCcsICctbWV0YWxfYmluZGluZycsICctaW1hZScsICc8aW5maWxlLm1hZT4nLCAnLW9tYWUnLCAnPG91dGZpbGUubWFlPic=

> <r_lp_tautomer_probability>
1

> <r_epik_Ionization_Penalty>
2.29506e-06

> <r_epik_Ionization_Penalty_Charging>
8.26867e-09

> <r_epik_Ionization_Penalty_Neutral>
2.2868e-06

> <r_epik_State_Penalty>
-0

> <r_epik_Charging_Adjusted_Penalty>
8.26867e-09

> <i_epik_Tot_Q>
0

> <i_epik_Tot_abs_Q>
0

> <r_epik_Metal_State_Penalty>
-0

> <b_epik_Metal_Only>
0

> <s_epik_Chemistry_Notes>
This compound has an ester and may undergo hydrolysis at high or low pH. This compound contains an acetal/aminal-like group ( X-CH(R)-Y where X, Y are N, S, or O) that may be acid/base labile, releasing an aldehyde.

> <s_lp_Force_Field>
OPLS_2005

> <r_lp_Energy>
42.3286

> <b_lp_Chiralities_Consistent>
1

> <s_lp_Variant>
AV-unprocessed.smi:40-2

> <Gold.Version>
5.8.1

> <Gold.Id.Protein>
6NUR|6NUR_protein|mol2

> <Gold.PLP.Fitness>
39.6448

> <Gold.PLP.PLP>
-35.2866

> <Gold.PLP.part.hbond>
-2.4109

> <Gold.PLP.part.metal>
0.0000

> <Gold.PLP.part.buried>
3.7750

> <Gold.PLP.part.nonpolar>
-37.7925

> <Gold.PLP.part.repulsive>
1.0476

> <Gold.PLP.ligand.clash>
0.0000

> <Gold.PLP.ligand.torsion>
0.9034

> <Gold.PLP.Chemscore.Hbond>
2.0000

> <Gold.PLP.Chemscore.CHOScore>
0.0000

> <Gold.PLP.Chemscore.Metal>
0.0000

> <Gold.Chemscore.Hbonds>
donor molecule, donor type, donor heavy atom, donor atom, acceptor molecule, acceptor atom, score
      L1  H    20    45       P1 10747  1.00
      L1  H    22    46       P1 10747  1.00

> <Gold.PLP.Chemscore.Internal.Correction>
0.1650

> <Gold.Rescore>
     Score         DG    S(hbond)    S(metal)    S(lipo)     H(rot)  DE(clash)    DE(int)     intcor
     11.52     -13.49       1.91        0.00      94.70       3.70       1.15       0.82       ----

> <Gold.Chemscore.Fitness>
11.5204

> <Gold.Chemscore.DG>
-13.4943

> <Gold.Chemscore.ZeroCoef>
-5.4800

> <Gold.Chemscore.Hbond>
1.9147

> <Gold.Chemscore.Metal>
0.0000

> <Gold.Chemscore.Lipo>
94.7013

> <Gold.Chemscore.Internal_Hbond>
0.0000

> <Gold.Chemscore.DEClash>
1.1517

> <Gold.Chemscore.DEInternal>
0.8222

> <Gold.Chemscore.Rot>
3.6957

> <Gold.Chemscore.Internal.Correction>
   9.000000E+99

> <Gold.Chemscore.Hbonds>
donor molecule, donor type, donor heavy atom, donor atom, acceptor molecule, acceptor atom, score
      L1  H    20    45       P1 10747  0.94
      L1  H    22    46       P1 10747  0.97

> <Gold.Chemscore.Hbond.Weighted>
-6.3952

> <Gold.Chemscore.Metal.Weighted>
-0.0000

> <Gold.Chemscore.Lipo.Weighted>
-11.0801

> <Gold.Chemscore.Internal_Hbond.Weighted>
0.0000

> <Gold.Chemscore.DEClash.Weighted>
1.1517

> <Gold.Chemscore.DEInternal.Weighted>
0.8222

> <Gold.Chemscore.Rot.Weighted>
9.4610

> <Gold.Chemscore.Internal.Correction.Weighted>
   9.000000E+99

> <Gold.Protein.RotatedTorsions>
[ 6907 6896 6895 6894 ] final  -88.65 input  -60.11 | X-H torsion
[ 7974 7965 7964 7962 ] final -127.51 input  175.53 | X-H torsion
[ 8008 7997 7996 7995 ] final  -68.07 input   59.86 | X-H torsion
[ 10167 10162 10161 10158 ] final  -18.85 input  -65.29 | X-H torsion
[ 10718 10713 10712 10709 ] final  109.23 input   66.30 | X-H torsion
[ 10763 10752 10751 10750 ] final  -22.12 input  -60.55 | X-H torsion
[ 11005 11000 10999 10996 ] final   27.70 input  -57.11 | X-H torsion

> <Gold.Protein.ActiveResidues>
 VAL166  LYS551  ARG553  GLY616  TRP617  ASP618  TYR619  PRO620  LYS621  CYS622 
 ASP623  PHE694  ASN695  SER759  ASP760  ASP761  ALA762  ILE779  LEU786  VAL792 
 PHE793  MET794  SER795  GLU796  ALA797  LYS798  CYS799  TRP800  GLU811  SER814 

> <Gold.Protein.RotatedAtoms>
  150.6869  134.2708  159.4587 H   0  0  0  0  0  0  0  0  0  0  0  0  # atno 6907 bound_to 6896
  152.0630  134.9579  160.0584 H   0  0  0  0  0  0  0  0  0  0  0  0  # atno 6908 bound_to 6896
  152.0999  133.4209  159.4619 H   0  0  0  0  0  0  0  0  0  0  0  0  # atno 6909 bound_to 6896
  144.9764  140.7596  143.4639 H   0  0  0  0  0  0  0  0  0  0  0  0  # atno 7974 bound_to 7965
  154.4843  140.0880  156.7449 H   0  0  0  0  0  0  0  0  0  0  0  0  # atno 8008 bound_to 7997
  155.4391  140.3453  155.4270 H   0  0  0  0  0  0  0  0  0  0  0  0  # atno 8009 bound_to 7997
  156.1237  140.1481  156.9155 H   0  0  0  0  0  0  0  0  0  0  0  0  # atno 8010 bound_to 7997
  140.7263  143.4876  151.0035 H   0  0  0  0  0  0  0  0  0  0  0  0  # atno 10167 bound_to 10162
  157.6551  131.0909  150.6423 H   0  0  0  0  0  0  0  0  0  0  0  0  # atno 10718 bound_to 10713
  153.6468  135.6982  153.5222 H   0  0  0  0  0  0  0  0  0  0  0  0  # atno 10763 bound_to 10752
  153.2738  135.4207  155.1013 H   0  0  0  0  0  0  0  0  0  0  0  0  # atno 10764 bound_to 10752
  154.8486  135.3585  154.6013 H   0  0  0  0  0  0  0  0  0  0  0  0  # atno 10765 bound_to 10752
  140.3235  134.2517  155.7713 H   0  0  0  0  0  0  0  0  0  0  0  0  # atno 11005 bound_to 11000
  145.2485  139.2042  143.4955 LP  0  0  0  0  0  0  0  0  0  0  0  0  # atno 17320 bound_to 7965
  146.3396  140.2393  142.8595 LP  0  0  0  0  0  0  0  0  0  0  0  0  # atno 17321 bound_to 7965
  139.8578  143.7354  152.3175 LP  0  0  0  0  0  0  0  0  0  0  0  0  # atno 17342 bound_to 10162
  139.7559  144.7521  151.0437 LP  0  0  0  0  0  0  0  0  0  0  0  0  # atno 17343 bound_to 10162
  156.6730  130.4545  149.5651 LP  0  0  0  0  0  0  0  0  0  0  0  0  # atno 17370 bound_to 10713
  156.1984  130.6604  151.1139 LP  0  0  0  0  0  0  0  0  0  0  0  0  # atno 17371 bound_to 10713
  141.2081  133.7788  157.0080 LP  0  0  0  0  0  0  0  0  0  0  0  0  # atno 17394 bound_to 11000
  140.0921  134.9586  157.1793 LP  0  0  0  0  0  0  0  0  0  0  0  0  # atno 17395 bound_to 11000

$$$$
