AV-unprocessed.smi:2728|AV-procd|sdf|10525|dock4
  -GOLD-   2272014563D 1   1.00000     0.00000
 Structure written by MMmdl.
 34 35  0  0  0  0  0  0  0  0  1 V2000
  151.2513  140.9814  156.4386 O   0  0  0  0  0  0  0  0  0  0  0  0
  150.6126  142.0285  156.3279 C   0  0  0  0  0  0  0  0  0  0  0  0
  150.9449  143.1662  156.9553 N   0  0  0  0  0  0  0  0  0  0  0  0
  152.0946  143.3301  157.8373 C   0  0  0  0  0  0  0  0  0  0  0  0
  151.7201  144.0975  159.1165 C   0  0  0  0  0  0  0  0  0  0  0  0
  152.3524  143.5012  160.3587 C   0  0  0  0  0  0  0  0  0  0  0  0
  152.1896  143.9224  161.6122 C   0  0  0  0  0  0  0  0  0  0  0  0
  152.9475  143.0879  162.6078 C   0  0  0  0  0  0  0  0  0  0  0  0
  153.6547  142.0219  161.7415 C   0  0  0  0  0  0  0  0  0  0  0  0
  153.2497  142.2931  160.2750 C   0  0  0  0  0  0  0  0  0  0  0  0
  149.5079  142.1910  155.5781 N   0  0  0  0  0  0  0  0  0  0  0  0
  148.8573  141.2345  154.7536 C   0  0  0  0  0  0  0  0  0  0  0  0
  147.7063  141.7072  154.0828 C   0  0  0  0  0  0  0  0  0  0  0  0
  146.9906  140.8372  153.2369 C   0  0  0  0  0  0  0  0  0  0  0  0
  147.4462  139.5157  153.0853 C   0  0  0  0  0  0  0  0  0  0  0  0
  146.7917  138.6434  152.2826 F   0  0  0  0  0  0  0  0  0  0  0  0
  148.5997  139.1234  153.7893 C   0  0  0  0  0  0  0  0  0  0  0  0
  149.2866  139.9564  154.6000 N   0  0  0  0  0  0  0  0  0  0  0  0
  150.3647  143.9793  156.8093 H   0  0  0  0  0  0  0  0  0  0  0  0
  152.5195  142.3544  158.0791 H   0  0  0  0  0  0  0  0  0  0  0  0
  152.8632  143.8764  157.2899 H   0  0  0  0  0  0  0  0  0  0  0  0
  152.0356  145.1380  159.0267 H   0  0  0  0  0  0  0  0  0  0  0  0
  150.6379  144.1090  159.2521 H   0  0  0  0  0  0  0  0  0  0  0  0
  151.5832  144.7638  161.9136 H   0  0  0  0  0  0  0  0  0  0  0  0
  153.6614  143.7055  163.1533 H   0  0  0  0  0  0  0  0  0  0  0  0
  152.2585  142.6364  163.3219 H   0  0  0  0  0  0  0  0  0  0  0  0
  154.7367  142.0894  161.8590 H   0  0  0  0  0  0  0  0  0  0  0  0
  153.3587  141.0174  162.0456 H   0  0  0  0  0  0  0  0  0  0  0  0
  152.7074  141.4505  159.8449 H   0  0  0  0  0  0  0  0  0  0  0  0
  154.1208  142.4998  159.6528 H   0  0  0  0  0  0  0  0  0  0  0  0
  149.0890  143.1089  155.5911 H   0  0  0  0  0  0  0  0  0  0  0  0
  147.3718  142.7265  154.2104 H   0  0  0  0  0  0  0  0  0  0  0  0
  146.1094  141.1791  152.7145 H   0  0  0  0  0  0  0  0  0  0  0  0
  148.9816  138.1173  153.6997 H   0  0  0  0  0  0  0  0  0  0  0  0
  1  2  2  0  0  0  0
  2  3  1  0  0  0  0
  2 11  1  0  0  0  0
  3  4  1  0  0  0  0
  3 19  1  0  0  0  0
  4  5  1  0  0  0  0
  4 20  1  0  0  0  0
  4 21  1  0  0  0  0
  5  6  1  0  0  0  0
  5 22  1  0  0  0  0
  5 23  1  0  0  0  0
  6 10  1  0  0  0  0
  6  7  2  0  0  0  0
  7  8  1  0  0  0  0
  7 24  1  0  0  0  0
  8  9  1  0  0  0  0
  8 25  1  0  0  0  0
  8 26  1  0  0  0  0
  9 10  1  0  0  0  0
  9 27  1  0  0  0  0
  9 28  1  0  0  0  0
 10 29  1  0  0  0  0
 10 30  1  0  0  0  0
 11 12  1  0  0  0  0
 11 31  1  0  0  0  0
 12 18  1  0  0  0  0
 12 13  2  0  0  0  0
 13 14  1  0  0  0  0
 13 32  1  0  0  0  0
 14 15  2  0  0  0  0
 14 33  1  0  0  0  0
 15 16  1  0  0  0  0
 15 17  1  0  0  0  0
 17 18  2  0  0  0  0
 17 34  1  0  0  0  0
M  END
> <s_m_source_file>
AV-unprocessed.smi

> <i_m_source_file_index>
2728

> <i_lp_mmshare_version>
43012

> <i_f3d_flags>
0

> <s_epik_input>
bjFbY0hdYyhGKVtjSF1bY0hdYzFbTkhdQyg9TylbTkhdW0NIMl1bQ0gyXUMyPVtDSF1bQ0gyXVtDSDJdW0NIMl0y

> <s_epik_cmdline>
J2VwaWtfcHl0aG9uJywgJy1waCcsICc3LjAnLCAnLXRuJywgJzgnLCAnLW1hJywgJzIwMCcsICctbWV0YWxfYmluZGluZycsICctaW1hZScsICc8aW5maWxlLm1hZT4nLCAnLW9tYWUnLCAnPG91dGZpbGUubWFlPic=

> <r_lp_tautomer_probability>
1

> <r_epik_Ionization_Penalty>
3.75783e-05

> <r_epik_Ionization_Penalty_Charging>
0

> <r_epik_Ionization_Penalty_Neutral>
3.75783e-05

> <r_epik_State_Penalty>
-0

> <r_epik_Charging_Adjusted_Penalty>
0

> <i_epik_Tot_Q>
0

> <i_epik_Tot_abs_Q>
0

> <r_epik_Metal_State_Penalty>
-0

> <b_epik_Metal_Only>
0

> <s_lp_Force_Field>
OPLS_2005

> <r_lp_Energy>
20.4042

> <b_lp_Chiralities_Consistent>
1

> <s_lp_Variant>
AV-unprocessed.smi:2728-1

> <Gold.Version>
5.8.1

> <Gold.Id.Protein>
6NUR|6NUR_protein|mol2

> <Gold.PLP.Fitness>
54.8887

> <Gold.PLP.PLP>
-47.1462

> <Gold.PLP.part.hbond>
-2.0000

> <Gold.PLP.part.metal>
0.0000

> <Gold.PLP.part.buried>
-2.2914

> <Gold.PLP.part.nonpolar>
-43.0454

> <Gold.PLP.part.repulsive>
0.3246

> <Gold.PLP.ligand.clash>
0.0000

> <Gold.PLP.ligand.torsion>
0.3960

> <Gold.PLP.Chemscore.Hbond>
1.8960

> <Gold.PLP.Chemscore.CHOScore>
0.9473

> <Gold.PLP.Chemscore.Metal>
0.0000

> <Gold.Chemscore.Hbonds>
donor molecule, donor type, donor heavy atom, donor atom, acceptor molecule, acceptor atom, score
      L1  H     3    19       P1  8028  0.90
      L1  H    11    31       P1  8028  1.00
      L1  C    17    34       P1  7948  0.80

> <Gold.PLP.Chemscore.Internal.Correction>
0.0045

> <Gold.Rescore>
     Score         DG    S(hbond)    S(metal)    S(lipo)     H(rot)  DE(clash)    DE(int)     intcor
     18.31     -21.53       1.97        0.00     113.42       1.48       1.49       1.72       ----

> <Gold.Chemscore.Fitness>
18.3140

> <Gold.Chemscore.DG>
-21.5267

> <Gold.Chemscore.ZeroCoef>
-5.4800

> <Gold.Chemscore.Hbond>
1.9669

> <Gold.Chemscore.Metal>
0.0000

> <Gold.Chemscore.Lipo>
113.4228

> <Gold.Chemscore.Internal_Hbond>
0.0000

> <Gold.Chemscore.DEClash>
1.4944

> <Gold.Chemscore.DEInternal>
1.7182

> <Gold.Chemscore.Rot>
1.4818

> <Gold.Chemscore.Internal.Correction>
   9.000000E+99

> <Gold.Chemscore.Hbonds>
donor molecule, donor type, donor heavy atom, donor atom, acceptor molecule, acceptor atom, score
      L1  H     3    19       P1  8028  0.83
      L1  H    11    31       P1  8028  0.99

> <Gold.Chemscore.Hbond.Weighted>
-6.5695

> <Gold.Chemscore.Metal.Weighted>
-0.0000

> <Gold.Chemscore.Lipo.Weighted>
-13.2705

> <Gold.Chemscore.Internal_Hbond.Weighted>
0.0000

> <Gold.Chemscore.DEClash.Weighted>
1.4944

> <Gold.Chemscore.DEInternal.Weighted>
1.7182

> <Gold.Chemscore.Rot.Weighted>
3.7933

> <Gold.Chemscore.Internal.Correction.Weighted>
   9.000000E+99

> <Gold.Protein.RotatedTorsions>
[ 6907 6896 6895 6894 ] final  124.05 input  -60.11 | X-H torsion
[ 7974 7965 7964 7962 ] final  138.57 input  175.53 | X-H torsion
[ 8008 7997 7996 7995 ] final -173.33 input   59.86 | X-H torsion
[ 10167 10162 10161 10158 ] final   18.85 input  -65.29 | X-H torsion
[ 10718 10713 10712 10709 ] final  114.24 input   66.30 | X-H torsion
[ 10763 10752 10751 10750 ] final  136.93 input  -60.55 | X-H torsion
[ 11005 11000 10999 10996 ] final -142.37 input  -57.11 | X-H torsion

> <Gold.Protein.ActiveResidues>
 VAL166  LYS551  ARG553  GLY616  TRP617  ASP618  TYR619  PRO620  LYS621  CYS622 
 ASP623  PHE694  ASN695  SER759  ASP760  ASP761  ALA762  ILE779  LEU786  VAL792 
 PHE793  MET794  SER795  GLU796  ALA797  LYS798  CYS799  TRP800  GLU811  SER814 

> <Gold.Protein.RotatedAtoms>
  152.4111  133.6965  159.6398 H   0  0  0  0  0  0  0  0  0  0  0  0  # atno 6907 bound_to 6896
  150.7991  133.8623  159.3244 H   0  0  0  0  0  0  0  0  0  0  0  0  # atno 6908 bound_to 6896
  151.6365  135.1019  160.0184 H   0  0  0  0  0  0  0  0  0  0  0  0  # atno 6909 bound_to 6896
  144.9360  139.4988  143.5595 H   0  0  0  0  0  0  0  0  0  0  0  0  # atno 7974 bound_to 7965
  155.9561  140.1135  157.0936 H   0  0  0  0  0  0  0  0  0  0  0  0  # atno 8008 bound_to 7997
  154.4121  140.1191  156.5183 H   0  0  0  0  0  0  0  0  0  0  0  0  # atno 8009 bound_to 7997
  155.6781  140.3473  155.4846 H   0  0  0  0  0  0  0  0  0  0  0  0  # atno 8010 bound_to 7997
  140.5623  143.9314  150.6651 H   0  0  0  0  0  0  0  0  0  0  0  0  # atno 10167 bound_to 10162
  157.6293  131.0995  150.7157 H   0  0  0  0  0  0  0  0  0  0  0  0  # atno 10718 bound_to 10713
  153.8647  135.3063  155.3439 H   0  0  0  0  0  0  0  0  0  0  0  0  # atno 10763 bound_to 10752
  154.7833  135.4823  153.9894 H   0  0  0  0  0  0  0  0  0  0  0  0  # atno 10764 bound_to 10752
  153.1441  135.6830  153.9077 H   0  0  0  0  0  0  0  0  0  0  0  0  # atno 10765 bound_to 10752
  140.8231  134.2607  157.4891 H   0  0  0  0  0  0  0  0  0  0  0  0  # atno 11005 bound_to 11000
  146.3267  139.8345  142.8902 LP  0  0  0  0  0  0  0  0  0  0  0  0  # atno 17320 bound_to 7965
  145.3066  141.0208  143.3578 LP  0  0  0  0  0  0  0  0  0  0  0  0  # atno 17321 bound_to 7965
  140.2768  143.3417  152.1187 LP  0  0  0  0  0  0  0  0  0  0  0  0  # atno 17342 bound_to 10162
  139.5076  144.6835  151.5948 LP  0  0  0  0  0  0  0  0  0  0  0  0  # atno 17343 bound_to 10162
  156.7499  130.4765  149.5459 LP  0  0  0  0  0  0  0  0  0  0  0  0  # atno 17370 bound_to 10713
  156.1485  130.6293  151.0563 LP  0  0  0  0  0  0  0  0  0  0  0  0  # atno 17371 bound_to 10713
  139.8707  134.9546  156.4181 LP  0  0  0  0  0  0  0  0  0  0  0  0  # atno 17394 bound_to 11000
  140.9077  133.7734  155.9755 LP  0  0  0  0  0  0  0  0  0  0  0  0  # atno 17395 bound_to 11000

$$$$
