AV-unprocessed.smi:196|AV-procd|sdf|1537|dock5
  -GOLD-   2262019393D 1   1.00000     0.00000
 Structure written by MMmdl.
 47 50  0  0  0  0  0  0  0  0  1 V2000
  153.2936  138.5953  154.5080 C   0  0  0  0  0  0  0  0  0  0  0  0
  151.9422  138.5920  155.2401 C   0  0  1  0  0  0  0  0  0  0  0  0
  151.0802  139.6019  154.7165 O   0  0  0  0  0  0  0  0  0  0  0  0
  149.8468  139.0290  154.3045 C   0  0  0  0  0  0  0  0  0  0  0  0
  149.7124  137.7672  155.1466 C   0  0  0  0  0  0  0  0  0  0  0  0
  151.1476  137.2662  155.2208 C   0  0  1  0  0  0  0  0  0  0  0  0
  151.4243  136.5260  154.0417 O   0  0  0  0  0  0  0  0  0  0  0  0
  151.4420  136.3678  156.4453 C   0  0  0  0  0  0  0  0  0  0  0  0
  150.6238  136.6837  157.6054 N   0  0  0  0  0  0  0  0  0  0  0  0
  150.6541  137.8468  158.3417 C   0  0  0  0  0  0  0  0  0  0  0  0
  149.8199  137.8936  159.3445 N   0  0  0  0  0  0  0  0  0  0  0  0
  149.1578  136.6738  159.2879 C   0  0  0  0  0  0  0  0  0  0  0  0
  148.1311  136.0741  160.0642 C   0  0  0  0  0  0  0  0  0  0  0  0
  147.5959  136.7160  161.1367 N   0  0  0  0  0  0  0  0  0  0  0  0
  147.8309  135.9757  162.3719 C   0  0  0  0  0  0  0  0  0  0  0  0
  146.5199  135.2402  162.6954 C   0  0  2  0  0  0  0  0  0  0  0  0
  146.6365  133.9299  162.4771 F   0  0  0  0  0  0  0  0  0  0  0  0
  145.4724  135.8476  161.7536 C   0  0  0  0  0  0  0  0  0  0  0  0
  146.1751  137.0908  161.1832 C   0  0  2  0  0  0  0  0  0  0  0  0
  145.5533  137.6835  159.9004 C   0  0  0  0  0  0  0  0  0  0  0  0
  144.5056  137.0397  159.3792 N   0  0  0  0  0  0  0  0  0  0  0  0
  145.9759  138.7286  159.4083 O   0  0  0  0  0  0  0  0  0  0  0  0
  147.7316  134.8209  159.7181 N   0  0  0  0  0  0  0  0  0  0  0  0
  148.2798  134.2073  158.6654 C   0  0  0  0  0  0  0  0  0  0  0  0
  149.2323  134.6522  157.8434 N   0  0  0  0  0  0  0  0  0  0  0  0
  149.6497  135.9007  158.1997 C   0  0  0  0  0  0  0  0  0  0  0  0
  146.2489  135.3690  163.7436 H   0  0  0  0  0  0  0  0  0  0  0  0
  146.1053  137.8869  161.9267 H   0  0  0  0  0  0  0  0  0  0  0  0
  153.9504  137.8155  154.8940 H   0  0  0  0  0  0  0  0  0  0  0  0
  153.8004  139.5512  154.6390 H   0  0  0  0  0  0  0  0  0  0  0  0
  153.1707  138.4352  153.4366 H   0  0  0  0  0  0  0  0  0  0  0  0
  152.1201  138.8767  156.2782 H   0  0  0  0  0  0  0  0  0  0  0  0
  149.0168  139.7211  154.4465 H   0  0  0  0  0  0  0  0  0  0  0  0
  149.9057  138.7793  153.2442 H   0  0  0  0  0  0  0  0  0  0  0  0
  149.3576  138.0414  156.1408 H   0  0  0  0  0  0  0  0  0  0  0  0
  149.0121  137.0426  154.7286 H   0  0  0  0  0  0  0  0  0  0  0  0
  151.0105  136.9611  153.3122 H   0  0  0  0  0  0  0  0  0  0  0  0
  151.2844  135.3193  156.1892 H   0  0  0  0  0  0  0  0  0  0  0  0
  152.4896  136.4550  156.7362 H   0  0  0  0  0  0  0  0  0  0  0  0
  151.3231  138.6634  158.1120 H   0  0  0  0  0  0  0  0  0  0  0  0
  148.6786  135.2889  162.3166 H   0  0  0  0  0  0  0  0  0  0  0  0
  148.0621  136.6969  163.1568 H   0  0  0  0  0  0  0  0  0  0  0  0
  145.2158  135.1434  160.9609 H   0  0  0  0  0  0  0  0  0  0  0  0
  144.5510  136.0997  162.2795 H   0  0  0  0  0  0  0  0  0  0  0  0
  144.0613  137.3911  158.5437 H   0  0  0  0  0  0  0  0  0  0  0  0
  144.1587  136.2043  159.8280 H   0  0  0  0  0  0  0  0  0  0  0  0
  147.9020  133.2184  158.4520 H   0  0  0  0  0  0  0  0  0  0  0  0
  1  2  1  0  0  0  0
  1 29  1  0  0  0  0
  1 30  1  0  0  0  0
  1 31  1  0  0  0  0
  2  6  1  0  0  0  0
  2  3  1  0  0  0  0
  2 32  1  0  0  0  0
  3  4  1  0  0  0  0
  4  5  1  0  0  0  0
  4 33  1  0  0  0  0
  4 34  1  0  0  0  0
  5  6  1  0  0  0  0
  5 35  1  0  0  0  0
  5 36  1  0  0  0  0
  6  7  1  0  0  0  0
  6  8  1  0  0  0  0
  7 37  1  0  0  0  0
  8  9  1  0  0  0  0
  8 38  1  0  0  0  0
  8 39  1  0  0  0  0
  9 26  1  0  0  0  0
  9 10  1  0  0  0  0
 10 11  2  0  0  0  0
 10 40  1  0  0  0  0
 11 12  1  0  0  0  0
 12 26  2  0  0  0  0
 12 13  1  0  0  0  0
 13 14  1  0  0  0  0
 13 23  2  0  0  0  0
 14 19  1  0  0  0  0
 14 15  1  0  0  0  0
 15 16  1  0  0  0  0
 15 41  1  0  0  0  0
 15 42  1  0  0  0  0
 16 27  1  0  0  0  0
 16 17  1  0  0  0  0
 16 18  1  0  0  0  0
 18 19  1  0  0  0  0
 18 43  1  0  0  0  0
 18 44  1  0  0  0  0
 19 28  1  0  0  0  0
 19 20  1  0  0  0  0
 20 21  1  0  0  0  0
 20 22  2  0  0  0  0
 21 45  1  0  0  0  0
 21 46  1  0  0  0  0
 23 24  1  0  0  0  0
 24 25  2  0  0  0  0
 24 47  1  0  0  0  0
 25 26  1  0  0  0  0
M  END
> <s_m_source_file>
AV-unprocessed.smi

> <i_m_source_file_index>
196

> <i_lp_mmshare_version>
43012

> <i_f3d_flags>
0

> <s_epik_input>
W0NIMl0xW0NIMl1PW0NAQEhdKFtDSDNdKVtDQEBdMShbT0hdKVtDSDJdbihbY0hdbjIpYyhjMjMpbltjSF1uYzNONFtDSDJdW0NASF0oRilbQ0gyXVtDQEhdNEMoPU8pW05IMl0=

> <s_epik_cmdline>
J2VwaWtfcHl0aG9uJywgJy1waCcsICc3LjAnLCAnLXRuJywgJzgnLCAnLW1hJywgJzIwMCcsICctbWV0YWxfYmluZGluZycsICctaW1hZScsICc8aW5maWxlLm1hZT4nLCAnLW9tYWUnLCAnPG91dGZpbGUubWFlPic=

> <r_lp_tautomer_probability>
1

> <r_epik_Ionization_Penalty>
0.000857933

> <r_epik_Ionization_Penalty_Charging>
0

> <r_epik_Ionization_Penalty_Neutral>
0.000857933

> <r_epik_State_Penalty>
0.000462053

> <r_epik_Charging_Adjusted_Penalty>
0.000462053

> <i_epik_Tot_Q>
0

> <i_epik_Tot_abs_Q>
0

> <r_epik_Metal_State_Penalty>
-0

> <b_epik_Metal_Only>
0

> <s_lp_Force_Field>
OPLS_2005

> <r_lp_Energy>
51.2848

> <b_lp_Chiralities_Consistent>
1

> <s_lp_Variant>
AV-unprocessed.smi:196-10

> <Gold.Version>
5.8.1

> <Gold.Id.Protein>
6NUR|6NUR_protein|mol2

> <Gold.PLP.Fitness>
47.7301

> <Gold.PLP.PLP>
-40.1965

> <Gold.PLP.part.hbond>
-6.7597

> <Gold.PLP.part.metal>
0.0000

> <Gold.PLP.part.buried>
-5.0067

> <Gold.PLP.part.nonpolar>
-30.6774

> <Gold.PLP.part.repulsive>
0.0929

> <Gold.PLP.ligand.clash>
0.0000

> <Gold.PLP.ligand.torsion>
0.5869

> <Gold.PLP.Chemscore.Hbond>
2.8803

> <Gold.PLP.Chemscore.CHOScore>
0.0000

> <Gold.PLP.Chemscore.Metal>
0.0000

> <Gold.Chemscore.Hbonds>
donor molecule, donor type, donor heavy atom, donor atom, acceptor molecule, acceptor atom, score
      L1  H     7    37       P1  7949  0.27
      P1  H  6896  6909       L1    25  0.06
      P1  H  6931  6943       L1    14  0.17
      P1  H  6934  6947       L1    22  0.24
      P1  H  7989  7998       L1     3  1.00
      P1  H 10752 10765       L1     7  1.00

> <Gold.PLP.Chemscore.Internal.Correction>
0.0666

> <Gold.Rescore>
     Score         DG    S(hbond)    S(metal)    S(lipo)     H(rot)  DE(clash)    DE(int)     intcor
     12.65     -13.25       2.24        0.00      69.09       3.04       0.04       0.57       ----

> <Gold.Chemscore.Fitness>
12.6479

> <Gold.Chemscore.DG>
-13.2532

> <Gold.Chemscore.ZeroCoef>
-5.4800

> <Gold.Chemscore.Hbond>
2.2380

> <Gold.Chemscore.Metal>
0.0000

> <Gold.Chemscore.Lipo>
69.0930

> <Gold.Chemscore.Internal_Hbond>
0.0000

> <Gold.Chemscore.DEClash>
0.0384

> <Gold.Chemscore.DEInternal>
0.5668

> <Gold.Chemscore.Rot>
3.0413

> <Gold.Chemscore.Internal.Correction>
   9.000000E+99

> <Gold.Chemscore.Hbonds>
donor molecule, donor type, donor heavy atom, donor atom, acceptor molecule, acceptor atom, score
      L1  H     7    37       P1  7949  0.08
      P1  H  6934  6947       L1    22  0.02
      P1  H  7989  7998       L1     3  0.74
      P1  H 10752 10765       L1     7  0.29

> <Gold.Chemscore.Hbond.Weighted>
-7.4749

> <Gold.Chemscore.Metal.Weighted>
-0.0000

> <Gold.Chemscore.Lipo.Weighted>
-8.0839

> <Gold.Chemscore.Internal_Hbond.Weighted>
0.0000

> <Gold.Chemscore.DEClash.Weighted>
0.0384

> <Gold.Chemscore.DEInternal.Weighted>
0.5668

> <Gold.Chemscore.Rot.Weighted>
7.7856

> <Gold.Chemscore.Internal.Correction.Weighted>
   9.000000E+99

> <Gold.Protein.RotatedTorsions>
[ 6907 6896 6895 6894 ] final    6.66 input  -60.11 | X-H torsion
[ 7974 7965 7964 7962 ] final  177.59 input  175.53 | X-H torsion
[ 8008 7997 7996 7995 ] final   37.87 input   59.86 | X-H torsion
[ 10167 10162 10161 10158 ] final  169.75 input  -65.29 | X-H torsion
[ 10718 10713 10712 10709 ] final   -3.77 input   66.30 | X-H torsion
[ 10763 10752 10751 10750 ] final  179.19 input  -60.55 | X-H torsion
[ 11005 11000 10999 10996 ] final   25.00 input  -57.11 | X-H torsion

> <Gold.Protein.ActiveResidues>
 VAL166  LYS551  ARG553  GLY616  TRP617  ASP618  TYR619  PRO620  LYS621  CYS622 
 ASP623  PHE694  ASN695  SER759  ASP760  ASP761  ALA762  ILE779  LEU786  VAL792 
 PHE793  MET794  SER795  GLU796  ALA797  LYS798  CYS799  TRP800  GLU811  SER814 

> <Gold.Protein.RotatedAtoms>
  151.6773  135.0967  160.0209 H   0  0  0  0  0  0  0  0  0  0  0  0  # atno 6907 bound_to 6896
  152.3856  133.6602  159.6204 H   0  0  0  0  0  0  0  0  0  0  0  0  # atno 6908 bound_to 6896
  150.7782  133.8957  159.3368 H   0  0  0  0  0  0  0  0  0  0  0  0  # atno 6909 bound_to 6896
  144.7167  140.0270  143.6439 H   0  0  0  0  0  0  0  0  0  0  0  0  # atno 7974 bound_to 7965
  155.2109  140.3323  155.4329 H   0  0  0  0  0  0  0  0  0  0  0  0  # atno 8008 bound_to 7997
  156.2371  140.1877  156.7139 H   0  0  0  0  0  0  0  0  0  0  0  0  # atno 8009 bound_to 7997
  154.6078  140.0613  156.9440 H   0  0  0  0  0  0  0  0  0  0  0  0  # atno 8010 bound_to 7997
  139.5000  144.3671  151.9763 H   0  0  0  0  0  0  0  0  0  0  0  0  # atno 10167 bound_to 10162
  156.7711  130.5300  149.5767 H   0  0  0  0  0  0  0  0  0  0  0  0  # atno 10718 bound_to 10713
  154.5175  135.2792  155.1291 H   0  0  0  0  0  0  0  0  0  0  0  0  # atno 10763 bound_to 10752
  154.2862  135.6276  153.5370 H   0  0  0  0  0  0  0  0  0  0  0  0  # atno 10764 bound_to 10752
  152.9930  135.5663  154.5655 H   0  0  0  0  0  0  0  0  0  0  0  0  # atno 10765 bound_to 10752
  140.3525  134.2213  155.7678 H   0  0  0  0  0  0  0  0  0  0  0  0  # atno 11005 bound_to 11000
  146.0134  139.3189  143.0856 LP  0  0  0  0  0  0  0  0  0  0  0  0  # atno 17320 bound_to 7965
  145.8655  140.9451  143.0678 LP  0  0  0  0  0  0  0  0  0  0  0  0  # atno 17321 bound_to 7965
  140.3107  144.3541  150.6034 LP  0  0  0  0  0  0  0  0  0  0  0  0  # atno 17342 bound_to 10162
  140.5801  143.2173  151.7445 LP  0  0  0  0  0  0  0  0  0  0  0  0  # atno 17343 bound_to 10162
  156.1277  130.6156  151.0288 LP  0  0  0  0  0  0  0  0  0  0  0  0  # atno 17370 bound_to 10713
  157.6690  131.0865  150.7658 LP  0  0  0  0  0  0  0  0  0  0  0  0  # atno 17371 bound_to 10713
  141.2008  133.7979  157.0472 LP  0  0  0  0  0  0  0  0  0  0  0  0  # atno 17394 bound_to 11000
  140.0691  134.9712  157.1437 LP  0  0  0  0  0  0  0  0  0  0  0  0  # atno 17395 bound_to 11000

$$$$
