AV-unprocessed.smi:1706|AV-procd|sdf|6886|dock5
  -GOLD-   22720 8 93D 1   1.00000     0.00000
 Structure written by MMmdl.
 35 36  0  0  0  0  0  0  0  0  1 V2000
  151.8954  145.0431  159.3894 C   0  0  0  0  0  0  0  0  0  0  0  0
  152.4108  143.8556  160.0360 N   0  0  0  0  0  0  0  0  0  0  0  0
  153.1655  142.8395  159.4912 C   0  0  0  0  0  0  0  0  0  0  0  0
  153.4005  141.9272  160.4812 C   0  0  0  0  0  0  0  0  0  0  0  0
  154.1541  140.6254  160.4033 C   0  0  0  0  0  0  0  0  0  0  0  0
  153.2776  139.4748  159.8812 C   0  0  0  0  0  0  0  0  0  0  0  0
  152.9428  139.6687  158.4742 N   0  0  0  0  0  0  0  0  0  0  0  0
  151.8325  140.2608  158.0056 C   0  0  0  0  0  0  0  0  0  0  0  0
  150.9392  140.6655  158.7507 O   0  0  0  0  0  0  0  0  0  0  0  0
  151.8031  140.4149  156.6584 N   0  0  0  0  0  0  0  0  0  0  0  0
  152.4623  139.5601  155.6593 C   0  0  0  0  0  0  0  0  0  0  0  0
  151.3737  138.8099  154.8707 C   0  0  0  0  0  0  0  0  0  0  0  0
  150.4898  139.7479  154.2616 O   0  0  0  0  0  0  0  0  0  0  0  0
  149.8574  140.6128  155.2020 C   0  0  0  0  0  0  0  0  0  0  0  0
  150.9270  141.3846  155.9953 C   0  0  0  0  0  0  0  0  0  0  0  0
  152.7423  142.4898  161.6120 C   0  0  0  0  0  0  0  0  0  0  0  0
  152.1507  143.6420  161.3422 N   0  0  0  0  0  0  0  0  0  0  0  0
  152.3817  145.1833  158.4237 H   0  0  0  0  0  0  0  0  0  0  0  0
  152.0847  145.9189  160.0111 H   0  0  0  0  0  0  0  0  0  0  0  0
  150.8212  144.9384  159.2343 H   0  0  0  0  0  0  0  0  0  0  0  0
  153.4621  142.8437  158.4526 H   0  0  0  0  0  0  0  0  0  0  0  0
  155.0251  140.7290  159.7553 H   0  0  0  0  0  0  0  0  0  0  0  0
  154.5501  140.3528  161.3819 H   0  0  0  0  0  0  0  0  0  0  0  0
  153.7963  138.5226  159.9967 H   0  0  0  0  0  0  0  0  0  0  0  0
  152.3702  139.4163  160.4851 H   0  0  0  0  0  0  0  0  0  0  0  0
  153.6329  139.3706  157.8006 H   0  0  0  0  0  0  0  0  0  0  0  0
  153.0478  140.1856  154.9839 H   0  0  0  0  0  0  0  0  0  0  0  0
  153.1656  138.8413  156.0796 H   0  0  0  0  0  0  0  0  0  0  0  0
  151.8267  138.1954  154.0927 H   0  0  0  0  0  0  0  0  0  0  0  0
  150.8135  138.1384  155.5233 H   0  0  0  0  0  0  0  0  0  0  0  0
  149.2119  141.3071  154.6641 H   0  0  0  0  0  0  0  0  0  0  0  0
  149.2189  140.0340  155.8712 H   0  0  0  0  0  0  0  0  0  0  0  0
  150.4475  142.0713  156.6943 H   0  0  0  0  0  0  0  0  0  0  0  0
  151.5191  142.0067  155.3226 H   0  0  0  0  0  0  0  0  0  0  0  0
  152.6711  142.0922  162.6137 H   0  0  0  0  0  0  0  0  0  0  0  0
  1  2  1  0  0  0  0
  1 18  1  0  0  0  0
  1 19  1  0  0  0  0
  1 20  1  0  0  0  0
  2 17  1  0  0  0  0
  2  3  1  0  0  0  0
  3  4  2  0  0  0  0
  3 21  1  0  0  0  0
  4  5  1  0  0  0  0
  4 16  1  0  0  0  0
  5  6  1  0  0  0  0
  5 22  1  0  0  0  0
  5 23  1  0  0  0  0
  6  7  1  0  0  0  0
  6 24  1  0  0  0  0
  6 25  1  0  0  0  0
  7  8  1  0  0  0  0
  7 26  1  0  0  0  0
  8  9  2  0  0  0  0
  8 10  1  0  0  0  0
 10 15  1  0  0  0  0
 10 11  1  0  0  0  0
 11 12  1  0  0  0  0
 11 27  1  0  0  0  0
 11 28  1  0  0  0  0
 12 13  1  0  0  0  0
 12 29  1  0  0  0  0
 12 30  1  0  0  0  0
 13 14  1  0  0  0  0
 14 15  1  0  0  0  0
 14 31  1  0  0  0  0
 14 32  1  0  0  0  0
 15 33  1  0  0  0  0
 15 34  1  0  0  0  0
 16 17  2  0  0  0  0
 16 35  1  0  0  0  0
M  END
> <s_m_source_file>
AV-unprocessed.smi

> <i_m_source_file_index>
1706

> <i_lp_mmshare_version>
43012

> <i_f3d_flags>
0

> <s_epik_input>
W0NIM11uMVtjSF1jKFtjSF1uMSlbQ0gyXVtDSDJdW05IXUMoPU8pTjJbQ0gyXVtDSDJdT1tDSDJdW0NIMl0y

> <s_epik_cmdline>
J2VwaWtfcHl0aG9uJywgJy1waCcsICc3LjAnLCAnLXRuJywgJzgnLCAnLW1hJywgJzIwMCcsICctbWV0YWxfYmluZGluZycsICctaW1hZScsICc8aW5maWxlLm1hZT4nLCAnLW9tYWUnLCAnPG91dGZpbGUubWFlPic=

> <r_lp_tautomer_probability>
1

> <r_epik_Ionization_Penalty>
0.000534981

> <r_epik_Ionization_Penalty_Charging>
0

> <r_epik_Ionization_Penalty_Neutral>
0.000534981

> <r_epik_State_Penalty>
-0

> <r_epik_Charging_Adjusted_Penalty>
0

> <i_epik_Tot_Q>
0

> <i_epik_Tot_abs_Q>
0

> <r_epik_Metal_State_Penalty>
-0

> <b_epik_Metal_Only>
0

> <s_lp_Force_Field>
OPLS_2005

> <r_lp_Energy>
25.9186

> <b_lp_Chiralities_Consistent>
1

> <s_lp_Variant>
AV-unprocessed.smi:1706-1

> <Gold.Version>
5.8.1

> <Gold.Id.Protein>
6NUR|6NUR_protein|mol2

> <Gold.PLP.Fitness>
44.4214

> <Gold.PLP.PLP>
-43.0963

> <Gold.PLP.part.hbond>
-1.0000

> <Gold.PLP.part.metal>
0.0000

> <Gold.PLP.part.buried>
-5.3871

> <Gold.PLP.part.nonpolar>
-36.9632

> <Gold.PLP.part.repulsive>
0.3950

> <Gold.PLP.ligand.clash>
0.0000

> <Gold.PLP.ligand.torsion>
0.7783

> <Gold.PLP.Chemscore.Hbond>
0.9500

> <Gold.PLP.Chemscore.CHOScore>
0.0000

> <Gold.PLP.Chemscore.Metal>
0.0000

> <Gold.Chemscore.Hbonds>
donor molecule, donor type, donor heavy atom, donor atom, acceptor molecule, acceptor atom, score
      P1  H  7989  7998       L1    13  1.00

> <Gold.PLP.Chemscore.Internal.Correction>
0.0316

> <Gold.Rescore>
     Score         DG    S(hbond)    S(metal)    S(lipo)     H(rot)  DE(clash)    DE(int)     intcor
     12.31     -12.95       0.01        0.00      95.07       1.44       0.05       0.59       ----

> <Gold.Chemscore.Fitness>
12.3147

> <Gold.Chemscore.DG>
-12.9541

> <Gold.Chemscore.ZeroCoef>
-5.4800

> <Gold.Chemscore.Hbond>
0.0089

> <Gold.Chemscore.Metal>
0.0000

> <Gold.Chemscore.Lipo>
95.0735

> <Gold.Chemscore.Internal_Hbond>
0.0000

> <Gold.Chemscore.DEClash>
0.0486

> <Gold.Chemscore.DEInternal>
0.5909

> <Gold.Chemscore.Rot>
1.4371

> <Gold.Chemscore.Internal.Correction>
   9.000000E+99

> <Gold.Chemscore.Hbonds>
donor molecule, donor type, donor heavy atom, donor atom, acceptor molecule, acceptor atom, score
      P1  H  7989  7998       L1    13  0.10

> <Gold.Chemscore.Hbond.Weighted>
-0.0296

> <Gold.Chemscore.Metal.Weighted>
-0.0000

> <Gold.Chemscore.Lipo.Weighted>
-11.1236

> <Gold.Chemscore.Internal_Hbond.Weighted>
0.0000

> <Gold.Chemscore.DEClash.Weighted>
0.0486

> <Gold.Chemscore.DEInternal.Weighted>
0.5909

> <Gold.Chemscore.Rot.Weighted>
3.6790

> <Gold.Chemscore.Internal.Correction.Weighted>
   9.000000E+99

> <Gold.Protein.RotatedTorsions>
[ 6907 6896 6895 6894 ] final  134.47 input  -60.11 | X-H torsion
[ 7974 7965 7964 7962 ] final  -67.12 input  175.53 | X-H torsion
[ 8008 7997 7996 7995 ] final  -80.71 input   59.86 | X-H torsion
[ 10167 10162 10161 10158 ] final -134.63 input  -65.29 | X-H torsion
[ 10718 10713 10712 10709 ] final -145.18 input   66.30 | X-H torsion
[ 10763 10752 10751 10750 ] final  101.63 input  -60.55 | X-H torsion
[ 11005 11000 10999 10996 ] final  -76.92 input  -57.11 | X-H torsion

> <Gold.Protein.ActiveResidues>
 VAL166  LYS551  ARG553  GLY616  TRP617  ASP618  TYR619  PRO620  LYS621  CYS622 
 ASP623  PHE694  ASN695  SER759  ASP760  ASP761  ALA762  ILE779  LEU786  VAL792 
 PHE793  MET794  SER795  GLU796  ALA797  LYS798  CYS799  TRP800  GLU811  SER814 

> <Gold.Protein.RotatedAtoms>
  152.3109  133.5752  159.5680 H   0  0  0  0  0  0  0  0  0  0  0  0  # atno 6907 bound_to 6896
  150.7323  134.0153  159.3692 H   0  0  0  0  0  0  0  0  0  0  0  0  # atno 6908 bound_to 6896
  151.8045  135.0699  160.0455 H   0  0  0  0  0  0  0  0  0  0  0  0  # atno 6909 bound_to 6896
  145.7332  140.8987  143.0569 H   0  0  0  0  0  0  0  0  0  0  0  0  # atno 7974 bound_to 7965
  154.5911  140.0659  156.9239 H   0  0  0  0  0  0  0  0  0  0  0  0  # atno 8008 bound_to 7997
  155.2294  140.3336  155.4287 H   0  0  0  0  0  0  0  0  0  0  0  0  # atno 8009 bound_to 7997
  156.2256  140.1818  156.7355 H   0  0  0  0  0  0  0  0  0  0  0  0  # atno 8010 bound_to 7997
  139.8861  143.6779  152.2619 H   0  0  0  0  0  0  0  0  0  0  0  0  # atno 10167 bound_to 10162
  156.3792  130.7828  151.2018 H   0  0  0  0  0  0  0  0  0  0  0  0  # atno 10718 bound_to 10713
  153.3292  135.4038  155.1481 H   0  0  0  0  0  0  0  0  0  0  0  0  # atno 10763 bound_to 10752
  154.8619  135.3606  154.5494 H   0  0  0  0  0  0  0  0  0  0  0  0  # atno 10764 bound_to 10752
  153.5931  135.7073  153.5474 H   0  0  0  0  0  0  0  0  0  0  0  0  # atno 10765 bound_to 10752
  141.1657  133.7002  156.7742 H   0  0  0  0  0  0  0  0  0  0  0  0  # atno 11005 bound_to 11000
  144.6888  139.9359  143.7473 LP  0  0  0  0  0  0  0  0  0  0  0  0  # atno 17320 bound_to 7965
  146.0518  139.3518  143.0635 LP  0  0  0  0  0  0  0  0  0  0  0  0  # atno 17321 bound_to 7965
  139.7151  144.7613  151.1047 LP  0  0  0  0  0  0  0  0  0  0  0  0  # atno 17342 bound_to 10162
  140.7735  143.5279  150.9458 LP  0  0  0  0  0  0  0  0  0  0  0  0  # atno 17343 bound_to 10162
  157.7491  131.0349  150.4339 LP  0  0  0  0  0  0  0  0  0  0  0  0  # atno 17370 bound_to 10713
  156.4580  130.4025  149.6594 LP  0  0  0  0  0  0  0  0  0  0  0  0  # atno 17371 bound_to 10713
  140.2442  134.8590  157.3603 LP  0  0  0  0  0  0  0  0  0  0  0  0  # atno 17394 bound_to 11000
  140.1766  134.4542  155.7798 LP  0  0  0  0  0  0  0  0  0  0  0  0  # atno 17395 bound_to 11000

$$$$
