AV-unprocessed.smi:516|AV-procd|sdf|2786|dock3
  -GOLD-   2262023263D 1   1.00000     0.00000
 Structure written by MMmdl.
 43 45  0  0  0  0  0  0  0  0  2 V2000
  152.0230  132.5114  156.9626 C   0  0  0  0  0  0  0  0  0  0  0  0
  150.8440  133.0067  157.5718 O   0  0  0  0  0  0  0  0  0  0  0  0
  150.0090  133.6925  156.6545 C   0  0  0  0  0  0  0  0  0  0  0  0
  148.5737  133.7001  157.1993 C   0  0  0  0  0  0  0  0  0  0  0  0
  148.4083  134.6629  158.2829 N   0  0  0  0  0  0  0  0  0  0  0  0
  148.7483  135.9789  158.2765 C   0  0  0  0  0  0  0  0  0  0  0  0
  149.3773  136.6620  157.0977 C   0  0  0  0  0  0  0  0  0  0  0  0
  150.7345  137.1425  157.3486 N   0  0  0  0  0  0  0  0  0  0  0  0
  151.3514  137.6639  156.1358 C   0  0  0  0  0  0  0  0  0  0  0  0
  152.7896  138.1460  156.3929 C   0  0  0  0  0  0  0  0  0  0  0  0
  152.7867  139.1276  157.4250 O   0  0  0  0  0  0  0  0  0  0  0  0
  152.2263  138.6447  158.6423 C   0  0  0  0  0  0  0  0  0  0  0  0
  150.7872  138.1615  158.3938 C   0  0  0  0  0  0  0  0  0  0  0  0
  148.4809  136.6209  159.4166 N   0  0  0  0  0  0  0  0  0  0  0  0
  147.9300  135.6281  160.2129 C   0  0  0  0  0  0  0  0  0  0  0  0
  147.8763  134.4407  159.5551 C   0  0  0  0  0  0  0  0  0  0  0  0
  147.3456  133.1947  160.1468 C   0  0  0  0  0  0  0  0  0  0  0  0
  147.3245  132.1465  159.5045 O   0  0  0  0  0  0  0  0  0  0  0  0
  146.9139  133.3799  161.4349 N   0  5  0  0  0  0  0  0  0  0  0  0
  146.9491  134.5644  162.1408 C   0  0  0  0  0  0  0  0  0  0  0  0
  146.5402  134.6351  163.3000 O   0  0  0  0  0  0  0  0  0  0  0  0
  147.4505  135.6959  161.5476 N   0  0  0  0  0  0  0  0  0  0  0  0
  147.5227  136.9921  162.2288 C   0  0  0  0  0  0  0  0  0  0  0  0
  152.6318  131.9976  157.7064 H   0  0  0  0  0  0  0  0  0  0  0  0
  152.6194  133.3213  156.5407 H   0  0  0  0  0  0  0  0  0  0  0  0
  151.7878  131.7996  156.1702 H   0  0  0  0  0  0  0  0  0  0  0  0
  150.3680  134.7126  156.5119 H   0  0  0  0  0  0  0  0  0  0  0  0
  150.0436  133.1974  155.6836 H   0  0  0  0  0  0  0  0  0  0  0  0
  147.8753  133.9352  156.3971 H   0  0  0  0  0  0  0  0  0  0  0  0
  148.2900  132.7096  157.5538 H   0  0  0  0  0  0  0  0  0  0  0  0
  149.3797  135.9577  156.2652 H   0  0  0  0  0  0  0  0  0  0  0  0
  148.7399  137.4921  156.7893 H   0  0  0  0  0  0  0  0  0  0  0  0
  151.3623  136.8923  155.3652 H   0  0  0  0  0  0  0  0  0  0  0  0
  150.7567  138.4901  155.7431 H   0  0  0  0  0  0  0  0  0  0  0  0
  153.4309  137.3104  156.6782 H   0  0  0  0  0  0  0  0  0  0  0  0
  153.2128  138.5808  155.4874 H   0  0  0  0  0  0  0  0  0  0  0  0
  152.8413  137.8344  159.0374 H   0  0  0  0  0  0  0  0  0  0  0  0
  152.2352  139.4447  159.3825 H   0  0  0  0  0  0  0  0  0  0  0  0
  150.1625  139.0114  158.1147 H   0  0  0  0  0  0  0  0  0  0  0  0
  150.3809  137.7683  159.3261 H   0  0  0  0  0  0  0  0  0  0  0  0
  147.1106  136.9947  163.2381 H   0  0  0  0  0  0  0  0  0  0  0  0
  146.9778  137.7429  161.6558 H   0  0  0  0  0  0  0  0  0  0  0  0
  148.5616  137.3153  162.3003 H   0  0  0  0  0  0  0  0  0  0  0  0
  1  2  1  0  0  0  0
  1 24  1  0  0  0  0
  1 25  1  0  0  0  0
  1 26  1  0  0  0  0
  2  3  1  0  0  0  0
  3  4  1  0  0  0  0
  3 27  1  0  0  0  0
  3 28  1  0  0  0  0
  4  5  1  0  0  0  0
  4 29  1  0  0  0  0
  4 30  1  0  0  0  0
  5 16  1  0  0  0  0
  5  6  1  0  0  0  0
  6  7  1  0  0  0  0
  6 14  2  0  0  0  0
  7  8  1  0  0  0  0
  7 31  1  0  0  0  0
  7 32  1  0  0  0  0
  8 13  1  0  0  0  0
  8  9  1  0  0  0  0
  9 10  1  0  0  0  0
  9 33  1  0  0  0  0
  9 34  1  0  0  0  0
 10 11  1  0  0  0  0
 10 35  1  0  0  0  0
 10 36  1  0  0  0  0
 11 12  1  0  0  0  0
 12 13  1  0  0  0  0
 12 37  1  0  0  0  0
 12 38  1  0  0  0  0
 13 39  1  0  0  0  0
 13 40  1  0  0  0  0
 14 15  1  0  0  0  0
 15 22  1  0  0  0  0
 15 16  2  0  0  0  0
 16 17  1  0  0  0  0
 17 18  2  0  0  0  0
 17 19  1  0  0  0  0
 19 20  1  0  0  0  0
 20 21  2  0  0  0  0
 20 22  1  0  0  0  0
 22 23  1  0  0  0  0
 23 41  1  0  0  0  0
 23 42  1  0  0  0  0
 23 43  1  0  0  0  0
M  CHG  1  19  -1
M  END
> <s_m_source_file>
AV-unprocessed.smi

> <i_m_source_file_index>
516

> <i_lp_mmshare_version>
43012

> <i_f3d_flags>
0

> <s_epik_input>
W0NIM11uMWMoPU8pW25IXWMoPU8pYyhjMTIpbihbQ0gyXVtDSDJdT1tDSDNdKWMobjIpW0NIMl1OM1tDSDJdW0NIMl1PW0NIMl1bQ0gyXTM=

> <s_epik_cmdline>
J2VwaWtfcHl0aG9uJywgJy1waCcsICc3LjAnLCAnLXRuJywgJzgnLCAnLW1hJywgJzIwMCcsICctbWV0YWxfYmluZGluZycsICctaW1hZScsICc8aW5maWxlLm1hZT4nLCAnLW9tYWUnLCAnPG91dGZpbGUubWFlPic=

> <r_epik_Ionization_Penalty>
4.87269

> <r_epik_Ionization_Penalty_Charging>
0.0382909

> <r_epik_Ionization_Penalty_Neutral>
4.8344

> <r_epik_State_Penalty>
4.82423

> <r_epik_Charging_Adjusted_Penalty>
4.86252

> <i_epik_Tot_Q>
-1

> <i_epik_Tot_abs_Q>
1

> <r_epik_Metal_State_Penalty>
1.05282

> <b_epik_Metal_Only>
1

> <s_lp_Force_Field>
OPLS_2005

> <r_lp_Energy>
45.4303

> <b_lp_Chiralities_Consistent>
1

> <s_lp_Variant>
AV-unprocessed.smi:516-3

> <Gold.Version>
5.8.1

> <Gold.Id.Protein>
6NUR|6NUR_protein|mol2

> <Gold.PLP.Fitness>
33.0694

> <Gold.PLP.PLP>
-27.5932

> <Gold.PLP.part.hbond>
-3.0000

> <Gold.PLP.part.metal>
0.0000

> <Gold.PLP.part.buried>
-3.0492

> <Gold.PLP.part.nonpolar>
-20.9722

> <Gold.PLP.part.repulsive>
0.0150

> <Gold.PLP.ligand.clash>
0.0000

> <Gold.PLP.ligand.torsion>
0.2696

> <Gold.PLP.Chemscore.Hbond>
2.0000

> <Gold.PLP.Chemscore.CHOScore>
0.0000

> <Gold.PLP.Chemscore.Metal>
0.0000

> <Gold.Chemscore.Hbonds>
donor molecule, donor type, donor heavy atom, donor atom, acceptor molecule, acceptor atom, score
      P1  H  6896  6907       L1     2  1.00
      P1  H  7997  8010       L1    11  0.88

> <Gold.PLP.Chemscore.Internal.Correction>
0.0154

> <Gold.Rescore>
     Score         DG    S(hbond)    S(metal)    S(lipo)     H(rot)  DE(clash)    DE(int)     intcor
      9.74     -11.31       1.71        0.00      44.94       2.00       0.04       1.53       ----

> <Gold.Chemscore.Fitness>
9.7390

> <Gold.Chemscore.DG>
-11.3122

> <Gold.Chemscore.ZeroCoef>
-5.4800

> <Gold.Chemscore.Hbond>
1.7087

> <Gold.Chemscore.Metal>
0.0000

> <Gold.Chemscore.Lipo>
44.9389

> <Gold.Chemscore.Internal_Hbond>
0.0000

> <Gold.Chemscore.DEClash>
0.0398

> <Gold.Chemscore.DEInternal>
1.5334

> <Gold.Chemscore.Rot>
2.0050

> <Gold.Chemscore.Internal.Correction>
   9.000000E+99

> <Gold.Chemscore.Hbonds>
donor molecule, donor type, donor heavy atom, donor atom, acceptor molecule, acceptor atom, score
      P1  H  6896  6907       L1     2  0.52
      P1  H  7997  8010       L1    11  0.16

> <Gold.Chemscore.Hbond.Weighted>
-5.7071

> <Gold.Chemscore.Metal.Weighted>
-0.0000

> <Gold.Chemscore.Lipo.Weighted>
-5.2578

> <Gold.Chemscore.Internal_Hbond.Weighted>
0.0000

> <Gold.Chemscore.DEClash.Weighted>
0.0398

> <Gold.Chemscore.DEInternal.Weighted>
1.5334

> <Gold.Chemscore.Rot.Weighted>
5.1327

> <Gold.Chemscore.Internal.Correction.Weighted>
   9.000000E+99

> <Gold.Protein.RotatedTorsions>
[ 6907 6896 6895 6894 ] final -156.76 input  -60.11 | X-H torsion
[ 7974 7965 7964 7962 ] final  139.70 input  175.53 | X-H torsion
[ 8008 7997 7996 7995 ] final   36.32 input   59.86 | X-H torsion
[ 10167 10162 10161 10158 ] final  -61.77 input  -65.29 | X-H torsion
[ 10718 10713 10712 10709 ] final   47.68 input   66.30 | X-H torsion
[ 10763 10752 10751 10750 ] final -139.53 input  -60.55 | X-H torsion
[ 11005 11000 10999 10996 ] final -106.69 input  -57.11 | X-H torsion

> <Gold.Protein.ActiveResidues>
 VAL166  LYS551  ARG553  GLY616  TRP617  ASP618  TYR619  PRO620  LYS621  CYS622 
 ASP623  PHE694  ASN695  SER759  ASP760  ASP761  ALA762  ILE779  LEU786  VAL792 
 PHE793  MET794  SER795  GLU796  ALA797  LYS798  CYS799  TRP800  GLU811  SER814 

> <Gold.Protein.RotatedAtoms>
  151.2926  133.4158  159.2633 H   0  0  0  0  0  0  0  0  0  0  0  0  # atno 6907 bound_to 6896
  151.0264  134.9508  159.8098 H   0  0  0  0  0  0  0  0  0  0  0  0  # atno 6908 bound_to 6896
  152.5336  134.2888  159.9087 H   0  0  0  0  0  0  0  0  0  0  0  0  # atno 6909 bound_to 6896
  144.9254  139.5114  143.5643 H   0  0  0  0  0  0  0  0  0  0  0  0  # atno 7974 bound_to 7965
  155.1855  140.3303  155.4367 H   0  0  0  0  0  0  0  0  0  0  0  0  # atno 8008 bound_to 7997
  156.2461  140.1919  156.6901 H   0  0  0  0  0  0  0  0  0  0  0  0  # atno 8009 bound_to 7997
  154.6242  140.0591  156.9638 H   0  0  0  0  0  0  0  0  0  0  0  0  # atno 8010 bound_to 7997
  140.5983  143.2356  151.5985 H   0  0  0  0  0  0  0  0  0  0  0  0  # atno 10167 bound_to 10162
  157.4610  130.8196  149.7886 H   0  0  0  0  0  0  0  0  0  0  0  0  # atno 10718 bound_to 10713
  154.8606  135.3579  154.5562 H   0  0  0  0  0  0  0  0  0  0  0  0  # atno 10763 bound_to 10752
  153.6178  135.7007  153.5326 H   0  0  0  0  0  0  0  0  0  0  0  0  # atno 10764 bound_to 10752
  153.3154  135.4166  155.1332 H   0  0  0  0  0  0  0  0  0  0  0  0  # atno 10765 bound_to 10752
  141.0992  133.8916  157.1886 H   0  0  0  0  0  0  0  0  0  0  0  0  # atno 11005 bound_to 11000
  146.3223  139.8165  142.8935 LP  0  0  0  0  0  0  0  0  0  0  0  0  # atno 17320 bound_to 7965
  145.3228  141.0248  143.3491 LP  0  0  0  0  0  0  0  0  0  0  0  0  # atno 17321 bound_to 7965
  139.5273  144.3019  152.1066 LP  0  0  0  0  0  0  0  0  0  0  0  0  # atno 17342 bound_to 10162
  140.2195  144.4480  150.6348 LP  0  0  0  0  0  0  0  0  0  0  0  0  # atno 17343 bound_to 10162
  156.0028  130.3871  150.2540 LP  0  0  0  0  0  0  0  0  0  0  0  0  # atno 17370 bound_to 10713
  157.0717  131.0119  151.3187 LP  0  0  0  0  0  0  0  0  0  0  0  0  # atno 17371 bound_to 10713
  139.9837  135.0089  156.9812 LP  0  0  0  0  0  0  0  0  0  0  0  0  # atno 17394 bound_to 11000
  140.5065  134.1045  155.7261 LP  0  0  0  0  0  0  0  0  0  0  0  0  # atno 17395 bound_to 11000

$$$$
