AV-unprocessed.smi:21|AV-procd|sdf|127|dock5
  -GOLD-   2262015313D 1   1.00000     0.00000
 Structure written by MMmdl.
 62 65  0  0  0  0  0  0  0  0  2 V2000
  145.1291  133.5387  151.0107 C   0  0  0  0  0  0  0  0  0  0  0  0
  145.9012  134.7038  150.7677 O   0  0  0  0  0  0  0  0  0  0  0  0
  145.1232  135.8793  150.5825 C   0  0  1  0  0  0  0  0  0  0  0  0
  144.4978  136.2719  151.9149 C   0  0  0  0  0  0  0  0  0  0  0  0
  145.6166  137.0176  152.6559 C   0  0  2  0  0  0  0  0  0  0  0  0
  145.0925  138.0394  153.6981 C   0  0  0  0  0  0  0  0  0  0  0  0
  145.1953  137.5570  155.0753 N   0  0  0  0  0  0  0  0  0  0  0  0
  144.6856  136.2189  155.3735 C   0  0  0  0  0  0  0  0  0  0  0  0
  146.0335  138.1604  155.9710 C   0  0  0  0  0  0  0  0  0  0  0  0
  146.1601  137.6031  157.2065 N   0  0  0  0  0  0  0  0  0  0  0  0
  146.9732  138.1327  158.1232 C   0  0  0  0  0  0  0  0  0  0  0  0
  147.7505  139.2094  158.0221 N   0  0  0  0  0  0  0  0  0  0  0  0
  147.6318  139.7862  156.7936 C   0  0  0  0  0  0  0  0  0  0  0  0
  146.8042  139.3404  155.7207 C   0  0  0  0  0  0  0  0  0  0  0  0
  146.9563  140.2054  154.6395 N   0  0  0  0  0  0  0  0  0  0  0  0
  147.8202  141.0947  155.0441 C   0  0  0  0  0  0  0  0  0  0  0  0
  148.2865  140.9100  156.3235 N   0  0  0  0  0  0  0  0  0  0  0  0
  149.2525  141.7325  157.0287 C   0  0  0  0  0  0  0  0  0  0  0  0
  150.5473  140.9752  157.4283 C   0  0  1  0  0  0  0  0  0  0  0  0
  151.5144  140.7913  156.2304 C   0  0  0  0  0  0  0  0  0  0  0  0
  150.8584  140.2843  155.0860 O   0  0  0  0  0  0  0  0  0  0  0  0
  151.2479  141.6957  158.6105 C   0  0  2  0  0  0  0  0  0  0  0  0
  151.7405  143.1025  158.3090 C   0  0  0  0  0  0  0  0  0  0  0  0
  152.7588  143.3415  159.4182 C   0  0  0  0  0  0  0  0  0  0  0  0
  153.3139  142.0661  159.7148 O   0  0  0  0  0  0  0  0  0  0  0  0
  152.5601  141.0462  159.0682 C   0  0  0  0  0  0  0  0  0  0  0  0
  146.5071  137.5703  151.5939 N   0  3  2  0  0  0  0  0  0  0  0  0
  146.7941  139.0236  151.6145 C   0  0  0  0  0  0  0  0  0  0  0  0
  146.0167  137.0863  150.2837 C   0  0  0  0  0  0  0  0  0  0  0  0
  144.3572  135.7235  149.8205 H   0  0  0  0  0  0  0  0  0  0  0  0
  146.2268  136.2719  153.1659 H   0  0  0  0  0  0  0  0  0  0  0  0
  145.7920  132.6814  151.1257 H   0  0  0  0  0  0  0  0  0  0  0  0
  144.4460  133.3243  150.1889 H   0  0  0  0  0  0  0  0  0  0  0  0
  144.5492  133.6376  151.9292 H   0  0  0  0  0  0  0  0  0  0  0  0
  143.6600  136.9459  151.7304 H   0  0  0  0  0  0  0  0  0  0  0  0
  144.1162  135.4164  152.4735 H   0  0  0  0  0  0  0  0  0  0  0  0
  145.6040  138.9962  153.6222 H   0  0  0  0  0  0  0  0  0  0  0  0
  144.0473  138.2655  153.4860 H   0  0  0  0  0  0  0  0  0  0  0  0
  144.1529  136.2123  156.3251 H   0  0  0  0  0  0  0  0  0  0  0  0
  145.5015  135.4973  155.4279 H   0  0  0  0  0  0  0  0  0  0  0  0
  143.9895  135.8777  154.6072 H   0  0  0  0  0  0  0  0  0  0  0  0
  147.0070  137.6182  159.0723 H   0  0  0  0  0  0  0  0  0  0  0  0
  148.1501  141.9079  154.4140 H   0  0  0  0  0  0  0  0  0  0  0  0
  149.4984  142.5927  156.4049 H   0  0  0  0  0  0  0  0  0  0  0  0
  148.7466  142.1276  157.9093 H   0  0  0  0  0  0  0  0  0  0  0  0
  150.2648  139.9829  157.7839 H   0  0  0  0  0  0  0  0  0  0  0  0
  152.0083  141.7313  155.9827 H   0  0  0  0  0  0  0  0  0  0  0  0
  152.3021  140.0775  156.4646 H   0  0  0  0  0  0  0  0  0  0  0  0
  149.9532  140.5543  155.1160 H   0  0  0  0  0  0  0  0  0  0  0  0
  150.5680  141.7419  159.4628 H   0  0  0  0  0  0  0  0  0  0  0  0
  152.2338  143.1335  157.3362 H   0  0  0  0  0  0  0  0  0  0  0  0
  150.9503  143.8532  158.3155 H   0  0  0  0  0  0  0  0  0  0  0  0
  153.5301  144.0554  159.1285 H   0  0  0  0  0  0  0  0  0  0  0  0
  152.2647  143.7206  160.3136 H   0  0  0  0  0  0  0  0  0  0  0  0
  152.3982  140.2029  159.7399 H   0  0  0  0  0  0  0  0  0  0  0  0
  153.1343  140.6898  158.2118 H   0  0  0  0  0  0  0  0  0  0  0  0
  145.8832  139.6140  151.5060 H   0  0  0  0  0  0  0  0  0  0  0  0
  147.4612  139.2836  150.7923 H   0  0  0  0  0  0  0  0  0  0  0  0
  147.2954  139.3113  152.5387 H   0  0  0  0  0  0  0  0  0  0  0  0
  146.8398  136.8671  149.6045 H   0  0  0  0  0  0  0  0  0  0  0  0
  145.4086  137.8640  149.8189 H   0  0  0  0  0  0  0  0  0  0  0  0
  147.3955  137.1120  151.7388 H   0  0  0  0  0  0  0  0  0  0  0  0
  1  2  1  0  0  0  0
  1 32  1  0  0  0  0
  1 33  1  0  0  0  0
  1 34  1  0  0  0  0
  2  3  1  0  0  0  0
  3 30  1  0  0  0  0
  3 29  1  0  0  0  0
  3  4  1  0  0  0  0
  4  5  1  0  0  0  0
  4 35  1  0  0  0  0
  4 36  1  0  0  0  0
  5 31  1  0  0  0  0
  5  6  1  0  0  0  0
  5 27  1  0  0  0  0
  6  7  1  0  0  0  0
  6 37  1  0  0  0  0
  6 38  1  0  0  0  0
  7  8  1  0  0  0  0
  7  9  1  0  0  0  0
  8 39  1  0  0  0  0
  8 40  1  0  0  0  0
  8 41  1  0  0  0  0
  9 14  1  0  0  0  0
  9 10  2  0  0  0  0
 10 11  1  0  0  0  0
 11 12  2  0  0  0  0
 11 42  1  0  0  0  0
 12 13  1  0  0  0  0
 13 17  1  0  0  0  0
 13 14  2  0  0  0  0
 14 15  1  0  0  0  0
 15 16  2  0  0  0  0
 16 17  1  0  0  0  0
 16 43  1  0  0  0  0
 17 18  1  0  0  0  0
 18 19  1  0  0  0  0
 18 44  1  0  0  0  0
 18 45  1  0  0  0  0
 19 20  1  0  0  0  0
 19 22  1  0  0  0  0
 19 46  1  0  0  0  0
 20 21  1  0  0  0  0
 20 47  1  0  0  0  0
 20 48  1  0  0  0  0
 21 49  1  0  0  0  0
 22 26  1  0  0  0  0
 22 23  1  0  0  0  0
 22 50  1  0  0  0  0
 23 24  1  0  0  0  0
 23 51  1  0  0  0  0
 23 52  1  0  0  0  0
 24 25  1  0  0  0  0
 24 53  1  0  0  0  0
 24 54  1  0  0  0  0
 25 26  1  0  0  0  0
 26 55  1  0  0  0  0
 26 56  1  0  0  0  0
 27 28  1  0  0  0  0
 27 29  1  0  0  0  0
 27 62  1  0  0  0  0
 28 57  1  0  0  0  0
 28 58  1  0  0  0  0
 28 59  1  0  0  0  0
 29 60  1  0  0  0  0
 29 61  1  0  0  0  0
M  CHG  1  27   1
M  END
> <s_m_source_file>
AV-unprocessed.smi

> <i_m_source_file_index>
21

> <i_lp_mmshare_version>
43012

> <i_f3d_flags>
0

> <s_epik_input>
W0NIM11PW0NASF0xW0NIMl1bQ0BIXShOKFtDSDNdKVtDSDJdMSlbQ0gyXU4oW0NIM10pYyhuW2NIXW4yKWMoYzIzKW5bY0hdbjNbQ0gyXVtDQEhdKFtDSDJdW09IXSlbQ0BASF00W0NIMl1bQ0gyXU9bQ0gyXTQ=

> <s_epik_cmdline>
J2VwaWtfcHl0aG9uJywgJy1waCcsICc3LjAnLCAnLXRuJywgJzgnLCAnLW1hJywgJzIwMCcsICctbWV0YWxfYmluZGluZycsICctaW1hZScsICc8aW5maWxlLm1hZT4nLCAnLW9tYWUnLCAnPG91dGZpbGUubWFlPic=

> <r_lp_tautomer_probability>
1

> <r_epik_Ionization_Penalty>
0.0157465

> <r_epik_Ionization_Penalty_Charging>
0.015354

> <r_epik_Ionization_Penalty_Neutral>
0.000392529

> <r_epik_State_Penalty>
0.0120612

> <r_epik_Charging_Adjusted_Penalty>
0.0274152

> <i_epik_Tot_Q>
1

> <i_epik_Tot_abs_Q>
1

> <r_epik_Metal_State_Penalty>
0.0121253

> <b_epik_Metal_Only>
0

> <s_lp_Force_Field>
OPLS_2005

> <r_lp_Energy>
61.4457

> <b_lp_Chiralities_Consistent>
1

> <s_lp_Variant>
AV-unprocessed.smi:21-7

> <Gold.Version>
5.8.1

> <Gold.Id.Protein>
6NUR|6NUR_protein|mol2

> <Gold.PLP.Fitness>
45.7136

> <Gold.PLP.PLP>
-38.0319

> <Gold.PLP.part.hbond>
-2.8822

> <Gold.PLP.part.metal>
0.0000

> <Gold.PLP.part.buried>
-3.8698

> <Gold.PLP.part.nonpolar>
-32.0161

> <Gold.PLP.part.repulsive>
0.3356

> <Gold.PLP.ligand.clash>
0.0000

> <Gold.PLP.ligand.torsion>
1.0171

> <Gold.PLP.Chemscore.Hbond>
3.0000

> <Gold.PLP.Chemscore.CHOScore>
0.0000

> <Gold.PLP.Chemscore.Metal>
0.0000

> <Gold.Chemscore.Hbonds>
donor molecule, donor type, donor heavy atom, donor atom, acceptor molecule, acceptor atom, score
      L1  H    27    62       P1  7948  2.00
      P1  H  7989  7998       L1    21  1.00

> <Gold.PLP.Chemscore.Internal.Correction>
0.7160

> <Gold.Rescore>
     Score         DG    S(hbond)    S(metal)    S(lipo)     H(rot)  DE(clash)    DE(int)     intcor
     12.18     -15.37       1.88        0.00      98.20       3.08       0.19       3.00       ----

> <Gold.Chemscore.Fitness>
12.1817

> <Gold.Chemscore.DG>
-15.3741

> <Gold.Chemscore.ZeroCoef>
-5.4800

> <Gold.Chemscore.Hbond>
1.8797

> <Gold.Chemscore.Metal>
0.0000

> <Gold.Chemscore.Lipo>
98.2048

> <Gold.Chemscore.Internal_Hbond>
0.0000

> <Gold.Chemscore.DEClash>
0.1942

> <Gold.Chemscore.DEInternal>
2.9982

> <Gold.Chemscore.Rot>
3.0758

> <Gold.Chemscore.Internal.Correction>
   9.000000E+99

> <Gold.Chemscore.Hbonds>
donor molecule, donor type, donor heavy atom, donor atom, acceptor molecule, acceptor atom, score
      L1  H    27    62       P1  7948  1.00
      P1  H  7989  7998       L1    21  0.60

> <Gold.Chemscore.Hbond.Weighted>
-6.2783

> <Gold.Chemscore.Metal.Weighted>
-0.0000

> <Gold.Chemscore.Lipo.Weighted>
-11.4900

> <Gold.Chemscore.Internal_Hbond.Weighted>
0.0000

> <Gold.Chemscore.DEClash.Weighted>
0.1942

> <Gold.Chemscore.DEInternal.Weighted>
2.9982

> <Gold.Chemscore.Rot.Weighted>
7.8741

> <Gold.Chemscore.Internal.Correction.Weighted>
   9.000000E+99

> <Gold.Protein.RotatedTorsions>
[ 6907 6896 6895 6894 ] final   50.87 input  -60.11 | X-H torsion
[ 7974 7965 7964 7962 ] final  -22.77 input  175.53 | X-H torsion
[ 8008 7997 7996 7995 ] final   18.31 input   59.86 | X-H torsion
[ 10167 10162 10161 10158 ] final  168.50 input  -65.29 | X-H torsion
[ 10718 10713 10712 10709 ] final   70.25 input   66.30 | X-H torsion
[ 10763 10752 10751 10750 ] final -126.90 input  -60.55 | X-H torsion
[ 11005 11000 10999 10996 ] final  136.92 input  -57.11 | X-H torsion

> <Gold.Protein.ActiveResidues>
 VAL166  LYS551  ARG553  GLY616  TRP617  ASP618  TYR619  PRO620  LYS621  CYS622 
 ASP623  PHE694  ASN695  SER759  ASP760  ASP761  ALA762  ILE779  LEU786  VAL792 
 PHE793  MET794  SER795  GLU796  ALA797  LYS798  CYS799  TRP800  GLU811  SER814 

> <Gold.Protein.RotatedAtoms>
  152.3065  134.7549  160.0345 H   0  0  0  0  0  0  0  0  0  0  0  0  # atno 6907 bound_to 6896
  151.8044  133.3368  159.3544 H   0  0  0  0  0  0  0  0  0  0  0  0  # atno 6908 bound_to 6896
  150.7299  134.5653  159.5907 H   0  0  0  0  0  0  0  0  0  0  0  0  # atno 6909 bound_to 6896
  146.1656  140.4524  142.8553 H   0  0  0  0  0  0  0  0  0  0  0  0  # atno 7974 bound_to 7965
  154.9041  140.3005  155.5302 H   0  0  0  0  0  0  0  0  0  0  0  0  # atno 8008 bound_to 7997
  156.3017  140.2401  156.4007 H   0  0  0  0  0  0  0  0  0  0  0  0  # atno 8009 bound_to 7997
  154.8492  140.0410  157.1581 H   0  0  0  0  0  0  0  0  0  0  0  0  # atno 8010 bound_to 7997
  139.4969  144.3808  151.9625 H   0  0  0  0  0  0  0  0  0  0  0  0  # atno 10167 bound_to 10162
  157.6389  130.9467  150.0624 H   0  0  0  0  0  0  0  0  0  0  0  0  # atno 10718 bound_to 10713
  154.8749  135.3980  154.3506 H   0  0  0  0  0  0  0  0  0  0  0  0  # atno 10763 bound_to 10752
  153.4292  135.7025  153.6247 H   0  0  0  0  0  0  0  0  0  0  0  0  # atno 10764 bound_to 10752
  153.4876  135.3755  155.2445 H   0  0  0  0  0  0  0  0  0  0  0  0  # atno 10765 bound_to 10752
  140.0079  134.9451  157.0214 H   0  0  0  0  0  0  0  0  0  0  0  0  # atno 11005 bound_to 11000
  144.8088  140.6348  143.6429 LP  0  0  0  0  0  0  0  0  0  0  0  0  # atno 17320 bound_to 7965
  145.4476  139.1527  143.3936 LP  0  0  0  0  0  0  0  0  0  0  0  0  # atno 17321 bound_to 7965
  140.3244  144.3390  150.6002 LP  0  0  0  0  0  0  0  0  0  0  0  0  # atno 17342 bound_to 10162
  140.5696  143.2182  151.7622 LP  0  0  0  0  0  0  0  0  0  0  0  0  # atno 17343 bound_to 10162
  156.1653  130.3645  149.9241 LP  0  0  0  0  0  0  0  0  0  0  0  0  # atno 17370 bound_to 10713
  156.7230  130.9014  151.3619 LP  0  0  0  0  0  0  0  0  0  0  0  0  # atno 17371 bound_to 10713
  140.4608  134.1486  155.7191 LP  0  0  0  0  0  0  0  0  0  0  0  0  # atno 17394 bound_to 11000
  141.1690  133.8647  157.1629 LP  0  0  0  0  0  0  0  0  0  0  0  0  # atno 17395 bound_to 11000

$$$$
