AV-unprocessed.smi:2470|AV-procd|sdf|9735|dock7
  -GOLD-   2272013373D 1   1.00000     0.00000
 Structure written by MMmdl.
 33 34  0  0  0  0  0  0  0  0  1 V2000
  151.8971  137.8444  154.8610 C   0  0  0  0  0  0  0  0  0  0  0  0
  150.6894  137.8633  154.1084 O   0  0  0  0  0  0  0  0  0  0  0  0
  149.8419  138.9406  154.2639 C   0  0  0  0  0  0  0  0  0  0  0  0
  150.2743  140.0578  155.0076 C   0  0  0  0  0  0  0  0  0  0  0  0
  149.3776  141.1417  155.1392 C   0  0  0  0  0  0  0  0  0  0  0  0
  149.8520  142.2463  155.8949 N   0  0  0  0  0  0  0  0  0  0  0  0
  150.8654  142.2726  156.7781 C   0  0  0  0  0  0  0  0  0  0  0  0
  151.5521  141.3024  157.0997 O   0  0  0  0  0  0  0  0  0  0  0  0
  151.0380  143.5054  157.2788 N   0  0  0  0  0  0  0  0  0  0  0  0
  152.0451  143.8979  158.2610 C   0  0  2  0  0  0  0  0  0  0  0  0
  152.1667  142.7977  159.3248 C   0  0  0  0  0  0  0  0  0  0  0  0
  151.7447  145.2416  158.8974 C   0  0  0  0  0  0  0  0  0  0  0  0
  152.0987  145.5166  160.3390 C   0  0  0  0  0  0  0  0  0  0  0  0
  150.6493  145.3873  159.9266 C   0  0  0  0  0  0  0  0  0  0  0  0
  148.1518  141.0794  154.5625 N   0  0  0  0  0  0  0  0  0  0  0  0
  147.8369  139.9767  153.8805 C   0  0  0  0  0  0  0  0  0  0  0  0
  148.6109  138.9060  153.6986 N   0  0  0  0  0  0  0  0  0  0  0  0
  152.4446  136.9280  154.6415 H   0  0  0  0  0  0  0  0  0  0  0  0
  151.6996  137.8623  155.9338 H   0  0  0  0  0  0  0  0  0  0  0  0
  152.5412  138.6857  154.6011 H   0  0  0  0  0  0  0  0  0  0  0  0
  151.2572  140.0774  155.4555 H   0  0  0  0  0  0  0  0  0  0  0  0
  149.3665  143.1176  155.7423 H   0  0  0  0  0  0  0  0  0  0  0  0
  150.4222  144.2358  156.9528 H   0  0  0  0  0  0  0  0  0  0  0  0
  153.0172  143.9870  157.7725 H   0  0  0  0  0  0  0  0  0  0  0  0
  152.9397  143.0416  160.0543 H   0  0  0  0  0  0  0  0  0  0  0  0
  152.4331  141.8415  158.8729 H   0  0  0  0  0  0  0  0  0  0  0  0
  151.2295  142.6623  159.8658 H   0  0  0  0  0  0  0  0  0  0  0  0
  151.8600  146.0817  158.2146 H   0  0  0  0  0  0  0  0  0  0  0  0
  152.5316  144.7030  160.9180 H   0  0  0  0  0  0  0  0  0  0  0  0
  152.4658  146.5110  160.5846 H   0  0  0  0  0  0  0  0  0  0  0  0
  150.0507  146.2952  159.8977 H   0  0  0  0  0  0  0  0  0  0  0  0
  150.1192  144.4885  160.2357 H   0  0  0  0  0  0  0  0  0  0  0  0
  146.8557  139.9484  153.4305 H   0  0  0  0  0  0  0  0  0  0  0  0
  1  2  1  0  0  0  0
  1 18  1  0  0  0  0
  1 19  1  0  0  0  0
  1 20  1  0  0  0  0
  2  3  1  0  0  0  0
  3 17  1  0  0  0  0
  3  4  2  0  0  0  0
  4  5  1  0  0  0  0
  4 21  1  0  0  0  0
  5  6  1  0  0  0  0
  5 15  2  0  0  0  0
  6  7  1  0  0  0  0
  6 22  1  0  0  0  0
  7  8  2  0  0  0  0
  7  9  1  0  0  0  0
  9 10  1  0  0  0  0
  9 23  1  0  0  0  0
 10 11  1  0  0  0  0
 10 12  1  0  0  0  0
 10 24  1  0  0  0  0
 11 25  1  0  0  0  0
 11 26  1  0  0  0  0
 11 27  1  0  0  0  0
 12 14  1  0  0  0  0
 12 13  1  0  0  0  0
 12 28  1  0  0  0  0
 13 14  1  0  0  0  0
 13 29  1  0  0  0  0
 13 30  1  0  0  0  0
 14 31  1  0  0  0  0
 14 32  1  0  0  0  0
 15 16  1  0  0  0  0
 16 17  2  0  0  0  0
 16 33  1  0  0  0  0
M  END
> <s_m_source_file>
AV-unprocessed.smi

> <i_m_source_file_index>
2470

> <i_lp_mmshare_version>
43012

> <i_f3d_flags>
0

> <s_epik_input>
W0NIM11PYzFbY0hdYyhuW2NIXW4xKVtOSF1DKD1PKVtOSF1bQ0BIXShbQ0gzXSlbQ0hdMltDSDJdW0NIMl0y

> <s_epik_cmdline>
J2VwaWtfcHl0aG9uJywgJy1waCcsICc3LjAnLCAnLXRuJywgJzgnLCAnLW1hJywgJzIwMCcsICctbWV0YWxfYmluZGluZycsICctaW1hZScsICc8aW5maWxlLm1hZT4nLCAnLW9tYWUnLCAnPG91dGZpbGUubWFlPic=

> <r_lp_tautomer_probability>
1

> <r_epik_Ionization_Penalty>
2.81207e-05

> <r_epik_Ionization_Penalty_Charging>
0

> <r_epik_Ionization_Penalty_Neutral>
2.81207e-05

> <r_epik_State_Penalty>
-0

> <r_epik_Charging_Adjusted_Penalty>
0

> <i_epik_Tot_Q>
0

> <i_epik_Tot_abs_Q>
0

> <r_epik_Metal_State_Penalty>
-0

> <b_epik_Metal_Only>
0

> <s_lp_Force_Field>
OPLS_2005

> <r_lp_Energy>
11.3699

> <b_lp_Chiralities_Consistent>
1

> <s_lp_Variant>
AV-unprocessed.smi:2470-1

> <Gold.Version>
5.8.1

> <Gold.Id.Protein>
6NUR|6NUR_protein|mol2

> <Gold.PLP.Fitness>
41.0087

> <Gold.PLP.PLP>
-36.1641

> <Gold.PLP.part.hbond>
-2.0000

> <Gold.PLP.part.metal>
0.0000

> <Gold.PLP.part.buried>
-4.9977

> <Gold.PLP.part.nonpolar>
-31.0559

> <Gold.PLP.part.repulsive>
1.7500

> <Gold.PLP.ligand.clash>
0.0809

> <Gold.PLP.ligand.torsion>
0.9539

> <Gold.PLP.Chemscore.Hbond>
1.9204

> <Gold.PLP.Chemscore.CHOScore>
0.0000

> <Gold.PLP.Chemscore.Metal>
0.0000

> <Gold.Chemscore.Hbonds>
donor molecule, donor type, donor heavy atom, donor atom, acceptor molecule, acceptor atom, score
      L1  H     6    22       P1  8028  1.00
      L1  H     9    23       P1  8028  0.92

> <Gold.PLP.Chemscore.Internal.Correction>
1.0722

> <Gold.Rescore>
     Score         DG    S(hbond)    S(metal)    S(lipo)     H(rot)  DE(clash)    DE(int)     intcor
     12.22     -16.32       1.93        0.00      72.74       1.61       0.30       3.81       ----

> <Gold.Chemscore.Fitness>
12.2194

> <Gold.Chemscore.DG>
-16.3210

> <Gold.Chemscore.ZeroCoef>
-5.4800

> <Gold.Chemscore.Hbond>
1.9324

> <Gold.Chemscore.Metal>
0.0000

> <Gold.Chemscore.Lipo>
72.7403

> <Gold.Chemscore.Internal_Hbond>
0.0000

> <Gold.Chemscore.DEClash>
0.2960

> <Gold.Chemscore.DEInternal>
3.8056

> <Gold.Chemscore.Rot>
1.6109

> <Gold.Chemscore.Internal.Correction>
   9.000000E+99

> <Gold.Chemscore.Hbonds>
donor molecule, donor type, donor heavy atom, donor atom, acceptor molecule, acceptor atom, score
      L1  H     6    22       P1  8028  1.00
      L1  H     9    23       P1  8028  0.80

> <Gold.Chemscore.Hbond.Weighted>
-6.4544

> <Gold.Chemscore.Metal.Weighted>
-0.0000

> <Gold.Chemscore.Lipo.Weighted>
-8.5106

> <Gold.Chemscore.Internal_Hbond.Weighted>
0.0000

> <Gold.Chemscore.DEClash.Weighted>
0.2960

> <Gold.Chemscore.DEInternal.Weighted>
3.8056

> <Gold.Chemscore.Rot.Weighted>
4.1240

> <Gold.Chemscore.Internal.Correction.Weighted>
   9.000000E+99

> <Gold.Protein.RotatedTorsions>
[ 6907 6896 6895 6894 ] final   68.16 input  -60.11 | X-H torsion
[ 7974 7965 7964 7962 ] final  -90.89 input  175.53 | X-H torsion
[ 8008 7997 7996 7995 ] final   70.62 input   59.86 | X-H torsion
[ 10167 10162 10161 10158 ] final   99.97 input  -65.29 | X-H torsion
[ 10718 10713 10712 10709 ] final   33.10 input   66.30 | X-H torsion
[ 10763 10752 10751 10750 ] final  145.47 input  -60.55 | X-H torsion
[ 11005 11000 10999 10996 ] final  158.54 input  -57.11 | X-H torsion

> <Gold.Protein.ActiveResidues>
 VAL166  LYS551  ARG553  GLY616  TRP617  ASP618  TYR619  PRO620  LYS621  CYS622 
 ASP623  PHE694  ASN695  SER759  ASP760  ASP761  ALA762  ILE779  LEU786  VAL792 
 PHE793  MET794  SER795  GLU796  ALA797  LYS798  CYS799  TRP800  GLU811  SER814 

> <Gold.Protein.RotatedAtoms>
  152.4602  134.5202  159.9779 H   0  0  0  0  0  0  0  0  0  0  0  0  # atno 6907 bound_to 6896
  151.5253  133.3453  159.2916 H   0  0  0  0  0  0  0  0  0  0  0  0  # atno 6908 bound_to 6896
  150.8561  134.7930  159.7109 H   0  0  0  0  0  0  0  0  0  0  0  0  # atno 6909 bound_to 6896
  145.4204  140.9551  143.2184 H   0  0  0  0  0  0  0  0  0  0  0  0  # atno 7974 bound_to 7965
  155.7415  140.3490  155.5106 H   0  0  0  0  0  0  0  0  0  0  0  0  # atno 8008 bound_to 7997
  155.9090  140.1047  157.1315 H   0  0  0  0  0  0  0  0  0  0  0  0  # atno 8009 bound_to 7997
  154.4053  140.1271  156.4519 H   0  0  0  0  0  0  0  0  0  0  0  0  # atno 8010 bound_to 7997
  139.7570  144.6966  151.0349 H   0  0  0  0  0  0  0  0  0  0  0  0  # atno 10167 bound_to 10162
  157.2937  130.7315  149.6625 H   0  0  0  0  0  0  0  0  0  0  0  0  # atno 10718 bound_to 10713
  154.0060  135.2919  155.3397 H   0  0  0  0  0  0  0  0  0  0  0  0  # atno 10763 bound_to 10752
  154.7131  135.5141  153.8700 H   0  0  0  0  0  0  0  0  0  0  0  0  # atno 10764 bound_to 10752
  153.0744  135.6658  154.0296 H   0  0  0  0  0  0  0  0  0  0  0  0  # atno 10765 bound_to 10752
  140.1875  134.8431  157.2874 H   0  0  0  0  0  0  0  0  0  0  0  0  # atno 11005 bound_to 11000
  144.8249  139.5727  143.6970 LP  0  0  0  0  0  0  0  0  0  0  0  0  # atno 17320 bound_to 7965
  146.2659  139.6520  142.9329 LP  0  0  0  0  0  0  0  0  0  0  0  0  # atno 17321 bound_to 7965
  140.7803  143.4742  151.0105 LP  0  0  0  0  0  0  0  0  0  0  0  0  # atno 17342 bound_to 10162
  139.8429  143.7540  152.3180 LP  0  0  0  0  0  0  0  0  0  0  0  0  # atno 17343 bound_to 10162
  155.9668  130.4301  150.4862 LP  0  0  0  0  0  0  0  0  0  0  0  0  # atno 17370 bound_to 10713
  157.2829  131.0610  151.2185 LP  0  0  0  0  0  0  0  0  0  0  0  0  # atno 17371 bound_to 10713
  140.2197  134.4038  155.7572 LP  0  0  0  0  0  0  0  0  0  0  0  0  # atno 17394 bound_to 11000
  141.2225  133.7160  156.8471 LP  0  0  0  0  0  0  0  0  0  0  0  0  # atno 17395 bound_to 11000

$$$$
