AV-unprocessed.smi:2587|AV-procd|sdf|10147|dock6
  -GOLD-   2272014163D 1   1.00000     0.00000
 Structure written by MMmdl.
 40 41  0  0  0  0  0  0  0  0  2 V2000
  150.7632  137.5199  158.5230 C   0  0  0  0  0  0  0  0  0  0  0  0
  151.8929  138.2006  158.2799 C   0  0  0  0  0  0  0  0  0  0  0  0
  152.5981  138.2397  156.9392 C   0  0  0  0  0  0  0  0  0  0  0  0
  151.7344  138.7088  155.8582 N   0  0  0  0  0  0  0  0  0  0  0  0
  151.2974  137.7406  154.8518 C   0  0  0  0  0  0  0  0  0  0  0  0
  150.6366  136.5029  155.4776 C   0  0  0  0  0  0  0  0  0  0  0  0
  150.1235  135.6789  154.4548 O   0  0  0  0  0  0  0  0  0  0  0  0
  151.1377  139.9921  155.9239 C   0  0  0  0  0  0  0  0  0  0  0  0
  151.4137  140.8979  156.9723 C   0  0  0  0  0  0  0  0  0  0  0  0
  150.7705  142.1587  156.9583 C   0  0  0  0  0  0  0  0  0  0  0  0
  150.9777  143.1523  157.9415 N   0  0  0  0  0  0  0  0  0  0  0  0
  149.8420  143.5599  158.7648 C   0  0  0  0  0  0  0  0  0  0  0  0
  150.3159  144.3929  159.9676 C   0  0  0  0  0  0  0  0  0  0  0  0
  151.1004  145.4890  159.5128 O   0  0  0  0  0  0  0  0  0  0  0  0
  152.2733  145.0514  158.8368 C   0  0  0  0  0  0  0  0  0  0  0  0
  151.8819  144.2457  157.5868 C   0  0  0  0  0  0  0  0  0  0  0  0
  149.9153  142.4428  155.9416 N   0  3  0  0  0  0  0  0  0  0  0  0
  149.6920  141.5476  154.9714 C   0  0  0  0  0  0  0  0  0  0  0  0
  150.2785  140.3489  154.9436 N   0  0  0  0  0  0  0  0  0  0  0  0
  150.2760  136.9454  157.7490 H   0  0  0  0  0  0  0  0  0  0  0  0
  150.3110  137.5287  159.5041 H   0  0  0  0  0  0  0  0  0  0  0  0
  152.3544  138.7600  159.0807 H   0  0  0  0  0  0  0  0  0  0  0  0
  153.4477  138.9167  157.0346 H   0  0  0  0  0  0  0  0  0  0  0  0
  153.0227  137.2642  156.6998 H   0  0  0  0  0  0  0  0  0  0  0  0
  150.6276  138.2101  154.1304 H   0  0  0  0  0  0  0  0  0  0  0  0
  152.1706  137.4302  154.2764 H   0  0  0  0  0  0  0  0  0  0  0  0
  151.3559  135.9314  156.0650 H   0  0  0  0  0  0  0  0  0  0  0  0
  149.8220  136.7879  156.1438 H   0  0  0  0  0  0  0  0  0  0  0  0
  149.8458  136.2271  153.7369 H   0  0  0  0  0  0  0  0  0  0  0  0
  152.0972  140.6336  157.7622 H   0  0  0  0  0  0  0  0  0  0  0  0
  149.1461  144.1392  158.1567 H   0  0  0  0  0  0  0  0  0  0  0  0
  149.3079  142.6848  159.1363 H   0  0  0  0  0  0  0  0  0  0  0  0
  149.4579  144.7751  160.5207 H   0  0  0  0  0  0  0  0  0  0  0  0
  150.8947  143.7813  160.6618 H   0  0  0  0  0  0  0  0  0  0  0  0
  152.8644  145.9217  158.5517 H   0  0  0  0  0  0  0  0  0  0  0  0
  152.8923  144.4533  159.5077 H   0  0  0  0  0  0  0  0  0  0  0  0
  152.7904  143.8776  157.1104 H   0  0  0  0  0  0  0  0  0  0  0  0
  151.3825  144.8938  156.8656 H   0  0  0  0  0  0  0  0  0  0  0  0
  149.0050  141.8369  154.1898 H   0  0  0  0  0  0  0  0  0  0  0  0
  149.4492  143.3501  155.9186 H   0  0  0  0  0  0  0  0  0  0  0  0
  1  2  2  0  0  0  0
  1 20  1  0  0  0  0
  1 21  1  0  0  0  0
  2  3  1  0  0  0  0
  2 22  1  0  0  0  0
  3  4  1  0  0  0  0
  3 23  1  0  0  0  0
  3 24  1  0  0  0  0
  4  5  1  0  0  0  0
  4  8  1  0  0  0  0
  5  6  1  0  0  0  0
  5 25  1  0  0  0  0
  5 26  1  0  0  0  0
  6  7  1  0  0  0  0
  6 27  1  0  0  0  0
  6 28  1  0  0  0  0
  7 29  1  0  0  0  0
  8 19  1  0  0  0  0
  8  9  2  0  0  0  0
  9 10  1  0  0  0  0
  9 30  1  0  0  0  0
 10 11  1  0  0  0  0
 10 17  2  0  0  0  0
 11 16  1  0  0  0  0
 11 12  1  0  0  0  0
 12 13  1  0  0  0  0
 12 31  1  0  0  0  0
 12 32  1  0  0  0  0
 13 14  1  0  0  0  0
 13 33  1  0  0  0  0
 13 34  1  0  0  0  0
 14 15  1  0  0  0  0
 15 16  1  0  0  0  0
 15 35  1  0  0  0  0
 15 36  1  0  0  0  0
 16 37  1  0  0  0  0
 16 38  1  0  0  0  0
 17 18  1  0  0  0  0
 17 40  1  0  0  0  0
 18 19  2  0  0  0  0
 18 39  1  0  0  0  0
M  CHG  1  17   1
M  END
> <s_m_source_file>
AV-unprocessed.smi

> <i_m_source_file_index>
2587

> <i_lp_mmshare_version>
43012

> <i_f3d_flags>
0

> <s_epik_input>
W0NIMl09W0NIXVtDSDJdTihbQ0gyXVtDSDJdW09IXSljMVtjSF1jKG5bY0hdbjEpTjJbQ0gyXVtDSDJdT1tDSDJdW0NIMl0y

> <s_epik_cmdline>
J2VwaWtfcHl0aG9uJywgJy1waCcsICc3LjAnLCAnLXRuJywgJzgnLCAnLW1hJywgJzIwMCcsICctbWV0YWxfYmluZGluZycsICctaW1hZScsICc8aW5maWxlLm1hZT4nLCAnLW9tYWUnLCAnPG91dGZpbGUubWFlPic=

> <r_lp_tautomer_probability>
0.999336

> <r_epik_Ionization_Penalty>
3.67622

> <r_epik_Ionization_Penalty_Charging>
3.67622

> <r_epik_Ionization_Penalty_Neutral>
1.25637e-07

> <r_epik_State_Penalty>
2.4309

> <r_epik_Charging_Adjusted_Penalty>
6.10712

> <i_epik_Tot_Q>
1

> <i_epik_Tot_abs_Q>
1

> <r_epik_Metal_State_Penalty>
2.43203

> <b_epik_Metal_Only>
0

> <s_lp_Force_Field>
OPLS_2005

> <r_lp_Energy>
13.6673

> <b_lp_Chiralities_Consistent>
1

> <s_lp_Variant>
AV-unprocessed.smi:2587-2

> <Gold.Version>
5.8.1

> <Gold.Id.Protein>
6NUR|6NUR_protein|mol2

> <Gold.PLP.Fitness>
47.1740

> <Gold.PLP.PLP>
-36.7835

> <Gold.PLP.part.hbond>
-3.9544

> <Gold.PLP.part.metal>
0.0000

> <Gold.PLP.part.buried>
-6.7037

> <Gold.PLP.part.nonpolar>
-28.7988

> <Gold.PLP.part.repulsive>
0.5093

> <Gold.PLP.ligand.clash>
0.0000

> <Gold.PLP.ligand.torsion>
0.3923

> <Gold.PLP.Chemscore.Hbond>
3.5011

> <Gold.PLP.Chemscore.CHOScore>
0.0000

> <Gold.PLP.Chemscore.Metal>
0.0000

> <Gold.Chemscore.Hbonds>
donor molecule, donor type, donor heavy atom, donor atom, acceptor molecule, acceptor atom, score
      L1  H     7    29       P1  7948  0.82
      L1  H    17    40       P1  8028  1.85
      P1  H  7989  7998       L1    19  0.67

> <Gold.PLP.Chemscore.Internal.Correction>
0.6718

> <Gold.Rescore>
     Score         DG    S(hbond)    S(metal)    S(lipo)     H(rot)  DE(clash)    DE(int)     intcor
     12.64     -13.07       1.63        0.00      74.51       2.57       0.04       0.39       ----

> <Gold.Chemscore.Fitness>
12.6448

> <Gold.Chemscore.DG>
-13.0694

> <Gold.Chemscore.ZeroCoef>
-5.4800

> <Gold.Chemscore.Hbond>
1.6284

> <Gold.Chemscore.Metal>
0.0000

> <Gold.Chemscore.Lipo>
74.5098

> <Gold.Chemscore.Internal_Hbond>
0.0000

> <Gold.Chemscore.DEClash>
0.0382

> <Gold.Chemscore.DEInternal>
0.3864

> <Gold.Chemscore.Rot>
2.5653

> <Gold.Chemscore.Internal.Correction>
   9.000000E+99

> <Gold.Chemscore.Hbonds>
donor molecule, donor type, donor heavy atom, donor atom, acceptor molecule, acceptor atom, score
      L1  H     7    29       P1  7948  0.17
      L1  H    17    40       P1  8028  0.89
      P1  H  7989  7998       L1    19  0.02

> <Gold.Chemscore.Hbond.Weighted>
-5.4389

> <Gold.Chemscore.Metal.Weighted>
-0.0000

> <Gold.Chemscore.Lipo.Weighted>
-8.7176

> <Gold.Chemscore.Internal_Hbond.Weighted>
0.0000

> <Gold.Chemscore.DEClash.Weighted>
0.0382

> <Gold.Chemscore.DEInternal.Weighted>
0.3864

> <Gold.Chemscore.Rot.Weighted>
6.5671

> <Gold.Chemscore.Internal.Correction.Weighted>
   9.000000E+99

> <Gold.Protein.RotatedTorsions>
[ 6907 6896 6895 6894 ] final   28.91 input  -60.11 | X-H torsion
[ 7974 7965 7964 7962 ] final   66.66 input  175.53 | X-H torsion
[ 8008 7997 7996 7995 ] final   56.56 input   59.86 | X-H torsion
[ 10167 10162 10161 10158 ] final   51.78 input  -65.29 | X-H torsion
[ 10718 10713 10712 10709 ] final  176.30 input   66.30 | X-H torsion
[ 10763 10752 10751 10750 ] final   36.47 input  -60.55 | X-H torsion
[ 11005 11000 10999 10996 ] final  178.42 input  -57.11 | X-H torsion

> <Gold.Protein.ActiveResidues>
 VAL166  LYS551  ARG553  GLY616  TRP617  ASP618  TYR619  PRO620  LYS621  CYS622 
 ASP623  PHE694  ASN695  SER759  ASP760  ASP761  ALA762  ILE779  LEU786  VAL792 
 PHE793  MET794  SER795  GLU796  ALA797  LYS798  CYS799  TRP800  GLU811  SER814 

> <Gold.Protein.RotatedAtoms>
  152.0239  134.9807  160.0570 H   0  0  0  0  0  0  0  0  0  0  0  0  # atno 6907 bound_to 6896
  152.1310  133.4403  159.4729 H   0  0  0  0  0  0  0  0  0  0  0  0  # atno 6908 bound_to 6896
  150.6856  134.2339  159.4488 H   0  0  0  0  0  0  0  0  0  0  0  0  # atno 6909 bound_to 6896
  145.8240  139.3100  143.1027 H   0  0  0  0  0  0  0  0  0  0  0  0  # atno 7974 bound_to 7965
  155.5195  140.3479  155.4404 H   0  0  0  0  0  0  0  0  0  0  0  0  # atno 8008 bound_to 7997
  156.0794  140.1383  156.9758 H   0  0  0  0  0  0  0  0  0  0  0  0  # atno 8009 bound_to 7997
  154.4571  140.0949  156.6765 H   0  0  0  0  0  0  0  0  0  0  0  0  # atno 8010 bound_to 7997
  140.2583  144.3402  150.6326 H   0  0  0  0  0  0  0  0  0  0  0  0  # atno 10167 bound_to 10162
  156.9222  130.9944  151.3002 H   0  0  0  0  0  0  0  0  0  0  0  0  # atno 10718 bound_to 10713
  153.0075  135.6305  154.1991 H   0  0  0  0  0  0  0  0  0  0  0  0  # atno 10763 bound_to 10752
  154.1734  135.2817  155.3076 H   0  0  0  0  0  0  0  0  0  0  0  0  # atno 10764 bound_to 10752
  154.5891  135.5623  153.7320 H   0  0  0  0  0  0  0  0  0  0  0  0  # atno 10765 bound_to 10752
  140.3949  134.6829  157.4529 H   0  0  0  0  0  0  0  0  0  0  0  0  # atno 11005 bound_to 11000
  145.9644  140.8810  143.0194 LP  0  0  0  0  0  0  0  0  0  0  0  0  # atno 17320 bound_to 7965
  144.6745  140.1858  143.7401 LP  0  0  0  0  0  0  0  0  0  0  0  0  # atno 17321 bound_to 7965
  140.5986  143.2167  151.7116 LP  0  0  0  0  0  0  0  0  0  0  0  0  # atno 17342 bound_to 10162
  139.5024  144.3828  152.0358 LP  0  0  0  0  0  0  0  0  0  0  0  0  # atno 17343 bound_to 10162
  157.5901  130.8437  149.8646 LP  0  0  0  0  0  0  0  0  0  0  0  0  # atno 17370 bound_to 10713
  156.0486  130.3722  150.1257 LP  0  0  0  0  0  0  0  0  0  0  0  0  # atno 17371 bound_to 10713
  140.0379  134.6310  155.9019 LP  0  0  0  0  0  0  0  0  0  0  0  0  # atno 17394 bound_to 11000
  141.1878  133.6560  156.5295 LP  0  0  0  0  0  0  0  0  0  0  0  0  # atno 17395 bound_to 11000

$$$$
