AV-unprocessed.smi:72|AV-procd|sdf|670|dock5
  -GOLD-   2262016573D 1   1.00000     0.00000
 Structure written by MMmdl.
 29 30  0  0  0  0  0  0  0  0  1 V2000
  152.5647  135.7486  156.8587 N   0  0  0  0  0  0  0  0  0  0  0  0
  151.9943  136.8184  156.4316 C   0  0  0  0  0  0  0  0  0  0  0  0
  150.9520  136.8620  155.4930 N   0  0  0  0  0  0  0  0  0  0  0  0
  150.4728  138.0175  155.1490 C   0  0  0  0  0  0  0  0  0  0  0  0
  150.9841  139.2634  155.6995 N   0  0  0  0  0  0  0  0  0  0  0  0
  150.4028  140.5960  155.2754 C   0  0  1  0  0  0  0  0  0  0  0  0
  149.6115  140.3933  154.1454 O   0  0  0  0  0  0  0  0  0  0  0  0
  148.4907  141.2635  154.2005 C   0  0  1  0  0  0  0  0  0  0  0  0
  147.3584  140.7143  153.3190 C   0  0  0  0  0  0  0  0  0  0  0  0
  146.1677  141.4363  153.5512 O   0  0  0  0  0  0  0  0  0  0  0  0
  148.1511  141.2801  155.6942 C   0  0  2  0  0  0  0  0  0  0  0  0
  147.4524  142.4612  156.0320 O   0  0  0  0  0  0  0  0  0  0  0  0
  149.5218  141.2587  156.3592 C   0  0  1  0  0  0  0  0  0  0  0  0
  149.4711  140.5621  157.5918 O   0  0  0  0  0  0  0  0  0  0  0  0
  152.0215  139.2370  156.6624 C   0  0  0  0  0  0  0  0  0  0  0  0
  152.4664  140.2578  157.1864 O   0  0  0  0  0  0  0  0  0  0  0  0
  152.4881  138.0100  156.9810 N   0  0  0  0  0  0  0  0  0  0  0  0
  151.2420  141.2273  154.9799 H   0  0  0  0  0  0  0  0  0  0  0  0
  148.7976  142.2613  153.8785 H   0  0  0  0  0  0  0  0  0  0  0  0
  147.5718  140.3945  155.9617 H   0  0  0  0  0  0  0  0  0  0  0  0
  149.9005  142.2693  156.5212 H   0  0  0  0  0  0  0  0  0  0  0  0
  153.2837  135.9734  157.5305 H   0  0  0  0  0  0  0  0  0  0  0  0
  149.6567  138.1312  154.4338 H   0  0  0  0  0  0  0  0  0  0  0  0
  147.6256  140.7485  152.2623 H   0  0  0  0  0  0  0  0  0  0  0  0
  147.1608  139.6717  153.5695 H   0  0  0  0  0  0  0  0  0  0  0  0
  145.4366  140.9116  153.2622 H   0  0  0  0  0  0  0  0  0  0  0  0
  147.8727  143.1888  155.5992 H   0  0  0  0  0  0  0  0  0  0  0  0
  150.2182  140.8182  158.1110 H   0  0  0  0  0  0  0  0  0  0  0  0
  153.2314  137.9580  157.6619 H   0  0  0  0  0  0  0  0  0  0  0  0
  1  2  2  0  0  0  0
  1 22  1  0  0  0  0
  2 17  1  0  0  0  0
  2  3  1  0  0  0  0
  3  4  2  0  0  0  0
  4  5  1  0  0  0  0
  4 23  1  0  0  0  0
  5  6  1  0  0  0  0
  5 15  1  0  0  0  0
  6 18  1  0  0  0  0
  6 13  1  0  0  0  0
  6  7  1  0  0  0  0
  7  8  1  0  0  0  0
  8 19  1  0  0  0  0
  8  9  1  0  0  0  0
  8 11  1  0  0  0  0
  9 10  1  0  0  0  0
  9 24  1  0  0  0  0
  9 25  1  0  0  0  0
 10 26  1  0  0  0  0
 11 20  1  0  0  0  0
 11 12  1  0  0  0  0
 11 13  1  0  0  0  0
 12 27  1  0  0  0  0
 13 21  1  0  0  0  0
 13 14  1  0  0  0  0
 14 28  1  0  0  0  0
 15 16  2  0  0  0  0
 15 17  1  0  0  0  0
 17 29  1  0  0  0  0
M  END
> <s_m_source_file>
AV-unprocessed.smi

> <i_m_source_file_index>
72

> <i_lp_mmshare_version>
43012

> <i_f3d_flags>
0

> <s_epik_input>
W05IMl1jMW5bY0hdbihjKD1PKW4xKVtDQEBIXTJPW0NASF0oW0NIMl1bT0hdKVtDQEBIXShbT0hdKVtDQEhdMltPSF0=

> <s_epik_cmdline>
J2VwaWtfcHl0aG9uJywgJy1waCcsICc3LjAnLCAnLXRuJywgJzgnLCAnLW1hJywgJzIwMCcsICctbWV0YWxfYmluZGluZycsICctaW1hZScsICc8aW5maWxlLm1hZT4nLCAnLW9tYWUnLCAnPG91dGZpbGUubWFlPic=

> <r_lp_tautomer_probability>
7.17554e-07

> <r_epik_Ionization_Penalty>
0.0066451

> <r_epik_Ionization_Penalty_Charging>
0.00663793

> <r_epik_Ionization_Penalty_Neutral>
7.17052e-06

> <r_epik_State_Penalty>
0.419231

> <r_epik_Charging_Adjusted_Penalty>
0.425868

> <i_epik_Tot_Q>
0

> <i_epik_Tot_abs_Q>
0

> <r_epik_Metal_State_Penalty>
1.44144

> <b_epik_Metal_Only>
0

> <s_epik_Chemistry_Notes>
This compound contains an acetal/aminal-like group ( X-CH(R)-Y where X, Y are N, S, or O) that may be acid/base labile, releasing an aldehyde.

> <s_lp_Force_Field>
OPLS_2005

> <r_lp_Energy>
43.9506

> <b_lp_Chiralities_Consistent>
1

> <s_lp_Variant>
AV-unprocessed.smi:72-8

> <Gold.Version>
5.8.1

> <Gold.Id.Protein>
6NUR|6NUR_protein|mol2

> <Gold.PLP.Fitness>
32.3380

> <Gold.PLP.PLP>
-20.8592

> <Gold.PLP.part.hbond>
-5.0000

> <Gold.PLP.part.metal>
0.0000

> <Gold.PLP.part.buried>
0.0547

> <Gold.PLP.part.nonpolar>
-16.0496

> <Gold.PLP.part.repulsive>
0.9905

> <Gold.PLP.ligand.clash>
0.0000

> <Gold.PLP.ligand.torsion>
0.3119

> <Gold.PLP.Chemscore.Hbond>
3.9920

> <Gold.PLP.Chemscore.CHOScore>
0.0000

> <Gold.PLP.Chemscore.Metal>
0.0000

> <Gold.Chemscore.Hbonds>
donor molecule, donor type, donor heavy atom, donor atom, acceptor molecule, acceptor atom, score
      L1  H    10    26       P1 10175  1.00
      L1  H    12    27       P1  8028  1.00
      P1  H  7997  8009       L1    16  0.98
      P1  H 10752 10763       L1     1  0.95

> <Gold.PLP.Chemscore.Internal.Correction>
0.1266

> <Gold.Rescore>
     Score         DG    S(hbond)    S(metal)    S(lipo)     H(rot)  DE(clash)    DE(int)     intcor
      4.34      -5.75       2.34        0.00      24.48       4.06       0.71       0.70       ----

> <Gold.Chemscore.Fitness>
4.3369

> <Gold.Chemscore.DG>
-5.7505

> <Gold.Chemscore.ZeroCoef>
-5.4800

> <Gold.Chemscore.Hbond>
2.3354

> <Gold.Chemscore.Metal>
0.0000

> <Gold.Chemscore.Lipo>
24.4767

> <Gold.Chemscore.Internal_Hbond>
0.0000

> <Gold.Chemscore.DEClash>
0.7091

> <Gold.Chemscore.DEInternal>
0.7046

> <Gold.Chemscore.Rot>
4.0600

> <Gold.Chemscore.Internal.Correction>
   9.000000E+99

> <Gold.Chemscore.Hbonds>
donor molecule, donor type, donor heavy atom, donor atom, acceptor molecule, acceptor atom, score
      L1  H    10    26       P1 10175  0.59
      L1  H    12    27       P1  8028  0.48
      P1  H  7997  8009       L1    16  0.27
      P1  H 10752 10763       L1     1  0.06

> <Gold.Chemscore.Hbond.Weighted>
-7.8003

> <Gold.Chemscore.Metal.Weighted>
-0.0000

> <Gold.Chemscore.Lipo.Weighted>
-2.8638

> <Gold.Chemscore.Internal_Hbond.Weighted>
0.0000

> <Gold.Chemscore.DEClash.Weighted>
0.7091

> <Gold.Chemscore.DEInternal.Weighted>
0.7046

> <Gold.Chemscore.Rot.Weighted>
10.3936

> <Gold.Chemscore.Internal.Correction.Weighted>
   9.000000E+99

> <Gold.Protein.RotatedTorsions>
[ 6907 6896 6895 6894 ] final -122.99 input  -60.11 | X-H torsion
[ 7974 7965 7964 7962 ] final   44.53 input  175.53 | X-H torsion
[ 8008 7997 7996 7995 ] final  173.14 input   59.86 | X-H torsion
[ 10167 10162 10161 10158 ] final   27.61 input  -65.29 | X-H torsion
[ 10718 10713 10712 10709 ] final -171.52 input   66.30 | X-H torsion
[ 10763 10752 10751 10750 ] final  123.48 input  -60.55 | X-H torsion
[ 11005 11000 10999 10996 ] final   49.33 input  -57.11 | X-H torsion

> <Gold.Protein.ActiveResidues>
 VAL166  LYS551  ARG553  GLY616  TRP617  ASP618  TYR619  PRO620  LYS621  CYS622 
 ASP623  PHE694  ASN695  SER759  ASP760  ASP761  ALA762  ILE779  LEU786  VAL792 
 PHE793  MET794  SER795  GLU796  ALA797  LYS798  CYS799  TRP800  GLU811  SER814 

> <Gold.Protein.RotatedAtoms>
  150.8628  133.7618  159.2986 H   0  0  0  0  0  0  0  0  0  0  0  0  # atno 6907 bound_to 6896
  151.5255  135.1066  159.9899 H   0  0  0  0  0  0  0  0  0  0  0  0  # atno 6908 bound_to 6896
  152.4639  133.7836  159.6920 H   0  0  0  0  0  0  0  0  0  0  0  0  # atno 6909 bound_to 6896
  146.0560  139.5064  142.9688 H   0  0  0  0  0  0  0  0  0  0  0  0  # atno 7974 bound_to 7965
  156.1105  140.1468  156.9345 H   0  0  0  0  0  0  0  0  0  0  0  0  # atno 8008 bound_to 7997
  154.4763  140.0893  156.7314 H   0  0  0  0  0  0  0  0  0  0  0  0  # atno 8009 bound_to 7997
  155.4605  140.3438  155.4314 H   0  0  0  0  0  0  0  0  0  0  0  0  # atno 8010 bound_to 7997
  140.4923  144.0446  150.6302 H   0  0  0  0  0  0  0  0  0  0  0  0  # atno 10167 bound_to 10162
  156.7421  130.9346  151.3110 H   0  0  0  0  0  0  0  0  0  0  0  0  # atno 10718 bound_to 10713
  153.6461  135.3371  155.3086 H   0  0  0  0  0  0  0  0  0  0  0  0  # atno 10763 bound_to 10752
  154.8548  135.4330  154.1953 H   0  0  0  0  0  0  0  0  0  0  0  0  # atno 10764 bound_to 10752
  153.2884  135.7015  153.7391 H   0  0  0  0  0  0  0  0  0  0  0  0  # atno 10765 bound_to 10752
  140.1113  134.4951  155.8675 H   0  0  0  0  0  0  0  0  0  0  0  0  # atno 11005 bound_to 11000
  145.6642  141.0233  143.1692 LP  0  0  0  0  0  0  0  0  0  0  0  0  # atno 17320 bound_to 7965
  144.7148  139.8236  143.7402 LP  0  0  0  0  0  0  0  0  0  0  0  0  # atno 17321 bound_to 7965
  140.3719  143.2850  152.0268 LP  0  0  0  0  0  0  0  0  0  0  0  0  # atno 17342 bound_to 10162
  139.4854  144.6223  151.7231 LP  0  0  0  0  0  0  0  0  0  0  0  0  # atno 17343 bound_to 10162
  157.6814  130.9143  150.0276 LP  0  0  0  0  0  0  0  0  0  0  0  0  # atno 17370 bound_to 10713
  156.1458  130.3642  149.9513 LP  0  0  0  0  0  0  0  0  0  0  0  0  # atno 17371 bound_to 10713
  141.2131  133.6728  156.6710 LP  0  0  0  0  0  0  0  0  0  0  0  0  # atno 17394 bound_to 11000
  140.3087  134.8104  157.4159 LP  0  0  0  0  0  0  0  0  0  0  0  0  # atno 17395 bound_to 11000

$$$$
