AV-unprocessed.smi:3089|AV-procd|sdf|11772|dock7
  -GOLD-   2272017153D 1   1.00000     0.00000
 Structure written by MMmdl.
 24 24  0  0  0  0  0  0  0  0  1 V2000
  151.5997  142.5451  158.3857 C   0  0  0  0  0  0  0  0  0  0  0  0
  151.0772  141.6282  157.3957 N   0  0  0  0  0  0  0  0  0  0  0  0
  150.1378  141.8639  156.4158 C   0  0  0  0  0  0  0  0  0  0  0  0
  149.9660  140.7009  155.7164 C   0  0  0  0  0  0  0  0  0  0  0  0
  149.0498  140.4337  154.5407 C   0  0  1  0  0  0  0  0  0  0  0  0
  147.6522  141.0094  154.8291 C   0  0  0  0  0  0  0  0  0  0  0  0
  149.4857  141.0819  153.3606 O   0  0  0  0  0  0  0  0  0  0  0  0
  148.9443  138.9262  154.2194 C   0  0  0  0  0  0  0  0  0  0  0  0
  148.2777  138.6394  152.9377 N   0  0  0  0  0  0  0  0  0  0  0  0
  150.8601  139.7995  156.3660 C   0  0  0  0  0  0  0  0  0  0  0  0
  151.5228  140.3563  157.3668 N   0  0  0  0  0  0  0  0  0  0  0  0
  151.1451  143.5282  158.2617 H   0  0  0  0  0  0  0  0  0  0  0  0
  152.6800  142.6377  158.2690 H   0  0  0  0  0  0  0  0  0  0  0  0
  151.3765  142.1751  159.3867 H   0  0  0  0  0  0  0  0  0  0  0  0
  149.6727  142.8312  156.2950 H   0  0  0  0  0  0  0  0  0  0  0  0
  147.2041  140.5445  155.7081 H   0  0  0  0  0  0  0  0  0  0  0  0
  146.9714  140.8457  153.9927 H   0  0  0  0  0  0  0  0  0  0  0  0
  147.6955  142.0839  155.0136 H   0  0  0  0  0  0  0  0  0  0  0  0
  149.3885  140.4830  152.6364 H   0  0  0  0  0  0  0  0  0  0  0  0
  149.9479  138.5007  154.1868 H   0  0  0  0  0  0  0  0  0  0  0  0
  148.4293  138.4092  155.0299 H   0  0  0  0  0  0  0  0  0  0  0  0
  148.5461  139.3256  152.2339 H   0  0  0  0  0  0  0  0  0  0  0  0
  148.5613  137.7249  152.5886 H   0  0  0  0  0  0  0  0  0  0  0  0
  151.0468  138.7600  156.1391 H   0  0  0  0  0  0  0  0  0  0  0  0
  1  2  1  0  0  0  0
  1 12  1  0  0  0  0
  1 13  1  0  0  0  0
  1 14  1  0  0  0  0
  2 11  1  0  0  0  0
  2  3  1  0  0  0  0
  3  4  2  0  0  0  0
  3 15  1  0  0  0  0
  4  5  1  0  0  0  0
  4 10  1  0  0  0  0
  5  6  1  0  0  0  0
  5  7  1  0  0  0  0
  5  8  1  0  0  0  0
  6 16  1  0  0  0  0
  6 17  1  0  0  0  0
  6 18  1  0  0  0  0
  7 19  1  0  0  0  0
  8  9  1  0  0  0  0
  8 20  1  0  0  0  0
  8 21  1  0  0  0  0
  9 22  1  0  0  0  0
  9 23  1  0  0  0  0
 10 11  2  0  0  0  0
 10 24  1  0  0  0  0
M  END
> <s_m_source_file>
AV-unprocessed.smi

> <i_m_source_file_index>
3089

> <i_lp_mmshare_version>
43012

> <i_f3d_flags>
0

> <s_epik_input>
W0NIM11uMVtjSF1jKFtjSF1uMSlbQ0BAXShbQ0gzXSkoW09IXSlbQ0gyXVtOSDJd

> <s_epik_cmdline>
J2VwaWtfcHl0aG9uJywgJy1waCcsICc3LjAnLCAnLXRuJywgJzgnLCAnLW1hJywgJzIwMCcsICctbWV0YWxfYmluZGluZycsICctaW1hZScsICc8aW5maWxlLm1hZT4nLCAnLW9tYWUnLCAnPG91dGZpbGUubWFlPic=

> <r_lp_tautomer_probability>
1

> <r_epik_Ionization_Penalty>
2.22427

> <r_epik_Ionization_Penalty_Charging>
0

> <r_epik_Ionization_Penalty_Neutral>
2.22427

> <r_epik_State_Penalty>
2.36938

> <r_epik_Charging_Adjusted_Penalty>
2.36938

> <i_epik_Tot_Q>
0

> <i_epik_Tot_abs_Q>
0

> <r_epik_Metal_State_Penalty>
2.36933

> <b_epik_Metal_Only>
0

> <s_lp_Force_Field>
OPLS_2005

> <r_lp_Energy>
8.30458

> <b_lp_Chiralities_Consistent>
1

> <s_lp_Variant>
AV-unprocessed.smi:3089-3

> <Gold.Version>
5.8.1

> <Gold.Id.Protein>
6NUR|6NUR_protein|mol2

> <Gold.PLP.Fitness>
36.2408

> <Gold.PLP.PLP>
-22.6339

> <Gold.PLP.part.hbond>
-4.4375

> <Gold.PLP.part.metal>
0.0000

> <Gold.PLP.part.buried>
-2.5702

> <Gold.PLP.part.nonpolar>
-15.5189

> <Gold.PLP.part.repulsive>
0.0000

> <Gold.PLP.ligand.clash>
0.0000

> <Gold.PLP.ligand.torsion>
0.4911

> <Gold.PLP.Chemscore.Hbond>
3.8560

> <Gold.PLP.Chemscore.CHOScore>
1.0000

> <Gold.PLP.Chemscore.Metal>
0.0000

> <Gold.Chemscore.Hbonds>
donor molecule, donor type, donor heavy atom, donor atom, acceptor molecule, acceptor atom, score
      L1  H     7    19       P1  7957  1.00
      L1  H     9    22       P1  7957  1.00
      L1  H     9    23       P1  7948  1.00
      P1  H  7989  7998       L1     7  0.10
      P1  H  8011  8017       L1     7  0.65
      L1  C     3    15       P1  8028  1.00

> <Gold.PLP.Chemscore.Internal.Correction>
0.0209

> <Gold.Rescore>
     Score         DG    S(hbond)    S(metal)    S(lipo)     H(rot)  DE(clash)    DE(int)     intcor
     16.46     -17.17       3.23        0.00      47.84       1.84       0.04       0.67       ----

> <Gold.Chemscore.Fitness>
16.4569

> <Gold.Chemscore.DG>
-17.1730

> <Gold.Chemscore.ZeroCoef>
-5.4800

> <Gold.Chemscore.Hbond>
3.2343

> <Gold.Chemscore.Metal>
0.0000

> <Gold.Chemscore.Lipo>
47.8399

> <Gold.Chemscore.Internal_Hbond>
0.0000

> <Gold.Chemscore.DEClash>
0.0413

> <Gold.Chemscore.DEInternal>
0.6748

> <Gold.Chemscore.Rot>
1.8386

> <Gold.Chemscore.Internal.Correction>
   9.000000E+99

> <Gold.Chemscore.Hbonds>
donor molecule, donor type, donor heavy atom, donor atom, acceptor molecule, acceptor atom, score
      L1  H     7    19       P1  7957  0.92
      L1  H     9    22       P1  7957  0.97
      L1  H     9    23       P1  7948  1.00
      P1  H  7989  7998       L1     7  0.01
      P1  H  8011  8017       L1     7  0.06

> <Gold.Chemscore.Hbond.Weighted>
-10.8027

> <Gold.Chemscore.Metal.Weighted>
-0.0000

> <Gold.Chemscore.Lipo.Weighted>
-5.5973

> <Gold.Chemscore.Internal_Hbond.Weighted>
0.0000

> <Gold.Chemscore.DEClash.Weighted>
0.0413

> <Gold.Chemscore.DEInternal.Weighted>
0.6748

> <Gold.Chemscore.Rot.Weighted>
4.7069

> <Gold.Chemscore.Internal.Correction.Weighted>
   9.000000E+99

> <Gold.Protein.RotatedTorsions>
[ 6907 6896 6895 6894 ] final  176.26 input  -60.11 | X-H torsion
[ 7974 7965 7964 7962 ] final  -91.02 input  175.53 | X-H torsion
[ 8008 7997 7996 7995 ] final -144.31 input   59.86 | X-H torsion
[ 10167 10162 10161 10158 ] final  -81.00 input  -65.29 | X-H torsion
[ 10718 10713 10712 10709 ] final  -70.78 input   66.30 | X-H torsion
[ 10763 10752 10751 10750 ] final  110.35 input  -60.55 | X-H torsion
[ 11005 11000 10999 10996 ] final -101.33 input  -57.11 | X-H torsion

> <Gold.Protein.ActiveResidues>
 VAL166  LYS551  ARG553  GLY616  TRP617  ASP618  TYR619  PRO620  LYS621  CYS622 
 ASP623  PHE694  ASN695  SER759  ASP760  ASP761  ALA762  ILE779  LEU786  VAL792 
 PHE793  MET794  SER795  GLU796  ALA797  LYS798  CYS799  TRP800  GLU811  SER814 

> <Gold.Protein.RotatedAtoms>
  151.7229  133.3315  159.3319 H   0  0  0  0  0  0  0  0  0  0  0  0  # atno 6907 bound_to 6896
  150.7645  134.6432  159.6257 H   0  0  0  0  0  0  0  0  0  0  0  0  # atno 6908 bound_to 6896
  152.3640  134.6833  160.0249 H   0  0  0  0  0  0  0  0  0  0  0  0  # atno 6909 bound_to 6896
  145.4187  140.9550  143.2193 H   0  0  0  0  0  0  0  0  0  0  0  0  # atno 7974 bound_to 7965
  155.5248  140.0594  157.2900 H   0  0  0  0  0  0  0  0  0  0  0  0  # atno 8008 bound_to 7997
  154.4505  140.1946  156.0480 H   0  0  0  0  0  0  0  0  0  0  0  0  # atno 8009 bound_to 7997
  156.0693  140.3262  155.7560 H   0  0  0  0  0  0  0  0  0  0  0  0  # atno 8010 bound_to 7997
  140.4452  143.2501  151.8569 H   0  0  0  0  0  0  0  0  0  0  0  0  # atno 10167 bound_to 10162
  156.0392  130.4338  150.2346 H   0  0  0  0  0  0  0  0  0  0  0  0  # atno 10718 bound_to 10713
  153.4477  135.3751  155.2265 H   0  0  0  0  0  0  0  0  0  0  0  0  # atno 10763 bound_to 10752
  154.8755  135.3878  154.4076 H   0  0  0  0  0  0  0  0  0  0  0  0  # atno 10764 bound_to 10752
  153.4631  135.7087  153.6102 H   0  0  0  0  0  0  0  0  0  0  0  0  # atno 10765 bound_to 10752
  141.1235  133.8469  157.1217 H   0  0  0  0  0  0  0  0  0  0  0  0  # atno 11005 bound_to 11000
  144.8260  139.5709  143.6965 LP  0  0  0  0  0  0  0  0  0  0  0  0  # atno 17320 bound_to 7965
  146.2668  139.6539  142.9324 LP  0  0  0  0  0  0  0  0  0  0  0  0  # atno 17321 bound_to 7965
  139.4792  144.5184  151.8836 LP  0  0  0  0  0  0  0  0  0  0  0  0  # atno 17342 bound_to 10162
  140.4272  144.2164  150.5887 LP  0  0  0  0  0  0  0  0  0  0  0  0  # atno 17343 bound_to 10162
  157.0443  131.0044  151.3274 LP  0  0  0  0  0  0  0  0  0  0  0  0  # atno 17370 bound_to 10713
  157.5187  130.7984  149.7785 LP  0  0  0  0  0  0  0  0  0  0  0  0  # atno 17371 bound_to 10713
  140.0213  134.9944  157.0596 LP  0  0  0  0  0  0  0  0  0  0  0  0  # atno 17394 bound_to 11000
  140.4436  134.1656  155.7175 LP  0  0  0  0  0  0  0  0  0  0  0  0  # atno 17395 bound_to 11000

$$$$
