AV-unprocessed.smi:438|AV-procd|sdf|2576|dock3
  -GOLD-   2262022553D 1   1.00000     0.00000
 Structure written by MMmdl.
 48 49  0  0  0  0  0  0  0  0  1 V2000
  148.4949  133.9823  157.4358 C   0  0  0  0  0  0  0  0  0  0  0  0
  148.5038  135.2397  158.2852 C   0  0  0  0  0  0  0  0  0  0  0  0
  149.6921  135.8753  158.3830 N   0  0  0  0  0  0  0  0  0  0  0  0
  149.7198  136.9779  159.1305 C   0  0  0  0  0  0  0  0  0  0  0  0
  151.3079  137.7779  159.2546 S   0  0  0  0  0  0  0  0  0  0  0  0
  150.9592  139.4416  158.5850 C   0  0  0  0  0  0  0  0  0  0  0  0
  152.1151  140.4485  158.6521 C   0  0  0  0  0  0  0  0  0  0  0  0
  153.2414  140.0959  158.3044 O   0  0  0  0  0  0  0  0  0  0  0  0
  151.8423  141.6837  159.1018 N   0  0  0  0  0  0  0  0  0  0  0  0
  152.7961  142.7820  159.2550 C   0  0  1  0  0  0  0  0  0  0  0  0
  152.5589  143.8933  158.2068 C   0  0  0  0  0  0  0  0  0  0  0  0
  151.2454  144.6527  158.4526 C   0  0  0  0  0  0  0  0  0  0  0  0
  151.1868  145.2191  159.8788 C   0  0  0  0  0  0  0  0  0  0  0  0
  151.4079  144.1188  160.9289 C   0  0  0  0  0  0  0  0  0  0  0  0
  152.7321  143.3620  160.6901 C   0  0  1  0  0  0  0  0  0  0  0  0
  152.9777  142.2997  161.7756 C   0  0  0  0  0  0  0  0  0  0  0  0
  148.7006  137.5346  159.7871 N   0  0  0  0  0  0  0  0  0  0  0  0
  147.5067  136.9112  159.7013 C   0  0  0  0  0  0  0  0  0  0  0  0
  146.4504  137.4620  160.3664 O   0  0  0  0  0  0  0  0  0  0  0  0
  147.3452  135.7226  158.9464 C   0  0  0  0  0  0  0  0  0  0  0  0
  145.9993  135.0160  158.8550 C   0  0  0  0  0  0  0  0  0  0  0  0
  146.0595  133.5866  159.4094 C   0  0  0  0  0  0  0  0  0  0  0  0
  146.4681  133.6155  160.7591 O   0  0  0  0  0  0  0  0  0  0  0  0
  147.7069  134.0324  156.6843 H   0  0  0  0  0  0  0  0  0  0  0  0
  148.3236  133.1053  158.0597 H   0  0  0  0  0  0  0  0  0  0  0  0
  149.4443  133.8452  156.9167 H   0  0  0  0  0  0  0  0  0  0  0  0
  150.6747  139.3268  157.5391 H   0  0  0  0  0  0  0  0  0  0  0  0
  150.0895  139.8578  159.0943 H   0  0  0  0  0  0  0  0  0  0  0  0
  150.8880  141.8810  159.3669 H   0  0  0  0  0  0  0  0  0  0  0  0
  153.7964  142.3736  159.0994 H   0  0  0  0  0  0  0  0  0  0  0  0
  153.3887  144.6001  158.2447 H   0  0  0  0  0  0  0  0  0  0  0  0
  152.5653  143.4816  157.1971 H   0  0  0  0  0  0  0  0  0  0  0  0
  151.1393  145.4596  157.7273 H   0  0  0  0  0  0  0  0  0  0  0  0
  150.4036  143.9822  158.2889 H   0  0  0  0  0  0  0  0  0  0  0  0
  151.9476  145.9919  159.9952 H   0  0  0  0  0  0  0  0  0  0  0  0
  150.2254  145.7048  160.0464 H   0  0  0  0  0  0  0  0  0  0  0  0
  151.4086  144.5642  161.9243 H   0  0  0  0  0  0  0  0  0  0  0  0
  150.5693  143.4215  160.9078 H   0  0  0  0  0  0  0  0  0  0  0  0
  153.5398  144.0905  160.7775 H   0  0  0  0  0  0  0  0  0  0  0  0
  152.1817  141.5550  161.8016 H   0  0  0  0  0  0  0  0  0  0  0  0
  153.0298  142.7576  162.7636 H   0  0  0  0  0  0  0  0  0  0  0  0
  153.9193  141.7767  161.6061 H   0  0  0  0  0  0  0  0  0  0  0  0
  146.2083  136.9694  161.1353 H   0  0  0  0  0  0  0  0  0  0  0  0
  145.2385  135.5911  159.3828 H   0  0  0  0  0  0  0  0  0  0  0  0
  145.6748  134.9970  157.8138 H   0  0  0  0  0  0  0  0  0  0  0  0
  145.0829  133.1057  159.3445 H   0  0  0  0  0  0  0  0  0  0  0  0
  146.7619  132.9784  158.8390 H   0  0  0  0  0  0  0  0  0  0  0  0
  147.1916  134.2180  160.8412 H   0  0  0  0  0  0  0  0  0  0  0  0
  1  2  1  0  0  0  0
  1 24  1  0  0  0  0
  1 25  1  0  0  0  0
  1 26  1  0  0  0  0
  2 20  1  0  0  0  0
  2  3  2  0  0  0  0
  3  4  1  0  0  0  0
  4  5  1  0  0  0  0
  4 17  2  0  0  0  0
  5  6  1  0  0  0  0
  6  7  1  0  0  0  0
  6 27  1  0  0  0  0
  6 28  1  0  0  0  0
  7  8  2  0  0  0  0
  7  9  1  0  0  0  0
  9 10  1  0  0  0  0
  9 29  1  0  0  0  0
 10 15  1  0  0  0  0
 10 11  1  0  0  0  0
 10 30  1  0  0  0  0
 11 12  1  0  0  0  0
 11 31  1  0  0  0  0
 11 32  1  0  0  0  0
 12 13  1  0  0  0  0
 12 33  1  0  0  0  0
 12 34  1  0  0  0  0
 13 14  1  0  0  0  0
 13 35  1  0  0  0  0
 13 36  1  0  0  0  0
 14 15  1  0  0  0  0
 14 37  1  0  0  0  0
 14 38  1  0  0  0  0
 15 16  1  0  0  0  0
 15 39  1  0  0  0  0
 16 40  1  0  0  0  0
 16 41  1  0  0  0  0
 16 42  1  0  0  0  0
 17 18  1  0  0  0  0
 18 19  1  0  0  0  0
 18 20  2  0  0  0  0
 19 43  1  0  0  0  0
 20 21  1  0  0  0  0
 21 22  1  0  0  0  0
 21 44  1  0  0  0  0
 21 45  1  0  0  0  0
 22 23  1  0  0  0  0
 22 46  1  0  0  0  0
 22 47  1  0  0  0  0
 23 48  1  0  0  0  0
M  END
> <s_m_source_file>
AV-unprocessed.smi

> <i_m_source_file_index>
438

> <i_lp_mmshare_version>
43012

> <i_f3d_flags>
0

> <s_epik_input>
W09IXVtDSDJdW0NIMl1jMWMoW09IXSluYyhuYzFbQ0gzXSlTW0NIMl1DKD1PKVtOSF1bQ0BASF0yW0NIMl1bQ0gyXVtDSDJdW0NIMl1bQ0BIXTJbQ0gzXQ==

> <s_epik_cmdline>
J2VwaWtfcHl0aG9uJywgJy1waCcsICc3LjAnLCAnLXRuJywgJzgnLCAnLW1hJywgJzIwMCcsICctbWV0YWxfYmluZGluZycsICctaW1hZScsICc8aW5maWxlLm1hZT4nLCAnLW9tYWUnLCAnPG91dGZpbGUubWFlPic=

> <r_lp_tautomer_probability>
0.0660145

> <r_epik_Ionization_Penalty>
2.91405

> <r_epik_Ionization_Penalty_Charging>
0

> <r_epik_Ionization_Penalty_Neutral>
2.91405

> <r_epik_State_Penalty>
2.44767

> <r_epik_Charging_Adjusted_Penalty>
2.44767

> <i_epik_Tot_Q>
0

> <i_epik_Tot_abs_Q>
0

> <r_epik_Metal_State_Penalty>
3.04288

> <b_epik_Metal_Only>
0

> <s_lp_Force_Field>
OPLS_2005

> <r_lp_Energy>
-3.37475

> <b_lp_Chiralities_Consistent>
1

> <s_lp_Variant>
AV-unprocessed.smi:438-14

> <Gold.Version>
5.8.1

> <Gold.Id.Protein>
6NUR|6NUR_protein|mol2

> <Gold.PLP.Fitness>
51.3367

> <Gold.PLP.PLP>
-41.6130

> <Gold.PLP.part.hbond>
-5.0000

> <Gold.PLP.part.metal>
0.0000

> <Gold.PLP.part.buried>
-4.1940

> <Gold.PLP.part.nonpolar>
-32.6428

> <Gold.PLP.part.repulsive>
0.1195

> <Gold.PLP.ligand.clash>
0.0000

> <Gold.PLP.ligand.torsion>
0.2541

> <Gold.PLP.Chemscore.Hbond>
3.3806

> <Gold.PLP.Chemscore.CHOScore>
0.0000

> <Gold.PLP.Chemscore.Metal>
0.0000

> <Gold.Chemscore.Hbonds>
donor molecule, donor type, donor heavy atom, donor atom, acceptor molecule, acceptor atom, score
      P1  H  6896  6907       L1     3  0.90
      P1  H  6931  6943       L1    17  0.16
      P1  H  6934  6947       L1    19  1.00
      P1  H  7997  8009       L1     8  1.00

> <Gold.PLP.Chemscore.Internal.Correction>
0.0900

> <Gold.Rescore>
     Score         DG    S(hbond)    S(metal)    S(lipo)     H(rot)  DE(clash)    DE(int)     intcor
     15.05     -15.56       1.93        0.00     106.13       3.44       0.36       0.15       ----

> <Gold.Chemscore.Fitness>
15.0528

> <Gold.Chemscore.DG>
-15.5588

> <Gold.Chemscore.ZeroCoef>
-5.4800

> <Gold.Chemscore.Hbond>
1.9335

> <Gold.Chemscore.Metal>
0.0000

> <Gold.Chemscore.Lipo>
106.1262

> <Gold.Chemscore.Internal_Hbond>
0.0000

> <Gold.Chemscore.DEClash>
0.3566

> <Gold.Chemscore.DEInternal>
0.1494

> <Gold.Chemscore.Rot>
3.4359

> <Gold.Chemscore.Internal.Correction>
   9.000000E+99

> <Gold.Chemscore.Hbonds>
donor molecule, donor type, donor heavy atom, donor atom, acceptor molecule, acceptor atom, score
      P1  H  6896  6907       L1     3  0.07
      P1  H  6931  6943       L1    17  0.13
      P1  H  6934  6947       L1    19  0.20
      P1  H  7997  8009       L1     8  0.95

> <Gold.Chemscore.Hbond.Weighted>
-6.4580

> <Gold.Chemscore.Metal.Weighted>
-0.0000

> <Gold.Chemscore.Lipo.Weighted>
-12.4168

> <Gold.Chemscore.Internal_Hbond.Weighted>
0.0000

> <Gold.Chemscore.DEClash.Weighted>
0.3566

> <Gold.Chemscore.DEInternal.Weighted>
0.1494

> <Gold.Chemscore.Rot.Weighted>
8.7960

> <Gold.Chemscore.Internal.Correction.Weighted>
   9.000000E+99

> <Gold.Protein.RotatedTorsions>
[ 6907 6896 6895 6894 ] final  -62.74 input  -60.11 | X-H torsion
[ 7974 7965 7964 7962 ] final  -25.12 input  175.53 | X-H torsion
[ 8008 7997 7996 7995 ] final  153.50 input   59.86 | X-H torsion
[ 10167 10162 10161 10158 ] final   92.23 input  -65.29 | X-H torsion
[ 10718 10713 10712 10709 ] final   98.91 input   66.30 | X-H torsion
[ 10763 10752 10751 10750 ] final  -48.87 input  -60.55 | X-H torsion
[ 11005 11000 10999 10996 ] final  -92.79 input  -57.11 | X-H torsion

> <Gold.Protein.ActiveResidues>
 VAL166  LYS551  ARG553  GLY616  TRP617  ASP618  TYR619  PRO620  LYS621  CYS622 
 ASP623  PHE694  ASN695  SER759  ASP760  ASP761  ALA762  ILE779  LEU786  VAL792 
 PHE793  MET794  SER795  GLU796  ALA797  LYS798  CYS799  TRP800  GLU811  SER814 

> <Gold.Protein.RotatedAtoms>
  150.7695  134.6530  159.6297 H   0  0  0  0  0  0  0  0  0  0  0  0  # atno 6907 bound_to 6896
  152.3742  134.6685  160.0174 H   0  0  0  0  0  0  0  0  0  0  0  0  # atno 6908 bound_to 6896
  151.7035  133.3275  159.3309 H   0  0  0  0  0  0  0  0  0  0  0  0  # atno 6909 bound_to 6896
  146.1511  140.4844  142.8611 H   0  0  0  0  0  0  0  0  0  0  0  0  # atno 7974 bound_to 7965
  156.2578  140.1992  156.6500 H   0  0  0  0  0  0  0  0  0  0  0  0  # atno 8008 bound_to 7997
  154.6544  140.0568  157.0017 H   0  0  0  0  0  0  0  0  0  0  0  0  # atno 8009 bound_to 7997
  155.1369  140.3239  155.4464 H   0  0  0  0  0  0  0  0  0  0  0  0  # atno 8010 bound_to 7997
  139.8297  144.6693  150.9416 H   0  0  0  0  0  0  0  0  0  0  0  0  # atno 10167 bound_to 10162
  157.6886  131.0654  150.4868 H   0  0  0  0  0  0  0  0  0  0  0  0  # atno 10718 bound_to 10713
  154.0848  135.6586  153.4843 H   0  0  0  0  0  0  0  0  0  0  0  0  # atno 10763 bound_to 10752
  153.0343  135.5188  154.7438 H   0  0  0  0  0  0  0  0  0  0  0  0  # atno 10764 bound_to 10752
  154.6544  135.3006  154.9914 H   0  0  0  0  0  0  0  0  0  0  0  0  # atno 10765 bound_to 10752
  141.1513  133.7844  157.0069 H   0  0  0  0  0  0  0  0  0  0  0  0  # atno 11005 bound_to 11000
  144.7905  140.6023  143.6544 LP  0  0  0  0  0  0  0  0  0  0  0  0  # atno 17320 bound_to 7965
  145.4821  139.1494  143.3756 LP  0  0  0  0  0  0  0  0  0  0  0  0  # atno 17321 bound_to 7965
  140.7807  143.4013  151.1144 LP  0  0  0  0  0  0  0  0  0  0  0  0  # atno 17342 bound_to 10162
  139.7667  143.8554  152.3112 LP  0  0  0  0  0  0  0  0  0  0  0  0  # atno 17343 bound_to 10162
  156.5197  130.4159  149.6257 LP  0  0  0  0  0  0  0  0  0  0  0  0  # atno 17370 bound_to 10713
  156.3166  130.7257  151.2161 LP  0  0  0  0  0  0  0  0  0  0  0  0  # atno 17371 bound_to 10713
  140.0903  134.9596  157.1766 LP  0  0  0  0  0  0  0  0  0  0  0  0  # atno 17394 bound_to 11000
  140.3455  134.2657  155.7206 LP  0  0  0  0  0  0  0  0  0  0  0  0  # atno 17395 bound_to 11000

$$$$
