AV-unprocessed.smi:1952|AV-procd|sdf|7892|dock7
  -GOLD-   2272010 43D 1   1.00000     0.00000
 Structure written by MMmdl.
 39 40  0  0  0  0  0  0  0  0  3 V2000
  153.6203  143.1078  159.1880 C   0  0  0  0  0  0  0  0  0  0  0  0
  152.6376  142.5356  158.2251 C   0  0  0  0  0  0  0  0  0  0  0  0
  151.6945  143.1007  157.4137 C   0  0  0  0  0  0  0  0  0  0  0  0
  151.1087  141.9773  156.7717 C   0  0  0  0  0  0  0  0  0  0  0  0
  150.0629  142.1474  155.8269 N   0  0  0  0  0  0  0  0  0  0  0  0
  149.7429  141.3702  154.7770 C   0  0  0  0  0  0  0  0  0  0  0  0
  150.3846  140.3391  154.5423 O   0  0  0  0  0  0  0  0  0  0  0  0
  148.6940  141.8685  154.0652 N   0  5  0  0  0  0  0  0  0  0  0  0
  147.3323  141.3181  154.0593 C   0  0  1  0  0  0  0  0  0  0  0  0
  146.3333  142.4789  153.9561 C   0  0  0  0  0  0  0  0  0  0  0  0
  147.1614  140.3232  152.8851 C   0  0  0  0  0  0  0  0  0  0  0  0
  146.1753  139.2523  153.1910 N   0  3  0  0  0  0  0  0  0  0  0  0
  146.1349  138.1495  152.1978 C   0  0  0  0  0  0  0  0  0  0  0  0
  144.9988  137.1739  152.5442 C   0  0  0  0  0  0  0  0  0  0  0  0
  145.1856  136.6744  153.8636 O   0  0  0  0  0  0  0  0  0  0  0  0
  145.1564  137.7129  154.8360 C   0  0  0  0  0  0  0  0  0  0  0  0
  146.2953  138.7096  154.5641 C   0  0  0  0  0  0  0  0  0  0  0  0
  151.6522  140.8302  157.1516 N   0  0  0  0  0  0  0  0  0  0  0  0
  152.6329  141.1821  158.0865 O   0  0  0  0  0  0  0  0  0  0  0  0
  153.7134  144.1857  159.0544 H   0  0  0  0  0  0  0  0  0  0  0  0
  154.6058  142.6636  159.0469 H   0  0  0  0  0  0  0  0  0  0  0  0
  153.3072  142.9200  160.2151 H   0  0  0  0  0  0  0  0  0  0  0  0
  151.4598  144.1489  157.3018 H   0  0  0  0  0  0  0  0  0  0  0  0
  149.4801  142.9601  155.9637 H   0  0  0  0  0  0  0  0  0  0  0  0
  147.1101  140.7877  154.9864 H   0  0  0  0  0  0  0  0  0  0  0  0
  145.3065  142.1122  153.9600 H   0  0  0  0  0  0  0  0  0  0  0  0
  146.4772  143.0514  153.0389 H   0  0  0  0  0  0  0  0  0  0  0  0
  146.4378  143.1647  154.7977 H   0  0  0  0  0  0  0  0  0  0  0  0
  146.8608  140.8476  151.9769 H   0  0  0  0  0  0  0  0  0  0  0  0
  148.1345  139.8816  152.6625 H   0  0  0  0  0  0  0  0  0  0  0  0
  145.9794  138.5482  151.1948 H   0  0  0  0  0  0  0  0  0  0  0  0
  147.0918  137.6253  152.1901 H   0  0  0  0  0  0  0  0  0  0  0  0
  144.0267  137.6630  152.4602 H   0  0  0  0  0  0  0  0  0  0  0  0
  144.9961  136.3367  151.8459 H   0  0  0  0  0  0  0  0  0  0  0  0
  144.1879  138.2160  154.8189 H   0  0  0  0  0  0  0  0  0  0  0  0
  145.2700  137.2733  155.8270 H   0  0  0  0  0  0  0  0  0  0  0  0
  147.2646  138.2237  154.6852 H   0  0  0  0  0  0  0  0  0  0  0  0
  146.2465  139.5236  155.2884 H   0  0  0  0  0  0  0  0  0  0  0  0
  145.2748  139.7111  153.1536 H   0  0  0  0  0  0  0  0  0  0  0  0
  1  2  1  0  0  0  0
  1 20  1  0  0  0  0
  1 21  1  0  0  0  0
  1 22  1  0  0  0  0
  2 19  1  0  0  0  0
  2  3  2  0  0  0  0
  3  4  1  0  0  0  0
  3 23  1  0  0  0  0
  4  5  1  0  0  0  0
  4 18  2  0  0  0  0
  5  6  1  0  0  0  0
  5 24  1  0  0  0  0
  6  7  2  0  0  0  0
  6  8  1  0  0  0  0
  8  9  1  0  0  0  0
  9 10  1  0  0  0  0
  9 11  1  0  0  0  0
  9 25  1  0  0  0  0
 10 26  1  0  0  0  0
 10 27  1  0  0  0  0
 10 28  1  0  0  0  0
 11 12  1  0  0  0  0
 11 29  1  0  0  0  0
 11 30  1  0  0  0  0
 12 17  1  0  0  0  0
 12 13  1  0  0  0  0
 12 39  1  0  0  0  0
 13 14  1  0  0  0  0
 13 31  1  0  0  0  0
 13 32  1  0  0  0  0
 14 15  1  0  0  0  0
 14 33  1  0  0  0  0
 14 34  1  0  0  0  0
 15 16  1  0  0  0  0
 16 17  1  0  0  0  0
 16 35  1  0  0  0  0
 16 36  1  0  0  0  0
 17 37  1  0  0  0  0
 17 38  1  0  0  0  0
 18 19  1  0  0  0  0
M  CHG  1   8  -1
M  CHG  1  12   1
M  END
> <s_m_source_file>
AV-unprocessed.smi

> <i_m_source_file_index>
1952

> <i_lp_mmshare_version>
43012

> <i_f3d_flags>
0

> <s_epik_input>
W0NIM11jMVtjSF1jKG5vMSlbTkhdQyg9TylbTkhdW0NASF0oW0NIM10pW0NIMl1OMltDSDJdW0NIMl1PW0NIMl1bQ0gyXTI=

> <s_epik_cmdline>
J2VwaWtfcHl0aG9uJywgJy1waCcsICc3LjAnLCAnLXRuJywgJzgnLCAnLW1hJywgJzIwMCcsICctbWV0YWxfYmluZGluZycsICctaW1hZScsICc8aW5maWxlLm1hZT4nLCAnLW9tYWUnLCAnPG91dGZpbGUubWFlPic=

> <r_epik_Ionization_Penalty>
6.76648

> <r_epik_Ionization_Penalty_Charging>
6.76648

> <r_epik_Ionization_Penalty_Neutral>
5.6208e-06

> <r_epik_State_Penalty>
7.45901

> <r_epik_Charging_Adjusted_Penalty>
14.2255

> <i_epik_Tot_Q>
0

> <i_epik_Tot_abs_Q>
2

> <r_epik_Metal_State_Penalty>
3.38802

> <b_epik_Metal_Only>
1

> <s_lp_Force_Field>
OPLS_2005

> <r_lp_Energy>
9.12096

> <b_lp_Chiralities_Consistent>
1

> <s_lp_Variant>
AV-unprocessed.smi:1952-10

> <Gold.Version>
5.8.1

> <Gold.Id.Protein>
6NUR|6NUR_protein|mol2

> <Gold.PLP.Fitness>
44.1586

> <Gold.PLP.PLP>
-34.5823

> <Gold.PLP.part.hbond>
-4.0000

> <Gold.PLP.part.metal>
0.0000

> <Gold.PLP.part.buried>
-4.5159

> <Gold.PLP.part.nonpolar>
-27.8744

> <Gold.PLP.part.repulsive>
0.5018

> <Gold.PLP.ligand.clash>
0.0000

> <Gold.PLP.ligand.torsion>
1.6781

> <Gold.PLP.Chemscore.Hbond>
4.2517

> <Gold.PLP.Chemscore.CHOScore>
0.0000

> <Gold.PLP.Chemscore.Metal>
0.0000

> <Gold.Chemscore.Hbonds>
donor molecule, donor type, donor heavy atom, donor atom, acceptor molecule, acceptor atom, score
      L1  H     5    24       P1  8028  1.00
      L1  H    12    39       P1 10175  2.00
      P1  H  7989  7998       L1     7  1.00
      P1  H  8011  8017       L1     8  0.32

> <Gold.PLP.Chemscore.Internal.Correction>
0.1773

> <Gold.Rescore>
     Score         DG    S(hbond)    S(metal)    S(lipo)     H(rot)  DE(clash)    DE(int)     intcor
     14.58     -17.95       2.35        0.00      74.00       1.58       1.39       1.97       ----

> <Gold.Chemscore.Fitness>
14.5838

> <Gold.Chemscore.DG>
-17.9457

> <Gold.Chemscore.ZeroCoef>
-5.4800

> <Gold.Chemscore.Hbond>
2.3508

> <Gold.Chemscore.Metal>
0.0000

> <Gold.Chemscore.Lipo>
74.0019

> <Gold.Chemscore.Internal_Hbond>
0.0000

> <Gold.Chemscore.DEClash>
1.3911

> <Gold.Chemscore.DEInternal>
1.9708

> <Gold.Chemscore.Rot>
1.5798

> <Gold.Chemscore.Internal.Correction>
   9.000000E+99

> <Gold.Chemscore.Hbonds>
donor molecule, donor type, donor heavy atom, donor atom, acceptor molecule, acceptor atom, score
      L1  H     5    24       P1  8028  0.98
      L1  H    12    39       P1 10175  1.00
      P1  H  7989  7998       L1     7  0.38
      P1  H  8011  8017       L1     8  0.05

> <Gold.Chemscore.Hbond.Weighted>
-7.8517

> <Gold.Chemscore.Metal.Weighted>
-0.0000

> <Gold.Chemscore.Lipo.Weighted>
-8.6582

> <Gold.Chemscore.Internal_Hbond.Weighted>
0.0000

> <Gold.Chemscore.DEClash.Weighted>
1.3911

> <Gold.Chemscore.DEInternal.Weighted>
1.9708

> <Gold.Chemscore.Rot.Weighted>
4.0442

> <Gold.Chemscore.Internal.Correction.Weighted>
   9.000000E+99

> <Gold.Protein.RotatedTorsions>
[ 6907 6896 6895 6894 ] final   74.99 input  -60.11 | X-H torsion
[ 7974 7965 7964 7962 ] final   10.30 input  175.53 | X-H torsion
[ 8008 7997 7996 7995 ] final -161.91 input   59.86 | X-H torsion
[ 10167 10162 10161 10158 ] final -104.98 input  -65.29 | X-H torsion
[ 10718 10713 10712 10709 ] final   88.58 input   66.30 | X-H torsion
[ 10763 10752 10751 10750 ] final  -45.69 input  -60.55 | X-H torsion
[ 11005 11000 10999 10996 ] final  126.46 input  -57.11 | X-H torsion

> <Gold.Protein.ActiveResidues>
 VAL166  LYS551  ARG553  GLY616  TRP617  ASP618  TYR619  PRO620  LYS621  CYS622 
 ASP623  PHE694  ASN695  SER759  ASP760  ASP761  ALA762  ILE779  LEU786  VAL792 
 PHE793  MET794  SER795  GLU796  ALA797  LYS798  CYS799  TRP800  GLU811  SER814 

> <Gold.Protein.RotatedAtoms>
  152.5004  134.4188  159.9473 H   0  0  0  0  0  0  0  0  0  0  0  0  # atno 6907 bound_to 6896
  151.4160  133.3706  159.2758 H   0  0  0  0  0  0  0  0  0  0  0  0  # atno 6908 bound_to 6896
  150.9257  134.8696  159.7578 H   0  0  0  0  0  0  0  0  0  0  0  0  # atno 6909 bound_to 6896
  146.2390  139.9655  142.8453 H   0  0  0  0  0  0  0  0  0  0  0  0  # atno 7974 bound_to 7965
  155.7992  140.0889  157.1967 H   0  0  0  0  0  0  0  0  0  0  0  0  # atno 8008 bound_to 7997
  154.3982  140.1475  156.3312 H   0  0  0  0  0  0  0  0  0  0  0  0  # atno 8009 bound_to 7997
  155.8480  140.3436  155.5677 H   0  0  0  0  0  0  0  0  0  0  0  0  # atno 8010 bound_to 7997
  140.2034  143.3801  152.1110 H   0  0  0  0  0  0  0  0  0  0  0  0  # atno 10167 bound_to 10162
  157.6950  131.0300  150.3295 H   0  0  0  0  0  0  0  0  0  0  0  0  # atno 10718 bound_to 10713
  154.0327  135.6654  153.4782 H   0  0  0  0  0  0  0  0  0  0  0  0  # atno 10763 bound_to 10752
  153.0533  135.5071  154.7917 H   0  0  0  0  0  0  0  0  0  0  0  0  # atno 10764 bound_to 10752
  154.6868  135.3054  154.9502 H   0  0  0  0  0  0  0  0  0  0  0  0  # atno 10765 bound_to 10752
  139.9457  134.9630  156.8709 H   0  0  0  0  0  0  0  0  0  0  0  0  # atno 11005 bound_to 11000
  145.1730  140.9730  143.4310 LP  0  0  0  0  0  0  0  0  0  0  0  0  # atno 17320 bound_to 7965
  145.0011  139.3598  143.6167 LP  0  0  0  0  0  0  0  0  0  0  0  0  # atno 17321 bound_to 7965
  139.5208  144.7038  151.5416 LP  0  0  0  0  0  0  0  0  0  0  0  0  # atno 17342 bound_to 10162
  140.6374  143.8956  150.6660 LP  0  0  0  0  0  0  0  0  0  0  0  0  # atno 17343 bound_to 10162
  156.3771  130.3874  149.7130 LP  0  0  0  0  0  0  0  0  0  0  0  0  # atno 17370 bound_to 10713
  156.4525  130.7913  151.2934 LP  0  0  0  0  0  0  0  0  0  0  0  0  # atno 17371 bound_to 10713
  140.5841  134.0324  155.7475 LP  0  0  0  0  0  0  0  0  0  0  0  0  # atno 17394 bound_to 11000
  141.1106  133.9622  157.2916 LP  0  0  0  0  0  0  0  0  0  0  0  0  # atno 17395 bound_to 11000

$$$$
