AV-unprocessed.smi:2018|AV-procd|sdf|8169|dock10
  -GOLD-   2272010413D 1   1.00000     0.00000
 Structure written by MMmdl.
 35 36  0  0  0  0  0  0  0  0  1 V2000
  143.7118  132.4352  149.5908 C   0  0  0  0  0  0  0  0  0  0  0  0
  144.6932  133.2631  150.3472 C   0  0  0  0  0  0  0  0  0  0  0  0
  144.7119  134.5982  150.3173 N   0  0  0  0  0  0  0  0  0  0  0  0
  145.7286  135.1401  151.1104 C   0  0  0  0  0  0  0  0  0  0  0  0
  145.9008  136.6261  151.1954 C   0  0  0  0  0  0  0  0  0  0  0  0
  145.7994  137.1424  152.6403 C   0  0  0  0  0  0  0  0  0  0  0  0
  147.1002  137.5541  153.1548 N   0  0  0  0  0  0  0  0  0  0  0  0
  147.2945  138.3479  154.2239 C   0  0  0  0  0  0  0  0  0  0  0  0
  146.3682  138.8066  154.8931 O   0  0  0  0  0  0  0  0  0  0  0  0
  148.7106  138.6567  154.5594 C   0  0  0  0  0  0  0  0  0  0  0  0
  149.0453  139.8554  154.9224 N   0  0  0  0  0  0  0  0  0  0  0  0
  150.3424  140.1840  155.2605 N   0  0  0  0  0  0  0  0  0  0  0  0
  150.4980  141.4888  155.9006 C   0  0  0  0  0  0  0  0  0  0  0  0
  151.4247  139.4041  155.0150 C   0  0  0  0  0  0  0  0  0  0  0  0
  152.5730  139.7055  155.3400 O   0  0  0  0  0  0  0  0  0  0  0  0
  151.1670  138.0961  154.2617 C   0  0  0  0  0  0  0  0  0  0  0  0
  149.7461  137.5503  154.5071 C   0  0  0  0  0  0  0  0  0  0  0  0
  146.4866  134.1873  151.7439 C   0  0  0  0  0  0  0  0  0  0  0  0
  145.9490  132.5734  151.3681 S   0  0  0  0  0  0  0  0  0  0  0  0
  142.8944  133.0535  149.2182 H   0  0  0  0  0  0  0  0  0  0  0  0
  143.2971  131.6628  150.2386 H   0  0  0  0  0  0  0  0  0  0  0  0
  144.2035  131.9567  148.7440 H   0  0  0  0  0  0  0  0  0  0  0  0
  146.8660  136.9116  150.7748 H   0  0  0  0  0  0  0  0  0  0  0  0
  145.1497  137.1180  150.5761 H   0  0  0  0  0  0  0  0  0  0  0  0
  145.0925  137.9715  152.7017 H   0  0  0  0  0  0  0  0  0  0  0  0
  145.4132  136.3567  153.2905 H   0  0  0  0  0  0  0  0  0  0  0  0
  147.9147  137.2193  152.6601 H   0  0  0  0  0  0  0  0  0  0  0  0
  151.1549  142.1313  155.3124 H   0  0  0  0  0  0  0  0  0  0  0  0
  150.9310  141.3776  156.8959 H   0  0  0  0  0  0  0  0  0  0  0  0
  149.5440  142.0067  156.0130 H   0  0  0  0  0  0  0  0  0  0  0  0
  151.3037  138.2985  153.1987 H   0  0  0  0  0  0  0  0  0  0  0  0
  151.9130  137.3502  154.5381 H   0  0  0  0  0  0  0  0  0  0  0  0
  149.7195  136.9897  155.4423 H   0  0  0  0  0  0  0  0  0  0  0  0
  149.5102  136.8383  153.7153 H   0  0  0  0  0  0  0  0  0  0  0  0
  147.3265  134.3374  152.4060 H   0  0  0  0  0  0  0  0  0  0  0  0
  1  2  1  0  0  0  0
  1 20  1  0  0  0  0
  1 21  1  0  0  0  0
  1 22  1  0  0  0  0
  2 19  1  0  0  0  0
  2  3  2  0  0  0  0
  3  4  1  0  0  0  0
  4  5  1  0  0  0  0
  4 18  2  0  0  0  0
  5  6  1  0  0  0  0
  5 23  1  0  0  0  0
  5 24  1  0  0  0  0
  6  7  1  0  0  0  0
  6 25  1  0  0  0  0
  6 26  1  0  0  0  0
  7  8  1  0  0  0  0
  7 27  1  0  0  0  0
  8  9  2  0  0  0  0
  8 10  1  0  0  0  0
 10 17  1  0  0  0  0
 10 11  2  0  0  0  0
 11 12  1  0  0  0  0
 12 13  1  0  0  0  0
 12 14  1  0  0  0  0
 13 28  1  0  0  0  0
 13 29  1  0  0  0  0
 13 30  1  0  0  0  0
 14 15  2  0  0  0  0
 14 16  1  0  0  0  0
 16 17  1  0  0  0  0
 16 31  1  0  0  0  0
 16 32  1  0  0  0  0
 17 33  1  0  0  0  0
 17 34  1  0  0  0  0
 18 19  1  0  0  0  0
 18 35  1  0  0  0  0
M  END
> <s_m_source_file>
AV-unprocessed.smi

> <i_m_source_file_index>
2018

> <i_lp_mmshare_version>
43012

> <i_f3d_flags>
0

> <s_epik_input>
W0NIM11jMW5jKFtjSF1zMSlbQ0gyXVtDSDJdW05IXUMoPU8pQzI9Tk4oW0NIM10pQyg9TylbQ0gyXVtDSDJdMg==

> <s_epik_cmdline>
J2VwaWtfcHl0aG9uJywgJy1waCcsICc3LjAnLCAnLXRuJywgJzgnLCAnLW1hJywgJzIwMCcsICctbWV0YWxfYmluZGluZycsICctaW1hZScsICc8aW5maWxlLm1hZT4nLCAnLW9tYWUnLCAnPG91dGZpbGUubWFlPic=

> <r_epik_Ionization_Penalty>
0.000694267

> <r_epik_Ionization_Penalty_Charging>
0

> <r_epik_Ionization_Penalty_Neutral>
0.000694267

> <r_epik_State_Penalty>
0.000389372

> <r_epik_Charging_Adjusted_Penalty>
0.000389372

> <i_epik_Tot_Q>
0

> <i_epik_Tot_abs_Q>
0

> <r_epik_Metal_State_Penalty>
0.0645979

> <b_epik_Metal_Only>
0

> <s_epik_Chemistry_Notes>
This compound has an imine and may undergo hydrolysis.

> <s_lp_Force_Field>
OPLS_2005

> <r_lp_Energy>
11.1599

> <b_lp_Chiralities_Consistent>
1

> <s_lp_Variant>
AV-unprocessed.smi:2018-1

> <Gold.Version>
5.8.1

> <Gold.Id.Protein>
6NUR|6NUR_protein|mol2

> <Gold.PLP.Fitness>
38.5792

> <Gold.PLP.PLP>
-32.5858

> <Gold.PLP.part.hbond>
-2.8469

> <Gold.PLP.part.metal>
0.0000

> <Gold.PLP.part.buried>
-0.2481

> <Gold.PLP.part.nonpolar>
-30.2678

> <Gold.PLP.part.repulsive>
0.7520

> <Gold.PLP.ligand.clash>
0.0000

> <Gold.PLP.ligand.torsion>
1.1318

> <Gold.PLP.Chemscore.Hbond>
2.0000

> <Gold.PLP.Chemscore.CHOScore>
0.7513

> <Gold.PLP.Chemscore.Metal>
0.0000

> <Gold.Chemscore.Hbonds>
donor molecule, donor type, donor heavy atom, donor atom, acceptor molecule, acceptor atom, score
      L1  H     7    27       P1  7948  1.00
      P1  H  7997  8008       L1    15  1.00
      L1  C    18    35       P1  7948  0.75

> <Gold.PLP.Chemscore.Internal.Correction>
0.0030

> <Gold.Rescore>
     Score         DG    S(hbond)    S(metal)    S(lipo)     H(rot)  DE(clash)    DE(int)     intcor
     15.37     -17.01       1.99        0.00      73.39       1.45       0.66       0.98       ----

> <Gold.Chemscore.Fitness>
15.3713

> <Gold.Chemscore.DG>
-17.0127

> <Gold.Chemscore.ZeroCoef>
-5.4800

> <Gold.Chemscore.Hbond>
1.9919

> <Gold.Chemscore.Metal>
0.0000

> <Gold.Chemscore.Lipo>
73.3904

> <Gold.Chemscore.Internal_Hbond>
0.0000

> <Gold.Chemscore.DEClash>
0.6643

> <Gold.Chemscore.DEInternal>
0.9771

> <Gold.Chemscore.Rot>
1.4480

> <Gold.Chemscore.Internal.Correction>
   9.000000E+99

> <Gold.Chemscore.Hbonds>
donor molecule, donor type, donor heavy atom, donor atom, acceptor molecule, acceptor atom, score
      L1  H     7    27       P1  7948  0.99
      P1  H  7997  8008       L1    15  0.93

> <Gold.Chemscore.Hbond.Weighted>
-6.6530

> <Gold.Chemscore.Metal.Weighted>
-0.0000

> <Gold.Chemscore.Lipo.Weighted>
-8.5867

> <Gold.Chemscore.Internal_Hbond.Weighted>
0.0000

> <Gold.Chemscore.DEClash.Weighted>
0.6643

> <Gold.Chemscore.DEInternal.Weighted>
0.9771

> <Gold.Chemscore.Rot.Weighted>
3.7070

> <Gold.Chemscore.Internal.Correction.Weighted>
   9.000000E+99

> <Gold.Protein.RotatedTorsions>
[ 6907 6896 6895 6894 ] final -132.70 input  -60.11 | X-H torsion
[ 7974 7965 7964 7962 ] final  -43.17 input  175.53 | X-H torsion
[ 8008 7997 7996 7995 ] final  -37.61 input   59.86 | X-H torsion
[ 10167 10162 10161 10158 ] final   59.13 input  -65.29 | X-H torsion
[ 10718 10713 10712 10709 ] final  111.81 input   66.30 | X-H torsion
[ 10763 10752 10751 10750 ] final -140.06 input  -60.55 | X-H torsion
[ 11005 11000 10999 10996 ] final -133.23 input  -57.11 | X-H torsion

> <Gold.Protein.ActiveResidues>
 VAL166  LYS551  ARG553  GLY616  TRP617  ASP618  TYR619  PRO620  LYS621  CYS622 
 ASP623  PHE694  ASN695  SER759  ASP760  ASP761  ALA762  ILE779  LEU786  VAL792 
 PHE793  MET794  SER795  GLU796  ALA797  LYS798  CYS799  TRP800  GLU811  SER814 

> <Gold.Protein.RotatedAtoms>
  150.9654  133.6400  159.2746 H   0  0  0  0  0  0  0  0  0  0  0  0  # atno 6907 bound_to 6896
  151.3708  135.0921  159.9474 H   0  0  0  0  0  0  0  0  0  0  0  0  # atno 6908 bound_to 6896
  152.5163  133.9209  159.7588 H   0  0  0  0  0  0  0  0  0  0  0  0  # atno 6909 bound_to 6896
  146.0045  140.7036  142.9254 H   0  0  0  0  0  0  0  0  0  0  0  0  # atno 7974 bound_to 7965
  154.4050  140.1599  156.2565 H   0  0  0  0  0  0  0  0  0  0  0  0  # atno 8008 bound_to 7997
  155.9074  140.3429  155.6050 H   0  0  0  0  0  0  0  0  0  0  0  0  # atno 8009 bound_to 7997
  155.7377  140.0788  157.2251 H   0  0  0  0  0  0  0  0  0  0  0  0  # atno 8010 bound_to 7997
  140.1797  144.4194  150.6621 H   0  0  0  0  0  0  0  0  0  0  0  0  # atno 10167 bound_to 10162
  157.6426  131.0957  150.6803 H   0  0  0  0  0  0  0  0  0  0  0  0  # atno 10718 bound_to 10713
  154.8590  135.3564  154.5647 H   0  0  0  0  0  0  0  0  0  0  0  0  # atno 10763 bound_to 10752
  153.6261  135.7004  153.5297 H   0  0  0  0  0  0  0  0  0  0  0  0  # atno 10764 bound_to 10752
  153.3088  135.4184  155.1277 H   0  0  0  0  0  0  0  0  0  0  0  0  # atno 10765 bound_to 10752
  140.9099  134.1581  157.4397 H   0  0  0  0  0  0  0  0  0  0  0  0  # atno 11005 bound_to 11000
  144.6931  140.3290  143.7219 LP  0  0  0  0  0  0  0  0  0  0  0  0  # atno 17320 bound_to 7965
  145.7437  139.1772  143.2361 LP  0  0  0  0  0  0  0  0  0  0  0  0  # atno 17321 bound_to 7965
  140.6528  143.2229  151.6038 LP  0  0  0  0  0  0  0  0  0  0  0  0  # atno 17342 bound_to 10162
  139.5301  144.2940  152.1128 LP  0  0  0  0  0  0  0  0  0  0  0  0  # atno 17343 bound_to 10162
  156.7124  130.4656  149.5544 LP  0  0  0  0  0  0  0  0  0  0  0  0  # atno 17370 bound_to 10713
  156.1721  130.6443  151.0849 LP  0  0  0  0  0  0  0  0  0  0  0  0  # atno 17371 bound_to 10713
  139.8756  134.9932  156.5631 LP  0  0  0  0  0  0  0  0  0  0  0  0  # atno 17394 bound_to 11000
  140.8123  133.8419  155.8821 LP  0  0  0  0  0  0  0  0  0  0  0  0  # atno 17395 bound_to 11000

$$$$
