AV-unprocessed.smi:2461|AV-procd|sdf|9716|dock2
  -GOLD-   2272013353D 1   1.00000     0.00000
 Structure written by MMmdl.
 36 37  0  0  0  0  0  0  0  0  1 V2000
  146.3604  130.5469  152.3687 C   0  0  0  0  0  0  0  0  0  0  0  0
  147.3261  131.0805  153.4363 C   0  0  0  0  0  0  0  0  0  0  0  0
  147.6772  132.5539  153.2572 C   0  0  0  0  0  0  0  0  0  0  0  0
  148.8929  132.9617  154.0935 C   0  0  0  0  0  0  0  0  0  0  0  0
  149.3187  134.3502  153.9602 N   0  0  0  0  0  0  0  0  0  0  0  0
  150.1165  134.9959  154.8225 C   0  0  0  0  0  0  0  0  0  0  0  0
  150.5473  134.4900  155.8590 O   0  0  0  0  0  0  0  0  0  0  0  0
  150.3829  136.2432  154.3972 N   0  0  0  0  0  0  0  0  0  0  0  0
  151.2042  137.2214  155.0170 C   0  0  0  0  0  0  0  0  0  0  0  0
  150.7390  138.5531  154.9361 C   0  0  0  0  0  0  0  0  0  0  0  0
  151.5298  139.5569  155.5319 C   0  0  0  0  0  0  0  0  0  0  0  0
  151.1160  140.8712  155.4653 O   0  0  0  0  0  0  0  0  0  0  0  0
  149.7185  141.1338  155.4101 C   0  0  0  0  0  0  0  0  0  0  0  0
  152.6889  139.2552  156.1656 N   0  0  0  0  0  0  0  0  0  0  0  0
  153.0404  137.9691  156.1933 C   0  0  0  0  0  0  0  0  0  0  0  0
  152.3677  136.9488  155.6579 N   0  0  0  0  0  0  0  0  0  0  0  0
  147.4433  133.2063  151.9037 C   0  0  0  0  0  0  0  0  0  0  0  0
  146.5542  133.5564  153.0633 C   0  0  0  0  0  0  0  0  0  0  0  0
  146.1646  129.4859  152.5237 H   0  0  0  0  0  0  0  0  0  0  0  0
  146.7763  130.6631  151.3677 H   0  0  0  0  0  0  0  0  0  0  0  0
  145.4016  131.0641  152.3943 H   0  0  0  0  0  0  0  0  0  0  0  0
  146.9074  130.9279  154.4314 H   0  0  0  0  0  0  0  0  0  0  0  0
  148.2431  130.4913  153.4018 H   0  0  0  0  0  0  0  0  0  0  0  0
  148.6616  132.7943  155.1455 H   0  0  0  0  0  0  0  0  0  0  0  0
  149.7412  132.3097  153.8802 H   0  0  0  0  0  0  0  0  0  0  0  0
  149.0073  134.8437  153.1364 H   0  0  0  0  0  0  0  0  0  0  0  0
  149.9694  136.5161  153.5179 H   0  0  0  0  0  0  0  0  0  0  0  0
  149.8161  138.8011  154.4321 H   0  0  0  0  0  0  0  0  0  0  0  0
  149.5554  142.2108  155.3738 H   0  0  0  0  0  0  0  0  0  0  0  0
  149.2052  140.7517  156.2938 H   0  0  0  0  0  0  0  0  0  0  0  0
  149.2656  140.7004  154.5172 H   0  0  0  0  0  0  0  0  0  0  0  0
  153.9632  137.7289  156.7005 H   0  0  0  0  0  0  0  0  0  0  0  0
  148.1365  133.9739  151.5665 H   0  0  0  0  0  0  0  0  0  0  0  0
  147.0153  132.5955  151.1115 H   0  0  0  0  0  0  0  0  0  0  0  0
  145.5340  133.1790  153.0421 H   0  0  0  0  0  0  0  0  0  0  0  0
  146.6712  134.5477  153.4969 H   0  0  0  0  0  0  0  0  0  0  0  0
  1  2  1  0  0  0  0
  1 19  1  0  0  0  0
  1 20  1  0  0  0  0
  1 21  1  0  0  0  0
  2  3  1  0  0  0  0
  2 22  1  0  0  0  0
  2 23  1  0  0  0  0
  3 18  1  0  0  0  0
  3  4  1  0  0  0  0
  3 17  1  0  0  0  0
  4  5  1  0  0  0  0
  4 24  1  0  0  0  0
  4 25  1  0  0  0  0
  5  6  1  0  0  0  0
  5 26  1  0  0  0  0
  6  7  2  0  0  0  0
  6  8  1  0  0  0  0
  8  9  1  0  0  0  0
  8 27  1  0  0  0  0
  9 16  1  0  0  0  0
  9 10  2  0  0  0  0
 10 11  1  0  0  0  0
 10 28  1  0  0  0  0
 11 12  1  0  0  0  0
 11 14  2  0  0  0  0
 12 13  1  0  0  0  0
 13 29  1  0  0  0  0
 13 30  1  0  0  0  0
 13 31  1  0  0  0  0
 14 15  1  0  0  0  0
 15 16  2  0  0  0  0
 15 32  1  0  0  0  0
 17 18  1  0  0  0  0
 17 33  1  0  0  0  0
 17 34  1  0  0  0  0
 18 35  1  0  0  0  0
 18 36  1  0  0  0  0
M  END
> <s_m_source_file>
AV-unprocessed.smi

> <i_m_source_file_index>
2461

> <i_lp_mmshare_version>
43012

> <i_f3d_flags>
0

> <s_epik_input>
W0NIM11bQ0gyXUMxKFtDSDJdW0NIMl0xKVtDSDJdW05IXUMoPU8pW05IXWMyW2NIXWMoT1tDSDNdKW5bY0hdbjI=

> <s_epik_cmdline>
J2VwaWtfcHl0aG9uJywgJy1waCcsICc3LjAnLCAnLXRuJywgJzgnLCAnLW1hJywgJzIwMCcsICctbWV0YWxfYmluZGluZycsICctaW1hZScsICc8aW5maWxlLm1hZT4nLCAnLW9tYWUnLCAnPG91dGZpbGUubWFlPic=

> <r_lp_tautomer_probability>
1

> <r_epik_Ionization_Penalty>
2.7206e-05

> <r_epik_Ionization_Penalty_Charging>
0

> <r_epik_Ionization_Penalty_Neutral>
2.7206e-05

> <r_epik_State_Penalty>
-0

> <r_epik_Charging_Adjusted_Penalty>
0

> <i_epik_Tot_Q>
0

> <i_epik_Tot_abs_Q>
0

> <r_epik_Metal_State_Penalty>
-0

> <b_epik_Metal_Only>
0

> <s_lp_Force_Field>
OPLS_2005

> <r_lp_Energy>
17.684

> <b_lp_Chiralities_Consistent>
1

> <s_lp_Variant>
AV-unprocessed.smi:2461-1

> <Gold.Version>
5.8.1

> <Gold.Id.Protein>
6NUR|6NUR_protein|mol2

> <Gold.PLP.Fitness>
42.2883

> <Gold.PLP.PLP>
-31.4736

> <Gold.PLP.part.hbond>
-5.9999

> <Gold.PLP.part.metal>
0.0000

> <Gold.PLP.part.buried>
-2.9422

> <Gold.PLP.part.nonpolar>
-24.0707

> <Gold.PLP.part.repulsive>
0.1877

> <Gold.PLP.ligand.clash>
0.0000

> <Gold.PLP.ligand.torsion>
1.4353

> <Gold.PLP.Chemscore.Hbond>
4.1328

> <Gold.PLP.Chemscore.CHOScore>
0.0000

> <Gold.PLP.Chemscore.Metal>
0.0000

> <Gold.Chemscore.Hbonds>
donor molecule, donor type, donor heavy atom, donor atom, acceptor molecule, acceptor atom, score
      L1  H     5    26       P1  7948  0.75
      L1  H     8    27       P1  7948  0.85
      P1  H  7989  7998       L1    12  0.33
      P1  H  7997  8010       L1    14  1.00
      P1  H 10752 10764       L1    16  0.86

> <Gold.PLP.Chemscore.Internal.Correction>
1.2868

> <Gold.Rescore>
     Score         DG    S(hbond)    S(metal)    S(lipo)     H(rot)  DE(clash)    DE(int)     intcor
     12.73     -15.30       3.01        0.00      38.81       1.87       0.11       2.46       ----

> <Gold.Chemscore.Fitness>
12.7257

> <Gold.Chemscore.DG>
-15.2995

> <Gold.Chemscore.ZeroCoef>
-5.4800

> <Gold.Chemscore.Hbond>
3.0111

> <Gold.Chemscore.Metal>
0.0000

> <Gold.Chemscore.Lipo>
38.8086

> <Gold.Chemscore.Internal_Hbond>
0.0000

> <Gold.Chemscore.DEClash>
0.1133

> <Gold.Chemscore.DEInternal>
2.4605

> <Gold.Chemscore.Rot>
1.8664

> <Gold.Chemscore.Internal.Correction>
   9.000000E+99

> <Gold.Chemscore.Hbonds>
donor molecule, donor type, donor heavy atom, donor atom, acceptor molecule, acceptor atom, score
      L1  H     5    26       P1  7948  0.09
      L1  H     8    27       P1  7948  0.14
      P1  H  7997  8010       L1    14  0.35
      P1  H 10752 10764       L1    16  0.55

> <Gold.Chemscore.Hbond.Weighted>
-10.0570

> <Gold.Chemscore.Metal.Weighted>
-0.0000

> <Gold.Chemscore.Lipo.Weighted>
-4.5406

> <Gold.Chemscore.Internal_Hbond.Weighted>
0.0000

> <Gold.Chemscore.DEClash.Weighted>
0.1133

> <Gold.Chemscore.DEInternal.Weighted>
2.4605

> <Gold.Chemscore.Rot.Weighted>
4.7781

> <Gold.Chemscore.Internal.Correction.Weighted>
   9.000000E+99

> <Gold.Protein.RotatedTorsions>
[ 6907 6896 6895 6894 ] final  128.67 input  -60.11 | X-H torsion
[ 7974 7965 7964 7962 ] final   84.15 input  175.53 | X-H torsion
[ 8008 7997 7996 7995 ] final   76.77 input   59.86 | X-H torsion
[ 10167 10162 10161 10158 ] final  -60.91 input  -65.29 | X-H torsion
[ 10718 10713 10712 10709 ] final  -49.96 input   66.30 | X-H torsion
[ 10763 10752 10751 10750 ] final  -39.00 input  -60.55 | X-H torsion
[ 11005 11000 10999 10996 ] final  174.36 input  -57.11 | X-H torsion

> <Gold.Protein.ActiveResidues>
 VAL166  LYS551  ARG553  GLY616  TRP617  ASP618  TYR619  PRO620  LYS621  CYS622 
 ASP623  PHE694  ASN695  SER759  ASP760  ASP761  ALA762  ILE779  LEU786  VAL792 
 PHE793  MET794  SER795  GLU796  ALA797  LYS798  CYS799  TRP800  GLU811  SER814 

> <Gold.Protein.RotatedAtoms>
  152.3697  133.6403  159.6077 H   0  0  0  0  0  0  0  0  0  0  0  0  # atno 6907 bound_to 6896
  150.7660  133.9290  159.3430 H   0  0  0  0  0  0  0  0  0  0  0  0  # atno 6908 bound_to 6896
  151.7114  135.0913  160.0319 H   0  0  0  0  0  0  0  0  0  0  0  0  # atno 6909 bound_to 6896
  145.6025  139.2355  143.2237 H   0  0  0  0  0  0  0  0  0  0  0  0  # atno 7974 bound_to 7965
  155.8321  140.3465  155.5579 H   0  0  0  0  0  0  0  0  0  0  0  0  # atno 8008 bound_to 7997
  155.8231  140.0916  157.1857 H   0  0  0  0  0  0  0  0  0  0  0  0  # atno 8009 bound_to 7997
  154.4004  140.1426  156.3511 H   0  0  0  0  0  0  0  0  0  0  0  0  # atno 8010 bound_to 7997
  140.6040  143.2368  151.5863 H   0  0  0  0  0  0  0  0  0  0  0  0  # atno 10167 bound_to 10162
  156.1845  130.4151  149.9459 H   0  0  0  0  0  0  0  0  0  0  0  0  # atno 10718 bound_to 10713
  153.9221  135.6781  153.4747 H   0  0  0  0  0  0  0  0  0  0  0  0  # atno 10763 bound_to 10752
  153.1023  135.4822  154.8886 H   0  0  0  0  0  0  0  0  0  0  0  0  # atno 10764 bound_to 10752
  154.7472  135.3175  154.8579 H   0  0  0  0  0  0  0  0  0  0  0  0  # atno 10765 bound_to 10752
  140.3505  134.7199  157.4264 H   0  0  0  0  0  0  0  0  0  0  0  0  # atno 11005 bound_to 11000
  146.1565  140.6850  142.9297 LP  0  0  0  0  0  0  0  0  0  0  0  0  # atno 17320 bound_to 7965
  144.7304  140.4653  143.6942 LP  0  0  0  0  0  0  0  0  0  0  0  0  # atno 17321 bound_to 7965
  139.5311  144.2912  152.1150 LP  0  0  0  0  0  0  0  0  0  0  0  0  # atno 17342 bound_to 10162
  140.2099  144.4574  150.6391 LP  0  0  0  0  0  0  0  0  0  0  0  0  # atno 17343 bound_to 10162
  156.7219  130.9010  151.3619 LP  0  0  0  0  0  0  0  0  0  0  0  0  # atno 17370 bound_to 10713
  157.6890  130.9214  150.0462 LP  0  0  0  0  0  0  0  0  0  0  0  0  # atno 17371 bound_to 10713
  140.0707  134.5866  155.8645 LP  0  0  0  0  0  0  0  0  0  0  0  0  # atno 17394 bound_to 11000
  141.2013  133.6618  156.5946 LP  0  0  0  0  0  0  0  0  0  0  0  0  # atno 17395 bound_to 11000

$$$$
