AV-unprocessed.smi:2164|AV-procd|sdf|8810|dock1
  -GOLD-   2272011593D 1   1.00000     0.00000
 Structure written by MMmdl.
 38 40  0  0  0  0  0  0  0  0  2 V2000
  154.6093  137.7548  159.6094 O   0  0  0  0  0  0  0  0  0  0  0  0
  154.7095  138.0372  160.8104 C   0  0  0  0  0  0  0  0  0  0  0  0
  154.5670  139.2915  161.3367 N   0  5  0  0  0  0  0  0  0  0  0  0
  154.5245  140.5331  160.5646 C   0  0  0  0  0  0  0  0  0  0  0  0
  153.0849  140.7892  160.0755 C   0  0  0  0  0  0  0  0  0  0  0  0
  152.5014  142.1126  160.5514 C   0  0  0  0  0  0  0  0  0  0  0  0
  152.5461  142.4791  161.9143 C   0  0  0  0  0  0  0  0  0  0  0  0
  151.9819  143.7078  162.3078 C   0  0  0  0  0  0  0  0  0  0  0  0
  151.3910  144.5206  161.3203 C   0  0  0  0  0  0  0  0  0  0  0  0
  151.3351  144.1805  160.0149 N   0  0  0  0  0  0  0  0  0  0  0  0
  151.8788  143.0006  159.6455 C   0  0  0  0  0  0  0  0  0  0  0  0
  155.0043  136.9505  161.7563 C   0  0  0  0  0  0  0  0  0  0  0  0
  155.3026  135.6912  161.3682 C   0  0  0  0  0  0  0  0  0  0  0  0
  155.5828  134.6525  162.2599 N   0  0  0  0  0  0  0  0  0  0  0  0
  155.7930  133.3172  161.7125 C   0  0  0  0  0  0  0  0  0  0  0  0
  156.9320  132.6201  162.4394 C   0  0  0  0  0  0  0  0  0  0  0  0
  156.3987  132.4437  164.1846 S   0  0  0  0  0  0  0  0  0  0  0  0
  155.1743  131.6279  164.2066 O   0  0  0  0  0  0  0  0  0  0  0  0
  157.5621  132.0181  164.9776 O   0  0  0  0  0  0  0  0  0  0  0  0
  156.0092  134.0319  164.5526 N   0  0  0  0  0  0  0  0  0  0  0  0
  155.6390  134.8956  163.6560 C   0  0  0  0  0  0  0  0  0  0  0  0
  155.2788  136.2386  164.0797 C   0  0  0  0  0  0  0  0  0  0  0  0
  154.9818  137.2056  163.1880 C   0  0  0  0  0  0  0  0  0  0  0  0
  154.8536  141.3866  161.1588 H   0  0  0  0  0  0  0  0  0  0  0  0
  155.1898  140.4931  159.7012 H   0  0  0  0  0  0  0  0  0  0  0  0
  153.0551  140.7707  158.9849 H   0  0  0  0  0  0  0  0  0  0  0  0
  152.4310  139.9826  160.4105 H   0  0  0  0  0  0  0  0  0  0  0  0
  153.0069  141.8310  162.6454 H   0  0  0  0  0  0  0  0  0  0  0  0
  152.0017  144.0191  163.3415 H   0  0  0  0  0  0  0  0  0  0  0  0
  150.9486  145.4690  161.5869 H   0  0  0  0  0  0  0  0  0  0  0  0
  151.8154  142.7574  158.5950 H   0  0  0  0  0  0  0  0  0  0  0  0
  155.3449  135.3939  160.3302 H   0  0  0  0  0  0  0  0  0  0  0  0
  154.8693  132.7439  161.7978 H   0  0  0  0  0  0  0  0  0  0  0  0
  156.0312  133.3708  160.6496 H   0  0  0  0  0  0  0  0  0  0  0  0
  157.1262  131.6291  162.0300 H   0  0  0  0  0  0  0  0  0  0  0  0
  157.8558  133.1982  162.3996 H   0  0  0  0  0  0  0  0  0  0  0  0
  155.2484  136.5035  165.1266 H   0  0  0  0  0  0  0  0  0  0  0  0
  154.7240  138.1848  163.5648 H   0  0  0  0  0  0  0  0  0  0  0  0
  1  2  2  0  0  0  0
  2  3  1  0  0  0  0
  2 12  1  0  0  0  0
  3  4  1  0  0  0  0
  4  5  1  0  0  0  0
  4 24  1  0  0  0  0
  4 25  1  0  0  0  0
  5  6  1  0  0  0  0
  5 26  1  0  0  0  0
  5 27  1  0  0  0  0
  6 11  1  0  0  0  0
  6  7  2  0  0  0  0
  7  8  1  0  0  0  0
  7 28  1  0  0  0  0
  8  9  2  0  0  0  0
  8 29  1  0  0  0  0
  9 10  1  0  0  0  0
  9 30  1  0  0  0  0
 10 11  2  0  0  0  0
 11 31  1  0  0  0  0
 12 23  1  0  0  0  0
 12 13  2  0  0  0  0
 13 14  1  0  0  0  0
 13 32  1  0  0  0  0
 14 21  1  0  0  0  0
 14 15  1  0  0  0  0
 15 16  1  0  0  0  0
 15 33  1  0  0  0  0
 15 34  1  0  0  0  0
 16 17  1  0  0  0  0
 16 35  1  0  0  0  0
 16 36  1  0  0  0  0
 17 18  2  0  0  0  0
 17 19  2  0  0  0  0
 17 20  1  0  0  0  0
 20 21  2  0  0  0  0
 21 22  1  0  0  0  0
 22 23  2  0  0  0  0
 22 37  1  0  0  0  0
 23 38  1  0  0  0  0
M  CHG  1   3  -1
M  END
> <s_m_source_file>
AV-unprocessed.smi

> <i_m_source_file_index>
2164

> <i_lp_mmshare_version>
43012

> <i_f3d_flags>
0

> <s_epik_input>
W0NIMl0xW0NIMl1TKD1PKSg9TylOPUMoTjEyKVtDSF09W0NIXUMoPVtDSF0yKUMoPU8pW05IXVtDSDJdW0NIMl1jM1tjSF1bY0hdW2NIXW5bY0hdMw==

> <s_epik_cmdline>
J2VwaWtfcHl0aG9uJywgJy1waCcsICc3LjAnLCAnLXRuJywgJzgnLCAnLW1hJywgJzIwMCcsICctbWV0YWxfYmluZGluZycsICctaW1hZScsICc8aW5maWxlLm1hZT4nLCAnLW9tYWUnLCAnPG91dGZpbGUubWFlPic=

> <r_epik_Ionization_Penalty>
5.17728

> <r_epik_Ionization_Penalty_Charging>
5.15676

> <r_epik_Ionization_Penalty_Neutral>
0.0205175

> <r_epik_State_Penalty>
5.1638

> <r_epik_Charging_Adjusted_Penalty>
10.3206

> <i_epik_Tot_Q>
-1

> <i_epik_Tot_abs_Q>
1

> <r_epik_Metal_State_Penalty>
1.2481

> <b_epik_Metal_Only>
1

> <s_lp_Force_Field>
OPLS_2005

> <r_lp_Energy>
26.7817

> <b_lp_Chiralities_Consistent>
1

> <s_lp_Variant>
AV-unprocessed.smi:2164-3

> <Gold.Version>
5.8.1

> <Gold.Id.Protein>
6NUR|6NUR_protein|mol2

> <Gold.PLP.Fitness>
48.3227

> <Gold.PLP.PLP>
-49.6810

> <Gold.PLP.part.hbond>
0.0000

> <Gold.PLP.part.metal>
0.0000

> <Gold.PLP.part.buried>
-7.2881

> <Gold.PLP.part.nonpolar>
-42.1772

> <Gold.PLP.part.repulsive>
0.1728

> <Gold.PLP.ligand.clash>
0.0000

> <Gold.PLP.ligand.torsion>
0.7001

> <Gold.PLP.Chemscore.Hbond>
0.0000

> <Gold.PLP.Chemscore.CHOScore>
0.0000

> <Gold.PLP.Chemscore.Metal>
0.0000

> <Gold.PLP.Chemscore.Internal.Correction>
0.0420

> <Gold.Rescore>
     Score         DG    S(hbond)    S(metal)    S(lipo)     H(rot)  DE(clash)    DE(int)     intcor
     14.38     -15.23       0.00        0.00     114.94       1.44       0.16       0.69       ----

> <Gold.Chemscore.Fitness>
14.3816

> <Gold.Chemscore.DG>
-15.2326

> <Gold.Chemscore.ZeroCoef>
-5.4800

> <Gold.Chemscore.Hbond>
0.0000

> <Gold.Chemscore.Metal>
0.0000

> <Gold.Chemscore.Lipo>
114.9362

> <Gold.Chemscore.Internal_Hbond>
0.0000

> <Gold.Chemscore.DEClash>
0.1640

> <Gold.Chemscore.DEInternal>
0.6871

> <Gold.Chemscore.Rot>
1.4433

> <Gold.Chemscore.Internal.Correction>
   9.000000E+99

> <Gold.Chemscore.Hbond.Weighted>
-0.0000

> <Gold.Chemscore.Metal.Weighted>
-0.0000

> <Gold.Chemscore.Lipo.Weighted>
-13.4475

> <Gold.Chemscore.Internal_Hbond.Weighted>
0.0000

> <Gold.Chemscore.DEClash.Weighted>
0.1640

> <Gold.Chemscore.DEInternal.Weighted>
0.6871

> <Gold.Chemscore.Rot.Weighted>
3.6949

> <Gold.Chemscore.Internal.Correction.Weighted>
   9.000000E+99

> <Gold.Protein.RotatedTorsions>
[ 6907 6896 6895 6894 ] final -177.30 input  -60.11 | X-H torsion
[ 7974 7965 7964 7962 ] final   97.76 input  175.53 | X-H torsion
[ 8008 7997 7996 7995 ] final -128.05 input   59.86 | X-H torsion
[ 10167 10162 10161 10158 ] final   47.95 input  -65.29 | X-H torsion
[ 10718 10713 10712 10709 ] final -127.75 input   66.30 | X-H torsion
[ 10763 10752 10751 10750 ] final  -62.20 input  -60.55 | X-H torsion
[ 11005 11000 10999 10996 ] final  143.79 input  -57.11 | X-H torsion

> <Gold.Protein.ActiveResidues>
 VAL166  LYS551  ARG553  GLY616  TRP617  ASP618  TYR619  PRO620  LYS621  CYS622 
 ASP623  PHE694  ASN695  SER759  ASP760  ASP761  ALA762  ILE779  LEU786  VAL792 
 PHE793  MET794  SER795  GLU796  ALA797  LYS798  CYS799  TRP800  GLU811  SER814 

> <Gold.Protein.RotatedAtoms>
  151.6188  133.3341  159.3083 H   0  0  0  0  0  0  0  0  0  0  0  0  # atno 6907 bound_to 6896
  150.8117  134.7279  159.6705 H   0  0  0  0  0  0  0  0  0  0  0  0  # atno 6908 bound_to 6896
  152.4213  134.5954  160.0037 H   0  0  0  0  0  0  0  0  0  0  0  0  # atno 6909 bound_to 6896
  145.4212  139.2321  143.3195 H   0  0  0  0  0  0  0  0  0  0  0  0  # atno 7974 bound_to 7965
  155.2563  140.0434  157.2992 H   0  0  0  0  0  0  0  0  0  0  0  0  # atno 8008 bound_to 7997
  154.5738  140.2381  155.8122 H   0  0  0  0  0  0  0  0  0  0  0  0  # atno 8009 bound_to 7997
  156.2142  140.2989  155.9810 H   0  0  0  0  0  0  0  0  0  0  0  0  # atno 8010 bound_to 7997
  140.2983  144.2964  150.6224 H   0  0  0  0  0  0  0  0  0  0  0  0  # atno 10167 bound_to 10162
  156.1886  130.6780  151.0396 H   0  0  0  0  0  0  0  0  0  0  0  0  # atno 10718 bound_to 10713
  154.2963  135.6243  153.5406 H   0  0  0  0  0  0  0  0  0  0  0  0  # atno 10763 bound_to 10752
  152.9846  135.5668  154.5334 H   0  0  0  0  0  0  0  0  0  0  0  0  # atno 10764 bound_to 10752
  154.4955  135.2869  155.1439 H   0  0  0  0  0  0  0  0  0  0  0  0  # atno 10765 bound_to 10752
  140.0581  134.9219  157.1136 H   0  0  0  0  0  0  0  0  0  0  0  0  # atno 11005 bound_to 11000
  146.2655  140.4937  142.8836 LP  0  0  0  0  0  0  0  0  0  0  0  0  # atno 17320 bound_to 7965
  144.8244  140.6603  143.6332 LP  0  0  0  0  0  0  0  0  0  0  0  0  # atno 17321 bound_to 7965
  140.5673  143.2185  151.7661 LP  0  0  0  0  0  0  0  0  0  0  0  0  # atno 17342 bound_to 10162
  139.4921  144.4266  151.9919 LP  0  0  0  0  0  0  0  0  0  0  0  0  # atno 17343 bound_to 10162
  157.6915  131.0808  150.7094 LP  0  0  0  0  0  0  0  0  0  0  0  0  # atno 17370 bound_to 10713
  156.7150  130.4663  149.5537 LP  0  0  0  0  0  0  0  0  0  0  0  0  # atno 17371 bound_to 10713
  140.3812  134.2285  155.7171 LP  0  0  0  0  0  0  0  0  0  0  0  0  # atno 17394 bound_to 11000
  141.1961  133.8090  157.0686 LP  0  0  0  0  0  0  0  0  0  0  0  0  # atno 17395 bound_to 11000

$$$$
