AV-unprocessed.smi:2959|AV-procd|sdf|11309|dock5
  -GOLD-   2272016203D 1   1.00000     0.00000
 Structure written by MMmdl.
 45 47  0  0  0  0  0  0  0  0  1 V2000
  156.7071  133.9039  157.0859 C   0  0  0  0  0  0  0  0  0  0  0  0
  156.3927  135.3766  156.8424 C   0  0  0  0  0  0  0  0  0  0  0  0
  155.9947  135.7460  155.7385 O   0  0  0  0  0  0  0  0  0  0  0  0
  156.5701  136.2061  157.8798 N   0  0  0  0  0  0  0  0  0  0  0  0
  156.3294  137.6436  157.8456 C   0  0  0  0  0  0  0  0  0  0  0  0
  155.0682  138.0359  158.6388 C   0  0  0  0  0  0  0  0  0  0  0  0
  154.9522  137.3458  159.9706 C   0  0  0  0  0  0  0  0  0  0  0  0
  155.2934  136.0633  160.1091 N   0  0  0  0  0  0  0  0  0  0  0  0
  155.0328  135.8159  161.4410 C   0  0  0  0  0  0  0  0  0  0  0  0
  155.1709  134.6314  162.1992 C   0  0  0  0  0  0  0  0  0  0  0  0
  154.8382  134.6183  163.5694 C   0  0  0  0  0  0  0  0  0  0  0  0
  154.3652  135.7874  164.1998 C   0  0  0  0  0  0  0  0  0  0  0  0
  154.2224  136.9783  163.4622 C   0  0  0  0  0  0  0  0  0  0  0  0
  154.5543  136.9861  162.0937 C   0  0  0  0  0  0  0  0  0  0  0  0
  154.5365  137.9680  161.1066 N   0  0  0  0  0  0  0  0  0  0  0  0
  154.1550  139.3591  161.3175 C   0  0  0  0  0  0  0  0  0  0  0  0
  155.0784  140.3474  160.5908 C   0  0  0  0  0  0  0  0  0  0  0  0
  154.3576  141.0073  159.5604 O   0  0  0  0  0  0  0  0  0  0  0  0
  153.4849  142.0132  159.9152 C   0  0  0  0  0  0  0  0  0  0  0  0
  152.7834  142.6501  158.8705 C   0  0  0  0  0  0  0  0  0  0  0  0
  151.8613  143.6785  159.1423 C   0  0  0  0  0  0  0  0  0  0  0  0
  151.6320  144.0837  160.4698 C   0  0  0  0  0  0  0  0  0  0  0  0
  152.3272  143.4595  161.5222 C   0  0  0  0  0  0  0  0  0  0  0  0
  153.2492  142.4299  161.2498 C   0  0  0  0  0  0  0  0  0  0  0  0
  157.3601  133.5221  156.3010 H   0  0  0  0  0  0  0  0  0  0  0  0
  155.7876  133.3184  157.0827 H   0  0  0  0  0  0  0  0  0  0  0  0
  157.2039  133.7541  158.0454 H   0  0  0  0  0  0  0  0  0  0  0  0
  156.8943  135.8159  158.7532 H   0  0  0  0  0  0  0  0  0  0  0  0
  157.1969  138.1515  158.2704 H   0  0  0  0  0  0  0  0  0  0  0  0
  156.2410  137.9790  156.8115 H   0  0  0  0  0  0  0  0  0  0  0  0
  155.0639  139.1130  158.8083 H   0  0  0  0  0  0  0  0  0  0  0  0
  154.1956  137.8283  158.0233 H   0  0  0  0  0  0  0  0  0  0  0  0
  155.5334  133.7313  161.7251 H   0  0  0  0  0  0  0  0  0  0  0  0
  154.9472  133.7072  164.1395 H   0  0  0  0  0  0  0  0  0  0  0  0
  154.1133  135.7697  165.2500 H   0  0  0  0  0  0  0  0  0  0  0  0
  153.8608  137.8746  163.9439 H   0  0  0  0  0  0  0  0  0  0  0  0
  153.1376  139.4853  160.9465 H   0  0  0  0  0  0  0  0  0  0  0  0
  154.1027  139.5759  162.3840 H   0  0  0  0  0  0  0  0  0  0  0  0
  155.4831  141.0674  161.3039 H   0  0  0  0  0  0  0  0  0  0  0  0
  155.9155  139.7996  160.1554 H   0  0  0  0  0  0  0  0  0  0  0  0
  152.9508  142.3431  157.8485 H   0  0  0  0  0  0  0  0  0  0  0  0
  151.3293  144.1544  158.3316 H   0  0  0  0  0  0  0  0  0  0  0  0
  150.9242  144.8719  160.6806 H   0  0  0  0  0  0  0  0  0  0  0  0
  152.1520  143.7697  162.5418 H   0  0  0  0  0  0  0  0  0  0  0  0
  153.7593  141.9721  162.0835 H   0  0  0  0  0  0  0  0  0  0  0  0
  1  2  1  0  0  0  0
  1 25  1  0  0  0  0
  1 26  1  0  0  0  0
  1 27  1  0  0  0  0
  2  3  2  0  0  0  0
  2  4  1  0  0  0  0
  4  5  1  0  0  0  0
  4 28  1  0  0  0  0
  5  6  1  0  0  0  0
  5 29  1  0  0  0  0
  5 30  1  0  0  0  0
  6  7  1  0  0  0  0
  6 31  1  0  0  0  0
  6 32  1  0  0  0  0
  7 15  1  0  0  0  0
  7  8  2  0  0  0  0
  8  9  1  0  0  0  0
  9 14  2  0  0  0  0
  9 10  1  0  0  0  0
 10 11  2  0  0  0  0
 10 33  1  0  0  0  0
 11 12  1  0  0  0  0
 11 34  1  0  0  0  0
 12 13  2  0  0  0  0
 12 35  1  0  0  0  0
 13 14  1  0  0  0  0
 13 36  1  0  0  0  0
 14 15  1  0  0  0  0
 15 16  1  0  0  0  0
 16 17  1  0  0  0  0
 16 37  1  0  0  0  0
 16 38  1  0  0  0  0
 17 18  1  0  0  0  0
 17 39  1  0  0  0  0
 17 40  1  0  0  0  0
 18 19  1  0  0  0  0
 19 24  1  0  0  0  0
 19 20  2  0  0  0  0
 20 21  1  0  0  0  0
 20 41  1  0  0  0  0
 21 22  2  0  0  0  0
 21 42  1  0  0  0  0
 22 23  1  0  0  0  0
 22 43  1  0  0  0  0
 23 24  2  0  0  0  0
 23 44  1  0  0  0  0
 24 45  1  0  0  0  0
M  END
> <s_m_source_file>
AV-unprocessed.smi

> <i_m_source_file_index>
2959

> <i_lp_mmshare_version>
43012

> <i_f3d_flags>
0

> <s_epik_input>
W0NIM11DKD1PKVtOSF1bQ0gyXVtDSDJdYyhuMSluKGMoYzEyKVtjSF1bY0hdW2NIXVtjSF0yKVtDSDJdW0NIMl1PYzNbY0hdW2NIXVtjSF1bY0hdW2NIXTM=

> <s_epik_cmdline>
J2VwaWtfcHl0aG9uJywgJy1waCcsICc3LjAnLCAnLXRuJywgJzgnLCAnLW1hJywgJzIwMCcsICctbWV0YWxfYmluZGluZycsICctaW1hZScsICc8aW5maWxlLm1hZT4nLCAnLW9tYWUnLCAnPG91dGZpbGUubWFlPic=

> <r_lp_tautomer_probability>
1

> <r_epik_Ionization_Penalty>
0.11099

> <r_epik_Ionization_Penalty_Charging>
0

> <r_epik_Ionization_Penalty_Neutral>
0.11099

> <r_epik_State_Penalty>
0.100724

> <r_epik_Charging_Adjusted_Penalty>
0.100724

> <i_epik_Tot_Q>
0

> <i_epik_Tot_abs_Q>
0

> <r_epik_Metal_State_Penalty>
0.0847

> <b_epik_Metal_Only>
0

> <s_lp_Force_Field>
OPLS_2005

> <r_lp_Energy>
14.3457

> <b_lp_Chiralities_Consistent>
1

> <s_lp_Variant>
AV-unprocessed.smi:2959-1

> <Gold.Version>
5.8.1

> <Gold.Id.Protein>
6NUR|6NUR_protein|mol2

> <Gold.PLP.Fitness>
48.9793

> <Gold.PLP.PLP>
-48.1062

> <Gold.PLP.part.hbond>
-1.0000

> <Gold.PLP.part.metal>
0.0000

> <Gold.PLP.part.buried>
-5.2011

> <Gold.PLP.part.nonpolar>
-40.7348

> <Gold.PLP.part.repulsive>
0.0254

> <Gold.PLP.ligand.clash>
0.0000

> <Gold.PLP.ligand.torsion>
1.0788

> <Gold.PLP.Chemscore.Hbond>
1.0000

> <Gold.PLP.Chemscore.CHOScore>
0.0000

> <Gold.PLP.Chemscore.Metal>
0.0000

> <Gold.Chemscore.Hbonds>
donor molecule, donor type, donor heavy atom, donor atom, acceptor molecule, acceptor atom, score
      P1  H 10752 10765       L1     3  0.98

> <Gold.PLP.Chemscore.Internal.Correction>
0.0306

> <Gold.Rescore>
     Score         DG    S(hbond)    S(metal)    S(lipo)     H(rot)  DE(clash)    DE(int)     intcor
     16.38     -20.00       1.00        0.00     142.33       2.14       0.06       3.57       ----

> <Gold.Chemscore.Fitness>
16.3772

> <Gold.Chemscore.DG>
-20.0048

> <Gold.Chemscore.ZeroCoef>
-5.4800

> <Gold.Chemscore.Hbond>
0.9996

> <Gold.Chemscore.Metal>
0.0000

> <Gold.Chemscore.Lipo>
142.3344

> <Gold.Chemscore.Internal_Hbond>
0.0000

> <Gold.Chemscore.DEClash>
0.0588

> <Gold.Chemscore.DEInternal>
3.5687

> <Gold.Chemscore.Rot>
2.1356

> <Gold.Chemscore.Internal.Correction>
   9.000000E+99

> <Gold.Chemscore.Hbonds>
donor molecule, donor type, donor heavy atom, donor atom, acceptor molecule, acceptor atom, score
      P1  H 10752 10765       L1     3  0.91

> <Gold.Chemscore.Hbond.Weighted>
-3.3387

> <Gold.Chemscore.Metal.Weighted>
-0.0000

> <Gold.Chemscore.Lipo.Weighted>
-16.6531

> <Gold.Chemscore.Internal_Hbond.Weighted>
0.0000

> <Gold.Chemscore.DEClash.Weighted>
0.0588

> <Gold.Chemscore.DEInternal.Weighted>
3.5687

> <Gold.Chemscore.Rot.Weighted>
5.4671

> <Gold.Chemscore.Internal.Correction.Weighted>
   9.000000E+99

> <Gold.Protein.RotatedTorsions>
[ 6907 6896 6895 6894 ] final  -42.89 input  -60.11 | X-H torsion
[ 7974 7965 7964 7962 ] final   95.81 input  175.53 | X-H torsion
[ 8008 7997 7996 7995 ] final  -65.34 input   59.86 | X-H torsion
[ 10167 10162 10161 10158 ] final -153.16 input  -65.29 | X-H torsion
[ 10718 10713 10712 10709 ] final  -74.72 input   66.30 | X-H torsion
[ 10763 10752 10751 10750 ] final  -45.12 input  -60.55 | X-H torsion
[ 11005 11000 10999 10996 ] final   45.95 input  -57.11 | X-H torsion

> <Gold.Protein.ActiveResidues>
 VAL166  LYS551  ARG553  GLY616  TRP617  ASP618  TYR619  PRO620  LYS621  CYS622 
 ASP623  PHE694  ASN695  SER759  ASP760  ASP761  ALA762  ILE779  LEU786  VAL792 
 PHE793  MET794  SER795  GLU796  ALA797  LYS798  CYS799  TRP800  GLU811  SER814 

> <Gold.Protein.RotatedAtoms>
  150.9501  134.8902  159.7666 H   0  0  0  0  0  0  0  0  0  0  0  0  # atno 6907 bound_to 6896
  152.5116  134.3818  159.9364 H   0  0  0  0  0  0  0  0  0  0  0  0  # atno 6908 bound_to 6896
  151.3835  133.3773  159.2747 H   0  0  0  0  0  0  0  0  0  0  0  0  # atno 6909 bound_to 6896
  145.4473  139.2296  143.3059 H   0  0  0  0  0  0  0  0  0  0  0  0  # atno 7974 bound_to 7965
  154.4666  140.0935  156.7036 H   0  0  0  0  0  0  0  0  0  0  0  0  # atno 8008 bound_to 7997
  155.4841  140.3468  155.4326 H   0  0  0  0  0  0  0  0  0  0  0  0  # atno 8009 bound_to 7997
  156.0966  140.1411  156.9511 H   0  0  0  0  0  0  0  0  0  0  0  0  # atno 8010 bound_to 7997
  139.7121  143.9093  152.2472 H   0  0  0  0  0  0  0  0  0  0  0  0  # atno 10167 bound_to 10162
  156.0232  130.4423  150.2934 H   0  0  0  0  0  0  0  0  0  0  0  0  # atno 10718 bound_to 10713
  154.0234  135.6666  153.4774 H   0  0  0  0  0  0  0  0  0  0  0  0  # atno 10763 bound_to 10752
  153.0571  135.5050  154.8002 H   0  0  0  0  0  0  0  0  0  0  0  0  # atno 10764 bound_to 10752
  154.6923  135.3063  154.9426 H   0  0  0  0  0  0  0  0  0  0  0  0  # atno 10765 bound_to 10752
  140.1413  134.4579  155.8447 H   0  0  0  0  0  0  0  0  0  0  0  0  # atno 11005 bound_to 11000
  146.2524  140.5228  142.8888 LP  0  0  0  0  0  0  0  0  0  0  0  0  # atno 17320 bound_to 7965
  144.8084  140.6341  143.6432 LP  0  0  0  0  0  0  0  0  0  0  0  0  # atno 17321 bound_to 7965
  139.8964  144.6936  150.8713 LP  0  0  0  0  0  0  0  0  0  0  0  0  # atno 17342 bound_to 10162
  140.7735  143.3546  151.1946 LP  0  0  0  0  0  0  0  0  0  0  0  0  # atno 17343 bound_to 10162
  157.1038  131.0203  151.3075 LP  0  0  0  0  0  0  0  0  0  0  0  0  # atno 17370 bound_to 10713
  157.4759  130.7736  149.7367 LP  0  0  0  0  0  0  0  0  0  0  0  0  # atno 17371 bound_to 10713
  141.2186  133.6834  156.7252 LP  0  0  0  0  0  0  0  0  0  0  0  0  # atno 17394 bound_to 11000
  140.2718  134.8386  157.3854 LP  0  0  0  0  0  0  0  0  0  0  0  0  # atno 17395 bound_to 11000

$$$$
