AV-unprocessed.smi:2510|AV-procd|sdf|9879|dock2
  -GOLD-   2272013513D 1   1.00000     0.00000
 Structure written by MMmdl.
 48 49  0  0  0  0  0  0  0  0  1 V2000
  152.0114  145.0985  159.4958 C   0  0  0  0  0  0  0  0  0  0  0  0
  151.5187  144.5558  158.1469 C   0  0  0  0  0  0  0  0  0  0  0  0
  150.7666  143.2075  158.2031 C   0  0  0  0  0  0  0  0  0  0  0  0
  149.2839  143.5002  158.5961 C   0  0  0  0  0  0  0  0  0  0  0  0
  149.0686  144.4442  159.7918 C   0  0  0  0  0  0  0  0  0  0  0  0
  150.9886  142.3154  156.9461 C   0  0  2  0  0  0  0  0  0  0  0  0
  149.8993  142.3306  155.9777 N   0  0  0  0  0  0  0  0  0  0  0  0
  149.7288  141.4161  155.0112 C   0  0  0  0  0  0  0  0  0  0  0  0
  150.3995  140.3881  154.9220 O   0  0  0  0  0  0  0  0  0  0  0  0
  148.6599  141.7295  153.9645 C   0  0  0  0  0  0  0  0  0  0  0  0
  147.4116  142.2189  154.6286 C   0  0  0  0  0  0  0  0  0  0  0  0
  146.2514  142.7231  154.1101 C   0  0  0  0  0  0  0  0  0  0  0  0
  145.4643  143.0456  155.2540 C   0  0  0  0  0  0  0  0  0  0  0  0
  144.0923  143.6509  155.2929 C   0  0  0  0  0  0  0  0  0  0  0  0
  146.0810  142.7563  156.3902 N   0  0  0  0  0  0  0  0  0  0  0  0
  147.2643  142.2502  155.9971 N   0  0  0  0  0  0  0  0  0  0  0  0
  150.9639  141.0848  157.8591 C   0  0  1  0  0  0  0  0  0  0  0  0
  151.7524  139.8397  157.4737 C   0  0  0  0  0  0  0  0  0  0  0  0
  151.4742  142.0407  158.9551 C   0  0  1  0  0  0  0  0  0  0  0  0
  152.8917  142.1847  158.9396 O   0  0  0  0  0  0  0  0  0  0  0  0
  153.5419  141.4305  159.9483 C   0  0  0  0  0  0  0  0  0  0  0  0
  147.9552  141.9404  156.6656 H   0  0  0  0  0  0  0  0  0  0  0  0
  152.6787  145.9471  159.3435 H   0  0  0  0  0  0  0  0  0  0  0  0
  152.5626  144.3430  160.0562 H   0  0  0  0  0  0  0  0  0  0  0  0
  151.1856  145.4519  160.1116 H   0  0  0  0  0  0  0  0  0  0  0  0
  150.9031  145.3149  157.6631 H   0  0  0  0  0  0  0  0  0  0  0  0
  152.3897  144.4599  157.4977 H   0  0  0  0  0  0  0  0  0  0  0  0
  148.7373  143.8988  157.7406 H   0  0  0  0  0  0  0  0  0  0  0  0
  148.7534  142.5823  158.8469 H   0  0  0  0  0  0  0  0  0  0  0  0
  148.0150  144.7112  159.8777 H   0  0  0  0  0  0  0  0  0  0  0  0
  149.6344  145.3695  159.7071 H   0  0  0  0  0  0  0  0  0  0  0  0
  149.3496  143.9666  160.7301 H   0  0  0  0  0  0  0  0  0  0  0  0
  151.9731  142.4543  156.4919 H   0  0  0  0  0  0  0  0  0  0  0  0
  149.2955  143.1396  155.9806 H   0  0  0  0  0  0  0  0  0  0  0  0
  149.0339  142.4858  153.2732 H   0  0  0  0  0  0  0  0  0  0  0  0
  148.4580  140.8344  153.3747 H   0  0  0  0  0  0  0  0  0  0  0  0
  146.0074  142.8561  153.0664 H   0  0  0  0  0  0  0  0  0  0  0  0
  143.6554  143.6998  154.2951 H   0  0  0  0  0  0  0  0  0  0  0  0
  144.1242  144.6654  155.6911 H   0  0  0  0  0  0  0  0  0  0  0  0
  143.4195  143.0655  155.9205 H   0  0  0  0  0  0  0  0  0  0  0  0
  149.9317  140.8116  158.0897 H   0  0  0  0  0  0  0  0  0  0  0  0
  152.7855  140.0803  157.2216 H   0  0  0  0  0  0  0  0  0  0  0  0
  151.3104  139.3496  156.6063 H   0  0  0  0  0  0  0  0  0  0  0  0
  151.7684  139.1152  158.2877 H   0  0  0  0  0  0  0  0  0  0  0  0
  151.0824  141.8353  159.9509 H   0  0  0  0  0  0  0  0  0  0  0  0
  154.6210  141.5511  159.8560 H   0  0  0  0  0  0  0  0  0  0  0  0
  153.3134  140.3677  159.8679 H   0  0  0  0  0  0  0  0  0  0  0  0
  153.2498  141.7752  160.9410 H   0  0  0  0  0  0  0  0  0  0  0  0
  1  2  1  0  0  0  0
  1 23  1  0  0  0  0
  1 24  1  0  0  0  0
  1 25  1  0  0  0  0
  2  3  1  0  0  0  0
  2 26  1  0  0  0  0
  2 27  1  0  0  0  0
  3 19  1  0  0  0  0
  3  4  1  0  0  0  0
  3  6  1  0  0  0  0
  4  5  1  0  0  0  0
  4 28  1  0  0  0  0
  4 29  1  0  0  0  0
  5 30  1  0  0  0  0
  5 31  1  0  0  0  0
  5 32  1  0  0  0  0
  6  7  1  0  0  0  0
  6 17  1  0  0  0  0
  6 33  1  0  0  0  0
  7  8  1  0  0  0  0
  7 34  1  0  0  0  0
  8  9  2  0  0  0  0
  8 10  1  0  0  0  0
 10 35  1  0  0  0  0
 10 36  1  0  0  0  0
 10 11  1  0  0  0  0
 11 16  1  0  0  0  0
 11 12  2  0  0  0  0
 12 13  1  0  0  0  0
 12 37  1  0  0  0  0
 13 14  1  0  0  0  0
 13 15  2  0  0  0  0
 14 38  1  0  0  0  0
 14 39  1  0  0  0  0
 14 40  1  0  0  0  0
 15 16  1  0  0  0  0
 16 22  1  0  0  0  0
 17 18  1  0  0  0  0
 17 19  1  0  0  0  0
 17 41  1  0  0  0  0
 18 42  1  0  0  0  0
 18 43  1  0  0  0  0
 18 44  1  0  0  0  0
 19 20  1  0  0  0  0
 19 45  1  0  0  0  0
 20 21  1  0  0  0  0
 21 46  1  0  0  0  0
 21 47  1  0  0  0  0
 21 48  1  0  0  0  0
M  END
> <s_m_source_file>
AV-unprocessed.smi

> <i_m_source_file_index>
2510

> <i_lp_mmshare_version>
43012

> <i_f3d_flags>
0

> <s_epik_input>
W0NIM11PW0NAQEhdMVtDQEhdKFtDSDNdKVtDQEBIXShDMShbQ0gyXVtDSDNdKVtDSDJdW0NIM10pW05IXUMoPU8pW0NIMl1jMltjSF1jKFtDSDNdKVtuSF1uMg==

> <s_epik_cmdline>
J2VwaWtfcHl0aG9uJywgJy1waCcsICc3LjAnLCAnLXRuJywgJzgnLCAnLW1hJywgJzIwMCcsICctbWV0YWxfYmluZGluZycsICctaW1hZScsICc8aW5maWxlLm1hZT4nLCAnLW9tYWUnLCAnPG91dGZpbGUubWFlPic=

> <r_lp_tautomer_probability>
0.5

> <r_epik_Ionization_Penalty>
0.000134763

> <r_epik_Ionization_Penalty_Charging>
0

> <r_epik_Ionization_Penalty_Neutral>
0.000134763

> <r_epik_State_Penalty>
0.41068

> <r_epik_Charging_Adjusted_Penalty>
0.41068

> <i_epik_Tot_Q>
0

> <i_epik_Tot_abs_Q>
0

> <r_epik_Metal_State_Penalty>
0.410661

> <b_epik_Metal_Only>
0

> <s_lp_Force_Field>
OPLS_2005

> <r_lp_Energy>
26.7648

> <b_lp_Chiralities_Consistent>
1

> <s_lp_Variant>
AV-unprocessed.smi:2510-10

> <Gold.Version>
5.8.1

> <Gold.Id.Protein>
6NUR|6NUR_protein|mol2

> <Gold.PLP.Fitness>
46.8813

> <Gold.PLP.PLP>
-42.7411

> <Gold.PLP.part.hbond>
-3.0000

> <Gold.PLP.part.metal>
0.0000

> <Gold.PLP.part.buried>
-0.2720

> <Gold.PLP.part.nonpolar>
-38.4982

> <Gold.PLP.part.repulsive>
0.3657

> <Gold.PLP.ligand.clash>
0.0000

> <Gold.PLP.ligand.torsion>
1.2755

> <Gold.PLP.Chemscore.Hbond>
2.0000

> <Gold.PLP.Chemscore.CHOScore>
0.0000

> <Gold.PLP.Chemscore.Metal>
0.0000

> <Gold.Chemscore.Hbonds>
donor molecule, donor type, donor heavy atom, donor atom, acceptor molecule, acceptor atom, score
      L1  H     7    34       P1  8028  1.00
      P1  H  7989  7998       L1     9  1.00

> <Gold.PLP.Chemscore.Internal.Correction>
0.6913

> <Gold.Rescore>
     Score         DG    S(hbond)    S(metal)    S(lipo)     H(rot)  DE(clash)    DE(int)     intcor
     10.50     -16.48       1.00        0.00     105.07       1.81       0.22       5.76       ----

> <Gold.Chemscore.Fitness>
10.4998

> <Gold.Chemscore.DG>
-16.4785

> <Gold.Chemscore.ZeroCoef>
-5.4800

> <Gold.Chemscore.Hbond>
1.0000

> <Gold.Chemscore.Metal>
0.0000

> <Gold.Chemscore.Lipo>
105.0654

> <Gold.Chemscore.Internal_Hbond>
0.0000

> <Gold.Chemscore.DEClash>
0.2210

> <Gold.Chemscore.DEInternal>
5.7578

> <Gold.Chemscore.Rot>
1.8102

> <Gold.Chemscore.Internal.Correction>
   9.000000E+99

> <Gold.Chemscore.Hbonds>
donor molecule, donor type, donor heavy atom, donor atom, acceptor molecule, acceptor atom, score
      L1  H     7    34       P1  8028  0.98
      P1  H  7989  7998       L1     9  0.25

> <Gold.Chemscore.Hbond.Weighted>
-3.3399

> <Gold.Chemscore.Metal.Weighted>
-0.0000

> <Gold.Chemscore.Lipo.Weighted>
-12.2926

> <Gold.Chemscore.Internal_Hbond.Weighted>
0.0000

> <Gold.Chemscore.DEClash.Weighted>
0.2210

> <Gold.Chemscore.DEInternal.Weighted>
5.7578

> <Gold.Chemscore.Rot.Weighted>
4.6341

> <Gold.Chemscore.Internal.Correction.Weighted>
   9.000000E+99

> <Gold.Protein.RotatedTorsions>
[ 6907 6896 6895 6894 ] final   71.45 input  -60.11 | X-H torsion
[ 7974 7965 7964 7962 ] final -112.89 input  175.53 | X-H torsion
[ 8008 7997 7996 7995 ] final   37.89 input   59.86 | X-H torsion
[ 10167 10162 10161 10158 ] final  -16.42 input  -65.29 | X-H torsion
[ 10718 10713 10712 10709 ] final  -45.02 input   66.30 | X-H torsion
[ 10763 10752 10751 10750 ] final -159.95 input  -60.55 | X-H torsion
[ 11005 11000 10999 10996 ] final  -94.12 input  -57.11 | X-H torsion

> <Gold.Protein.ActiveResidues>
 VAL166  LYS551  ARG553  GLY616  TRP617  ASP618  TYR619  PRO620  LYS621  CYS622 
 ASP623  PHE694  ASN695  SER759  ASP760  ASP761  ALA762  ILE779  LEU786  VAL792 
 PHE793  MET794  SER795  GLU796  ALA797  LYS798  CYS799  TRP800  GLU811  SER814 

> <Gold.Protein.RotatedAtoms>
  152.4811  134.4718  159.9637 H   0  0  0  0  0  0  0  0  0  0  0  0  # atno 6907 bound_to 6896
  151.4724  133.3560  159.2833 H   0  0  0  0  0  0  0  0  0  0  0  0  # atno 6908 bound_to 6896
  150.8884  134.8310  159.7336 H   0  0  0  0  0  0  0  0  0  0  0  0  # atno 6909 bound_to 6896
  145.1386  140.8765  143.3715 H   0  0  0  0  0  0  0  0  0  0  0  0  # atno 7974 bound_to 7965
  155.2111  140.3323  155.4328 H   0  0  0  0  0  0  0  0  0  0  0  0  # atno 8008 bound_to 7997
  156.2370  140.1877  156.7141 H   0  0  0  0  0  0  0  0  0  0  0  0  # atno 8009 bound_to 7997
  154.6077  140.0613  156.9438 H   0  0  0  0  0  0  0  0  0  0  0  0  # atno 8010 bound_to 7997
  140.7233  143.5118  150.9741 H   0  0  0  0  0  0  0  0  0  0  0  0  # atno 10167 bound_to 10162
  156.2325  130.4173  149.8857 H   0  0  0  0  0  0  0  0  0  0  0  0  # atno 10718 bound_to 10713
  154.7431  135.3073  154.8692 H   0  0  0  0  0  0  0  0  0  0  0  0  # atno 10763 bound_to 10752
  153.9501  135.6765  153.4748 H   0  0  0  0  0  0  0  0  0  0  0  0  # atno 10764 bound_to 10752
  153.1029  135.4903  154.8825 H   0  0  0  0  0  0  0  0  0  0  0  0  # atno 10765 bound_to 10752
  141.1479  133.7934  157.0254 H   0  0  0  0  0  0  0  0  0  0  0  0  # atno 11005 bound_to 11000
  145.0557  139.3146  143.5906 LP  0  0  0  0  0  0  0  0  0  0  0  0  # atno 17320 bound_to 7965
  146.3507  139.9981  142.8679 LP  0  0  0  0  0  0  0  0  0  0  0  0  # atno 17321 bound_to 7965
  139.8832  143.7046  152.3154 LP  0  0  0  0  0  0  0  0  0  0  0  0  # atno 17342 bound_to 10162
  139.7336  144.7576  151.0763 LP  0  0  0  0  0  0  0  0  0  0  0  0  # atno 17343 bound_to 10162
  156.6466  130.8726  151.3524 LP  0  0  0  0  0  0  0  0  0  0  0  0  # atno 17370 bound_to 10713
  157.7140  130.9474  150.1187 LP  0  0  0  0  0  0  0  0  0  0  0  0  # atno 17371 bound_to 10713
  140.0788  134.9660  157.1590 LP  0  0  0  0  0  0  0  0  0  0  0  0  # atno 17394 bound_to 11000
  140.3605  134.2499  155.7187 LP  0  0  0  0  0  0  0  0  0  0  0  0  # atno 17395 bound_to 11000

$$$$
