AV-unprocessed.smi:3292|AV-procd|sdf|12625|dock10
  -GOLD-   2272018563D 1   1.00000     0.00000
 Structure written by MMmdl.
 38 39  0  0  0  0  0  0  0  0  1 V2000
  147.7926  131.8193  153.8184 C   0  0  0  0  0  0  0  0  0  0  0  0
  147.0024  133.1065  153.5467 C   0  0  2  0  0  0  0  0  0  0  0  0
  146.3142  133.0617  152.1659 C   0  0  0  0  0  0  0  0  0  0  0  0
  145.4491  134.2036  151.9313 N   0  0  0  0  0  0  0  0  0  0  0  0
  145.7535  135.3530  151.2137 C   0  0  0  0  0  0  0  0  0  0  0  0
  144.6323  136.1504  151.2544 C   0  0  0  0  0  0  0  0  0  0  0  0
  143.6353  135.5203  151.9955 N   0  0  0  0  0  0  0  0  0  0  0  0
  144.1926  134.3744  152.3649 C   0  0  0  0  0  0  0  0  0  0  0  0
  147.9100  134.2497  153.6411 N   0  0  0  0  0  0  0  0  0  0  0  0
  148.4872  134.6964  154.7662 C   0  0  0  0  0  0  0  0  0  0  0  0
  148.3297  134.1840  155.8745 O   0  0  0  0  0  0  0  0  0  0  0  0
  149.2426  135.7802  154.5402 N   0  0  0  0  0  0  0  0  0  0  0  0
  149.9659  136.5305  155.5622 C   0  0  0  0  0  0  0  0  0  0  0  0
  150.9608  137.5280  154.9400 C   0  0  2  0  0  0  0  0  0  0  0  0
  151.8711  138.1958  155.9498 C   0  0  0  0  0  0  0  0  0  0  0  0
  152.3854  139.3968  155.1626 C   0  0  0  0  0  0  0  0  0  0  0  0
  151.3274  139.7651  154.2829 O   0  0  0  0  0  0  0  0  0  0  0  0
  150.3295  138.7485  154.2655 C   0  0  0  0  0  0  0  0  0  0  0  0
  147.1409  130.9458  153.7877 H   0  0  0  0  0  0  0  0  0  0  0  0
  148.2597  131.8453  154.8036 H   0  0  0  0  0  0  0  0  0  0  0  0
  148.5807  131.6720  153.0791 H   0  0  0  0  0  0  0  0  0  0  0  0
  146.2339  133.1790  154.3187 H   0  0  0  0  0  0  0  0  0  0  0  0
  147.0569  133.0101  151.3682 H   0  0  0  0  0  0  0  0  0  0  0  0
  145.7037  132.1620  152.0810 H   0  0  0  0  0  0  0  0  0  0  0  0
  146.7130  135.5004  150.7403 H   0  0  0  0  0  0  0  0  0  0  0  0
  144.4681  137.1222  150.8126 H   0  0  0  0  0  0  0  0  0  0  0  0
  143.6708  133.6382  152.9588 H   0  0  0  0  0  0  0  0  0  0  0  0
  148.1031  134.7448  152.7828 H   0  0  0  0  0  0  0  0  0  0  0  0
  149.3083  136.1244  153.5936 H   0  0  0  0  0  0  0  0  0  0  0  0
  149.2745  137.0442  156.2326 H   0  0  0  0  0  0  0  0  0  0  0  0
  150.5085  135.8134  156.1784 H   0  0  0  0  0  0  0  0  0  0  0  0
  151.5823  137.0087  154.2083 H   0  0  0  0  0  0  0  0  0  0  0  0
  151.2984  138.5341  156.8149 H   0  0  0  0  0  0  0  0  0  0  0  0
  152.6720  137.5455  156.3029 H   0  0  0  0  0  0  0  0  0  0  0  0
  152.6752  140.2259  155.8084 H   0  0  0  0  0  0  0  0  0  0  0  0
  153.2522  139.1152  154.5633 H   0  0  0  0  0  0  0  0  0  0  0  0
  150.0006  138.5360  153.2484 H   0  0  0  0  0  0  0  0  0  0  0  0
  149.4678  139.1043  154.8321 H   0  0  0  0  0  0  0  0  0  0  0  0
  1  2  1  0  0  0  0
  1 19  1  0  0  0  0
  1 20  1  0  0  0  0
  1 21  1  0  0  0  0
  2  3  1  0  0  0  0
  2  9  1  0  0  0  0
  2 22  1  0  0  0  0
  3  4  1  0  0  0  0
  3 23  1  0  0  0  0
  3 24  1  0  0  0  0
  4  8  1  0  0  0  0
  4  5  1  0  0  0  0
  5  6  2  0  0  0  0
  5 25  1  0  0  0  0
  6  7  1  0  0  0  0
  6 26  1  0  0  0  0
  7  8  2  0  0  0  0
  8 27  1  0  0  0  0
  9 10  1  0  0  0  0
  9 28  1  0  0  0  0
 10 11  2  0  0  0  0
 10 12  1  0  0  0  0
 12 13  1  0  0  0  0
 12 29  1  0  0  0  0
 13 14  1  0  0  0  0
 13 30  1  0  0  0  0
 13 31  1  0  0  0  0
 14 18  1  0  0  0  0
 14 15  1  0  0  0  0
 14 32  1  0  0  0  0
 15 16  1  0  0  0  0
 15 33  1  0  0  0  0
 15 34  1  0  0  0  0
 16 17  1  0  0  0  0
 16 35  1  0  0  0  0
 16 36  1  0  0  0  0
 17 18  1  0  0  0  0
 18 37  1  0  0  0  0
 18 38  1  0  0  0  0
M  END
> <s_m_source_file>
AV-unprocessed.smi

> <i_m_source_file_index>
3292

> <i_lp_mmshare_version>
43012

> <i_f3d_flags>
0

> <s_epik_input>
W2NIXTFuW2NIXVtjSF1uMVtDSDJdW0NAQEhdKFtDSDNdKVtOSF1DKD1PKVtOSF1bQ0gyXVtDQEBIXTJbQ0gyXVtDSDJdT1tDSDJdMg==

> <s_epik_cmdline>
J2VwaWtfcHl0aG9uJywgJy1waCcsICc3LjAnLCAnLXRuJywgJzgnLCAnLW1hJywgJzIwMCcsICctbWV0YWxfYmluZGluZycsICctaW1hZScsICc8aW5maWxlLm1hZT4nLCAnLW9tYWUnLCAnPG91dGZpbGUubWFlPic=

> <r_lp_tautomer_probability>
1

> <r_epik_Ionization_Penalty>
0.621291

> <r_epik_Ionization_Penalty_Charging>
0.621234

> <r_epik_Ionization_Penalty_Neutral>
5.72199e-05

> <r_epik_State_Penalty>
0.637278

> <r_epik_Charging_Adjusted_Penalty>
1.25851

> <i_epik_Tot_Q>
0

> <i_epik_Tot_abs_Q>
0

> <r_epik_Metal_State_Penalty>
0.306757

> <b_epik_Metal_Only>
0

> <s_lp_Force_Field>
OPLS_2005

> <r_lp_Energy>
18.0177

> <b_lp_Chiralities_Consistent>
1

> <s_lp_Variant>
AV-unprocessed.smi:3292-5

> <Gold.Version>
5.8.1

> <Gold.Id.Protein>
6NUR|6NUR_protein|mol2

> <Gold.PLP.Fitness>
47.4678

> <Gold.PLP.PLP>
-30.4890

> <Gold.PLP.part.hbond>
-3.0000

> <Gold.PLP.part.metal>
0.0000

> <Gold.PLP.part.buried>
-4.2674

> <Gold.PLP.part.nonpolar>
-24.5925

> <Gold.PLP.part.repulsive>
0.2844

> <Gold.PLP.ligand.clash>
0.0000

> <Gold.PLP.ligand.torsion>
0.5308

> <Gold.PLP.Chemscore.Hbond>
3.0000

> <Gold.PLP.Chemscore.CHOScore>
2.9973

> <Gold.PLP.Chemscore.Metal>
0.0000

> <Gold.Chemscore.Hbonds>
donor molecule, donor type, donor heavy atom, donor atom, acceptor molecule, acceptor atom, score
      L1  H     9    28       P1  7948  1.00
      L1  H    12    29       P1  7948  1.00
      P1  H  7989  7998       L1    17  0.63
      L1  C     5    25       P1  7948  0.93
      L1  C     6    26       P1 10171  0.59
      L1  C     8    27       P1 10957  0.34

> <Gold.PLP.Chemscore.Internal.Correction>
0.0487

> <Gold.Rescore>
     Score         DG    S(hbond)    S(metal)    S(lipo)     H(rot)  DE(clash)    DE(int)     intcor
     15.03     -15.37       2.71        0.00      54.30       2.16       0.00       0.33       ----

> <Gold.Chemscore.Fitness>
15.0316

> <Gold.Chemscore.DG>
-15.3655

> <Gold.Chemscore.ZeroCoef>
-5.4800

> <Gold.Chemscore.Hbond>
2.7115

> <Gold.Chemscore.Metal>
0.0000

> <Gold.Chemscore.Lipo>
54.2982

> <Gold.Chemscore.Internal_Hbond>
0.0000

> <Gold.Chemscore.DEClash>
0.0029

> <Gold.Chemscore.DEInternal>
0.3309

> <Gold.Chemscore.Rot>
2.1577

> <Gold.Chemscore.Internal.Correction>
   9.000000E+99

> <Gold.Chemscore.Hbonds>
donor molecule, donor type, donor heavy atom, donor atom, acceptor molecule, acceptor atom, score
      L1  H     9    28       P1  7948  0.70
      L1  H    12    29       P1  7948  0.78
      P1  H  7989  7998       L1    17  0.53

> <Gold.Chemscore.Hbond.Weighted>
-9.0563

> <Gold.Chemscore.Metal.Weighted>
-0.0000

> <Gold.Chemscore.Lipo.Weighted>
-6.3529

> <Gold.Chemscore.Internal_Hbond.Weighted>
0.0000

> <Gold.Chemscore.DEClash.Weighted>
0.0029

> <Gold.Chemscore.DEInternal.Weighted>
0.3309

> <Gold.Chemscore.Rot.Weighted>
5.5237

> <Gold.Chemscore.Internal.Correction.Weighted>
   9.000000E+99

> <Gold.Protein.RotatedTorsions>
[ 6907 6896 6895 6894 ] final  159.52 input  -60.11 | X-H torsion
[ 7974 7965 7964 7962 ] final  107.76 input  175.53 | X-H torsion
[ 8008 7997 7996 7995 ] final  -44.24 input   59.86 | X-H torsion
[ 10167 10162 10161 10158 ] final -172.89 input  -65.29 | X-H torsion
[ 10718 10713 10712 10709 ] final    0.61 input   66.30 | X-H torsion
[ 10763 10752 10751 10750 ] final   68.25 input  -60.55 | X-H torsion
[ 11005 11000 10999 10996 ] final  100.91 input  -57.11 | X-H torsion

> <Gold.Protein.ActiveResidues>
 VAL166  LYS551  ARG553  GLY616  TRP617  ASP618  TYR619  PRO620  LYS621  CYS622 
 ASP623  PHE694  ASN695  SER759  ASP760  ASP761  ALA762  ILE779  LEU786  VAL792 
 PHE793  MET794  SER795  GLU796  ALA797  LYS798  CYS799  TRP800  GLU811  SER814 

> <Gold.Protein.RotatedAtoms>
  151.9843  133.3768  159.4119 H   0  0  0  0  0  0  0  0  0  0  0  0  # atno 6907 bound_to 6896
  150.6930  134.4005  159.5126 H   0  0  0  0  0  0  0  0  0  0  0  0  # atno 6908 bound_to 6896
  152.1728  134.8819  160.0583 H   0  0  0  0  0  0  0  0  0  0  0  0  # atno 6909 bound_to 6896
  145.2895  139.2605  143.3872 H   0  0  0  0  0  0  0  0  0  0  0  0  # atno 7974 bound_to 7965
  154.3997  140.1427  156.3651 H   0  0  0  0  0  0  0  0  0  0  0  0  # atno 8008 bound_to 7997
  155.8145  140.3471  155.5456 H   0  0  0  0  0  0  0  0  0  0  0  0  # atno 8009 bound_to 7997
  155.8352  140.0918  157.1758 H   0  0  0  0  0  0  0  0  0  0  0  0  # atno 8010 bound_to 7997
  139.5719  144.1622  152.1396 H   0  0  0  0  0  0  0  0  0  0  0  0  # atno 10167 bound_to 10162
  156.8359  130.5504  149.5682 H   0  0  0  0  0  0  0  0  0  0  0  0  # atno 10718 bound_to 10713
  153.0226  135.5254  154.7106 H   0  0  0  0  0  0  0  0  0  0  0  0  # atno 10763 bound_to 10752
  154.6189  135.2886  155.0350 H   0  0  0  0  0  0  0  0  0  0  0  0  # atno 10764 bound_to 10752
  154.1344  135.6588  153.4981 H   0  0  0  0  0  0  0  0  0  0  0  0  # atno 10765 bound_to 10752
  139.8772  134.9161  156.4828 H   0  0  0  0  0  0  0  0  0  0  0  0  # atno 11005 bound_to 11000
  146.3190  140.3382  142.8646 LP  0  0  0  0  0  0  0  0  0  0  0  0  # atno 17320 bound_to 7965
  144.9185  140.7840  143.5763 LP  0  0  0  0  0  0  0  0  0  0  0  0  # atno 17321 bound_to 7965
  140.1157  144.5418  150.6896 LP  0  0  0  0  0  0  0  0  0  0  0  0  # atno 17342 bound_to 10162
  140.7003  143.2430  151.4883 LP  0  0  0  0  0  0  0  0  0  0  0  0  # atno 17343 bound_to 10162
  156.0908  130.5894  150.9729 LP  0  0  0  0  0  0  0  0  0  0  0  0  # atno 17370 bound_to 10713
  157.6382  131.0913  150.8306 LP  0  0  0  0  0  0  0  0  0  0  0  0  # atno 17371 bound_to 10713
  140.8715  133.7985  155.9369 LP  0  0  0  0  0  0  0  0  0  0  0  0  # atno 17394 bound_to 11000
  140.8948  134.2451  157.5075 LP  0  0  0  0  0  0  0  0  0  0  0  0  # atno 17395 bound_to 11000

$$$$
