AV-unprocessed.smi:460|AV-procd|sdf|2626|dock9
  -GOLD-   2262023 33D 1   1.00000     0.00000
 Structure written by MMmdl.
 46 48  0  0  0  0  0  0  0  0  1 V2000
  145.5755  142.7038  154.4362 C   0  0  0  0  0  0  0  0  0  0  0  0
  146.6054  141.6310  154.8155 C   0  0  0  0  0  0  0  0  0  0  0  0
  147.3563  141.0464  153.6038 C   0  0  2  0  0  0  0  0  0  0  0  0
  146.5148  140.1230  152.9413 O   0  0  0  0  0  0  0  0  0  0  0  0
  148.6636  140.4193  154.0102 C   0  0  0  0  0  0  0  0  0  0  0  0
  148.9986  139.1880  153.6172 N   0  0  0  0  0  0  0  0  0  0  0  0
  150.2293  138.9983  154.2117 C   0  0  0  0  0  0  0  0  0  0  0  0
  151.1028  137.8878  154.1770 C   0  0  0  0  0  0  0  0  0  0  0  0
  152.3271  137.9206  154.8759 C   0  0  0  0  0  0  0  0  0  0  0  0
  152.6936  139.0614  155.6188 C   0  0  0  0  0  0  0  0  0  0  0  0
  151.8374  140.1785  155.6663 C   0  0  0  0  0  0  0  0  0  0  0  0
  150.6166  140.1419  154.9648 C   0  0  0  0  0  0  0  0  0  0  0  0
  149.5715  141.0479  154.8038 N   0  0  0  0  0  0  0  0  0  0  0  0
  149.5069  142.3824  155.3830 C   0  0  0  0  0  0  0  0  0  0  0  0
  149.3007  142.3409  156.9021 C   0  0  0  0  0  0  0  0  0  0  0  0
  150.4367  141.7292  157.4954 O   0  0  0  0  0  0  0  0  0  0  0  0
  151.1296  142.4272  158.4634 C   0  0  0  0  0  0  0  0  0  0  0  0
  150.9099  143.7985  158.7517 C   0  0  0  0  0  0  0  0  0  0  0  0
  151.6544  144.4462  159.7540 C   0  0  0  0  0  0  0  0  0  0  0  0
  152.6247  143.7340  160.4784 C   0  0  0  0  0  0  0  0  0  0  0  0
  152.8515  142.3739  160.2008 C   0  0  0  0  0  0  0  0  0  0  0  0
  152.1067  141.7101  159.1929 C   0  0  0  0  0  0  0  0  0  0  0  0
  152.2762  140.3790  158.8703 O   0  0  0  0  0  0  0  0  0  0  0  0
  153.2734  139.6401  159.5605 C   0  0  0  0  0  0  0  0  0  0  0  0
  145.0976  143.1122  155.3269 H   0  0  0  0  0  0  0  0  0  0  0  0
  144.7912  142.2958  153.7983 H   0  0  0  0  0  0  0  0  0  0  0  0
  146.0466  143.5307  153.9039 H   0  0  0  0  0  0  0  0  0  0  0  0
  147.3253  142.0860  155.4968 H   0  0  0  0  0  0  0  0  0  0  0  0
  146.1224  140.8322  155.3801 H   0  0  0  0  0  0  0  0  0  0  0  0
  147.5420  141.8496  152.8938 H   0  0  0  0  0  0  0  0  0  0  0  0
  145.6598  140.5131  152.8452 H   0  0  0  0  0  0  0  0  0  0  0  0
  150.8299  137.0093  153.6111 H   0  0  0  0  0  0  0  0  0  0  0  0
  152.9878  137.0668  154.8419 H   0  0  0  0  0  0  0  0  0  0  0  0
  153.6333  139.0787  156.1515 H   0  0  0  0  0  0  0  0  0  0  0  0
  152.1183  141.0519  156.2356 H   0  0  0  0  0  0  0  0  0  0  0  0
  150.4341  142.9083  155.1540 H   0  0  0  0  0  0  0  0  0  0  0  0
  148.7166  142.9519  154.8943 H   0  0  0  0  0  0  0  0  0  0  0  0
  149.1780  143.3521  157.2900 H   0  0  0  0  0  0  0  0  0  0  0  0
  148.4000  141.7711  157.1368 H   0  0  0  0  0  0  0  0  0  0  0  0
  150.1734  144.3791  158.2176 H   0  0  0  0  0  0  0  0  0  0  0  0
  151.4799  145.4906  159.9672 H   0  0  0  0  0  0  0  0  0  0  0  0
  153.1964  144.2310  161.2485 H   0  0  0  0  0  0  0  0  0  0  0  0
  153.6051  141.8607  160.7782 H   0  0  0  0  0  0  0  0  0  0  0  0
  153.2756  138.6126  159.1972 H   0  0  0  0  0  0  0  0  0  0  0  0
  153.0774  139.6090  160.6330 H   0  0  0  0  0  0  0  0  0  0  0  0
  154.2676  140.0532  159.3856 H   0  0  0  0  0  0  0  0  0  0  0  0
  1  2  1  0  0  0  0
  1 25  1  0  0  0  0
  1 26  1  0  0  0  0
  1 27  1  0  0  0  0
  2  3  1  0  0  0  0
  2 28  1  0  0  0  0
  2 29  1  0  0  0  0
  3  4  1  0  0  0  0
  3  5  1  0  0  0  0
  3 30  1  0  0  0  0
  4 31  1  0  0  0  0
  5 13  1  0  0  0  0
  5  6  2  0  0  0  0
  6  7  1  0  0  0  0
  7 12  2  0  0  0  0
  7  8  1  0  0  0  0
  8  9  2  0  0  0  0
  8 32  1  0  0  0  0
  9 10  1  0  0  0  0
  9 33  1  0  0  0  0
 10 11  2  0  0  0  0
 10 34  1  0  0  0  0
 11 12  1  0  0  0  0
 11 35  1  0  0  0  0
 12 13  1  0  0  0  0
 13 14  1  0  0  0  0
 14 15  1  0  0  0  0
 14 36  1  0  0  0  0
 14 37  1  0  0  0  0
 15 16  1  0  0  0  0
 15 38  1  0  0  0  0
 15 39  1  0  0  0  0
 16 17  1  0  0  0  0
 17 22  1  0  0  0  0
 17 18  2  0  0  0  0
 18 19  1  0  0  0  0
 18 40  1  0  0  0  0
 19 20  2  0  0  0  0
 19 41  1  0  0  0  0
 20 21  1  0  0  0  0
 20 42  1  0  0  0  0
 21 22  2  0  0  0  0
 21 43  1  0  0  0  0
 22 23  1  0  0  0  0
 23 24  1  0  0  0  0
 24 44  1  0  0  0  0
 24 45  1  0  0  0  0
 24 46  1  0  0  0  0
M  END
> <s_m_source_file>
AV-unprocessed.smi

> <i_m_source_file_index>
460

> <i_lp_mmshare_version>
43012

> <i_f3d_flags>
0

> <s_epik_input>
W2NIXTFbY0hdW2NIXVtjSF1jKGMxMiluKGMobjIpW0NAQEhdKFtPSF0pW0NIMl1bQ0gzXSlbQ0gyXVtDSDJdT2MzW2NIXVtjSF1bY0hdW2NIXWMzT1tDSDNd

> <s_epik_cmdline>
J2VwaWtfcHl0aG9uJywgJy1waCcsICc3LjAnLCAnLXRuJywgJzgnLCAnLW1hJywgJzIwMCcsICctbWV0YWxfYmluZGluZycsICctaW1hZScsICc8aW5maWxlLm1hZT4nLCAnLW9tYWUnLCAnPG91dGZpbGUubWFlPic=

> <r_lp_tautomer_probability>
1

> <r_epik_Ionization_Penalty>
0.0507825

> <r_epik_Ionization_Penalty_Charging>
0

> <r_epik_Ionization_Penalty_Neutral>
0.0507825

> <r_epik_State_Penalty>
0.0434615

> <r_epik_Charging_Adjusted_Penalty>
0.0434615

> <i_epik_Tot_Q>
0

> <i_epik_Tot_abs_Q>
0

> <r_epik_Metal_State_Penalty>
4.50935e-05

> <b_epik_Metal_Only>
0

> <s_lp_Force_Field>
OPLS_2005

> <r_lp_Energy>
20.8142

> <b_lp_Chiralities_Consistent>
1

> <s_lp_Variant>
AV-unprocessed.smi:460-1

> <Gold.Version>
5.8.1

> <Gold.Id.Protein>
6NUR|6NUR_protein|mol2

> <Gold.PLP.Fitness>
47.9771

> <Gold.PLP.PLP>
-46.7401

> <Gold.PLP.part.hbond>
-1.0000

> <Gold.PLP.part.metal>
0.0000

> <Gold.PLP.part.buried>
2.8611

> <Gold.PLP.part.nonpolar>
-50.0700

> <Gold.PLP.part.repulsive>
1.5696

> <Gold.PLP.ligand.clash>
0.0000

> <Gold.PLP.ligand.torsion>
0.9311

> <Gold.PLP.Chemscore.Hbond>
1.0000

> <Gold.PLP.Chemscore.CHOScore>
0.0000

> <Gold.PLP.Chemscore.Metal>
0.0000

> <Gold.Chemscore.Hbonds>
donor molecule, donor type, donor heavy atom, donor atom, acceptor molecule, acceptor atom, score
      L1  H     4    31       P1 10175  1.00

> <Gold.PLP.Chemscore.Internal.Correction>
0.0992

> <Gold.Rescore>
     Score         DG    S(hbond)    S(metal)    S(lipo)     H(rot)  DE(clash)    DE(int)     intcor
     14.53     -19.98       0.99        0.00     147.36       2.36       3.58       1.86       ----

> <Gold.Chemscore.Fitness>
14.5311

> <Gold.Chemscore.DG>
-19.9761

> <Gold.Chemscore.ZeroCoef>
-5.4800

> <Gold.Chemscore.Hbond>
0.9861

> <Gold.Chemscore.Metal>
0.0000

> <Gold.Chemscore.Lipo>
147.3585

> <Gold.Chemscore.Internal_Hbond>
0.0000

> <Gold.Chemscore.DEClash>
3.5825

> <Gold.Chemscore.DEInternal>
1.8625

> <Gold.Chemscore.Rot>
2.3587

> <Gold.Chemscore.Internal.Correction>
   9.000000E+99

> <Gold.Chemscore.Hbonds>
donor molecule, donor type, donor heavy atom, donor atom, acceptor molecule, acceptor atom, score
      L1  H     4    31       P1 10175  0.70

> <Gold.Chemscore.Hbond.Weighted>
-3.2935

> <Gold.Chemscore.Metal.Weighted>
-0.0000

> <Gold.Chemscore.Lipo.Weighted>
-17.2410

> <Gold.Chemscore.Internal_Hbond.Weighted>
0.0000

> <Gold.Chemscore.DEClash.Weighted>
3.5825

> <Gold.Chemscore.DEInternal.Weighted>
1.8625

> <Gold.Chemscore.Rot.Weighted>
6.0384

> <Gold.Chemscore.Internal.Correction.Weighted>
   9.000000E+99

> <Gold.Protein.RotatedTorsions>
[ 6907 6896 6895 6894 ] final   47.91 input  -60.11 | X-H torsion
[ 7974 7965 7964 7962 ] final -174.55 input  175.53 | X-H torsion
[ 8008 7997 7996 7995 ] final  147.80 input   59.86 | X-H torsion
[ 10167 10162 10161 10158 ] final -177.43 input  -65.29 | X-H torsion
[ 10718 10713 10712 10709 ] final   19.86 input   66.30 | X-H torsion
[ 10763 10752 10751 10750 ] final  107.75 input  -60.55 | X-H torsion
[ 11005 11000 10999 10996 ] final  124.29 input  -57.11 | X-H torsion

> <Gold.Protein.ActiveResidues>
 VAL166  LYS551  ARG553  GLY616  TRP617  ASP618  TYR619  PRO620  LYS621  CYS622 
 ASP623  PHE694  ASN695  SER759  ASP760  ASP761  ALA762  ILE779  LEU786  VAL792 
 PHE793  MET794  SER795  GLU796  ALA797  LYS798  CYS799  TRP800  GLU811  SER814 

> <Gold.Protein.RotatedAtoms>
  152.2735  134.7907  160.0409 H   0  0  0  0  0  0  0  0  0  0  0  0  # atno 6907 bound_to 6896
  151.8511  133.3435  159.3682 H   0  0  0  0  0  0  0  0  0  0  0  0  # atno 6908 bound_to 6896
  150.7161  134.5226  159.5705 H   0  0  0  0  0  0  0  0  0  0  0  0  # atno 6909 bound_to 6896
  144.7131  140.1454  143.6388 H   0  0  0  0  0  0  0  0  0  0  0  0  # atno 7974 bound_to 7965
  156.2813  140.2146  156.5595 H   0  0  0  0  0  0  0  0  0  0  0  0  # atno 8008 bound_to 7997
  154.7225  140.0502  157.0675 H   0  0  0  0  0  0  0  0  0  0  0  0  # atno 8009 bound_to 7997
  155.0460  140.3151  155.4711 H   0  0  0  0  0  0  0  0  0  0  0  0  # atno 8010 bound_to 7997
  139.5480  144.2183  152.1025 H   0  0  0  0  0  0  0  0  0  0  0  0  # atno 10167 bound_to 10162
  157.1164  130.6531  149.5911 H   0  0  0  0  0  0  0  0  0  0  0  0  # atno 10718 bound_to 10713
  153.4110  135.3834  155.2050 H   0  0  0  0  0  0  0  0  0  0  0  0  # atno 10763 bound_to 10752
  154.8737  135.3794  154.4501 H   0  0  0  0  0  0  0  0  0  0  0  0  # atno 10764 bound_to 10752
  153.5009  135.7088  153.5894 H   0  0  0  0  0  0  0  0  0  0  0  0  # atno 10765 bound_to 10752
  139.9352  134.9640  156.8388 H   0  0  0  0  0  0  0  0  0  0  0  0  # atno 11005 bound_to 11000
  145.9164  139.2518  143.1407 LP  0  0  0  0  0  0  0  0  0  0  0  0  # atno 17320 bound_to 7965
  145.9664  140.8795  143.0184 LP  0  0  0  0  0  0  0  0  0  0  0  0  # atno 17321 bound_to 7965
  140.1673  144.4969  150.6599 LP  0  0  0  0  0  0  0  0  0  0  0  0  # atno 17342 bound_to 10162
  140.6735  143.2295  151.5566 LP  0  0  0  0  0  0  0  0  0  0  0  0  # atno 17343 bound_to 10162
  155.9838  130.4860  150.6953 LP  0  0  0  0  0  0  0  0  0  0  0  0  # atno 17370 bound_to 10713
  157.4515  131.0873  151.0841 LP  0  0  0  0  0  0  0  0  0  0  0  0  # atno 17371 bound_to 10713
  140.6095  134.0096  155.7571 LP  0  0  0  0  0  0  0  0  0  0  0  0  # atno 17394 bound_to 11000
  141.0962  133.9840  157.3156 LP  0  0  0  0  0  0  0  0  0  0  0  0  # atno 17395 bound_to 11000

$$$$
