AV-unprocessed.smi:3116|AV-procd|sdf|11866|dock8
  -GOLD-   2272017253D 1   1.00000     0.00000
 Structure written by MMmdl.
 34 34  0  0  0  0  0  0  0  0  2 V2000
  147.4594  140.6120  153.2539 C   0  0  0  0  0  0  0  0  0  0  0  0
  147.4006  139.0748  153.2346 C   0  0  2  0  0  0  0  0  0  0  0  0
  148.7636  138.4961  153.1913 N   0  3  0  0  0  0  0  0  0  0  0  0
  149.5056  138.4805  154.4750 C   0  0  2  0  0  0  0  0  0  0  0  0
  149.9357  139.9201  154.8024 C   0  0  0  0  0  0  0  0  0  0  0  0
  150.7092  137.5008  154.3957 C   0  0  1  0  0  0  0  0  0  0  0  0
  152.0352  138.1249  154.8740 C   0  0  0  0  0  0  0  0  0  0  0  0
  150.4470  136.2674  155.1293 N   0  0  0  0  0  0  0  0  0  0  0  0
  149.3963  135.3870  154.9690 C   0  0  0  0  0  0  0  0  0  0  0  0
  149.5514  134.3923  155.8912 C   0  0  0  0  0  0  0  0  0  0  0  0
  150.7438  134.7511  156.5788 C   0  0  0  0  0  0  0  0  0  0  0  0
  151.2739  135.8754  156.1254 N   0  0  0  0  0  0  0  0  0  0  0  0
  146.5750  138.5848  152.0392 C   0  0  0  0  0  0  0  0  0  0  0  0
  145.2562  138.7908  152.0857 N   0  0  0  0  0  0  0  0  0  0  0  0
  147.1164  138.0347  151.0818 O   0  0  0  0  0  0  0  0  0  0  0  0
  146.4595  141.0462  153.2883 H   0  0  0  0  0  0  0  0  0  0  0  0
  147.9619  141.0042  152.3685 H   0  0  0  0  0  0  0  0  0  0  0  0
  147.9982  140.9785  154.1279 H   0  0  0  0  0  0  0  0  0  0  0  0
  146.8995  138.7279  154.1385 H   0  0  0  0  0  0  0  0  0  0  0  0
  148.6850  137.5405  152.8741 H   0  0  0  0  0  0  0  0  0  0  0  0
  148.8382  138.1537  155.2739 H   0  0  0  0  0  0  0  0  0  0  0  0
  150.3895  139.9927  155.7904 H   0  0  0  0  0  0  0  0  0  0  0  0
  149.0777  140.5933  154.7994 H   0  0  0  0  0  0  0  0  0  0  0  0
  150.6544  140.2964  154.0736 H   0  0  0  0  0  0  0  0  0  0  0  0
  150.8455  137.2193  153.3502 H   0  0  0  0  0  0  0  0  0  0  0  0
  152.3596  138.9335  154.2196 H   0  0  0  0  0  0  0  0  0  0  0  0
  152.8352  137.3837  154.8805 H   0  0  0  0  0  0  0  0  0  0  0  0
  151.9492  138.5271  155.8839 H   0  0  0  0  0  0  0  0  0  0  0  0
  148.6313  135.5398  154.2218 H   0  0  0  0  0  0  0  0  0  0  0  0
  148.9118  133.5365  156.0493 H   0  0  0  0  0  0  0  0  0  0  0  0
  151.2344  134.2336  157.3902 H   0  0  0  0  0  0  0  0  0  0  0  0
  144.6659  138.4839  151.3257 H   0  0  0  0  0  0  0  0  0  0  0  0
  144.8503  139.2522  152.8875 H   0  0  0  0  0  0  0  0  0  0  0  0
  149.2983  139.0100  152.5057 H   0  0  0  0  0  0  0  0  0  0  0  0
  1  2  1  0  0  0  0
  1 16  1  0  0  0  0
  1 17  1  0  0  0  0
  1 18  1  0  0  0  0
  2  3  1  0  0  0  0
  2 13  1  0  0  0  0
  2 19  1  0  0  0  0
  3  4  1  0  0  0  0
  3 20  1  0  0  0  0
  3 34  1  0  0  0  0
  4  5  1  0  0  0  0
  4  6  1  0  0  0  0
  4 21  1  0  0  0  0
  5 22  1  0  0  0  0
  5 23  1  0  0  0  0
  5 24  1  0  0  0  0
  6  7  1  0  0  0  0
  6  8  1  0  0  0  0
  6 25  1  0  0  0  0
  7 26  1  0  0  0  0
  7 27  1  0  0  0  0
  7 28  1  0  0  0  0
  8 12  1  0  0  0  0
  8  9  1  0  0  0  0
  9 10  2  0  0  0  0
  9 29  1  0  0  0  0
 10 11  1  0  0  0  0
 10 30  1  0  0  0  0
 11 12  2  0  0  0  0
 11 31  1  0  0  0  0
 13 14  1  0  0  0  0
 13 15  2  0  0  0  0
 14 32  1  0  0  0  0
 14 33  1  0  0  0  0
M  CHG  1   3   1
M  END
> <s_m_source_file>
AV-unprocessed.smi

> <i_m_source_file_index>
3116

> <i_lp_mmshare_version>
43012

> <i_f3d_flags>
0

> <s_epik_input>
W05IMl1DKD1PKVtDQEhdKFtDSDNdKVtOSF1bQ0BIXShbQ0gzXSlbQ0BIXShbQ0gzXSluMVtjSF1bY0hdW2NIXW4x

> <s_epik_cmdline>
J2VwaWtfcHl0aG9uJywgJy1waCcsICc3LjAnLCAnLXRuJywgJzgnLCAnLW1hJywgJzIwMCcsICctbWV0YWxfYmluZGluZycsICctaW1hZScsICc8aW5maWxlLm1hZT4nLCAnLW9tYWUnLCAnPG91dGZpbGUubWFlPic=

> <r_lp_tautomer_probability>
1

> <r_epik_Ionization_Penalty>
0.15658

> <r_epik_Ionization_Penalty_Charging>
0.156568

> <r_epik_Ionization_Penalty_Neutral>
1.19778e-05

> <r_epik_State_Penalty>
0.145866

> <r_epik_Charging_Adjusted_Penalty>
0.302434

> <i_epik_Tot_Q>
1

> <i_epik_Tot_abs_Q>
1

> <r_epik_Metal_State_Penalty>
0.146064

> <b_epik_Metal_Only>
0

> <s_lp_Force_Field>
OPLS_2005

> <r_lp_Energy>
9.52806

> <b_lp_Chiralities_Consistent>
1

> <s_lp_Variant>
AV-unprocessed.smi:3116-5

> <Gold.Version>
5.8.1

> <Gold.Id.Protein>
6NUR|6NUR_protein|mol2

> <Gold.PLP.Fitness>
46.1679

> <Gold.PLP.PLP>
-28.3474

> <Gold.PLP.part.hbond>
-5.4862

> <Gold.PLP.part.metal>
0.0000

> <Gold.PLP.part.buried>
-2.2948

> <Gold.PLP.part.nonpolar>
-25.3600

> <Gold.PLP.part.repulsive>
3.4579

> <Gold.PLP.ligand.clash>
0.0000

> <Gold.PLP.ligand.torsion>
1.9340

> <Gold.PLP.Chemscore.Hbond>
6.1920

> <Gold.PLP.Chemscore.CHOScore>
0.9921

> <Gold.PLP.Chemscore.Metal>
0.0000

> <Gold.Chemscore.Hbonds>
donor molecule, donor type, donor heavy atom, donor atom, acceptor molecule, acceptor atom, score
      L1  H     3    20       P1  7948  2.00
      L1  H     3    34       P1  7957  1.00
      L1  H    14    32       P1 10171  1.00
      L1  H    14    33       P1 10175  0.26
      P1  H  7954  7966       L1    15  1.00
      P1  H 10752 10764       L1    12  0.63
      L1  C     9    29       P1  7948  0.93

> <Gold.PLP.Chemscore.Internal.Correction>
0.1362

> <Gold.Rescore>
     Score         DG    S(hbond)    S(metal)    S(lipo)     H(rot)  DE(clash)    DE(int)     intcor
     17.97     -22.05       4.78        0.00      58.84       2.45       2.07       2.02       ----

> <Gold.Chemscore.Fitness>
17.9668

> <Gold.Chemscore.DG>
-22.0526

> <Gold.Chemscore.ZeroCoef>
-5.4800

> <Gold.Chemscore.Hbond>
4.7759

> <Gold.Chemscore.Metal>
0.0000

> <Gold.Chemscore.Lipo>
58.8394

> <Gold.Chemscore.Internal_Hbond>
0.0000

> <Gold.Chemscore.DEClash>
2.0706

> <Gold.Chemscore.DEInternal>
2.0152

> <Gold.Chemscore.Rot>
2.4465

> <Gold.Chemscore.Internal.Correction>
   9.000000E+99

> <Gold.Chemscore.Hbonds>
donor molecule, donor type, donor heavy atom, donor atom, acceptor molecule, acceptor atom, score
      L1  H     3    20       P1  7948  0.98
      L1  H     3    34       P1  7957  0.96
      L1  H    14    32       P1 10171  0.98
      L1  H    14    33       P1 10175  0.26
      P1  H  7954  7966       L1    15  0.98
      P1  H 10752 10764       L1    12  0.15

> <Gold.Chemscore.Hbond.Weighted>
-15.9515

> <Gold.Chemscore.Metal.Weighted>
-0.0000

> <Gold.Chemscore.Lipo.Weighted>
-6.8842

> <Gold.Chemscore.Internal_Hbond.Weighted>
0.0000

> <Gold.Chemscore.DEClash.Weighted>
2.0706

> <Gold.Chemscore.DEInternal.Weighted>
2.0152

> <Gold.Chemscore.Rot.Weighted>
6.2631

> <Gold.Chemscore.Internal.Correction.Weighted>
   9.000000E+99

> <Gold.Protein.RotatedTorsions>
[ 6907 6896 6895 6894 ] final  -36.39 input  -60.11 | X-H torsion
[ 7974 7965 7964 7962 ] final -173.35 input  175.53 | X-H torsion
[ 8008 7997 7996 7995 ] final  160.85 input   59.86 | X-H torsion
[ 10167 10162 10161 10158 ] final -117.43 input  -65.29 | X-H torsion
[ 10718 10713 10712 10709 ] final  -38.85 input   66.30 | X-H torsion
[ 10763 10752 10751 10750 ] final  -32.04 input  -60.55 | X-H torsion
[ 11005 11000 10999 10996 ] final -111.11 input  -57.11 | X-H torsion

> <Gold.Protein.ActiveResidues>
 VAL166  LYS551  ARG553  GLY616  TRP617  ASP618  TYR619  PRO620  LYS621  CYS622 
 ASP623  PHE694  ASN695  SER759  ASP760  ASP761  ALA762  ILE779  LEU786  VAL792 
 PHE793  MET794  SER795  GLU796  ALA797  LYS798  CYS799  TRP800  GLU811  SER814 

> <Gold.Protein.RotatedAtoms>
  151.0277  134.9516  159.8093 H   0  0  0  0  0  0  0  0  0  0  0  0  # atno 6907 bound_to 6896
  152.5339  134.2821  159.9021 H   0  0  0  0  0  0  0  0  0  0  0  0  # atno 6908 bound_to 6896
  151.2829  133.4159  159.2662 H   0  0  0  0  0  0  0  0  0  0  0  0  # atno 6909 bound_to 6896
  144.7138  140.1635  143.6374 H   0  0  0  0  0  0  0  0  0  0  0  0  # atno 7974 bound_to 7965
  156.2144  140.1793  156.7622 H   0  0  0  0  0  0  0  0  0  0  0  0  # atno 8008 bound_to 7997
  154.5770  140.0672  156.9077 H   0  0  0  0  0  0  0  0  0  0  0  0  # atno 8009 bound_to 7997
  155.2571  140.3333  155.4279 H   0  0  0  0  0  0  0  0  0  0  0  0  # atno 8010 bound_to 7997
  140.0685  143.4900  152.1993 H   0  0  0  0  0  0  0  0  0  0  0  0  # atno 10167 bound_to 10162
  156.2991  130.4238  149.8161 H   0  0  0  0  0  0  0  0  0  0  0  0  # atno 10718 bound_to 10713
  153.8073  135.6885  153.4846 H   0  0  0  0  0  0  0  0  0  0  0  0  # atno 10763 bound_to 10752
  153.1650  135.4565  154.9823 H   0  0  0  0  0  0  0  0  0  0  0  0  # atno 10764 bound_to 10752
  154.7982  135.3327  154.7557 H   0  0  0  0  0  0  0  0  0  0  0  0  # atno 10765 bound_to 10752
  141.0753  133.9312  157.2402 H   0  0  0  0  0  0  0  0  0  0  0  0  # atno 11005 bound_to 11000
  145.9008  139.2429  143.1494 LP  0  0  0  0  0  0  0  0  0  0  0  0  # atno 17320 bound_to 7965
  145.9812  140.8681  143.0113 LP  0  0  0  0  0  0  0  0  0  0  0  0  # atno 17321 bound_to 7965
  139.5850  144.7527  151.3542 LP  0  0  0  0  0  0  0  0  0  0  0  0  # atno 17342 bound_to 10162
  140.7137  143.7322  150.7615 LP  0  0  0  0  0  0  0  0  0  0  0  0  # atno 17343 bound_to 10162
  156.5546  130.8357  151.3310 LP  0  0  0  0  0  0  0  0  0  0  0  0  # atno 17370 bound_to 10713
  157.7363  130.9776  150.2129 LP  0  0  0  0  0  0  0  0  0  0  0  0  # atno 17371 bound_to 10713
  139.9565  135.0164  156.9143 LP  0  0  0  0  0  0  0  0  0  0  0  0  # atno 17394 bound_to 11000
  140.5587  134.0556  155.7392 LP  0  0  0  0  0  0  0  0  0  0  0  0  # atno 17395 bound_to 11000

$$$$
