AV-unprocessed.smi:2182|AV-procd|sdf|8863|dock10
  -GOLD-   2272012 63D 1   1.00000     0.00000
 Structure written by MMmdl.
 41 43  0  0  0  0  0  0  0  0  1 V2000
  140.2213  135.3551  153.9762 N   0  0  0  0  0  0  0  0  0  0  0  0
  141.2653  135.3044  153.4790 C   0  0  0  0  0  0  0  0  0  0  0  0
  142.5385  135.2256  152.8425 C   0  0  0  0  0  0  0  0  0  0  0  0
  142.9831  134.0817  152.2825 C   0  0  0  0  0  0  0  0  0  0  0  0
  144.2071  133.9888  151.6569 N   0  0  0  0  0  0  0  0  0  0  0  0
  144.7276  132.7258  151.2146 C   0  0  0  0  0  0  0  0  0  0  0  0
  145.3674  132.5963  149.8458 C   0  0  0  0  0  0  0  0  0  0  0  0
  144.0123  131.9848  150.1063 C   0  0  0  0  0  0  0  0  0  0  0  0
  145.0855  135.0939  151.6505 C   0  0  0  0  0  0  0  0  0  0  0  0
  146.2234  135.0028  151.1820 O   0  0  0  0  0  0  0  0  0  0  0  0
  144.6261  136.3099  152.2133 N   0  0  0  0  0  0  0  0  0  0  0  0
  145.5393  137.4734  152.2037 C   0  0  0  0  0  0  0  0  0  0  0  0
  146.1363  137.7690  153.5871 C   0  0  0  0  0  0  0  0  0  0  0  0
  145.4074  138.0630  154.5355 O   0  0  0  0  0  0  0  0  0  0  0  0
  147.4719  137.6864  153.6822 N   0  0  0  0  0  0  0  0  0  0  0  0
  148.2454  137.8686  154.9059 C   0  0  0  0  0  0  0  0  0  0  0  0
  149.5128  138.7050  154.6563 C   0  0  2  0  0  0  0  0  0  0  0  0
  150.8031  137.9044  154.4866 C   0  0  0  0  0  0  0  0  0  0  0  0
  151.8790  138.9206  154.8235 C   0  0  0  0  0  0  0  0  0  0  0  0
  151.1479  139.9661  155.6729 C   0  0  0  0  0  0  0  0  0  0  0  0
  149.8056  139.5073  155.7885 O   0  0  0  0  0  0  0  0  0  0  0  0
  143.3537  136.4381  152.8271 C   0  0  0  0  0  0  0  0  0  0  0  0
  142.9894  137.5073  153.3193 O   0  0  0  0  0  0  0  0  0  0  0  0
  142.3549  133.2031  152.3206 H   0  0  0  0  0  0  0  0  0  0  0  0
  145.1581  132.1036  151.9974 H   0  0  0  0  0  0  0  0  0  0  0  0
  145.3997  133.4761  149.2057 H   0  0  0  0  0  0  0  0  0  0  0  0
  146.2148  131.9204  149.7511 H   0  0  0  0  0  0  0  0  0  0  0  0
  143.9568  130.9008  150.1827 H   0  0  0  0  0  0  0  0  0  0  0  0
  143.1527  132.4633  149.6405 H   0  0  0  0  0  0  0  0  0  0  0  0
  146.3449  137.3110  151.4851 H   0  0  0  0  0  0  0  0  0  0  0  0
  145.0447  138.3780  151.8480 H   0  0  0  0  0  0  0  0  0  0  0  0
  147.9904  137.4478  152.8493 H   0  0  0  0  0  0  0  0  0  0  0  0
  147.6093  138.3826  155.6269 H   0  0  0  0  0  0  0  0  0  0  0  0
  148.5003  136.9074  155.3558 H   0  0  0  0  0  0  0  0  0  0  0  0
  149.3673  139.3613  153.7957 H   0  0  0  0  0  0  0  0  0  0  0  0
  150.8349  137.0855  155.2065 H   0  0  0  0  0  0  0  0  0  0  0  0
  150.9152  137.4824  153.4873 H   0  0  0  0  0  0  0  0  0  0  0  0
  152.7132  138.4626  155.3561 H   0  0  0  0  0  0  0  0  0  0  0  0
  152.2718  139.3810  153.9161 H   0  0  0  0  0  0  0  0  0  0  0  0
  151.5948  140.0834  156.6605 H   0  0  0  0  0  0  0  0  0  0  0  0
  151.1591  140.9384  155.1781 H   0  0  0  0  0  0  0  0  0  0  0  0
  1  2  3  0  0  0  0
  2  3  1  0  0  0  0
  3 22  1  0  0  0  0
  3  4  2  0  0  0  0
  4  5  1  0  0  0  0
  4 24  1  0  0  0  0
  5  6  1  0  0  0  0
  5  9  1  0  0  0  0
  6  8  1  0  0  0  0
  6  7  1  0  0  0  0
  6 25  1  0  0  0  0
  7  8  1  0  0  0  0
  7 26  1  0  0  0  0
  7 27  1  0  0  0  0
  8 28  1  0  0  0  0
  8 29  1  0  0  0  0
  9 10  2  0  0  0  0
  9 11  1  0  0  0  0
 11 12  1  0  0  0  0
 11 22  1  0  0  0  0
 12 13  1  0  0  0  0
 12 30  1  0  0  0  0
 12 31  1  0  0  0  0
 13 14  2  0  0  0  0
 13 15  1  0  0  0  0
 15 16  1  0  0  0  0
 15 32  1  0  0  0  0
 16 17  1  0  0  0  0
 16 33  1  0  0  0  0
 16 34  1  0  0  0  0
 17 21  1  0  0  0  0
 17 18  1  0  0  0  0
 17 35  1  0  0  0  0
 18 19  1  0  0  0  0
 18 36  1  0  0  0  0
 18 37  1  0  0  0  0
 19 20  1  0  0  0  0
 19 38  1  0  0  0  0
 19 39  1  0  0  0  0
 20 21  1  0  0  0  0
 20 40  1  0  0  0  0
 20 41  1  0  0  0  0
 22 23  2  0  0  0  0
M  END
> <s_m_source_file>
AV-unprocessed.smi

> <i_m_source_file_index>
2182

> <i_lp_mmshare_version>
43012

> <i_f3d_flags>
0

> <s_epik_input>
TiNDYzFbY0hdbihbQ0hdMltDSDJdW0NIMl0yKWMoPU8pbihjMT1PKVtDSDJdQyg9TylbTkhdW0NIMl1bQ0BASF0zW0NIMl1bQ0gyXVtDSDJdTzM=

> <s_epik_cmdline>
J2VwaWtfcHl0aG9uJywgJy1waCcsICc3LjAnLCAnLXRuJywgJzgnLCAnLW1hJywgJzIwMCcsICctbWV0YWxfYmluZGluZycsICctaW1hZScsICc8aW5maWxlLm1hZT4nLCAnLW9tYWUnLCAnPG91dGZpbGUubWFlPic=

> <r_lp_tautomer_probability>
1

> <r_epik_Ionization_Penalty>
2.69429e-08

> <r_epik_Ionization_Penalty_Charging>
8.38654e-11

> <r_epik_Ionization_Penalty_Neutral>
2.6859e-08

> <r_epik_State_Penalty>
-0

> <r_epik_Charging_Adjusted_Penalty>
8.38654e-11

> <i_epik_Tot_Q>
0

> <i_epik_Tot_abs_Q>
0

> <r_epik_Metal_State_Penalty>
-0

> <b_epik_Metal_Only>
0

> <s_lp_Force_Field>
OPLS_2005

> <r_lp_Energy>
43.5175

> <b_lp_Chiralities_Consistent>
1

> <s_lp_Variant>
AV-unprocessed.smi:2182-1

> <Gold.Version>
5.8.1

> <Gold.Id.Protein>
6NUR|6NUR_protein|mol2

> <Gold.PLP.Fitness>
46.3722

> <Gold.PLP.PLP>
-41.5202

> <Gold.PLP.part.hbond>
-2.9172

> <Gold.PLP.part.metal>
0.0000

> <Gold.PLP.part.buried>
-5.6716

> <Gold.PLP.part.nonpolar>
-34.5476

> <Gold.PLP.part.repulsive>
1.2472

> <Gold.PLP.ligand.clash>
0.0000

> <Gold.PLP.ligand.torsion>
0.9244

> <Gold.PLP.Chemscore.Hbond>
2.0000

> <Gold.PLP.Chemscore.CHOScore>
0.1579

> <Gold.PLP.Chemscore.Metal>
0.0000

> <Gold.Chemscore.Hbonds>
donor molecule, donor type, donor heavy atom, donor atom, acceptor molecule, acceptor atom, score
      L1  H    15    32       P1  7948  1.00
      P1  H 11000 11005       L1     1  0.87
      L1  C     4    24       P1 10957  0.14

> <Gold.PLP.Chemscore.Internal.Correction>
0.2271

> <Gold.Rescore>
     Score         DG    S(hbond)    S(metal)    S(lipo)     H(rot)  DE(clash)    DE(int)     intcor
     13.32     -16.06       1.96        0.00      79.81       2.08       0.47       2.27       ----

> <Gold.Chemscore.Fitness>
13.3188

> <Gold.Chemscore.DG>
-16.0557

> <Gold.Chemscore.ZeroCoef>
-5.4800

> <Gold.Chemscore.Hbond>
1.9631

> <Gold.Chemscore.Metal>
0.0000

> <Gold.Chemscore.Lipo>
79.8128

> <Gold.Chemscore.Internal_Hbond>
0.0000

> <Gold.Chemscore.DEClash>
0.4696

> <Gold.Chemscore.DEInternal>
2.2673

> <Gold.Chemscore.Rot>
2.0778

> <Gold.Chemscore.Internal.Correction>
   9.000000E+99

> <Gold.Chemscore.Hbonds>
donor molecule, donor type, donor heavy atom, donor atom, acceptor molecule, acceptor atom, score
      L1  H    15    32       P1  7948  0.95
      P1  H 11000 11005       L1     1  0.78

> <Gold.Chemscore.Hbond.Weighted>
-6.5567

> <Gold.Chemscore.Metal.Weighted>
-0.0000

> <Gold.Chemscore.Lipo.Weighted>
-9.3381

> <Gold.Chemscore.Internal_Hbond.Weighted>
0.0000

> <Gold.Chemscore.DEClash.Weighted>
0.4696

> <Gold.Chemscore.DEInternal.Weighted>
2.2673

> <Gold.Chemscore.Rot.Weighted>
5.3191

> <Gold.Chemscore.Internal.Correction.Weighted>
   9.000000E+99

> <Gold.Protein.RotatedTorsions>
[ 6907 6896 6895 6894 ] final  128.66 input  -60.11 | X-H torsion
[ 7974 7965 7964 7962 ] final  169.31 input  175.53 | X-H torsion
[ 8008 7997 7996 7995 ] final   46.25 input   59.86 | X-H torsion
[ 10167 10162 10161 10158 ] final   74.20 input  -65.29 | X-H torsion
[ 10718 10713 10712 10709 ] final  128.91 input   66.30 | X-H torsion
[ 10763 10752 10751 10750 ] final  160.78 input  -60.55 | X-H torsion
[ 11005 11000 10999 10996 ] final   63.44 input  -57.11 | X-H torsion

> <Gold.Protein.ActiveResidues>
 VAL166  LYS551  ARG553  GLY616  TRP617  ASP618  TYR619  PRO620  LYS621  CYS622 
 ASP623  PHE694  ASN695  SER759  ASP760  ASP761  ALA762  ILE779  LEU786  VAL792 
 PHE793  MET794  SER795  GLU796  ALA797  LYS798  CYS799  TRP800  GLU811  SER814 

> <Gold.Protein.RotatedAtoms>
  152.3698  133.6404  159.6078 H   0  0  0  0  0  0  0  0  0  0  0  0  # atno 6907 bound_to 6896
  150.7660  133.9288  159.3429 H   0  0  0  0  0  0  0  0  0  0  0  0  # atno 6908 bound_to 6896
  151.7113  135.0913  160.0319 H   0  0  0  0  0  0  0  0  0  0  0  0  # atno 6909 bound_to 6896
  144.7359  139.9036  143.6411 H   0  0  0  0  0  0  0  0  0  0  0  0  # atno 7974 bound_to 7965
  155.3494  140.3412  155.4239 H   0  0  0  0  0  0  0  0  0  0  0  0  # atno 8008 bound_to 7997
  156.1771  140.1651  156.8377 H   0  0  0  0  0  0  0  0  0  0  0  0  # atno 8009 bound_to 7997
  154.5294  140.0748  156.8300 H   0  0  0  0  0  0  0  0  0  0  0  0  # atno 8010 bound_to 7997
  140.0162  144.5576  150.7618 H   0  0  0  0  0  0  0  0  0  0  0  0  # atno 10167 bound_to 10162
  157.5202  131.1098  150.9165 H   0  0  0  0  0  0  0  0  0  0  0  0  # atno 10718 bound_to 10713
  154.2528  135.2771  155.2809 H   0  0  0  0  0  0  0  0  0  0  0  0  # atno 10763 bound_to 10752
  154.5450  135.5691  153.6876 H   0  0  0  0  0  0  0  0  0  0  0  0  # atno 10764 bound_to 10752
  152.9977  135.6260  154.2676 H   0  0  0  0  0  0  0  0  0  0  0  0  # atno 10765 bound_to 10752
  140.0025  134.6421  155.9908 H   0  0  0  0  0  0  0  0  0  0  0  0  # atno 11005 bound_to 11000
  146.1053  139.4052  143.0321 LP  0  0  0  0  0  0  0  0  0  0  0  0  # atno 17320 bound_to 7965
  145.7520  140.9969  143.1245 LP  0  0  0  0  0  0  0  0  0  0  0  0  # atno 17321 bound_to 7965
  140.7361  143.2749  151.3773 LP  0  0  0  0  0  0  0  0  0  0  0  0  # atno 17342 bound_to 10162
  139.6171  144.0982  152.2355 LP  0  0  0  0  0  0  0  0  0  0  0  0  # atno 17343 bound_to 10162
  156.9777  130.5515  149.5294 LP  0  0  0  0  0  0  0  0  0  0  0  0  # atno 17370 bound_to 10713
  156.0348  130.5436  150.8626 LP  0  0  0  0  0  0  0  0  0  0  0  0  # atno 17371 bound_to 10713
  141.1652  133.6537  156.4456 LP  0  0  0  0  0  0  0  0  0  0  0  0  # atno 17394 bound_to 11000
  140.4702  134.6760  157.5126 LP  0  0  0  0  0  0  0  0  0  0  0  0  # atno 17395 bound_to 11000

$$$$
