AV-unprocessed.smi:513|AV-procd|sdf|2774|dock2
  -GOLD-   2262023243D 1   1.00000     0.00000
 Structure written by MMmdl.
 42 44  0  0  0  0  0  0  0  0  3 V2000
  149.3733  141.3986  154.8029 C   0  0  0  0  0  0  0  0  0  0  0  0
  150.2961  140.3676  154.4990 O   0  0  0  0  0  0  0  0  0  0  0  0
  150.4468  139.4451  155.5642 C   0  0  0  0  0  0  0  0  0  0  0  0
  149.0733  138.8601  155.9123 C   0  0  0  0  0  0  0  0  0  0  0  0
  149.0055  137.4353  155.5954 N   0  0  0  0  0  0  0  0  0  0  0  0
  148.1078  136.7895  154.8011 C   0  0  0  0  0  0  0  0  0  0  0  0
  147.0815  137.4589  154.1312 N   0  0  0  0  0  0  0  0  0  0  0  0
  147.2478  138.7714  153.5119 C   0  0  0  0  0  0  0  0  0  0  0  0
  146.7090  138.7821  152.0695 C   0  0  0  0  0  0  0  0  0  0  0  0
  145.2942  138.3562  152.0372 N   0  3  0  0  0  0  0  0  0  0  0  0
  145.0718  137.0693  152.7282 C   0  0  0  0  0  0  0  0  0  0  0  0
  145.6604  137.1149  154.1505 C   0  0  0  0  0  0  0  0  0  0  0  0
  148.2515  135.4640  154.7631 N   0  0  0  0  0  0  0  0  0  0  0  0
  149.3451  135.2443  155.5860 C   0  0  0  0  0  0  0  0  0  0  0  0
  149.8065  136.4106  156.1120 C   0  0  0  0  0  0  0  0  0  0  0  0
  150.9296  136.4893  157.0733 C   0  0  0  0  0  0  0  0  0  0  0  0
  151.2831  137.5650  157.5512 O   0  0  0  0  0  0  0  0  0  0  0  0
  151.4705  135.2585  157.3393 N   0  5  0  0  0  0  0  0  0  0  0  0
  151.0419  134.0555  156.8211 C   0  0  0  0  0  0  0  0  0  0  0  0
  151.5832  132.9897  157.1179 O   0  0  0  0  0  0  0  0  0  0  0  0
  149.9835  134.0280  155.9514 N   0  0  0  0  0  0  0  0  0  0  0  0
  149.4990  132.7625  155.3926 C   0  0  0  0  0  0  0  0  0  0  0  0
  149.2956  142.0820  153.9574 H   0  0  0  0  0  0  0  0  0  0  0  0
  149.6961  141.9734  155.6718 H   0  0  0  0  0  0  0  0  0  0  0  0
  148.3802  140.9928  155.0002 H   0  0  0  0  0  0  0  0  0  0  0  0
  151.1348  138.6471  155.2807 H   0  0  0  0  0  0  0  0  0  0  0  0
  150.8689  139.9528  156.4330 H   0  0  0  0  0  0  0  0  0  0  0  0
  148.8610  139.0206  156.9636 H   0  0  0  0  0  0  0  0  0  0  0  0
  148.2811  139.3943  155.3915 H   0  0  0  0  0  0  0  0  0  0  0  0
  146.7356  139.5215  154.1159 H   0  0  0  0  0  0  0  0  0  0  0  0
  148.3039  139.0439  153.5079 H   0  0  0  0  0  0  0  0  0  0  0  0
  146.7957  139.7784  151.6356 H   0  0  0  0  0  0  0  0  0  0  0  0
  147.2974  138.1080  151.4453 H   0  0  0  0  0  0  0  0  0  0  0  0
  144.7430  139.0625  152.5035 H   0  0  0  0  0  0  0  0  0  0  0  0
  144.0028  136.8596  152.7631 H   0  0  0  0  0  0  0  0  0  0  0  0
  145.5361  136.2715  152.1472 H   0  0  0  0  0  0  0  0  0  0  0  0
  145.5007  136.1702  154.6693 H   0  0  0  0  0  0  0  0  0  0  0  0
  145.1315  137.8638  154.7416 H   0  0  0  0  0  0  0  0  0  0  0  0
  150.3022  132.2400  154.8709 H   0  0  0  0  0  0  0  0  0  0  0  0
  148.6869  132.9005  154.6795 H   0  0  0  0  0  0  0  0  0  0  0  0
  149.1301  132.1135  156.1878 H   0  0  0  0  0  0  0  0  0  0  0  0
  144.9868  138.2811  151.0781 H   0  0  0  0  0  0  0  0  0  0  0  0
  1  2  1  0  0  0  0
  1 23  1  0  0  0  0
  1 24  1  0  0  0  0
  1 25  1  0  0  0  0
  2  3  1  0  0  0  0
  3  4  1  0  0  0  0
  3 26  1  0  0  0  0
  3 27  1  0  0  0  0
  4  5  1  0  0  0  0
  4 28  1  0  0  0  0
  4 29  1  0  0  0  0
  5 15  1  0  0  0  0
  5  6  1  0  0  0  0
  6  7  1  0  0  0  0
  6 13  2  0  0  0  0
  7 12  1  0  0  0  0
  7  8  1  0  0  0  0
  8  9  1  0  0  0  0
  8 30  1  0  0  0  0
  8 31  1  0  0  0  0
  9 10  1  0  0  0  0
  9 32  1  0  0  0  0
  9 33  1  0  0  0  0
 10 11  1  0  0  0  0
 10 34  1  0  0  0  0
 10 42  1  0  0  0  0
 11 12  1  0  0  0  0
 11 35  1  0  0  0  0
 11 36  1  0  0  0  0
 12 37  1  0  0  0  0
 12 38  1  0  0  0  0
 13 14  1  0  0  0  0
 14 21  1  0  0  0  0
 14 15  2  0  0  0  0
 15 16  1  0  0  0  0
 16 17  2  0  0  0  0
 16 18  1  0  0  0  0
 18 19  1  0  0  0  0
 19 20  2  0  0  0  0
 19 21  1  0  0  0  0
 21 22  1  0  0  0  0
 22 39  1  0  0  0  0
 22 40  1  0  0  0  0
 22 41  1  0  0  0  0
M  CHG  1  10   1
M  CHG  1  18  -1
M  END
> <s_m_source_file>
AV-unprocessed.smi

> <i_m_source_file_index>
513

> <i_lp_mmshare_version>
43012

> <i_f3d_flags>
0

> <s_epik_input>
W0NIM11uMWMoPU8pW25IXWMoPU8pYyhjMTIpbihbQ0gyXVtDSDJdT1tDSDNdKWMobjIpTjNbQ0gyXVtDSDJdW05IXVtDSDJdW0NIMl0z

> <s_epik_cmdline>
J2VwaWtfcHl0aG9uJywgJy1waCcsICc3LjAnLCAnLXRuJywgJzgnLCAnLW1hJywgJzIwMCcsICctbWV0YWxfYmluZGluZycsICctaW1hZScsICc8aW5maWxlLm1hZT4nLCAnLW9tYWUnLCAnPG91dGZpbGUubWFlPic=

> <r_epik_Ionization_Penalty>
5.91573

> <r_epik_Ionization_Penalty_Charging>
0.0691516

> <r_epik_Ionization_Penalty_Neutral>
5.84657

> <r_epik_State_Penalty>
5.85298

> <r_epik_Charging_Adjusted_Penalty>
5.92213

> <i_epik_Tot_Q>
0

> <i_epik_Tot_abs_Q>
2

> <r_epik_Metal_State_Penalty>
1.81849

> <b_epik_Metal_Only>
1

> <s_lp_Force_Field>
OPLS_2005

> <r_lp_Energy>
49.8146

> <b_lp_Chiralities_Consistent>
1

> <s_lp_Variant>
AV-unprocessed.smi:513-3

> <Gold.Version>
5.8.1

> <Gold.Id.Protein>
6NUR|6NUR_protein|mol2

> <Gold.PLP.Fitness>
35.7126

> <Gold.PLP.PLP>
-24.1107

> <Gold.PLP.part.hbond>
-5.0000

> <Gold.PLP.part.metal>
0.0000

> <Gold.PLP.part.buried>
-1.2125

> <Gold.PLP.part.nonpolar>
-18.9250

> <Gold.PLP.part.repulsive>
0.6095

> <Gold.PLP.ligand.clash>
0.0000

> <Gold.PLP.ligand.torsion>
1.0836

> <Gold.PLP.Chemscore.Hbond>
4.4036

> <Gold.PLP.Chemscore.CHOScore>
0.0000

> <Gold.PLP.Chemscore.Metal>
0.0000

> <Gold.Chemscore.Hbonds>
donor molecule, donor type, donor heavy atom, donor atom, acceptor molecule, acceptor atom, score
      L1  H    10    34       P1 10175  2.00
      L1  H    10    42       P1 10171  1.00
      P1  H  6896  6907       L1    20  0.37
      P1  H  6896  6908       L1    18  0.01
      P1  H  7989  7998       L1     2  1.00

> <Gold.PLP.Chemscore.Internal.Correction>
0.5583

> <Gold.Rescore>
     Score         DG    S(hbond)    S(metal)    S(lipo)     H(rot)  DE(clash)    DE(int)     intcor
     13.37     -16.18       2.93        0.00      41.75       1.55       0.08       2.73       ----

> <Gold.Chemscore.Fitness>
13.3685

> <Gold.Chemscore.DG>
-16.1812

> <Gold.Chemscore.ZeroCoef>
-5.4800

> <Gold.Chemscore.Hbond>
2.9315

> <Gold.Chemscore.Metal>
0.0000

> <Gold.Chemscore.Lipo>
41.7476

> <Gold.Chemscore.Internal_Hbond>
0.0000

> <Gold.Chemscore.DEClash>
0.0812

> <Gold.Chemscore.DEInternal>
2.7315

> <Gold.Chemscore.Rot>
1.5526

> <Gold.Chemscore.Internal.Correction>
   9.000000E+99

> <Gold.Chemscore.Hbonds>
donor molecule, donor type, donor heavy atom, donor atom, acceptor molecule, acceptor atom, score
      L1  H    10    34       P1 10175  0.95
      L1  H    10    42       P1 10171  0.96
      P1  H  6896  6907       L1    20  0.07
      P1  H  7989  7998       L1     2  0.84

> <Gold.Chemscore.Hbond.Weighted>
-9.7912

> <Gold.Chemscore.Metal.Weighted>
-0.0000

> <Gold.Chemscore.Lipo.Weighted>
-4.8845

> <Gold.Chemscore.Internal_Hbond.Weighted>
0.0000

> <Gold.Chemscore.DEClash.Weighted>
0.0812

> <Gold.Chemscore.DEInternal.Weighted>
2.7315

> <Gold.Chemscore.Rot.Weighted>
3.9745

> <Gold.Chemscore.Internal.Correction.Weighted>
   9.000000E+99

> <Gold.Protein.RotatedTorsions>
[ 6907 6896 6895 6894 ] final  173.02 input  -60.11 | X-H torsion
[ 7974 7965 7964 7962 ] final  -15.83 input  175.53 | X-H torsion
[ 8008 7997 7996 7995 ] final -119.72 input   59.86 | X-H torsion
[ 10167 10162 10161 10158 ] final -124.59 input  -65.29 | X-H torsion
[ 10718 10713 10712 10709 ] final   62.97 input   66.30 | X-H torsion
[ 10763 10752 10751 10750 ] final  155.30 input  -60.55 | X-H torsion
[ 11005 11000 10999 10996 ] final  -71.21 input  -57.11 | X-H torsion

> <Gold.Protein.ActiveResidues>
 VAL166  LYS551  ARG553  GLY616  TRP617  ASP618  TYR619  PRO620  LYS621  CYS622 
 ASP623  PHE694  ASN695  SER759  ASP760  ASP761  ALA762  ILE779  LEU786  VAL792 
 PHE793  MET794  SER795  GLU796  ALA797  LYS798  CYS799  TRP800  GLU811  SER814 

> <Gold.Protein.RotatedAtoms>
  151.7749  133.3344  159.3454 H   0  0  0  0  0  0  0  0  0  0  0  0  # atno 6907 bound_to 6896
  150.7447  134.5984  159.6033 H   0  0  0  0  0  0  0  0  0  0  0  0  # atno 6908 bound_to 6896
  152.3315  134.7254  160.0339 H   0  0  0  0  0  0  0  0  0  0  0  0  # atno 6909 bound_to 6896
  146.2015  140.3549  142.8422 H   0  0  0  0  0  0  0  0  0  0  0  0  # atno 7974 bound_to 7965
  155.1202  140.0398  157.2748 H   0  0  0  0  0  0  0  0  0  0  0  0  # atno 8008 bound_to 7997
  154.6619  140.2593  155.7074 H   0  0  0  0  0  0  0  0  0  0  0  0  # atno 8009 bound_to 7997
  156.2623  140.2815  156.1095 H   0  0  0  0  0  0  0  0  0  0  0  0  # atno 8010 bound_to 7997
  139.9912  143.5639  152.2341 H   0  0  0  0  0  0  0  0  0  0  0  0  # atno 10167 bound_to 10162
  157.5938  130.9079  149.9656 H   0  0  0  0  0  0  0  0  0  0  0  0  # atno 10718 bound_to 10713
  154.1662  135.2807  155.3094 H   0  0  0  0  0  0  0  0  0  0  0  0  # atno 10763 bound_to 10752
  154.6109  135.5499  153.7476 H   0  0  0  0  0  0  0  0  0  0  0  0  # atno 10764 bound_to 10752
  153.0178  135.6415  154.1803 H   0  0  0  0  0  0  0  0  0  0  0  0  # atno 10765 bound_to 10752
  141.1588  133.6811  156.6870 H   0  0  0  0  0  0  0  0  0  0  0  0  # atno 11005 bound_to 11000
  144.8694  140.7251  143.6057 LP  0  0  0  0  0  0  0  0  0  0  0  0  # atno 17320 bound_to 7965
  145.3468  139.1717  143.4456 LP  0  0  0  0  0  0  0  0  0  0  0  0  # atno 17321 bound_to 7965
  139.6339  144.7647  151.2479 LP  0  0  0  0  0  0  0  0  0  0  0  0  # atno 17342 bound_to 10162
  140.7454  143.6433  150.8315 LP  0  0  0  0  0  0  0  0  0  0  0  0  # atno 17343 bound_to 10162
  156.0997  130.3656  150.0240 LP  0  0  0  0  0  0  0  0  0  0  0  0  # atno 17370 bound_to 10713
  156.8357  130.9408  151.3635 LP  0  0  0  0  0  0  0  0  0  0  0  0  # atno 17371 bound_to 10713
  140.3059  134.8126  157.4136 LP  0  0  0  0  0  0  0  0  0  0  0  0  # atno 17394 bound_to 11000
  140.1221  134.5206  155.8175 LP  0  0  0  0  0  0  0  0  0  0  0  0  # atno 17395 bound_to 11000

$$$$
