AV-unprocessed.smi:3116|AV-procd|sdf|11875|dock2
  -GOLD-   2272017263D 1   1.00000     0.00000
 Structure written by MMmdl.
 33 33  0  0  0  0  0  0  0  0  1 V2000
  153.0470  138.5280  156.0898 C   0  0  0  0  0  0  0  0  0  0  0  0
  151.5243  138.3911  155.9385 C   0  0  1  0  0  0  0  0  0  0  0  0
  150.8867  139.7061  156.1296 N   0  0  0  0  0  0  0  0  0  0  0  0
  151.5230  140.5682  157.1281 C   0  0  2  0  0  0  0  0  0  0  0  0
  151.4715  139.7990  158.4593 C   0  0  0  0  0  0  0  0  0  0  0  0
  150.7841  141.9342  157.1847 C   0  0  1  0  0  0  0  0  0  0  0  0
  149.3252  141.8118  157.6666 C   0  0  0  0  0  0  0  0  0  0  0  0
  151.5022  142.9006  158.0093 N   0  0  0  0  0  0  0  0  0  0  0  0
  151.3496  144.2717  158.0399 C   0  0  0  0  0  0  0  0  0  0  0  0
  152.2540  144.7647  158.9359 C   0  0  0  0  0  0  0  0  0  0  0  0
  152.9270  143.6045  159.4095 C   0  0  0  0  0  0  0  0  0  0  0  0
  152.4783  142.4915  158.8525 N   0  0  0  0  0  0  0  0  0  0  0  0
  151.1705  137.7487  154.5872 C   0  0  0  0  0  0  0  0  0  0  0  0
  149.8753  137.5616  154.3218 N   0  0  0  0  0  0  0  0  0  0  0  0
  152.0524  137.4419  153.7871 O   0  0  0  0  0  0  0  0  0  0  0  0
  153.5466  137.5676  155.9574 H   0  0  0  0  0  0  0  0  0  0  0  0
  153.3075  138.8948  157.0832 H   0  0  0  0  0  0  0  0  0  0  0  0
  153.4641  139.2242  155.3607 H   0  0  0  0  0  0  0  0  0  0  0  0
  151.1866  137.7270  156.7349 H   0  0  0  0  0  0  0  0  0  0  0  0
  150.7921  140.2091  155.2594 H   0  0  0  0  0  0  0  0  0  0  0  0
  152.5719  140.7454  156.8881 H   0  0  0  0  0  0  0  0  0  0  0  0
  152.0084  140.3251  159.2481 H   0  0  0  0  0  0  0  0  0  0  0  0
  151.9367  138.8170  158.3628 H   0  0  0  0  0  0  0  0  0  0  0  0
  150.4450  139.6487  158.7953 H   0  0  0  0  0  0  0  0  0  0  0  0
  150.7530  142.3452  156.1741 H   0  0  0  0  0  0  0  0  0  0  0  0
  148.7162  141.2428  156.9647 H   0  0  0  0  0  0  0  0  0  0  0  0
  148.8627  142.7946  157.7638 H   0  0  0  0  0  0  0  0  0  0  0  0
  149.2633  141.3184  158.6371 H   0  0  0  0  0  0  0  0  0  0  0  0
  150.6210  144.7782  157.4239 H   0  0  0  0  0  0  0  0  0  0  0  0
  152.4120  145.7974  159.2092 H   0  0  0  0  0  0  0  0  0  0  0  0
  153.7248  143.5386  160.1344 H   0  0  0  0  0  0  0  0  0  0  0  0
  149.5957  137.1383  153.4488 H   0  0  0  0  0  0  0  0  0  0  0  0
  149.1807  137.8404  154.9992 H   0  0  0  0  0  0  0  0  0  0  0  0
  1  2  1  0  0  0  0
  1 16  1  0  0  0  0
  1 17  1  0  0  0  0
  1 18  1  0  0  0  0
  2  3  1  0  0  0  0
  2 13  1  0  0  0  0
  2 19  1  0  0  0  0
  3  4  1  0  0  0  0
  3 20  1  0  0  0  0
  4  5  1  0  0  0  0
  4  6  1  0  0  0  0
  4 21  1  0  0  0  0
  5 22  1  0  0  0  0
  5 23  1  0  0  0  0
  5 24  1  0  0  0  0
  6  7  1  0  0  0  0
  6  8  1  0  0  0  0
  6 25  1  0  0  0  0
  7 26  1  0  0  0  0
  7 27  1  0  0  0  0
  7 28  1  0  0  0  0
  8 12  1  0  0  0  0
  8  9  1  0  0  0  0
  9 10  2  0  0  0  0
  9 29  1  0  0  0  0
 10 11  1  0  0  0  0
 10 30  1  0  0  0  0
 11 12  2  0  0  0  0
 11 31  1  0  0  0  0
 13 14  1  0  0  0  0
 13 15  2  0  0  0  0
 14 32  1  0  0  0  0
 14 33  1  0  0  0  0
M  END
> <s_m_source_file>
AV-unprocessed.smi

> <i_m_source_file_index>
3116

> <i_lp_mmshare_version>
43012

> <i_f3d_flags>
0

> <s_epik_input>
W05IMl1DKD1PKVtDQEhdKFtDSDNdKVtOSF1bQ0BIXShbQ0gzXSlbQ0BIXShbQ0gzXSluMVtjSF1bY0hdW2NIXW4x

> <s_epik_cmdline>
J2VwaWtfcHl0aG9uJywgJy1waCcsICc3LjAnLCAnLXRuJywgJzgnLCAnLW1hJywgJzIwMCcsICctbWV0YWxfYmluZGluZycsICctaW1hZScsICc8aW5maWxlLm1hZT4nLCAnLW9tYWUnLCAnPG91dGZpbGUubWFlPic=

> <r_lp_tautomer_probability>
1

> <r_epik_Ionization_Penalty>
0.865977

> <r_epik_Ionization_Penalty_Charging>
0

> <r_epik_Ionization_Penalty_Neutral>
0.865977

> <r_epik_State_Penalty>
0.901888

> <r_epik_Charging_Adjusted_Penalty>
0.901888

> <i_epik_Tot_Q>
0

> <i_epik_Tot_abs_Q>
0

> <r_epik_Metal_State_Penalty>
0.901181

> <b_epik_Metal_Only>
0

> <s_lp_Force_Field>
OPLS_2005

> <r_lp_Energy>
8.89759

> <b_lp_Chiralities_Consistent>
1

> <s_lp_Variant>
AV-unprocessed.smi:3116-14

> <Gold.Version>
5.8.1

> <Gold.Id.Protein>
6NUR|6NUR_protein|mol2

> <Gold.PLP.Fitness>
38.0060

> <Gold.PLP.PLP>
-30.2605

> <Gold.PLP.part.hbond>
-2.0000

> <Gold.PLP.part.metal>
0.0000

> <Gold.PLP.part.buried>
-3.8415

> <Gold.PLP.part.nonpolar>
-25.7663

> <Gold.PLP.part.repulsive>
1.5133

> <Gold.PLP.ligand.clash>
0.0000

> <Gold.PLP.ligand.torsion>
0.6069

> <Gold.PLP.Chemscore.Hbond>
1.9440

> <Gold.PLP.Chemscore.CHOScore>
1.0000

> <Gold.PLP.Chemscore.Metal>
0.0000

> <Gold.Chemscore.Hbonds>
donor molecule, donor type, donor heavy atom, donor atom, acceptor molecule, acceptor atom, score
      L1  H    14    32       P1  7948  1.00
      P1  H 10752 10763       L1    15  0.98
      L1  C     9    29       P1  8028  1.00

> <Gold.PLP.Chemscore.Internal.Correction>
0.1273

> <Gold.Rescore>
     Score         DG    S(hbond)    S(metal)    S(lipo)     H(rot)  DE(clash)    DE(int)     intcor
     11.31     -14.99       1.98        0.00      76.81       2.38       1.80       1.89       ----

> <Gold.Chemscore.Fitness>
11.3104

> <Gold.Chemscore.DG>
-14.9947

> <Gold.Chemscore.ZeroCoef>
-5.4800

> <Gold.Chemscore.Hbond>
1.9850

> <Gold.Chemscore.Metal>
0.0000

> <Gold.Chemscore.Lipo>
76.8104

> <Gold.Chemscore.Internal_Hbond>
0.0000

> <Gold.Chemscore.DEClash>
1.7964

> <Gold.Chemscore.DEInternal>
1.8879

> <Gold.Chemscore.Rot>
2.3836

> <Gold.Chemscore.Internal.Correction>
   9.000000E+99

> <Gold.Chemscore.Hbonds>
donor molecule, donor type, donor heavy atom, donor atom, acceptor molecule, acceptor atom, score
      L1  H    14    32       P1  7948  0.78
      P1  H 10752 10763       L1    15  0.88

> <Gold.Chemscore.Hbond.Weighted>
-6.6298

> <Gold.Chemscore.Metal.Weighted>
-0.0000

> <Gold.Chemscore.Lipo.Weighted>
-8.9868

> <Gold.Chemscore.Internal_Hbond.Weighted>
0.0000

> <Gold.Chemscore.DEClash.Weighted>
1.7964

> <Gold.Chemscore.DEInternal.Weighted>
1.8879

> <Gold.Chemscore.Rot.Weighted>
6.1020

> <Gold.Chemscore.Internal.Correction.Weighted>
   9.000000E+99

> <Gold.Protein.RotatedTorsions>
[ 6907 6896 6895 6894 ] final   59.33 input  -60.11 | X-H torsion
[ 7974 7965 7964 7962 ] final  122.07 input  175.53 | X-H torsion
[ 8008 7997 7996 7995 ] final  -88.37 input   59.86 | X-H torsion
[ 10167 10162 10161 10158 ] final  172.98 input  -65.29 | X-H torsion
[ 10718 10713 10712 10709 ] final  -42.96 input   66.30 | X-H torsion
[ 10763 10752 10751 10750 ] final   23.12 input  -60.55 | X-H torsion
[ 11005 11000 10999 10996 ] final  156.89 input  -57.11 | X-H torsion

> <Gold.Protein.ActiveResidues>
 VAL166  LYS551  ARG553  GLY616  TRP617  ASP618  TYR619  PRO620  LYS621  CYS622 
 ASP623  PHE694  ASN695  SER759  ASP760  ASP761  ALA762  ILE779  LEU786  VAL792 
 PHE793  MET794  SER795  GLU796  ALA797  LYS798  CYS799  TRP800  GLU811  SER814 

> <Gold.Protein.RotatedAtoms>
  152.3905  134.6448  160.0108 H   0  0  0  0  0  0  0  0  0  0  0  0  # atno 6907 bound_to 6896
  151.6684  133.3309  159.3198 H   0  0  0  0  0  0  0  0  0  0  0  0  # atno 6908 bound_to 6896
  150.7822  134.6821  159.6494 H   0  0  0  0  0  0  0  0  0  0  0  0  # atno 6909 bound_to 6896
  145.1119  139.3447  143.4759 H   0  0  0  0  0  0  0  0  0  0  0  0  # atno 7974 bound_to 7965
  154.6740  140.0554  157.0196 H   0  0  0  0  0  0  0  0  0  0  0  0  # atno 8008 bound_to 7997
  155.1047  140.3232  155.4519 H   0  0  0  0  0  0  0  0  0  0  0  0  # atno 8009 bound_to 7997
  156.2669  140.2025  156.6172 H   0  0  0  0  0  0  0  0  0  0  0  0  # atno 8010 bound_to 7997
  139.5093  144.3313  152.0109 H   0  0  0  0  0  0  0  0  0  0  0  0  # atno 10167 bound_to 10162
  156.2540  130.4190  149.8617 H   0  0  0  0  0  0  0  0  0  0  0  0  # atno 10718 bound_to 10713
  153.0862  135.6633  153.9944 H   0  0  0  0  0  0  0  0  0  0  0  0  # atno 10763 bound_to 10752
  153.9553  135.2979  155.3438 H   0  0  0  0  0  0  0  0  0  0  0  0  # atno 10764 bound_to 10752
  154.7270  135.5139  153.8975 H   0  0  0  0  0  0  0  0  0  0  0  0  # atno 10765 bound_to 10752
  140.1718  134.8538  157.2699 H   0  0  0  0  0  0  0  0  0  0  0  0  # atno 11005 bound_to 11000
  146.3526  140.1041  142.8606 LP  0  0  0  0  0  0  0  0  0  0  0  0  # atno 17320 bound_to 7965
  145.0837  140.9238  143.4810 LP  0  0  0  0  0  0  0  0  0  0  0  0  # atno 17321 bound_to 7965
  140.2752  144.3920  150.6137 LP  0  0  0  0  0  0  0  0  0  0  0  0  # atno 17342 bound_to 10162
  140.6059  143.2167  151.6982 LP  0  0  0  0  0  0  0  0  0  0  0  0  # atno 17343 bound_to 10162
  156.6156  130.8605  151.3464 LP  0  0  0  0  0  0  0  0  0  0  0  0  # atno 17370 bound_to 10713
  157.7225  130.9578  150.1498 LP  0  0  0  0  0  0  0  0  0  0  0  0  # atno 17371 bound_to 10713
  140.2369  134.3842  155.7497 LP  0  0  0  0  0  0  0  0  0  0  0  0  # atno 17394 bound_to 11000
  141.2218  133.7244  156.8728 LP  0  0  0  0  0  0  0  0  0  0  0  0  # atno 17395 bound_to 11000

$$$$
