AV-unprocessed.smi:1232|AV-procd|sdf|5168|dock3
  -GOLD-   22720 4243D 1   1.00000     0.00000
 Structure written by MMmdl.
 53 54  0  0  0  0  0  0  0  0  1 V2000
  147.5725  135.0335  159.0013 C   0  0  0  0  0  0  0  0  0  0  0  0
  148.5241  134.6699  157.8661 C   0  0  0  0  0  0  0  0  0  0  0  0
  149.5712  134.0771  158.1200 O   0  0  0  0  0  0  0  0  0  0  0  0
  148.1446  135.0395  156.6293 N   0  0  0  0  0  0  0  0  0  0  0  0
  148.8243  134.8030  155.3473 C   0  0  1  0  0  0  0  0  0  0  0  0
  150.1822  135.5272  155.2965 C   0  0  0  0  0  0  0  0  0  0  0  0
  151.1137  135.1555  156.0109 O   0  0  0  0  0  0  0  0  0  0  0  0
  150.2865  136.5467  154.4285 N   0  0  0  0  0  0  0  0  0  0  0  0
  151.4791  137.3578  154.2067 C   0  0  0  0  0  0  0  0  0  0  0  0
  151.5741  138.5475  155.1470 C   0  0  0  0  0  0  0  0  0  0  0  0
  150.6085  139.5725  155.1128 C   0  0  0  0  0  0  0  0  0  0  0  0
  150.7361  140.6617  155.9958 C   0  0  0  0  0  0  0  0  0  0  0  0
  151.8325  140.7020  156.8904 C   0  0  0  0  0  0  0  0  0  0  0  0
  151.9859  141.7894  157.7783 N   0  0  0  0  0  0  0  0  0  0  0  0
  151.1334  142.9607  157.5827 C   0  0  0  0  0  0  0  0  0  0  0  0
  151.6271  144.1332  158.4463 C   0  0  0  0  0  0  0  0  0  0  0  0
  151.7047  143.7263  159.8086 O   0  0  0  0  0  0  0  0  0  0  0  0
  152.6271  142.6568  159.9976 C   0  0  1  0  0  0  0  0  0  0  0  0
  152.7092  142.3515  161.4970 C   0  0  0  0  0  0  0  0  0  0  0  0
  152.1611  141.4337  159.1843 C   0  0  0  0  0  0  0  0  0  0  0  0
  152.7565  139.7097  156.9231 N   0  0  0  0  0  0  0  0  0  0  0  0
  152.6304  138.6686  156.0737 C   0  0  0  0  0  0  0  0  0  0  0  0
  148.8408  133.3094  154.8926 C   0  0  0  0  0  0  0  0  0  0  0  0
  149.9495  132.4867  155.5787 C   0  0  0  0  0  0  0  0  0  0  0  0
  148.9790  133.1692  153.3640 C   0  0  0  0  0  0  0  0  0  0  0  0
  146.8098  135.7414  158.6744 H   0  0  0  0  0  0  0  0  0  0  0  0
  148.1237  135.4853  159.8263 H   0  0  0  0  0  0  0  0  0  0  0  0
  147.0739  134.1379  159.3722 H   0  0  0  0  0  0  0  0  0  0  0  0
  147.2673  135.5347  156.5632 H   0  0  0  0  0  0  0  0  0  0  0  0
  148.1882  135.3227  154.6286 H   0  0  0  0  0  0  0  0  0  0  0  0
  149.4742  136.7774  153.8747 H   0  0  0  0  0  0  0  0  0  0  0  0
  152.3854  136.7576  154.3006 H   0  0  0  0  0  0  0  0  0  0  0  0
  151.4561  137.7084  153.1745 H   0  0  0  0  0  0  0  0  0  0  0  0
  149.7776  139.5275  154.4241 H   0  0  0  0  0  0  0  0  0  0  0  0
  149.9894  141.4417  155.9844 H   0  0  0  0  0  0  0  0  0  0  0  0
  151.1353  143.2596  156.5338 H   0  0  0  0  0  0  0  0  0  0  0  0
  150.1058  142.7092  157.8493 H   0  0  0  0  0  0  0  0  0  0  0  0
  152.6012  144.4866  158.1041 H   0  0  0  0  0  0  0  0  0  0  0  0
  150.9381  144.9740  158.3660 H   0  0  0  0  0  0  0  0  0  0  0  0
  153.6141  142.9711  159.6537 H   0  0  0  0  0  0  0  0  0  0  0  0
  153.4151  141.5444  161.6950 H   0  0  0  0  0  0  0  0  0  0  0  0
  151.7384  142.0518  161.8928 H   0  0  0  0  0  0  0  0  0  0  0  0
  153.0410  143.2271  162.0554 H   0  0  0  0  0  0  0  0  0  0  0  0
  151.2101  141.0655  159.5713 H   0  0  0  0  0  0  0  0  0  0  0  0
  152.8849  140.6294  159.3086 H   0  0  0  0  0  0  0  0  0  0  0  0
  153.3996  137.9136  156.1370 H   0  0  0  0  0  0  0  0  0  0  0  0
  147.8996  132.8419  155.1801 H   0  0  0  0  0  0  0  0  0  0  0  0
  150.9348  132.9152  155.3925 H   0  0  0  0  0  0  0  0  0  0  0  0
  149.9604  131.4605  155.2101 H   0  0  0  0  0  0  0  0  0  0  0  0
  149.8059  132.4307  156.6580 H   0  0  0  0  0  0  0  0  0  0  0  0
  149.9033  133.6245  153.0076 H   0  0  0  0  0  0  0  0  0  0  0  0
  148.1514  133.6392  152.8338 H   0  0  0  0  0  0  0  0  0  0  0  0
  148.9905  132.1205  153.0656 H   0  0  0  0  0  0  0  0  0  0  0  0
  1  2  1  0  0  0  0
  1 26  1  0  0  0  0
  1 27  1  0  0  0  0
  1 28  1  0  0  0  0
  2  3  2  0  0  0  0
  2  4  1  0  0  0  0
  4  5  1  0  0  0  0
  4 29  1  0  0  0  0
  5  6  1  0  0  0  0
  5 23  1  0  0  0  0
  5 30  1  0  0  0  0
  6  7  2  0  0  0  0
  6  8  1  0  0  0  0
  8  9  1  0  0  0  0
  8 31  1  0  0  0  0
  9 10  1  0  0  0  0
  9 32  1  0  0  0  0
  9 33  1  0  0  0  0
 10 22  1  0  0  0  0
 10 11  2  0  0  0  0
 11 12  1  0  0  0  0
 11 34  1  0  0  0  0
 12 13  2  0  0  0  0
 12 35  1  0  0  0  0
 13 14  1  0  0  0  0
 13 21  1  0  0  0  0
 14 20  1  0  0  0  0
 14 15  1  0  0  0  0
 15 16  1  0  0  0  0
 15 36  1  0  0  0  0
 15 37  1  0  0  0  0
 16 17  1  0  0  0  0
 16 38  1  0  0  0  0
 16 39  1  0  0  0  0
 17 18  1  0  0  0  0
 18 19  1  0  0  0  0
 18 20  1  0  0  0  0
 18 40  1  0  0  0  0
 19 41  1  0  0  0  0
 19 42  1  0  0  0  0
 19 43  1  0  0  0  0
 20 44  1  0  0  0  0
 20 45  1  0  0  0  0
 21 22  2  0  0  0  0
 22 46  1  0  0  0  0
 23 24  1  0  0  0  0
 23 25  1  0  0  0  0
 23 47  1  0  0  0  0
 24 48  1  0  0  0  0
 24 49  1  0  0  0  0
 24 50  1  0  0  0  0
 25 51  1  0  0  0  0
 25 52  1  0  0  0  0
 25 53  1  0  0  0  0
M  END
> <s_m_source_file>
AV-unprocessed.smi

> <i_m_source_file_index>
1232

> <i_lp_mmshare_version>
43012

> <i_f3d_flags>
0

> <s_epik_input>
W0NIM11DKD1PKVtOSF1bQ0BASF0oW0NIXShbQ0gzXSlbQ0gzXSlDKD1PKVtOSF1bQ0gyXWMxW2NIXVtjSF1jKG5bY0hdMSlOMltDSDJdW0NIMl1PW0NAQEhdKFtDSDNdKVtDSDJdMg==

> <s_epik_cmdline>
J2VwaWtfcHl0aG9uJywgJy1waCcsICc3LjAnLCAnLXRuJywgJzgnLCAnLW1hJywgJzIwMCcsICctbWV0YWxfYmluZGluZycsICctaW1hZScsICc8aW5maWxlLm1hZT4nLCAnLW9tYWUnLCAnPG91dGZpbGUubWFlPic=

> <r_lp_tautomer_probability>
1

> <r_epik_Ionization_Penalty>
0.00557618

> <r_epik_Ionization_Penalty_Charging>
0

> <r_epik_Ionization_Penalty_Neutral>
0.00557618

> <r_epik_State_Penalty>
0.00408363

> <r_epik_Charging_Adjusted_Penalty>
0.00408363

> <i_epik_Tot_Q>
0

> <i_epik_Tot_abs_Q>
0

> <r_epik_Metal_State_Penalty>
-0

> <b_epik_Metal_Only>
0

> <s_lp_Force_Field>
OPLS_2005

> <r_lp_Energy>
20.4044

> <b_lp_Chiralities_Consistent>
1

> <s_lp_Variant>
AV-unprocessed.smi:1232-2

> <Gold.Version>
5.8.1

> <Gold.Id.Protein>
6NUR|6NUR_protein|mol2

> <Gold.PLP.Fitness>
54.1334

> <Gold.PLP.PLP>
-44.4254

> <Gold.PLP.part.hbond>
-5.0000

> <Gold.PLP.part.metal>
0.0000

> <Gold.PLP.part.buried>
0.4385

> <Gold.PLP.part.nonpolar>
-39.8790

> <Gold.PLP.part.repulsive>
0.1564

> <Gold.PLP.ligand.clash>
0.0000

> <Gold.PLP.ligand.torsion>
0.8070

> <Gold.PLP.Chemscore.Hbond>
3.5551

> <Gold.PLP.Chemscore.CHOScore>
0.0000

> <Gold.PLP.Chemscore.Metal>
0.0000

> <Gold.Chemscore.Hbonds>
donor molecule, donor type, donor heavy atom, donor atom, acceptor molecule, acceptor atom, score
      L1  H     8    31       P1  7948  0.45
      P1  H  6896  6909       L1     3  1.00
      P1  H  7997  8009       L1    21  0.90
      P1  H 10752 10763       L1     7  0.47

> <Gold.PLP.Chemscore.Internal.Correction>
0.6568

> <Gold.Rescore>
     Score         DG    S(hbond)    S(metal)    S(lipo)     H(rot)  DE(clash)    DE(int)     intcor
     17.05     -21.03       2.32        0.00     113.26       2.13       0.39       3.58       ----

> <Gold.Chemscore.Fitness>
17.0530

> <Gold.Chemscore.DG>
-21.0297

> <Gold.Chemscore.ZeroCoef>
-5.4800

> <Gold.Chemscore.Hbond>
2.3221

> <Gold.Chemscore.Metal>
0.0000

> <Gold.Chemscore.Lipo>
113.2569

> <Gold.Chemscore.Internal_Hbond>
0.0000

> <Gold.Chemscore.DEClash>
0.3922

> <Gold.Chemscore.DEInternal>
3.5845

> <Gold.Chemscore.Rot>
2.1317

> <Gold.Chemscore.Internal.Correction>
   9.000000E+99

> <Gold.Chemscore.Hbonds>
donor molecule, donor type, donor heavy atom, donor atom, acceptor molecule, acceptor atom, score
      L1  H     8    31       P1  7948  0.39
      P1  H  6896  6909       L1     3  1.00
      P1  H  7997  8009       L1    21  0.17
      P1  H 10752 10763       L1     7  0.38

> <Gold.Chemscore.Hbond.Weighted>
-7.7559

> <Gold.Chemscore.Metal.Weighted>
-0.0000

> <Gold.Chemscore.Lipo.Weighted>
-13.2511

> <Gold.Chemscore.Internal_Hbond.Weighted>
0.0000

> <Gold.Chemscore.DEClash.Weighted>
0.3922

> <Gold.Chemscore.DEInternal.Weighted>
3.5845

> <Gold.Chemscore.Rot.Weighted>
5.4572

> <Gold.Chemscore.Internal.Correction.Weighted>
   9.000000E+99

> <Gold.Protein.RotatedTorsions>
[ 6907 6896 6895 6894 ] final   21.74 input  -60.11 | X-H torsion
[ 7974 7965 7964 7962 ] final   89.54 input  175.53 | X-H torsion
[ 8008 7997 7996 7995 ] final -177.67 input   59.86 | X-H torsion
[ 10167 10162 10161 10158 ] final   64.04 input  -65.29 | X-H torsion
[ 10718 10713 10712 10709 ] final -122.35 input   66.30 | X-H torsion
[ 10763 10752 10751 10750 ] final   86.74 input  -60.55 | X-H torsion
[ 11005 11000 10999 10996 ] final   70.44 input  -57.11 | X-H torsion

> <Gold.Protein.ActiveResidues>
 VAL166  LYS551  ARG553  GLY616  TRP617  ASP618  TYR619  PRO620  LYS621  CYS622 
 ASP623  PHE694  ASN695  SER759  ASP760  ASP761  ALA762  ILE779  LEU786  VAL792 
 PHE793  MET794  SER795  GLU796  ALA797  LYS798  CYS799  TRP800  GLU811  SER814 

> <Gold.Protein.RotatedAtoms>
  151.9164  135.0317  160.0518 H   0  0  0  0  0  0  0  0  0  0  0  0  # atno 6907 bound_to 6896
  152.2236  133.4998  159.5184 H   0  0  0  0  0  0  0  0  0  0  0  0  # atno 6908 bound_to 6896
  150.7006  134.1226  159.4083 H   0  0  0  0  0  0  0  0  0  0  0  0  # atno 6909 bound_to 6896
  145.5310  139.2283  143.2618 H   0  0  0  0  0  0  0  0  0  0  0  0  # atno 7974 bound_to 7965
  156.0097  140.1238  157.0466 H   0  0  0  0  0  0  0  0  0  0  0  0  # atno 8008 bound_to 7997
  154.4271  140.1090  156.5882 H   0  0  0  0  0  0  0  0  0  0  0  0  # atno 8009 bound_to 7997
  155.6097  140.3471  155.4620 H   0  0  0  0  0  0  0  0  0  0  0  0  # atno 8010 bound_to 7997
  140.1265  144.4683  150.6889 H   0  0  0  0  0  0  0  0  0  0  0  0  # atno 10167 bound_to 10162
  156.1412  130.6467  150.9773 H   0  0  0  0  0  0  0  0  0  0  0  0  # atno 10718 bound_to 10713
  153.1599  135.4569  154.9758 H   0  0  0  0  0  0  0  0  0  0  0  0  # atno 10763 bound_to 10752
  154.7890  135.3214  154.7823 H   0  0  0  0  0  0  0  0  0  0  0  0  # atno 10764 bound_to 10752
  153.8315  135.6938  153.4868 H   0  0  0  0  0  0  0  0  0  0  0  0  # atno 10765 bound_to 10752
  139.9597  134.7082  156.0673 H   0  0  0  0  0  0  0  0  0  0  0  0  # atno 11005 bound_to 11000
  146.2044  140.6127  142.9088 LP  0  0  0  0  0  0  0  0  0  0  0  0  # atno 17320 bound_to 7965
  144.7626  140.5456  143.6725 LP  0  0  0  0  0  0  0  0  0  0  0  0  # atno 17321 bound_to 7965
  140.6842  143.2341  151.5305 LP  0  0  0  0  0  0  0  0  0  0  0  0  # atno 17342 bound_to 10162
  139.5541  144.2319  152.1582 LP  0  0  0  0  0  0  0  0  0  0  0  0  # atno 17343 bound_to 10162
  157.6577  131.0886  150.7910 LP  0  0  0  0  0  0  0  0  0  0  0  0  # atno 17370 bound_to 10713
  156.7986  130.4913  149.5373 LP  0  0  0  0  0  0  0  0  0  0  0  0  # atno 17371 bound_to 10713
  141.1273  133.6596  156.3370 LP  0  0  0  0  0  0  0  0  0  0  0  0  # atno 17394 bound_to 11000
  140.5528  134.6011  157.5412 LP  0  0  0  0  0  0  0  0  0  0  0  0  # atno 17395 bound_to 11000

$$$$
