AV-unprocessed.smi:1487|AV-procd|sdf|6011|dock9
  -GOLD-   22720 6113D 1   1.00000     0.00000
 Structure written by MMmdl.
 48 50  0  0  0  0  0  0  0  0  2 V2000
  153.0841  142.9217  160.8916 C   0  0  0  0  0  0  0  0  0  0  0  0
  152.4052  142.5328  159.5903 C   0  0  0  0  0  0  0  0  0  0  0  0
  152.8347  141.3699  158.9124 C   0  0  0  0  0  0  0  0  0  0  0  0
  152.2288  140.9727  157.7005 C   0  0  0  0  0  0  0  0  0  0  0  0
  152.4868  139.8877  156.8804 N   0  0  0  0  0  0  0  0  0  0  0  0
  151.5940  140.0653  155.9117 C   0  0  0  0  0  0  0  0  0  0  0  0
  150.7900  141.1419  156.0034 N   0  0  0  0  0  0  0  0  0  0  0  0
  149.7511  141.5358  155.0682 C   0  0  0  0  0  0  0  0  0  0  0  0
  148.6300  140.4849  154.9600 C   0  0  2  0  0  0  0  0  0  0  0  0
  148.0894  140.2442  156.2452 O   0  0  0  0  0  0  0  0  0  0  0  0
  149.1494  139.1511  154.3888 C   0  0  0  0  0  0  0  0  0  0  0  0
  148.0942  138.3978  153.6644 N   0  3  1  0  0  0  0  0  0  0  0  0
  147.1950  137.6315  154.5668 C   0  0  0  0  0  0  0  0  0  0  0  0
  146.2427  136.7350  153.7609 C   0  0  0  0  0  0  0  0  0  0  0  0
  145.4215  137.5636  152.7626 C   0  0  0  0  0  0  0  0  0  0  0  0
  146.3352  138.4296  151.8789 C   0  0  2  0  0  0  0  0  0  0  0  0
  147.0467  137.6216  150.9625 O   0  0  0  0  0  0  0  0  0  0  0  0
  147.3292  139.2546  152.7203 C   0  0  0  0  0  0  0  0  0  0  0  0
  151.1732  141.7775  157.1801 C   0  0  0  0  0  0  0  0  0  0  0  0
  150.7386  142.9381  157.8444 C   0  0  0  0  0  0  0  0  0  0  0  0
  151.3542  143.3200  159.0548 C   0  0  0  0  0  0  0  0  0  0  0  0
  150.8758  144.5730  159.7665 C   0  0  0  0  0  0  0  0  0  0  0  0
  153.8372  142.1889  161.1826 H   0  0  0  0  0  0  0  0  0  0  0  0
  152.3549  142.9888  161.6993 H   0  0  0  0  0  0  0  0  0  0  0  0
  153.5789  143.8878  160.7892 H   0  0  0  0  0  0  0  0  0  0  0  0
  153.6360  140.7708  159.3196 H   0  0  0  0  0  0  0  0  0  0  0  0
  151.5220  139.3743  155.0844 H   0  0  0  0  0  0  0  0  0  0  0  0
  149.3416  142.4909  155.3999 H   0  0  0  0  0  0  0  0  0  0  0  0
  150.2052  141.7153  154.0926 H   0  0  0  0  0  0  0  0  0  0  0  0
  147.8385  140.8872  154.3282 H   0  0  0  0  0  0  0  0  0  0  0  0
  148.8012  140.1777  156.8643 H   0  0  0  0  0  0  0  0  0  0  0  0
  149.9926  139.3213  153.7175 H   0  0  0  0  0  0  0  0  0  0  0  0
  149.5376  138.5518  155.2141 H   0  0  0  0  0  0  0  0  0  0  0  0
  147.7768  137.0085  155.2451 H   0  0  0  0  0  0  0  0  0  0  0  0
  146.6236  138.3233  155.1881 H   0  0  0  0  0  0  0  0  0  0  0  0
  146.8173  135.9754  153.2291 H   0  0  0  0  0  0  0  0  0  0  0  0
  145.5748  136.1992  154.4359 H   0  0  0  0  0  0  0  0  0  0  0  0
  144.7969  136.9127  152.1495 H   0  0  0  0  0  0  0  0  0  0  0  0
  144.7396  138.2120  153.3143 H   0  0  0  0  0  0  0  0  0  0  0  0
  145.7201  139.1093  151.2883 H   0  0  0  0  0  0  0  0  0  0  0  0
  147.5607  136.9943  151.4486 H   0  0  0  0  0  0  0  0  0  0  0  0
  146.7902  140.0142  153.2888 H   0  0  0  0  0  0  0  0  0  0  0  0
  148.0138  139.7863  152.0574 H   0  0  0  0  0  0  0  0  0  0  0  0
  149.9380  143.5302  157.4262 H   0  0  0  0  0  0  0  0  0  0  0  0
  150.0885  145.0745  159.2030 H   0  0  0  0  0  0  0  0  0  0  0  0
  151.6971  145.2786  159.8939 H   0  0  0  0  0  0  0  0  0  0  0  0
  150.4769  144.3241  160.7501 H   0  0  0  0  0  0  0  0  0  0  0  0
  148.5790  137.7238  153.0880 H   0  0  0  0  0  0  0  0  0  0  0  0
  1  2  1  0  0  0  0
  1 23  1  0  0  0  0
  1 24  1  0  0  0  0
  1 25  1  0  0  0  0
  2 21  1  0  0  0  0
  2  3  2  0  0  0  0
  3  4  1  0  0  0  0
  3 26  1  0  0  0  0
  4 19  2  0  0  0  0
  4  5  1  0  0  0  0
  5  6  2  0  0  0  0
  6  7  1  0  0  0  0
  6 27  1  0  0  0  0
  7  8  1  0  0  0  0
  7 19  1  0  0  0  0
  8  9  1  0  0  0  0
  8 28  1  0  0  0  0
  8 29  1  0  0  0  0
  9 10  1  0  0  0  0
  9 11  1  0  0  0  0
  9 30  1  0  0  0  0
 10 31  1  0  0  0  0
 11 12  1  0  0  0  0
 11 32  1  0  0  0  0
 11 33  1  0  0  0  0
 12 18  1  0  0  0  0
 12 13  1  0  0  0  0
 12 48  1  0  0  0  0
 13 14  1  0  0  0  0
 13 34  1  0  0  0  0
 13 35  1  0  0  0  0
 14 15  1  0  0  0  0
 14 36  1  0  0  0  0
 14 37  1  0  0  0  0
 15 16  1  0  0  0  0
 15 38  1  0  0  0  0
 15 39  1  0  0  0  0
 16 17  1  0  0  0  0
 16 18  1  0  0  0  0
 16 40  1  0  0  0  0
 17 41  1  0  0  0  0
 18 42  1  0  0  0  0
 18 43  1  0  0  0  0
 19 20  1  0  0  0  0
 20 21  2  0  0  0  0
 20 44  1  0  0  0  0
 21 22  1  0  0  0  0
 22 45  1  0  0  0  0
 22 46  1  0  0  0  0
 22 47  1  0  0  0  0
M  CHG  1  12   1
M  END
> <s_m_source_file>
AV-unprocessed.smi

> <i_m_source_file_index>
1487

> <i_lp_mmshare_version>
43012

> <i_f3d_flags>
0

> <s_epik_input>
W0NIM11jKFtjSF0xKWMoW0NIM10pW2NIXWMoYzEyKW4oW2NIXW4yKVtDSDJdW0NASF0oW09IXSlbQ0gyXU4zW0NIMl1bQ0gyXVtDSDJdW0NAQEhdKFtPSF0pW0NIMl0z

> <s_epik_cmdline>
J2VwaWtfcHl0aG9uJywgJy1waCcsICc3LjAnLCAnLXRuJywgJzgnLCAnLW1hJywgJzIwMCcsICctbWV0YWxfYmluZGluZycsICctaW1hZScsICc8aW5maWxlLm1hZT4nLCAnLW9tYWUnLCAnPG91dGZpbGUubWFlPic=

> <r_epik_Ionization_Penalty>
0.0940186

> <r_epik_Ionization_Penalty_Charging>
0.00679686

> <r_epik_Ionization_Penalty_Neutral>
0.0872218

> <r_epik_State_Penalty>
0.0799311

> <r_epik_Charging_Adjusted_Penalty>
0.086728

> <i_epik_Tot_Q>
1

> <i_epik_Tot_abs_Q>
1

> <r_epik_Metal_State_Penalty>
7.95545e-05

> <b_epik_Metal_Only>
0

> <s_lp_Force_Field>
OPLS_2005

> <r_lp_Energy>
22.5409

> <b_lp_Chiralities_Consistent>
1

> <s_lp_Variant>
AV-unprocessed.smi:1487-5

> <Gold.Version>
5.8.1

> <Gold.Id.Protein>
6NUR|6NUR_protein|mol2

> <Gold.PLP.Fitness>
55.9669

> <Gold.PLP.PLP>
-42.4312

> <Gold.PLP.part.hbond>
-3.6955

> <Gold.PLP.part.metal>
0.0000

> <Gold.PLP.part.buried>
-2.4807

> <Gold.PLP.part.nonpolar>
-37.0708

> <Gold.PLP.part.repulsive>
0.0141

> <Gold.PLP.ligand.clash>
0.0000

> <Gold.PLP.ligand.torsion>
0.4920

> <Gold.PLP.Chemscore.Hbond>
4.8260

> <Gold.PLP.Chemscore.CHOScore>
0.0000

> <Gold.PLP.Chemscore.Metal>
0.0000

> <Gold.Chemscore.Hbonds>
donor molecule, donor type, donor heavy atom, donor atom, acceptor molecule, acceptor atom, score
      L1  H    12    48       P1  7948  2.00
      L1  H    17    41       P1  7948  1.00
      P1  H  7954  7966       L1    17  0.70
      P1  H  7997  8009       L1     5  1.00

> <Gold.PLP.Chemscore.Internal.Correction>
0.0417

> <Gold.Rescore>
     Score         DG    S(hbond)    S(metal)    S(lipo)     H(rot)  DE(clash)    DE(int)     intcor
     20.19     -20.97       2.82        0.00     110.47       2.67       0.10       0.68       ----

> <Gold.Chemscore.Fitness>
20.1866

> <Gold.Chemscore.DG>
-20.9712

> <Gold.Chemscore.ZeroCoef>
-5.4800

> <Gold.Chemscore.Hbond>
2.8157

> <Gold.Chemscore.Metal>
0.0000

> <Gold.Chemscore.Lipo>
110.4710

> <Gold.Chemscore.Internal_Hbond>
0.0000

> <Gold.Chemscore.DEClash>
0.1015

> <Gold.Chemscore.DEInternal>
0.6832

> <Gold.Chemscore.Rot>
2.6712

> <Gold.Chemscore.Internal.Correction>
   9.000000E+99

> <Gold.Chemscore.Hbonds>
donor molecule, donor type, donor heavy atom, donor atom, acceptor molecule, acceptor atom, score
      L1  H    12    48       P1  7948  0.99
      L1  H    17    41       P1  7948  0.95
      P1  H  7954  7966       L1    17  0.07
      P1  H  7997  8009       L1     5  0.40

> <Gold.Chemscore.Hbond.Weighted>
-9.4045

> <Gold.Chemscore.Metal.Weighted>
-0.0000

> <Gold.Chemscore.Lipo.Weighted>
-12.9251

> <Gold.Chemscore.Internal_Hbond.Weighted>
0.0000

> <Gold.Chemscore.DEClash.Weighted>
0.1015

> <Gold.Chemscore.DEInternal.Weighted>
0.6832

> <Gold.Chemscore.Rot.Weighted>
6.8383

> <Gold.Chemscore.Internal.Correction.Weighted>
   9.000000E+99

> <Gold.Protein.RotatedTorsions>
[ 6907 6896 6895 6894 ] final  -88.86 input  -60.11 | X-H torsion
[ 7974 7965 7964 7962 ] final -140.36 input  175.53 | X-H torsion
[ 8008 7997 7996 7995 ] final -162.25 input   59.86 | X-H torsion
[ 10167 10162 10161 10158 ] final  146.94 input  -65.29 | X-H torsion
[ 10718 10713 10712 10709 ] final   36.13 input   66.30 | X-H torsion
[ 10763 10752 10751 10750 ] final  -18.61 input  -60.55 | X-H torsion
[ 11005 11000 10999 10996 ] final   64.86 input  -57.11 | X-H torsion

> <Gold.Protein.ActiveResidues>
 VAL166  LYS551  ARG553  GLY616  TRP617  ASP618  TYR619  PRO620  LYS621  CYS622 
 ASP623  PHE694  ASN695  SER759  ASP760  ASP761  ALA762  ILE779  LEU786  VAL792 
 PHE793  MET794  SER795  GLU796  ALA797  LYS798  CYS799  TRP800  GLU811  SER814 

> <Gold.Protein.RotatedAtoms>
  150.6870  134.2676  159.4574 H   0  0  0  0  0  0  0  0  0  0  0  0  # atno 6907 bound_to 6896
  152.0601  134.9597  160.0584 H   0  0  0  0  0  0  0  0  0  0  0  0  # atno 6908 bound_to 6896
  152.1027  133.4223  159.4631 H   0  0  0  0  0  0  0  0  0  0  0  0  # atno 6909 bound_to 6896
  144.8603  140.6209  143.5332 H   0  0  0  0  0  0  0  0  0  0  0  0  # atno 7974 bound_to 7965
  155.8041  140.0896  157.1940 H   0  0  0  0  0  0  0  0  0  0  0  0  # atno 8008 bound_to 7997
  154.3981  140.1467  156.3368 H   0  0  0  0  0  0  0  0  0  0  0  0  # atno 8009 bound_to 7997
  155.8432  140.3438  155.5648 H   0  0  0  0  0  0  0  0  0  0  0  0  # atno 8010 bound_to 7997
  139.4898  144.5792  151.6905 H   0  0  0  0  0  0  0  0  0  0  0  0  # atno 10167 bound_to 10162
  157.3311  130.7498  149.6848 H   0  0  0  0  0  0  0  0  0  0  0  0  # atno 10718 bound_to 10713
  153.5920  135.7002  153.5419 H   0  0  0  0  0  0  0  0  0  0  0  0  # atno 10763 bound_to 10752
  153.3170  135.4085  155.1384 H   0  0  0  0  0  0  0  0  0  0  0  0  # atno 10764 bound_to 10752
  154.8599  135.3686  154.5452 H   0  0  0  0  0  0  0  0  0  0  0  0  # atno 10765 bound_to 10752
  139.9931  134.6559  156.0056 H   0  0  0  0  0  0  0  0  0  0  0  0  # atno 11005 bound_to 11000
  145.4325  139.1547  143.4014 LP  0  0  0  0  0  0  0  0  0  0  0  0  # atno 17320 bound_to 7965
  146.2855  140.4442  142.8759 LP  0  0  0  0  0  0  0  0  0  0  0  0  # atno 17321 bound_to 7965
  140.5395  144.0602  150.6083 LP  0  0  0  0  0  0  0  0  0  0  0  0  # atno 17342 bound_to 10162
  140.3619  143.2903  152.0374 LP  0  0  0  0  0  0  0  0  0  0  0  0  # atno 17343 bound_to 10162
  155.9696  130.4195  150.4377 LP  0  0  0  0  0  0  0  0  0  0  0  0  # atno 17370 bound_to 10713
  157.2409  131.0525  151.2437 LP  0  0  0  0  0  0  0  0  0  0  0  0  # atno 17371 bound_to 10713
  141.1582  133.6541  156.4232 LP  0  0  0  0  0  0  0  0  0  0  0  0  # atno 17394 bound_to 11000
  140.4869  134.6612  157.5195 LP  0  0  0  0  0  0  0  0  0  0  0  0  # atno 17395 bound_to 11000

$$$$
