AV-unprocessed.smi:3237|AV-procd|sdf|12371|dock7
  -GOLD-   2272018233D 1   1.00000     0.00000
 Structure written by MMmdl.
 36 38  0  0  0  0  0  0  0  0  3 V2000
  154.5772  135.3551  164.3441 C   0  0  0  0  0  0  0  0  0  0  0  0
  154.3760  135.9532  162.9941 C   0  0  0  0  0  0  0  0  0  0  0  0
  154.2316  137.2407  162.5599 C   0  0  0  0  0  0  0  0  0  0  0  0
  154.0782  137.0909  161.1558 C   0  0  0  0  0  0  0  0  0  0  0  0
  153.8987  138.2268  160.3229 N   0  0  0  0  0  0  0  0  0  0  0  0
  153.9748  138.3097  158.9821 C   0  0  0  0  0  0  0  0  0  0  0  0
  154.2240  137.3044  158.3063 O   0  0  0  0  0  0  0  0  0  0  0  0
  153.7523  139.5751  158.5314 N   0  5  0  0  0  0  0  0  0  0  0  0
  152.6298  140.4208  158.9396 C   0  0  2  0  0  0  0  0  0  0  0  0
  151.8458  140.9612  157.7411 C   0  0  0  0  0  0  0  0  0  0  0  0
  151.2436  142.2812  158.2436 C   0  0  0  0  0  0  0  0  0  0  0  0
  151.9806  142.6432  159.4775 N   0  3  2  0  0  0  0  0  0  0  0  0
  152.3642  144.0689  159.5640 C   0  0  0  0  0  0  0  0  0  0  0  0
  151.3667  145.0030  158.9218 C   0  0  0  0  0  0  0  0  0  0  0  0
  152.6740  144.6929  158.2245 C   0  0  0  0  0  0  0  0  0  0  0  0
  153.1119  141.7045  159.6119 C   0  0  0  0  0  0  0  0  0  0  0  0
  154.1278  135.8249  160.7684 N   0  0  0  0  0  0  0  0  0  0  0  0
  154.3188  135.0895  161.9443 O   0  0  0  0  0  0  0  0  0  0  0  0
  154.3651  136.0827  165.1276 H   0  0  0  0  0  0  0  0  0  0  0  0
  155.6060  135.0168  164.4658 H   0  0  0  0  0  0  0  0  0  0  0  0
  153.9185  134.4990  164.4911 H   0  0  0  0  0  0  0  0  0  0  0  0
  154.2346  138.1432  163.1528 H   0  0  0  0  0  0  0  0  0  0  0  0
  153.6836  139.0882  160.8026 H   0  0  0  0  0  0  0  0  0  0  0  0
  151.9407  139.9137  159.6173 H   0  0  0  0  0  0  0  0  0  0  0  0
  152.5169  141.1684  156.9052 H   0  0  0  0  0  0  0  0  0  0  0  0
  151.0866  140.2614  157.3890 H   0  0  0  0  0  0  0  0  0  0  0  0
  151.3261  143.0545  157.4780 H   0  0  0  0  0  0  0  0  0  0  0  0
  150.1850  142.1708  158.4847 H   0  0  0  0  0  0  0  0  0  0  0  0
  152.9112  144.3712  160.4554 H   0  0  0  0  0  0  0  0  0  0  0  0
  150.4580  144.5762  158.5009 H   0  0  0  0  0  0  0  0  0  0  0  0
  151.2559  145.9945  159.3565 H   0  0  0  0  0  0  0  0  0  0  0  0
  153.4240  145.4807  158.1992 H   0  0  0  0  0  0  0  0  0  0  0  0
  152.6347  144.0590  157.3404 H   0  0  0  0  0  0  0  0  0  0  0  0
  153.3846  141.5539  160.6567 H   0  0  0  0  0  0  0  0  0  0  0  0
  153.9819  142.1075  159.0890 H   0  0  0  0  0  0  0  0  0  0  0  0
  151.3575  142.4430  160.2464 H   0  0  0  0  0  0  0  0  0  0  0  0
  1  2  1  0  0  0  0
  1 19  1  0  0  0  0
  1 20  1  0  0  0  0
  1 21  1  0  0  0  0
  2 18  1  0  0  0  0
  2  3  2  0  0  0  0
  3  4  1  0  0  0  0
  3 22  1  0  0  0  0
  4  5  1  0  0  0  0
  4 17  2  0  0  0  0
  5  6  1  0  0  0  0
  5 23  1  0  0  0  0
  6  7  2  0  0  0  0
  6  8  1  0  0  0  0
  8  9  1  0  0  0  0
  9 16  1  0  0  0  0
  9 10  1  0  0  0  0
  9 24  1  0  0  0  0
 10 11  1  0  0  0  0
 10 25  1  0  0  0  0
 10 26  1  0  0  0  0
 11 12  1  0  0  0  0
 11 27  1  0  0  0  0
 11 28  1  0  0  0  0
 12 13  1  0  0  0  0
 12 16  1  0  0  0  0
 12 36  1  0  0  0  0
 13 15  1  0  0  0  0
 13 14  1  0  0  0  0
 13 29  1  0  0  0  0
 14 15  1  0  0  0  0
 14 30  1  0  0  0  0
 14 31  1  0  0  0  0
 15 32  1  0  0  0  0
 15 33  1  0  0  0  0
 16 34  1  0  0  0  0
 16 35  1  0  0  0  0
 17 18  1  0  0  0  0
M  CHG  1   8  -1
M  CHG  1  12   1
M  END
> <s_m_source_file>
AV-unprocessed.smi

> <i_m_source_file_index>
3237

> <i_lp_mmshare_version>
43012

> <i_f3d_flags>
0

> <s_epik_input>
W0NIM11jMVtjSF1jKG5vMSlbTkhdQyg9TylbTkhdW0NAQEhdMltDSDJdW0NIMl1OKFtDSDJdMilbQ0hdM1tDSDJdW0NIMl0z

> <s_epik_cmdline>
J2VwaWtfcHl0aG9uJywgJy1waCcsICc3LjAnLCAnLXRuJywgJzgnLCAnLW1hJywgJzIwMCcsICctbWV0YWxfYmluZGluZycsICctaW1hZScsICc8aW5maWxlLm1hZT4nLCAnLW9tYWUnLCAnPG91dGZpbGUubWFlPic=

> <r_epik_Ionization_Penalty>
6.76456

> <r_epik_Ionization_Penalty_Charging>
6.76456

> <r_epik_Ionization_Penalty_Neutral>
5.76722e-06

> <r_epik_State_Penalty>
6.78919

> <r_epik_Charging_Adjusted_Penalty>
13.5538

> <i_epik_Tot_Q>
0

> <i_epik_Tot_abs_Q>
2

> <r_epik_Metal_State_Penalty>
2.728

> <b_epik_Metal_Only>
1

> <s_lp_Force_Field>
OPLS_2005

> <r_lp_Energy>
30.701

> <b_lp_Chiralities_Consistent>
1

> <s_lp_Variant>
AV-unprocessed.smi:3237-9

> <Gold.Version>
5.8.1

> <Gold.Id.Protein>
6NUR|6NUR_protein|mol2

> <Gold.PLP.Fitness>
42.4259

> <Gold.PLP.PLP>
-35.4532

> <Gold.PLP.part.hbond>
-1.7224

> <Gold.PLP.part.metal>
0.0000

> <Gold.PLP.part.buried>
-4.4104

> <Gold.PLP.part.nonpolar>
-30.3074

> <Gold.PLP.part.repulsive>
0.1026

> <Gold.PLP.ligand.clash>
0.0000

> <Gold.PLP.ligand.torsion>
1.1124

> <Gold.PLP.Chemscore.Hbond>
2.6354

> <Gold.PLP.Chemscore.CHOScore>
0.0000

> <Gold.PLP.Chemscore.Metal>
0.0000

> <Gold.Chemscore.Hbonds>
donor molecule, donor type, donor heavy atom, donor atom, acceptor molecule, acceptor atom, score
      P1  H  6896  6907       L1    17  0.57
      P1  H  7997  8010       L1     8  2.00

> <Gold.PLP.Chemscore.Internal.Correction>
1.2914

> <Gold.Rescore>
     Score         DG    S(hbond)    S(metal)    S(lipo)     H(rot)  DE(clash)    DE(int)     intcor
     14.87     -17.30       1.00        0.00      99.62       1.25       0.06       2.37       ----

> <Gold.Chemscore.Fitness>
14.8686

> <Gold.Chemscore.DG>
-17.2986

> <Gold.Chemscore.ZeroCoef>
-5.4800

> <Gold.Chemscore.Hbond>
1.0042

> <Gold.Chemscore.Metal>
0.0000

> <Gold.Chemscore.Lipo>
99.6195

> <Gold.Chemscore.Internal_Hbond>
0.0000

> <Gold.Chemscore.DEClash>
0.0560

> <Gold.Chemscore.DEInternal>
2.3740

> <Gold.Chemscore.Rot>
1.2464

> <Gold.Chemscore.Internal.Correction>
   9.000000E+99

> <Gold.Chemscore.Hbonds>
donor molecule, donor type, donor heavy atom, donor atom, acceptor molecule, acceptor atom, score
      P1  H  6896  6907       L1    17  0.10
      P1  H  7997  8010       L1     8  0.84

> <Gold.Chemscore.Hbond.Weighted>
-3.3539

> <Gold.Chemscore.Metal.Weighted>
-0.0000

> <Gold.Chemscore.Lipo.Weighted>
-11.6555

> <Gold.Chemscore.Internal_Hbond.Weighted>
0.0000

> <Gold.Chemscore.DEClash.Weighted>
0.0560

> <Gold.Chemscore.DEInternal.Weighted>
2.3740

> <Gold.Chemscore.Rot.Weighted>
3.1909

> <Gold.Chemscore.Internal.Correction.Weighted>
   9.000000E+99

> <Gold.Protein.RotatedTorsions>
[ 6907 6896 6895 6894 ] final   54.12 input  -60.11 | X-H torsion
[ 7974 7965 7964 7962 ] final    2.60 input  175.53 | X-H torsion
[ 8008 7997 7996 7995 ] final   20.52 input   59.86 | X-H torsion
[ 10167 10162 10161 10158 ] final  -29.26 input  -65.29 | X-H torsion
[ 10718 10713 10712 10709 ] final   93.89 input   66.30 | X-H torsion
[ 10763 10752 10751 10750 ] final -115.34 input  -60.55 | X-H torsion
[ 11005 11000 10999 10996 ] final    6.01 input  -57.11 | X-H torsion

> <Gold.Protein.ActiveResidues>
 VAL166  LYS551  ARG553  GLY616  TRP617  ASP618  TYR619  PRO620  LYS621  CYS622 
 ASP623  PHE694  ASN695  SER759  ASP760  ASP761  ALA762  ILE779  LEU786  VAL792 
 PHE793  MET794  SER795  GLU796  ALA797  LYS798  CYS799  TRP800  GLU811  SER814 

> <Gold.Protein.RotatedAtoms>
  152.3407  134.7139  160.0264 H   0  0  0  0  0  0  0  0  0  0  0  0  # atno 6907 bound_to 6896
  151.7525  133.3323  159.3403 H   0  0  0  0  0  0  0  0  0  0  0  0  # atno 6908 bound_to 6896
  150.7478  134.6112  159.6131 H   0  0  0  0  0  0  0  0  0  0  0  0  # atno 6909 bound_to 6896
  146.2444  140.0812  142.8357 H   0  0  0  0  0  0  0  0  0  0  0  0  # atno 7974 bound_to 7965
  154.9369  140.3048  155.5140 H   0  0  0  0  0  0  0  0  0  0  0  0  # atno 8008 bound_to 7997
  156.2999  140.2343  156.4371 H   0  0  0  0  0  0  0  0  0  0  0  0  # atno 8009 bound_to 7997
  154.8183  140.0424  157.1381 H   0  0  0  0  0  0  0  0  0  0  0  0  # atno 8010 bound_to 7997
  140.7262  143.3943  151.1375 H   0  0  0  0  0  0  0  0  0  0  0  0  # atno 10167 bound_to 10162
  157.6952  131.0494  150.4103 H   0  0  0  0  0  0  0  0  0  0  0  0  # atno 10718 bound_to 10713
  154.8477  135.4385  154.1648 H   0  0  0  0  0  0  0  0  0  0  0  0  # atno 10763 bound_to 10752
  153.2776  135.6951  153.7424 H   0  0  0  0  0  0  0  0  0  0  0  0  # atno 10764 bound_to 10752
  153.6640  135.3430  155.3110 H   0  0  0  0  0  0  0  0  0  0  0  0  # atno 10765 bound_to 10752
  140.5642  134.0163  155.7983 H   0  0  0  0  0  0  0  0  0  0  0  0  # atno 11005 bound_to 11000
  145.0731  140.9169  143.4870 LP  0  0  0  0  0  0  0  0  0  0  0  0  # atno 17320 bound_to 7965
  145.0950  139.2863  143.5715 LP  0  0  0  0  0  0  0  0  0  0  0  0  # atno 17321 bound_to 7965
  139.7553  143.8717  152.3087 LP  0  0  0  0  0  0  0  0  0  0  0  0  # atno 17342 bound_to 10162
  139.8585  144.7129  150.9128 LP  0  0  0  0  0  0  0  0  0  0  0  0  # atno 17343 bound_to 10162
  156.4487  130.4007  149.6650 LP  0  0  0  0  0  0  0  0  0  0  0  0  # atno 17370 bound_to 10713
  156.3807  130.7577  151.2570 LP  0  0  0  0  0  0  0  0  0  0  0  0  # atno 17371 bound_to 10713
  141.1096  133.9638  157.2935 LP  0  0  0  0  0  0  0  0  0  0  0  0  # atno 17394 bound_to 11000
  139.9393  135.0193  156.8656 LP  0  0  0  0  0  0  0  0  0  0  0  0  # atno 17395 bound_to 11000

$$$$
