AV-unprocessed.smi:171|AV-procd|sdf|1415|dock7
  -GOLD-   2262019183D 1   1.00000     0.00000
 Structure written by MMmdl.
 56 59  0  0  0  0  0  0  0  0  1 V2000
  151.1702  139.9576  158.7196 C   0  0  0  0  0  0  0  0  0  0  0  0
  150.6889  140.7294  157.4807 C   0  0  0  0  0  0  0  0  0  0  0  0
  151.0770  142.2118  157.5959 C   0  0  0  0  0  0  0  0  0  0  0  0
  149.1725  140.5861  157.2123 C   0  0  0  0  0  0  0  0  0  0  0  0
  148.6422  141.3474  155.9589 C   0  0  1  0  0  0  0  0  0  0  0  0
  149.2911  140.9405  154.6119 C   0  0  0  0  0  0  0  0  0  0  0  0
  150.4265  140.4714  154.5744 O   0  0  0  0  0  0  0  0  0  0  0  0
  148.5768  141.1207  153.4862 N   0  0  0  0  0  0  0  0  0  0  0  0
  147.2019  141.6211  153.4108 C   0  0  0  0  0  0  0  0  0  0  0  0
  146.6578  142.1447  154.7570 C   0  0  0  0  0  0  0  0  0  0  0  0
  147.1705  141.3523  155.8720 N   0  0  0  0  0  0  0  0  0  0  0  0
  146.4599  140.2083  156.0689 C   0  0  0  0  0  0  0  0  0  0  0  0
  145.6706  140.0613  157.1663 N   0  0  0  0  0  0  0  0  0  0  0  0
  144.9859  138.9306  157.3584 C   0  0  0  0  0  0  0  0  0  0  0  0
  144.9450  137.8404  156.5906 N   0  0  0  0  0  0  0  0  0  0  0  0
  145.7326  137.9815  155.4856 C   0  0  0  0  0  0  0  0  0  0  0  0
  146.5222  139.1187  155.1574 C   0  0  0  0  0  0  0  0  0  0  0  0
  147.1999  138.8969  153.9663 N   0  0  0  0  0  0  0  0  0  0  0  0
  146.8321  137.6962  153.6108 C   0  0  0  0  0  0  0  0  0  0  0  0
  145.9248  137.0826  154.4486 N   0  0  0  0  0  0  0  0  0  0  0  0
  145.3454  135.7499  154.3158 C   0  0  0  0  0  0  0  0  0  0  0  0
  145.9756  134.8398  153.2236 C   0  0  1  0  0  0  0  0  0  0  0  0
  147.3668  134.7398  153.4774 O   0  0  0  0  0  0  0  0  0  0  0  0
  145.4126  133.4249  153.2771 C   0  0  0  0  0  0  0  0  0  0  0  0
  145.6826  132.9005  151.8758 C   0  0  0  0  0  0  0  0  0  0  0  0
  145.3975  134.0231  151.0609 O   0  0  0  0  0  0  0  0  0  0  0  0
  145.7943  135.2235  151.7244 C   0  0  1  0  0  0  0  0  0  0  0  0
  144.7125  136.2586  151.3832 C   0  0  0  0  0  0  0  0  0  0  0  0
  150.6362  140.2741  159.6162 H   0  0  0  0  0  0  0  0  0  0  0  0
  152.2341  140.1198  158.8936 H   0  0  0  0  0  0  0  0  0  0  0  0
  151.0274  138.8839  158.6019 H   0  0  0  0  0  0  0  0  0  0  0  0
  151.2201  140.3289  156.6164 H   0  0  0  0  0  0  0  0  0  0  0  0
  150.5782  142.6865  158.4416 H   0  0  0  0  0  0  0  0  0  0  0  0
  150.8040  142.7637  156.6959 H   0  0  0  0  0  0  0  0  0  0  0  0
  152.1521  142.3287  157.7357 H   0  0  0  0  0  0  0  0  0  0  0  0
  148.8991  139.5307  157.1678 H   0  0  0  0  0  0  0  0  0  0  0  0
  148.6696  140.9682  158.1014 H   0  0  0  0  0  0  0  0  0  0  0  0
  148.9080  142.3966  156.0946 H   0  0  0  0  0  0  0  0  0  0  0  0
  149.0122  140.8619  152.6127 H   0  0  0  0  0  0  0  0  0  0  0  0
  147.1327  142.3934  152.6448 H   0  0  0  0  0  0  0  0  0  0  0  0
  146.5809  140.7912  153.0720 H   0  0  0  0  0  0  0  0  0  0  0  0
  146.9844  143.1754  154.9027 H   0  0  0  0  0  0  0  0  0  0  0  0
  145.5678  142.1807  154.7391 H   0  0  0  0  0  0  0  0  0  0  0  0
  144.3840  138.8953  158.2545 H   0  0  0  0  0  0  0  0  0  0  0  0
  147.2206  137.2301  152.7178 H   0  0  0  0  0  0  0  0  0  0  0  0
  145.4227  135.2618  155.2885 H   0  0  0  0  0  0  0  0  0  0  0  0
  144.2770  135.8583  154.1283 H   0  0  0  0  0  0  0  0  0  0  0  0
  147.7937  135.4951  153.1028 H   0  0  0  0  0  0  0  0  0  0  0  0
  145.8524  132.8048  154.0594 H   0  0  0  0  0  0  0  0  0  0  0  0
  144.3347  133.4535  153.4438 H   0  0  0  0  0  0  0  0  0  0  0  0
  146.7288  132.6159  151.7546 H   0  0  0  0  0  0  0  0  0  0  0  0
  145.0581  132.0456  151.6156 H   0  0  0  0  0  0  0  0  0  0  0  0
  146.7401  135.5561  151.2935 H   0  0  0  0  0  0  0  0  0  0  0  0
  145.0077  137.2606  151.6869 H   0  0  0  0  0  0  0  0  0  0  0  0
  143.7587  136.0170  151.8525 H   0  0  0  0  0  0  0  0  0  0  0  0
  144.5475  136.2983  150.3063 H   0  0  0  0  0  0  0  0  0  0  0  0
  1  2  1  0  0  0  0
  1 29  1  0  0  0  0
  1 30  1  0  0  0  0
  1 31  1  0  0  0  0
  2  3  1  0  0  0  0
  2  4  1  0  0  0  0
  2 32  1  0  0  0  0
  3 33  1  0  0  0  0
  3 34  1  0  0  0  0
  3 35  1  0  0  0  0
  4  5  1  0  0  0  0
  4 36  1  0  0  0  0
  4 37  1  0  0  0  0
  5 11  1  0  0  0  0
  5  6  1  0  0  0  0
  5 38  1  0  0  0  0
  6  7  2  0  0  0  0
  6  8  1  0  0  0  0
  8  9  1  0  0  0  0
  8 39  1  0  0  0  0
  9 10  1  0  0  0  0
  9 40  1  0  0  0  0
  9 41  1  0  0  0  0
 10 11  1  0  0  0  0
 10 42  1  0  0  0  0
 10 43  1  0  0  0  0
 11 12  1  0  0  0  0
 12 17  1  0  0  0  0
 12 13  2  0  0  0  0
 13 14  1  0  0  0  0
 14 15  2  0  0  0  0
 14 44  1  0  0  0  0
 15 16  1  0  0  0  0
 16 20  1  0  0  0  0
 16 17  2  0  0  0  0
 17 18  1  0  0  0  0
 18 19  2  0  0  0  0
 19 20  1  0  0  0  0
 19 45  1  0  0  0  0
 20 21  1  0  0  0  0
 21 22  1  0  0  0  0
 21 46  1  0  0  0  0
 21 47  1  0  0  0  0
 22 27  1  0  0  0  0
 22 23  1  0  0  0  0
 22 24  1  0  0  0  0
 23 48  1  0  0  0  0
 24 25  1  0  0  0  0
 24 49  1  0  0  0  0
 24 50  1  0  0  0  0
 25 26  1  0  0  0  0
 25 51  1  0  0  0  0
 25 52  1  0  0  0  0
 26 27  1  0  0  0  0
 27 28  1  0  0  0  0
 27 53  1  0  0  0  0
 28 54  1  0  0  0  0
 28 55  1  0  0  0  0
 28 56  1  0  0  0  0
M  END
> <s_m_source_file>
AV-unprocessed.smi

> <i_m_source_file_index>
171

> <i_lp_mmshare_version>
43012

> <i_f3d_flags>
0

> <s_epik_input>
W0NIM11bQ0hdKFtDSDNdKVtDSDJdW0NAQEhdMUMoPU8pW05IXVtDSDJdW0NIMl1OMWMobltjSF1uMiljKGMyMyluW2NIXW4zW0NIMl1bQ0BAXTQoW09IXSlbQ0gyXVtDSDJdT1tDQEhdNFtDSDNd

> <s_epik_cmdline>
J2VwaWtfcHl0aG9uJywgJy1waCcsICc3LjAnLCAnLXRuJywgJzgnLCAnLW1hJywgJzIwMCcsICctbWV0YWxfYmluZGluZycsICctaW1hZScsICc8aW5maWxlLm1hZT4nLCAnLW9tYWUnLCAnPG91dGZpbGUubWFlPic=

> <r_lp_tautomer_probability>
1

> <r_epik_Ionization_Penalty>
0.000670584

> <r_epik_Ionization_Penalty_Charging>
0

> <r_epik_Ionization_Penalty_Neutral>
0.000670584

> <r_epik_State_Penalty>
0.000304767

> <r_epik_Charging_Adjusted_Penalty>
0.000304767

> <i_epik_Tot_Q>
0

> <i_epik_Tot_abs_Q>
0

> <r_epik_Metal_State_Penalty>
-0

> <b_epik_Metal_Only>
0

> <s_lp_Force_Field>
OPLS_2005

> <r_lp_Energy>
47.4038

> <b_lp_Chiralities_Consistent>
1

> <s_lp_Variant>
AV-unprocessed.smi:171-2

> <Gold.Version>
5.8.1

> <Gold.Id.Protein>
6NUR|6NUR_protein|mol2

> <Gold.PLP.Fitness>
40.0568

> <Gold.PLP.PLP>
-28.3860

> <Gold.PLP.part.hbond>
-3.0000

> <Gold.PLP.part.metal>
0.0000

> <Gold.PLP.part.buried>
-5.6664

> <Gold.PLP.part.nonpolar>
-20.2652

> <Gold.PLP.part.repulsive>
0.7766

> <Gold.PLP.ligand.clash>
0.0000

> <Gold.PLP.ligand.torsion>
0.3354

> <Gold.PLP.Chemscore.Hbond>
2.9920

> <Gold.PLP.Chemscore.CHOScore>
1.0000

> <Gold.PLP.Chemscore.Metal>
0.0000

> <Gold.Chemscore.Hbonds>
donor molecule, donor type, donor heavy atom, donor atom, acceptor molecule, acceptor atom, score
      L1  H     8    39       P1  7957  1.00
      L1  H    23    48       P1  7948  0.98
      P1  H  7989  7998       L1     7  1.00
      L1  C    19    45       P1  7948  1.00

> <Gold.PLP.Chemscore.Internal.Correction>
0.3657

> <Gold.Rescore>
     Score         DG    S(hbond)    S(metal)    S(lipo)     H(rot)  DE(clash)    DE(int)     intcor
      9.54     -15.34       2.89        0.00      58.92       2.61       0.28       5.53       ----

> <Gold.Chemscore.Fitness>
9.5354

> <Gold.Chemscore.DG>
-15.3411

> <Gold.Chemscore.ZeroCoef>
-5.4800

> <Gold.Chemscore.Hbond>
2.8868

> <Gold.Chemscore.Metal>
0.0000

> <Gold.Chemscore.Lipo>
58.9242

> <Gold.Chemscore.Internal_Hbond>
0.0000

> <Gold.Chemscore.DEClash>
0.2791

> <Gold.Chemscore.DEInternal>
5.5266

> <Gold.Chemscore.Rot>
2.6074

> <Gold.Chemscore.Internal.Correction>
   9.000000E+99

> <Gold.Chemscore.Hbonds>
donor molecule, donor type, donor heavy atom, donor atom, acceptor molecule, acceptor atom, score
      L1  H     8    39       P1  7957  1.00
      L1  H    23    48       P1  7948  0.93
      P1  H  7989  7998       L1     7  0.94

> <Gold.Chemscore.Hbond.Weighted>
-9.6418

> <Gold.Chemscore.Metal.Weighted>
-0.0000

> <Gold.Chemscore.Lipo.Weighted>
-6.8941

> <Gold.Chemscore.Internal_Hbond.Weighted>
0.0000

> <Gold.Chemscore.DEClash.Weighted>
0.2791

> <Gold.Chemscore.DEInternal.Weighted>
5.5266

> <Gold.Chemscore.Rot.Weighted>
6.6748

> <Gold.Chemscore.Internal.Correction.Weighted>
   9.000000E+99

> <Gold.Protein.RotatedTorsions>
[ 6907 6896 6895 6894 ] final  -80.09 input  -60.11 | X-H torsion
[ 7974 7965 7964 7962 ] final -131.23 input  175.53 | X-H torsion
[ 8008 7997 7996 7995 ] final  -86.61 input   59.86 | X-H torsion
[ 10167 10162 10161 10158 ] final   67.73 input  -65.29 | X-H torsion
[ 10718 10713 10712 10709 ] final  -18.88 input   66.30 | X-H torsion
[ 10763 10752 10751 10750 ] final -135.15 input  -60.55 | X-H torsion
[ 11005 11000 10999 10996 ] final   -6.66 input  -57.11 | X-H torsion

> <Gold.Protein.ActiveResidues>
 VAL166  LYS551  ARG553  GLY616  TRP617  ASP618  TYR619  PRO620  LYS621  CYS622 
 ASP623  PHE694  ASN695  SER759  ASP760  ASP761  ALA762  ILE779  LEU786  VAL792 
 PHE793  MET794  SER795  GLU796  ALA797  LYS798  CYS799  TRP800  GLU811  SER814 

> <Gold.Protein.RotatedAtoms>
  150.6936  134.4023  159.5124 H   0  0  0  0  0  0  0  0  0  0  0  0  # atno 6907 bound_to 6896
  152.1794  134.8764  160.0537 H   0  0  0  0  0  0  0  0  0  0  0  0  # atno 6908 bound_to 6896
  151.9760  133.3707  159.4126 H   0  0  0  0  0  0  0  0  0  0  0  0  # atno 6909 bound_to 6896
  144.9399  140.7226  143.4853 H   0  0  0  0  0  0  0  0  0  0  0  0  # atno 7974 bound_to 7965
  154.6538  140.0576  156.9986 H   0  0  0  0  0  0  0  0  0  0  0  0  # atno 8008 bound_to 7997
  155.1331  140.3258  155.4451 H   0  0  0  0  0  0  0  0  0  0  0  0  # atno 8009 bound_to 7997
  156.2588  140.1977  156.6449 H   0  0  0  0  0  0  0  0  0  0  0  0  # atno 8010 bound_to 7997
  140.0864  144.5027  150.7128 H   0  0  0  0  0  0  0  0  0  0  0  0  # atno 10167 bound_to 10162
  156.5534  130.4707  149.6441 H   0  0  0  0  0  0  0  0  0  0  0  0  # atno 10718 bound_to 10713
  154.8708  135.3712  154.4851 H   0  0  0  0  0  0  0  0  0  0  0  0  # atno 10763 bound_to 10752
  153.5502  135.7025  153.5600 H   0  0  0  0  0  0  0  0  0  0  0  0  # atno 10764 bound_to 10752
  153.3722  135.4018  155.1761 H   0  0  0  0  0  0  0  0  0  0  0  0  # atno 10765 bound_to 10752
  140.7044  133.8962  155.8706 H   0  0  0  0  0  0  0  0  0  0  0  0  # atno 11005 bound_to 11000
  145.3008  139.1851  143.4691 LP  0  0  0  0  0  0  0  0  0  0  0  0  # atno 17320 bound_to 7965
  146.3281  140.2998  142.8620 LP  0  0  0  0  0  0  0  0  0  0  0  0  # atno 17321 bound_to 7965
  140.7051  143.2462  151.4749 LP  0  0  0  0  0  0  0  0  0  0  0  0  # atno 17342 bound_to 10162
  139.5750  144.1840  152.1890 LP  0  0  0  0  0  0  0  0  0  0  0  0  # atno 17343 bound_to 10162
  156.2864  130.7099  151.1937 LP  0  0  0  0  0  0  0  0  0  0  0  0  # atno 17370 bound_to 10713
  157.7383  131.0542  150.5303 LP  0  0  0  0  0  0  0  0  0  0  0  0  # atno 17371 bound_to 10713
  141.0137  134.0985  157.4194 LP  0  0  0  0  0  0  0  0  0  0  0  0  # atno 17394 bound_to 11000
  139.8888  135.0100  156.6642 LP  0  0  0  0  0  0  0  0  0  0  0  0  # atno 17395 bound_to 11000

$$$$
