AV-unprocessed.smi:2829|AV-procd|sdf|10898|dock1
  -GOLD-   2272015343D 1   1.00000     0.00000
 Structure written by MMmdl.
 50 53  0  0  0  0  0  0  0  0  1 V2000
  150.0152  144.0570  159.2055 C   0  0  0  0  0  0  0  0  0  0  0  0
  151.5579  144.1497  159.2073 C   0  0  0  0  0  0  0  0  0  0  0  0
  151.9836  144.8155  157.8820 C   0  0  0  0  0  0  0  0  0  0  0  0
  151.9674  145.0411  160.3982 C   0  0  0  0  0  0  0  0  0  0  0  0
  152.2291  142.7702  159.3354 C   0  0  0  0  0  0  0  0  0  0  0  0
  152.0067  141.7141  158.4229 C   0  0  0  0  0  0  0  0  0  0  0  0
  152.6786  140.5013  158.6493 C   0  0  0  0  0  0  0  0  0  0  0  0
  153.5322  140.4046  159.7664 C   0  0  0  0  0  0  0  0  0  0  0  0
  154.1753  139.1508  159.9327 N   0  0  0  0  0  0  0  0  0  0  0  0
  154.7231  138.6360  161.0511 C   0  0  0  0  0  0  0  0  0  0  0  0
  154.7712  139.2093  162.1378 O   0  0  0  0  0  0  0  0  0  0  0  0
  155.2295  137.4010  160.8914 N   0  0  0  0  0  0  0  0  0  0  0  0
  155.8895  136.5707  161.9084 C   0  0  2  0  0  0  0  0  0  0  0  0
  156.0715  135.1032  161.4972 C   0  0  2  0  0  0  0  0  0  0  0  0
  156.1650  134.3680  160.2096 C   0  0  0  0  0  0  0  0  0  0  0  0
  155.3338  133.1310  160.6361 C   0  0  0  0  0  0  0  0  0  0  0  0
  154.7641  133.4631  161.9280 O   0  0  0  0  0  0  0  0  0  0  0  0
  154.6253  134.8722  161.9048 C   0  0  1  0  0  0  0  0  0  0  0  0
  154.9056  135.9562  162.9596 C   0  0  0  0  0  0  0  0  0  0  0  0
  155.3680  135.5927  164.3802 C   0  0  0  0  0  0  0  0  0  0  0  0
  154.5995  136.8166  164.8880 C   0  0  0  0  0  0  0  0  0  0  0  0
  153.7788  136.7828  163.5946 C   0  0  0  0  0  0  0  0  0  0  0  0
  153.6991  141.4596  160.6028 N   0  0  0  0  0  0  0  0  0  0  0  0
  153.0627  142.6158  160.3931 N   0  0  0  0  0  0  0  0  0  0  0  0
  149.5602  145.0438  159.1125 H   0  0  0  0  0  0  0  0  0  0  0  0
  149.6363  143.6181  160.1294 H   0  0  0  0  0  0  0  0  0  0  0  0
  149.6485  143.4578  158.3711 H   0  0  0  0  0  0  0  0  0  0  0  0
  151.7080  144.2006  157.0243 H   0  0  0  0  0  0  0  0  0  0  0  0
  153.0610  144.9773  157.8368 H   0  0  0  0  0  0  0  0  0  0  0  0
  151.5081  145.7887  157.7545 H   0  0  0  0  0  0  0  0  0  0  0  0
  151.4902  146.0203  160.3450 H   0  0  0  0  0  0  0  0  0  0  0  0
  153.0444  145.2109  160.4267 H   0  0  0  0  0  0  0  0  0  0  0  0
  151.6815  144.5874  161.3479 H   0  0  0  0  0  0  0  0  0  0  0  0
  151.3494  141.8041  157.5720 H   0  0  0  0  0  0  0  0  0  0  0  0
  152.5390  139.6661  157.9783 H   0  0  0  0  0  0  0  0  0  0  0  0
  154.2116  138.5675  159.1097 H   0  0  0  0  0  0  0  0  0  0  0  0
  155.1435  136.9904  159.9727 H   0  0  0  0  0  0  0  0  0  0  0  0
  156.7741  137.0245  162.3580 H   0  0  0  0  0  0  0  0  0  0  0  0
  156.7709  134.6508  162.2101 H   0  0  0  0  0  0  0  0  0  0  0  0
  155.6965  134.9097  159.3870 H   0  0  0  0  0  0  0  0  0  0  0  0
  157.1901  134.1152  159.9380 H   0  0  0  0  0  0  0  0  0  0  0  0
  154.5422  132.9283  159.9136 H   0  0  0  0  0  0  0  0  0  0  0  0
  155.9496  132.2357  160.7251 H   0  0  0  0  0  0  0  0  0  0  0  0
  153.8931  135.1895  161.1564 H   0  0  0  0  0  0  0  0  0  0  0  0
  154.9434  134.6516  164.7330 H   0  0  0  0  0  0  0  0  0  0  0  0
  156.4458  135.6354  164.5400 H   0  0  0  0  0  0  0  0  0  0  0  0
  154.0235  136.6485  165.7985 H   0  0  0  0  0  0  0  0  0  0  0  0
  155.2274  137.7054  164.9640 H   0  0  0  0  0  0  0  0  0  0  0  0
  153.6066  137.7603  163.1435 H   0  0  0  0  0  0  0  0  0  0  0  0
  152.8512  136.2180  163.6999 H   0  0  0  0  0  0  0  0  0  0  0  0
  1  2  1  0  0  0  0
  1 25  1  0  0  0  0
  1 26  1  0  0  0  0
  1 27  1  0  0  0  0
  2  3  1  0  0  0  0
  2  4  1  0  0  0  0
  2  5  1  0  0  0  0
  3 28  1  0  0  0  0
  3 29  1  0  0  0  0
  3 30  1  0  0  0  0
  4 31  1  0  0  0  0
  4 32  1  0  0  0  0
  4 33  1  0  0  0  0
  5 24  1  0  0  0  0
  5  6  2  0  0  0  0
  6  7  1  0  0  0  0
  6 34  1  0  0  0  0
  7  8  2  0  0  0  0
  7 35  1  0  0  0  0
  8  9  1  0  0  0  0
  8 23  1  0  0  0  0
  9 10  1  0  0  0  0
  9 36  1  0  0  0  0
 10 11  2  0  0  0  0
 10 12  1  0  0  0  0
 12 13  1  0  0  0  0
 12 37  1  0  0  0  0
 13 19  1  0  0  0  0
 13 14  1  0  0  0  0
 13 38  1  0  0  0  0
 14 18  1  0  0  0  0
 14 15  1  0  0  0  0
 14 39  1  0  0  0  0
 15 16  1  0  0  0  0
 15 40  1  0  0  0  0
 15 41  1  0  0  0  0
 16 17  1  0  0  0  0
 16 42  1  0  0  0  0
 16 43  1  0  0  0  0
 17 18  1  0  0  0  0
 18 19  1  0  0  0  0
 18 44  1  0  0  0  0
 19 22  1  0  0  0  0
 19 20  1  0  0  0  0
 20 21  1  0  0  0  0
 20 45  1  0  0  0  0
 20 46  1  0  0  0  0
 21 22  1  0  0  0  0
 21 47  1  0  0  0  0
 21 48  1  0  0  0  0
 22 49  1  0  0  0  0
 22 50  1  0  0  0  0
 23 24  2  0  0  0  0
M  END
> <s_m_source_file>
AV-unprocessed.smi

> <i_m_source_file_index>
2829

> <i_lp_mmshare_version>
43012

> <i_f3d_flags>
0

> <s_epik_input>
W0NIM11DKFtDSDNdKShbQ0gzXSljMVtjSF1bY0hdYyhubjEpW05IXUMoPU8pW05IXVtDQEBIXTJbQ0BIXShbQ0gyXVtDSDJdTzMpW0NAQEhdM0MyNFtDSDJdW0NIMl1bQ0gyXTQ=

> <s_epik_cmdline>
J2VwaWtfcHl0aG9uJywgJy1waCcsICc3LjAnLCAnLXRuJywgJzgnLCAnLW1hJywgJzIwMCcsICctbWV0YWxfYmluZGluZycsICctaW1hZScsICc8aW5maWxlLm1hZT4nLCAnLW9tYWUnLCAnPG91dGZpbGUubWFlPic=

> <r_lp_tautomer_probability>
1

> <r_epik_Ionization_Penalty>
0.011915

> <r_epik_Ionization_Penalty_Charging>
0

> <r_epik_Ionization_Penalty_Neutral>
0.011915

> <r_epik_State_Penalty>
0.00486223

> <r_epik_Charging_Adjusted_Penalty>
0.00486223

> <i_epik_Tot_Q>
0

> <i_epik_Tot_abs_Q>
0

> <r_epik_Metal_State_Penalty>
-0

> <b_epik_Metal_Only>
0

> <s_lp_Force_Field>
OPLS_2005

> <r_lp_Energy>
85.5181

> <b_lp_Chiralities_Consistent>
1

> <s_lp_Variant>
AV-unprocessed.smi:2829-1

> <Gold.Version>
5.8.1

> <Gold.Id.Protein>
6NUR|6NUR_protein|mol2

> <Gold.PLP.Fitness>
38.7597

> <Gold.PLP.PLP>
-38.9562

> <Gold.PLP.part.hbond>
0.0000

> <Gold.PLP.part.metal>
0.0000

> <Gold.PLP.part.buried>
-5.5094

> <Gold.PLP.part.nonpolar>
-33.7702

> <Gold.PLP.part.repulsive>
0.0589

> <Gold.PLP.ligand.clash>
0.0000

> <Gold.PLP.ligand.torsion>
0.2619

> <Gold.PLP.Chemscore.Hbond>
0.0000

> <Gold.PLP.Chemscore.CHOScore>
0.0000

> <Gold.PLP.Chemscore.Metal>
0.0000

> <Gold.PLP.Chemscore.Internal.Correction>
0.3273

> <Gold.Rescore>
     Score         DG    S(hbond)    S(metal)    S(lipo)     H(rot)  DE(clash)    DE(int)     intcor
     14.49     -16.60       0.00        0.00     120.45       1.16       0.62       1.48       ----

> <Gold.Chemscore.Fitness>
14.4903

> <Gold.Chemscore.DG>
-16.5990

> <Gold.Chemscore.ZeroCoef>
-5.4800

> <Gold.Chemscore.Hbond>
0.0000

> <Gold.Chemscore.Metal>
0.0000

> <Gold.Chemscore.Lipo>
120.4544

> <Gold.Chemscore.Internal_Hbond>
0.0000

> <Gold.Chemscore.DEClash>
0.6250

> <Gold.Chemscore.DEInternal>
1.4838

> <Gold.Chemscore.Rot>
1.1618

> <Gold.Chemscore.Internal.Correction>
   9.000000E+99

> <Gold.Chemscore.Hbond.Weighted>
-0.0000

> <Gold.Chemscore.Metal.Weighted>
-0.0000

> <Gold.Chemscore.Lipo.Weighted>
-14.0932

> <Gold.Chemscore.Internal_Hbond.Weighted>
0.0000

> <Gold.Chemscore.DEClash.Weighted>
0.6250

> <Gold.Chemscore.DEInternal.Weighted>
1.4838

> <Gold.Chemscore.Rot.Weighted>
2.9741

> <Gold.Chemscore.Internal.Correction.Weighted>
   9.000000E+99

> <Gold.Protein.RotatedTorsions>
[ 6907 6896 6895 6894 ] final  -52.30 input  -60.11 | X-H torsion
[ 7974 7965 7964 7962 ] final  -36.51 input  175.53 | X-H torsion
[ 8008 7997 7996 7995 ] final  118.51 input   59.86 | X-H torsion
[ 10167 10162 10161 10158 ] final -144.19 input  -65.29 | X-H torsion
[ 10718 10713 10712 10709 ] final   85.90 input   66.30 | X-H torsion
[ 10763 10752 10751 10750 ] final   97.98 input  -60.55 | X-H torsion
[ 11005 11000 10999 10996 ] final   58.02 input  -57.11 | X-H torsion

> <Gold.Protein.ActiveResidues>
 VAL166  LYS551  ARG553  GLY616  TRP617  ASP618  TYR619  PRO620  LYS621  CYS622 
 ASP623  PHE694  ASN695  SER759  ASP760  ASP761  ALA762  ILE779  LEU786  VAL792 
 PHE793  MET794  SER795  GLU796  ALA797  LYS798  CYS799  TRP800  GLU811  SER814 

> <Gold.Protein.RotatedAtoms>
  150.8530  134.7861  159.7023 H   0  0  0  0  0  0  0  0  0  0  0  0  # atno 6907 bound_to 6896
  152.4590  134.5224  159.9796 H   0  0  0  0  0  0  0  0  0  0  0  0  # atno 6908 bound_to 6896
  151.5342  133.3406  159.2959 H   0  0  0  0  0  0  0  0  0  0  0  0  # atno 6909 bound_to 6896
  146.0655  140.6287  142.8977 H   0  0  0  0  0  0  0  0  0  0  0  0  # atno 7974 bound_to 7965
  156.2550  140.2873  156.0846 H   0  0  0  0  0  0  0  0  0  0  0  0  # atno 8008 bound_to 7997
  155.1529  140.0398  157.2842 H   0  0  0  0  0  0  0  0  0  0  0  0  # atno 8009 bound_to 7997
  154.6448  140.2530  155.7288 H   0  0  0  0  0  0  0  0  0  0  0  0  # atno 8010 bound_to 7997
  139.7922  143.7950  152.2651 H   0  0  0  0  0  0  0  0  0  0  0  0  # atno 10167 bound_to 10162
  157.6921  131.0194  150.2892 H   0  0  0  0  0  0  0  0  0  0  0  0  # atno 10718 bound_to 10713
  153.2835  135.4164  155.1101 H   0  0  0  0  0  0  0  0  0  0  0  0  # atno 10763 bound_to 10752
  154.8497  135.3501  154.6079 H   0  0  0  0  0  0  0  0  0  0  0  0  # atno 10764 bound_to 10752
  153.6500  135.7053  153.5270 H   0  0  0  0  0  0  0  0  0  0  0  0  # atno 10765 bound_to 10752
  140.0408  134.5876  155.9384 H   0  0  0  0  0  0  0  0  0  0  0  0  # atno 11005 bound_to 11000
  144.7200  140.4341  143.7015 LP  0  0  0  0  0  0  0  0  0  0  0  0  # atno 17320 bound_to 7965
  145.6484  139.1561  143.2876 LP  0  0  0  0  0  0  0  0  0  0  0  0  # atno 17321 bound_to 7965
  139.8045  144.7361  150.9780 LP  0  0  0  0  0  0  0  0  0  0  0  0  # atno 17342 bound_to 10162
  140.7820  143.4312  151.0692 LP  0  0  0  0  0  0  0  0  0  0  0  0  # atno 17343 bound_to 10162
  156.3426  130.3818  149.7396 LP  0  0  0  0  0  0  0  0  0  0  0  0  # atno 17370 bound_to 10713
  156.4900  130.8081  151.3091 LP  0  0  0  0  0  0  0  0  0  0  0  0  # atno 17371 bound_to 10713
  141.1882  133.6562  156.5314 LP  0  0  0  0  0  0  0  0  0  0  0  0  # atno 17394 bound_to 11000
  140.4072  134.7304  157.4814 LP  0  0  0  0  0  0  0  0  0  0  0  0  # atno 17395 bound_to 11000

$$$$
