AV-unprocessed.smi:1251|AV-procd|sdf|5260|dock9
  -GOLD-   22720 4373D 1   1.00000     0.00000
 Structure written by MMmdl.
 38 39  0  0  0  0  0  0  0  0  2 V2000
  155.3757  137.5760  164.3932 C   0  0  0  0  0  0  0  0  0  0  0  0
  154.9135  137.9448  162.9793 C   0  0  0  0  0  0  0  0  0  0  0  0
  154.7506  136.7162  162.0735 C   0  0  0  0  0  0  0  0  0  0  0  0
  154.3006  137.0743  160.6965 C   0  0  0  0  0  0  0  0  0  0  0  0
  154.1113  136.1646  159.7373 N   0  0  0  0  0  0  0  0  0  0  0  0
  153.7193  136.7426  158.5388 N   0  0  0  0  0  0  0  0  0  0  0  0
  153.6409  138.0793  158.6002 C   0  0  0  0  0  0  0  0  0  0  0  0
  153.2750  138.8263  157.5452 N   0  5  0  0  0  0  0  0  0  0  0  0
  152.1311  139.5465  157.5895 C   0  0  0  0  0  0  0  0  0  0  0  0
  150.9892  139.1151  157.4160 O   0  0  0  0  0  0  0  0  0  0  0  0
  152.3258  140.8475  157.8493 N   0  0  0  0  0  0  0  0  0  0  0  0
  151.2911  141.8736  157.9665 C   0  0  2  0  0  0  0  0  0  0  0  0
  150.4857  141.9485  156.6592 C   0  0  0  0  0  0  0  0  0  0  0  0
  151.9381  143.2258  158.3230 C   0  0  2  0  0  0  0  0  0  0  0  0
  152.3370  143.3734  159.7930 C   0  0  0  0  0  0  0  0  0  0  0  0
  152.3563  144.8757  159.9551 C   0  0  0  0  0  0  0  0  0  0  0  0
  151.1645  145.2968  159.1005 C   0  0  0  0  0  0  0  0  0  0  0  0
  151.0267  144.2985  158.0921 O   0  0  0  0  0  0  0  0  0  0  0  0
  154.0377  138.7345  160.1889 S   0  0  0  0  0  0  0  0  0  0  0  0
  155.4808  138.4673  165.0121 H   0  0  0  0  0  0  0  0  0  0  0  0
  156.3411  137.0697  164.3716 H   0  0  0  0  0  0  0  0  0  0  0  0
  154.6597  136.9141  164.8813 H   0  0  0  0  0  0  0  0  0  0  0  0
  153.9668  138.4831  163.0392 H   0  0  0  0  0  0  0  0  0  0  0  0
  155.6327  138.6338  162.5348 H   0  0  0  0  0  0  0  0  0  0  0  0
  155.6945  136.1737  162.0033 H   0  0  0  0  0  0  0  0  0  0  0  0
  154.0259  136.0254  162.5057 H   0  0  0  0  0  0  0  0  0  0  0  0
  153.2793  141.1501  157.9832 H   0  0  0  0  0  0  0  0  0  0  0  0
  150.6103  141.6070  158.7769 H   0  0  0  0  0  0  0  0  0  0  0  0
  149.6873  142.6874  156.7300 H   0  0  0  0  0  0  0  0  0  0  0  0
  150.0230  140.9891  156.4260 H   0  0  0  0  0  0  0  0  0  0  0  0
  151.1217  142.2248  155.8175 H   0  0  0  0  0  0  0  0  0  0  0  0
  152.8171  143.3985  157.6994 H   0  0  0  0  0  0  0  0  0  0  0  0
  151.5772  142.9376  160.4436 H   0  0  0  0  0  0  0  0  0  0  0  0
  153.2948  142.9065  160.0248 H   0  0  0  0  0  0  0  0  0  0  0  0
  152.2725  145.1978  160.9931 H   0  0  0  0  0  0  0  0  0  0  0  0
  153.2796  145.2840  159.5422 H   0  0  0  0  0  0  0  0  0  0  0  0
  150.2525  145.3107  159.6985 H   0  0  0  0  0  0  0  0  0  0  0  0
  151.2980  146.2868  158.6640 H   0  0  0  0  0  0  0  0  0  0  0  0
  1  2  1  0  0  0  0
  1 20  1  0  0  0  0
  1 21  1  0  0  0  0
  1 22  1  0  0  0  0
  2  3  1  0  0  0  0
  2 23  1  0  0  0  0
  2 24  1  0  0  0  0
  3  4  1  0  0  0  0
  3 25  1  0  0  0  0
  3 26  1  0  0  0  0
  4 19  1  0  0  0  0
  4  5  2  0  0  0  0
  5  6  1  0  0  0  0
  6  7  2  0  0  0  0
  7  8  1  0  0  0  0
  7 19  1  0  0  0  0
  8  9  1  0  0  0  0
  9 10  2  0  0  0  0
  9 11  1  0  0  0  0
 11 12  1  0  0  0  0
 11 27  1  0  0  0  0
 12 13  1  0  0  0  0
 12 14  1  0  0  0  0
 12 28  1  0  0  0  0
 13 29  1  0  0  0  0
 13 30  1  0  0  0  0
 13 31  1  0  0  0  0
 14 18  1  0  0  0  0
 14 15  1  0  0  0  0
 14 32  1  0  0  0  0
 15 16  1  0  0  0  0
 15 33  1  0  0  0  0
 15 34  1  0  0  0  0
 16 17  1  0  0  0  0
 16 35  1  0  0  0  0
 16 36  1  0  0  0  0
 17 18  1  0  0  0  0
 17 37  1  0  0  0  0
 17 38  1  0  0  0  0
M  CHG  1   8  -1
M  END
> <s_m_source_file>
AV-unprocessed.smi

> <i_m_source_file_index>
1251

> <i_lp_mmshare_version>
43012

> <i_f3d_flags>
0

> <s_epik_input>
W0NIM11bQ0gyXVtDSDJdYzFubmMoczEpW05IXUMoPU8pW05IXVtDQEhdKFtDSDNdKVtDQEBIXTJbQ0gyXVtDSDJdW0NIMl1PMg==

> <s_epik_cmdline>
J2VwaWtfcHl0aG9uJywgJy1waCcsICc3LjAnLCAnLXRuJywgJzgnLCAnLW1hJywgJzIwMCcsICctbWV0YWxfYmluZGluZycsICctaW1hZScsICc8aW5maWxlLm1hZT4nLCAnLW9tYWUnLCAnPG91dGZpbGUubWFlPic=

> <r_lp_tautomer_probability>
1

> <r_epik_Ionization_Penalty>
4.22551

> <r_epik_Ionization_Penalty_Charging>
4.21437

> <r_epik_Ionization_Penalty_Neutral>
0.0111434

> <r_epik_State_Penalty>
4.21389

> <r_epik_Charging_Adjusted_Penalty>
8.42826

> <i_epik_Tot_Q>
-1

> <i_epik_Tot_abs_Q>
1

> <r_epik_Metal_State_Penalty>
0.69377

> <b_epik_Metal_Only>
1

> <s_lp_Force_Field>
OPLS_2005

> <r_lp_Energy>
11.2841

> <b_lp_Chiralities_Consistent>
1

> <s_lp_Variant>
AV-unprocessed.smi:1251-5

> <Gold.Version>
5.8.1

> <Gold.Id.Protein>
6NUR|6NUR_protein|mol2

> <Gold.PLP.Fitness>
41.8405

> <Gold.PLP.PLP>
-36.0552

> <Gold.PLP.part.hbond>
-2.0000

> <Gold.PLP.part.metal>
0.0000

> <Gold.PLP.part.buried>
-5.4458

> <Gold.PLP.part.nonpolar>
-29.4612

> <Gold.PLP.part.repulsive>
0.2416

> <Gold.PLP.ligand.clash>
0.0000

> <Gold.PLP.ligand.torsion>
1.6393

> <Gold.PLP.Chemscore.Hbond>
3.0000

> <Gold.PLP.Chemscore.CHOScore>
0.0000

> <Gold.PLP.Chemscore.Metal>
0.0000

> <Gold.Chemscore.Hbonds>
donor molecule, donor type, donor heavy atom, donor atom, acceptor molecule, acceptor atom, score
      P1  H  6896  6908       L1     5  0.46
      P1  H  7997  8010       L1     8  2.00

> <Gold.PLP.Chemscore.Internal.Correction>
0.0640

> <Gold.Rescore>
     Score         DG    S(hbond)    S(metal)    S(lipo)     H(rot)  DE(clash)    DE(int)     intcor
     14.65     -17.90       1.53        0.00      96.22       1.55       0.30       2.95       ----

> <Gold.Chemscore.Fitness>
14.6474

> <Gold.Chemscore.DG>
-17.8955

> <Gold.Chemscore.ZeroCoef>
-5.4800

> <Gold.Chemscore.Hbond>
1.5324

> <Gold.Chemscore.Metal>
0.0000

> <Gold.Chemscore.Lipo>
96.2168

> <Gold.Chemscore.Internal_Hbond>
0.0000

> <Gold.Chemscore.DEClash>
0.2969

> <Gold.Chemscore.DEInternal>
2.9513

> <Gold.Chemscore.Rot>
1.5469

> <Gold.Chemscore.Internal.Correction>
   9.000000E+99

> <Gold.Chemscore.Hbonds>
donor molecule, donor type, donor heavy atom, donor atom, acceptor molecule, acceptor atom, score
      P1  H  6896  6908       L1     5  0.10
      P1  H  7997  8010       L1     8  0.41

> <Gold.Chemscore.Hbond.Weighted>
-5.1182

> <Gold.Chemscore.Metal.Weighted>
-0.0000

> <Gold.Chemscore.Lipo.Weighted>
-11.2574

> <Gold.Chemscore.Internal_Hbond.Weighted>
0.0000

> <Gold.Chemscore.DEClash.Weighted>
0.2969

> <Gold.Chemscore.DEInternal.Weighted>
2.9513

> <Gold.Chemscore.Rot.Weighted>
3.9600

> <Gold.Chemscore.Internal.Correction.Weighted>
   9.000000E+99

> <Gold.Protein.RotatedTorsions>
[ 6907 6896 6895 6894 ] final  -67.63 input  -60.11 | X-H torsion
[ 7974 7965 7964 7962 ] final   81.30 input  175.53 | X-H torsion
[ 8008 7997 7996 7995 ] final   40.81 input   59.86 | X-H torsion
[ 10167 10162 10161 10158 ] final  -57.11 input  -65.29 | X-H torsion
[ 10718 10713 10712 10709 ] final -127.07 input   66.30 | X-H torsion
[ 10763 10752 10751 10750 ] final -145.30 input  -60.55 | X-H torsion
[ 11005 11000 10999 10996 ] final  -67.25 input  -57.11 | X-H torsion

> <Gold.Protein.ActiveResidues>
 VAL166  LYS551  ARG553  GLY616  TRP617  ASP618  TYR619  PRO620  LYS621  CYS622 
 ASP623  PHE694  ASN695  SER759  ASP760  ASP761  ALA762  ILE779  LEU786  VAL792 
 PHE793  MET794  SER795  GLU796  ALA797  LYS798  CYS799  TRP800  GLU811  SER814 

> <Gold.Protein.RotatedAtoms>
  150.7399  134.5854  159.5959 H   0  0  0  0  0  0  0  0  0  0  0  0  # atno 6907 bound_to 6896
  152.3256  134.7322  160.0311 H   0  0  0  0  0  0  0  0  0  0  0  0  # atno 6908 bound_to 6896
  151.7823  133.3315  159.3511 H   0  0  0  0  0  0  0  0  0  0  0  0  # atno 6909 bound_to 6896
  145.6400  139.2423  143.2036 H   0  0  0  0  0  0  0  0  0  0  0  0  # atno 7974 bound_to 7965
  155.2593  140.3358  155.4274 H   0  0  0  0  0  0  0  0  0  0  0  0  # atno 8008 bound_to 7997
  156.2182  140.1797  156.7583 H   0  0  0  0  0  0  0  0  0  0  0  0  # atno 8009 bound_to 7997
  154.5784  140.0658  156.9053 H   0  0  0  0  0  0  0  0  0  0  0  0  # atno 8010 bound_to 7997
  140.6277  143.2445  151.5320 H   0  0  0  0  0  0  0  0  0  0  0  0  # atno 10167 bound_to 10162
  156.1823  130.6740  151.0320 H   0  0  0  0  0  0  0  0  0  0  0  0  # atno 10718 bound_to 10713
  154.8389  135.3417  154.6483 H   0  0  0  0  0  0  0  0  0  0  0  0  # atno 10763 bound_to 10752
  153.7095  135.6965  153.5045 H   0  0  0  0  0  0  0  0  0  0  0  0  # atno 10764 bound_to 10752
  153.2462  135.4368  155.0704 H   0  0  0  0  0  0  0  0  0  0  0  0  # atno 10765 bound_to 10752
  141.1503  133.6715  156.6264 H   0  0  0  0  0  0  0  0  0  0  0  0  # atno 11005 bound_to 11000
  146.1288  140.7212  142.9422 LP  0  0  0  0  0  0  0  0  0  0  0  0  # atno 17320 bound_to 7965
  144.7161  140.4214  143.7043 LP  0  0  0  0  0  0  0  0  0  0  0  0  # atno 17321 bound_to 7965
  139.5495  144.2432  152.1505 LP  0  0  0  0  0  0  0  0  0  0  0  0  # atno 17342 bound_to 10162
  140.1667  144.4974  150.6602 LP  0  0  0  0  0  0  0  0  0  0  0  0  # atno 17343 bound_to 10162
  157.6876  131.0820  150.7199 LP  0  0  0  0  0  0  0  0  0  0  0  0  # atno 17370 bound_to 10713
  156.7256  130.4694  149.5512 LP  0  0  0  0  0  0  0  0  0  0  0  0  # atno 17371 bound_to 10713
  140.3501  134.7776  157.4460 LP  0  0  0  0  0  0  0  0  0  0  0  0  # atno 17394 bound_to 11000
  140.0868  134.5656  155.8484 LP  0  0  0  0  0  0  0  0  0  0  0  0  # atno 17395 bound_to 11000

$$$$
