AV-unprocessed.smi:754|AV-procd|sdf|3607|dock2
  -GOLD-   22720 1 03D 1   1.00000     0.00000
 Structure written by MMmdl.
 37 38  0  0  0  0  0  0  0  0  1 V2000
  144.1490  132.6392  149.6745 C   0  0  0  0  0  0  0  0  0  0  0  0
  145.3684  133.0642  150.4954 C   0  0  0  0  0  0  0  0  0  0  0  0
  145.0559  134.2539  151.2004 O   0  0  0  0  0  0  0  0  0  0  0  0
  146.1294  134.7163  152.0053 C   0  0  2  0  0  0  0  0  0  0  0  0
  146.4439  133.8320  153.2152 C   0  0  0  0  0  0  0  0  0  0  0  0
  146.6041  135.1205  154.0286 C   0  0  1  0  0  0  0  0  0  0  0  0
  148.0014  135.5539  154.0517 N   0  0  0  0  0  0  0  0  0  0  0  0
  148.7016  135.8089  155.1674 C   0  0  0  0  0  0  0  0  0  0  0  0
  148.2269  135.7248  156.2994 O   0  0  0  0  0  0  0  0  0  0  0  0
  150.1596  136.2279  154.9786 C   0  0  0  0  0  0  0  0  0  0  0  0
  150.2957  137.6716  155.0175 N   0  0  0  0  0  0  0  0  0  0  0  0
  150.0788  138.5986  154.0820 C   0  0  0  0  0  0  0  0  0  0  0  0
  150.3371  139.8172  154.5315 N   0  0  0  0  0  0  0  0  0  0  0  0
  150.7393  139.5916  155.8375 N   0  0  0  0  0  0  0  0  0  0  0  0
  150.7175  138.3204  156.1313 N   0  0  0  0  0  0  0  0  0  0  0  0
  145.7256  135.8538  152.9742 C   0  0  0  0  0  0  0  0  0  0  0  0
  146.1313  137.2693  152.5471 C   0  0  0  0  0  0  0  0  0  0  0  0
  144.2376  135.9209  153.3446 C   0  0  0  0  0  0  0  0  0  0  0  0
  144.3538  131.7250  149.1171 H   0  0  0  0  0  0  0  0  0  0  0  0
  143.8703  133.4127  148.9586 H   0  0  0  0  0  0  0  0  0  0  0  0
  143.2897  132.4522  150.3189 H   0  0  0  0  0  0  0  0  0  0  0  0
  145.6405  132.2699  151.1916 H   0  0  0  0  0  0  0  0  0  0  0  0
  146.2211  133.2324  149.8361 H   0  0  0  0  0  0  0  0  0  0  0  0
  147.0211  134.9666  151.4263 H   0  0  0  0  0  0  0  0  0  0  0  0
  145.5917  133.2317  153.5375 H   0  0  0  0  0  0  0  0  0  0  0  0
  147.3443  133.2250  153.1138 H   0  0  0  0  0  0  0  0  0  0  0  0
  146.1438  135.0517  155.0161 H   0  0  0  0  0  0  0  0  0  0  0  0
  148.4653  135.6542  153.1604 H   0  0  0  0  0  0  0  0  0  0  0  0
  150.7804  135.7922  155.7626 H   0  0  0  0  0  0  0  0  0  0  0  0
  150.5364  135.8556  154.0247 H   0  0  0  0  0  0  0  0  0  0  0  0
  149.7390  138.3817  153.0802 H   0  0  0  0  0  0  0  0  0  0  0  0
  146.0679  137.9706  153.3797 H   0  0  0  0  0  0  0  0  0  0  0  0
  145.4899  137.6457  151.7496 H   0  0  0  0  0  0  0  0  0  0  0  0
  147.1533  137.3054  152.1693 H   0  0  0  0  0  0  0  0  0  0  0  0
  144.0636  136.6166  154.1661 H   0  0  0  0  0  0  0  0  0  0  0  0
  143.8521  134.9513  153.6605 H   0  0  0  0  0  0  0  0  0  0  0  0
  143.6274  136.2487  152.5025 H   0  0  0  0  0  0  0  0  0  0  0  0
  1  2  1  0  0  0  0
  1 19  1  0  0  0  0
  1 20  1  0  0  0  0
  1 21  1  0  0  0  0
  2  3  1  0  0  0  0
  2 22  1  0  0  0  0
  2 23  1  0  0  0  0
  3  4  1  0  0  0  0
  4 16  1  0  0  0  0
  4  5  1  0  0  0  0
  4 24  1  0  0  0  0
  5  6  1  0  0  0  0
  5 25  1  0  0  0  0
  5 26  1  0  0  0  0
  6  7  1  0  0  0  0
  6 16  1  0  0  0  0
  6 27  1  0  0  0  0
  7  8  1  0  0  0  0
  7 28  1  0  0  0  0
  8  9  2  0  0  0  0
  8 10  1  0  0  0  0
 10 11  1  0  0  0  0
 10 29  1  0  0  0  0
 10 30  1  0  0  0  0
 11 15  1  0  0  0  0
 11 12  1  0  0  0  0
 12 13  2  0  0  0  0
 12 31  1  0  0  0  0
 13 14  1  0  0  0  0
 14 15  2  0  0  0  0
 16 17  1  0  0  0  0
 16 18  1  0  0  0  0
 17 32  1  0  0  0  0
 17 33  1  0  0  0  0
 17 34  1  0  0  0  0
 18 35  1  0  0  0  0
 18 36  1  0  0  0  0
 18 37  1  0  0  0  0
M  END
> <s_m_source_file>
AV-unprocessed.smi

> <i_m_source_file_index>
754

> <i_lp_mmshare_version>
43012

> <i_f3d_flags>
0

> <s_epik_input>
W0NIM11bQ0gyXU9bQ0BASF0oQzEoW0NIM10pW0NIM10pW0NIMl1bQ0BIXTFbTkhdQyg9TylbQ0gyXW4yW2NIXW5ubjI=

> <s_epik_cmdline>
J2VwaWtfcHl0aG9uJywgJy1waCcsICc3LjAnLCAnLXRuJywgJzgnLCAnLW1hJywgJzIwMCcsICctbWV0YWxfYmluZGluZycsICctaW1hZScsICc8aW5maWxlLm1hZT4nLCAnLW9tYWUnLCAnPG91dGZpbGUubWFlPic=

> <r_lp_tautomer_probability>
1

> <r_epik_Ionization_Penalty>
8.28422e-07

> <r_epik_Ionization_Penalty_Charging>
0

> <r_epik_Ionization_Penalty_Neutral>
8.28422e-07

> <r_epik_State_Penalty>
-0

> <r_epik_Charging_Adjusted_Penalty>
0

> <i_epik_Tot_Q>
0

> <i_epik_Tot_abs_Q>
0

> <r_epik_Metal_State_Penalty>
-0

> <b_epik_Metal_Only>
0

> <s_lp_Force_Field>
OPLS_2005

> <r_lp_Energy>
23.2797

> <b_lp_Chiralities_Consistent>
1

> <s_lp_Variant>
AV-unprocessed.smi:754-1

> <Gold.Version>
5.8.1

> <Gold.Id.Protein>
6NUR|6NUR_protein|mol2

> <Gold.PLP.Fitness>
30.9417

> <Gold.PLP.PLP>
-20.4346

> <Gold.PLP.part.hbond>
-1.9453

> <Gold.PLP.part.metal>
0.0000

> <Gold.PLP.part.buried>
-3.3122

> <Gold.PLP.part.nonpolar>
-16.3183

> <Gold.PLP.part.repulsive>
0.2606

> <Gold.PLP.ligand.clash>
0.0000

> <Gold.PLP.ligand.torsion>
0.7828

> <Gold.PLP.Chemscore.Hbond>
2.0000

> <Gold.PLP.Chemscore.CHOScore>
1.9058

> <Gold.PLP.Chemscore.Metal>
0.0000

> <Gold.Chemscore.Hbonds>
donor molecule, donor type, donor heavy atom, donor atom, acceptor molecule, acceptor atom, score
      L1  H     7    28       P1  7948  0.89
      P1  H  7989  7998       L1    13  1.00
      L1  C    12    31       P1  7948  0.95
      L1  C    12    31       P1  7957  0.93

> <Gold.PLP.Chemscore.Internal.Correction>
0.3553

> <Gold.Rescore>
     Score         DG    S(hbond)    S(metal)    S(lipo)     H(rot)  DE(clash)    DE(int)     intcor
      9.87     -10.63       1.93        0.00      42.66       2.46       0.06       0.70       ----

> <Gold.Chemscore.Fitness>
9.8701

> <Gold.Chemscore.DG>
-10.6303

> <Gold.Chemscore.ZeroCoef>
-5.4800

> <Gold.Chemscore.Hbond>
1.9342

> <Gold.Chemscore.Metal>
0.0000

> <Gold.Chemscore.Lipo>
42.6642

> <Gold.Chemscore.Internal_Hbond>
0.0000

> <Gold.Chemscore.DEClash>
0.0605

> <Gold.Chemscore.DEInternal>
0.6997

> <Gold.Chemscore.Rot>
2.4616

> <Gold.Chemscore.Internal.Correction>
   9.000000E+99

> <Gold.Chemscore.Hbonds>
donor molecule, donor type, donor heavy atom, donor atom, acceptor molecule, acceptor atom, score
      L1  H     7    28       P1  7948  0.87
      P1  H  7989  7998       L1    13  0.81

> <Gold.Chemscore.Hbond.Weighted>
-6.4602

> <Gold.Chemscore.Metal.Weighted>
-0.0000

> <Gold.Chemscore.Lipo.Weighted>
-4.9917

> <Gold.Chemscore.Internal_Hbond.Weighted>
0.0000

> <Gold.Chemscore.DEClash.Weighted>
0.0605

> <Gold.Chemscore.DEInternal.Weighted>
0.6997

> <Gold.Chemscore.Rot.Weighted>
6.3016

> <Gold.Chemscore.Internal.Correction.Weighted>
   9.000000E+99

> <Gold.Protein.RotatedTorsions>
[ 6907 6896 6895 6894 ] final  110.92 input  -60.11 | X-H torsion
[ 7974 7965 7964 7962 ] final  123.59 input  175.53 | X-H torsion
[ 8008 7997 7996 7995 ] final  161.65 input   59.86 | X-H torsion
[ 10167 10162 10161 10158 ] final  -53.41 input  -65.29 | X-H torsion
[ 10718 10713 10712 10709 ] final   95.41 input   66.30 | X-H torsion
[ 10763 10752 10751 10750 ] final   22.68 input  -60.55 | X-H torsion
[ 11005 11000 10999 10996 ] final   69.74 input  -57.11 | X-H torsion

> <Gold.Protein.ActiveResidues>
 VAL166  LYS551  ARG553  GLY616  TRP617  ASP618  TYR619  PRO620  LYS621  CYS622 
 ASP623  PHE694  ASN695  SER759  ASP760  ASP761  ALA762  ILE779  LEU786  VAL792 
 PHE793  MET794  SER795  GLU796  ALA797  LYS798  CYS799  TRP800  GLU811  SER814 

> <Gold.Protein.RotatedAtoms>
  152.4995  133.8731  159.7308 H   0  0  0  0  0  0  0  0  0  0  0  0  # atno 6907 bound_to 6896
  150.9212  133.6869  159.2838 H   0  0  0  0  0  0  0  0  0  0  0  0  # atno 6908 bound_to 6896
  151.4245  135.1006  159.9676 H   0  0  0  0  0  0  0  0  0  0  0  0  # atno 6909 bound_to 6896
  145.0942  139.3565  143.4845 H   0  0  0  0  0  0  0  0  0  0  0  0  # atno 7974 bound_to 7965
  156.2088  140.1771  156.7741 H   0  0  0  0  0  0  0  0  0  0  0  0  # atno 8008 bound_to 7997
  154.5693  140.0685  156.8969 H   0  0  0  0  0  0  0  0  0  0  0  0  # atno 8009 bound_to 7997
  155.2703  140.3342  155.4268 H   0  0  0  0  0  0  0  0  0  0  0  0  # atno 8010 bound_to 7997
  140.6486  143.2551  151.4787 H   0  0  0  0  0  0  0  0  0  0  0  0  # atno 10167 bound_to 10162
  157.6939  131.0545  150.4335 H   0  0  0  0  0  0  0  0  0  0  0  0  # atno 10718 bound_to 10713
  153.0897  135.6643  153.9879 H   0  0  0  0  0  0  0  0  0  0  0  0  # atno 10763 bound_to 10752
  153.9479  135.2987  155.3441 H   0  0  0  0  0  0  0  0  0  0  0  0  # atno 10764 bound_to 10752
  154.7309  135.5123  153.9036 H   0  0  0  0  0  0  0  0  0  0  0  0  # atno 10765 bound_to 10752
  139.9636  134.7018  156.0592 H   0  0  0  0  0  0  0  0  0  0  0  0  # atno 11005 bound_to 11000
  146.3531  140.0790  142.8619 LP  0  0  0  0  0  0  0  0  0  0  0  0  # atno 17320 bound_to 7965
  145.1031  140.9358  143.4701 LP  0  0  0  0  0  0  0  0  0  0  0  0  # atno 17321 bound_to 7965
  139.5699  144.1953  152.1821 LP  0  0  0  0  0  0  0  0  0  0  0  0  # atno 17342 bound_to 10162
  140.1246  144.5343  150.6841 LP  0  0  0  0  0  0  0  0  0  0  0  0  # atno 17343 bound_to 10162
  156.4700  130.4050  149.6524 LP  0  0  0  0  0  0  0  0  0  0  0  0  # atno 17370 bound_to 10713
  156.3608  130.7480  151.2452 LP  0  0  0  0  0  0  0  0  0  0  0  0  # atno 17371 bound_to 10713
  141.1315  133.6585  156.3477 LP  0  0  0  0  0  0  0  0  0  0  0  0  # atno 17394 bound_to 11000
  140.5445  134.6088  157.5389 LP  0  0  0  0  0  0  0  0  0  0  0  0  # atno 17395 bound_to 11000

$$$$
