AV-unprocessed.smi:1830|AV-procd|sdf|7452|dock4
  -GOLD-   22720 9143D 1   1.00000     0.00000
 Structure written by MMmdl.
 53 56  0  0  0  0  0  0  0  0  2 V2000
  147.1143  138.4043  155.4086 O   0  0  0  0  0  0  0  0  0  0  0  0
  147.3909  137.7274  154.4187 C   0  0  0  0  0  0  0  0  0  0  0  0
  148.2504  138.1215  153.4690 N   0  0  0  0  0  0  0  0  0  0  0  0
  148.9965  139.3753  153.4846 C   0  0  0  0  0  0  0  0  0  0  0  0
  149.5769  139.6779  154.8770 C   0  0  2  0  0  0  0  0  0  0  0  0
  148.8485  140.8550  155.5641 C   0  0  0  0  0  0  0  0  0  0  0  0
  149.5012  141.1688  156.8203 N   0  0  0  0  0  0  0  0  0  0  0  0
  148.9899  142.2986  157.5605 C   0  0  0  0  0  0  0  0  0  0  0  0
  150.1011  142.6215  158.5749 C   0  0  0  0  0  0  0  0  0  0  0  0
  151.3676  141.9644  157.9819 C   0  0  0  0  0  0  0  0  0  0  0  0
  150.8882  141.4857  156.6106 C   0  0  1  0  0  0  0  0  0  0  0  0
  151.6261  140.3012  155.9699 C   0  0  0  0  0  0  0  0  0  0  0  0
  150.9701  139.9871  154.7385 O   0  0  0  0  0  0  0  0  0  0  0  0
  146.9011  136.5051  154.1531 N   0  0  0  0  0  0  0  0  0  0  0  0
  146.0396  135.7045  154.9567 C   0  0  0  0  0  0  0  0  0  0  0  0
  145.9518  135.8914  156.3609 C   0  0  0  0  0  0  0  0  0  0  0  0
  145.1141  135.0628  157.1306 C   0  0  0  0  0  0  0  0  0  0  0  0
  144.3705  134.0607  156.4851 C   0  0  0  0  0  0  0  0  0  0  0  0
  144.4569  133.9228  155.1462 N   0  3  0  0  0  0  0  0  0  0  0  0
  145.2327  134.6985  154.3481 C   0  0  0  0  0  0  0  0  0  0  0  0
  145.2060  134.4427  152.9574 N   0  0  0  0  0  0  0  0  0  0  0  0
  145.9045  133.2869  152.4065 C   0  0  0  0  0  0  0  0  0  0  0  0
  145.3685  133.1391  150.9854 C   0  0  0  0  0  0  0  0  0  0  0  0
  143.9133  133.5706  151.1376 C   0  0  0  0  0  0  0  0  0  0  0  0
  143.9669  134.6577  152.2161 C   0  0  0  0  0  0  0  0  0  0  0  0
  148.4241  137.5020  152.6912 H   0  0  0  0  0  0  0  0  0  0  0  0
  149.8010  139.3055  152.7519 H   0  0  0  0  0  0  0  0  0  0  0  0
  148.3491  140.1907  153.1575 H   0  0  0  0  0  0  0  0  0  0  0  0
  149.4815  138.7936  155.5096 H   0  0  0  0  0  0  0  0  0  0  0  0
  148.8569  141.7290  154.9109 H   0  0  0  0  0  0  0  0  0  0  0  0
  147.8034  140.6000  155.7418 H   0  0  0  0  0  0  0  0  0  0  0  0
  148.8385  143.1487  156.8933 H   0  0  0  0  0  0  0  0  0  0  0  0
  148.0371  142.0693  158.0387 H   0  0  0  0  0  0  0  0  0  0  0  0
  150.2180  143.6985  158.6982 H   0  0  0  0  0  0  0  0  0  0  0  0
  149.8745  142.1947  159.5526 H   0  0  0  0  0  0  0  0  0  0  0  0
  152.2062  142.6569  157.9066 H   0  0  0  0  0  0  0  0  0  0  0  0
  151.6772  141.1203  158.5995 H   0  0  0  0  0  0  0  0  0  0  0  0
  150.9556  142.3324  155.9239 H   0  0  0  0  0  0  0  0  0  0  0  0
  152.6669  140.5563  155.7709 H   0  0  0  0  0  0  0  0  0  0  0  0
  151.6217  139.4305  156.6275 H   0  0  0  0  0  0  0  0  0  0  0  0
  147.2861  136.0462  153.3408 H   0  0  0  0  0  0  0  0  0  0  0  0
  146.5121  136.6638  156.8650 H   0  0  0  0  0  0  0  0  0  0  0  0
  145.0467  135.1937  158.2008 H   0  0  0  0  0  0  0  0  0  0  0  0
  143.7065  133.3758  156.9926 H   0  0  0  0  0  0  0  0  0  0  0  0
  146.9853  133.4297  152.4189 H   0  0  0  0  0  0  0  0  0  0  0  0
  145.6683  132.3898  152.9803 H   0  0  0  0  0  0  0  0  0  0  0  0
  145.8916  133.8223  150.3148 H   0  0  0  0  0  0  0  0  0  0  0  0
  145.4768  132.1277  150.5929 H   0  0  0  0  0  0  0  0  0  0  0  0
  143.4730  133.9215  150.2039 H   0  0  0  0  0  0  0  0  0  0  0  0
  143.3179  132.7290  151.4941 H   0  0  0  0  0  0  0  0  0  0  0  0
  143.0879  134.6189  152.8611 H   0  0  0  0  0  0  0  0  0  0  0  0
  144.0044  135.6424  151.7489 H   0  0  0  0  0  0  0  0  0  0  0  0
  143.8965  133.1931  154.7056 H   0  0  0  0  0  0  0  0  0  0  0  0
  1  2  2  0  0  0  0
  2  3  1  0  0  0  0
  2 14  1  0  0  0  0
  3  4  1  0  0  0  0
  3 26  1  0  0  0  0
  4  5  1  0  0  0  0
  4 27  1  0  0  0  0
  4 28  1  0  0  0  0
  5 13  1  0  0  0  0
  5  6  1  0  0  0  0
  5 29  1  0  0  0  0
  6  7  1  0  0  0  0
  6 30  1  0  0  0  0
  6 31  1  0  0  0  0
  7 11  1  0  0  0  0
  7  8  1  0  0  0  0
  8  9  1  0  0  0  0
  8 32  1  0  0  0  0
  8 33  1  0  0  0  0
  9 10  1  0  0  0  0
  9 34  1  0  0  0  0
  9 35  1  0  0  0  0
 10 11  1  0  0  0  0
 10 36  1  0  0  0  0
 10 37  1  0  0  0  0
 11 12  1  0  0  0  0
 11 38  1  0  0  0  0
 12 13  1  0  0  0  0
 12 39  1  0  0  0  0
 12 40  1  0  0  0  0
 14 15  1  0  0  0  0
 14 41  1  0  0  0  0
 15 20  1  0  0  0  0
 15 16  2  0  0  0  0
 16 17  1  0  0  0  0
 16 42  1  0  0  0  0
 17 18  2  0  0  0  0
 17 43  1  0  0  0  0
 18 19  1  0  0  0  0
 18 44  1  0  0  0  0
 19 20  2  0  0  0  0
 19 53  1  0  0  0  0
 20 21  1  0  0  0  0
 21 25  1  0  0  0  0
 21 22  1  0  0  0  0
 22 23  1  0  0  0  0
 22 45  1  0  0  0  0
 22 46  1  0  0  0  0
 23 24  1  0  0  0  0
 23 47  1  0  0  0  0
 23 48  1  0  0  0  0
 24 25  1  0  0  0  0
 24 49  1  0  0  0  0
 24 50  1  0  0  0  0
 25 51  1  0  0  0  0
 25 52  1  0  0  0  0
M  CHG  1  19   1
M  END
> <s_m_source_file>
AV-unprocessed.smi

> <i_m_source_file_index>
1830

> <i_lp_mmshare_version>
43012

> <i_f3d_flags>
0

> <s_epik_input>
W0NIMl0xW0NIMl1bQ0gyXVtDQEhdKE4xMilbQ0gyXU9bQ0BASF0oW0NIMl0yKVtDSDJdW05IXUMoPU8pW05IXWMzW2NIXVtjSF1bY0hdbmMzTjRbQ0gyXVtDSDJdW0NIMl1bQ0gyXTQ=

> <s_epik_cmdline>
J2VwaWtfcHl0aG9uJywgJy1waCcsICc3LjAnLCAnLXRuJywgJzgnLCAnLW1hJywgJzIwMCcsICctbWV0YWxfYmluZGluZycsICctaW1hZScsICc8aW5maWxlLm1hZT4nLCAnLW9tYWUnLCAnPG91dGZpbGUubWFlPic=

> <r_epik_Ionization_Penalty>
2.19264

> <r_epik_Ionization_Penalty_Charging>
1.12452

> <r_epik_Ionization_Penalty_Neutral>
1.06812

> <r_epik_State_Penalty>
2.334

> <r_epik_Charging_Adjusted_Penalty>
3.45852

> <i_epik_Tot_Q>
1

> <i_epik_Tot_abs_Q>
1

> <r_epik_Metal_State_Penalty>
2.41144

> <b_epik_Metal_Only>
0

> <s_lp_Force_Field>
OPLS_2005

> <r_lp_Energy>
81.6261

> <b_lp_Chiralities_Consistent>
1

> <s_lp_Variant>
AV-unprocessed.smi:1830-21

> <Gold.Version>
5.8.1

> <Gold.Id.Protein>
6NUR|6NUR_protein|mol2

> <Gold.PLP.Fitness>
39.4362

> <Gold.PLP.PLP>
-26.9841

> <Gold.PLP.part.hbond>
-4.4013

> <Gold.PLP.part.metal>
0.0000

> <Gold.PLP.part.buried>
-0.3599

> <Gold.PLP.part.nonpolar>
-22.1568

> <Gold.PLP.part.repulsive>
0.2826

> <Gold.PLP.ligand.clash>
0.0000

> <Gold.PLP.ligand.torsion>
1.1498

> <Gold.PLP.Chemscore.Hbond>
4.7848

> <Gold.PLP.Chemscore.CHOScore>
0.0000

> <Gold.PLP.Chemscore.Metal>
0.0000

> <Gold.Chemscore.Hbonds>
donor molecule, donor type, donor heavy atom, donor atom, acceptor molecule, acceptor atom, score
      L1  H     3    26       P1  7948  1.00
      L1  H    14    41       P1  7948  0.41
      L1  H    19    53       P1 10957  2.00
      P1  H  7989  7998       L1    13  1.00

> <Gold.PLP.Chemscore.Internal.Correction>
0.3973

> <Gold.Rescore>
     Score         DG    S(hbond)    S(metal)    S(lipo)     H(rot)  DE(clash)    DE(int)     intcor
     17.09     -22.48       3.48        0.00      76.39       1.40       1.62       3.77       ----

> <Gold.Chemscore.Fitness>
17.0863

> <Gold.Chemscore.DG>
-22.4787

> <Gold.Chemscore.ZeroCoef>
-5.4800

> <Gold.Chemscore.Hbond>
3.4833

> <Gold.Chemscore.Metal>
0.0000

> <Gold.Chemscore.Lipo>
76.3942

> <Gold.Chemscore.Internal_Hbond>
0.0000

> <Gold.Chemscore.DEClash>
1.6177

> <Gold.Chemscore.DEInternal>
3.7747

> <Gold.Chemscore.Rot>
1.3959

> <Gold.Chemscore.Internal.Correction>
   9.000000E+99

> <Gold.Chemscore.Hbonds>
donor molecule, donor type, donor heavy atom, donor atom, acceptor molecule, acceptor atom, score
      L1  H     3    26       P1  7948  0.98
      L1  H    14    41       P1  7948  0.41
      L1  H    19    53       P1 10957  0.95
      P1  H  7989  7998       L1    13  0.74

> <Gold.Chemscore.Hbond.Weighted>
-11.6342

> <Gold.Chemscore.Metal.Weighted>
-0.0000

> <Gold.Chemscore.Lipo.Weighted>
-8.9381

> <Gold.Chemscore.Internal_Hbond.Weighted>
0.0000

> <Gold.Chemscore.DEClash.Weighted>
1.6177

> <Gold.Chemscore.DEInternal.Weighted>
3.7747

> <Gold.Chemscore.Rot.Weighted>
3.5736

> <Gold.Chemscore.Internal.Correction.Weighted>
   9.000000E+99

> <Gold.Protein.RotatedTorsions>
[ 6907 6896 6895 6894 ] final -123.53 input  -60.11 | X-H torsion
[ 7974 7965 7964 7962 ] final -156.42 input  175.53 | X-H torsion
[ 8008 7997 7996 7995 ] final  -64.61 input   59.86 | X-H torsion
[ 10167 10162 10161 10158 ] final -145.56 input  -65.29 | X-H torsion
[ 10718 10713 10712 10709 ] final  106.36 input   66.30 | X-H torsion
[ 10763 10752 10751 10750 ] final   92.09 input  -60.55 | X-H torsion
[ 11005 11000 10999 10996 ] final  121.80 input  -57.11 | X-H torsion

> <Gold.Protein.ActiveResidues>
 VAL166  LYS551  ARG553  GLY616  TRP617  ASP618  TYR619  PRO620  LYS621  CYS622 
 ASP623  PHE694  ASN695  SER759  ASP760  ASP761  ALA762  ILE779  LEU786  VAL792 
 PHE793  MET794  SER795  GLU796  ALA797  LYS798  CYS799  TRP800  GLU811  SER814 

> <Gold.Protein.RotatedAtoms>
  150.8680  133.7546  159.2970 H   0  0  0  0  0  0  0  0  0  0  0  0  # atno 6907 bound_to 6896
  151.5167  135.1065  159.9877 H   0  0  0  0  0  0  0  0  0  0  0  0  # atno 6908 bound_to 6896
  152.4675  133.7910  159.6958 H   0  0  0  0  0  0  0  0  0  0  0  0  # atno 6909 bound_to 6896
  144.7594  140.4112  143.5988 H   0  0  0  0  0  0  0  0  0  0  0  0  # atno 7974 bound_to 7965
  154.4622  140.0950  156.6924 H   0  0  0  0  0  0  0  0  0  0  0  0  # atno 8008 bound_to 7997
  155.4961  140.3472  155.4344 H   0  0  0  0  0  0  0  0  0  0  0  0  # atno 8009 bound_to 7997
  156.0891  140.1393  156.9603 H   0  0  0  0  0  0  0  0  0  0  0  0  # atno 8010 bound_to 7997
  139.7794  143.8122  152.2636 H   0  0  0  0  0  0  0  0  0  0  0  0  # atno 10167 bound_to 10162
  157.6671  131.0849  150.5995 H   0  0  0  0  0  0  0  0  0  0  0  0  # atno 10718 bound_to 10713
  153.2154  135.4374  155.0427 H   0  0  0  0  0  0  0  0  0  0  0  0  # atno 10763 bound_to 10752
  154.8222  135.3343  154.7007 H   0  0  0  0  0  0  0  0  0  0  0  0  # atno 10764 bound_to 10752
  153.7442  135.7002  153.5016 H   0  0  0  0  0  0  0  0  0  0  0  0  # atno 10765 bound_to 10752
  139.9241  134.9640  156.8012 H   0  0  0  0  0  0  0  0  0  0  0  0  # atno 11005 bound_to 11000
  145.6670  139.1592  143.2776 LP  0  0  0  0  0  0  0  0  0  0  0  0  # atno 17320 bound_to 7965
  146.1640  140.6745  142.9264 LP  0  0  0  0  0  0  0  0  0  0  0  0  # atno 17321 bound_to 7965
  139.8181  144.7307  150.9609 LP  0  0  0  0  0  0  0  0  0  0  0  0  # atno 17342 bound_to 10162
  140.7818  143.4186  151.0878 LP  0  0  0  0  0  0  0  0  0  0  0  0  # atno 17343 bound_to 10162
  156.6296  130.4428  149.5791 LP  0  0  0  0  0  0  0  0  0  0  0  0  # atno 17370 bound_to 10713
  156.2292  130.6784  151.1446 LP  0  0  0  0  0  0  0  0  0  0  0  0  # atno 17371 bound_to 10713
  140.6388  133.9838  155.7697 LP  0  0  0  0  0  0  0  0  0  0  0  0  # atno 17394 bound_to 11000
  141.0785  134.0098  157.3421 LP  0  0  0  0  0  0  0  0  0  0  0  0  # atno 17395 bound_to 11000

$$$$
