AV-unprocessed.smi:196|AV-procd|sdf|1537|dock1
  -GOLD-   2262019393D 1   1.00000     0.00000
 Structure written by MMmdl.
 47 50  0  0  0  0  0  0  0  0  1 V2000
  152.9542  137.0850  157.3510 C   0  0  0  0  0  0  0  0  0  0  0  0
  152.3560  138.1444  156.4118 C   0  0  1  0  0  0  0  0  0  0  0  0
  153.2898  138.5041  155.3941 O   0  0  0  0  0  0  0  0  0  0  0  0
  152.7081  138.3273  154.1097 C   0  0  0  0  0  0  0  0  0  0  0  0
  151.2093  138.4510  154.3497 C   0  0  0  0  0  0  0  0  0  0  0  0
  151.0348  137.7722  155.7007 C   0  0  1  0  0  0  0  0  0  0  0  0
  150.9497  136.3712  155.4894 O   0  0  0  0  0  0  0  0  0  0  0  0
  149.7796  138.2287  156.4811 C   0  0  0  0  0  0  0  0  0  0  0  0
  149.5436  137.4652  157.6962 N   0  0  0  0  0  0  0  0  0  0  0  0
  150.3586  137.4099  158.8047 C   0  0  0  0  0  0  0  0  0  0  0  0
  149.9296  136.6490  159.7745 N   0  0  0  0  0  0  0  0  0  0  0  0
  148.7224  136.1507  159.3017 C   0  0  0  0  0  0  0  0  0  0  0  0
  147.7384  135.2797  159.8400 C   0  0  0  0  0  0  0  0  0  0  0  0
  147.8883  134.7280  161.0736 N   0  0  0  0  0  0  0  0  0  0  0  0
  147.7639  133.2750  161.0256 C   0  0  0  0  0  0  0  0  0  0  0  0
  146.3452  132.9425  161.5165 C   0  0  2  0  0  0  0  0  0  0  0  0
  145.5688  132.5414  160.5094 F   0  0  0  0  0  0  0  0  0  0  0  0
  145.8089  134.2481  162.1174 C   0  0  0  0  0  0  0  0  0  0  0  0
  147.0559  135.1429  162.2122 C   0  0  2  0  0  0  0  0  0  0  0  0
  146.7865  136.6533  162.3835 C   0  0  0  0  0  0  0  0  0  0  0  0
  145.5116  137.0340  162.4996 N   0  0  0  0  0  0  0  0  0  0  0  0
  147.7090  137.4637  162.4568 O   0  0  0  0  0  0  0  0  0  0  0  0
  146.6620  134.9891  159.0611 N   0  0  0  0  0  0  0  0  0  0  0  0
  146.5423  135.5367  157.8483 C   0  0  0  0  0  0  0  0  0  0  0  0
  147.3724  136.3766  157.2267 N   0  0  0  0  0  0  0  0  0  0  0  0
  148.4631  136.6545  157.9967 C   0  0  0  0  0  0  0  0  0  0  0  0
  146.3652  132.1350  162.2489 H   0  0  0  0  0  0  0  0  0  0  0  0
  147.6121  134.8506  163.1048 H   0  0  0  0  0  0  0  0  0  0  0  0
  152.2393  136.7955  158.1214 H   0  0  0  0  0  0  0  0  0  0  0  0
  153.8427  137.4709  157.8507 H   0  0  0  0  0  0  0  0  0  0  0  0
  153.2494  136.1870  156.8079 H   0  0  0  0  0  0  0  0  0  0  0  0
  152.1960  139.0559  156.9896 H   0  0  0  0  0  0  0  0  0  0  0  0
  153.0829  139.0612  153.3963 H   0  0  0  0  0  0  0  0  0  0  0  0
  152.9574  137.3323  153.7388 H   0  0  0  0  0  0  0  0  0  0  0  0
  150.9486  139.5074  154.4229 H   0  0  0  0  0  0  0  0  0  0  0  0
  150.6075  138.0115  153.5529 H   0  0  0  0  0  0  0  0  0  0  0  0
  150.2833  136.2073  154.8399 H   0  0  0  0  0  0  0  0  0  0  0  0
  149.8658  139.2826  156.7490 H   0  0  0  0  0  0  0  0  0  0  0  0
  148.8919  138.1470  155.8525 H   0  0  0  0  0  0  0  0  0  0  0  0
  151.2906  137.9526  158.8690 H   0  0  0  0  0  0  0  0  0  0  0  0
  147.9616  132.8507  160.0385 H   0  0  0  0  0  0  0  0  0  0  0  0
  148.5063  132.8518  161.7034 H   0  0  0  0  0  0  0  0  0  0  0  0
  145.0571  134.6908  161.4625 H   0  0  0  0  0  0  0  0  0  0  0  0
  145.3427  134.0863  163.0898 H   0  0  0  0  0  0  0  0  0  0  0  0
  145.2847  138.0103  162.6185 H   0  0  0  0  0  0  0  0  0  0  0  0
  144.7784  136.3401  162.4727 H   0  0  0  0  0  0  0  0  0  0  0  0
  145.6553  135.2619  157.2970 H   0  0  0  0  0  0  0  0  0  0  0  0
  1  2  1  0  0  0  0
  1 29  1  0  0  0  0
  1 30  1  0  0  0  0
  1 31  1  0  0  0  0
  2  6  1  0  0  0  0
  2  3  1  0  0  0  0
  2 32  1  0  0  0  0
  3  4  1  0  0  0  0
  4  5  1  0  0  0  0
  4 33  1  0  0  0  0
  4 34  1  0  0  0  0
  5  6  1  0  0  0  0
  5 35  1  0  0  0  0
  5 36  1  0  0  0  0
  6  7  1  0  0  0  0
  6  8  1  0  0  0  0
  7 37  1  0  0  0  0
  8  9  1  0  0  0  0
  8 38  1  0  0  0  0
  8 39  1  0  0  0  0
  9 26  1  0  0  0  0
  9 10  1  0  0  0  0
 10 11  2  0  0  0  0
 10 40  1  0  0  0  0
 11 12  1  0  0  0  0
 12 26  2  0  0  0  0
 12 13  1  0  0  0  0
 13 14  1  0  0  0  0
 13 23  2  0  0  0  0
 14 19  1  0  0  0  0
 14 15  1  0  0  0  0
 15 16  1  0  0  0  0
 15 41  1  0  0  0  0
 15 42  1  0  0  0  0
 16 27  1  0  0  0  0
 16 17  1  0  0  0  0
 16 18  1  0  0  0  0
 18 19  1  0  0  0  0
 18 43  1  0  0  0  0
 18 44  1  0  0  0  0
 19 28  1  0  0  0  0
 19 20  1  0  0  0  0
 20 21  1  0  0  0  0
 20 22  2  0  0  0  0
 21 45  1  0  0  0  0
 21 46  1  0  0  0  0
 23 24  1  0  0  0  0
 24 25  2  0  0  0  0
 24 47  1  0  0  0  0
 25 26  1  0  0  0  0
M  END
> <s_m_source_file>
AV-unprocessed.smi

> <i_m_source_file_index>
196

> <i_lp_mmshare_version>
43012

> <i_f3d_flags>
0

> <s_epik_input>
W0NIMl0xW0NIMl1PW0NAQEhdKFtDSDNdKVtDQEBdMShbT0hdKVtDSDJdbihbY0hdbjIpYyhjMjMpbltjSF1uYzNONFtDSDJdW0NASF0oRilbQ0gyXVtDQEhdNEMoPU8pW05IMl0=

> <s_epik_cmdline>
J2VwaWtfcHl0aG9uJywgJy1waCcsICc3LjAnLCAnLXRuJywgJzgnLCAnLW1hJywgJzIwMCcsICctbWV0YWxfYmluZGluZycsICctaW1hZScsICc8aW5maWxlLm1hZT4nLCAnLW9tYWUnLCAnPG91dGZpbGUubWFlPic=

> <r_lp_tautomer_probability>
1

> <r_epik_Ionization_Penalty>
0.000857933

> <r_epik_Ionization_Penalty_Charging>
0

> <r_epik_Ionization_Penalty_Neutral>
0.000857933

> <r_epik_State_Penalty>
0.000462053

> <r_epik_Charging_Adjusted_Penalty>
0.000462053

> <i_epik_Tot_Q>
0

> <i_epik_Tot_abs_Q>
0

> <r_epik_Metal_State_Penalty>
-0

> <b_epik_Metal_Only>
0

> <s_lp_Force_Field>
OPLS_2005

> <r_lp_Energy>
51.2848

> <b_lp_Chiralities_Consistent>
1

> <s_lp_Variant>
AV-unprocessed.smi:196-10

> <Gold.Version>
5.8.1

> <Gold.Id.Protein>
6NUR|6NUR_protein|mol2

> <Gold.PLP.Fitness>
42.6855

> <Gold.PLP.PLP>
-33.0023

> <Gold.PLP.part.hbond>
-4.6619

> <Gold.PLP.part.metal>
0.0000

> <Gold.PLP.part.buried>
-6.2040

> <Gold.PLP.part.nonpolar>
-22.2966

> <Gold.PLP.part.repulsive>
0.1480

> <Gold.PLP.ligand.clash>
0.2470

> <Gold.PLP.ligand.torsion>
0.2821

> <Gold.PLP.Chemscore.Hbond>
3.4760

> <Gold.PLP.Chemscore.CHOScore>
0.0000

> <Gold.PLP.Chemscore.Metal>
0.0000

> <Gold.Chemscore.Hbonds>
donor molecule, donor type, donor heavy atom, donor atom, acceptor molecule, acceptor atom, score
      P1  H  6896  6909       L1    11  1.00
      P1  H  6931  6943       L1    22  0.74
      P1  H  6934  6947       L1    22  0.21
      P1  H  7997  8010       L1     3  0.69
      P1  H 10752 10764       L1     7  0.26

> <Gold.PLP.Chemscore.Internal.Correction>
0.0666

> <Gold.Rescore>
     Score         DG    S(hbond)    S(metal)    S(lipo)     H(rot)  DE(clash)    DE(int)     intcor
     11.20     -13.84       2.57        0.00      64.76       3.04       0.08       2.57       ----

> <Gold.Chemscore.Fitness>
11.1951

> <Gold.Chemscore.DG>
-13.8427

> <Gold.Chemscore.ZeroCoef>
-5.4800

> <Gold.Chemscore.Hbond>
2.5664

> <Gold.Chemscore.Metal>
0.0000

> <Gold.Chemscore.Lipo>
64.7558

> <Gold.Chemscore.Internal_Hbond>
0.0000

> <Gold.Chemscore.DEClash>
0.0760

> <Gold.Chemscore.DEInternal>
2.5716

> <Gold.Chemscore.Rot>
3.0413

> <Gold.Chemscore.Internal.Correction>
   9.000000E+99

> <Gold.Chemscore.Hbonds>
donor molecule, donor type, donor heavy atom, donor atom, acceptor molecule, acceptor atom, score
      P1  H  6896  6909       L1    11  0.26
      P1  H  6931  6943       L1    22  0.73
      P1  H  6934  6947       L1    22  0.10
      P1  H  7997  8010       L1     3  0.26
      P1  H 10752 10764       L1     7  0.17

> <Gold.Chemscore.Hbond.Weighted>
-8.5719

> <Gold.Chemscore.Metal.Weighted>
-0.0000

> <Gold.Chemscore.Lipo.Weighted>
-7.5764

> <Gold.Chemscore.Internal_Hbond.Weighted>
0.0000

> <Gold.Chemscore.DEClash.Weighted>
0.0760

> <Gold.Chemscore.DEInternal.Weighted>
2.5716

> <Gold.Chemscore.Rot.Weighted>
7.7856

> <Gold.Chemscore.Internal.Correction.Weighted>
   9.000000E+99

> <Gold.Protein.RotatedTorsions>
[ 6907 6896 6895 6894 ] final   90.14 input  -60.11 | X-H torsion
[ 7974 7965 7964 7962 ] final -124.76 input  175.53 | X-H torsion
[ 8008 7997 7996 7995 ] final   79.96 input   59.86 | X-H torsion
[ 10167 10162 10161 10158 ] final -124.43 input  -65.29 | X-H torsion
[ 10718 10713 10712 10709 ] final -142.38 input   66.30 | X-H torsion
[ 10763 10752 10751 10750 ] final  -41.26 input  -60.55 | X-H torsion
[ 11005 11000 10999 10996 ] final  -66.52 input  -57.11 | X-H torsion

> <Gold.Protein.ActiveResidues>
 VAL166  LYS551  ARG553  GLY616  TRP617  ASP618  TYR619  PRO620  LYS621  CYS622 
 ASP623  PHE694  ASN695  SER759  ASP760  ASP761  ALA762  ILE779  LEU786  VAL792 
 PHE793  MET794  SER795  GLU796  ALA797  LYS798  CYS799  TRP800  GLU811  SER814 

> <Gold.Protein.RotatedAtoms>
  152.5442  134.1858  159.8653 H   0  0  0  0  0  0  0  0  0  0  0  0  # atno 6907 bound_to 6896
  151.1857  133.4691  159.2602 H   0  0  0  0  0  0  0  0  0  0  0  0  # atno 6908 bound_to 6896
  151.1134  135.0051  159.8560 H   0  0  0  0  0  0  0  0  0  0  0  0  # atno 6909 bound_to 6896
  145.0046  140.7851  143.4475 H   0  0  0  0  0  0  0  0  0  0  0  0  # atno 7974 bound_to 7965
  155.8769  140.3446  155.5860 H   0  0  0  0  0  0  0  0  0  0  0  0  # atno 8008 bound_to 7997
  155.7764  140.0852  157.2101 H   0  0  0  0  0  0  0  0  0  0  0  0  # atno 8009 bound_to 7997
  154.4021  140.1509  156.2988 H   0  0  0  0  0  0  0  0  0  0  0  0  # atno 8010 bound_to 7997
  139.9929  143.5622  152.2335 H   0  0  0  0  0  0  0  0  0  0  0  0  # atno 10167 bound_to 10162
  156.3452  130.7658  151.1802 H   0  0  0  0  0  0  0  0  0  0  0  0  # atno 10718 bound_to 10713
  153.9596  135.6741  153.4745 H   0  0  0  0  0  0  0  0  0  0  0  0  # atno 10763 bound_to 10752
  153.0844  135.4906  154.8565 H   0  0  0  0  0  0  0  0  0  0  0  0  # atno 10764 bound_to 10752
  154.7280  135.3131  154.8899 H   0  0  0  0  0  0  0  0  0  0  0  0  # atno 10765 bound_to 10752
  141.1484  133.6701  156.6151 H   0  0  0  0  0  0  0  0  0  0  0  0  # atno 11005 bound_to 11000
  145.2106  139.2207  143.5145 LP  0  0  0  0  0  0  0  0  0  0  0  0  # atno 17320 bound_to 7965
  146.3458  140.1943  142.8589 LP  0  0  0  0  0  0  0  0  0  0  0  0  # atno 17321 bound_to 7965
  139.6327  144.7646  151.2502 LP  0  0  0  0  0  0  0  0  0  0  0  0  # atno 17342 bound_to 10162
  140.7448  143.6451  150.8299 LP  0  0  0  0  0  0  0  0  0  0  0  0  # atno 17343 bound_to 10162
  157.7453  131.0443  150.4787 LP  0  0  0  0  0  0  0  0  0  0  0  0  # atno 17370 bound_to 10713
  156.4974  130.4109  149.6372 LP  0  0  0  0  0  0  0  0  0  0  0  0  # atno 17371 bound_to 10713
  140.3584  134.7709  157.4516 LP  0  0  0  0  0  0  0  0  0  0  0  0  # atno 17394 bound_to 11000
  140.0805  134.5738  155.8546 LP  0  0  0  0  0  0  0  0  0  0  0  0  # atno 17395 bound_to 11000

$$$$
