AV-unprocessed.smi:1368|AV-procd|sdf|5578|dock8
  -GOLD-   22720 5173D 1   1.00000     0.00000
 Structure written by MMmdl.
 47 49  0  0  0  0  0  0  0  0  2 V2000
  147.7217  130.4036  163.3147 C   0  0  0  0  0  0  0  0  0  0  0  0
  148.1328  131.4680  162.3025 C   0  0  0  0  0  0  0  0  0  0  0  0
  148.3366  131.1445  161.1330 O   0  0  0  0  0  0  0  0  0  0  0  0
  148.2623  132.7151  162.7910 N   0  0  0  0  0  0  0  0  0  0  0  0
  148.6293  133.9022  162.1009 C   0  0  0  0  0  0  0  0  0  0  0  0
  148.6483  135.1023  162.8391 C   0  0  0  0  0  0  0  0  0  0  0  0
  148.9886  136.3181  162.2165 C   0  0  0  0  0  0  0  0  0  0  0  0
  149.3041  136.3633  160.8439 C   0  0  0  0  0  0  0  0  0  0  0  0
  149.6274  137.5947  160.3154 O   0  0  0  0  0  0  0  0  0  0  0  0
  150.0501  137.6545  158.9594 C   0  0  0  0  0  0  0  0  0  0  0  0
  151.2541  138.6036  158.8554 C   0  0  1  0  0  0  0  0  0  0  0  0
  152.4130  137.8999  159.2567 O   0  0  0  0  0  0  0  0  0  0  0  0
  151.4473  139.1265  157.4179 C   0  0  0  0  0  0  0  0  0  0  0  0
  151.0778  140.5435  157.2660 N   0  0  0  0  0  0  0  0  0  0  0  0
  150.1848  141.1277  156.4171 C   0  0  0  0  0  0  0  0  0  0  0  0
  149.3355  140.4370  155.4037 C   0  0  0  0  0  0  0  0  0  0  0  0
  150.2112  142.4682  156.6613 N   0  3  0  0  0  0  0  0  0  0  0  0
  151.1273  142.7450  157.6769 C   0  0  0  0  0  0  0  0  0  0  0  0
  151.4982  143.9510  158.2638 C   0  0  0  0  0  0  0  0  0  0  0  0
  152.4662  143.8854  159.2873 C   0  0  0  0  0  0  0  0  0  0  0  0
  153.0252  142.6556  159.6908 C   0  0  0  0  0  0  0  0  0  0  0  0
  152.6429  141.4397  159.0867 C   0  0  0  0  0  0  0  0  0  0  0  0
  151.6865  141.5126  158.0736 C   0  0  0  0  0  0  0  0  0  0  0  0
  149.2657  135.1595  160.0970 C   0  0  0  0  0  0  0  0  0  0  0  0
  148.9274  133.9418  160.7184 C   0  0  0  0  0  0  0  0  0  0  0  0
  148.3166  130.4862  164.2250 H   0  0  0  0  0  0  0  0  0  0  0  0
  147.8655  129.4030  162.9052 H   0  0  0  0  0  0  0  0  0  0  0  0
  146.6696  130.5179  163.5771 H   0  0  0  0  0  0  0  0  0  0  0  0
  148.1519  132.8115  163.7899 H   0  0  0  0  0  0  0  0  0  0  0  0
  148.4089  135.0950  163.8926 H   0  0  0  0  0  0  0  0  0  0  0  0
  149.0067  137.2272  162.7998 H   0  0  0  0  0  0  0  0  0  0  0  0
  150.3021  136.6665  158.5692 H   0  0  0  0  0  0  0  0  0  0  0  0
  149.2267  138.0497  158.3619 H   0  0  0  0  0  0  0  0  0  0  0  0
  151.1089  139.4528  159.5243 H   0  0  0  0  0  0  0  0  0  0  0  0
  152.2792  136.9807  159.0802 H   0  0  0  0  0  0  0  0  0  0  0  0
  152.4729  138.9812  157.0779 H   0  0  0  0  0  0  0  0  0  0  0  0
  150.8203  138.5579  156.7301 H   0  0  0  0  0  0  0  0  0  0  0  0
  148.6752  141.1489  154.9077 H   0  0  0  0  0  0  0  0  0  0  0  0
  148.7233  139.6727  155.8823 H   0  0  0  0  0  0  0  0  0  0  0  0
  149.9620  139.9613  154.6493 H   0  0  0  0  0  0  0  0  0  0  0  0
  151.0698  144.8939  157.9572 H   0  0  0  0  0  0  0  0  0  0  0  0
  152.7848  144.7961  159.7734 H   0  0  0  0  0  0  0  0  0  0  0  0
  153.7621  142.6436  160.4811 H   0  0  0  0  0  0  0  0  0  0  0  0
  153.0737  140.5036  159.4095 H   0  0  0  0  0  0  0  0  0  0  0  0
  149.4874  135.1418  159.0409 H   0  0  0  0  0  0  0  0  0  0  0  0
  148.8894  133.0515  160.1099 H   0  0  0  0  0  0  0  0  0  0  0  0
  149.6420  143.1434  156.1675 H   0  0  0  0  0  0  0  0  0  0  0  0
  1  2  1  0  0  0  0
  1 26  1  0  0  0  0
  1 27  1  0  0  0  0
  1 28  1  0  0  0  0
  2  3  2  0  0  0  0
  2  4  1  0  0  0  0
  4  5  1  0  0  0  0
  4 29  1  0  0  0  0
  5 25  1  0  0  0  0
  5  6  2  0  0  0  0
  6  7  1  0  0  0  0
  6 30  1  0  0  0  0
  7  8  2  0  0  0  0
  7 31  1  0  0  0  0
  8  9  1  0  0  0  0
  8 24  1  0  0  0  0
  9 10  1  0  0  0  0
 10 11  1  0  0  0  0
 10 32  1  0  0  0  0
 10 33  1  0  0  0  0
 11 12  1  0  0  0  0
 11 13  1  0  0  0  0
 11 34  1  0  0  0  0
 12 35  1  0  0  0  0
 13 14  1  0  0  0  0
 13 36  1  0  0  0  0
 13 37  1  0  0  0  0
 14 23  1  0  0  0  0
 14 15  1  0  0  0  0
 15 16  1  0  0  0  0
 15 17  2  0  0  0  0
 16 38  1  0  0  0  0
 16 39  1  0  0  0  0
 16 40  1  0  0  0  0
 17 18  1  0  0  0  0
 17 47  1  0  0  0  0
 18 23  2  0  0  0  0
 18 19  1  0  0  0  0
 19 20  2  0  0  0  0
 19 41  1  0  0  0  0
 20 21  1  0  0  0  0
 20 42  1  0  0  0  0
 21 22  2  0  0  0  0
 21 43  1  0  0  0  0
 22 23  1  0  0  0  0
 22 44  1  0  0  0  0
 24 25  2  0  0  0  0
 24 45  1  0  0  0  0
 25 46  1  0  0  0  0
M  CHG  1  17   1
M  END
> <s_m_source_file>
AV-unprocessed.smi

> <i_m_source_file_index>
1368

> <i_lp_mmshare_version>
43012

> <i_f3d_flags>
0

> <s_epik_input>
W0NIM11DKD1PKVtOSF1jMVtjSF1bY0hdYyhbY0hdW2NIXTEpT1tDSDJdW0NASF0oW09IXSlbQ0gyXW4oYyhuMilbQ0gzXSljKGMyMylbY0hdW2NIXVtjSF1bY0hdMw==

> <s_epik_cmdline>
J2VwaWtfcHl0aG9uJywgJy1waCcsICc3LjAnLCAnLXRuJywgJzgnLCAnLW1hJywgJzIwMCcsICctbWV0YWxfYmluZGluZycsICctaW1hZScsICc8aW5maWxlLm1hZT4nLCAnLW9tYWUnLCAnPG91dGZpbGUubWFlPic=

> <r_lp_tautomer_probability>
1

> <r_epik_Ionization_Penalty>
1.00673

> <r_epik_Ionization_Penalty_Charging>
1.00673

> <r_epik_Ionization_Penalty_Neutral>
2.60899e-06

> <r_epik_State_Penalty>
1.05579

> <r_epik_Charging_Adjusted_Penalty>
2.06252

> <i_epik_Tot_Q>
1

> <i_epik_Tot_abs_Q>
1

> <r_epik_Metal_State_Penalty>
1.15682

> <b_epik_Metal_Only>
0

> <s_lp_Force_Field>
OPLS_2005

> <r_lp_Energy>
24.3516

> <b_lp_Chiralities_Consistent>
1

> <s_lp_Variant>
AV-unprocessed.smi:1368-4

> <Gold.Version>
5.8.1

> <Gold.Id.Protein>
6NUR|6NUR_protein|mol2

> <Gold.PLP.Fitness>
51.5639

> <Gold.PLP.PLP>
-47.4190

> <Gold.PLP.part.hbond>
-2.9818

> <Gold.PLP.part.metal>
0.0000

> <Gold.PLP.part.buried>
-5.7328

> <Gold.PLP.part.nonpolar>
-39.5965

> <Gold.PLP.part.repulsive>
0.0738

> <Gold.PLP.ligand.clash>
0.0000

> <Gold.PLP.ligand.torsion>
1.2200

> <Gold.PLP.Chemscore.Hbond>
2.1352

> <Gold.PLP.Chemscore.CHOScore>
0.0000

> <Gold.PLP.Chemscore.Metal>
0.0000

> <Gold.Chemscore.Hbonds>
donor molecule, donor type, donor heavy atom, donor atom, acceptor molecule, acceptor atom, score
      L1  H    17    47       P1  8028  2.00
      P1  H  6931  6943       L1     9  0.05

> <Gold.PLP.Chemscore.Internal.Correction>
0.1794

> <Gold.Rescore>
     Score         DG    S(hbond)    S(metal)    S(lipo)     H(rot)  DE(clash)    DE(int)     intcor
     14.75     -17.50       1.00        0.00     128.21       2.47       0.22       2.54       ----

> <Gold.Chemscore.Fitness>
14.7457

> <Gold.Chemscore.DG>
-17.5001

> <Gold.Chemscore.ZeroCoef>
-5.4800

> <Gold.Chemscore.Hbond>
1.0019

> <Gold.Chemscore.Metal>
0.0000

> <Gold.Chemscore.Lipo>
128.2115

> <Gold.Chemscore.Internal_Hbond>
0.0000

> <Gold.Chemscore.DEClash>
0.2183

> <Gold.Chemscore.DEInternal>
2.5361

> <Gold.Chemscore.Rot>
2.4715

> <Gold.Chemscore.Internal.Correction>
   9.000000E+99

> <Gold.Chemscore.Hbonds>
donor molecule, donor type, donor heavy atom, donor atom, acceptor molecule, acceptor atom, score
      L1  H    17    47       P1  8028  1.00

> <Gold.Chemscore.Hbond.Weighted>
-3.3464

> <Gold.Chemscore.Metal.Weighted>
-0.0000

> <Gold.Chemscore.Lipo.Weighted>
-15.0007

> <Gold.Chemscore.Internal_Hbond.Weighted>
0.0000

> <Gold.Chemscore.DEClash.Weighted>
0.2183

> <Gold.Chemscore.DEInternal.Weighted>
2.5361

> <Gold.Chemscore.Rot.Weighted>
6.3271

> <Gold.Chemscore.Internal.Correction.Weighted>
   9.000000E+99

> <Gold.Protein.RotatedTorsions>
[ 6907 6896 6895 6894 ] final -127.26 input  -60.11 | X-H torsion
[ 7974 7965 7964 7962 ] final   70.90 input  175.53 | X-H torsion
[ 8008 7997 7996 7995 ] final -169.02 input   59.86 | X-H torsion
[ 10167 10162 10161 10158 ] final   56.39 input  -65.29 | X-H torsion
[ 10718 10713 10712 10709 ] final   86.37 input   66.30 | X-H torsion
[ 10763 10752 10751 10750 ] final  152.06 input  -60.55 | X-H torsion
[ 11005 11000 10999 10996 ] final -100.61 input  -57.11 | X-H torsion

> <Gold.Protein.ActiveResidues>
 VAL166  LYS551  ARG553  GLY616  TRP617  ASP618  TYR619  PRO620  LYS621  CYS622 
 ASP623  PHE694  ASN695  SER759  ASP760  ASP761  ALA762  ILE779  LEU786  VAL792 
 PHE793  MET794  SER795  GLU796  ALA797  LYS798  CYS799  TRP800  GLU811  SER814 

> <Gold.Protein.RotatedAtoms>
  150.9054  133.7064  159.2867 H   0  0  0  0  0  0  0  0  0  0  0  0  # atno 6907 bound_to 6896
  151.4569  135.1033  159.9723 H   0  0  0  0  0  0  0  0  0  0  0  0  # atno 6908 bound_to 6896
  152.4901  133.8427  159.7216 H   0  0  0  0  0  0  0  0  0  0  0  0  # atno 6909 bound_to 6896
  145.7725  139.2849  143.1313 H   0  0  0  0  0  0  0  0  0  0  0  0  # atno 7974 bound_to 7965
  155.8992  140.1038  157.1362 H   0  0  0  0  0  0  0  0  0  0  0  0  # atno 8008 bound_to 7997
  154.4024  140.1296  156.4479 H   0  0  0  0  0  0  0  0  0  0  0  0  # atno 8009 bound_to 7997
  155.7442  140.3466  155.5121 H   0  0  0  0  0  0  0  0  0  0  0  0  # atno 8010 bound_to 7997
  140.2092  144.3907  150.6496 H   0  0  0  0  0  0  0  0  0  0  0  0  # atno 10167 bound_to 10162
  157.6928  131.0213  150.2963 H   0  0  0  0  0  0  0  0  0  0  0  0  # atno 10718 bound_to 10713
  154.1139  135.2837  155.3224 H   0  0  0  0  0  0  0  0  0  0  0  0  # atno 10763 bound_to 10752
  154.6470  135.5382  153.7860 H   0  0  0  0  0  0  0  0  0  0  0  0  # atno 10764 bound_to 10752
  153.0336  135.6500  154.1296 H   0  0  0  0  0  0  0  0  0  0  0  0  # atno 10765 bound_to 10752
  141.1264  133.8412  157.1125 H   0  0  0  0  0  0  0  0  0  0  0  0  # atno 11005 bound_to 11000
  146.0156  140.8395  142.9949 LP  0  0  0  0  0  0  0  0  0  0  0  0  # atno 17320 bound_to 7965
  144.6810  140.2553  143.7326 LP  0  0  0  0  0  0  0  0  0  0  0  0  # atno 17321 bound_to 7965
  140.6336  143.2191  151.6444 LP  0  0  0  0  0  0  0  0  0  0  0  0  # atno 17342 bound_to 10162
  139.5186  144.3278  152.0854 LP  0  0  0  0  0  0  0  0  0  0  0  0  # atno 17343 bound_to 10162
  156.3486  130.3827  149.7348 LP  0  0  0  0  0  0  0  0  0  0  0  0  # atno 17370 bound_to 10713
  156.4833  130.8051  151.3064 LP  0  0  0  0  0  0  0  0  0  0  0  0  # atno 17371 bound_to 10713
  140.0266  134.9921  157.0699 LP  0  0  0  0  0  0  0  0  0  0  0  0  # atno 17394 bound_to 11000
  140.4352  134.1739  155.7170 LP  0  0  0  0  0  0  0  0  0  0  0  0  # atno 17395 bound_to 11000

$$$$
