AV-unprocessed.smi:334|AV-procd|sdf|2363|dock4
  -GOLD-   2262022273D 1   1.00000     0.00000
 Structure written by MMmdl.
 44 46  0  0  0  0  0  0  0  0  3 V2000
  146.4600  135.2664  154.7469 C   0  0  0  0  0  0  0  0  0  0  0  0
  145.9204  135.7770  153.4004 C   0  0  1  0  0  0  0  0  0  0  0  0
  146.6304  137.0088  153.0587 N   0  0  0  0  0  0  0  0  0  0  0  0
  146.6907  138.1195  153.8095 C   0  0  0  0  0  0  0  0  0  0  0  0
  146.1826  138.2146  154.9272 O   0  0  0  0  0  0  0  0  0  0  0  0
  147.4529  139.3030  153.1995 C   0  0  0  0  0  0  0  0  0  0  0  0
  148.6533  139.6630  153.9722 N   0  0  0  0  0  0  0  0  0  0  0  0
  149.6285  138.6616  154.1498 C   0  0  0  0  0  0  0  0  0  0  0  0
  150.7608  138.8807  154.8464 C   0  0  0  0  0  0  0  0  0  0  0  0
  151.7486  137.8390  155.0242 N   0  3  0  0  0  0  0  0  0  0  0  0
  151.4055  136.6709  154.8721 O   0  0  0  0  0  0  0  0  0  0  0  0
  152.8975  138.1519  155.3221 O   0  5  0  0  0  0  0  0  0  0  0  0
  150.9560  140.1988  155.4186 C   0  0  0  0  0  0  0  0  0  0  0  0
  150.0258  141.1599  155.2552 C   0  0  0  0  0  0  0  0  0  0  0  0
  148.7926  140.9183  154.4994 C   0  0  0  0  0  0  0  0  0  0  0  0
  147.9369  141.7910  154.3496 O   0  0  0  0  0  0  0  0  0  0  0  0
  146.0851  134.7492  152.2527 C   0  0  2  0  0  0  0  0  0  0  0  0
  145.6127  135.2710  150.8708 C   0  0  0  0  0  0  0  0  0  0  0  0
  144.6315  134.1858  150.3964 C   0  0  1  0  0  0  0  0  0  0  0  0
  145.4037  132.8943  150.0715 C   0  0  0  0  0  0  0  0  0  0  0  0
  145.7968  132.3765  151.4674 C   0  0  0  0  0  0  0  0  0  0  0  0
  145.2344  133.4624  152.4047 C   0  0  2  0  0  0  0  0  0  0  0  0
  143.9311  133.8222  151.6979 C   0  0  0  0  0  0  0  0  0  0  0  0
  145.9108  134.3950  155.1007 H   0  0  0  0  0  0  0  0  0  0  0  0
  146.3706  136.0330  155.5176 H   0  0  0  0  0  0  0  0  0  0  0  0
  147.5124  134.9901  154.6751 H   0  0  0  0  0  0  0  0  0  0  0  0
  144.8566  135.9831  153.5275 H   0  0  0  0  0  0  0  0  0  0  0  0
  147.0866  137.0280  152.1581 H   0  0  0  0  0  0  0  0  0  0  0  0
  147.7136  139.0438  152.1727 H   0  0  0  0  0  0  0  0  0  0  0  0
  146.7920  140.1683  153.1167 H   0  0  0  0  0  0  0  0  0  0  0  0
  149.3873  137.7137  153.6911 H   0  0  0  0  0  0  0  0  0  0  0  0
  151.8486  140.4246  155.9833 H   0  0  0  0  0  0  0  0  0  0  0  0
  150.1909  142.1342  155.6915 H   0  0  0  0  0  0  0  0  0  0  0  0
  147.1415  134.4813  152.1938 H   0  0  0  0  0  0  0  0  0  0  0  0
  145.0864  136.2225  150.9565 H   0  0  0  0  0  0  0  0  0  0  0  0
  146.4411  135.4166  150.1766 H   0  0  0  0  0  0  0  0  0  0  0  0
  143.9711  134.5152  149.5939 H   0  0  0  0  0  0  0  0  0  0  0  0
  144.7621  132.1741  149.5621 H   0  0  0  0  0  0  0  0  0  0  0  0
  146.2703  133.0804  149.4362 H   0  0  0  0  0  0  0  0  0  0  0  0
  145.3221  131.4145  151.6645 H   0  0  0  0  0  0  0  0  0  0  0  0
  146.8737  132.2434  151.5771 H   0  0  0  0  0  0  0  0  0  0  0  0
  145.1130  133.1116  153.4286 H   0  0  0  0  0  0  0  0  0  0  0  0
  143.4015  134.6597  152.1547 H   0  0  0  0  0  0  0  0  0  0  0  0
  143.2456  132.9787  151.5982 H   0  0  0  0  0  0  0  0  0  0  0  0
  1  2  1  0  0  0  0
  1 24  1  0  0  0  0
  1 25  1  0  0  0  0
  1 26  1  0  0  0  0
  2  3  1  0  0  0  0
  2 17  1  0  0  0  0
  2 27  1  0  0  0  0
  3  4  1  0  0  0  0
  3 28  1  0  0  0  0
  4  5  2  0  0  0  0
  4  6  1  0  0  0  0
  6  7  1  0  0  0  0
  6 29  1  0  0  0  0
  6 30  1  0  0  0  0
  7 15  1  0  0  0  0
  7  8  1  0  0  0  0
  8  9  2  0  0  0  0
  8 31  1  0  0  0  0
  9 10  1  0  0  0  0
  9 13  1  0  0  0  0
 10 11  2  0  0  0  0
 10 12  1  0  0  0  0
 13 14  2  0  0  0  0
 13 32  1  0  0  0  0
 14 15  1  0  0  0  0
 14 33  1  0  0  0  0
 15 16  2  0  0  0  0
 17 22  1  0  0  0  0
 17 18  1  0  0  0  0
 17 34  1  0  0  0  0
 18 19  1  0  0  0  0
 18 35  1  0  0  0  0
 18 36  1  0  0  0  0
 19 23  1  0  0  0  0
 19 20  1  0  0  0  0
 19 37  1  0  0  0  0
 20 21  1  0  0  0  0
 20 38  1  0  0  0  0
 20 39  1  0  0  0  0
 21 22  1  0  0  0  0
 21 40  1  0  0  0  0
 21 41  1  0  0  0  0
 22 23  1  0  0  0  0
 22 42  1  0  0  0  0
 23 43  1  0  0  0  0
 23 44  1  0  0  0  0
M  CHG  1  10   1
M  CHG  1  12  -1
M  END
> <s_m_source_file>
AV-unprocessed.smi

> <i_m_source_file_index>
334

> <i_lp_mmshare_version>
43012

> <i_f3d_flags>
0

> <s_epik_input>
W0NIMl0xW0NIMl1bQ0BIXShbQ0gyXTIpW0NAQEhdKFtDSDJdW0NAQEhdMTIpW0NASF0oW0NIM10pW05IXUMoPU8pW0NIMl1uM1tjSF1jKFtOK10oPU8pW08tXSlbY0hdW2NIXWMzPU8=

> <s_epik_cmdline>
J2VwaWtfcHl0aG9uJywgJy1waCcsICc3LjAnLCAnLXRuJywgJzgnLCAnLW1hJywgJzIwMCcsICctbWV0YWxfYmluZGluZycsICctaW1hZScsICc8aW5maWxlLm1hZT4nLCAnLW9tYWUnLCAnPG91dGZpbGUubWFlPic=

> <r_lp_tautomer_probability>
1

> <r_epik_Ionization_Penalty>
2.17081e-08

> <r_epik_Ionization_Penalty_Charging>
8.1195e-11

> <r_epik_Ionization_Penalty_Neutral>
2.16269e-08

> <r_epik_State_Penalty>
-0

> <r_epik_Charging_Adjusted_Penalty>
8.1195e-11

> <i_epik_Tot_Q>
0

> <i_epik_Tot_abs_Q>
2

> <r_epik_Metal_State_Penalty>
-0

> <b_epik_Metal_Only>
0

> <s_lp_Force_Field>
OPLS_2005

> <r_lp_Energy>
62.172

> <b_lp_Chiralities_Consistent>
1

> <s_lp_Variant>
AV-unprocessed.smi:334-2

> <Gold.Version>
5.8.1

> <Gold.Id.Protein>
6NUR|6NUR_protein|mol2

> <Gold.PLP.Fitness>
45.6418

> <Gold.PLP.PLP>
-39.3977

> <Gold.PLP.part.hbond>
-2.7569

> <Gold.PLP.part.metal>
0.0000

> <Gold.PLP.part.buried>
-2.0784

> <Gold.PLP.part.nonpolar>
-34.5023

> <Gold.PLP.part.repulsive>
0.3917

> <Gold.PLP.ligand.clash>
0.0000

> <Gold.PLP.ligand.torsion>
0.2322

> <Gold.PLP.Chemscore.Hbond>
1.2246

> <Gold.PLP.Chemscore.CHOScore>
1.0000

> <Gold.PLP.Chemscore.Metal>
0.0000

> <Gold.Chemscore.Hbonds>
donor molecule, donor type, donor heavy atom, donor atom, acceptor molecule, acceptor atom, score
      L1  H     3    28       P1  7948  0.46
      P1  H 10752 10765       L1    11  1.00
      L1  C     8    31       P1  7948  1.00

> <Gold.PLP.Chemscore.Internal.Correction>
0.0347

> <Gold.Rescore>
     Score         DG    S(hbond)    S(metal)    S(lipo)     H(rot)  DE(clash)    DE(int)     intcor
     13.76     -15.21       1.37        0.00      82.15       1.75       0.07       1.37       ----

> <Gold.Chemscore.Fitness>
13.7589

> <Gold.Chemscore.DG>
-15.2053

> <Gold.Chemscore.ZeroCoef>
-5.4800

> <Gold.Chemscore.Hbond>
1.3735

> <Gold.Chemscore.Metal>
0.0000

> <Gold.Chemscore.Lipo>
82.1473

> <Gold.Chemscore.Internal_Hbond>
0.0000

> <Gold.Chemscore.DEClash>
0.0725

> <Gold.Chemscore.DEInternal>
1.3740

> <Gold.Chemscore.Rot>
1.7474

> <Gold.Chemscore.Internal.Correction>
   9.000000E+99

> <Gold.Chemscore.Hbonds>
donor molecule, donor type, donor heavy atom, donor atom, acceptor molecule, acceptor atom, score
      L1  H     3    28       P1  7948  0.43
      P1  H 10752 10765       L1    11  0.70

> <Gold.Chemscore.Hbond.Weighted>
-4.5874

> <Gold.Chemscore.Metal.Weighted>
-0.0000

> <Gold.Chemscore.Lipo.Weighted>
-9.6112

> <Gold.Chemscore.Internal_Hbond.Weighted>
0.0000

> <Gold.Chemscore.DEClash.Weighted>
0.0725

> <Gold.Chemscore.DEInternal.Weighted>
1.3740

> <Gold.Chemscore.Rot.Weighted>
4.4733

> <Gold.Chemscore.Internal.Correction.Weighted>
   9.000000E+99

> <Gold.Protein.RotatedTorsions>
[ 6907 6896 6895 6894 ] final   38.11 input  -60.11 | X-H torsion
[ 7974 7965 7964 7962 ] final  100.03 input  175.53 | X-H torsion
[ 8008 7997 7996 7995 ] final   52.85 input   59.86 | X-H torsion
[ 10167 10162 10161 10158 ] final   74.77 input  -65.29 | X-H torsion
[ 10718 10713 10712 10709 ] final  -52.86 input   66.30 | X-H torsion
[ 10763 10752 10751 10750 ] final -177.06 input  -60.55 | X-H torsion
[ 11005 11000 10999 10996 ] final  -61.70 input  -57.11 | X-H torsion

> <Gold.Protein.ActiveResidues>
 VAL166  LYS551  ARG553  GLY616  TRP617  ASP618  TYR619  PRO620  LYS621  CYS622 
 ASP623  PHE694  ASN695  SER759  ASP760  ASP761  ALA762  ILE779  LEU786  VAL792 
 PHE793  MET794  SER795  GLU796  ALA797  LYS798  CYS799  TRP800  GLU811  SER814 

> <Gold.Protein.RotatedAtoms>
  152.1521  134.8980  160.0547 H   0  0  0  0  0  0  0  0  0  0  0  0  # atno 6907 bound_to 6896
  152.0008  133.3820  159.4189 H   0  0  0  0  0  0  0  0  0  0  0  0  # atno 6908 bound_to 6896
  150.6877  134.3758  159.5056 H   0  0  0  0  0  0  0  0  0  0  0  0  # atno 6909 bound_to 6896
  145.3910  139.2363  143.3352 H   0  0  0  0  0  0  0  0  0  0  0  0  # atno 7974 bound_to 7965
  155.4586  140.3461  155.4310 H   0  0  0  0  0  0  0  0  0  0  0  0  # atno 8008 bound_to 7997
  156.1175  140.1478  156.9281 H   0  0  0  0  0  0  0  0  0  0  0  0  # atno 8009 bound_to 7997
  154.4799  140.0873  156.7332 H   0  0  0  0  0  0  0  0  0  0  0  0  # atno 8010 bound_to 7997
  140.0101  144.5620  150.7665 H   0  0  0  0  0  0  0  0  0  0  0  0  # atno 10167 bound_to 10162
  156.1584  130.4150  149.9832 H   0  0  0  0  0  0  0  0  0  0  0  0  # atno 10718 bound_to 10713
  154.5648  135.2823  155.0885 H   0  0  0  0  0  0  0  0  0  0  0  0  # atno 10763 bound_to 10752
  154.2280  135.6379  153.5170 H   0  0  0  0  0  0  0  0  0  0  0  0  # atno 10764 bound_to 10752
  153.0039  135.5530  154.6253 H   0  0  0  0  0  0  0  0  0  0  0  0  # atno 10765 bound_to 10752
  141.1334  133.6632  156.5415 H   0  0  0  0  0  0  0  0  0  0  0  0  # atno 11005 bound_to 11000
  146.2797  140.4593  142.8781 LP  0  0  0  0  0  0  0  0  0  0  0  0  # atno 17320 bound_to 7965
  144.8440  140.6901  143.6211 LP  0  0  0  0  0  0  0  0  0  0  0  0  # atno 17321 bound_to 7965
  140.7384  143.2778  151.3688 LP  0  0  0  0  0  0  0  0  0  0  0  0  # atno 17342 bound_to 10162
  139.6211  144.0906  152.2391 LP  0  0  0  0  0  0  0  0  0  0  0  0  # atno 17343 bound_to 10162
  156.7668  130.9171  151.3643 LP  0  0  0  0  0  0  0  0  0  0  0  0  # atno 17370 bound_to 10713
  157.6713  130.9054  150.0048 LP  0  0  0  0  0  0  0  0  0  0  0  0  # atno 17371 bound_to 10713
  140.4136  134.7250  157.4850 LP  0  0  0  0  0  0  0  0  0  0  0  0  # atno 17394 bound_to 11000
  140.0410  134.6268  155.8981 LP  0  0  0  0  0  0  0  0  0  0  0  0  # atno 17395 bound_to 11000

$$$$
