AV-unprocessed.smi:265|AV-procd|sdf|2021|dock8
  -GOLD-   2262021223D 1   1.00000     0.00000
 Structure written by MMmdl.
 52 56  0  0  0  0  0  0  0  0  1 V2000
  153.4629  143.4996  161.3017 C   0  0  0  0  0  0  0  0  0  0  0  0
  153.9932  142.0904  160.9890 C   0  0  2  0  0  0  0  0  0  0  0  0
  155.2968  141.9802  161.5578 O   0  0  0  0  0  0  0  0  0  0  0  0
  156.1187  141.2053  160.7026 C   0  0  0  0  0  0  0  0  0  0  0  0
  155.6611  141.6432  159.3214 C   0  0  0  0  0  0  0  0  0  0  0  0
  154.1443  141.7263  159.4857 C   0  0  2  0  0  0  0  0  0  0  0  0
  153.6547  142.7400  158.6248 O   0  0  0  0  0  0  0  0  0  0  0  0
  153.4025  140.4022  159.1583 C   0  0  0  0  0  0  0  0  0  0  0  0
  152.2585  140.5542  158.2709 N   0  0  0  0  0  0  0  0  0  0  0  0
  151.0785  141.2037  158.5572 C   0  0  0  0  0  0  0  0  0  0  0  0
  150.1997  141.2140  157.5930 N   0  0  0  0  0  0  0  0  0  0  0  0
  150.8236  140.5281  156.5574 C   0  0  0  0  0  0  0  0  0  0  0  0
  150.4457  140.1825  155.2291 C   0  0  0  0  0  0  0  0  0  0  0  0
  149.2335  140.4991  154.7070 N   0  0  0  0  0  0  0  0  0  0  0  0
  148.3784  139.4021  154.2547 C   0  0  0  0  0  0  0  0  0  0  0  0
  147.2636  139.9259  153.3366 C   0  0  0  0  0  0  0  0  0  0  0  0
  146.4679  141.0652  153.9944 C   0  0  1  0  0  0  0  0  0  0  0  0
  145.7095  140.5689  155.0899 O   0  0  0  0  0  0  0  0  0  0  0  0
  144.8022  141.5247  155.6421 C   0  0  0  0  0  0  0  0  0  0  0  0
  145.4774  142.8802  155.9220 C   0  0  0  0  0  0  0  0  0  0  0  0
  144.9255  143.7011  156.6511 O   0  0  0  0  0  0  0  0  0  0  0  0
  146.6473  143.1412  155.3167 N   0  0  0  0  0  0  0  0  0  0  0  0
  147.4038  142.1672  154.5370 C   0  0  1  0  0  0  0  0  0  0  0  0
  148.5322  141.5744  155.4055 C   0  0  0  0  0  0  0  0  0  0  0  0
  151.3559  139.5084  154.4761 N   0  0  0  0  0  0  0  0  0  0  0  0
  152.5490  139.1875  154.9853 C   0  0  0  0  0  0  0  0  0  0  0  0
  153.0308  139.4393  156.2038 N   0  0  0  0  0  0  0  0  0  0  0  0
  152.1250  140.1180  156.9638 C   0  0  0  0  0  0  0  0  0  0  0  0
  145.7827  141.4823  153.2537 H   0  0  0  0  0  0  0  0  0  0  0  0
  147.8541  142.6913  153.6931 H   0  0  0  0  0  0  0  0  0  0  0  0
  152.4553  143.6399  160.9094 H   0  0  0  0  0  0  0  0  0  0  0  0
  154.1048  144.2695  160.8722 H   0  0  0  0  0  0  0  0  0  0  0  0
  153.4220  143.6669  162.3781 H   0  0  0  0  0  0  0  0  0  0  0  0
  153.3522  141.3617  161.4876 H   0  0  0  0  0  0  0  0  0  0  0  0
  157.1769  141.3986  160.8785 H   0  0  0  0  0  0  0  0  0  0  0  0
  155.9276  140.1435  160.8644 H   0  0  0  0  0  0  0  0  0  0  0  0
  156.0767  142.6313  159.1160 H   0  0  0  0  0  0  0  0  0  0  0  0
  156.0015  140.9795  158.5283 H   0  0  0  0  0  0  0  0  0  0  0  0
  153.2081  142.3295  157.9002 H   0  0  0  0  0  0  0  0  0  0  0  0
  154.0891  139.6927  158.6948 H   0  0  0  0  0  0  0  0  0  0  0  0
  153.0584  139.9283  160.0788 H   0  0  0  0  0  0  0  0  0  0  0  0
  150.8868  141.6683  159.5137 H   0  0  0  0  0  0  0  0  0  0  0  0
  148.9697  138.6602  153.7159 H   0  0  0  0  0  0  0  0  0  0  0  0
  147.9445  138.9016  155.1214 H   0  0  0  0  0  0  0  0  0  0  0  0
  147.7093  140.2913  152.4106 H   0  0  0  0  0  0  0  0  0  0  0  0
  146.5942  139.1123  153.0559 H   0  0  0  0  0  0  0  0  0  0  0  0
  143.9733  141.6796  154.9506 H   0  0  0  0  0  0  0  0  0  0  0  0
  144.3831  141.1236  156.5652 H   0  0  0  0  0  0  0  0  0  0  0  0
  147.0737  144.0438  155.4695 H   0  0  0  0  0  0  0  0  0  0  0  0
  148.1179  141.1661  156.3288 H   0  0  0  0  0  0  0  0  0  0  0  0
  149.2154  142.3698  155.7015 H   0  0  0  0  0  0  0  0  0  0  0  0
  153.2122  138.6527  154.3215 H   0  0  0  0  0  0  0  0  0  0  0  0
  1  2  1  0  0  0  0
  1 31  1  0  0  0  0
  1 32  1  0  0  0  0
  1 33  1  0  0  0  0
  2  6  1  0  0  0  0
  2  3  1  0  0  0  0
  2 34  1  0  0  0  0
  3  4  1  0  0  0  0
  4  5  1  0  0  0  0
  4 35  1  0  0  0  0
  4 36  1  0  0  0  0
  5  6  1  0  0  0  0
  5 37  1  0  0  0  0
  5 38  1  0  0  0  0
  6  7  1  0  0  0  0
  6  8  1  0  0  0  0
  7 39  1  0  0  0  0
  8  9  1  0  0  0  0
  8 40  1  0  0  0  0
  8 41  1  0  0  0  0
  9 28  1  0  0  0  0
  9 10  1  0  0  0  0
 10 11  2  0  0  0  0
 10 42  1  0  0  0  0
 11 12  1  0  0  0  0
 12 28  2  0  0  0  0
 12 13  1  0  0  0  0
 13 14  1  0  0  0  0
 13 25  2  0  0  0  0
 14 24  1  0  0  0  0
 14 15  1  0  0  0  0
 15 16  1  0  0  0  0
 15 43  1  0  0  0  0
 15 44  1  0  0  0  0
 16 17  1  0  0  0  0
 16 45  1  0  0  0  0
 16 46  1  0  0  0  0
 17 29  1  0  0  0  0
 17 23  1  0  0  0  0
 17 18  1  0  0  0  0
 18 19  1  0  0  0  0
 19 20  1  0  0  0  0
 19 47  1  0  0  0  0
 19 48  1  0  0  0  0
 20 21  2  0  0  0  0
 20 22  1  0  0  0  0
 22 23  1  0  0  0  0
 22 49  1  0  0  0  0
 23 30  1  0  0  0  0
 23 24  1  0  0  0  0
 24 50  1  0  0  0  0
 24 51  1  0  0  0  0
 25 26  1  0  0  0  0
 26 27  2  0  0  0  0
 26 52  1  0  0  0  0
 27 28  1  0  0  0  0
M  END
> <s_m_source_file>
AV-unprocessed.smi

> <i_m_source_file_index>
265

> <i_lp_mmshare_version>
43012

> <i_f3d_flags>
0

> <s_epik_input>
W0NIMl0xW0NIMl1PW0NAQEhdKFtDSDNdKVtDQEBdMShbT0hdKVtDSDJdbihbY0hdbjIpYyhjMjMpbltjSF1uYzNOKFtDSDJdW0NIMl00KVtDSDJdW0NAQEhdKFtDQEhdNDUpW05IXUMoPU8pW0NIMl1PNQ==

> <s_epik_cmdline>
J2VwaWtfcHl0aG9uJywgJy1waCcsICc3LjAnLCAnLXRuJywgJzgnLCAnLW1hJywgJzIwMCcsICctbWV0YWxfYmluZGluZycsICctaW1hZScsICc8aW5maWxlLm1hZT4nLCAnLW9tYWUnLCAnPG91dGZpbGUubWFlPic=

> <r_lp_tautomer_probability>
1

> <r_epik_Ionization_Penalty>
0.00221504

> <r_epik_Ionization_Penalty_Charging>
0

> <r_epik_Ionization_Penalty_Neutral>
0.00221504

> <r_epik_State_Penalty>
-0

> <r_epik_Charging_Adjusted_Penalty>
0

> <i_epik_Tot_Q>
0

> <i_epik_Tot_abs_Q>
0

> <r_epik_Metal_State_Penalty>
-0

> <b_epik_Metal_Only>
0

> <s_lp_Force_Field>
OPLS_2005

> <r_lp_Energy>
45.2978

> <b_lp_Chiralities_Consistent>
1

> <s_lp_Variant>
AV-unprocessed.smi:265-7

> <Gold.Version>
5.8.1

> <Gold.Id.Protein>
6NUR|6NUR_protein|mol2

> <Gold.PLP.Fitness>
44.6294

> <Gold.PLP.PLP>
-41.0230

> <Gold.PLP.part.hbond>
-4.0000

> <Gold.PLP.part.metal>
0.0000

> <Gold.PLP.part.buried>
0.3275

> <Gold.PLP.part.nonpolar>
-36.5770

> <Gold.PLP.part.repulsive>
0.4492

> <Gold.PLP.ligand.clash>
0.0000

> <Gold.PLP.ligand.torsion>
1.3857

> <Gold.PLP.Chemscore.Hbond>
2.0000

> <Gold.PLP.Chemscore.CHOScore>
0.0000

> <Gold.PLP.Chemscore.Metal>
0.0000

> <Gold.Chemscore.Hbonds>
donor molecule, donor type, donor heavy atom, donor atom, acceptor molecule, acceptor atom, score
      P1  H  7989  7998       L1    25  0.65
      P1  H  7997  8009       L1    27  0.88

> <Gold.PLP.Chemscore.Internal.Correction>
0.3777

> <Gold.Rescore>
     Score         DG    S(hbond)    S(metal)    S(lipo)     H(rot)  DE(clash)    DE(int)     intcor
     10.12     -12.91       0.89        0.00      87.15       2.25       0.20       2.59       ----

> <Gold.Chemscore.Fitness>
10.1182

> <Gold.Chemscore.DG>
-12.9060

> <Gold.Chemscore.ZeroCoef>
-5.4800

> <Gold.Chemscore.Hbond>
0.8916

> <Gold.Chemscore.Metal>
0.0000

> <Gold.Chemscore.Lipo>
87.1457

> <Gold.Chemscore.Internal_Hbond>
0.0000

> <Gold.Chemscore.DEClash>
0.2027

> <Gold.Chemscore.DEInternal>
2.5851

> <Gold.Chemscore.Rot>
2.2453

> <Gold.Chemscore.Internal.Correction>
   9.000000E+99

> <Gold.Chemscore.Hbonds>
donor molecule, donor type, donor heavy atom, donor atom, acceptor molecule, acceptor atom, score
      P1  H  7989  7998       L1    25  0.03
      P1  H  7997  8009       L1    27  0.51

> <Gold.Chemscore.Hbond.Weighted>
-2.9778

> <Gold.Chemscore.Metal.Weighted>
-0.0000

> <Gold.Chemscore.Lipo.Weighted>
-10.1961

> <Gold.Chemscore.Internal_Hbond.Weighted>
0.0000

> <Gold.Chemscore.DEClash.Weighted>
0.2027

> <Gold.Chemscore.DEInternal.Weighted>
2.5851

> <Gold.Chemscore.Rot.Weighted>
5.7479

> <Gold.Chemscore.Internal.Correction.Weighted>
   9.000000E+99

> <Gold.Protein.RotatedTorsions>
[ 6907 6896 6895 6894 ] final  -13.58 input  -60.11 | X-H torsion
[ 7974 7965 7964 7962 ] final  177.01 input  175.53 | X-H torsion
[ 8008 7997 7996 7995 ] final -167.26 input   59.86 | X-H torsion
[ 10167 10162 10161 10158 ] final  -28.69 input  -65.29 | X-H torsion
[ 10718 10713 10712 10709 ] final  -91.26 input   66.30 | X-H torsion
[ 10763 10752 10751 10750 ] final   59.43 input  -60.55 | X-H torsion
[ 11005 11000 10999 10996 ] final  128.47 input  -57.11 | X-H torsion

> <Gold.Protein.ActiveResidues>
 VAL166  LYS551  ARG553  GLY616  TRP617  ASP618  TYR619  PRO620  LYS621  CYS622 
 ASP623  PHE694  ASN695  SER759  ASP760  ASP761  ALA762  ILE779  LEU786  VAL792 
 PHE793  MET794  SER795  GLU796  ALA797  LYS798  CYS799  TRP800  GLU811  SER814 

> <Gold.Protein.RotatedAtoms>
  151.3527  135.0888  159.9408 H   0  0  0  0  0  0  0  0  0  0  0  0  # atno 6907 bound_to 6896
  152.5183  133.9336  159.7603 H   0  0  0  0  0  0  0  0  0  0  0  0  # atno 6908 bound_to 6896
  150.9715  133.6285  159.2767 H   0  0  0  0  0  0  0  0  0  0  0  0  # atno 6909 bound_to 6896
  144.7175  140.0183  143.6440 H   0  0  0  0  0  0  0  0  0  0  0  0  # atno 7974 bound_to 7965
  155.8752  140.1000  157.1523 H   0  0  0  0  0  0  0  0  0  0  0  0  # atno 8008 bound_to 7997
  154.4000  140.1339  156.4191 H   0  0  0  0  0  0  0  0  0  0  0  0  # atno 8009 bound_to 7997
  155.7706  140.3461  155.5247 H   0  0  0  0  0  0  0  0  0  0  0  0  # atno 8010 bound_to 7997
  140.7267  143.3990  151.1298 H   0  0  0  0  0  0  0  0  0  0  0  0  # atno 10167 bound_to 10162
  155.9992  130.4941  150.5448 H   0  0  0  0  0  0  0  0  0  0  0  0  # atno 10718 bound_to 10713
  152.9894  135.5572  154.5712 H   0  0  0  0  0  0  0  0  0  0  0  0  # atno 10763 bound_to 10752
  154.5112  135.2802  155.1343 H   0  0  0  0  0  0  0  0  0  0  0  0  # atno 10764 bound_to 10752
  154.2734  135.6359  153.5371 H   0  0  0  0  0  0  0  0  0  0  0  0  # atno 10765 bound_to 10752
  139.9562  134.9612  156.9006 H   0  0  0  0  0  0  0  0  0  0  0  0  # atno 11005 bound_to 11000
  146.0201  139.3244  143.0818 LP  0  0  0  0  0  0  0  0  0  0  0  0  # atno 17320 bound_to 7965
  145.8578  140.9492  143.0716 LP  0  0  0  0  0  0  0  0  0  0  0  0  # atno 17321 bound_to 7965
  139.7607  143.8640  152.3099 LP  0  0  0  0  0  0  0  0  0  0  0  0  # atno 17342 bound_to 10162
  139.8525  144.7157  150.9197 LP  0  0  0  0  0  0  0  0  0  0  0  0  # atno 17343 bound_to 10162
  157.3379  131.0711  151.1810 LP  0  0  0  0  0  0  0  0  0  0  0  0  # atno 17370 bound_to 10713
  157.2669  130.6685  149.6001 LP  0  0  0  0  0  0  0  0  0  0  0  0  # atno 17371 bound_to 10713
  140.5604  134.0541  155.7397 LP  0  0  0  0  0  0  0  0  0  0  0  0  # atno 17394 bound_to 11000
  141.1234  133.9424  157.2685 LP  0  0  0  0  0  0  0  0  0  0  0  0  # atno 17395 bound_to 11000

$$$$
