AV-unprocessed.smi:2751|AV-procd|sdf|10597|dock10
  -GOLD-   2272015 53D 1   1.00000     0.00000
 Structure written by MMmdl.
 35 36  0  0  0  0  0  0  0  0  2 V2000
  146.8321  137.3795  153.2524 O   0  0  0  0  0  0  0  0  0  0  0  0
  146.1905  138.1782  152.5692 C   0  0  0  0  0  0  0  0  0  0  0  0
  146.2223  139.5066  152.7515 N   0  0  0  0  0  0  0  0  0  0  0  0
  147.0185  140.1914  153.7636 C   0  0  0  0  0  0  0  0  0  0  0  0
  148.5264  140.0379  153.5003 C   0  0  0  0  0  0  0  0  0  0  0  0
  149.3485  139.9264  154.7941 C   0  0  2  0  0  0  0  0  0  0  0  0
  149.2211  141.1888  155.6688 C   0  0  0  0  0  0  0  0  0  0  0  0
  150.1108  141.0741  156.9116 C   0  0  0  0  0  0  0  0  0  0  0  0
  151.5471  140.7466  156.4904 C   0  0  0  0  0  0  0  0  0  0  0  0
  151.5654  139.5164  155.5693 C   0  0  0  0  0  0  0  0  0  0  0  0
  150.7192  139.7393  154.4453 O   0  0  0  0  0  0  0  0  0  0  0  0
  145.3788  137.8358  151.5570 N   0  0  0  0  0  0  0  0  0  0  0  0
  145.1454  136.5194  151.0973 C   0  0  0  0  0  0  0  0  0  0  0  0
  146.0999  135.6029  150.9446 N   0  3  0  0  0  0  0  0  0  0  0  0
  145.5264  134.4404  150.4924 C   0  0  0  0  0  0  0  0  0  0  0  0
  144.1827  134.7059  150.3802 C   0  0  0  0  0  0  0  0  0  0  0  0
  143.9275  136.0092  150.7571 O   0  0  0  0  0  0  0  0  0  0  0  0
  145.6642  140.0898  152.1447 H   0  0  0  0  0  0  0  0  0  0  0  0
  146.7424  141.2465  153.8084 H   0  0  0  0  0  0  0  0  0  0  0  0
  146.7641  139.7645  154.7341 H   0  0  0  0  0  0  0  0  0  0  0  0
  148.7052  139.1606  152.8770 H   0  0  0  0  0  0  0  0  0  0  0  0
  148.8801  140.8974  152.9292 H   0  0  0  0  0  0  0  0  0  0  0  0
  148.9988  139.0598  155.3584 H   0  0  0  0  0  0  0  0  0  0  0  0
  149.5124  142.0677  155.0921 H   0  0  0  0  0  0  0  0  0  0  0  0
  148.1834  141.3408  155.9674 H   0  0  0  0  0  0  0  0  0  0  0  0
  150.0843  141.9999  157.4867 H   0  0  0  0  0  0  0  0  0  0  0  0
  149.7306  140.2873  157.5643 H   0  0  0  0  0  0  0  0  0  0  0  0
  151.9795  141.6000  155.9667 H   0  0  0  0  0  0  0  0  0  0  0  0
  152.1675  140.5703  157.3696 H   0  0  0  0  0  0  0  0  0  0  0  0
  152.5793  139.3296  155.2149 H   0  0  0  0  0  0  0  0  0  0  0  0
  151.2464  138.6222  156.1071 H   0  0  0  0  0  0  0  0  0  0  0  0
  147.0914  135.7044  151.1219 H   0  0  0  0  0  0  0  0  0  0  0  0
  146.1189  133.5573  150.3003 H   0  0  0  0  0  0  0  0  0  0  0  0
  143.3293  134.1203  150.0709 H   0  0  0  0  0  0  0  0  0  0  0  0
  144.8991  138.5773  151.0683 H   0  0  0  0  0  0  0  0  0  0  0  0
  1  2  2  0  0  0  0
  2 12  1  0  0  0  0
  2  3  1  0  0  0  0
  3  4  1  0  0  0  0
  3 18  1  0  0  0  0
  4  5  1  0  0  0  0
  4 19  1  0  0  0  0
  4 20  1  0  0  0  0
  5  6  1  0  0  0  0
  5 21  1  0  0  0  0
  5 22  1  0  0  0  0
  6 11  1  0  0  0  0
  6  7  1  0  0  0  0
  6 23  1  0  0  0  0
  7  8  1  0  0  0  0
  7 24  1  0  0  0  0
  7 25  1  0  0  0  0
  8  9  1  0  0  0  0
  8 26  1  0  0  0  0
  8 27  1  0  0  0  0
  9 10  1  0  0  0  0
  9 28  1  0  0  0  0
  9 29  1  0  0  0  0
 10 11  1  0  0  0  0
 10 30  1  0  0  0  0
 10 31  1  0  0  0  0
 12 13  1  0  0  0  0
 12 35  1  0  0  0  0
 13 17  1  0  0  0  0
 13 14  2  0  0  0  0
 14 32  1  0  0  0  0
 14 15  1  0  0  0  0
 15 33  1  0  0  0  0
 15 16  2  0  0  0  0
 16 34  1  0  0  0  0
 16 17  1  0  0  0  0
M  CHG  1  14   1
M  END
> <s_m_source_file>
AV-unprocessed.smi

> <i_m_source_file_index>
2751

> <i_lp_mmshare_version>
43012

> <i_f3d_flags>
0

> <s_epik_input>
bzFbY0hdW2NIXW5jMVtOSF1DKD1PKVtOSF1bQ0gyXVtDSDJdW0NAQEhdMltDSDJdW0NIMl1bQ0gyXVtDSDJdTzI=

> <s_epik_cmdline>
J2VwaWtfcHl0aG9uJywgJy1waCcsICc3LjAnLCAnLXRuJywgJzgnLCAnLW1hJywgJzIwMCcsICctbWV0YWxfYmluZGluZycsICctaW1hZScsICc8aW5maWxlLm1hZT4nLCAnLW9tYWUnLCAnPG91dGZpbGUubWFlPic=

> <r_epik_Ionization_Penalty>
6.63408

> <r_epik_Ionization_Penalty_Charging>
6.57733

> <r_epik_Ionization_Penalty_Neutral>
0.0567487

> <r_epik_State_Penalty>
1.8175

> <r_epik_Charging_Adjusted_Penalty>
8.39483

> <i_epik_Tot_Q>
1

> <i_epik_Tot_abs_Q>
1

> <r_epik_Metal_State_Penalty>
1.83396

> <b_epik_Metal_Only>
0

> <s_lp_Force_Field>
OPLS_2005

> <r_lp_Energy>
16.4857

> <b_lp_Chiralities_Consistent>
1

> <s_lp_Variant>
AV-unprocessed.smi:2751-3

> <Gold.Version>
5.8.1

> <Gold.Id.Protein>
6NUR|6NUR_protein|mol2

> <Gold.PLP.Fitness>
39.6470

> <Gold.PLP.PLP>
-25.2635

> <Gold.PLP.part.hbond>
-4.1130

> <Gold.PLP.part.metal>
0.0000

> <Gold.PLP.part.buried>
-1.6156

> <Gold.PLP.part.nonpolar>
-21.8939

> <Gold.PLP.part.repulsive>
1.7013

> <Gold.PLP.ligand.clash>
0.0000

> <Gold.PLP.ligand.torsion>
0.6021

> <Gold.PLP.Chemscore.Hbond>
4.4400

> <Gold.PLP.Chemscore.CHOScore>
0.7545

> <Gold.PLP.Chemscore.Metal>
0.0000

> <Gold.Chemscore.Hbonds>
donor molecule, donor type, donor heavy atom, donor atom, acceptor molecule, acceptor atom, score
      L1  H     3    18       P1 10175  0.48
      L1  H    12    35       P1 10171  0.69
      L1  H    14    32       P1  7948  2.00
      P1  H  7989  7998       L1    11  1.00
      L1  C    16    34       P1 10186  1.00

> <Gold.PLP.Chemscore.Internal.Correction>
0.0042

> <Gold.Rescore>
     Score         DG    S(hbond)    S(metal)    S(lipo)     H(rot)  DE(clash)    DE(int)     intcor
     16.66     -17.55       3.16        0.00      49.33       1.66       0.28       0.61       ----

> <Gold.Chemscore.Fitness>
16.6597

> <Gold.Chemscore.DG>
-17.5510

> <Gold.Chemscore.ZeroCoef>
-5.4800

> <Gold.Chemscore.Hbond>
3.1563

> <Gold.Chemscore.Metal>
0.0000

> <Gold.Chemscore.Lipo>
49.3343

> <Gold.Chemscore.Internal_Hbond>
0.0000

> <Gold.Chemscore.DEClash>
0.2790

> <Gold.Chemscore.DEInternal>
0.6123

> <Gold.Chemscore.Rot>
1.6575

> <Gold.Chemscore.Internal.Correction>
   9.000000E+99

> <Gold.Chemscore.Hbonds>
donor molecule, donor type, donor heavy atom, donor atom, acceptor molecule, acceptor atom, score
      L1  H     3    18       P1 10175  0.29
      L1  H    12    35       P1 10171  0.67
      L1  H    14    32       P1  7948  0.88
      P1  H  7989  7998       L1    11  0.39

> <Gold.Chemscore.Hbond.Weighted>
-10.5420

> <Gold.Chemscore.Metal.Weighted>
-0.0000

> <Gold.Chemscore.Lipo.Weighted>
-5.7721

> <Gold.Chemscore.Internal_Hbond.Weighted>
0.0000

> <Gold.Chemscore.DEClash.Weighted>
0.2790

> <Gold.Chemscore.DEInternal.Weighted>
0.6123

> <Gold.Chemscore.Rot.Weighted>
4.2431

> <Gold.Chemscore.Internal.Correction.Weighted>
   9.000000E+99

> <Gold.Protein.RotatedTorsions>
[ 6907 6896 6895 6894 ] final  128.42 input  -60.11 | X-H torsion
[ 7974 7965 7964 7962 ] final   74.82 input  175.53 | X-H torsion
[ 8008 7997 7996 7995 ] final   64.43 input   59.86 | X-H torsion
[ 10167 10162 10161 10158 ] final -115.44 input  -65.29 | X-H torsion
[ 10718 10713 10712 10709 ] final   46.99 input   66.30 | X-H torsion
[ 10763 10752 10751 10750 ] final   37.73 input  -60.55 | X-H torsion
[ 11005 11000 10999 10996 ] final -101.48 input  -57.11 | X-H torsion

> <Gold.Protein.ActiveResidues>
 VAL166  LYS551  ARG553  GLY616  TRP617  ASP618  TYR619  PRO620  LYS621  CYS622 
 ASP623  PHE694  ASN695  SER759  ASP760  ASP761  ALA762  ILE779  LEU786  VAL792 
 PHE793  MET794  SER795  GLU796  ALA797  LYS798  CYS799  TRP800  GLU811  SER814 

> <Gold.Protein.RotatedAtoms>
  152.3721  133.6433  159.6094 H   0  0  0  0  0  0  0  0  0  0  0  0  # atno 6907 bound_to 6896
  150.7676  133.9253  159.3419 H   0  0  0  0  0  0  0  0  0  0  0  0  # atno 6908 bound_to 6896
  151.7074  135.0920  160.0313 H   0  0  0  0  0  0  0  0  0  0  0  0  # atno 6909 bound_to 6896
  145.7234  139.2657  143.1583 H   0  0  0  0  0  0  0  0  0  0  0  0  # atno 7974 bound_to 7965
  155.6459  140.3497  155.4731 H   0  0  0  0  0  0  0  0  0  0  0  0  # atno 8008 bound_to 7997
  155.9888  140.1189  157.0681 H   0  0  0  0  0  0  0  0  0  0  0  0  # atno 8009 bound_to 7997
  154.4213  140.1123  156.5523 H   0  0  0  0  0  0  0  0  0  0  0  0  # atno 8010 bound_to 7997
  140.0901  143.4708  152.1875 H   0  0  0  0  0  0  0  0  0  0  0  0  # atno 10167 bound_to 10162
  157.4539  130.8155  149.7816 H   0  0  0  0  0  0  0  0  0  0  0  0  # atno 10718 bound_to 10713
  153.0026  135.6269  154.2192 H   0  0  0  0  0  0  0  0  0  0  0  0  # atno 10763 bound_to 10752
  154.1935  135.2807  155.3016 H   0  0  0  0  0  0  0  0  0  0  0  0  # atno 10764 bound_to 10752
  154.5741  135.5667  153.7182 H   0  0  0  0  0  0  0  0  0  0  0  0  # atno 10765 bound_to 10752
  141.1229  133.8482  157.1237 H   0  0  0  0  0  0  0  0  0  0  0  0  # atno 11005 bound_to 11000
  146.0604  140.7976  142.9737 LP  0  0  0  0  0  0  0  0  0  0  0  0  # atno 17320 bound_to 7965
  144.6911  140.3188  143.7236 LP  0  0  0  0  0  0  0  0  0  0  0  0  # atno 17321 bound_to 7965
  139.5730  144.7472  151.3841 LP  0  0  0  0  0  0  0  0  0  0  0  0  # atno 17342 bound_to 10162
  140.7033  143.7577  150.7439 LP  0  0  0  0  0  0  0  0  0  0  0  0  # atno 17343 bound_to 10162
  155.9999  130.3886  150.2648 LP  0  0  0  0  0  0  0  0  0  0  0  0  # atno 17370 bound_to 10713
  157.0822  131.0146  151.3152 LP  0  0  0  0  0  0  0  0  0  0  0  0  # atno 17371 bound_to 10713
  140.0201  134.9949  157.0574 LP  0  0  0  0  0  0  0  0  0  0  0  0  # atno 17394 bound_to 11000
  140.4454  134.1638  155.7177 LP  0  0  0  0  0  0  0  0  0  0  0  0  # atno 17395 bound_to 11000

$$$$
