AV-unprocessed.smi:35|AV-procd|sdf|269|dock5
  -GOLD-   2262016 33D 1   1.00000     0.00000
 Structure written by MMmdl.
 28 29  0  0  0  0  0  0  0  0  2 V2000
  150.4998  134.5353  157.1088 O   0  0  0  0  0  0  0  0  0  0  0  0
  150.4755  135.6099  156.5118 C   0  0  0  0  0  0  0  0  0  0  0  0
  151.5675  136.1356  155.8865 N   0  5  0  0  0  0  0  0  0  0  0  0
  151.5300  137.3194  155.2070 C   0  0  0  0  0  0  0  0  0  0  0  0
  152.5274  137.8224  154.6903 O   0  0  0  0  0  0  0  0  0  0  0  0
  150.2923  138.0155  155.0947 N   0  0  0  0  0  0  0  0  0  0  0  0
  150.2485  139.3449  154.3556 C   0  0  2  0  0  0  0  0  0  0  0  0
  151.2032  140.2146  154.9020 O   0  0  0  0  0  0  0  0  0  0  0  0
  150.5975  141.2297  155.7025 C   0  0  2  0  0  0  0  0  0  0  0  0
  150.4490  140.7645  157.1702 C   0  0  0  0  0  0  0  0  0  0  0  0
  151.7196  140.6715  157.7784 O   0  0  0  0  0  0  0  0  0  0  0  0
  149.2783  141.4544  154.9560 C   0  0  2  0  0  0  0  0  0  0  0  0
  148.2747  142.0466  155.7575 O   0  0  0  0  0  0  0  0  0  0  0  0
  148.8826  140.0575  154.4967 C   0  0  1  0  0  0  0  0  0  0  0  0
  148.2044  140.1476  153.2599 O   0  0  0  0  0  0  0  0  0  0  0  0
  149.1861  137.5366  155.7814 C   0  0  0  0  0  0  0  0  0  0  0  0
  149.2343  136.3761  156.4653 C   0  0  0  0  0  0  0  0  0  0  0  0
  147.5682  135.8113  157.3770 Br  0  0  0  0  0  0  0  0  0  0  0  0
  150.5221  139.0965  153.3286 H   0  0  0  0  0  0  0  0  0  0  0  0
  151.2008  142.1381  155.6715 H   0  0  0  0  0  0  0  0  0  0  0  0
  149.8883  141.4980  157.7491 H   0  0  0  0  0  0  0  0  0  0  0  0
  149.9096  139.8230  157.2594 H   0  0  0  0  0  0  0  0  0  0  0  0
  152.3401  140.3717  157.1316 H   0  0  0  0  0  0  0  0  0  0  0  0
  149.4726  142.0949  154.0937 H   0  0  0  0  0  0  0  0  0  0  0  0
  148.2884  142.9795  155.6061 H   0  0  0  0  0  0  0  0  0  0  0  0
  148.2708  139.5571  155.2495 H   0  0  0  0  0  0  0  0  0  0  0  0
  148.8514  140.2786  152.5821 H   0  0  0  0  0  0  0  0  0  0  0  0
  148.2583  138.0875  155.7816 H   0  0  0  0  0  0  0  0  0  0  0  0
  1  2  2  0  0  0  0
  2 17  1  0  0  0  0
  2  3  1  0  0  0  0
  3  4  1  0  0  0  0
  4  5  2  0  0  0  0
  4  6  1  0  0  0  0
  6  7  1  0  0  0  0
  6 16  1  0  0  0  0
  7 14  1  0  0  0  0
  7  8  1  0  0  0  0
  7 19  1  0  0  0  0
  8  9  1  0  0  0  0
  9 10  1  0  0  0  0
  9 12  1  0  0  0  0
  9 20  1  0  0  0  0
 10 11  1  0  0  0  0
 10 21  1  0  0  0  0
 10 22  1  0  0  0  0
 11 23  1  0  0  0  0
 12 13  1  0  0  0  0
 12 14  1  0  0  0  0
 12 24  1  0  0  0  0
 13 25  1  0  0  0  0
 14 15  1  0  0  0  0
 14 26  1  0  0  0  0
 15 27  1  0  0  0  0
 16 17  2  0  0  0  0
 16 28  1  0  0  0  0
 17 18  1  0  0  0  0
M  CHG  1   3  -1
M  END
> <s_m_source_file>
AV-unprocessed.smi

> <i_m_source_file_index>
35

> <i_lp_mmshare_version>
43012

> <i_f3d_flags>
0

> <s_epik_input>
Tz1jMVtuSF1jKD1PKW4oW2NIXWMxQnIpW0NAQEhdMk9bQ0BASF0oW0NIMl1bT0hdKVtDQEBIXShbT0hdKVtDQEhdMltPSF0=

> <s_epik_cmdline>
J2VwaWtfcHl0aG9uJywgJy1waCcsICc3LjAnLCAnLXRuJywgJzgnLCAnLW1hJywgJzIwMCcsICctbWV0YWxfYmluZGluZycsICctaW1hZScsICc8aW5maWxlLm1hZT4nLCAnLW9tYWUnLCAnPG91dGZpbGUubWFlPic=

> <r_epik_Ionization_Penalty>
1.06112

> <r_epik_Ionization_Penalty_Charging>
2.1796e-09

> <r_epik_Ionization_Penalty_Neutral>
1.06112

> <r_epik_State_Penalty>
1.11484

> <r_epik_Charging_Adjusted_Penalty>
1.11484

> <i_epik_Tot_Q>
-1

> <i_epik_Tot_abs_Q>
1

> <r_epik_Metal_State_Penalty>
0.0032876

> <b_epik_Metal_Only>
0

> <s_epik_Chemistry_Notes>
This compound contains an acetal/aminal-like group ( X-CH(R)-Y where X, Y are N, S, or O) that may be acid/base labile, releasing an aldehyde.

> <s_lp_Force_Field>
OPLS_2005

> <r_lp_Energy>
39.1741

> <b_lp_Chiralities_Consistent>
1

> <s_lp_Variant>
AV-unprocessed.smi:35-23

> <Gold.Version>
5.8.1

> <Gold.Id.Protein>
6NUR|6NUR_protein|mol2

> <Gold.PLP.Fitness>
41.2534

> <Gold.PLP.PLP>
-25.7312

> <Gold.PLP.part.hbond>
-5.9365

> <Gold.PLP.part.metal>
0.0000

> <Gold.PLP.part.buried>
-3.9653

> <Gold.PLP.part.nonpolar>
-15.7206

> <Gold.PLP.part.repulsive>
0.1717

> <Gold.PLP.ligand.clash>
0.0000

> <Gold.PLP.ligand.torsion>
0.0753

> <Gold.PLP.Chemscore.Hbond>
5.2038

> <Gold.PLP.Chemscore.CHOScore>
0.0000

> <Gold.PLP.Chemscore.Metal>
0.0000

> <Gold.Chemscore.Hbonds>
donor molecule, donor type, donor heavy atom, donor atom, acceptor molecule, acceptor atom, score
      L1  H    13    25       P1  8028  1.00
      L1  H    15    27       P1  7957  1.00
      P1  H  6896  6908       L1     1  0.15
      P1  H  7989  7998       L1     8  0.80
      P1  H 10752 10763       L1     3  1.88

> <Gold.PLP.Chemscore.Internal.Correction>
0.0612

> <Gold.Rescore>
     Score         DG    S(hbond)    S(metal)    S(lipo)     H(rot)  DE(clash)    DE(int)     intcor
      8.78     -10.28       3.15        0.00      30.57       3.63       0.00       1.50       ----

> <Gold.Chemscore.Fitness>
8.7759

> <Gold.Chemscore.DG>
-10.2846

> <Gold.Chemscore.ZeroCoef>
-5.4800

> <Gold.Chemscore.Hbond>
3.1468

> <Gold.Chemscore.Metal>
0.0000

> <Gold.Chemscore.Lipo>
30.5729

> <Gold.Chemscore.Internal_Hbond>
0.0000

> <Gold.Chemscore.DEClash>
0.0038

> <Gold.Chemscore.DEInternal>
1.5049

> <Gold.Chemscore.Rot>
3.6261

> <Gold.Chemscore.Internal.Correction>
   9.000000E+99

> <Gold.Chemscore.Hbonds>
donor molecule, donor type, donor heavy atom, donor atom, acceptor molecule, acceptor atom, score
      L1  H    13    25       P1  8028  0.96
      L1  H    15    27       P1  7957  0.98
      P1  H  6896  6908       L1     1  0.14
      P1  H  7989  7998       L1     8  0.08
      P1  H 10752 10763       L1     3  0.20

> <Gold.Chemscore.Hbond.Weighted>
-10.5104

> <Gold.Chemscore.Metal.Weighted>
-0.0000

> <Gold.Chemscore.Lipo.Weighted>
-3.5770

> <Gold.Chemscore.Internal_Hbond.Weighted>
0.0000

> <Gold.Chemscore.DEClash.Weighted>
0.0038

> <Gold.Chemscore.DEInternal.Weighted>
1.5049

> <Gold.Chemscore.Rot.Weighted>
9.2828

> <Gold.Chemscore.Internal.Correction.Weighted>
   9.000000E+99

> <Gold.Protein.RotatedTorsions>
[ 6907 6896 6895 6894 ] final  108.74 input  -60.11 | X-H torsion
[ 7974 7965 7964 7962 ] final   56.77 input  175.53 | X-H torsion
[ 8008 7997 7996 7995 ] final  153.56 input   59.86 | X-H torsion
[ 10167 10162 10161 10158 ] final   -8.72 input  -65.29 | X-H torsion
[ 10718 10713 10712 10709 ] final  -15.77 input   66.30 | X-H torsion
[ 10763 10752 10751 10750 ] final  100.71 input  -60.55 | X-H torsion
[ 11005 11000 10999 10996 ] final   97.85 input  -57.11 | X-H torsion

> <Gold.Protein.ActiveResidues>
 VAL166  LYS551  ARG553  GLY616  TRP617  ASP618  TYR619  PRO620  LYS621  CYS622 
 ASP623  PHE694  ASN695  SER759  ASP760  ASP761  ALA762  ILE779  LEU786  VAL792 
 PHE793  MET794  SER795  GLU796  ALA797  LYS798  CYS799  TRP800  GLU811  SER814 

> <Gold.Protein.RotatedAtoms>
  152.5098  133.9044  159.7456 H   0  0  0  0  0  0  0  0  0  0  0  0  # atno 6907 bound_to 6896
  150.9452  133.6602  159.2789 H   0  0  0  0  0  0  0  0  0  0  0  0  # atno 6908 bound_to 6896
  151.3900  135.0959  159.9576 H   0  0  0  0  0  0  0  0  0  0  0  0  # atno 6909 bound_to 6896
  145.9363  139.3850  143.0391 H   0  0  0  0  0  0  0  0  0  0  0  0  # atno 7974 bound_to 7965
  156.2575  140.1990  156.6509 H   0  0  0  0  0  0  0  0  0  0  0  0  # atno 8008 bound_to 7997
  154.6537  140.0569  157.0010 H   0  0  0  0  0  0  0  0  0  0  0  0  # atno 8009 bound_to 7997
  155.1379  140.3240  155.4461 H   0  0  0  0  0  0  0  0  0  0  0  0  # atno 8010 bound_to 7997
  140.7067  143.5937  150.8868 H   0  0  0  0  0  0  0  0  0  0  0  0  # atno 10167 bound_to 10162
  156.5971  130.4814  149.6255 H   0  0  0  0  0  0  0  0  0  0  0  0  # atno 10718 bound_to 10713
  153.3174  135.4069  155.1388 H   0  0  0  0  0  0  0  0  0  0  0  0  # atno 10763 bound_to 10752
  154.8592  135.3579  154.5642 H   0  0  0  0  0  0  0  0  0  0  0  0  # atno 10764 bound_to 10752
  153.6074  135.7069  153.5419 H   0  0  0  0  0  0  0  0  0  0  0  0  # atno 10765 bound_to 10752
  139.8774  134.9021  156.4369 H   0  0  0  0  0  0  0  0  0  0  0  0  # atno 11005 bound_to 11000
  145.8360  140.9606  143.0824 LP  0  0  0  0  0  0  0  0  0  0  0  0  # atno 17320 bound_to 7965
  144.6772  140.0223  143.7483 LP  0  0  0  0  0  0  0  0  0  0  0  0  # atno 17321 bound_to 7965
  139.9662  143.6108  152.2987 LP  0  0  0  0  0  0  0  0  0  0  0  0  # atno 17342 bound_to 10162
  139.6678  144.7662  151.1840 LP  0  0  0  0  0  0  0  0  0  0  0  0  # atno 17343 bound_to 10162
  156.2501  130.6902  151.1636 LP  0  0  0  0  0  0  0  0  0  0  0  0  # atno 17370 bound_to 10713
  157.7289  131.0628  150.5799 LP  0  0  0  0  0  0  0  0  0  0  0  0  # atno 17371 bound_to 10713
  140.9027  133.7768  155.9699 LP  0  0  0  0  0  0  0  0  0  0  0  0  # atno 17394 bound_to 11000
  140.8633  134.2814  157.5224 LP  0  0  0  0  0  0  0  0  0  0  0  0  # atno 17395 bound_to 11000

$$$$
