AV-unprocessed.smi:1662|AV-procd|sdf|6663|dock6
  -GOLD-   22720 7373D 1   1.00000     0.00000
 Structure written by MMmdl.
 47 48  0  0  0  0  0  0  0  0  1 V2000
  147.1291  138.9539  154.2846 C   0  0  0  0  0  0  0  0  0  0  0  0
  148.3797  138.2301  154.7056 C   0  0  0  0  0  0  0  0  0  0  0  0
  148.2514  136.9825  155.0176 N   0  0  0  0  0  0  0  0  0  0  0  0
  149.3349  136.2264  155.4212 N   0  0  0  0  0  0  0  0  0  0  0  0
  148.9998  134.8364  155.7644 C   0  0  0  0  0  0  0  0  0  0  0  0
  149.0981  134.5316  157.2668 C   0  0  0  0  0  0  0  0  0  0  0  0
  149.8402  133.6430  157.6884 O   0  0  0  0  0  0  0  0  0  0  0  0
  148.3446  135.3003  158.0678 N   0  0  0  0  0  0  0  0  0  0  0  0
  148.2809  135.1991  159.5244 C   0  0  2  0  0  0  0  0  0  0  0  0
  147.7293  133.8176  159.9272 C   0  0  0  0  0  0  0  0  0  0  0  0
  147.6824  133.6586  161.4544 C   0  0  0  0  0  0  0  0  0  0  0  0
  146.8922  134.7976  162.1178 C   0  0  0  0  0  0  0  0  0  0  0  0
  147.4417  136.1790  161.7082 C   0  0  2  0  0  0  0  0  0  0  0  0
  146.7243  137.3205  162.4478 C   0  0  0  0  0  0  0  0  0  0  0  0
  147.4601  136.3528  160.1658 C   0  0  2  0  0  0  0  0  0  0  0  0
  146.0532  136.5181  159.5449 C   0  0  0  0  0  0  0  0  0  0  0  0
  150.6142  136.6915  155.5162 C   0  0  0  0  0  0  0  0  0  0  0  0
  151.5538  135.9779  155.8708 O   0  0  0  0  0  0  0  0  0  0  0  0
  150.7520  138.1060  155.1620 C   0  0  0  0  0  0  0  0  0  0  0  0
  152.0743  138.6356  155.2542 C   0  0  0  0  0  0  0  0  0  0  0  0
  153.1410  139.0811  155.3167 N   0  0  0  0  0  0  0  0  0  0  0  0
  149.6936  138.8613  154.7744 C   0  0  0  0  0  0  0  0  0  0  0  0
  149.7823  140.3340  154.3988 C   0  0  0  0  0  0  0  0  0  0  0  0
  147.2494  139.3940  153.2947 H   0  0  0  0  0  0  0  0  0  0  0  0
  146.8916  139.7541  154.9857 H   0  0  0  0  0  0  0  0  0  0  0  0
  146.2672  138.2862  154.2430 H   0  0  0  0  0  0  0  0  0  0  0  0
  147.9835  134.6056  155.4392 H   0  0  0  0  0  0  0  0  0  0  0  0
  149.6447  134.1478  155.2150 H   0  0  0  0  0  0  0  0  0  0  0  0
  147.7692  136.0097  157.6376 H   0  0  0  0  0  0  0  0  0  0  0  0
  149.3033  135.2587  159.9036 H   0  0  0  0  0  0  0  0  0  0  0  0
  146.7310  133.6732  159.5129 H   0  0  0  0  0  0  0  0  0  0  0  0
  148.3522  133.0297  159.5019 H   0  0  0  0  0  0  0  0  0  0  0  0
  147.2389  132.6972  161.7149 H   0  0  0  0  0  0  0  0  0  0  0  0
  148.6992  133.6453  161.8488 H   0  0  0  0  0  0  0  0  0  0  0  0
  145.8376  134.7181  161.8525 H   0  0  0  0  0  0  0  0  0  0  0  0
  146.9413  134.6852  163.2016 H   0  0  0  0  0  0  0  0  0  0  0  0
  148.4812  136.2154  162.0387 H   0  0  0  0  0  0  0  0  0  0  0  0
  145.6496  137.3092  162.2666 H   0  0  0  0  0  0  0  0  0  0  0  0
  147.1086  138.2929  162.1389 H   0  0  0  0  0  0  0  0  0  0  0  0
  146.8720  137.2371  163.5249 H   0  0  0  0  0  0  0  0  0  0  0  0
  147.9935  137.2819  159.9597 H   0  0  0  0  0  0  0  0  0  0  0  0
  145.4208  135.6490  159.7224 H   0  0  0  0  0  0  0  0  0  0  0  0
  146.1059  136.6702  158.4671 H   0  0  0  0  0  0  0  0  0  0  0  0
  145.5387  137.3886  159.9501 H   0  0  0  0  0  0  0  0  0  0  0  0
  150.7895  140.7314  154.5196 H   0  0  0  0  0  0  0  0  0  0  0  0
  149.1195  140.9301  155.0269 H   0  0  0  0  0  0  0  0  0  0  0  0
  149.4941  140.4804  153.3574 H   0  0  0  0  0  0  0  0  0  0  0  0
  1  2  1  0  0  0  0
  1 24  1  0  0  0  0
  1 25  1  0  0  0  0
  1 26  1  0  0  0  0
  2 22  1  0  0  0  0
  2  3  2  0  0  0  0
  3  4  1  0  0  0  0
  4  5  1  0  0  0  0
  4 17  1  0  0  0  0
  5  6  1  0  0  0  0
  5 27  1  0  0  0  0
  5 28  1  0  0  0  0
  6  7  2  0  0  0  0
  6  8  1  0  0  0  0
  8  9  1  0  0  0  0
  8 29  1  0  0  0  0
  9 15  1  0  0  0  0
  9 10  1  0  0  0  0
  9 30  1  0  0  0  0
 10 11  1  0  0  0  0
 10 31  1  0  0  0  0
 10 32  1  0  0  0  0
 11 12  1  0  0  0  0
 11 33  1  0  0  0  0
 11 34  1  0  0  0  0
 12 13  1  0  0  0  0
 12 35  1  0  0  0  0
 12 36  1  0  0  0  0
 13 14  1  0  0  0  0
 13 15  1  0  0  0  0
 13 37  1  0  0  0  0
 14 38  1  0  0  0  0
 14 39  1  0  0  0  0
 14 40  1  0  0  0  0
 15 16  1  0  0  0  0
 15 41  1  0  0  0  0
 16 42  1  0  0  0  0
 16 43  1  0  0  0  0
 16 44  1  0  0  0  0
 17 18  2  0  0  0  0
 17 19  1  0  0  0  0
 19 20  1  0  0  0  0
 19 22  2  0  0  0  0
 20 21  3  0  0  0  0
 22 23  1  0  0  0  0
 23 45  1  0  0  0  0
 23 46  1  0  0  0  0
 23 47  1  0  0  0  0
M  END
> <s_m_source_file>
AV-unprocessed.smi

> <i_m_source_file_index>
1662

> <i_lp_mmshare_version>
43012

> <i_f3d_flags>
0

> <s_epik_input>
TiNDYyhjMVtDSDNdKWMoPU8pbihuYzFbQ0gzXSlbQ0gyXUMoPU8pW05IXVtDQEBIXTJbQ0gyXVtDSDJdW0NIMl1bQ0BASF0oW0NIM10pW0NASF0yW0NIM10=

> <s_epik_cmdline>
J2VwaWtfcHl0aG9uJywgJy1waCcsICc3LjAnLCAnLXRuJywgJzgnLCAnLW1hJywgJzIwMCcsICctbWV0YWxfYmluZGluZycsICctaW1hZScsICc8aW5maWxlLm1hZT4nLCAnLW9tYWUnLCAnPG91dGZpbGUubWFlPic=

> <r_lp_tautomer_probability>
1

> <r_epik_Ionization_Penalty>
1.90709e-08

> <r_epik_Ionization_Penalty_Charging>
2.37982e-11

> <r_epik_Ionization_Penalty_Neutral>
1.90471e-08

> <r_epik_State_Penalty>
-0

> <r_epik_Charging_Adjusted_Penalty>
2.37982e-11

> <i_epik_Tot_Q>
0

> <i_epik_Tot_abs_Q>
0

> <r_epik_Metal_State_Penalty>
-0

> <b_epik_Metal_Only>
0

> <s_lp_Force_Field>
OPLS_2005

> <r_lp_Energy>
29.1366

> <b_lp_Chiralities_Consistent>
1

> <s_lp_Variant>
AV-unprocessed.smi:1662-7

> <Gold.Version>
5.8.1

> <Gold.Id.Protein>
6NUR|6NUR_protein|mol2

> <Gold.PLP.Fitness>
43.2544

> <Gold.PLP.PLP>
-34.5089

> <Gold.PLP.part.hbond>
-3.0000

> <Gold.PLP.part.metal>
0.0000

> <Gold.PLP.part.buried>
-3.3283

> <Gold.PLP.part.nonpolar>
-28.1613

> <Gold.PLP.part.repulsive>
0.2074

> <Gold.PLP.ligand.clash>
0.0000

> <Gold.PLP.ligand.torsion>
0.1351

> <Gold.PLP.Chemscore.Hbond>
3.0000

> <Gold.PLP.Chemscore.CHOScore>
0.0000

> <Gold.PLP.Chemscore.Metal>
0.0000

> <Gold.Chemscore.Hbonds>
donor molecule, donor type, donor heavy atom, donor atom, acceptor molecule, acceptor atom, score
      P1  H  6896  6907       L1     7  0.98
      P1  H  7997  8008       L1    21  1.00
      P1  H 10752 10764       L1    18  1.00

> <Gold.PLP.Chemscore.Internal.Correction>
0.0156

> <Gold.Rescore>
     Score         DG    S(hbond)    S(metal)    S(lipo)     H(rot)  DE(clash)    DE(int)     intcor
     20.52     -20.67       2.93        0.00      77.93       1.45       0.03       0.12       ----

> <Gold.Chemscore.Fitness>
20.5183

> <Gold.Chemscore.DG>
-20.6685

> <Gold.Chemscore.ZeroCoef>
-5.4800

> <Gold.Chemscore.Hbond>
2.9293

> <Gold.Chemscore.Metal>
0.0000

> <Gold.Chemscore.Lipo>
77.9277

> <Gold.Chemscore.Internal_Hbond>
0.0000

> <Gold.Chemscore.DEClash>
0.0332

> <Gold.Chemscore.DEInternal>
0.1170

> <Gold.Chemscore.Rot>
1.4504

> <Gold.Chemscore.Internal.Correction>
   9.000000E+99

> <Gold.Chemscore.Hbonds>
donor molecule, donor type, donor heavy atom, donor atom, acceptor molecule, acceptor atom, score
      P1  H  6896  6907       L1     7  0.93
      P1  H  7997  8008       L1    21  0.99
      P1  H 10752 10764       L1    18  1.00

> <Gold.Chemscore.Hbond.Weighted>
-9.7839

> <Gold.Chemscore.Metal.Weighted>
-0.0000

> <Gold.Chemscore.Lipo.Weighted>
-9.1175

> <Gold.Chemscore.Internal_Hbond.Weighted>
0.0000

> <Gold.Chemscore.DEClash.Weighted>
0.0332

> <Gold.Chemscore.DEInternal.Weighted>
0.1170

> <Gold.Chemscore.Rot.Weighted>
3.7129

> <Gold.Chemscore.Internal.Correction.Weighted>
   9.000000E+99

> <Gold.Protein.RotatedTorsions>
[ 6907 6896 6895 6894 ] final -136.73 input  -60.11 | X-H torsion
[ 7974 7965 7964 7962 ] final   50.34 input  175.53 | X-H torsion
[ 8008 7997 7996 7995 ] final  -32.63 input   59.86 | X-H torsion
[ 10167 10162 10161 10158 ] final  118.72 input  -65.29 | X-H torsion
[ 10718 10713 10712 10709 ] final -100.33 input   66.30 | X-H torsion
[ 10763 10752 10751 10750 ] final  -29.03 input  -60.55 | X-H torsion
[ 11005 11000 10999 10996 ] final  -84.45 input  -57.11 | X-H torsion

> <Gold.Protein.ActiveResidues>
 VAL166  LYS551  ARG553  GLY616  TRP617  ASP618  TYR619  PRO620  LYS621  CYS622 
 ASP623  PHE694  ASN695  SER759  ASP760  ASP761  ALA762  ILE779  LEU786  VAL792 
 PHE793  MET794  SER795  GLU796  ALA797  LYS798  CYS799  TRP800  GLU811  SER814 

> <Gold.Protein.RotatedAtoms>
  151.0136  133.5942  159.2679 H   0  0  0  0  0  0  0  0  0  0  0  0  # atno 6907 bound_to 6896
  151.3084  135.0787  159.9273 H   0  0  0  0  0  0  0  0  0  0  0  0  # atno 6908 bound_to 6896
  152.5306  133.9805  159.7858 H   0  0  0  0  0  0  0  0  0  0  0  0  # atno 6909 bound_to 6896
  146.0021  139.4450  143.0008 H   0  0  0  0  0  0  0  0  0  0  0  0  # atno 7974 bound_to 7965
  154.4174  140.1732  156.1759 H   0  0  0  0  0  0  0  0  0  0  0  0  # atno 8008 bound_to 7997
  155.9722  140.3384  155.6562 H   0  0  0  0  0  0  0  0  0  0  0  0  # atno 8009 bound_to 7997
  155.6610  140.0701  157.2545 H   0  0  0  0  0  0  0  0  0  0  0  0  # atno 8010 bound_to 7997
  139.6093  144.7078  151.2880 H   0  0  0  0  0  0  0  0  0  0  0  0  # atno 10167 bound_to 10162
  156.0160  130.5323  150.6801 H   0  0  0  0  0  0  0  0  0  0  0  0  # atno 10718 bound_to 10713
  153.7580  135.6921  153.4931 H   0  0  0  0  0  0  0  0  0  0  0  0  # atno 10763 bound_to 10752
  153.1958  135.4454  155.0204 H   0  0  0  0  0  0  0  0  0  0  0  0  # atno 10764 bound_to 10752
  154.8163  135.3400  154.7097 H   0  0  0  0  0  0  0  0  0  0  0  0  # atno 10765 bound_to 10752
  141.1650  133.7346  156.8869 H   0  0  0  0  0  0  0  0  0  0  0  0  # atno 11005 bound_to 11000
  145.7472  140.9986  143.1270 LP  0  0  0  0  0  0  0  0  0  0  0  0  # atno 17320 bound_to 7965
  144.6923  139.9170  143.7466 LP  0  0  0  0  0  0  0  0  0  0  0  0  # atno 17321 bound_to 7965
  140.7308  143.6871  150.7953 LP  0  0  0  0  0  0  0  0  0  0  0  0  # atno 17342 bound_to 10162
  140.0462  143.5296  152.2695 LP  0  0  0  0  0  0  0  0  0  0  0  0  # atno 17343 bound_to 10162
  157.4505  131.0872  151.0851 LP  0  0  0  0  0  0  0  0  0  0  0  0  # atno 17370 bound_to 10713
  157.1368  130.6126  149.5544 LP  0  0  0  0  0  0  0  0  0  0  0  0  # atno 17371 bound_to 10713
  140.1676  134.9122  157.2793 LP  0  0  0  0  0  0  0  0  0  0  0  0  # atno 17394 bound_to 11000
  140.2539  134.3650  155.7431 LP  0  0  0  0  0  0  0  0  0  0  0  0  # atno 17395 bound_to 11000

$$$$
