AV-unprocessed.smi:103|AV-procd|sdf|986|dock6
  -GOLD-   2262017553D 1   1.00000     0.00000
 Structure written by MMmdl.
 53 55  0  0  0  0  0  0  0  0  1 V2000
  147.1410  142.0227  154.3121 C   0  0  0  0  0  0  0  0  0  0  0  0
  148.3577  141.1369  154.5442 C   0  0  0  0  0  0  0  0  0  0  0  0
  149.4519  141.4108  154.0509 O   0  0  0  0  0  0  0  0  0  0  0  0
  148.0769  140.0801  155.3261 O   0  0  0  0  0  0  0  0  0  0  0  0
  149.0667  139.0982  155.5986 C   0  0  0  0  0  0  0  0  0  0  0  0
  149.2573  138.9737  157.1157 C   0  0  1  0  0  0  0  0  0  0  0  0
  148.0920  138.3562  157.6594 O   0  0  0  0  0  0  0  0  0  0  0  0
  148.4484  137.2943  158.4805 C   0  0  1  0  0  0  0  0  0  0  0  0
  147.3833  136.2409  158.4249 N   0  0  0  0  0  0  0  0  0  0  0  0
  146.6905  135.6472  159.4598 C   0  0  0  0  0  0  0  0  0  0  0  0
  146.8339  136.0481  161.1966 S   0  0  0  0  0  0  0  0  0  0  0  0
  145.1544  136.6935  161.5741 C   0  0  0  0  0  0  0  0  0  0  0  0
  147.0440  134.7810  161.9141 O   0  0  0  0  0  0  0  0  0  0  0  0
  147.8092  137.1433  161.3108 O   0  0  0  0  0  0  0  0  0  0  0  0
  145.7723  134.7799  159.1305 N   0  0  0  0  0  0  0  0  0  0  0  0
  145.8899  134.7089  157.7494 C   0  0  0  0  0  0  0  0  0  0  0  0
  145.2401  133.9504  156.7434 C   0  0  0  0  0  0  0  0  0  0  0  0
  144.2755  133.0588  157.0088 N   0  0  0  0  0  0  0  0  0  0  0  0
  145.6122  134.1307  155.4546 N   0  0  0  0  0  0  0  0  0  0  0  0
  146.5741  135.0122  155.1639 C   0  0  0  0  0  0  0  0  0  0  0  0
  147.2688  135.7929  155.9948 N   0  0  0  0  0  0  0  0  0  0  0  0
  146.8934  135.6122  157.2955 C   0  0  0  0  0  0  0  0  0  0  0  0
  149.8007  136.7831  157.9836 C   0  0  1  0  0  0  0  0  0  0  0  0
  149.6490  135.8295  156.9377 O   0  0  0  0  0  0  0  0  0  0  0  0
  150.7173  135.3708  156.2692 C   0  0  0  0  0  0  0  0  0  0  0  0
  150.3419  134.3204  155.2325 C   0  0  0  0  0  0  0  0  0  0  0  0
  151.8850  135.7205  156.4377 O   0  0  0  0  0  0  0  0  0  0  0  0
  150.4439  138.0619  157.4697 C   0  0  2  0  0  0  0  0  0  0  0  0
  151.2346  138.6579  158.4918 O   0  0  0  0  0  0  0  0  0  0  0  0
  152.1471  139.5979  158.1853 C   0  0  0  0  0  0  0  0  0  0  0  0
  152.7991  140.2026  159.4216 C   0  0  0  0  0  0  0  0  0  0  0  0
  152.4609  139.9619  157.0522 O   0  0  0  0  0  0  0  0  0  0  0  0
  146.2690  141.4164  154.0661 H   0  0  0  0  0  0  0  0  0  0  0  0
  147.3232  142.7142  153.4891 H   0  0  0  0  0  0  0  0  0  0  0  0
  146.9196  142.6021  155.2085 H   0  0  0  0  0  0  0  0  0  0  0  0
  148.8235  138.1227  155.1754 H   0  0  0  0  0  0  0  0  0  0  0  0
  149.9972  139.4229  155.1324 H   0  0  0  0  0  0  0  0  0  0  0  0
  149.3889  139.9628  157.5571 H   0  0  0  0  0  0  0  0  0  0  0  0
  148.4732  137.6460  159.5113 H   0  0  0  0  0  0  0  0  0  0  0  0
  145.1040  136.9808  162.6240 H   0  0  0  0  0  0  0  0  0  0  0  0
  144.4153  135.9179  161.3741 H   0  0  0  0  0  0  0  0  0  0  0  0
  144.9468  137.5613  160.9490 H   0  0  0  0  0  0  0  0  0  0  0  0
  143.9819  132.9037  157.9627 H   0  0  0  0  0  0  0  0  0  0  0  0
  143.8466  132.5411  156.2555 H   0  0  0  0  0  0  0  0  0  0  0  0
  146.8219  135.1082  154.1170 H   0  0  0  0  0  0  0  0  0  0  0  0
  150.3429  136.3466  158.8238 H   0  0  0  0  0  0  0  0  0  0  0  0
  149.3389  134.5026  154.8454 H   0  0  0  0  0  0  0  0  0  0  0  0
  150.3644  133.3266  155.6798 H   0  0  0  0  0  0  0  0  0  0  0  0
  151.0428  134.3411  154.3978 H   0  0  0  0  0  0  0  0  0  0  0  0
  151.0616  137.8729  156.5898 H   0  0  0  0  0  0  0  0  0  0  0  0
  152.0929  140.2376  160.2515 H   0  0  0  0  0  0  0  0  0  0  0  0
  153.1372  141.2182  159.2146 H   0  0  0  0  0  0  0  0  0  0  0  0
  153.6604  139.6058  159.7224 H   0  0  0  0  0  0  0  0  0  0  0  0
  1  2  1  0  0  0  0
  1 33  1  0  0  0  0
  1 34  1  0  0  0  0
  1 35  1  0  0  0  0
  2  3  2  0  0  0  0
  2  4  1  0  0  0  0
  4  5  1  0  0  0  0
  5  6  1  0  0  0  0
  5 36  1  0  0  0  0
  5 37  1  0  0  0  0
  6 28  1  0  0  0  0
  6  7  1  0  0  0  0
  6 38  1  0  0  0  0
  7  8  1  0  0  0  0
  8  9  1  0  0  0  0
  8 23  1  0  0  0  0
  8 39  1  0  0  0  0
  9 22  1  0  0  0  0
  9 10  1  0  0  0  0
 10 11  1  0  0  0  0
 10 15  2  0  0  0  0
 11 12  1  0  0  0  0
 11 13  2  0  0  0  0
 11 14  2  0  0  0  0
 12 40  1  0  0  0  0
 12 41  1  0  0  0  0
 12 42  1  0  0  0  0
 15 16  1  0  0  0  0
 16 22  2  0  0  0  0
 16 17  1  0  0  0  0
 17 18  1  0  0  0  0
 17 19  2  0  0  0  0
 18 43  1  0  0  0  0
 18 44  1  0  0  0  0
 19 20  1  0  0  0  0
 20 21  2  0  0  0  0
 20 45  1  0  0  0  0
 21 22  1  0  0  0  0
 23 24  1  0  0  0  0
 23 28  1  0  0  0  0
 23 46  1  0  0  0  0
 24 25  1  0  0  0  0
 25 26  1  0  0  0  0
 25 27  2  0  0  0  0
 26 47  1  0  0  0  0
 26 48  1  0  0  0  0
 26 49  1  0  0  0  0
 28 29  1  0  0  0  0
 28 50  1  0  0  0  0
 29 30  1  0  0  0  0
 30 31  1  0  0  0  0
 30 32  2  0  0  0  0
 31 51  1  0  0  0  0
 31 52  1  0  0  0  0
 31 53  1  0  0  0  0
M  END
> <s_m_source_file>
AV-unprocessed.smi

> <i_m_source_file_index>
103

> <i_lp_mmshare_version>
43012

> <i_f3d_flags>
0

> <s_epik_input>
W0NIM11DKD1PKU9bQ0gyXVtDQEBIXTFPW0NASF0oW0NAQEhdKE9DKD1PKVtDSDNdKVtDQEhdMU9DKD1PKVtDSDNdKW4oYyhuMilTKD1PKSg9TylbQ0gzXSljKGMyMyluW2NIXW5jM1tOSDJd

> <s_epik_cmdline>
J2VwaWtfcHl0aG9uJywgJy1waCcsICc3LjAnLCAnLXRuJywgJzgnLCAnLW1hJywgJzIwMCcsICctbWV0YWxfYmluZGluZycsICctaW1hZScsICc8aW5maWxlLm1hZT4nLCAnLW9tYWUnLCAnPG91dGZpbGUubWFlPic=

> <r_lp_tautomer_probability>
1

> <r_epik_Ionization_Penalty>
1.51338e-05

> <r_epik_Ionization_Penalty_Charging>
0

> <r_epik_Ionization_Penalty_Neutral>
1.51338e-05

> <r_epik_State_Penalty>
-0

> <r_epik_Charging_Adjusted_Penalty>
0

> <i_epik_Tot_Q>
0

> <i_epik_Tot_abs_Q>
0

> <r_epik_Metal_State_Penalty>
-0

> <b_epik_Metal_Only>
0

> <s_epik_Chemistry_Notes>
This compound has an ester and may undergo hydrolysis at high or low pH. This compound contains an acetal/aminal-like group ( X-CH(R)-Y where X, Y are N, S, or O) that may be acid/base labile, releasing an aldehyde.

> <s_lp_Force_Field>
OPLS_2005

> <r_lp_Energy>
13.7998

> <b_lp_Chiralities_Consistent>
1

> <s_lp_Variant>
AV-unprocessed.smi:103-10

> <Gold.Version>
5.8.1

> <Gold.Id.Protein>
6NUR|6NUR_protein|mol2

> <Gold.PLP.Fitness>
45.6992

> <Gold.PLP.PLP>
-29.8490

> <Gold.PLP.part.hbond>
-7.0000

> <Gold.PLP.part.metal>
0.0000

> <Gold.PLP.part.buried>
-5.5545

> <Gold.PLP.part.nonpolar>
-16.7974

> <Gold.PLP.part.repulsive>
0.3210

> <Gold.PLP.ligand.clash>
0.0000

> <Gold.PLP.ligand.torsion>
1.7605

> <Gold.PLP.Chemscore.Hbond>
5.6725

> <Gold.PLP.Chemscore.CHOScore>
0.0000

> <Gold.PLP.Chemscore.Metal>
0.0000

> <Gold.Chemscore.Hbonds>
donor molecule, donor type, donor heavy atom, donor atom, acceptor molecule, acceptor atom, score
      L1  H    18    44       P1 10957  1.00
      P1  H  6931  6943       L1    14  1.00
      P1  H  6934  6947       L1    14  0.78
      P1  H  7989  7998       L1     3  0.10
      P1  H  7997  8008       L1    32  1.00
      P1  H  8011  8017       L1     3  0.70
      P1  H 10752 10763       L1    27  1.00

> <Gold.PLP.Chemscore.Internal.Correction>
2.3537

> <Gold.Rescore>
     Score         DG    S(hbond)    S(metal)    S(lipo)     H(rot)  DE(clash)    DE(int)     intcor
     10.09     -17.80       5.81        0.00      32.41       4.25       0.45       7.26       ----

> <Gold.Chemscore.Fitness>
10.0914

> <Gold.Chemscore.DG>
-17.7998

> <Gold.Chemscore.ZeroCoef>
-5.4800

> <Gold.Chemscore.Hbond>
5.8072

> <Gold.Chemscore.Metal>
0.0000

> <Gold.Chemscore.Lipo>
32.4130

> <Gold.Chemscore.Internal_Hbond>
0.0000

> <Gold.Chemscore.DEClash>
0.4488

> <Gold.Chemscore.DEInternal>
7.2596

> <Gold.Chemscore.Rot>
4.2456

> <Gold.Chemscore.Internal.Correction>
   9.000000E+99

> <Gold.Chemscore.Hbonds>
donor molecule, donor type, donor heavy atom, donor atom, acceptor molecule, acceptor atom, score
      L1  H    18    44       P1 10957  0.96
      P1  H  6931  6943       L1    14  0.95
      P1  H  6934  6947       L1    14  0.72
      P1  H  7989  7998       L1     3  0.10
      P1  H  7997  8008       L1    32  0.74
      P1  H  8011  8017       L1     3  0.66
      P1  H 10752 10763       L1    27  0.99

> <Gold.Chemscore.Hbond.Weighted>
-19.3961

> <Gold.Chemscore.Metal.Weighted>
-0.0000

> <Gold.Chemscore.Lipo.Weighted>
-3.7923

> <Gold.Chemscore.Internal_Hbond.Weighted>
0.0000

> <Gold.Chemscore.DEClash.Weighted>
0.4488

> <Gold.Chemscore.DEInternal.Weighted>
7.2596

> <Gold.Chemscore.Rot.Weighted>
10.8687

> <Gold.Chemscore.Internal.Correction.Weighted>
   9.000000E+99

> <Gold.Protein.RotatedTorsions>
[ 6907 6896 6895 6894 ] final   42.60 input  -60.11 | X-H torsion
[ 7974 7965 7964 7962 ] final  121.50 input  175.53 | X-H torsion
[ 8008 7997 7996 7995 ] final  -73.00 input   59.86 | X-H torsion
[ 10167 10162 10161 10158 ] final   25.72 input  -65.29 | X-H torsion
[ 10718 10713 10712 10709 ] final -115.92 input   66.30 | X-H torsion
[ 10763 10752 10751 10750 ] final  103.25 input  -60.55 | X-H torsion
[ 11005 11000 10999 10996 ] final -136.97 input  -57.11 | X-H torsion

> <Gold.Protein.ActiveResidues>
 VAL166  LYS551  ARG553  GLY616  TRP617  ASP618  TYR619  PRO620  LYS621  CYS622 
 ASP623  PHE694  ASN695  SER759  ASP760  ASP761  ALA762  ILE779  LEU786  VAL792 
 PHE793  MET794  SER795  GLU796  ALA797  LYS798  CYS799  TRP800  GLU811  SER814 

> <Gold.Protein.RotatedAtoms>
  152.2099  134.8511  160.0498 H   0  0  0  0  0  0  0  0  0  0  0  0  # atno 6907 bound_to 6896
  151.9334  133.3612  159.3947 H   0  0  0  0  0  0  0  0  0  0  0  0  # atno 6908 bound_to 6896
  150.6974  134.4439  159.5349 H   0  0  0  0  0  0  0  0  0  0  0  0  # atno 6909 bound_to 6896
  145.1185  139.3405  143.4726 H   0  0  0  0  0  0  0  0  0  0  0  0  # atno 7974 bound_to 7965
  154.5211  140.0787  156.8173 H   0  0  0  0  0  0  0  0  0  0  0  0  # atno 8008 bound_to 7997
  155.3574  140.3416  155.4222 H   0  0  0  0  0  0  0  0  0  0  0  0  # atno 8009 bound_to 7997
  156.1682  140.1611  156.8481 H   0  0  0  0  0  0  0  0  0  0  0  0  # atno 8010 bound_to 7997
  140.5083  144.0203  150.6361 H   0  0  0  0  0  0  0  0  0  0  0  0  # atno 10167 bound_to 10162
  156.0928  130.6107  150.8969 H   0  0  0  0  0  0  0  0  0  0  0  0  # atno 10718 bound_to 10713
  153.3503  135.3983  155.1640 H   0  0  0  0  0  0  0  0  0  0  0  0  # atno 10763 bound_to 10752
  154.8661  135.3655  154.5231 H   0  0  0  0  0  0  0  0  0  0  0  0  # atno 10764 bound_to 10752
  153.5682  135.7079  153.5576 H   0  0  0  0  0  0  0  0  0  0  0  0  # atno 10765 bound_to 10752
  140.8755  134.1997  157.4624 H   0  0  0  0  0  0  0  0  0  0  0  0  # atno 11005 bound_to 11000
  146.3522  140.1135  142.8603 LP  0  0  0  0  0  0  0  0  0  0  0  0  # atno 17320 bound_to 7965
  145.0767  140.9193  143.4850 LP  0  0  0  0  0  0  0  0  0  0  0  0  # atno 17321 bound_to 7965
  140.3518  143.2958  152.0479 LP  0  0  0  0  0  0  0  0  0  0  0  0  # atno 17342 bound_to 10162
  139.4889  144.6368  151.6959 LP  0  0  0  0  0  0  0  0  0  0  0  0  # atno 17343 bound_to 10162
  157.6082  131.0938  150.8842 LP  0  0  0  0  0  0  0  0  0  0  0  0  # atno 17370 bound_to 10713
  156.8986  130.5238  149.5283 LP  0  0  0  0  0  0  0  0  0  0  0  0  # atno 17371 bound_to 10713
  139.8715  134.9794  156.5034 LP  0  0  0  0  0  0  0  0  0  0  0  0  # atno 17394 bound_to 11000
  140.8523  133.8123  155.9181 LP  0  0  0  0  0  0  0  0  0  0  0  0  # atno 17395 bound_to 11000

$$$$
