AV-unprocessed.smi:527|AV-procd|sdf|2819|dock8
  -GOLD-   2262023303D 1   1.00000     0.00000
 Structure written by MMmdl.
 42 43  0  0  0  0  0  0  0  0  1 V2000
  143.4458  132.8596  151.3380 C   0  0  0  0  0  0  0  0  0  0  0  0
  144.7948  133.0252  150.6083 C   0  0  2  0  0  0  0  0  0  0  0  0
  145.5994  131.7098  150.5980 C   0  0  0  0  0  0  0  0  0  0  0  0
  146.1868  131.3780  151.9786 C   0  0  0  0  0  0  0  0  0  0  0  0
  147.0485  132.5329  152.5072 C   0  0  0  0  0  0  0  0  0  0  0  0
  146.2711  133.8659  152.5368 C   0  0  1  0  0  0  0  0  0  0  0  0
  147.1579  134.9439  152.9714 N   0  0  0  0  0  0  0  0  0  0  0  0
  147.0953  135.5742  154.1537 C   0  0  0  0  0  0  0  0  0  0  0  0
  146.4344  135.1593  155.1083 O   0  0  0  0  0  0  0  0  0  0  0  0
  147.8397  136.6968  154.1410 N   0  0  0  0  0  0  0  0  0  0  0  0
  148.0150  137.5795  155.1457 C   0  0  0  0  0  0  0  0  0  0  0  0
  147.5078  137.4817  156.2661 O   0  0  0  0  0  0  0  0  0  0  0  0
  148.9210  138.7696  154.8021 C   0  0  0  0  0  0  0  0  0  0  0  0
  150.3273  138.4119  154.7238 N   0  0  0  0  0  0  0  0  0  0  0  0
  151.4150  139.1986  155.0823 C   0  0  0  0  0  0  0  0  0  0  0  0
  152.5418  138.4464  154.8381 C   0  0  0  0  0  0  0  0  0  0  0  0
  152.1741  137.2014  154.3330 N   0  0  0  0  0  0  0  0  0  0  0  0
  150.8487  137.2536  154.2956 C   0  0  0  0  0  0  0  0  0  0  0  0
  145.6692  134.1902  151.1448 C   0  0  2  0  0  0  0  0  0  0  0  0
  144.9308  135.5430  151.1080 C   0  0  0  0  0  0  0  0  0  0  0  0
  143.5732  132.6818  152.4053 H   0  0  0  0  0  0  0  0  0  0  0  0
  142.8856  132.0171  150.9317 H   0  0  0  0  0  0  0  0  0  0  0  0
  142.8170  133.7421  151.2229 H   0  0  0  0  0  0  0  0  0  0  0  0
  144.5522  133.2522  149.5692 H   0  0  0  0  0  0  0  0  0  0  0  0
  144.9745  130.8863  150.2507 H   0  0  0  0  0  0  0  0  0  0  0  0
  146.4137  131.7930  149.8771 H   0  0  0  0  0  0  0  0  0  0  0  0
  145.3847  131.1642  152.6853 H   0  0  0  0  0  0  0  0  0  0  0  0
  146.7867  130.4698  151.9161 H   0  0  0  0  0  0  0  0  0  0  0  0
  147.4119  132.2853  153.5054 H   0  0  0  0  0  0  0  0  0  0  0  0
  147.9325  132.6369  151.8763 H   0  0  0  0  0  0  0  0  0  0  0  0
  145.4528  133.7800  153.2538 H   0  0  0  0  0  0  0  0  0  0  0  0
  147.8641  135.2387  152.3131 H   0  0  0  0  0  0  0  0  0  0  0  0
  148.3208  136.9038  153.2784 H   0  0  0  0  0  0  0  0  0  0  0  0
  148.6156  139.1973  153.8461 H   0  0  0  0  0  0  0  0  0  0  0  0
  148.8004  139.5475  155.5572 H   0  0  0  0  0  0  0  0  0  0  0  0
  151.3004  140.1992  155.4723 H   0  0  0  0  0  0  0  0  0  0  0  0
  153.5804  138.7032  154.9859 H   0  0  0  0  0  0  0  0  0  0  0  0
  150.2427  136.4298  153.9484 H   0  0  0  0  0  0  0  0  0  0  0  0
  146.5073  134.2860  150.4520 H   0  0  0  0  0  0  0  0  0  0  0  0
  144.1451  135.5925  151.8623 H   0  0  0  0  0  0  0  0  0  0  0  0
  144.4716  135.7129  150.1339 H   0  0  0  0  0  0  0  0  0  0  0  0
  145.6109  136.3749  151.2910 H   0  0  0  0  0  0  0  0  0  0  0  0
  1  2  1  0  0  0  0
  1 21  1  0  0  0  0
  1 22  1  0  0  0  0
  1 23  1  0  0  0  0
  2 19  1  0  0  0  0
  2  3  1  0  0  0  0
  2 24  1  0  0  0  0
  3  4  1  0  0  0  0
  3 25  1  0  0  0  0
  3 26  1  0  0  0  0
  4  5  1  0  0  0  0
  4 27  1  0  0  0  0
  4 28  1  0  0  0  0
  5  6  1  0  0  0  0
  5 29  1  0  0  0  0
  5 30  1  0  0  0  0
  6  7  1  0  0  0  0
  6 19  1  0  0  0  0
  6 31  1  0  0  0  0
  7  8  1  0  0  0  0
  7 32  1  0  0  0  0
  8  9  2  0  0  0  0
  8 10  1  0  0  0  0
 10 11  1  0  0  0  0
 10 33  1  0  0  0  0
 11 12  2  0  0  0  0
 11 13  1  0  0  0  0
 13 14  1  0  0  0  0
 13 34  1  0  0  0  0
 13 35  1  0  0  0  0
 14 18  1  0  0  0  0
 14 15  1  0  0  0  0
 15 16  2  0  0  0  0
 15 36  1  0  0  0  0
 16 17  1  0  0  0  0
 16 37  1  0  0  0  0
 17 18  2  0  0  0  0
 18 38  1  0  0  0  0
 19 20  1  0  0  0  0
 19 39  1  0  0  0  0
 20 40  1  0  0  0  0
 20 41  1  0  0  0  0
 20 42  1  0  0  0  0
M  END
> <s_m_source_file>
AV-unprocessed.smi

> <i_m_source_file_index>
527

> <i_lp_mmshare_version>
43012

> <i_f3d_flags>
0

> <s_epik_input>
W0NIM11bQ0BASF0xW0NIMl1bQ0gyXVtDSDJdW0NASF0oW0NASF0xW0NIM10pW05IXUMoPU8pW05IXUMoPU8pW0NIMl1uMltjSF1bY0hdbltjSF0y

> <s_epik_cmdline>
J2VwaWtfcHl0aG9uJywgJy1waCcsICc3LjAnLCAnLXRuJywgJzgnLCAnLW1hJywgJzIwMCcsICctbWV0YWxfYmluZGluZycsICctaW1hZScsICc8aW5maWxlLm1hZT4nLCAnLW9tYWUnLCAnPG91dGZpbGUubWFlPic=

> <r_lp_tautomer_probability>
1

> <r_epik_Ionization_Penalty>
0.172132

> <r_epik_Ionization_Penalty_Charging>
0.172105

> <r_epik_Ionization_Penalty_Neutral>
2.71747e-05

> <r_epik_State_Penalty>
0.161503

> <r_epik_Charging_Adjusted_Penalty>
0.333607

> <i_epik_Tot_Q>
0

> <i_epik_Tot_abs_Q>
0

> <r_epik_Metal_State_Penalty>
0.124763

> <b_epik_Metal_Only>
0

> <s_lp_Force_Field>
OPLS_2005

> <r_lp_Energy>
17.7357

> <b_lp_Chiralities_Consistent>
1

> <s_lp_Variant>
AV-unprocessed.smi:527-5

> <Gold.Version>
5.8.1

> <Gold.Id.Protein>
6NUR|6NUR_protein|mol2

> <Gold.PLP.Fitness>
45.0499

> <Gold.PLP.PLP>
-34.9453

> <Gold.PLP.part.hbond>
-2.7989

> <Gold.PLP.part.metal>
0.0000

> <Gold.PLP.part.buried>
-3.6623

> <Gold.PLP.part.nonpolar>
-29.5670

> <Gold.PLP.part.repulsive>
0.1708

> <Gold.PLP.ligand.clash>
0.0000

> <Gold.PLP.ligand.torsion>
0.6436

> <Gold.PLP.Chemscore.Hbond>
2.8153

> <Gold.PLP.Chemscore.CHOScore>
0.9779

> <Gold.PLP.Chemscore.Metal>
0.0000

> <Gold.Chemscore.Hbonds>
donor molecule, donor type, donor heavy atom, donor atom, acceptor molecule, acceptor atom, score
      L1  H     7    32       P1  7948  0.94
      L1  H    10    33       P1  7948  0.90
      P1  H 10752 10765       L1    17  0.86
      L1  C    18    38       P1  7948  0.74
      L1  C    18    38       P1  7949  0.07

> <Gold.PLP.Chemscore.Internal.Correction>
0.0124

> <Gold.Rescore>
     Score         DG    S(hbond)    S(metal)    S(lipo)     H(rot)  DE(clash)    DE(int)     intcor
     16.66     -19.23       2.84        0.00      72.73       1.66       0.00       2.57       ----

> <Gold.Chemscore.Fitness>
16.6561

> <Gold.Chemscore.DG>
-19.2276

> <Gold.Chemscore.ZeroCoef>
-5.4800

> <Gold.Chemscore.Hbond>
2.8427

> <Gold.Chemscore.Metal>
0.0000

> <Gold.Chemscore.Lipo>
72.7349

> <Gold.Chemscore.Internal_Hbond>
0.0000

> <Gold.Chemscore.DEClash>
0.0000

> <Gold.Chemscore.DEInternal>
2.5715

> <Gold.Chemscore.Rot>
1.6629

> <Gold.Chemscore.Internal.Correction>
   9.000000E+99

> <Gold.Chemscore.Hbonds>
donor molecule, donor type, donor heavy atom, donor atom, acceptor molecule, acceptor atom, score
      L1  H     7    32       P1  7948  0.85
      L1  H    10    33       P1  7948  0.88
      P1  H 10752 10765       L1    17  0.84

> <Gold.Chemscore.Hbond.Weighted>
-9.4945

> <Gold.Chemscore.Metal.Weighted>
-0.0000

> <Gold.Chemscore.Lipo.Weighted>
-8.5100

> <Gold.Chemscore.Internal_Hbond.Weighted>
0.0000

> <Gold.Chemscore.DEClash.Weighted>
0.0000

> <Gold.Chemscore.DEInternal.Weighted>
2.5715

> <Gold.Chemscore.Rot.Weighted>
4.2569

> <Gold.Chemscore.Internal.Correction.Weighted>
   9.000000E+99

> <Gold.Protein.RotatedTorsions>
[ 6907 6896 6895 6894 ] final   57.93 input  -60.11 | X-H torsion
[ 7974 7965 7964 7962 ] final -111.08 input  175.53 | X-H torsion
[ 8008 7997 7996 7995 ] final  133.56 input   59.86 | X-H torsion
[ 10167 10162 10161 10158 ] final  117.76 input  -65.29 | X-H torsion
[ 10718 10713 10712 10709 ] final  -36.95 input   66.30 | X-H torsion
[ 10763 10752 10751 10750 ] final  165.20 input  -60.55 | X-H torsion
[ 11005 11000 10999 10996 ] final  -31.70 input  -57.11 | X-H torsion

> <Gold.Protein.ActiveResidues>
 VAL166  LYS551  ARG553  GLY616  TRP617  ASP618  TYR619  PRO620  LYS621  CYS622 
 ASP623  PHE694  ASN695  SER759  ASP760  ASP761  ALA762  ILE779  LEU786  VAL792 
 PHE793  MET794  SER795  GLU796  ALA797  LYS798  CYS799  TRP800  GLU811  SER814 

> <Gold.Protein.RotatedAtoms>
  152.3777  134.6638  160.0153 H   0  0  0  0  0  0  0  0  0  0  0  0  # atno 6907 bound_to 6896
  151.6912  133.3305  159.3251 H   0  0  0  0  0  0  0  0  0  0  0  0  # atno 6908 bound_to 6896
  150.7722  134.6633  159.6396 H   0  0  0  0  0  0  0  0  0  0  0  0  # atno 6909 bound_to 6896
  145.1604  140.8875  143.3594 H   0  0  0  0  0  0  0  0  0  0  0  0  # atno 7974 bound_to 7965
  156.2993  140.2518  156.3274 H   0  0  0  0  0  0  0  0  0  0  0  0  # atno 8008 bound_to 7997
  154.9178  140.0401  157.2000 H   0  0  0  0  0  0  0  0  0  0  0  0  # atno 8009 bound_to 7997
  154.8341  140.2880  155.5707 H   0  0  0  0  0  0  0  0  0  0  0  0  # atno 8010 bound_to 7997
  139.6157  144.7091  151.2745 H   0  0  0  0  0  0  0  0  0  0  0  0  # atno 10167 bound_to 10162
  156.3209  130.4265  149.7961 H   0  0  0  0  0  0  0  0  0  0  0  0  # atno 10718 bound_to 10713
  154.3205  135.2756  155.2522 H   0  0  0  0  0  0  0  0  0  0  0  0  # atno 10763 bound_to 10752
  154.4877  135.5841  153.6440 H   0  0  0  0  0  0  0  0  0  0  0  0  # atno 10764 bound_to 10752
  152.9877  135.6127  154.3389 H   0  0  0  0  0  0  0  0  0  0  0  0  # atno 10765 bound_to 10752
  140.9490  133.7232  156.1191 H   0  0  0  0  0  0  0  0  0  0  0  0  # atno 11005 bound_to 11000
  145.0337  139.3319  143.6012 LP  0  0  0  0  0  0  0  0  0  0  0  0  # atno 17320 bound_to 7965
  146.3483  139.9684  142.8709 LP  0  0  0  0  0  0  0  0  0  0  0  0  # atno 17321 bound_to 7965
  140.7349  143.6752  150.8047 LP  0  0  0  0  0  0  0  0  0  0  0  0  # atno 17342 bound_to 10162
  140.0355  143.5400  152.2741 LP  0  0  0  0  0  0  0  0  0  0  0  0  # atno 17343 bound_to 10162
  156.5270  130.8240  151.3223 LP  0  0  0  0  0  0  0  0  0  0  0  0  # atno 17370 bound_to 10713
  157.7411  130.9864  150.2425 LP  0  0  0  0  0  0  0  0  0  0  0  0  # atno 17371 bound_to 10713
  140.7629  134.3919  157.5522 LP  0  0  0  0  0  0  0  0  0  0  0  0  # atno 17394 bound_to 11000
  139.8842  134.8973  156.2720 LP  0  0  0  0  0  0  0  0  0  0  0  0  # atno 17395 bound_to 11000

$$$$
