AV-unprocessed.smi:247|AV-procd|sdf|1888|dock3
  -GOLD-   2262020543D 1   1.00000     0.00000
 Structure written by MMmdl.
 61 65  0  0  0  0  0  0  0  0  1 V2000
  143.8354  136.8223  163.0006 O   0  0  0  0  0  0  0  0  0  0  0  0
  144.3081  136.7822  161.6685 C   0  0  0  0  0  0  0  0  0  0  0  0
  145.7355  136.1817  161.5358 C   0  0  0  0  0  0  0  0  0  0  0  0
  146.0209  135.9189  160.0233 C   0  0  0  0  0  0  0  0  0  0  0  0
  146.2186  137.1137  159.2141 N   0  0  0  0  0  0  0  0  0  0  0  0
  145.2515  138.0146  158.8247 C   0  0  0  0  0  0  0  0  0  0  0  0
  145.6772  139.0168  158.1056 N   0  0  0  0  0  0  0  0  0  0  0  0
  147.0452  138.8023  158.0107 C   0  0  0  0  0  0  0  0  0  0  0  0
  148.1106  139.5049  157.3917 C   0  0  0  0  0  0  0  0  0  0  0  0
  147.9012  140.6525  156.7094 N   0  0  0  0  0  0  0  0  0  0  0  0
  147.1444  140.5015  155.4710 C   0  0  0  0  0  0  0  0  0  0  0  0
  147.7289  141.5089  154.4705 C   0  0  0  0  0  0  0  0  0  0  0  0
  148.6121  142.4206  155.3200 C   0  0  0  0  0  0  0  0  0  0  0  0
  149.0754  141.4719  156.4286 C   0  0  1  0  0  0  0  0  0  0  0  0
  149.6904  142.1273  157.6958 C   0  0  2  0  0  0  0  0  0  0  0  0
  148.8762  143.3325  158.2241 C   0  0  0  0  0  0  0  0  0  0  0  0
  149.4532  143.8309  159.4259 O   0  0  0  0  0  0  0  0  0  0  0  0
  150.7695  144.3377  159.2395 C   0  0  0  0  0  0  0  0  0  0  0  0
  151.6978  143.2041  158.7803 C   0  0  0  0  0  0  0  0  0  0  0  0
  151.1605  142.5537  157.4974 C   0  0  1  0  0  0  0  0  0  0  0  0
  151.9704  141.4374  157.1862 O   0  0  0  0  0  0  0  0  0  0  0  0
  149.3650  138.9958  157.5110 N   0  0  0  0  0  0  0  0  0  0  0  0
  149.5624  137.8673  158.1998 C   0  0  0  0  0  0  0  0  0  0  0  0
  148.6654  137.1068  158.8325 N   0  0  0  0  0  0  0  0  0  0  0  0
  147.4058  137.6163  158.7079 C   0  0  0  0  0  0  0  0  0  0  0  0
  146.7724  137.1476  162.1657 C   0  0  0  0  0  0  0  0  0  0  0  0
  148.1711  136.5143  162.2725 C   0  0  0  0  0  0  0  0  0  0  0  0
  148.0993  135.3148  163.0335 O   0  0  0  0  0  0  0  0  0  0  0  0
  147.2740  134.3231  162.4345 C   0  0  0  0  0  0  0  0  0  0  0  0
  145.8273  134.8393  162.3074 C   0  0  0  0  0  0  0  0  0  0  0  0
  143.6849  137.7243  163.2389 H   0  0  0  0  0  0  0  0  0  0  0  0
  143.5969  136.2053  161.0765 H   0  0  0  0  0  0  0  0  0  0  0  0
  144.2814  137.8032  161.2885 H   0  0  0  0  0  0  0  0  0  0  0  0
  146.9014  135.2932  159.8872 H   0  0  0  0  0  0  0  0  0  0  0  0
  145.1974  135.3524  159.5867 H   0  0  0  0  0  0  0  0  0  0  0  0
  144.2098  137.9022  159.0874 H   0  0  0  0  0  0  0  0  0  0  0  0
  147.1822  139.4860  155.0736 H   0  0  0  0  0  0  0  0  0  0  0  0
  146.0998  140.7356  155.6775 H   0  0  0  0  0  0  0  0  0  0  0  0
  148.3434  140.9822  153.7392 H   0  0  0  0  0  0  0  0  0  0  0  0
  146.9587  142.0567  153.9267 H   0  0  0  0  0  0  0  0  0  0  0  0
  149.4386  142.8516  154.7541 H   0  0  0  0  0  0  0  0  0  0  0  0
  148.0102  143.2366  155.7188 H   0  0  0  0  0  0  0  0  0  0  0  0
  149.8319  140.8194  155.9896 H   0  0  0  0  0  0  0  0  0  0  0  0
  149.6817  141.3737  158.4852 H   0  0  0  0  0  0  0  0  0  0  0  0
  148.8236  144.1373  157.4906 H   0  0  0  0  0  0  0  0  0  0  0  0
  147.8504  143.0372  158.4417 H   0  0  0  0  0  0  0  0  0  0  0  0
  150.7605  145.1534  158.5149 H   0  0  0  0  0  0  0  0  0  0  0  0
  151.1236  144.7532  160.1831 H   0  0  0  0  0  0  0  0  0  0  0  0
  152.7058  143.5877  158.6183 H   0  0  0  0  0  0  0  0  0  0  0  0
  151.7700  142.4594  159.5744 H   0  0  0  0  0  0  0  0  0  0  0  0
  151.2332  143.2686  156.6770 H   0  0  0  0  0  0  0  0  0  0  0  0
  151.5097  140.6513  157.4374 H   0  0  0  0  0  0  0  0  0  0  0  0
  150.5856  137.5256  158.2525 H   0  0  0  0  0  0  0  0  0  0  0  0
  146.8220  138.0876  161.6177 H   0  0  0  0  0  0  0  0  0  0  0  0
  146.4601  137.4188  163.1746 H   0  0  0  0  0  0  0  0  0  0  0  0
  148.6000  136.3132  161.2906 H   0  0  0  0  0  0  0  0  0  0  0  0
  148.8510  137.2031  162.7741 H   0  0  0  0  0  0  0  0  0  0  0  0
  147.6850  134.0246  161.4701 H   0  0  0  0  0  0  0  0  0  0  0  0
  147.2929  133.4334  163.0639 H   0  0  0  0  0  0  0  0  0  0  0  0
  145.4372  134.9582  163.3185 H   0  0  0  0  0  0  0  0  0  0  0  0
  145.2018  134.0823  161.8330 H   0  0  0  0  0  0  0  0  0  0  0  0
  1  2  1  0  0  0  0
  1 31  1  0  0  0  0
  2  3  1  0  0  0  0
  2 32  1  0  0  0  0
  2 33  1  0  0  0  0
  3 30  1  0  0  0  0
  3  4  1  0  0  0  0
  3 26  1  0  0  0  0
  4  5  1  0  0  0  0
  4 34  1  0  0  0  0
  4 35  1  0  0  0  0
  5 25  1  0  0  0  0
  5  6  1  0  0  0  0
  6  7  2  0  0  0  0
  6 36  1  0  0  0  0
  7  8  1  0  0  0  0
  8 25  2  0  0  0  0
  8  9  1  0  0  0  0
  9 10  1  0  0  0  0
  9 22  2  0  0  0  0
 10 14  1  0  0  0  0
 10 11  1  0  0  0  0
 11 12  1  0  0  0  0
 11 37  1  0  0  0  0
 11 38  1  0  0  0  0
 12 13  1  0  0  0  0
 12 39  1  0  0  0  0
 12 40  1  0  0  0  0
 13 14  1  0  0  0  0
 13 41  1  0  0  0  0
 13 42  1  0  0  0  0
 14 15  1  0  0  0  0
 14 43  1  0  0  0  0
 15 20  1  0  0  0  0
 15 16  1  0  0  0  0
 15 44  1  0  0  0  0
 16 17  1  0  0  0  0
 16 45  1  0  0  0  0
 16 46  1  0  0  0  0
 17 18  1  0  0  0  0
 18 19  1  0  0  0  0
 18 47  1  0  0  0  0
 18 48  1  0  0  0  0
 19 20  1  0  0  0  0
 19 49  1  0  0  0  0
 19 50  1  0  0  0  0
 20 21  1  0  0  0  0
 20 51  1  0  0  0  0
 21 52  1  0  0  0  0
 22 23  1  0  0  0  0
 23 24  2  0  0  0  0
 23 53  1  0  0  0  0
 24 25  1  0  0  0  0
 26 27  1  0  0  0  0
 26 54  1  0  0  0  0
 26 55  1  0  0  0  0
 27 28  1  0  0  0  0
 27 56  1  0  0  0  0
 27 57  1  0  0  0  0
 28 29  1  0  0  0  0
 29 30  1  0  0  0  0
 29 58  1  0  0  0  0
 29 59  1  0  0  0  0
 30 60  1  0  0  0  0
 30 61  1  0  0  0  0
M  END
> <s_m_source_file>
AV-unprocessed.smi

> <i_m_source_file_index>
247

> <i_lp_mmshare_version>
43012

> <i_f3d_flags>
0

> <s_epik_input>
W0NIMl0xW0NIMl1PW0NIMl1bQ0gyXUMxKFtDSDJdW09IXSlbQ0gyXW4oW2NIXW4yKWMoYzIzKW5bY0hdbmMzTjRbQ0gyXVtDSDJdW0NIMl1bQ0BIXTRbQ0BASF01W0NIMl1PW0NIMl1bQ0gyXVtDQEhdNVtPSF0=

> <s_epik_cmdline>
J2VwaWtfcHl0aG9uJywgJy1waCcsICc3LjAnLCAnLXRuJywgJzgnLCAnLW1hJywgJzIwMCcsICctbWV0YWxfYmluZGluZycsICctaW1hZScsICc8aW5maWxlLm1hZT4nLCAnLW9tYWUnLCAnPG91dGZpbGUubWFlPic=

> <r_lp_tautomer_probability>
1

> <r_epik_Ionization_Penalty>
0.00362597

> <r_epik_Ionization_Penalty_Charging>
0

> <r_epik_Ionization_Penalty_Neutral>
0.00362597

> <r_epik_State_Penalty>
0.00241433

> <r_epik_Charging_Adjusted_Penalty>
0.00241433

> <i_epik_Tot_Q>
0

> <i_epik_Tot_abs_Q>
0

> <r_epik_Metal_State_Penalty>
-0

> <b_epik_Metal_Only>
0

> <s_lp_Force_Field>
OPLS_2005

> <r_lp_Energy>
58.6296

> <b_lp_Chiralities_Consistent>
1

> <s_lp_Variant>
AV-unprocessed.smi:247-1

> <Gold.Version>
5.8.1

> <Gold.Id.Protein>
6NUR|6NUR_protein|mol2

> <Gold.PLP.Fitness>
45.6780

> <Gold.PLP.PLP>
-44.3752

> <Gold.PLP.part.hbond>
-3.8492

> <Gold.PLP.part.metal>
0.0000

> <Gold.PLP.part.buried>
-5.8337

> <Gold.PLP.part.nonpolar>
-34.3019

> <Gold.PLP.part.repulsive>
0.0518

> <Gold.PLP.ligand.clash>
0.0000

> <Gold.PLP.ligand.torsion>
0.8859

> <Gold.PLP.Chemscore.Hbond>
0.9600

> <Gold.PLP.Chemscore.CHOScore>
0.0000

> <Gold.PLP.Chemscore.Metal>
0.0000

> <Gold.PLP.Chemscore.Internal.Correction>
0.1946

> <Gold.Rescore>
     Score         DG    S(hbond)    S(metal)    S(lipo)     H(rot)  DE(clash)    DE(int)     intcor
     11.79     -12.98       0.90        0.00     109.08       3.23       0.12       1.08       ----

> <Gold.Chemscore.Fitness>
11.7917

> <Gold.Chemscore.DG>
-12.9842

> <Gold.Chemscore.ZeroCoef>
-5.4800

> <Gold.Chemscore.Hbond>
0.8998

> <Gold.Chemscore.Metal>
0.0000

> <Gold.Chemscore.Lipo>
109.0791

> <Gold.Chemscore.Internal_Hbond>
0.0000

> <Gold.Chemscore.DEClash>
0.1153

> <Gold.Chemscore.DEInternal>
1.0773

> <Gold.Chemscore.Rot>
3.2278

> <Gold.Chemscore.Internal.Correction>
   9.000000E+99

> <Gold.Chemscore.Hbond.Weighted>
-3.0052

> <Gold.Chemscore.Metal.Weighted>
-0.0000

> <Gold.Chemscore.Lipo.Weighted>
-12.7623

> <Gold.Chemscore.Internal_Hbond.Weighted>
0.0000

> <Gold.Chemscore.DEClash.Weighted>
0.1153

> <Gold.Chemscore.DEInternal.Weighted>
1.0773

> <Gold.Chemscore.Rot.Weighted>
8.2633

> <Gold.Chemscore.Internal.Correction.Weighted>
   9.000000E+99

> <Gold.Protein.RotatedTorsions>
[ 6907 6896 6895 6894 ] final  -90.61 input  -60.11 | X-H torsion
[ 7974 7965 7964 7962 ] final  -39.88 input  175.53 | X-H torsion
[ 8008 7997 7996 7995 ] final  135.20 input   59.86 | X-H torsion
[ 10167 10162 10161 10158 ] final  -88.72 input  -65.29 | X-H torsion
[ 10718 10713 10712 10709 ] final  105.89 input   66.30 | X-H torsion
[ 10763 10752 10751 10750 ] final   76.56 input  -60.55 | X-H torsion
[ 11005 11000 10999 10996 ] final   82.87 input  -57.11 | X-H torsion

> <Gold.Protein.ActiveResidues>
 VAL166  LYS551  ARG553  GLY616  TRP617  ASP618  TYR619  PRO620  LYS621  CYS622 
 ASP623  PHE694  ASN695  SER759  ASP760  ASP761  ALA762  ILE779  LEU786  VAL792 
 PHE793  MET794  SER795  GLU796  ALA797  LYS798  CYS799  TRP800  GLU811  SER814 

> <Gold.Protein.RotatedAtoms>
  150.6883  134.2405  159.4470 H   0  0  0  0  0  0  0  0  0  0  0  0  # atno 6907 bound_to 6896
  152.0349  134.9743  160.0582 H   0  0  0  0  0  0  0  0  0  0  0  0  # atno 6908 bound_to 6896
  152.1268  133.4350  159.4738 H   0  0  0  0  0  0  0  0  0  0  0  0  # atno 6909 bound_to 6896
  146.0356  140.6675  142.9112 H   0  0  0  0  0  0  0  0  0  0  0  0  # atno 7974 bound_to 7965
  156.3002  140.2476  156.3543 H   0  0  0  0  0  0  0  0  0  0  0  0  # atno 8008 bound_to 7997
  154.8937  140.0408  157.1872 H   0  0  0  0  0  0  0  0  0  0  0  0  # atno 8009 bound_to 7997
  154.8572  140.2915  155.5565 H   0  0  0  0  0  0  0  0  0  0  0  0  # atno 8010 bound_to 7997
  140.3719  143.2790  151.9490 H   0  0  0  0  0  0  0  0  0  0  0  0  # atno 10167 bound_to 10162
  157.6689  131.0838  150.5925 H   0  0  0  0  0  0  0  0  0  0  0  0  # atno 10718 bound_to 10713
  153.0734  135.4947  154.8353 H   0  0  0  0  0  0  0  0  0  0  0  0  # atno 10763 bound_to 10752
  154.7054  135.3009  154.9280 H   0  0  0  0  0  0  0  0  0  0  0  0  # atno 10764 bound_to 10752
  153.9991  135.6768  153.4811 H   0  0  0  0  0  0  0  0  0  0  0  0  # atno 10765 bound_to 10752
  139.9049  134.8103  156.2233 H   0  0  0  0  0  0  0  0  0  0  0  0  # atno 11005 bound_to 11000
  144.7050  140.3814  143.7125 LP  0  0  0  0  0  0  0  0  0  0  0  0  # atno 17320 bound_to 7965
  145.6969  139.1652  143.2615 LP  0  0  0  0  0  0  0  0  0  0  0  0  # atno 17321 bound_to 7965
  139.4803  144.5899  151.7790 LP  0  0  0  0  0  0  0  0  0  0  0  0  # atno 17342 bound_to 10162
  140.5025  144.1148  150.5974 LP  0  0  0  0  0  0  0  0  0  0  0  0  # atno 17343 bound_to 10162
  156.6225  130.4410  149.5817 LP  0  0  0  0  0  0  0  0  0  0  0  0  # atno 17370 bound_to 10713
  156.2344  130.6814  151.1495 LP  0  0  0  0  0  0  0  0  0  0  0  0  # atno 17371 bound_to 10713
  141.0392  133.6947  156.1567 LP  0  0  0  0  0  0  0  0  0  0  0  0  # atno 17394 bound_to 11000
  140.6981  134.4593  157.5587 LP  0  0  0  0  0  0  0  0  0  0  0  0  # atno 17395 bound_to 11000

$$$$
