AV-unprocessed.smi:1912|AV-procd|sdf|7751|dock2
  -GOLD-   22720 9493D 1   1.00000     0.00000
 Structure written by MMmdl.
 44 46  0  0  0  0  0  0  0  0  2 V2000
  155.1121  139.9363  162.0028 C   0  0  0  0  0  0  0  0  0  0  0  0
  154.1851  139.5365  161.0038 O   0  0  0  0  0  0  0  0  0  0  0  0
  153.5728  140.5199  160.2571 C   0  0  0  0  0  0  0  0  0  0  0  0
  153.8384  141.9026  160.3907 C   0  0  0  0  0  0  0  0  0  0  0  0
  153.1548  142.8399  159.5949 C   0  0  0  0  0  0  0  0  0  0  0  0
  152.1871  142.4215  158.6481 C   0  0  0  0  0  0  0  0  0  0  0  0
  151.4678  143.2978  157.8610 O   0  0  0  0  0  0  0  0  0  0  0  0
  151.7027  144.6904  158.0093 C   0  0  0  0  0  0  0  0  0  0  0  0
  151.9245  141.0373  158.5057 C   0  0  0  0  0  0  0  0  0  0  0  0
  150.8654  140.5560  157.5145 C   0  0  1  0  0  0  0  0  0  0  0  0
  149.5798  141.0866  157.7736 O   0  0  0  0  0  0  0  0  0  0  0  0
  151.2613  140.8274  156.0444 C   0  0  0  0  0  0  0  0  0  0  0  0
  150.4528  140.0825  155.0601 N   0  0  0  0  0  0  0  0  0  0  0  0
  150.6796  138.8759  154.4622 C   0  0  0  0  0  0  0  0  0  0  0  0
  151.8563  137.9776  154.6544 C   0  0  0  0  0  0  0  0  0  0  0  0
  149.6174  138.6220  153.6479 N   0  3  0  0  0  0  0  0  0  0  0  0
  148.7055  139.6747  153.7166 C   0  0  0  0  0  0  0  0  0  0  0  0
  147.4831  139.8612  153.0784 C   0  0  0  0  0  0  0  0  0  0  0  0
  146.7931  141.0560  153.3696 C   0  0  0  0  0  0  0  0  0  0  0  0
  147.3246  142.0117  154.2592 C   0  0  0  0  0  0  0  0  0  0  0  0
  148.5670  141.8128  154.8960 C   0  0  0  0  0  0  0  0  0  0  0  0
  149.2400  140.6238  154.6117 C   0  0  0  0  0  0  0  0  0  0  0  0
  152.6195  140.1044  159.3089 C   0  0  0  0  0  0  0  0  0  0  0  0
  155.5067  139.0514  162.5019 H   0  0  0  0  0  0  0  0  0  0  0  0
  154.6364  140.5584  162.7623 H   0  0  0  0  0  0  0  0  0  0  0  0
  155.9566  140.4752  161.5712 H   0  0  0  0  0  0  0  0  0  0  0  0
  154.5609  142.2730  161.1019 H   0  0  0  0  0  0  0  0  0  0  0  0
  153.3895  143.8834  159.7386 H   0  0  0  0  0  0  0  0  0  0  0  0
  151.0642  145.2374  157.3160 H   0  0  0  0  0  0  0  0  0  0  0  0
  152.7372  144.9467  157.7761 H   0  0  0  0  0  0  0  0  0  0  0  0
  151.4625  145.0317  159.0171 H   0  0  0  0  0  0  0  0  0  0  0  0
  150.7548  139.4784  157.6383 H   0  0  0  0  0  0  0  0  0  0  0  0
  149.2678  141.5095  156.9879 H   0  0  0  0  0  0  0  0  0  0  0  0
  151.2142  141.8925  155.8171 H   0  0  0  0  0  0  0  0  0  0  0  0
  152.3020  140.5427  155.8878 H   0  0  0  0  0  0  0  0  0  0  0  0
  152.0007  137.3483  153.7760 H   0  0  0  0  0  0  0  0  0  0  0  0
  151.6985  137.3326  155.5186 H   0  0  0  0  0  0  0  0  0  0  0  0
  152.7651  138.5578  154.8118 H   0  0  0  0  0  0  0  0  0  0  0  0
  147.0754  139.1308  152.3954 H   0  0  0  0  0  0  0  0  0  0  0  0
  145.8381  141.2431  152.9006 H   0  0  0  0  0  0  0  0  0  0  0  0
  146.7678  142.9158  154.4589 H   0  0  0  0  0  0  0  0  0  0  0  0
  148.9592  142.5512  155.5787 H   0  0  0  0  0  0  0  0  0  0  0  0
  152.4088  139.0490  159.2162 H   0  0  0  0  0  0  0  0  0  0  0  0
  149.5250  137.7850  153.0869 H   0  0  0  0  0  0  0  0  0  0  0  0
  1  2  1  0  0  0  0
  1 24  1  0  0  0  0
  1 25  1  0  0  0  0
  1 26  1  0  0  0  0
  2  3  1  0  0  0  0
  3 23  1  0  0  0  0
  3  4  2  0  0  0  0
  4  5  1  0  0  0  0
  4 27  1  0  0  0  0
  5  6  2  0  0  0  0
  5 28  1  0  0  0  0
  6  7  1  0  0  0  0
  6  9  1  0  0  0  0
  7  8  1  0  0  0  0
  8 29  1  0  0  0  0
  8 30  1  0  0  0  0
  8 31  1  0  0  0  0
  9 10  1  0  0  0  0
  9 23  2  0  0  0  0
 10 11  1  0  0  0  0
 10 12  1  0  0  0  0
 10 32  1  0  0  0  0
 11 33  1  0  0  0  0
 12 13  1  0  0  0  0
 12 34  1  0  0  0  0
 12 35  1  0  0  0  0
 13 22  1  0  0  0  0
 13 14  1  0  0  0  0
 14 15  1  0  0  0  0
 14 16  2  0  0  0  0
 15 36  1  0  0  0  0
 15 37  1  0  0  0  0
 15 38  1  0  0  0  0
 16 17  1  0  0  0  0
 16 44  1  0  0  0  0
 17 22  2  0  0  0  0
 17 18  1  0  0  0  0
 18 19  2  0  0  0  0
 18 39  1  0  0  0  0
 19 20  1  0  0  0  0
 19 40  1  0  0  0  0
 20 21  2  0  0  0  0
 20 41  1  0  0  0  0
 21 22  1  0  0  0  0
 21 42  1  0  0  0  0
 23 43  1  0  0  0  0
M  CHG  1  16   1
M  END
> <s_m_source_file>
AV-unprocessed.smi

> <i_m_source_file_index>
1912

> <i_lp_mmshare_version>
43012

> <i_f3d_flags>
0

> <s_epik_input>
W0NIM11PYzFbY0hdW2NIXWMoT1tDSDNdKWMoW2NIXTEpW0NASF0oW09IXSlbQ0gyXW4oYyhuMilbQ0gzXSljKGMyMylbY0hdW2NIXVtjSF1bY0hdMw==

> <s_epik_cmdline>
J2VwaWtfcHl0aG9uJywgJy1waCcsICc3LjAnLCAnLXRuJywgJzgnLCAnLW1hJywgJzIwMCcsICctbWV0YWxfYmluZGluZycsICctaW1hZScsICc8aW5maWxlLm1hZT4nLCAnLW9tYWUnLCAnPG91dGZpbGUubWFlPic=

> <r_lp_tautomer_probability>
1

> <r_epik_Ionization_Penalty>
0.963869

> <r_epik_Ionization_Penalty_Charging>
0.963868

> <r_epik_Ionization_Penalty_Neutral>
1.34362e-06

> <r_epik_State_Penalty>
1.00924

> <r_epik_Charging_Adjusted_Penalty>
1.9731

> <i_epik_Tot_Q>
1

> <i_epik_Tot_abs_Q>
1

> <r_epik_Metal_State_Penalty>
4.98304

> <b_epik_Metal_Only>
0

> <s_lp_Force_Field>
OPLS_2005

> <r_lp_Energy>
21.1539

> <b_lp_Chiralities_Consistent>
1

> <s_lp_Variant>
AV-unprocessed.smi:1912-4

> <Gold.Version>
5.8.1

> <Gold.Id.Protein>
6NUR|6NUR_protein|mol2

> <Gold.PLP.Fitness>
55.8585

> <Gold.PLP.PLP>
-50.6594

> <Gold.PLP.part.hbond>
-2.0000

> <Gold.PLP.part.metal>
0.0000

> <Gold.PLP.part.buried>
1.0250

> <Gold.PLP.part.nonpolar>
-49.8131

> <Gold.PLP.part.repulsive>
0.1712

> <Gold.PLP.ligand.clash>
0.0000

> <Gold.PLP.ligand.torsion>
0.4748

> <Gold.PLP.Chemscore.Hbond>
2.0000

> <Gold.PLP.Chemscore.CHOScore>
0.0000

> <Gold.PLP.Chemscore.Metal>
0.0000

> <Gold.Chemscore.Hbonds>
donor molecule, donor type, donor heavy atom, donor atom, acceptor molecule, acceptor atom, score
      L1  H    16    44       P1  7948  2.00

> <Gold.PLP.Chemscore.Internal.Correction>
0.1486

> <Gold.Rescore>
     Score         DG    S(hbond)    S(metal)    S(lipo)     H(rot)  DE(clash)    DE(int)     intcor
     17.81     -18.62       0.93        0.00     134.95       2.24       0.28       0.52       ----

> <Gold.Chemscore.Fitness>
17.8132

> <Gold.Chemscore.DG>
-18.6193

> <Gold.Chemscore.ZeroCoef>
-5.4800

> <Gold.Chemscore.Hbond>
0.9273

> <Gold.Chemscore.Metal>
0.0000

> <Gold.Chemscore.Lipo>
134.9461

> <Gold.Chemscore.Internal_Hbond>
0.0000

> <Gold.Chemscore.DEClash>
0.2819

> <Gold.Chemscore.DEInternal>
0.5242

> <Gold.Chemscore.Rot>
2.2448

> <Gold.Chemscore.Internal.Correction>
   9.000000E+99

> <Gold.Chemscore.Hbonds>
donor molecule, donor type, donor heavy atom, donor atom, acceptor molecule, acceptor atom, score
      L1  H    16    44       P1  7948  0.81

> <Gold.Chemscore.Hbond.Weighted>
-3.0973

> <Gold.Chemscore.Metal.Weighted>
-0.0000

> <Gold.Chemscore.Lipo.Weighted>
-15.7887

> <Gold.Chemscore.Internal_Hbond.Weighted>
0.0000

> <Gold.Chemscore.DEClash.Weighted>
0.2819

> <Gold.Chemscore.DEInternal.Weighted>
0.5242

> <Gold.Chemscore.Rot.Weighted>
5.7467

> <Gold.Chemscore.Internal.Correction.Weighted>
   9.000000E+99

> <Gold.Protein.RotatedTorsions>
[ 6907 6896 6895 6894 ] final   20.26 input  -60.11 | X-H torsion
[ 7974 7965 7964 7962 ] final   39.38 input  175.53 | X-H torsion
[ 8008 7997 7996 7995 ] final   94.20 input   59.86 | X-H torsion
[ 10167 10162 10161 10158 ] final  -33.15 input  -65.29 | X-H torsion
[ 10718 10713 10712 10709 ] final  -86.61 input   66.30 | X-H torsion
[ 10763 10752 10751 10750 ] final   79.26 input  -60.55 | X-H torsion
[ 11005 11000 10999 10996 ] final   17.03 input  -57.11 | X-H torsion

> <Gold.Protein.ActiveResidues>
 VAL166  LYS551  ARG553  GLY616  TRP617  ASP618  TYR619  PRO620  LYS621  CYS622 
 ASP623  PHE694  ASN695  SER759  ASP760  ASP761  ALA762  ILE779  LEU786  VAL792 
 PHE793  MET794  SER795  GLU796  ALA797  LYS798  CYS799  TRP800  GLU811  SER814 

> <Gold.Protein.RotatedAtoms>
  151.8936  135.0406  160.0499 H   0  0  0  0  0  0  0  0  0  0  0  0  # atno 6907 bound_to 6896
  152.2416  133.5135  159.5281 H   0  0  0  0  0  0  0  0  0  0  0  0  # atno 6908 bound_to 6896
  150.7055  134.0998  159.4004 H   0  0  0  0  0  0  0  0  0  0  0  0  # atno 6909 bound_to 6896
  146.0988  139.5658  142.9427 H   0  0  0  0  0  0  0  0  0  0  0  0  # atno 7974 bound_to 7965
  156.0553  140.3303  155.7398 H   0  0  0  0  0  0  0  0  0  0  0  0  # atno 8008 bound_to 7997
  155.5538  140.0612  157.2861 H   0  0  0  0  0  0  0  0  0  0  0  0  # atno 8009 bound_to 7997
  154.4455  140.1889  156.0702 H   0  0  0  0  0  0  0  0  0  0  0  0  # atno 8010 bound_to 7997
  140.7209  143.3641  151.1904 H   0  0  0  0  0  0  0  0  0  0  0  0  # atno 10167 bound_to 10162
  155.9989  130.4771  150.4742 H   0  0  0  0  0  0  0  0  0  0  0  0  # atno 10718 bound_to 10713
  153.0938  135.4846  154.8741 H   0  0  0  0  0  0  0  0  0  0  0  0  # atno 10763 bound_to 10752
  154.7301  135.3058  154.8908 H   0  0  0  0  0  0  0  0  0  0  0  0  # atno 10764 bound_to 10752
  153.9546  135.6819  153.4797 H   0  0  0  0  0  0  0  0  0  0  0  0  # atno 10765 bound_to 10752
  140.4406  134.1326  155.7690 H   0  0  0  0  0  0  0  0  0  0  0  0  # atno 11005 bound_to 11000
  145.5894  141.0371  143.2078 LP  0  0  0  0  0  0  0  0  0  0  0  0  # atno 17320 bound_to 7965
  144.7417  139.7432  143.7308 LP  0  0  0  0  0  0  0  0  0  0  0  0  # atno 17321 bound_to 7965
  139.7200  143.9239  152.2981 LP  0  0  0  0  0  0  0  0  0  0  0  0  # atno 17342 bound_to 10162
  139.8993  144.6921  150.8683 LP  0  0  0  0  0  0  0  0  0  0  0  0  # atno 17343 bound_to 10162
  157.2754  131.0596  151.2233 LP  0  0  0  0  0  0  0  0  0  0  0  0  # atno 17370 bound_to 10713
  157.3298  130.6979  149.6318 LP  0  0  0  0  0  0  0  0  0  0  0  0  # atno 17371 bound_to 10713
  141.1707  133.8614  157.1578 LP  0  0  0  0  0  0  0  0  0  0  0  0  # atno 17394 bound_to 11000
  140.0073  135.0003  157.0319 LP  0  0  0  0  0  0  0  0  0  0  0  0  # atno 17395 bound_to 11000

$$$$
