AV-unprocessed.smi:2807|AV-procd|sdf|10818|dock4
  -GOLD-   2272015253D 1   1.00000     0.00000
 Structure written by MMmdl.
 32 33  0  0  0  0  0  0  0  0  1 V2000
  151.7760  139.8681  155.1980 O   0  0  0  0  0  0  0  0  0  0  0  0
  150.9766  140.2221  156.0656 C   0  0  0  0  0  0  0  0  0  0  0  0
  149.7346  140.6535  155.7883 N   0  0  0  0  0  0  0  0  0  0  0  0
  149.1469  140.7718  154.4530 C   0  0  2  0  0  0  0  0  0  0  0  0
  148.2468  142.0209  154.3682 C   0  0  0  0  0  0  0  0  0  0  0  0
  146.9157  141.5537  153.7736 C   0  0  0  0  0  0  0  0  0  0  0  0
  146.8072  140.0903  154.1887 C   0  0  0  0  0  0  0  0  0  0  0  0
  148.2421  139.5720  154.0773 C   0  0  2  0  0  0  0  0  0  0  0  0
  148.4212  138.4071  154.8610 O   0  0  0  0  0  0  0  0  0  0  0  0
  151.3790  140.1882  157.5477 C   0  0  0  0  0  0  0  0  0  0  0  0
  150.4432  139.5347  158.2413 F   0  0  0  0  0  0  0  0  0  0  0  0
  152.5225  139.5097  157.6682 F   0  0  0  0  0  0  0  0  0  0  0  0
  151.5448  141.6068  158.0863 C   0  0  0  0  0  0  0  0  0  0  0  0
  152.0673  141.8372  159.3793 C   0  0  0  0  0  0  0  0  0  0  0  0
  152.2109  143.1657  159.8233 C   0  0  0  0  0  0  0  0  0  0  0  0
  151.8322  144.2135  158.9633 C   0  0  0  0  0  0  0  0  0  0  0  0
  151.3259  143.8846  157.6908 C   0  0  0  0  0  0  0  0  0  0  0  0
  151.1840  142.6145  157.2552 N   0  0  0  0  0  0  0  0  0  0  0  0
  149.1525  140.9313  156.5655 H   0  0  0  0  0  0  0  0  0  0  0  0
  149.9387  140.8595  153.7067 H   0  0  0  0  0  0  0  0  0  0  0  0
  148.0662  142.4343  155.3620 H   0  0  0  0  0  0  0  0  0  0  0  0
  148.7000  142.8129  153.7711 H   0  0  0  0  0  0  0  0  0  0  0  0
  146.0705  142.1518  154.1153 H   0  0  0  0  0  0  0  0  0  0  0  0
  146.9544  141.6230  152.6855 H   0  0  0  0  0  0  0  0  0  0  0  0
  146.4618  140.0325  155.2223 H   0  0  0  0  0  0  0  0  0  0  0  0
  146.1072  139.5274  153.5703 H   0  0  0  0  0  0  0  0  0  0  0  0
  148.4336  139.3075  153.0362 H   0  0  0  0  0  0  0  0  0  0  0  0
  147.7800  137.7659  154.5953 H   0  0  0  0  0  0  0  0  0  0  0  0
  152.3568  141.0164  160.0189 H   0  0  0  0  0  0  0  0  0  0  0  0
  152.6064  143.3768  160.8060 H   0  0  0  0  0  0  0  0  0  0  0  0
  151.9293  145.2442  159.2707 H   0  0  0  0  0  0  0  0  0  0  0  0
  151.0269  144.6625  157.0038 H   0  0  0  0  0  0  0  0  0  0  0  0
  1  2  2  0  0  0  0
  2  3  1  0  0  0  0
  2 10  1  0  0  0  0
  3  4  1  0  0  0  0
  3 19  1  0  0  0  0
  4  8  1  0  0  0  0
  4  5  1  0  0  0  0
  4 20  1  0  0  0  0
  5  6  1  0  0  0  0
  5 21  1  0  0  0  0
  5 22  1  0  0  0  0
  6  7  1  0  0  0  0
  6 23  1  0  0  0  0
  6 24  1  0  0  0  0
  7  8  1  0  0  0  0
  7 25  1  0  0  0  0
  7 26  1  0  0  0  0
  8  9  1  0  0  0  0
  8 27  1  0  0  0  0
  9 28  1  0  0  0  0
 10 11  1  0  0  0  0
 10 12  1  0  0  0  0
 10 13  1  0  0  0  0
 13 18  1  0  0  0  0
 13 14  2  0  0  0  0
 14 15  1  0  0  0  0
 14 29  1  0  0  0  0
 15 16  2  0  0  0  0
 15 30  1  0  0  0  0
 16 17  1  0  0  0  0
 16 31  1  0  0  0  0
 17 18  2  0  0  0  0
 17 32  1  0  0  0  0
M  END
> <s_m_source_file>
AV-unprocessed.smi

> <i_m_source_file_index>
2807

> <i_lp_mmshare_version>
43012

> <i_f3d_flags>
0

> <s_epik_input>
bjFbY0hdW2NIXVtjSF1bY0hdYzFDKEYpKEYpQyg9TylbTkhdW0NAQEhdMltDSDJdW0NIMl1bQ0gyXVtDQEhdMltPSF0=

> <s_epik_cmdline>
J2VwaWtfcHl0aG9uJywgJy1waCcsICc3LjAnLCAnLXRuJywgJzgnLCAnLW1hJywgJzIwMCcsICctbWV0YWxfYmluZGluZycsICctaW1hZScsICc8aW5maWxlLm1hZT4nLCAnLW9tYWUnLCAnPG91dGZpbGUubWFlPic=

> <r_lp_tautomer_probability>
1

> <r_epik_Ionization_Penalty>
4.08325e-05

> <r_epik_Ionization_Penalty_Charging>
0

> <r_epik_Ionization_Penalty_Neutral>
4.08325e-05

> <r_epik_State_Penalty>
-0

> <r_epik_Charging_Adjusted_Penalty>
0

> <i_epik_Tot_Q>
0

> <i_epik_Tot_abs_Q>
0

> <r_epik_Metal_State_Penalty>
0.034564

> <b_epik_Metal_Only>
0

> <s_lp_Force_Field>
OPLS_2005

> <r_lp_Energy>
28.2651

> <b_lp_Chiralities_Consistent>
1

> <s_lp_Variant>
AV-unprocessed.smi:2807-3

> <Gold.Version>
5.8.1

> <Gold.Id.Protein>
6NUR|6NUR_protein|mol2

> <Gold.PLP.Fitness>
38.5367

> <Gold.PLP.PLP>
-34.3525

> <Gold.PLP.part.hbond>
-1.0000

> <Gold.PLP.part.metal>
0.0000

> <Gold.PLP.part.buried>
-1.1670

> <Gold.PLP.part.nonpolar>
-32.5827

> <Gold.PLP.part.repulsive>
0.1948

> <Gold.PLP.ligand.clash>
0.0000

> <Gold.PLP.ligand.torsion>
0.7690

> <Gold.PLP.Chemscore.Hbond>
0.9760

> <Gold.PLP.Chemscore.CHOScore>
0.9273

> <Gold.PLP.Chemscore.Metal>
0.0000

> <Gold.Chemscore.Hbonds>
donor molecule, donor type, donor heavy atom, donor atom, acceptor molecule, acceptor atom, score
      P1  H  7989  7998       L1     1  0.98
      L1  C    17    32       P1  8028  0.95

> <Gold.PLP.Chemscore.Internal.Correction>
0.0122

> <Gold.Rescore>
     Score         DG    S(hbond)    S(metal)    S(lipo)     H(rot)  DE(clash)    DE(int)     intcor
     11.29     -13.33       0.91        0.00      85.93       2.05       0.20       1.84       ----

> <Gold.Chemscore.Fitness>
11.2874

> <Gold.Chemscore.DG>
-13.3317

> <Gold.Chemscore.ZeroCoef>
-5.4800

> <Gold.Chemscore.Hbond>
0.9086

> <Gold.Chemscore.Metal>
0.0000

> <Gold.Chemscore.Lipo>
85.9309

> <Gold.Chemscore.Internal_Hbond>
0.0000

> <Gold.Chemscore.DEClash>
0.1995

> <Gold.Chemscore.DEInternal>
1.8447

> <Gold.Chemscore.Rot>
2.0457

> <Gold.Chemscore.Internal.Correction>
   9.000000E+99

> <Gold.Chemscore.Hbonds>
donor molecule, donor type, donor heavy atom, donor atom, acceptor molecule, acceptor atom, score
      P1  H  7989  7998       L1     1  0.83

> <Gold.Chemscore.Hbond.Weighted>
-3.0348

> <Gold.Chemscore.Metal.Weighted>
-0.0000

> <Gold.Chemscore.Lipo.Weighted>
-10.0539

> <Gold.Chemscore.Internal_Hbond.Weighted>
0.0000

> <Gold.Chemscore.DEClash.Weighted>
0.1995

> <Gold.Chemscore.DEInternal.Weighted>
1.8447

> <Gold.Chemscore.Rot.Weighted>
5.2371

> <Gold.Chemscore.Internal.Correction.Weighted>
   9.000000E+99

> <Gold.Protein.RotatedTorsions>
[ 6907 6896 6895 6894 ] final  -11.96 input  -60.11 | X-H torsion
[ 7974 7965 7964 7962 ] final  138.95 input  175.53 | X-H torsion
[ 8008 7997 7996 7995 ] final  145.17 input   59.86 | X-H torsion
[ 10167 10162 10161 10158 ] final  131.85 input  -65.29 | X-H torsion
[ 10718 10713 10712 10709 ] final  -50.45 input   66.30 | X-H torsion
[ 10763 10752 10751 10750 ] final    4.25 input  -60.55 | X-H torsion
[ 11005 11000 10999 10996 ] final  -73.07 input  -57.11 | X-H torsion

> <Gold.Protein.ActiveResidues>
 VAL166  LYS551  ARG553  GLY616  TRP617  ASP618  TYR619  PRO620  LYS621  CYS622 
 ASP623  PHE694  ASN695  SER759  ASP760  ASP761  ALA762  ILE779  LEU786  VAL792 
 PHE793  MET794  SER795  GLU796  ALA797  LYS798  CYS799  TRP800  GLU811  SER814 

> <Gold.Protein.RotatedAtoms>
  151.3780  135.0934  159.9486 H   0  0  0  0  0  0  0  0  0  0  0  0  # atno 6907 bound_to 6896
  152.5116  133.9100  159.7493 H   0  0  0  0  0  0  0  0  0  0  0  0  # atno 6908 bound_to 6896
  150.9527  133.6476  159.2798 H   0  0  0  0  0  0  0  0  0  0  0  0  # atno 6909 bound_to 6896
  144.9324  139.5031  143.5611 H   0  0  0  0  0  0  0  0  0  0  0  0  # atno 7974 bound_to 7965
  156.2890  140.2216  156.5172 H   0  0  0  0  0  0  0  0  0  0  0  0  # atno 8008 bound_to 7997
  154.7559  140.0477  157.0955 H   0  0  0  0  0  0  0  0  0  0  0  0  # atno 8009 bound_to 7997
  155.0051  140.3106  155.4855 H   0  0  0  0  0  0  0  0  0  0  0  0  # atno 8010 bound_to 7997
  139.5365  144.6688  151.4767 H   0  0  0  0  0  0  0  0  0  0  0  0  # atno 10167 bound_to 10162
  156.1800  130.4150  149.9521 H   0  0  0  0  0  0  0  0  0  0  0  0  # atno 10718 bound_to 10713
  153.2735  135.6934  153.7457 H   0  0  0  0  0  0  0  0  0  0  0  0  # atno 10763 bound_to 10752
  153.6471  135.3383  155.3089 H   0  0  0  0  0  0  0  0  0  0  0  0  # atno 10764 bound_to 10752
  154.8472  135.4445  154.1765 H   0  0  0  0  0  0  0  0  0  0  0  0  # atno 10765 bound_to 10752
  141.1617  133.6866  156.7155 H   0  0  0  0  0  0  0  0  0  0  0  0  # atno 11005 bound_to 11000
  146.3252  139.8284  142.8913 LP  0  0  0  0  0  0  0  0  0  0  0  0  # atno 17320 bound_to 7965
  145.3121  141.0222  143.3549 LP  0  0  0  0  0  0  0  0  0  0  0  0  # atno 17321 bound_to 7965
  140.6574  143.8569  150.6850 LP  0  0  0  0  0  0  0  0  0  0  0  0  # atno 17342 bound_to 10162
  140.1953  143.4003  152.1832 LP  0  0  0  0  0  0  0  0  0  0  0  0  # atno 17343 bound_to 10162
  156.7295  130.9037  151.3624 LP  0  0  0  0  0  0  0  0  0  0  0  0  # atno 17370 bound_to 10713
  157.6861  130.9187  150.0391 LP  0  0  0  0  0  0  0  0  0  0  0  0  # atno 17371 bound_to 10713
  140.2855  134.8282  157.3971 LP  0  0  0  0  0  0  0  0  0  0  0  0  # atno 17394 bound_to 11000
  140.1394  134.4991  155.8043 LP  0  0  0  0  0  0  0  0  0  0  0  0  # atno 17395 bound_to 11000

$$$$
