AV-unprocessed.smi:362|AV-procd|sdf|2421|dock10
  -GOLD-   2262022363D 1   1.00000     0.00000
 Structure written by MMmdl.
 36 38  0  0  0  0  0  0  0  0  1 V2000
  150.5045  140.6502  158.1941 O   0  0  0  0  0  0  0  0  0  0  0  0
  151.4774  141.1302  157.6112 C   0  0  0  0  0  0  0  0  0  0  0  0
  151.7991  140.7307  156.1641 C   0  0  0  0  0  0  0  0  0  0  0  0
  150.5982  140.5793  155.3294 N   0  0  0  0  0  0  0  0  0  0  0  0
  149.6770  141.6126  155.2322 C   0  0  0  0  0  0  0  0  0  0  0  0
  148.5466  141.5362  154.4906 C   0  0  0  0  0  0  0  0  0  0  0  0
  148.2373  140.3253  153.7378 C   0  0  0  0  0  0  0  0  0  0  0  0
  147.2412  140.1604  153.0374 O   0  0  0  0  0  0  0  0  0  0  0  0
  149.1868  139.3079  153.8632 N   0  0  0  0  0  0  0  0  0  0  0  0
  150.3530  139.3795  154.6266 C   0  0  0  0  0  0  0  0  0  0  0  0
  151.1228  138.4206  154.6712 O   0  0  0  0  0  0  0  0  0  0  0  0
  152.3007  142.0313  158.1689 N   0  0  0  0  0  0  0  0  0  0  0  0
  152.1938  142.5614  159.5240 C   0  0  0  0  0  0  0  0  0  0  0  0
  151.8396  144.0394  159.5440 C   0  0  0  0  0  0  0  0  0  0  0  0
  150.9443  144.6474  158.4899 C   0  0  0  0  0  0  0  0  0  0  0  0
  152.4132  145.0013  158.5302 C   0  0  0  0  0  0  0  0  0  0  0  0
  153.4629  142.3113  160.3184 C   0  0  0  0  0  0  0  0  0  0  0  0
  153.8064  140.9295  160.8210 C   0  0  0  0  0  0  0  0  0  0  0  0
  153.4235  142.0172  161.7995 C   0  0  0  0  0  0  0  0  0  0  0  0
  149.0139  138.4487  153.3619 H   0  0  0  0  0  0  0  0  0  0  0  0
  152.4598  141.4900  155.7435 H   0  0  0  0  0  0  0  0  0  0  0  0
  152.3801  139.8062  156.1540 H   0  0  0  0  0  0  0  0  0  0  0  0
  149.8624  142.5276  155.7768 H   0  0  0  0  0  0  0  0  0  0  0  0
  147.8667  142.3752  154.4553 H   0  0  0  0  0  0  0  0  0  0  0  0
  153.0689  142.3738  157.6103 H   0  0  0  0  0  0  0  0  0  0  0  0
  151.3922  142.0256  160.0368 H   0  0  0  0  0  0  0  0  0  0  0  0
  151.7115  144.4375  160.5491 H   0  0  0  0  0  0  0  0  0  0  0  0
  150.6095  144.0117  157.6729 H   0  0  0  0  0  0  0  0  0  0  0  0
  150.2337  145.4056  158.8122 H   0  0  0  0  0  0  0  0  0  0  0  0
  152.6834  145.9955  158.8798 H   0  0  0  0  0  0  0  0  0  0  0  0
  153.0459  144.5958  157.7432 H   0  0  0  0  0  0  0  0  0  0  0  0
  154.3069  142.9116  159.9832 H   0  0  0  0  0  0  0  0  0  0  0  0
  153.0850  140.1331  160.6482 H   0  0  0  0  0  0  0  0  0  0  0  0
  154.8513  140.6281  160.7859 H   0  0  0  0  0  0  0  0  0  0  0  0
  154.2135  142.4408  162.4161 H   0  0  0  0  0  0  0  0  0  0  0  0
  152.4507  141.9348  162.2798 H   0  0  0  0  0  0  0  0  0  0  0  0
  1  2  2  0  0  0  0
  2  3  1  0  0  0  0
  2 12  1  0  0  0  0
  3  4  1  0  0  0  0
  3 21  1  0  0  0  0
  3 22  1  0  0  0  0
  4 10  1  0  0  0  0
  4  5  1  0  0  0  0
  5  6  2  0  0  0  0
  5 23  1  0  0  0  0
  6  7  1  0  0  0  0
  6 24  1  0  0  0  0
  7  8  2  0  0  0  0
  7  9  1  0  0  0  0
  9 20  1  0  0  0  0
  9 10  1  0  0  0  0
 10 11  2  0  0  0  0
 12 13  1  0  0  0  0
 12 25  1  0  0  0  0
 13 14  1  0  0  0  0
 13 17  1  0  0  0  0
 13 26  1  0  0  0  0
 14 16  1  0  0  0  0
 14 15  1  0  0  0  0
 14 27  1  0  0  0  0
 15 16  1  0  0  0  0
 15 28  1  0  0  0  0
 15 29  1  0  0  0  0
 16 30  1  0  0  0  0
 16 31  1  0  0  0  0
 17 19  1  0  0  0  0
 17 18  1  0  0  0  0
 17 32  1  0  0  0  0
 18 19  1  0  0  0  0
 18 33  1  0  0  0  0
 18 34  1  0  0  0  0
 19 35  1  0  0  0  0
 19 36  1  0  0  0  0
M  END
> <s_m_source_file>
AV-unprocessed.smi

> <i_m_source_file_index>
362

> <i_lp_mmshare_version>
43012

> <i_f3d_flags>
0

> <s_epik_input>
W0NIMl0xW0NIMl1bQ0hdMVtDSF0oW0NIXTJbQ0gyXVtDSDJdMilbTkhdQyg9TylbQ0gyXW4zW2NIXVtjSF1jKD1PKVtuSF1jMz1P

> <s_epik_cmdline>
J2VwaWtfcHl0aG9uJywgJy1waCcsICc3LjAnLCAnLXRuJywgJzgnLCAnLW1hJywgJzIwMCcsICctbWV0YWxfYmluZGluZycsICctaW1hZScsICc8aW5maWxlLm1hZT4nLCAnLW9tYWUnLCAnPG91dGZpbGUubWFlPic=

> <r_lp_tautomer_probability>
0.999537

> <r_epik_Ionization_Penalty>
0.00315598

> <r_epik_Ionization_Penalty_Charging>
0.00315596

> <r_epik_Ionization_Penalty_Neutral>
2.04126e-08

> <r_epik_State_Penalty>
0.00222351

> <r_epik_Charging_Adjusted_Penalty>
0.00537947

> <i_epik_Tot_Q>
0

> <i_epik_Tot_abs_Q>
0

> <r_epik_Metal_State_Penalty>
0.363464

> <b_epik_Metal_Only>
0

> <s_lp_Force_Field>
OPLS_2005

> <r_lp_Energy>
23.1626

> <b_lp_Chiralities_Consistent>
1

> <s_lp_Variant>
AV-unprocessed.smi:362-1

> <Gold.Version>
5.8.1

> <Gold.Id.Protein>
6NUR|6NUR_protein|mol2

> <Gold.PLP.Fitness>
46.6215

> <Gold.PLP.PLP>
-44.3435

> <Gold.PLP.part.hbond>
-1.0000

> <Gold.PLP.part.metal>
0.0000

> <Gold.PLP.part.buried>
-2.2517

> <Gold.PLP.part.nonpolar>
-40.8577

> <Gold.PLP.part.repulsive>
0.4995

> <Gold.PLP.ligand.clash>
0.0000

> <Gold.PLP.ligand.torsion>
1.4190

> <Gold.PLP.Chemscore.Hbond>
0.0000

> <Gold.PLP.Chemscore.CHOScore>
1.0000

> <Gold.PLP.Chemscore.Metal>
0.0000

> <Gold.Chemscore.Hbonds>
donor molecule, donor type, donor heavy atom, donor atom, acceptor molecule, acceptor atom, score
      L1  C     5    23       P1  8028  1.00

> <Gold.PLP.Chemscore.Internal.Correction>
2.1160

> <Gold.Rescore>
     Score         DG    S(hbond)    S(metal)    S(lipo)     H(rot)  DE(clash)    DE(int)     intcor
     10.87     -12.20       0.00        0.00     104.52       2.15       0.06       1.27       ----

> <Gold.Chemscore.Fitness>
10.8712

> <Gold.Chemscore.DG>
-12.2049

> <Gold.Chemscore.ZeroCoef>
-5.4800

> <Gold.Chemscore.Hbond>
0.0000

> <Gold.Chemscore.Metal>
0.0000

> <Gold.Chemscore.Lipo>
104.5207

> <Gold.Chemscore.Internal_Hbond>
0.0000

> <Gold.Chemscore.DEClash>
0.0588

> <Gold.Chemscore.DEInternal>
1.2749

> <Gold.Chemscore.Rot>
2.1500

> <Gold.Chemscore.Internal.Correction>
   9.000000E+99

> <Gold.Chemscore.Hbond.Weighted>
-0.0000

> <Gold.Chemscore.Metal.Weighted>
-0.0000

> <Gold.Chemscore.Lipo.Weighted>
-12.2289

> <Gold.Chemscore.Internal_Hbond.Weighted>
0.0000

> <Gold.Chemscore.DEClash.Weighted>
0.0588

> <Gold.Chemscore.DEInternal.Weighted>
1.2749

> <Gold.Chemscore.Rot.Weighted>
5.5040

> <Gold.Chemscore.Internal.Correction.Weighted>
   9.000000E+99

> <Gold.Protein.RotatedTorsions>
[ 6907 6896 6895 6894 ] final  -81.17 input  -60.11 | X-H torsion
[ 7974 7965 7964 7962 ] final -159.83 input  175.53 | X-H torsion
[ 8008 7997 7996 7995 ] final    5.03 input   59.86 | X-H torsion
[ 10167 10162 10161 10158 ] final  148.63 input  -65.29 | X-H torsion
[ 10718 10713 10712 10709 ] final -145.97 input   66.30 | X-H torsion
[ 10763 10752 10751 10750 ] final  108.16 input  -60.55 | X-H torsion
[ 11005 11000 10999 10996 ] final   39.07 input  -57.11 | X-H torsion

> <Gold.Protein.ActiveResidues>
 VAL166  LYS551  ARG553  GLY616  TRP617  ASP618  TYR619  PRO620  LYS621  CYS622 
 ASP623  PHE694  ASN695  SER759  ASP760  ASP761  ALA762  ILE779  LEU786  VAL792 
 PHE793  MET794  SER795  GLU796  ALA797  LYS798  CYS799  TRP800  GLU811  SER814 

> <Gold.Protein.RotatedAtoms>
  150.6916  134.3858  159.5054 H   0  0  0  0  0  0  0  0  0  0  0  0  # atno 6907 bound_to 6896
  152.1654  134.8875  160.0547 H   0  0  0  0  0  0  0  0  0  0  0  0  # atno 6908 bound_to 6896
  151.9922  133.3760  159.4185 H   0  0  0  0  0  0  0  0  0  0  0  0  # atno 6909 bound_to 6896
  144.7450  140.3629  143.6092 H   0  0  0  0  0  0  0  0  0  0  0  0  # atno 7974 bound_to 7965
  154.7233  140.2716  155.6521 H   0  0  0  0  0  0  0  0  0  0  0  0  # atno 8008 bound_to 7997
  156.2830  140.2730  156.1836 H   0  0  0  0  0  0  0  0  0  0  0  0  # atno 8009 bound_to 7997
  155.0478  140.0371  157.2523 H   0  0  0  0  0  0  0  0  0  0  0  0  # atno 8010 bound_to 7997
  139.4872  144.5665  151.7136 H   0  0  0  0  0  0  0  0  0  0  0  0  # atno 10167 bound_to 10162
  156.3890  130.7876  151.2076 H   0  0  0  0  0  0  0  0  0  0  0  0  # atno 10718 bound_to 10713
  153.4168  135.3821  155.2085 H   0  0  0  0  0  0  0  0  0  0  0  0  # atno 10763 bound_to 10752
  154.8742  135.3807  154.4433 H   0  0  0  0  0  0  0  0  0  0  0  0  # atno 10764 bound_to 10752
  153.4948  135.7088  153.5926 H   0  0  0  0  0  0  0  0  0  0  0  0  # atno 10765 bound_to 10752
  140.2064  134.3808  155.8070 H   0  0  0  0  0  0  0  0  0  0  0  0  # atno 11005 bound_to 11000
  145.7158  139.1697  143.2512 LP  0  0  0  0  0  0  0  0  0  0  0  0  # atno 17320 bound_to 7965
  146.1313  140.7181  142.9411 LP  0  0  0  0  0  0  0  0  0  0  0  0  # atno 17321 bound_to 7965
  140.5244  144.0829  150.6033 LP  0  0  0  0  0  0  0  0  0  0  0  0  # atno 17342 bound_to 10162
  140.3798  143.2809  152.0183 LP  0  0  0  0  0  0  0  0  0  0  0  0  # atno 17343 bound_to 10162
  157.7498  131.0321  150.4212 LP  0  0  0  0  0  0  0  0  0  0  0  0  # atno 17370 bound_to 10713
  156.4470  130.4003  149.6660 LP  0  0  0  0  0  0  0  0  0  0  0  0  # atno 17371 bound_to 10713
  141.2227  133.7120  156.8344 LP  0  0  0  0  0  0  0  0  0  0  0  0  # atno 17394 bound_to 11000
  140.1998  134.8905  157.3156 LP  0  0  0  0  0  0  0  0  0  0  0  0  # atno 17395 bound_to 11000

$$$$
