AV-unprocessed.smi:1225|AV-procd|sdf|5138|dock10
  -GOLD-   22720 4203D 1   1.00000     0.00000
 Structure written by MMmdl.
 49 51  0  0  0  0  0  0  0  0  2 V2000
  148.8608  131.5708  153.5363 C   0  0  0  0  0  0  0  0  0  0  0  0
  148.7816  132.9255  154.1525 C   0  0  0  0  0  0  0  0  0  0  0  0
  147.6811  133.6809  154.1399 N   0  0  0  0  0  0  0  0  0  0  0  0
  147.8677  134.9052  154.7858 C   0  0  0  0  0  0  0  0  0  0  0  0
  149.1293  135.0758  155.3002 C   0  0  0  0  0  0  0  0  0  0  0  0
  149.6563  136.2629  156.0427 C   0  0  0  0  0  0  0  0  0  0  0  0
  151.0688  136.5447  155.7824 N   0  0  0  0  0  0  0  0  0  0  0  0
  151.7599  136.9452  157.0080 C   0  0  0  0  0  0  0  0  0  0  0  0
  151.2024  137.5565  154.7316 C   0  0  0  0  0  0  0  0  0  0  0  0
  150.7282  138.9733  155.1110 C   0  0  2  0  0  0  0  0  0  0  0  0
  150.4141  139.6638  153.9186 O   0  0  0  0  0  0  0  0  0  0  0  0
  151.8032  139.7656  155.8828 C   0  0  0  0  0  0  0  0  0  0  0  0
  151.2988  141.0340  156.4241 N   0  0  0  0  0  0  0  0  0  0  0  0
  150.4159  141.9246  155.8960 C   0  0  0  0  0  0  0  0  0  0  0  0
  150.2802  142.9446  156.7887 N   0  3  0  0  0  0  0  0  0  0  0  0
  151.0916  142.7027  157.8997 C   0  0  0  0  0  0  0  0  0  0  0  0
  151.2958  143.4428  159.0581 C   0  0  0  0  0  0  0  0  0  0  0  0
  152.1983  142.9154  160.0097 C   0  0  0  0  0  0  0  0  0  0  0  0
  152.4439  143.6997  161.2875 C   0  0  0  0  0  0  0  0  0  0  0  0
  152.8620  141.6817  159.7819 C   0  0  0  0  0  0  0  0  0  0  0  0
  153.8300  141.1237  160.8114 C   0  0  0  0  0  0  0  0  0  0  0  0
  152.6413  140.9445  158.5966 C   0  0  0  0  0  0  0  0  0  0  0  0
  151.7487  141.4786  157.6710 C   0  0  0  0  0  0  0  0  0  0  0  0
  150.1377  133.6888  154.9731 S   0  0  0  0  0  0  0  0  0  0  0  0
  147.9446  131.3418  152.9910 H   0  0  0  0  0  0  0  0  0  0  0  0
  149.0041  130.8179  154.3114 H   0  0  0  0  0  0  0  0  0  0  0  0
  149.7007  131.5249  152.8429 H   0  0  0  0  0  0  0  0  0  0  0  0
  147.0426  135.6004  154.8365 H   0  0  0  0  0  0  0  0  0  0  0  0
  149.0554  137.1269  155.7565 H   0  0  0  0  0  0  0  0  0  0  0  0
  149.4970  136.1295  157.1139 H   0  0  0  0  0  0  0  0  0  0  0  0
  152.8271  137.0788  156.8390 H   0  0  0  0  0  0  0  0  0  0  0  0
  151.6616  136.1852  157.7832 H   0  0  0  0  0  0  0  0  0  0  0  0
  151.3569  137.8799  157.3998 H   0  0  0  0  0  0  0  0  0  0  0  0
  152.2502  137.6293  154.4360 H   0  0  0  0  0  0  0  0  0  0  0  0
  150.6673  137.2210  153.8413 H   0  0  0  0  0  0  0  0  0  0  0  0
  149.8087  138.9228  155.6927 H   0  0  0  0  0  0  0  0  0  0  0  0
  149.6537  140.2020  154.0761 H   0  0  0  0  0  0  0  0  0  0  0  0
  152.2070  139.1793  156.7093 H   0  0  0  0  0  0  0  0  0  0  0  0
  152.6457  139.9982  155.2300 H   0  0  0  0  0  0  0  0  0  0  0  0
  149.9132  141.8366  154.9433 H   0  0  0  0  0  0  0  0  0  0  0  0
  150.7872  144.3811  159.2244 H   0  0  0  0  0  0  0  0  0  0  0  0
  152.1362  143.1189  162.1572 H   0  0  0  0  0  0  0  0  0  0  0  0
  151.8836  144.6351  161.2954 H   0  0  0  0  0  0  0  0  0  0  0  0
  153.5012  143.9449  161.3905 H   0  0  0  0  0  0  0  0  0  0  0  0
  154.2323  140.1595  160.4992 H   0  0  0  0  0  0  0  0  0  0  0  0
  153.3307  140.9805  161.7699 H   0  0  0  0  0  0  0  0  0  0  0  0
  154.6692  141.8046  160.9554 H   0  0  0  0  0  0  0  0  0  0  0  0
  153.1462  140.0059  158.4209 H   0  0  0  0  0  0  0  0  0  0  0  0
  149.6788  143.7461  156.6466 H   0  0  0  0  0  0  0  0  0  0  0  0
  1  2  1  0  0  0  0
  1 25  1  0  0  0  0
  1 26  1  0  0  0  0
  1 27  1  0  0  0  0
  2 24  1  0  0  0  0
  2  3  2  0  0  0  0
  3  4  1  0  0  0  0
  4  5  2  0  0  0  0
  4 28  1  0  0  0  0
  5  6  1  0  0  0  0
  5 24  1  0  0  0  0
  6  7  1  0  0  0  0
  6 29  1  0  0  0  0
  6 30  1  0  0  0  0
  7  8  1  0  0  0  0
  7  9  1  0  0  0  0
  8 31  1  0  0  0  0
  8 32  1  0  0  0  0
  8 33  1  0  0  0  0
  9 10  1  0  0  0  0
  9 34  1  0  0  0  0
  9 35  1  0  0  0  0
 10 11  1  0  0  0  0
 10 12  1  0  0  0  0
 10 36  1  0  0  0  0
 11 37  1  0  0  0  0
 12 13  1  0  0  0  0
 12 38  1  0  0  0  0
 12 39  1  0  0  0  0
 13 23  1  0  0  0  0
 13 14  1  0  0  0  0
 14 15  2  0  0  0  0
 14 40  1  0  0  0  0
 15 16  1  0  0  0  0
 15 49  1  0  0  0  0
 16 23  2  0  0  0  0
 16 17  1  0  0  0  0
 17 18  2  0  0  0  0
 17 41  1  0  0  0  0
 18 19  1  0  0  0  0
 18 20  1  0  0  0  0
 19 42  1  0  0  0  0
 19 43  1  0  0  0  0
 19 44  1  0  0  0  0
 20 21  1  0  0  0  0
 20 22  2  0  0  0  0
 21 45  1  0  0  0  0
 21 46  1  0  0  0  0
 21 47  1  0  0  0  0
 22 23  1  0  0  0  0
 22 48  1  0  0  0  0
M  CHG  1  15   1
M  END
> <s_m_source_file>
AV-unprocessed.smi

> <i_m_source_file_index>
1225

> <i_lp_mmshare_version>
43012

> <i_f3d_flags>
0

> <s_epik_input>
W0NIM11jMW5bY0hdYyhzMSlbQ0gyXU4oW0NIM10pW0NIMl1bQ0BIXShbT0hdKVtDSDJdbihbY0hdbjIpYyhjMjMpW2NIXWMoW0NIM10pYyhbY0hdMylbQ0gzXQ==

> <s_epik_cmdline>
J2VwaWtfcHl0aG9uJywgJy1waCcsICc3LjAnLCAnLXRuJywgJzgnLCAnLW1hJywgJzIwMCcsICctbWV0YWxfYmluZGluZycsICctaW1hZScsICc8aW5maWxlLm1hZT4nLCAnLW9tYWUnLCAnPG91dGZpbGUubWFlPic=

> <r_epik_Ionization_Penalty>
1.25968

> <r_epik_Ionization_Penalty_Charging>
1.21782

> <r_epik_Ionization_Penalty_Neutral>
0.0418565

> <r_epik_State_Penalty>
1.29962

> <r_epik_Charging_Adjusted_Penalty>
2.51745

> <i_epik_Tot_Q>
1

> <i_epik_Tot_abs_Q>
1

> <r_epik_Metal_State_Penalty>
1.36802

> <b_epik_Metal_Only>
0

> <s_lp_Force_Field>
OPLS_2005

> <r_lp_Energy>
21.2232

> <b_lp_Chiralities_Consistent>
1

> <s_lp_Variant>
AV-unprocessed.smi:1225-3

> <Gold.Version>
5.8.1

> <Gold.Id.Protein>
6NUR|6NUR_protein|mol2

> <Gold.PLP.Fitness>
55.0572

> <Gold.PLP.PLP>
-48.8847

> <Gold.PLP.part.hbond>
-3.0000

> <Gold.PLP.part.metal>
0.0000

> <Gold.PLP.part.buried>
-5.6909

> <Gold.PLP.part.nonpolar>
-39.6639

> <Gold.PLP.part.repulsive>
0.1757

> <Gold.PLP.ligand.clash>
0.0000

> <Gold.PLP.ligand.torsion>
1.5087

> <Gold.PLP.Chemscore.Hbond>
2.9840

> <Gold.PLP.Chemscore.CHOScore>
0.0000

> <Gold.PLP.Chemscore.Metal>
0.0000

> <Gold.Chemscore.Hbonds>
donor molecule, donor type, donor heavy atom, donor atom, acceptor molecule, acceptor atom, score
      L1  H    15    49       P1  8028  2.00
      P1  H  7989  7998       L1    11  1.00

> <Gold.PLP.Chemscore.Internal.Correction>
0.2379

> <Gold.Rescore>
     Score         DG    S(hbond)    S(metal)    S(lipo)     H(rot)  DE(clash)    DE(int)     intcor
     17.58     -20.17       1.71        0.00     128.55       2.36       0.14       2.45       ----

> <Gold.Chemscore.Fitness>
17.5779

> <Gold.Chemscore.DG>
-20.1696

> <Gold.Chemscore.ZeroCoef>
-5.4800

> <Gold.Chemscore.Hbond>
1.7074

> <Gold.Chemscore.Metal>
0.0000

> <Gold.Chemscore.Lipo>
128.5546

> <Gold.Chemscore.Internal_Hbond>
0.0000

> <Gold.Chemscore.DEClash>
0.1370

> <Gold.Chemscore.DEInternal>
2.4547

> <Gold.Chemscore.Rot>
2.3649

> <Gold.Chemscore.Internal.Correction>
   9.000000E+99

> <Gold.Chemscore.Hbonds>
donor molecule, donor type, donor heavy atom, donor atom, acceptor molecule, acceptor atom, score
      L1  H    15    49       P1  8028  0.93
      P1  H  7989  7998       L1    11  0.29

> <Gold.Chemscore.Hbond.Weighted>
-5.7027

> <Gold.Chemscore.Metal.Weighted>
-0.0000

> <Gold.Chemscore.Lipo.Weighted>
-15.0409

> <Gold.Chemscore.Internal_Hbond.Weighted>
0.0000

> <Gold.Chemscore.DEClash.Weighted>
0.1370

> <Gold.Chemscore.DEInternal.Weighted>
2.4547

> <Gold.Chemscore.Rot.Weighted>
6.0540

> <Gold.Chemscore.Internal.Correction.Weighted>
   9.000000E+99

> <Gold.Protein.RotatedTorsions>
[ 6907 6896 6895 6894 ] final  -52.06 input  -60.11 | X-H torsion
[ 7974 7965 7964 7962 ] final  129.49 input  175.53 | X-H torsion
[ 8008 7997 7996 7995 ] final  114.37 input   59.86 | X-H torsion
[ 10167 10162 10161 10158 ] final  -98.32 input  -65.29 | X-H torsion
[ 10718 10713 10712 10709 ] final  -66.18 input   66.30 | X-H torsion
[ 10763 10752 10751 10750 ] final  -68.91 input  -60.55 | X-H torsion
[ 11005 11000 10999 10996 ] final  -45.80 input  -57.11 | X-H torsion

> <Gold.Protein.ActiveResidues>
 VAL166  LYS551  ARG553  GLY616  TRP617  ASP618  TYR619  PRO620  LYS621  CYS622 
 ASP623  PHE694  ASN695  SER759  ASP760  ASP761  ALA762  ILE779  LEU786  VAL792 
 PHE793  MET794  SER795  GLU796  ALA797  LYS798  CYS799  TRP800  GLU811  SER814 

> <Gold.Protein.RotatedAtoms>
  150.8553  134.7890  159.7040 H   0  0  0  0  0  0  0  0  0  0  0  0  # atno 6907 bound_to 6896
  152.4606  134.5188  159.9786 H   0  0  0  0  0  0  0  0  0  0  0  0  # atno 6908 bound_to 6896
  151.5302  133.3412  159.2952 H   0  0  0  0  0  0  0  0  0  0  0  0  # atno 6909 bound_to 6896
  145.0281  139.4071  143.5164 H   0  0  0  0  0  0  0  0  0  0  0  0  # atno 7974 bound_to 7965
  156.2316  140.2960  156.0204 H   0  0  0  0  0  0  0  0  0  0  0  0  # atno 8008 bound_to 7997
  155.2207  140.0415  157.2965 H   0  0  0  0  0  0  0  0  0  0  0  0  # atno 8009 bound_to 7997
  154.6006  140.2426  155.7805 H   0  0  0  0  0  0  0  0  0  0  0  0  # atno 8010 bound_to 7997
  140.2742  143.3324  152.0505 H   0  0  0  0  0  0  0  0  0  0  0  0  # atno 10167 bound_to 10162
  156.0627  130.4258  150.1671 H   0  0  0  0  0  0  0  0  0  0  0  0  # atno 10718 bound_to 10713
  154.3958  135.6042  153.5869 H   0  0  0  0  0  0  0  0  0  0  0  0  # atno 10763 bound_to 10752
  152.9787  135.5894  154.4243 H   0  0  0  0  0  0  0  0  0  0  0  0  # atno 10764 bound_to 10752
  154.4034  135.2843  155.2060 H   0  0  0  0  0  0  0  0  0  0  0  0  # atno 10765 bound_to 10752
  141.0538  133.6733  156.3064 H   0  0  0  0  0  0  0  0  0  0  0  0  # atno 11005 bound_to 11000
  146.3495  139.9815  142.8695 LP  0  0  0  0  0  0  0  0  0  0  0  0  # atno 17320 bound_to 7965
  145.1807  140.9765  143.4268 LP  0  0  0  0  0  0  0  0  0  0  0  0  # atno 17321 bound_to 7965
  139.4980  144.6636  151.6408 LP  0  0  0  0  0  0  0  0  0  0  0  0  # atno 17342 bound_to 10162
  140.5865  143.9855  150.6298 LP  0  0  0  0  0  0  0  0  0  0  0  0  # atno 17343 bound_to 10162
  156.9736  130.9842  151.3453 LP  0  0  0  0  0  0  0  0  0  0  0  0  # atno 17370 bound_to 10713
  157.5647  130.8270  149.8312 LP  0  0  0  0  0  0  0  0  0  0  0  0  # atno 17371 bound_to 10713
  140.6003  134.5561  157.5516 LP  0  0  0  0  0  0  0  0  0  0  0  0  # atno 17394 bound_to 11000
  139.9373  134.7852  156.0770 LP  0  0  0  0  0  0  0  0  0  0  0  0  # atno 17395 bound_to 11000

$$$$
