AV-unprocessed.smi:2699|AV-procd|sdf|10423|dock9
  -GOLD-   2272014463D 1   1.00000     0.00000
 Structure written by MMmdl.
 42 44  0  0  0  0  0  0  0  0  2 V2000
  151.4562  144.6754  159.7115 C   0  0  0  0  0  0  0  0  0  0  0  0
  152.2914  143.7371  160.5754 C   0  0  0  0  0  0  0  0  0  0  0  0
  152.4743  143.9972  161.8886 C   0  0  0  0  0  0  0  0  0  0  0  0
  153.2050  143.1464  162.7076 C   0  0  0  0  0  0  0  0  0  0  0  0
  153.3800  143.3840  163.9230 O   0  5  0  0  0  0  0  0  0  0  0  0
  153.7248  142.0136  162.0949 C   0  0  0  0  0  0  0  0  0  0  0  0
  153.5565  141.6761  160.6866 C   0  0  0  0  0  0  0  0  0  0  0  0
  154.0308  140.6488  160.1986 O   0  0  0  0  0  0  0  0  0  0  0  0
  152.8450  142.5828  159.9594 N   0  0  0  0  0  0  0  0  0  0  0  0
  152.6712  142.3501  158.5069 C   0  0  0  0  0  0  0  0  0  0  0  0
  151.7811  141.1355  158.1743 C   0  0  0  0  0  0  0  0  0  0  0  0
  151.9269  140.0687  158.7691 O   0  0  0  0  0  0  0  0  0  0  0  0
  150.8363  141.2697  157.2308 N   0  0  0  0  0  0  0  0  0  0  0  0
  149.9052  140.2385  156.7837 C   0  0  0  0  0  0  0  0  0  0  0  0
  149.6892  140.2858  155.2600 C   0  0  0  0  0  0  0  0  0  0  0  0
  150.7853  139.4349  154.6125 C   0  0  0  0  0  0  0  0  0  0  0  0
  151.1623  138.0733  155.1450 C   0  0  0  0  0  0  0  0  0  0  0  0
  152.1537  139.2175  155.2161 C   0  0  0  0  0  0  0  0  0  0  0  0
  148.2538  139.9486  154.8044 C   0  0  0  0  0  0  0  0  0  0  0  0
  147.9135  141.4380  154.8282 C   0  0  0  0  0  0  0  0  0  0  0  0
  149.4122  141.6991  154.6876 C   0  0  0  0  0  0  0  0  0  0  0  0
  150.8798  145.3605  160.3337 H   0  0  0  0  0  0  0  0  0  0  0  0
  150.7385  144.1349  159.0950 H   0  0  0  0  0  0  0  0  0  0  0  0
  152.0987  145.2767  159.0681 H   0  0  0  0  0  0  0  0  0  0  0  0
  152.0362  144.8897  162.3121 H   0  0  0  0  0  0  0  0  0  0  0  0
  154.2979  141.3223  162.6960 H   0  0  0  0  0  0  0  0  0  0  0  0
  152.2782  143.2330  158.0062 H   0  0  0  0  0  0  0  0  0  0  0  0
  153.6445  142.2057  158.0354 H   0  0  0  0  0  0  0  0  0  0  0  0
  150.7579  142.1697  156.7799 H   0  0  0  0  0  0  0  0  0  0  0  0
  150.2795  139.2576  157.0805 H   0  0  0  0  0  0  0  0  0  0  0  0
  148.9595  140.3764  157.3093 H   0  0  0  0  0  0  0  0  0  0  0  0
  150.7982  139.5325  153.5281 H   0  0  0  0  0  0  0  0  0  0  0  0
  150.7068  137.7454  156.0775 H   0  0  0  0  0  0  0  0  0  0  0  0
  151.3497  137.2868  154.4170 H   0  0  0  0  0  0  0  0  0  0  0  0
  153.0002  139.1863  154.5332 H   0  0  0  0  0  0  0  0  0  0  0  0
  152.3705  139.6394  156.1941 H   0  0  0  0  0  0  0  0  0  0  0  0
  148.2119  139.5315  153.7967 H   0  0  0  0  0  0  0  0  0  0  0  0
  147.6803  139.3411  155.5053 H   0  0  0  0  0  0  0  0  0  0  0  0
  147.3081  141.7817  153.9893 H   0  0  0  0  0  0  0  0  0  0  0  0
  147.5085  141.7698  155.7854 H   0  0  0  0  0  0  0  0  0  0  0  0
  149.7803  142.5229  155.3000 H   0  0  0  0  0  0  0  0  0  0  0  0
  149.7041  141.8329  153.6465 H   0  0  0  0  0  0  0  0  0  0  0  0
  1  2  1  0  0  0  0
  1 22  1  0  0  0  0
  1 23  1  0  0  0  0
  1 24  1  0  0  0  0
  2  9  1  0  0  0  0
  2  3  2  0  0  0  0
  3  4  1  0  0  0  0
  3 25  1  0  0  0  0
  4  5  1  0  0  0  0
  4  6  2  0  0  0  0
  6  7  1  0  0  0  0
  6 26  1  0  0  0  0
  7  8  2  0  0  0  0
  7  9  1  0  0  0  0
  9 10  1  0  0  0  0
 10 11  1  0  0  0  0
 10 27  1  0  0  0  0
 10 28  1  0  0  0  0
 11 12  2  0  0  0  0
 11 13  1  0  0  0  0
 13 14  1  0  0  0  0
 13 29  1  0  0  0  0
 14 15  1  0  0  0  0
 14 30  1  0  0  0  0
 14 31  1  0  0  0  0
 15 21  1  0  0  0  0
 15 16  1  0  0  0  0
 15 19  1  0  0  0  0
 16 18  1  0  0  0  0
 16 17  1  0  0  0  0
 16 32  1  0  0  0  0
 17 18  1  0  0  0  0
 17 33  1  0  0  0  0
 17 34  1  0  0  0  0
 18 35  1  0  0  0  0
 18 36  1  0  0  0  0
 19 20  1  0  0  0  0
 19 37  1  0  0  0  0
 19 38  1  0  0  0  0
 20 21  1  0  0  0  0
 20 39  1  0  0  0  0
 20 40  1  0  0  0  0
 21 41  1  0  0  0  0
 21 42  1  0  0  0  0
M  CHG  1   5  -1
M  END
> <s_m_source_file>
AV-unprocessed.smi

> <i_m_source_file_index>
2699

> <i_lp_mmshare_version>
43012

> <i_f3d_flags>
0

> <s_epik_input>
W0NIM11jMVtjSF1jKFtPSF0pW2NIXWMoPU8pbjFbQ0gyXUMoPU8pW05IXVtDSDJdQzIoW0NIXTNbQ0gyXVtDSDJdMylbQ0gyXVtDSDJdW0NIMl0y

> <s_epik_cmdline>
J2VwaWtfcHl0aG9uJywgJy1waCcsICc3LjAnLCAnLXRuJywgJzgnLCAnLW1hJywgJzIwMCcsICctbWV0YWxfYmluZGluZycsICctaW1hZScsICc8aW5maWxlLm1hZT4nLCAnLW9tYWUnLCAnPG91dGZpbGUubWFlPic=

> <r_lp_tautomer_probability>
1

> <r_epik_Ionization_Penalty>
0.201472

> <r_epik_Ionization_Penalty_Charging>
0.201472

> <r_epik_Ionization_Penalty_Neutral>
1.82775e-08

> <r_epik_State_Penalty>
0.183831

> <r_epik_Charging_Adjusted_Penalty>
0.385303

> <i_epik_Tot_Q>
-1

> <i_epik_Tot_abs_Q>
1

> <r_epik_Metal_State_Penalty>
0.183831

> <b_epik_Metal_Only>
0

> <s_lp_Force_Field>
OPLS_2005

> <r_lp_Energy>
45.0719

> <b_lp_Chiralities_Consistent>
1

> <s_lp_Variant>
AV-unprocessed.smi:2699-1

> <Gold.Version>
5.8.1

> <Gold.Id.Protein>
6NUR|6NUR_protein|mol2

> <Gold.PLP.Fitness>
48.2810

> <Gold.PLP.PLP>
-49.8634

> <Gold.PLP.part.hbond>
-0.8348

> <Gold.PLP.part.metal>
0.0000

> <Gold.PLP.part.buried>
-5.5380

> <Gold.PLP.part.nonpolar>
-41.4275

> <Gold.PLP.part.repulsive>
0.1743

> <Gold.PLP.ligand.clash>
0.0000

> <Gold.PLP.ligand.torsion>
1.6470

> <Gold.PLP.Chemscore.Hbond>
0.0000

> <Gold.PLP.Chemscore.CHOScore>
0.0000

> <Gold.PLP.Chemscore.Metal>
0.0000

> <Gold.PLP.Chemscore.Internal.Correction>
1.7117

> <Gold.Rescore>
     Score         DG    S(hbond)    S(metal)    S(lipo)     H(rot)  DE(clash)    DE(int)     intcor
     11.67     -15.07       0.00        0.00     119.34       1.71       0.34       3.06       ----

> <Gold.Chemscore.Fitness>
11.6735

> <Gold.Chemscore.DG>
-15.0664

> <Gold.Chemscore.ZeroCoef>
-5.4800

> <Gold.Chemscore.Hbond>
0.0000

> <Gold.Chemscore.Metal>
0.0000

> <Gold.Chemscore.Lipo>
119.3369

> <Gold.Chemscore.Internal_Hbond>
0.0000

> <Gold.Chemscore.DEClash>
0.3370

> <Gold.Chemscore.DEInternal>
3.0559

> <Gold.Chemscore.Rot>
1.7094

> <Gold.Chemscore.Internal.Correction>
   9.000000E+99

> <Gold.Chemscore.Hbond.Weighted>
-0.0000

> <Gold.Chemscore.Metal.Weighted>
-0.0000

> <Gold.Chemscore.Lipo.Weighted>
-13.9624

> <Gold.Chemscore.Internal_Hbond.Weighted>
0.0000

> <Gold.Chemscore.DEClash.Weighted>
0.3370

> <Gold.Chemscore.DEInternal.Weighted>
3.0559

> <Gold.Chemscore.Rot.Weighted>
4.3760

> <Gold.Chemscore.Internal.Correction.Weighted>
   9.000000E+99

> <Gold.Protein.RotatedTorsions>
[ 6907 6896 6895 6894 ] final    9.61 input  -60.11 | X-H torsion
[ 7974 7965 7964 7962 ] final  -70.15 input  175.53 | X-H torsion
[ 8008 7997 7996 7995 ] final   39.56 input   59.86 | X-H torsion
[ 10167 10162 10161 10158 ] final  163.98 input  -65.29 | X-H torsion
[ 10718 10713 10712 10709 ] final -169.67 input   66.30 | X-H torsion
[ 10763 10752 10751 10750 ] final  158.74 input  -60.55 | X-H torsion
[ 11005 11000 10999 10996 ] final  -50.06 input  -57.11 | X-H torsion

> <Gold.Protein.ActiveResidues>
 VAL166  LYS551  ARG553  GLY616  TRP617  ASP618  TYR619  PRO620  LYS621  CYS622 
 ASP623  PHE694  ASN695  SER759  ASP760  ASP761  ALA762  ILE779  LEU786  VAL792 
 PHE793  MET794  SER795  GLU796  ALA797  LYS798  CYS799  TRP800  GLU811  SER814 

> <Gold.Protein.RotatedAtoms>
  151.7249  135.0886  160.0290 H   0  0  0  0  0  0  0  0  0  0  0  0  # atno 6907 bound_to 6896
  152.3578  133.6254  159.6001 H   0  0  0  0  0  0  0  0  0  0  0  0  # atno 6908 bound_to 6896
  150.7583  133.9388  159.3491 H   0  0  0  0  0  0  0  0  0  0  0  0  # atno 6909 bound_to 6896
  145.6947  140.9140  143.0763 H   0  0  0  0  0  0  0  0  0  0  0  0  # atno 7974 bound_to 7965
  155.2386  140.3344  155.4295 H   0  0  0  0  0  0  0  0  0  0  0  0  # atno 8008 bound_to 7997
  156.2265  140.1831  156.7395 H   0  0  0  0  0  0  0  0  0  0  0  0  # atno 8009 bound_to 7997
  154.5907  140.0638  156.9220 H   0  0  0  0  0  0  0  0  0  0  0  0  # atno 8010 bound_to 7997
  139.4882  144.4282  151.9103 H   0  0  0  0  0  0  0  0  0  0  0  0  # atno 10167 bound_to 10162
  156.7149  130.9248  151.3092 H   0  0  0  0  0  0  0  0  0  0  0  0  # atno 10718 bound_to 10713
  154.2208  135.2782  155.2925 H   0  0  0  0  0  0  0  0  0  0  0  0  # atno 10763 bound_to 10752
  154.5703  135.5620  153.7092 H   0  0  0  0  0  0  0  0  0  0  0  0  # atno 10764 bound_to 10752
  153.0042  135.6319  154.2348 H   0  0  0  0  0  0  0  0  0  0  0  0  # atno 10765 bound_to 10752
  141.0795  133.6657  156.3676 H   0  0  0  0  0  0  0  0  0  0  0  0  # atno 11005 bound_to 11000
  144.6986  139.8867  143.7450 LP  0  0  0  0  0  0  0  0  0  0  0  0  # atno 17320 bound_to 7965
  146.0851  139.3839  143.0440 LP  0  0  0  0  0  0  0  0  0  0  0  0  # atno 17321 bound_to 7965
  140.3728  144.2834  150.5918 LP  0  0  0  0  0  0  0  0  0  0  0  0  # atno 17342 bound_to 10162
  140.5303  143.2245  151.8249 LP  0  0  0  0  0  0  0  0  0  0  0  0  # atno 17343 bound_to 10162
  157.6921  130.9244  150.0543 LP  0  0  0  0  0  0  0  0  0  0  0  0  # atno 17370 bound_to 10713
  156.1635  130.3644  149.9266 LP  0  0  0  0  0  0  0  0  0  0  0  0  # atno 17371 bound_to 10713
  140.5500  134.6036  157.5405 LP  0  0  0  0  0  0  0  0  0  0  0  0  # atno 17394 bound_to 11000
  139.9608  134.7456  156.0242 LP  0  0  0  0  0  0  0  0  0  0  0  0  # atno 17395 bound_to 11000

$$$$
