AV-unprocessed.smi:157|AV-procd|sdf|1318|dock1
  -GOLD-   2262019 13D 1   1.00000     0.00000
 Structure written by MMmdl.
 36 38  0  0  0  0  0  0  0  0  2 V2000
  152.2648  136.9857  155.3356 O   0  0  0  0  0  0  0  0  0  0  0  0
  151.0603  137.7212  155.2990 C   0  0  0  0  0  0  0  0  0  0  0  0
  151.3555  139.2156  155.1008 C   0  0  2  0  0  0  0  0  0  0  0  0
  152.0943  139.6846  156.2270 O   0  0  0  0  0  0  0  0  0  0  0  0
  151.7227  141.0006  156.4581 C   0  0  2  0  0  0  0  0  0  0  0  0
  152.0492  141.3590  157.8698 N   0  0  0  0  0  0  0  0  0  0  0  0
  152.5524  140.5337  158.8118 C   0  0  0  0  0  0  0  0  0  0  0  0
  152.7420  141.1038  159.9899 N   0  3  0  0  0  0  0  0  0  0  0  0
  152.3386  142.4160  159.8588 C   0  0  0  0  0  0  0  0  0  0  0  0
  151.9003  142.5513  158.5389 C   0  0  0  0  0  0  0  0  0  0  0  0
  151.3713  143.6695  157.8766 N   0  0  0  0  0  0  0  0  0  0  0  0
  150.9324  144.7135  158.5011 C   0  0  0  0  0  0  0  0  0  0  0  0
  150.9646  144.9982  159.8561 N   0  0  0  0  0  0  0  0  0  0  0  0
  152.1501  144.8182  160.6753 C   0  0  0  0  0  0  0  0  0  0  0  0
  152.4436  143.3525  161.0220 C   0  0  1  0  0  0  0  0  0  0  0  0
  151.6174  142.9702  162.1023 O   0  0  0  0  0  0  0  0  0  0  0  0
  150.2215  141.0342  156.2229 C   0  0  0  0  0  0  0  0  0  0  0  0
  150.0921  140.1042  155.0276 C   0  0  1  0  0  0  0  0  0  0  0  0
  150.0908  140.8562  153.8304 O   0  0  0  0  0  0  0  0  0  0  0  0
  151.9813  139.3551  154.2169 H   0  0  0  0  0  0  0  0  0  0  0  0
  152.2882  141.6871  155.8257 H   0  0  0  0  0  0  0  0  0  0  0  0
  153.4670  143.3010  161.3951 H   0  0  0  0  0  0  0  0  0  0  0  0
  149.1678  139.5275  155.0799 H   0  0  0  0  0  0  0  0  0  0  0  0
  152.9201  137.4558  154.8423 H   0  0  0  0  0  0  0  0  0  0  0  0
  150.4190  137.3400  154.5037 H   0  0  0  0  0  0  0  0  0  0  0  0
  150.5353  137.5643  156.2417 H   0  0  0  0  0  0  0  0  0  0  0  0
  152.7798  139.5010  158.6157 H   0  0  0  0  0  0  0  0  0  0  0  0
  150.4683  145.5161  157.9258 H   0  0  0  0  0  0  0  0  0  0  0  0
  150.3841  145.7472  160.2058 H   0  0  0  0  0  0  0  0  0  0  0  0
  152.9953  145.2254  160.1181 H   0  0  0  0  0  0  0  0  0  0  0  0
  152.0665  145.4212  161.5801 H   0  0  0  0  0  0  0  0  0  0  0  0
  151.5260  143.7042  162.6901 H   0  0  0  0  0  0  0  0  0  0  0  0
  149.7111  140.6089  157.0886 H   0  0  0  0  0  0  0  0  0  0  0  0
  149.8621  142.0510  156.0576 H   0  0  0  0  0  0  0  0  0  0  0  0
  150.0325  140.2579  153.1008 H   0  0  0  0  0  0  0  0  0  0  0  0
  153.1149  140.6601  160.8196 H   0  0  0  0  0  0  0  0  0  0  0  0
  1  2  1  0  0  0  0
  1 24  1  0  0  0  0
  2  3  1  0  0  0  0
  2 25  1  0  0  0  0
  2 26  1  0  0  0  0
  3 20  1  0  0  0  0
  3 18  1  0  0  0  0
  3  4  1  0  0  0  0
  4  5  1  0  0  0  0
  5 21  1  0  0  0  0
  5  6  1  0  0  0  0
  5 17  1  0  0  0  0
  6 10  1  0  0  0  0
  6  7  1  0  0  0  0
  7  8  2  0  0  0  0
  7 27  1  0  0  0  0
  8  9  1  0  0  0  0
  8 36  1  0  0  0  0
  9 15  1  0  0  0  0
  9 10  2  0  0  0  0
 10 11  1  0  0  0  0
 11 12  2  0  0  0  0
 12 13  1  0  0  0  0
 12 28  1  0  0  0  0
 13 14  1  0  0  0  0
 13 29  1  0  0  0  0
 14 15  1  0  0  0  0
 14 30  1  0  0  0  0
 14 31  1  0  0  0  0
 15 22  1  0  0  0  0
 15 16  1  0  0  0  0
 16 32  1  0  0  0  0
 17 18  1  0  0  0  0
 17 33  1  0  0  0  0
 17 34  1  0  0  0  0
 18 23  1  0  0  0  0
 18 19  1  0  0  0  0
 19 35  1  0  0  0  0
M  CHG  1   8   1
M  END
> <s_m_source_file>
AV-unprocessed.smi

> <i_m_source_file_index>
157

> <i_lp_mmshare_version>
43012

> <i_f3d_flags>
0

> <s_epik_input>
W09IXVtDSDJdW0NASF0xT1tDQEhdKFtDSDJdW0NAQEhdMVtPSF0pbihbY0hdbjIpYyhjMjMpTj1bQ0hdW05IXVtDSDJdW0NASF0zW09IXQ==

> <s_epik_cmdline>
J2VwaWtfcHl0aG9uJywgJy1waCcsICc3LjAnLCAnLXRuJywgJzgnLCAnLW1hJywgJzIwMCcsICctbWV0YWxfYmluZGluZycsICctaW1hZScsICc8aW5maWxlLm1hZT4nLCAnLW9tYWUnLCAnPG91dGZpbGUubWFlPic=

> <r_epik_Ionization_Penalty>
1.68594

> <r_epik_Ionization_Penalty_Charging>
0

> <r_epik_Ionization_Penalty_Neutral>
1.68594

> <r_epik_State_Penalty>
1.79006

> <r_epik_Charging_Adjusted_Penalty>
1.79006

> <i_epik_Tot_Q>
1

> <i_epik_Tot_abs_Q>
1

> <r_epik_Metal_State_Penalty>
5.85324

> <b_epik_Metal_Only>
0

> <s_epik_Chemistry_Notes>
This compound has an imine and may undergo hydrolysis. This compound contains an acetal/aminal-like group ( X-CH(R)-Y where X, Y are N, S, or O) that may be acid/base labile, releasing an aldehyde.

> <s_lp_Force_Field>
OPLS_2005

> <r_lp_Energy>
52.5204

> <b_lp_Chiralities_Consistent>
1

> <s_lp_Variant>
AV-unprocessed.smi:157-28

> <Gold.Version>
5.8.1

> <Gold.Id.Protein>
6NUR|6NUR_protein|mol2

> <Gold.PLP.Fitness>
49.5805

> <Gold.PLP.PLP>
-37.1004

> <Gold.PLP.part.hbond>
-5.6822

> <Gold.PLP.part.metal>
0.0000

> <Gold.PLP.part.buried>
-5.9898

> <Gold.PLP.part.nonpolar>
-24.5646

> <Gold.PLP.part.repulsive>
0.4184

> <Gold.PLP.ligand.clash>
0.0000

> <Gold.PLP.ligand.torsion>
0.0694

> <Gold.PLP.Chemscore.Hbond>
3.2682

> <Gold.PLP.Chemscore.CHOScore>
0.9291

> <Gold.PLP.Chemscore.Metal>
0.0000

> <Gold.Chemscore.Hbonds>
donor molecule, donor type, donor heavy atom, donor atom, acceptor molecule, acceptor atom, score
      L1  H    19    35       P1  7957  0.93
      P1  H  6933  6945       L1    16  0.82
      P1  H  7989  7998       L1    19  0.10
      P1  H  7997  8009       L1     4  0.25
      P1  H  8011  8017       L1    19  0.14
      P1  H 10752 10764       L1     1  0.25
      L1  C    12    28       P1  8028  0.07
      L1  C    12    28       P1  8029  0.46

> <Gold.PLP.Chemscore.Internal.Correction>
0.0270

> <Gold.Rescore>
     Score         DG    S(hbond)    S(metal)    S(lipo)     H(rot)  DE(clash)    DE(int)     intcor
      7.96     -10.15       2.04        0.00      62.02       3.67       2.14       0.05       ----

> <Gold.Chemscore.Fitness>
7.9597

> <Gold.Chemscore.DG>
-10.1485

> <Gold.Chemscore.ZeroCoef>
-5.4800

> <Gold.Chemscore.Hbond>
2.0351

> <Gold.Chemscore.Metal>
0.0000

> <Gold.Chemscore.Lipo>
62.0191

> <Gold.Chemscore.Internal_Hbond>
0.0000

> <Gold.Chemscore.DEClash>
2.1422

> <Gold.Chemscore.DEInternal>
0.0467

> <Gold.Chemscore.Rot>
3.6659

> <Gold.Chemscore.Internal.Correction>
   9.000000E+99

> <Gold.Chemscore.Hbonds>
donor molecule, donor type, donor heavy atom, donor atom, acceptor molecule, acceptor atom, score
      L1  H    19    35       P1  7957  0.87
      P1  H  6933  6945       L1    16  0.59
      P1  H  7997  8009       L1     4  0.03

> <Gold.Chemscore.Hbond.Weighted>
-6.7971

> <Gold.Chemscore.Metal.Weighted>
-0.0000

> <Gold.Chemscore.Lipo.Weighted>
-7.2562

> <Gold.Chemscore.Internal_Hbond.Weighted>
0.0000

> <Gold.Chemscore.DEClash.Weighted>
2.1422

> <Gold.Chemscore.DEInternal.Weighted>
0.0467

> <Gold.Chemscore.Rot.Weighted>
9.3848

> <Gold.Chemscore.Internal.Correction.Weighted>
   9.000000E+99

> <Gold.Protein.RotatedTorsions>
[ 6907 6896 6895 6894 ] final   30.23 input  -60.11 | X-H torsion
[ 7974 7965 7964 7962 ] final   74.09 input  175.53 | X-H torsion
[ 8008 7997 7996 7995 ] final -168.30 input   59.86 | X-H torsion
[ 10167 10162 10161 10158 ] final   -1.33 input  -65.29 | X-H torsion
[ 10718 10713 10712 10709 ] final  -73.94 input   66.30 | X-H torsion
[ 10763 10752 10751 10750 ] final  -52.17 input  -60.55 | X-H torsion
[ 11005 11000 10999 10996 ] final   16.21 input  -57.11 | X-H torsion

> <Gold.Protein.ActiveResidues>
 VAL166  LYS551  ARG553  GLY616  TRP617  ASP618  TYR619  PRO620  LYS621  CYS622 
 ASP623  PHE694  ASN695  SER759  ASP760  ASP761  ALA762  ILE779  LEU786  VAL792 
 PHE793  MET794  SER795  GLU796  ALA797  LYS798  CYS799  TRP800  GLU811  SER814 

> <Gold.Protein.RotatedAtoms>
  152.0430  134.9700  160.0573 H   0  0  0  0  0  0  0  0  0  0  0  0  # atno 6907 bound_to 6896
  152.1131  133.4307  159.4648 H   0  0  0  0  0  0  0  0  0  0  0  0  # atno 6908 bound_to 6896
  150.6844  134.2543  159.4567 H   0  0  0  0  0  0  0  0  0  0  0  0  # atno 6909 bound_to 6896
  145.7326  139.2690  143.1532 H   0  0  0  0  0  0  0  0  0  0  0  0  # atno 7974 bound_to 7965
  155.8895  140.1022  157.1428 H   0  0  0  0  0  0  0  0  0  0  0  0  # atno 8008 bound_to 7997
  154.4013  140.1313  156.4361 H   0  0  0  0  0  0  0  0  0  0  0  0  # atno 8009 bound_to 7997
  155.7550  140.3464  155.5171 H   0  0  0  0  0  0  0  0  0  0  0  0  # atno 8010 bound_to 7997
  140.6805  143.6788  150.8123 H   0  0  0  0  0  0  0  0  0  0  0  0  # atno 10167 bound_to 10162
  156.0261  130.4405  150.2817 H   0  0  0  0  0  0  0  0  0  0  0  0  # atno 10718 bound_to 10713
  154.1384  135.6509  153.4937 H   0  0  0  0  0  0  0  0  0  0  0  0  # atno 10763 bound_to 10752
  153.0173  135.5309  154.6930 H   0  0  0  0  0  0  0  0  0  0  0  0  # atno 10764 bound_to 10752
  154.6184  135.2962  155.0324 H   0  0  0  0  0  0  0  0  0  0  0  0  # atno 10765 bound_to 10752
  140.4497  134.1237  155.7701 H   0  0  0  0  0  0  0  0  0  0  0  0  # atno 11005 bound_to 11000
  146.0523  140.8057  142.9775 LP  0  0  0  0  0  0  0  0  0  0  0  0  # atno 17320 bound_to 7965
  144.6889  140.3071  143.7254 LP  0  0  0  0  0  0  0  0  0  0  0  0  # atno 17321 bound_to 7965
  140.0488  143.5271  152.2683 LP  0  0  0  0  0  0  0  0  0  0  0  0  # atno 17342 bound_to 10162
  139.6125  144.7612  151.2920 LP  0  0  0  0  0  0  0  0  0  0  0  0  # atno 17343 bound_to 10162
  157.0921  131.0172  151.3118 LP  0  0  0  0  0  0  0  0  0  0  0  0  # atno 17370 bound_to 10713
  157.4846  130.7785  149.7447 LP  0  0  0  0  0  0  0  0  0  0  0  0  # atno 17371 bound_to 10713
  141.1669  133.8684  157.1686 LP  0  0  0  0  0  0  0  0  0  0  0  0  # atno 17394 bound_to 11000
  140.0015  135.0026  157.0200 LP  0  0  0  0  0  0  0  0  0  0  0  0  # atno 17395 bound_to 11000

$$$$
