AV-unprocessed.smi:21|AV-procd|sdf|160|dock5
  -GOLD-   2262015393D 1   1.00000     0.00000
 Structure written by MMmdl.
 61 64  0  0  0  0  0  0  0  0  1 V2000
  152.6140  141.7012  160.1371 C   0  0  0  0  0  0  0  0  0  0  0  0
  151.2682  141.6087  159.6967 O   0  0  0  0  0  0  0  0  0  0  0  0
  151.0868  142.0315  158.3526 C   0  0  2  0  0  0  0  0  0  0  0  0
  149.6012  142.0681  157.9572 C   0  0  0  0  0  0  0  0  0  0  0  0
  149.5479  141.3056  156.6262 C   0  0  2  0  0  0  0  0  0  0  0  0
  148.1521  140.7318  156.2899 C   0  0  0  0  0  0  0  0  0  0  0  0
  148.0280  140.2711  154.9061 N   0  0  0  0  0  0  0  0  0  0  0  0
  147.9266  141.2835  153.8594 C   0  0  0  0  0  0  0  0  0  0  0  0
  147.4430  139.0631  154.6884 C   0  0  0  0  0  0  0  0  0  0  0  0
  147.3749  138.1667  155.7094 N   0  0  0  0  0  0  0  0  0  0  0  0
  146.8505  136.9537  155.5142 C   0  0  0  0  0  0  0  0  0  0  0  0
  146.3422  136.4358  154.3957 N   0  0  0  0  0  0  0  0  0  0  0  0
  146.3860  137.3345  153.3717 C   0  0  0  0  0  0  0  0  0  0  0  0
  146.9029  138.6603  153.4321 C   0  0  0  0  0  0  0  0  0  0  0  0
  146.7430  139.2804  152.1978 N   0  0  0  0  0  0  0  0  0  0  0  0
  146.1863  138.3698  151.4478 C   0  0  0  0  0  0  0  0  0  0  0  0
  145.9650  137.1601  152.0650 N   0  0  0  0  0  0  0  0  0  0  0  0
  145.3753  135.9756  151.4674 C   0  0  0  0  0  0  0  0  0  0  0  0
  145.3533  134.7249  152.3911 C   0  0  1  0  0  0  0  0  0  0  0  0
  144.2127  134.8796  153.4267 C   0  0  0  0  0  0  0  0  0  0  0  0
  144.2717  133.8704  154.4139 O   0  0  0  0  0  0  0  0  0  0  0  0
  145.2312  133.3830  151.6069 C   0  0  2  0  0  0  0  0  0  0  0  0
  146.3084  133.1513  150.5570 C   0  0  0  0  0  0  0  0  0  0  0  0
  145.6908  132.0668  149.6868 C   0  0  0  0  0  0  0  0  0  0  0  0
  144.3136  132.3985  149.6303 O   0  0  0  0  0  0  0  0  0  0  0  0
  143.9698  133.2217  150.7400 C   0  0  0  0  0  0  0  0  0  0  0  0
  150.5901  140.3009  156.7629 N   0  0  0  0  0  0  0  0  0  0  0  0
  150.9794  139.6728  155.5072 C   0  0  0  0  0  0  0  0  0  0  0  0
  151.6955  141.0054  157.3881 C   0  0  0  0  0  0  0  0  0  0  0  0
  151.5653  142.9988  158.1881 H   0  0  0  0  0  0  0  0  0  0  0  0
  149.8425  141.9971  155.8349 H   0  0  0  0  0  0  0  0  0  0  0  0
  152.6845  141.3583  161.1691 H   0  0  0  0  0  0  0  0  0  0  0  0
  152.9799  142.7278  160.0997 H   0  0  0  0  0  0  0  0  0  0  0  0
  153.2707  141.0751  159.5319 H   0  0  0  0  0  0  0  0  0  0  0  0
  148.9989  141.5514  158.7066 H   0  0  0  0  0  0  0  0  0  0  0  0
  149.2264  143.0878  157.8716 H   0  0  0  0  0  0  0  0  0  0  0  0
  147.9462  139.8717  156.9264 H   0  0  0  0  0  0  0  0  0  0  0  0
  147.3881  141.4633  156.5430 H   0  0  0  0  0  0  0  0  0  0  0  0
  148.2167  140.8713  152.8923 H   0  0  0  0  0  0  0  0  0  0  0  0
  148.5877  142.1232  154.0750 H   0  0  0  0  0  0  0  0  0  0  0  0
  146.9080  141.6653  153.7835 H   0  0  0  0  0  0  0  0  0  0  0  0
  146.8441  136.3029  156.3760 H   0  0  0  0  0  0  0  0  0  0  0  0
  145.9388  138.5517  150.4122 H   0  0  0  0  0  0  0  0  0  0  0  0
  144.3636  136.2490  151.1670 H   0  0  0  0  0  0  0  0  0  0  0  0
  145.9128  135.7466  150.5464 H   0  0  0  0  0  0  0  0  0  0  0  0
  146.2875  134.6914  152.9530 H   0  0  0  0  0  0  0  0  0  0  0  0
  144.2542  135.8581  153.9063 H   0  0  0  0  0  0  0  0  0  0  0  0
  143.2330  134.7930  152.9593 H   0  0  0  0  0  0  0  0  0  0  0  0
  143.6162  133.2183  154.2179 H   0  0  0  0  0  0  0  0  0  0  0  0
  145.2734  132.5531  152.3144 H   0  0  0  0  0  0  0  0  0  0  0  0
  146.4703  134.0549  149.9677 H   0  0  0  0  0  0  0  0  0  0  0  0
  147.2639  132.8388  150.9789 H   0  0  0  0  0  0  0  0  0  0  0  0
  146.1330  132.0193  148.6915 H   0  0  0  0  0  0  0  0  0  0  0  0
  145.8002  131.0895  150.1586 H   0  0  0  0  0  0  0  0  0  0  0  0
  143.1468  132.7669  151.2890 H   0  0  0  0  0  0  0  0  0  0  0  0
  143.6297  134.1823  150.3526 H   0  0  0  0  0  0  0  0  0  0  0  0
  151.8045  138.9779  155.6670 H   0  0  0  0  0  0  0  0  0  0  0  0
  151.2991  140.4156  154.7751 H   0  0  0  0  0  0  0  0  0  0  0  0
  150.1532  139.1059  155.0789 H   0  0  0  0  0  0  0  0  0  0  0  0
  152.2714  141.5388  156.6298 H   0  0  0  0  0  0  0  0  0  0  0  0
  152.3762  140.3140  157.8857 H   0  0  0  0  0  0  0  0  0  0  0  0
  1  2  1  0  0  0  0
  1 32  1  0  0  0  0
  1 33  1  0  0  0  0
  1 34  1  0  0  0  0
  2  3  1  0  0  0  0
  3 30  1  0  0  0  0
  3 29  1  0  0  0  0
  3  4  1  0  0  0  0
  4  5  1  0  0  0  0
  4 35  1  0  0  0  0
  4 36  1  0  0  0  0
  5 31  1  0  0  0  0
  5  6  1  0  0  0  0
  5 27  1  0  0  0  0
  6  7  1  0  0  0  0
  6 37  1  0  0  0  0
  6 38  1  0  0  0  0
  7  8  1  0  0  0  0
  7  9  1  0  0  0  0
  8 39  1  0  0  0  0
  8 40  1  0  0  0  0
  8 41  1  0  0  0  0
  9 14  1  0  0  0  0
  9 10  2  0  0  0  0
 10 11  1  0  0  0  0
 11 12  2  0  0  0  0
 11 42  1  0  0  0  0
 12 13  1  0  0  0  0
 13 17  1  0  0  0  0
 13 14  2  0  0  0  0
 14 15  1  0  0  0  0
 15 16  2  0  0  0  0
 16 17  1  0  0  0  0
 16 43  1  0  0  0  0
 17 18  1  0  0  0  0
 18 19  1  0  0  0  0
 18 44  1  0  0  0  0
 18 45  1  0  0  0  0
 19 20  1  0  0  0  0
 19 22  1  0  0  0  0
 19 46  1  0  0  0  0
 20 21  1  0  0  0  0
 20 47  1  0  0  0  0
 20 48  1  0  0  0  0
 21 49  1  0  0  0  0
 22 26  1  0  0  0  0
 22 23  1  0  0  0  0
 22 50  1  0  0  0  0
 23 24  1  0  0  0  0
 23 51  1  0  0  0  0
 23 52  1  0  0  0  0
 24 25  1  0  0  0  0
 24 53  1  0  0  0  0
 24 54  1  0  0  0  0
 25 26  1  0  0  0  0
 26 55  1  0  0  0  0
 26 56  1  0  0  0  0
 27 28  1  0  0  0  0
 27 29  1  0  0  0  0
 28 57  1  0  0  0  0
 28 58  1  0  0  0  0
 28 59  1  0  0  0  0
 29 60  1  0  0  0  0
 29 61  1  0  0  0  0
M  END
> <s_m_source_file>
AV-unprocessed.smi

> <i_m_source_file_index>
21

> <i_lp_mmshare_version>
43012

> <i_f3d_flags>
0

> <s_epik_input>
W0NIM11PW0NASF0xW0NIMl1bQ0BIXShOKFtDSDNdKVtDSDJdMSlbQ0gyXU4oW0NIM10pYyhuW2NIXW4yKWMoYzIzKW5bY0hdbjNbQ0gyXVtDQEhdKFtDSDJdW09IXSlbQ0BASF00W0NIMl1bQ0gyXU9bQ0gyXTQ=

> <s_epik_cmdline>
J2VwaWtfcHl0aG9uJywgJy1waCcsICc3LjAnLCAnLXRuJywgJzgnLCAnLW1hJywgJzIwMCcsICctbWV0YWxfYmluZGluZycsICctaW1hZScsICc8aW5maWxlLm1hZT4nLCAnLW9tYWUnLCAnPG91dGZpbGUubWFlPic=

> <r_lp_tautomer_probability>
1

> <r_epik_Ionization_Penalty>
2.17574

> <r_epik_Ionization_Penalty_Charging>
0

> <r_epik_Ionization_Penalty_Neutral>
2.17574

> <r_epik_State_Penalty>
2.31336

> <r_epik_Charging_Adjusted_Penalty>
2.31336

> <i_epik_Tot_Q>
0

> <i_epik_Tot_abs_Q>
0

> <r_epik_Metal_State_Penalty>
2.31025

> <b_epik_Metal_Only>
0

> <s_lp_Force_Field>
OPLS_2005

> <r_lp_Energy>
69.8382

> <b_lp_Chiralities_Consistent>
1

> <s_lp_Variant>
AV-unprocessed.smi:21-40

> <Gold.Version>
5.8.1

> <Gold.Id.Protein>
6NUR|6NUR_protein|mol2

> <Gold.PLP.Fitness>
47.5910

> <Gold.PLP.PLP>
-42.8145

> <Gold.PLP.part.hbond>
-1.9250

> <Gold.PLP.part.metal>
0.0000

> <Gold.PLP.part.buried>
-3.5523

> <Gold.PLP.part.nonpolar>
-38.2947

> <Gold.PLP.part.repulsive>
1.3478

> <Gold.PLP.ligand.clash>
0.0000

> <Gold.PLP.ligand.torsion>
0.6398

> <Gold.PLP.Chemscore.Hbond>
0.9920

> <Gold.PLP.Chemscore.CHOScore>
0.7648

> <Gold.PLP.Chemscore.Metal>
0.0000

> <Gold.Chemscore.Hbonds>
donor molecule, donor type, donor heavy atom, donor atom, acceptor molecule, acceptor atom, score
      L1  H    21    49       P1 10957  0.96
      L1  C    16    43       P1 10171  0.81

> <Gold.PLP.Chemscore.Internal.Correction>
0.7857

> <Gold.Rescore>
     Score         DG    S(hbond)    S(metal)    S(lipo)     H(rot)  DE(clash)    DE(int)     intcor
      7.18     -12.56       0.99        0.00      98.08       3.00       0.55       4.84       ----

> <Gold.Chemscore.Fitness>
7.1804

> <Gold.Chemscore.DG>
-12.5645

> <Gold.Chemscore.ZeroCoef>
-5.4800

> <Gold.Chemscore.Hbond>
0.9873

> <Gold.Chemscore.Metal>
0.0000

> <Gold.Chemscore.Lipo>
98.0762

> <Gold.Chemscore.Internal_Hbond>
0.0000

> <Gold.Chemscore.DEClash>
0.5475

> <Gold.Chemscore.DEInternal>
4.8365

> <Gold.Chemscore.Rot>
3.0031

> <Gold.Chemscore.Internal.Correction>
   9.000000E+99

> <Gold.Chemscore.Hbonds>
donor molecule, donor type, donor heavy atom, donor atom, acceptor molecule, acceptor atom, score
      L1  H    21    49       P1 10957  0.92

> <Gold.Chemscore.Hbond.Weighted>
-3.2976

> <Gold.Chemscore.Metal.Weighted>
-0.0000

> <Gold.Chemscore.Lipo.Weighted>
-11.4749

> <Gold.Chemscore.Internal_Hbond.Weighted>
0.0000

> <Gold.Chemscore.DEClash.Weighted>
0.5475

> <Gold.Chemscore.DEInternal.Weighted>
4.8365

> <Gold.Chemscore.Rot.Weighted>
7.6880

> <Gold.Chemscore.Internal.Correction.Weighted>
   9.000000E+99

> <Gold.Protein.RotatedTorsions>
[ 6907 6896 6895 6894 ] final  -17.92 input  -60.11 | X-H torsion
[ 7974 7965 7964 7962 ] final -104.46 input  175.53 | X-H torsion
[ 8008 7997 7996 7995 ] final   43.83 input   59.86 | X-H torsion
[ 10167 10162 10161 10158 ] final  -65.12 input  -65.29 | X-H torsion
[ 10718 10713 10712 10709 ] final   81.82 input   66.30 | X-H torsion
[ 10763 10752 10751 10750 ] final -131.03 input  -60.55 | X-H torsion
[ 11005 11000 10999 10996 ] final  -57.17 input  -57.11 | X-H torsion

> <Gold.Protein.ActiveResidues>
 VAL166  LYS551  ARG553  GLY616  TRP617  ASP618  TYR619  PRO620  LYS621  CYS622 
 ASP623  PHE694  ASN695  SER759  ASP760  ASP761  ALA762  ILE779  LEU786  VAL792 
 PHE793  MET794  SER795  GLU796  ALA797  LYS798  CYS799  TRP800  GLU811  SER814 

> <Gold.Protein.RotatedAtoms>
  151.2860  135.0728  159.9186 H   0  0  0  0  0  0  0  0  0  0  0  0  # atno 6907 bound_to 6896
  152.5325  133.9982  159.7892 H   0  0  0  0  0  0  0  0  0  0  0  0  # atno 6908 bound_to 6896
  151.0243  133.5797  159.2698 H   0  0  0  0  0  0  0  0  0  0  0  0  # atno 6909 bound_to 6896
  145.2428  140.9211  143.3140 H   0  0  0  0  0  0  0  0  0  0  0  0  # atno 7974 bound_to 7965
  155.3092  140.3390  155.4244 H   0  0  0  0  0  0  0  0  0  0  0  0  # atno 8008 bound_to 7997
  156.1964  140.1716  156.8028 H   0  0  0  0  0  0  0  0  0  0  0  0  # atno 8009 bound_to 7997
  154.5503  140.0707  156.8641 H   0  0  0  0  0  0  0  0  0  0  0  0  # atno 8010 bound_to 7997
  140.5752  143.2321  151.6457 H   0  0  0  0  0  0  0  0  0  0  0  0  # atno 10167 bound_to 10162
  157.6842  131.0020  150.2282 H   0  0  0  0  0  0  0  0  0  0  0  0  # atno 10718 bound_to 10713
  154.8753  135.3843  154.4180 H   0  0  0  0  0  0  0  0  0  0  0  0  # atno 10763 bound_to 10752
  153.4886  135.7030  153.5902 H   0  0  0  0  0  0  0  0  0  0  0  0  # atno 10764 bound_to 10752
  153.4285  135.3884  155.2123 H   0  0  0  0  0  0  0  0  0  0  0  0  # atno 10765 bound_to 10752
  141.1153  133.6610  156.4730 H   0  0  0  0  0  0  0  0  0  0  0  0  # atno 11005 bound_to 11000
  144.9573  139.4017  143.6373 LP  0  0  0  0  0  0  0  0  0  0  0  0  # atno 17320 bound_to 7965
  146.3324  139.8610  142.8856 LP  0  0  0  0  0  0  0  0  0  0  0  0  # atno 17321 bound_to 7965
  139.5139  144.3429  152.0724 LP  0  0  0  0  0  0  0  0  0  0  0  0  # atno 17342 bound_to 10162
  140.2571  144.4107  150.6199 LP  0  0  0  0  0  0  0  0  0  0  0  0  # atno 17343 bound_to 10162
  156.2920  130.3747  149.7832 LP  0  0  0  0  0  0  0  0  0  0  0  0  # atno 17370 bound_to 10713
  156.5489  130.8333  151.3293 LP  0  0  0  0  0  0  0  0  0  0  0  0  # atno 17371 bound_to 10713
  140.4663  134.6795  157.5109 LP  0  0  0  0  0  0  0  0  0  0  0  0  # atno 17394 bound_to 11000
  140.0071  134.6747  155.9438 LP  0  0  0  0  0  0  0  0  0  0  0  0  # atno 17395 bound_to 11000

$$$$
