AV-unprocessed.smi:2106|AV-procd|sdf|8595|dock9
  -GOLD-   2272011333D 1   1.00000     0.00000
 Structure written by MMmdl.
 47 48  0  0  0  0  0  0  0  0  1 V2000
  147.5673  137.2897  163.9333 C   0  0  0  0  0  0  0  0  0  0  0  0
  147.3924  136.5610  162.6337 C   0  0  0  0  0  0  0  0  0  0  0  0
  146.9995  135.2092  162.4272 C   0  0  0  0  0  0  0  0  0  0  0  0
  147.0026  135.0602  161.0688 C   0  0  0  0  0  0  0  0  0  0  0  0
  146.6819  133.8653  160.2321 C   0  0  0  0  0  0  0  0  0  0  0  0
  147.3804  136.2789  160.5323 N   0  0  0  0  0  0  0  0  0  0  0  0
  147.5510  136.6570  159.1385 C   0  0  0  0  0  0  0  0  0  0  0  0
  148.9475  137.2273  158.8901 C   0  0  0  0  0  0  0  0  0  0  0  0
  149.9410  136.5973  159.2517 O   0  0  0  0  0  0  0  0  0  0  0  0
  149.0055  138.4181  158.2737 N   0  0  0  0  0  0  0  0  0  0  0  0
  150.2287  139.1298  157.9185 C   0  0  0  0  0  0  0  0  0  0  0  0
  149.9456  140.6015  157.5573 C   0  0  0  0  0  0  0  0  0  0  0  0
  150.6452  141.5976  158.3690 N   0  0  0  0  0  0  0  0  0  0  0  0
  151.8857  141.0612  158.9123 C   0  0  0  0  0  0  0  0  0  0  0  0
  152.6011  142.0795  159.8185 C   0  0  1  0  0  0  0  0  0  0  0  0
  153.9490  141.5547  160.3240 C   0  0  0  0  0  0  0  0  0  0  0  0
  152.8399  143.2808  159.0872 O   0  0  0  0  0  0  0  0  0  0  0  0
  151.6856  143.8659  158.4818 C   0  0  2  0  0  0  0  0  0  0  0  0
  150.7819  144.5534  159.5196 C   0  0  0  0  0  0  0  0  0  0  0  0
  150.9436  142.8201  157.6263 C   0  0  0  0  0  0  0  0  0  0  0  0
  147.6174  137.1967  161.4956 N   0  0  0  0  0  0  0  0  0  0  0  0
  147.3195  136.6493  164.7802 H   0  0  0  0  0  0  0  0  0  0  0  0
  146.9226  138.1674  163.9818 H   0  0  0  0  0  0  0  0  0  0  0  0
  148.5975  137.6232  164.0600 H   0  0  0  0  0  0  0  0  0  0  0  0
  146.7544  134.4604  163.1657 H   0  0  0  0  0  0  0  0  0  0  0  0
  146.3665  133.0278  160.8546 H   0  0  0  0  0  0  0  0  0  0  0  0
  147.5524  133.5469  159.6590 H   0  0  0  0  0  0  0  0  0  0  0  0
  145.8744  134.0834  159.5330 H   0  0  0  0  0  0  0  0  0  0  0  0
  147.3904  135.7844  158.5049 H   0  0  0  0  0  0  0  0  0  0  0  0
  146.7872  137.3875  158.8660 H   0  0  0  0  0  0  0  0  0  0  0  0
  148.1334  138.8608  158.0234 H   0  0  0  0  0  0  0  0  0  0  0  0
  150.8799  139.1024  158.7921 H   0  0  0  0  0  0  0  0  0  0  0  0
  150.7763  138.6134  157.1295 H   0  0  0  0  0  0  0  0  0  0  0  0
  150.2151  140.7422  156.5095 H   0  0  0  0  0  0  0  0  0  0  0  0
  148.8711  140.7819  157.6114 H   0  0  0  0  0  0  0  0  0  0  0  0
  151.6761  140.1579  159.4864 H   0  0  0  0  0  0  0  0  0  0  0  0
  152.5484  140.7655  158.0973 H   0  0  0  0  0  0  0  0  0  0  0  0
  151.9740  142.3008  160.6827 H   0  0  0  0  0  0  0  0  0  0  0  0
  153.8224  140.6388  160.9019 H   0  0  0  0  0  0  0  0  0  0  0  0
  154.4354  142.2887  160.9668 H   0  0  0  0  0  0  0  0  0  0  0  0
  154.6240  141.3379  159.4956 H   0  0  0  0  0  0  0  0  0  0  0  0
  152.0523  144.6453  157.8135 H   0  0  0  0  0  0  0  0  0  0  0  0
  149.9682  145.0881  159.0294 H   0  0  0  0  0  0  0  0  0  0  0  0
  151.3452  145.2776  160.1080 H   0  0  0  0  0  0  0  0  0  0  0  0
  150.3314  143.8394  160.2086 H   0  0  0  0  0  0  0  0  0  0  0  0
  151.5583  142.5747  156.7587 H   0  0  0  0  0  0  0  0  0  0  0  0
  150.0303  143.2674  157.2368 H   0  0  0  0  0  0  0  0  0  0  0  0
  1  2  1  0  0  0  0
  1 22  1  0  0  0  0
  1 23  1  0  0  0  0
  1 24  1  0  0  0  0
  2 21  2  0  0  0  0
  2  3  1  0  0  0  0
  3  4  2  0  0  0  0
  3 25  1  0  0  0  0
  4  5  1  0  0  0  0
  4  6  1  0  0  0  0
  5 26  1  0  0  0  0
  5 27  1  0  0  0  0
  5 28  1  0  0  0  0
  6  7  1  0  0  0  0
  6 21  1  0  0  0  0
  7  8  1  0  0  0  0
  7 29  1  0  0  0  0
  7 30  1  0  0  0  0
  8  9  2  0  0  0  0
  8 10  1  0  0  0  0
 10 11  1  0  0  0  0
 10 31  1  0  0  0  0
 11 12  1  0  0  0  0
 11 32  1  0  0  0  0
 11 33  1  0  0  0  0
 12 13  1  0  0  0  0
 12 34  1  0  0  0  0
 12 35  1  0  0  0  0
 13 20  1  0  0  0  0
 13 14  1  0  0  0  0
 14 15  1  0  0  0  0
 14 36  1  0  0  0  0
 14 37  1  0  0  0  0
 15 16  1  0  0  0  0
 15 17  1  0  0  0  0
 15 38  1  0  0  0  0
 16 39  1  0  0  0  0
 16 40  1  0  0  0  0
 16 41  1  0  0  0  0
 17 18  1  0  0  0  0
 18 19  1  0  0  0  0
 18 20  1  0  0  0  0
 18 42  1  0  0  0  0
 19 43  1  0  0  0  0
 19 44  1  0  0  0  0
 19 45  1  0  0  0  0
 20 46  1  0  0  0  0
 20 47  1  0  0  0  0
M  END
> <s_m_source_file>
AV-unprocessed.smi

> <i_m_source_file_index>
2106

> <i_lp_mmshare_version>
43012

> <i_f3d_flags>
0

> <s_epik_input>
W0NIM11jMVtjSF1jKFtDSDNdKW4objEpW0NIMl1DKD1PKVtOSF1bQ0gyXVtDSDJdTjJbQ0gyXVtDQEBIXShbQ0gzXSlPW0NAQEhdKFtDSDNdKVtDSDJdMg==

> <s_epik_cmdline>
J2VwaWtfcHl0aG9uJywgJy1waCcsICc3LjAnLCAnLXRuJywgJzgnLCAnLW1hJywgJzIwMCcsICctbWV0YWxfYmluZGluZycsICctaW1hZScsICc8aW5maWxlLm1hZT4nLCAnLW9tYWUnLCAnPG91dGZpbGUubWFlPic=

> <r_lp_tautomer_probability>
1

> <r_epik_Ionization_Penalty>
0.197284

> <r_epik_Ionization_Penalty_Charging>
0

> <r_epik_Ionization_Penalty_Neutral>
0.197284

> <r_epik_State_Penalty>
0.186684

> <r_epik_Charging_Adjusted_Penalty>
0.186684

> <i_epik_Tot_Q>
0

> <i_epik_Tot_abs_Q>
0

> <r_epik_Metal_State_Penalty>
0.186634

> <b_epik_Metal_Only>
0

> <s_lp_Force_Field>
OPLS_2005

> <r_lp_Energy>
25.1516

> <b_lp_Chiralities_Consistent>
1

> <s_lp_Variant>
AV-unprocessed.smi:2106-3

> <Gold.Version>
5.8.1

> <Gold.Id.Protein>
6NUR|6NUR_protein|mol2

> <Gold.PLP.Fitness>
49.3472

> <Gold.PLP.PLP>
-43.9683

> <Gold.PLP.part.hbond>
-2.9533

> <Gold.PLP.part.metal>
0.0000

> <Gold.PLP.part.buried>
-4.1382

> <Gold.PLP.part.nonpolar>
-36.6087

> <Gold.PLP.part.repulsive>
0.1804

> <Gold.PLP.ligand.clash>
0.6541

> <Gold.PLP.ligand.torsion>
0.9748

> <Gold.PLP.Chemscore.Hbond>
2.6552

> <Gold.PLP.Chemscore.CHOScore>
0.0000

> <Gold.PLP.Chemscore.Metal>
0.0000

> <Gold.Chemscore.Hbonds>
donor molecule, donor type, donor heavy atom, donor atom, acceptor molecule, acceptor atom, score
      P1  H  6896  6908       L1     9  1.00
      P1  H  6931  6943       L1    21  0.98
      P1  H  6934  6947       L1    21  0.80

> <Gold.PLP.Chemscore.Internal.Correction>
0.0169

> <Gold.Rescore>
     Score         DG    S(hbond)    S(metal)    S(lipo)     H(rot)  DE(clash)    DE(int)     intcor
     19.90     -22.18       2.36        0.00     111.79       1.67       1.30       0.98       ----

> <Gold.Chemscore.Fitness>
19.9034

> <Gold.Chemscore.DG>
-22.1812

> <Gold.Chemscore.ZeroCoef>
-5.4800

> <Gold.Chemscore.Hbond>
2.3609

> <Gold.Chemscore.Metal>
0.0000

> <Gold.Chemscore.Lipo>
111.7935

> <Gold.Chemscore.Internal_Hbond>
0.0000

> <Gold.Chemscore.DEClash>
1.2960

> <Gold.Chemscore.DEInternal>
0.9818

> <Gold.Chemscore.Rot>
1.6657

> <Gold.Chemscore.Internal.Correction>
   9.000000E+99

> <Gold.Chemscore.Hbonds>
donor molecule, donor type, donor heavy atom, donor atom, acceptor molecule, acceptor atom, score
      P1  H  6896  6908       L1     9  0.97
      P1  H  6931  6943       L1    21  0.32
      P1  H  6934  6947       L1    21  0.69

> <Gold.Chemscore.Hbond.Weighted>
-7.8854

> <Gold.Chemscore.Metal.Weighted>
-0.0000

> <Gold.Chemscore.Lipo.Weighted>
-13.0798

> <Gold.Chemscore.Internal_Hbond.Weighted>
0.0000

> <Gold.Chemscore.DEClash.Weighted>
1.2960

> <Gold.Chemscore.DEInternal.Weighted>
0.9818

> <Gold.Chemscore.Rot.Weighted>
4.2641

> <Gold.Chemscore.Internal.Correction.Weighted>
   9.000000E+99

> <Gold.Protein.RotatedTorsions>
[ 6907 6896 6895 6894 ] final -167.25 input  -60.11 | X-H torsion
[ 7974 7965 7964 7962 ] final  -77.09 input  175.53 | X-H torsion
[ 8008 7997 7996 7995 ] final  -45.22 input   59.86 | X-H torsion
[ 10167 10162 10161 10158 ] final   87.66 input  -65.29 | X-H torsion
[ 10718 10713 10712 10709 ] final -179.42 input   66.30 | X-H torsion
[ 10763 10752 10751 10750 ] final -127.27 input  -60.55 | X-H torsion
[ 11005 11000 10999 10996 ] final  -77.33 input  -57.11 | X-H torsion

> <Gold.Protein.ActiveResidues>
 VAL166  LYS551  ARG553  GLY616  TRP617  ASP618  TYR619  PRO620  LYS621  CYS622 
 ASP623  PHE694  ASN695  SER759  ASP760  ASP761  ALA762  ILE779  LEU786  VAL792 
 PHE793  MET794  SER795  GLU796  ALA797  LYS798  CYS799  TRP800  GLU811  SER814 

> <Gold.Protein.RotatedAtoms>
  151.4566  133.3603  159.2802 H   0  0  0  0  0  0  0  0  0  0  0  0  # atno 6907 bound_to 6896
  150.9054  134.8471  159.7400 H   0  0  0  0  0  0  0  0  0  0  0  0  # atno 6908 bound_to 6896
  152.4903  134.4490  159.9620 H   0  0  0  0  0  0  0  0  0  0  0  0  # atno 6909 bound_to 6896
  145.6043  140.9401  143.1224 H   0  0  0  0  0  0  0  0  0  0  0  0  # atno 7974 bound_to 7965
  154.4000  140.1402  156.3812 H   0  0  0  0  0  0  0  0  0  0  0  0  # atno 8008 bound_to 7997
  155.8002  140.3476  155.5377 H   0  0  0  0  0  0  0  0  0  0  0  0  # atno 8009 bound_to 7997
  155.8491  140.0938  157.1676 H   0  0  0  0  0  0  0  0  0  0  0  0  # atno 8010 bound_to 7997
  139.8751  144.6471  150.8905 H   0  0  0  0  0  0  0  0  0  0  0  0  # atno 10167 bound_to 10162
  156.8589  130.9745  151.3085 H   0  0  0  0  0  0  0  0  0  0  0  0  # atno 10718 bound_to 10713
  154.8751  135.3967  154.3566 H   0  0  0  0  0  0  0  0  0  0  0  0  # atno 10763 bound_to 10752
  153.4344  135.7025  153.6215 H   0  0  0  0  0  0  0  0  0  0  0  0  # atno 10764 bound_to 10752
  153.4823  135.3766  155.2418 H   0  0  0  0  0  0  0  0  0  0  0  0  # atno 10765 bound_to 10752
  141.1659  133.7018  156.7804 H   0  0  0  0  0  0  0  0  0  0  0  0  # atno 11005 bound_to 11000
  144.7296  139.7766  143.7352 LP  0  0  0  0  0  0  0  0  0  0  0  0  # atno 17320 bound_to 7965
  146.1552  139.4648  143.0023 LP  0  0  0  0  0  0  0  0  0  0  0  0  # atno 17321 bound_to 7965
  140.7754  143.3631  151.1789 LP  0  0  0  0  0  0  0  0  0  0  0  0  # atno 17342 bound_to 10162
  139.7248  143.9166  152.2998 LP  0  0  0  0  0  0  0  0  0  0  0  0  # atno 17343 bound_to 10162
  157.6261  130.8693  149.9192 LP  0  0  0  0  0  0  0  0  0  0  0  0  # atno 17370 bound_to 10713
  156.0787  130.3675  150.0624 LP  0  0  0  0  0  0  0  0  0  0  0  0  # atno 17371 bound_to 10713
  140.2398  134.8622  157.3562 LP  0  0  0  0  0  0  0  0  0  0  0  0  # atno 17394 bound_to 11000
  140.1807  134.4493  155.7774 LP  0  0  0  0  0  0  0  0  0  0  0  0  # atno 17395 bound_to 11000

$$$$
