AV-unprocessed.smi:196|AV-procd|sdf|1542|dock4
  -GOLD-   2262019403D 1   1.00000     0.00000
 Structure written by MMmdl.
 47 50  0  0  0  0  0  0  0  0  1 V2000
  147.1368  138.8202  152.6116 C   0  0  0  0  0  0  0  0  0  0  0  0
  147.5481  138.9689  154.0854 C   0  0  2  0  0  0  0  0  0  0  0  0
  146.9289  137.9640  154.8880 O   0  0  0  0  0  0  0  0  0  0  0  0
  146.2113  138.5637  155.9577 C   0  0  0  0  0  0  0  0  0  0  0  0
  146.9002  139.9046  156.1743 C   0  0  0  0  0  0  0  0  0  0  0  0
  147.2467  140.3294  154.7548 C   0  0  2  0  0  0  0  0  0  0  0  0
  146.1017  140.9370  154.1768 O   0  0  0  0  0  0  0  0  0  0  0  0
  148.4282  141.3236  154.6635 C   0  0  0  0  0  0  0  0  0  0  0  0
  149.4103  141.1546  155.7228 N   0  0  0  0  0  0  0  0  0  0  0  0
  149.3759  141.7247  156.9763 C   0  0  0  0  0  0  0  0  0  0  0  0
  150.3786  141.4215  157.7548 N   0  0  0  0  0  0  0  0  0  0  0  0
  151.1682  140.5884  156.9737 C   0  0  0  0  0  0  0  0  0  0  0  0
  152.3981  139.9144  157.1853 C   0  0  0  0  0  0  0  0  0  0  0  0
  153.0652  140.0029  158.3573 N   0  0  0  0  0  0  0  0  0  0  0  0
  153.5062  141.3441  158.7263 C   0  0  0  0  0  0  0  0  0  0  0  0
  153.2377  141.4855  160.2271 C   0  0  1  0  0  0  0  0  0  0  0  0
  152.0672  142.0985  160.4112 F   0  0  0  0  0  0  0  0  0  0  0  0
  153.1358  140.0413  160.7084 C   0  0  0  0  0  0  0  0  0  0  0  0
  152.4837  139.3266  159.5182 C   0  0  2  0  0  0  0  0  0  0  0  0
  152.7777  137.8190  159.5184 C   0  0  0  0  0  0  0  0  0  0  0  0
  154.0624  137.4568  159.5269 N   0  0  0  0  0  0  0  0  0  0  0  0
  151.8664  136.9931  159.4992 O   0  0  0  0  0  0  0  0  0  0  0  0
  152.8946  139.1580  156.1717 N   0  0  0  0  0  0  0  0  0  0  0  0
  152.2297  139.0764  155.0151 C   0  0  0  0  0  0  0  0  0  0  0  0
  151.0772  139.6566  154.6715 N   0  0  0  0  0  0  0  0  0  0  0  0
  150.5763  140.4096  155.6931 C   0  0  0  0  0  0  0  0  0  0  0  0
  153.9983  142.0660  160.7499 H   0  0  0  0  0  0  0  0  0  0  0  0
  151.4047  139.4902  159.5529 H   0  0  0  0  0  0  0  0  0  0  0  0
  147.5936  139.5955  151.9962 H   0  0  0  0  0  0  0  0  0  0  0  0
  146.0551  138.8822  152.4877 H   0  0  0  0  0  0  0  0  0  0  0  0
  147.4552  137.8544  152.2185 H   0  0  0  0  0  0  0  0  0  0  0  0
  148.6191  138.7746  154.1581 H   0  0  0  0  0  0  0  0  0  0  0  0
  145.1740  138.7082  155.6529 H   0  0  0  0  0  0  0  0  0  0  0  0
  146.2211  137.9361  156.8490 H   0  0  0  0  0  0  0  0  0  0  0  0
  146.2827  140.6244  156.7134 H   0  0  0  0  0  0  0  0  0  0  0  0
  147.8111  139.7456  156.7527 H   0  0  0  0  0  0  0  0  0  0  0  0
  145.5430  140.2560  153.8345 H   0  0  0  0  0  0  0  0  0  0  0  0
  148.9402  141.2165  153.7062 H   0  0  0  0  0  0  0  0  0  0  0  0
  148.0601  142.3499  154.6978 H   0  0  0  0  0  0  0  0  0  0  0  0
  148.5753  142.3746  157.2990 H   0  0  0  0  0  0  0  0  0  0  0  0
  154.5768  141.4068  158.5290 H   0  0  0  0  0  0  0  0  0  0  0  0
  153.0213  142.1364  158.1525 H   0  0  0  0  0  0  0  0  0  0  0  0
  154.1369  139.6496  160.8972 H   0  0  0  0  0  0  0  0  0  0  0  0
  152.5591  139.9440  161.6289 H   0  0  0  0  0  0  0  0  0  0  0  0
  154.3110  136.4781  159.5250 H   0  0  0  0  0  0  0  0  0  0  0  0
  154.7818  138.1654  159.5327 H   0  0  0  0  0  0  0  0  0  0  0  0
  152.6865  138.4585  154.2562 H   0  0  0  0  0  0  0  0  0  0  0  0
  1  2  1  0  0  0  0
  1 29  1  0  0  0  0
  1 30  1  0  0  0  0
  1 31  1  0  0  0  0
  2  6  1  0  0  0  0
  2  3  1  0  0  0  0
  2 32  1  0  0  0  0
  3  4  1  0  0  0  0
  4  5  1  0  0  0  0
  4 33  1  0  0  0  0
  4 34  1  0  0  0  0
  5  6  1  0  0  0  0
  5 35  1  0  0  0  0
  5 36  1  0  0  0  0
  6  7  1  0  0  0  0
  6  8  1  0  0  0  0
  7 37  1  0  0  0  0
  8  9  1  0  0  0  0
  8 38  1  0  0  0  0
  8 39  1  0  0  0  0
  9 26  1  0  0  0  0
  9 10  1  0  0  0  0
 10 11  2  0  0  0  0
 10 40  1  0  0  0  0
 11 12  1  0  0  0  0
 12 26  2  0  0  0  0
 12 13  1  0  0  0  0
 13 14  1  0  0  0  0
 13 23  2  0  0  0  0
 14 19  1  0  0  0  0
 14 15  1  0  0  0  0
 15 16  1  0  0  0  0
 15 41  1  0  0  0  0
 15 42  1  0  0  0  0
 16 27  1  0  0  0  0
 16 17  1  0  0  0  0
 16 18  1  0  0  0  0
 18 19  1  0  0  0  0
 18 43  1  0  0  0  0
 18 44  1  0  0  0  0
 19 28  1  0  0  0  0
 19 20  1  0  0  0  0
 20 21  1  0  0  0  0
 20 22  2  0  0  0  0
 21 45  1  0  0  0  0
 21 46  1  0  0  0  0
 23 24  1  0  0  0  0
 24 25  2  0  0  0  0
 24 47  1  0  0  0  0
 25 26  1  0  0  0  0
M  END
> <s_m_source_file>
AV-unprocessed.smi

> <i_m_source_file_index>
196

> <i_lp_mmshare_version>
43012

> <i_f3d_flags>
0

> <s_epik_input>
W0NIMl0xW0NIMl1PW0NAQEhdKFtDSDNdKVtDQEBdMShbT0hdKVtDSDJdbihbY0hdbjIpYyhjMjMpbltjSF1uYzNONFtDSDJdW0NASF0oRilbQ0gyXVtDQEhdNEMoPU8pW05IMl0=

> <s_epik_cmdline>
J2VwaWtfcHl0aG9uJywgJy1waCcsICc3LjAnLCAnLXRuJywgJzgnLCAnLW1hJywgJzIwMCcsICctbWV0YWxfYmluZGluZycsICctaW1hZScsICc8aW5maWxlLm1hZT4nLCAnLW9tYWUnLCAnPG91dGZpbGUubWFlPic=

> <r_lp_tautomer_probability>
1

> <r_epik_Ionization_Penalty>
0.000857933

> <r_epik_Ionization_Penalty_Charging>
0

> <r_epik_Ionization_Penalty_Neutral>
0.000857933

> <r_epik_State_Penalty>
0.000462053

> <r_epik_Charging_Adjusted_Penalty>
0.000462053

> <i_epik_Tot_Q>
0

> <i_epik_Tot_abs_Q>
0

> <r_epik_Metal_State_Penalty>
-0

> <b_epik_Metal_Only>
0

> <s_lp_Force_Field>
OPLS_2005

> <r_lp_Energy>
44.722

> <b_lp_Chiralities_Consistent>
1

> <s_lp_Variant>
AV-unprocessed.smi:196-15

> <Gold.Version>
5.8.1

> <Gold.Id.Protein>
6NUR|6NUR_protein|mol2

> <Gold.PLP.Fitness>
37.9811

> <Gold.PLP.PLP>
-30.7968

> <Gold.PLP.part.hbond>
-4.9514

> <Gold.PLP.part.metal>
0.0000

> <Gold.PLP.part.buried>
-0.2613

> <Gold.PLP.part.nonpolar>
-25.7373

> <Gold.PLP.part.repulsive>
0.2726

> <Gold.PLP.ligand.clash>
0.0000

> <Gold.PLP.ligand.torsion>
0.9759

> <Gold.PLP.Chemscore.Hbond>
2.3580

> <Gold.PLP.Chemscore.CHOScore>
0.6245

> <Gold.PLP.Chemscore.Metal>
0.0000

> <Gold.Chemscore.Hbonds>
donor molecule, donor type, donor heavy atom, donor atom, acceptor molecule, acceptor atom, score
      L1  H     7    37       P1 10175  0.16
      P1  H  6896  6908       L1    22  1.00
      P1  H  7989  7998       L1    25  1.00
      L1  C    10    40       P1  8028  0.08

> <Gold.PLP.Chemscore.Internal.Correction>
0.1884

> <Gold.Rescore>
     Score         DG    S(hbond)    S(metal)    S(lipo)     H(rot)  DE(clash)    DE(int)     intcor
      7.22     -10.52       1.61        0.00      63.79       3.04       2.25       1.06       ----

> <Gold.Chemscore.Fitness>
7.2194

> <Gold.Chemscore.DG>
-10.5243

> <Gold.Chemscore.ZeroCoef>
-5.4800

> <Gold.Chemscore.Hbond>
1.6069

> <Gold.Chemscore.Metal>
0.0000

> <Gold.Chemscore.Lipo>
63.7860

> <Gold.Chemscore.Internal_Hbond>
0.0000

> <Gold.Chemscore.DEClash>
2.2472

> <Gold.Chemscore.DEInternal>
1.0576

> <Gold.Chemscore.Rot>
3.0413

> <Gold.Chemscore.Internal.Correction>
   9.000000E+99

> <Gold.Chemscore.Hbonds>
donor molecule, donor type, donor heavy atom, donor atom, acceptor molecule, acceptor atom, score
      L1  H     7    37       P1 10175  0.16
      P1  H  6896  6908       L1    22  0.97
      P1  H  7989  7998       L1    25  0.13

> <Gold.Chemscore.Hbond.Weighted>
-5.3670

> <Gold.Chemscore.Metal.Weighted>
-0.0000

> <Gold.Chemscore.Lipo.Weighted>
-7.4630

> <Gold.Chemscore.Internal_Hbond.Weighted>
0.0000

> <Gold.Chemscore.DEClash.Weighted>
2.2472

> <Gold.Chemscore.DEInternal.Weighted>
1.0576

> <Gold.Chemscore.Rot.Weighted>
7.7856

> <Gold.Chemscore.Internal.Correction.Weighted>
   9.000000E+99

> <Gold.Protein.RotatedTorsions>
[ 6907 6896 6895 6894 ] final -132.05 input  -60.11 | X-H torsion
[ 7974 7965 7964 7962 ] final  -58.04 input  175.53 | X-H torsion
[ 8008 7997 7996 7995 ] final  -84.57 input   59.86 | X-H torsion
[ 10167 10162 10161 10158 ] final -109.24 input  -65.29 | X-H torsion
[ 10718 10713 10712 10709 ] final -118.91 input   66.30 | X-H torsion
[ 10763 10752 10751 10750 ] final -104.31 input  -60.55 | X-H torsion
[ 11005 11000 10999 10996 ] final  120.71 input  -57.11 | X-H torsion

> <Gold.Protein.ActiveResidues>
 VAL166  LYS551  ARG553  GLY616  TRP617  ASP618  TYR619  PRO620  LYS621  CYS622 
 ASP623  PHE694  ASN695  SER759  ASP760  ASP761  ALA762  ILE779  LEU786  VAL792 
 PHE793  MET794  SER795  GLU796  ALA797  LYS798  CYS799  TRP800  GLU811  SER814 

> <Gold.Protein.RotatedAtoms>
  150.9580  133.6476  159.2759 H   0  0  0  0  0  0  0  0  0  0  0  0  # atno 6907 bound_to 6896
  151.3809  135.0938  159.9505 H   0  0  0  0  0  0  0  0  0  0  0  0  # atno 6908 bound_to 6896
  152.5136  133.9114  159.7544 H   0  0  0  0  0  0  0  0  0  0  0  0  # atno 6909 bound_to 6896
  145.8440  140.8398  143.0020 H   0  0  0  0  0  0  0  0  0  0  0  0  # atno 7974 bound_to 7965
  154.6313  140.0603  156.9735 H   0  0  0  0  0  0  0  0  0  0  0  0  # atno 8008 bound_to 7997
  155.1662  140.3287  155.4383 H   0  0  0  0  0  0  0  0  0  0  0  0  # atno 8009 bound_to 7997
  156.2484  140.1922  156.6766 H   0  0  0  0  0  0  0  0  0  0  0  0  # atno 8010 bound_to 7997
  140.1575  143.4148  152.1450 H   0  0  0  0  0  0  0  0  0  0  0  0  # atno 10167 bound_to 10162
  156.1141  130.6272  150.9350 H   0  0  0  0  0  0  0  0  0  0  0  0  # atno 10718 bound_to 10713
  154.7869  135.4791  153.9966 H   0  0  0  0  0  0  0  0  0  0  0  0  # atno 10763 bound_to 10752
  153.1573  135.6802  153.8800 H   0  0  0  0  0  0  0  0  0  0  0  0  # atno 10764 bound_to 10752
  153.8425  135.3177  155.3405 H   0  0  0  0  0  0  0  0  0  0  0  0  # atno 10765 bound_to 10752
  139.9196  134.9636  156.7848 H   0  0  0  0  0  0  0  0  0  0  0  0  # atno 11005 bound_to 11000
  144.6732  140.0854  143.7467 LP  0  0  0  0  0  0  0  0  0  0  0  0  # atno 17320 bound_to 7965
  145.9433  139.2684  143.1255 LP  0  0  0  0  0  0  0  0  0  0  0  0  # atno 17321 bound_to 7965
  139.5397  144.7244  151.4776 LP  0  0  0  0  0  0  0  0  0  0  0  0  # atno 17342 bound_to 10162
  140.6664  143.8389  150.6947 LP  0  0  0  0  0  0  0  0  0  0  0  0  # atno 17343 bound_to 10162
  157.6324  131.0919  150.8415 LP  0  0  0  0  0  0  0  0  0  0  0  0  # atno 17370 bound_to 10713
  156.8521  130.5084  149.5311 LP  0  0  0  0  0  0  0  0  0  0  0  0  # atno 17371 bound_to 10713
  140.6515  133.9727  155.7757 LP  0  0  0  0  0  0  0  0  0  0  0  0  # atno 17394 bound_to 11000
  141.0705  134.0213  157.3533 LP  0  0  0  0  0  0  0  0  0  0  0  0  # atno 17395 bound_to 11000

$$$$
