AV-unprocessed.smi:1749|AV-procd|sdf|7046|dock1
  -GOLD-   22720 8263D 1   1.00000     0.00000
 Structure written by MMmdl.
 32 33  0  0  0  0  0  0  0  0  1 V2000
  153.1093  140.6120  160.1004 C   0  0  0  0  0  0  0  0  0  0  0  0
  153.0137  141.8665  159.2206 C   0  0  2  0  0  0  0  0  0  0  0  0
  152.8811  143.1431  160.0731 C   0  0  0  0  0  0  0  0  0  0  0  0
  152.7818  144.3999  159.1945 C   0  0  0  0  0  0  0  0  0  0  0  0
  151.6195  144.2908  158.1958 C   0  0  0  0  0  0  0  0  0  0  0  0
  151.7390  143.0207  157.3338 C   0  0  2  0  0  0  0  0  0  0  0  0
  150.5729  142.9075  156.4629 N   0  0  0  0  0  0  0  0  0  0  0  0
  150.1478  141.7955  155.8400 C   0  0  0  0  0  0  0  0  0  0  0  0
  150.7306  140.7162  155.9273 O   0  0  0  0  0  0  0  0  0  0  0  0
  149.0280  141.9170  155.0947 N   0  0  0  0  0  0  0  0  0  0  0  0
  148.2999  140.9745  154.3103 C   0  0  0  0  0  0  0  0  0  0  0  0
  148.6709  139.6994  154.1078 N   0  0  0  0  0  0  0  0  0  0  0  0
  147.7759  139.0158  153.2961 N   0  0  0  0  0  0  0  0  0  0  0  0
  146.7649  139.8001  152.9133 C   0  0  0  0  0  0  0  0  0  0  0  0
  146.8086  141.4504  153.5084 S   0  0  0  0  0  0  0  0  0  0  0  0
  151.8478  141.7636  158.2177 C   0  0  0  0  0  0  0  0  0  0  0  0
  152.2096  140.4806  160.7026 H   0  0  0  0  0  0  0  0  0  0  0  0
  153.9592  140.6731  160.7805 H   0  0  0  0  0  0  0  0  0  0  0  0
  153.2369  139.7152  159.4935 H   0  0  0  0  0  0  0  0  0  0  0  0
  153.9409  141.9384  158.6500 H   0  0  0  0  0  0  0  0  0  0  0  0
  151.9963  143.0735  160.7074 H   0  0  0  0  0  0  0  0  0  0  0  0
  153.7354  143.2341  160.7449 H   0  0  0  0  0  0  0  0  0  0  0  0
  152.6500  145.2820  159.8220 H   0  0  0  0  0  0  0  0  0  0  0  0
  153.7177  144.5427  158.6529 H   0  0  0  0  0  0  0  0  0  0  0  0
  150.6752  144.2802  158.7424 H   0  0  0  0  0  0  0  0  0  0  0  0
  151.5982  145.1756  157.5582 H   0  0  0  0  0  0  0  0  0  0  0  0
  152.6512  143.1000  156.7399 H   0  0  0  0  0  0  0  0  0  0  0  0
  150.0302  143.7491  156.3299 H   0  0  0  0  0  0  0  0  0  0  0  0
  148.6504  142.8530  155.0692 H   0  0  0  0  0  0  0  0  0  0  0  0
  145.9882  139.4043  152.2759 H   0  0  0  0  0  0  0  0  0  0  0  0
  151.9807  140.8832  157.5873 H   0  0  0  0  0  0  0  0  0  0  0  0
  150.9128  141.6144  158.7604 H   0  0  0  0  0  0  0  0  0  0  0  0
  1  2  1  0  0  0  0
  1 17  1  0  0  0  0
  1 18  1  0  0  0  0
  1 19  1  0  0  0  0
  2 16  1  0  0  0  0
  2  3  1  0  0  0  0
  2 20  1  0  0  0  0
  3  4  1  0  0  0  0
  3 21  1  0  0  0  0
  3 22  1  0  0  0  0
  4  5  1  0  0  0  0
  4 23  1  0  0  0  0
  4 24  1  0  0  0  0
  5  6  1  0  0  0  0
  5 25  1  0  0  0  0
  5 26  1  0  0  0  0
  6  7  1  0  0  0  0
  6 16  1  0  0  0  0
  6 27  1  0  0  0  0
  7  8  1  0  0  0  0
  7 28  1  0  0  0  0
  8  9  2  0  0  0  0
  8 10  1  0  0  0  0
 10 11  1  0  0  0  0
 10 29  1  0  0  0  0
 11 15  1  0  0  0  0
 11 12  2  0  0  0  0
 12 13  1  0  0  0  0
 13 14  2  0  0  0  0
 14 15  1  0  0  0  0
 14 30  1  0  0  0  0
 16 31  1  0  0  0  0
 16 32  1  0  0  0  0
M  END
> <s_m_source_file>
AV-unprocessed.smi

> <i_m_source_file_index>
1749

> <i_lp_mmshare_version>
43012

> <i_f3d_flags>
0

> <s_epik_input>
W0NIM11bQ0BASF0xW0NIMl1bQ0gyXVtDSDJdW0NASF0oW0NIMl0xKVtOSF1DKD1PKVtOSF1jMm5uW2NIXXMy

> <s_epik_cmdline>
J2VwaWtfcHl0aG9uJywgJy1waCcsICc3LjAnLCAnLXRuJywgJzgnLCAnLW1hJywgJzIwMCcsICctbWV0YWxfYmluZGluZycsICctaW1hZScsICc8aW5maWxlLm1hZT4nLCAnLW9tYWUnLCAnPG91dGZpbGUubWFlPic=

> <r_lp_tautomer_probability>
1

> <r_epik_Ionization_Penalty>
0.000318591

> <r_epik_Ionization_Penalty_Charging>
0

> <r_epik_Ionization_Penalty_Neutral>
0.000318591

> <r_epik_State_Penalty>
-0

> <r_epik_Charging_Adjusted_Penalty>
0

> <i_epik_Tot_Q>
0

> <i_epik_Tot_abs_Q>
0

> <r_epik_Metal_State_Penalty>
0.169791

> <b_epik_Metal_Only>
0

> <s_lp_Force_Field>
OPLS_2005

> <r_lp_Energy>
11.6734

> <b_lp_Chiralities_Consistent>
1

> <s_lp_Variant>
AV-unprocessed.smi:1749-3

> <Gold.Version>
5.8.1

> <Gold.Id.Protein>
6NUR|6NUR_protein|mol2

> <Gold.PLP.Fitness>
40.4667

> <Gold.PLP.PLP>
-32.9833

> <Gold.PLP.part.hbond>
-2.0000

> <Gold.PLP.part.metal>
0.0000

> <Gold.PLP.part.buried>
-5.6528

> <Gold.PLP.part.nonpolar>
-26.3792

> <Gold.PLP.part.repulsive>
1.6377

> <Gold.PLP.ligand.clash>
0.0000

> <Gold.PLP.ligand.torsion>
0.2765

> <Gold.PLP.Chemscore.Hbond>
1.9440

> <Gold.PLP.Chemscore.CHOScore>
0.7339

> <Gold.PLP.Chemscore.Metal>
0.0000

> <Gold.Chemscore.Hbonds>
donor molecule, donor type, donor heavy atom, donor atom, acceptor molecule, acceptor atom, score
      L1  H     7    28       P1  8028  1.00
      L1  H    10    29       P1  8028  0.94
      L1  C    14    30       P1 10175  0.73

> <Gold.PLP.Chemscore.Internal.Correction>
0.0024

> <Gold.Rescore>
     Score         DG    S(hbond)    S(metal)    S(lipo)     H(rot)  DE(clash)    DE(int)     intcor
     15.99     -20.20       1.92        0.00      92.97       1.00       1.27       2.95       ----

> <Gold.Chemscore.Fitness>
15.9886

> <Gold.Chemscore.DG>
-20.2023

> <Gold.Chemscore.ZeroCoef>
-5.4800

> <Gold.Chemscore.Hbond>
1.9177

> <Gold.Chemscore.Metal>
0.0000

> <Gold.Chemscore.Lipo>
92.9678

> <Gold.Chemscore.Internal_Hbond>
0.0000

> <Gold.Chemscore.DEClash>
1.2663

> <Gold.Chemscore.DEInternal>
2.9474

> <Gold.Chemscore.Rot>
1.0000

> <Gold.Chemscore.Internal.Correction>
   9.000000E+99

> <Gold.Chemscore.Hbonds>
donor molecule, donor type, donor heavy atom, donor atom, acceptor molecule, acceptor atom, score
      L1  H     7    28       P1  8028  0.99
      L1  H    10    29       P1  8028  0.90

> <Gold.Chemscore.Hbond.Weighted>
-6.4050

> <Gold.Chemscore.Metal.Weighted>
-0.0000

> <Gold.Chemscore.Lipo.Weighted>
-10.8772

> <Gold.Chemscore.Internal_Hbond.Weighted>
0.0000

> <Gold.Chemscore.DEClash.Weighted>
1.2663

> <Gold.Chemscore.DEInternal.Weighted>
2.9474

> <Gold.Chemscore.Rot.Weighted>
2.5600

> <Gold.Chemscore.Internal.Correction.Weighted>
   9.000000E+99

> <Gold.Protein.RotatedTorsions>
[ 6907 6896 6895 6894 ] final  117.68 input  -60.11 | X-H torsion
[ 7974 7965 7964 7962 ] final   71.72 input  175.53 | X-H torsion
[ 8008 7997 7996 7995 ] final  111.79 input   59.86 | X-H torsion
[ 10167 10162 10161 10158 ] final  -73.78 input  -65.29 | X-H torsion
[ 10718 10713 10712 10709 ] final   73.23 input   66.30 | X-H torsion
[ 10763 10752 10751 10750 ] final  -77.61 input  -60.55 | X-H torsion
[ 11005 11000 10999 10996 ] final -101.05 input  -57.11 | X-H torsion

> <Gold.Protein.ActiveResidues>
 VAL166  LYS551  ARG553  GLY616  TRP617  ASP618  TYR619  PRO620  LYS621  CYS622 
 ASP623  PHE694  ASN695  SER759  ASP760  ASP761  ALA762  ILE779  LEU786  VAL792 
 PHE793  MET794  SER795  GLU796  ALA797  LYS798  CYS799  TRP800  GLU811  SER814 

> <Gold.Protein.RotatedAtoms>
  152.4595  133.7792  159.6841 H   0  0  0  0  0  0  0  0  0  0  0  0  # atno 6907 bound_to 6896
  150.8533  133.7743  159.3024 H   0  0  0  0  0  0  0  0  0  0  0  0  # atno 6908 bound_to 6896
  151.5332  135.1071  159.9959 H   0  0  0  0  0  0  0  0  0  0  0  0  # atno 6909 bound_to 6896
  145.7623  139.2806  143.1369 H   0  0  0  0  0  0  0  0  0  0  0  0  # atno 7974 bound_to 7965
  156.2148  140.3012  155.9815 H   0  0  0  0  0  0  0  0  0  0  0  0  # atno 8008 bound_to 7997
  155.2632  140.0430  157.3016 H   0  0  0  0  0  0  0  0  0  0  0  0  # atno 8009 bound_to 7997
  154.5752  140.2359  155.8141 H   0  0  0  0  0  0  0  0  0  0  0  0  # atno 8010 bound_to 7997
  140.5081  143.2349  151.7639 H   0  0  0  0  0  0  0  0  0  0  0  0  # atno 10167 bound_to 10162
  157.6538  130.9618  150.1040 H   0  0  0  0  0  0  0  0  0  0  0  0  # atno 10718 bound_to 10713
  154.5152  135.5758  153.6636 H   0  0  0  0  0  0  0  0  0  0  0  0  # atno 10763 bound_to 10752
  152.9905  135.6168  154.2827 H   0  0  0  0  0  0  0  0  0  0  0  0  # atno 10764 bound_to 10752
  154.2744  135.2852  155.2704 H   0  0  0  0  0  0  0  0  0  0  0  0  # atno 10765 bound_to 10752
  141.1246  133.8447  157.1181 H   0  0  0  0  0  0  0  0  0  0  0  0  # atno 11005 bound_to 11000
  146.0252  140.8311  142.9903 LP  0  0  0  0  0  0  0  0  0  0  0  0  # atno 17320 bound_to 7965
  144.6828  140.2687  143.7309 LP  0  0  0  0  0  0  0  0  0  0  0  0  # atno 17321 bound_to 7965
  139.4889  144.4428  151.9744 LP  0  0  0  0  0  0  0  0  0  0  0  0  # atno 17342 bound_to 10162
  140.3520  144.3078  150.5948 LP  0  0  0  0  0  0  0  0  0  0  0  0  # atno 17343 bound_to 10162
  156.1955  130.3657  149.8855 LP  0  0  0  0  0  0  0  0  0  0  0  0  # atno 17370 bound_to 10713
  156.6773  130.8844  151.3571 LP  0  0  0  0  0  0  0  0  0  0  0  0  # atno 17371 bound_to 10713
  140.0233  134.9935  157.0636 LP  0  0  0  0  0  0  0  0  0  0  0  0  # atno 17394 bound_to 11000
  140.4403  134.1688  155.7173 LP  0  0  0  0  0  0  0  0  0  0  0  0  # atno 17395 bound_to 11000

$$$$
