AV-unprocessed.smi:2027|AV-procd|sdf|8214|dock4
  -GOLD-   2272010483D 1   1.00000     0.00000
 Structure written by MMmdl.
 50 52  0  0  0  0  0  0  0  0  2 V2000
  152.5925  143.1614  160.5461 C   0  0  0  0  0  0  0  0  0  0  0  0
  152.2433  142.3395  159.3178 C   0  0  0  0  0  0  0  0  0  0  0  0
  151.1465  142.7316  158.5177 C   0  0  0  0  0  0  0  0  0  0  0  0
  150.7905  141.9963  157.3661 C   0  0  0  0  0  0  0  0  0  0  0  0
  149.7729  142.1984  156.4495 N   0  0  0  0  0  0  0  0  0  0  0  0
  149.9630  141.1851  155.6098 C   0  0  0  0  0  0  0  0  0  0  0  0
  150.9853  140.3488  155.8736 N   0  0  0  0  0  0  0  0  0  0  0  0
  151.3833  139.1851  155.1019 C   0  0  0  0  0  0  0  0  0  0  0  0
  150.2230  138.1946  154.8843 C   0  0  1  0  0  0  0  0  0  0  0  0
  149.7617  138.2907  153.5493 O   0  0  0  0  0  0  0  0  0  0  0  0
  150.6550  136.7408  155.1493 C   0  0  0  0  0  0  0  0  0  0  0  0
  149.7058  135.7659  154.5484 N   0  3  2  0  0  0  0  0  0  0  0  0
  148.3735  135.7948  155.1946 C   0  0  0  0  0  0  0  0  0  0  0  0
  150.2495  134.3885  154.4497 C   0  0  0  0  0  0  0  0  0  0  0  0
  149.2229  133.4379  153.8930 C   0  0  0  0  0  0  0  0  0  0  0  0
  149.0935  132.0416  154.1447 C   0  0  0  0  0  0  0  0  0  0  0  0
  148.0930  131.4894  153.4793 N   0  0  0  0  0  0  0  0  0  0  0  0
  147.5421  132.5104  152.7914 N   0  0  0  0  0  0  0  0  0  0  0  0
  146.4010  132.2621  151.9365 C   0  0  0  0  0  0  0  0  0  0  0  0
  148.1998  133.6986  153.0247 C   0  0  0  0  0  0  0  0  0  0  0  0
  151.5665  140.8472  157.0351 C   0  0  0  0  0  0  0  0  0  0  0  0
  152.6592  140.4460  157.8242 C   0  0  0  0  0  0  0  0  0  0  0  0
  153.0030  141.1937  158.9699 C   0  0  0  0  0  0  0  0  0  0  0  0
  154.1878  140.7557  159.8126 C   0  0  0  0  0  0  0  0  0  0  0  0
  151.8967  143.9899  160.6817 H   0  0  0  0  0  0  0  0  0  0  0  0
  153.5955  143.5786  160.4538 H   0  0  0  0  0  0  0  0  0  0  0  0
  152.5544  142.5437  161.4437 H   0  0  0  0  0  0  0  0  0  0  0  0
  150.5682  143.6048  158.7819 H   0  0  0  0  0  0  0  0  0  0  0  0
  149.3229  141.0426  154.7514 H   0  0  0  0  0  0  0  0  0  0  0  0
  151.7849  139.5229  154.1455 H   0  0  0  0  0  0  0  0  0  0  0  0
  152.2040  138.6934  155.6257 H   0  0  0  0  0  0  0  0  0  0  0  0
  149.4007  138.4664  155.5468 H   0  0  0  0  0  0  0  0  0  0  0  0
  149.5599  137.4227  153.2336 H   0  0  0  0  0  0  0  0  0  0  0  0
  151.6608  136.6045  154.7515 H   0  0  0  0  0  0  0  0  0  0  0  0
  150.7371  136.5532  156.2209 H   0  0  0  0  0  0  0  0  0  0  0  0
  148.4318  135.4411  156.2249 H   0  0  0  0  0  0  0  0  0  0  0  0
  147.6697  135.1591  154.6560 H   0  0  0  0  0  0  0  0  0  0  0  0
  147.9608  136.8034  155.2029 H   0  0  0  0  0  0  0  0  0  0  0  0
  151.1568  134.4014  153.8439 H   0  0  0  0  0  0  0  0  0  0  0  0
  150.5561  134.0523  155.4411 H   0  0  0  0  0  0  0  0  0  0  0  0
  149.7015  131.4149  154.7806 H   0  0  0  0  0  0  0  0  0  0  0  0
  145.9568  133.2070  151.6221 H   0  0  0  0  0  0  0  0  0  0  0  0
  145.6510  131.6814  152.4748 H   0  0  0  0  0  0  0  0  0  0  0  0
  146.7180  131.7071  151.0533 H   0  0  0  0  0  0  0  0  0  0  0  0
  147.8939  134.6204  152.5518 H   0  0  0  0  0  0  0  0  0  0  0  0
  153.2303  139.5720  157.5486 H   0  0  0  0  0  0  0  0  0  0  0  0
  154.6574  139.8602  159.4046 H   0  0  0  0  0  0  0  0  0  0  0  0
  153.8706  140.5322  160.8314 H   0  0  0  0  0  0  0  0  0  0  0  0
  154.9421  141.5421  159.8488 H   0  0  0  0  0  0  0  0  0  0  0  0
  149.5652  136.0682  153.5945 H   0  0  0  0  0  0  0  0  0  0  0  0
  1  2  1  0  0  0  0
  1 25  1  0  0  0  0
  1 26  1  0  0  0  0
  1 27  1  0  0  0  0
  2 23  1  0  0  0  0
  2  3  2  0  0  0  0
  3  4  1  0  0  0  0
  3 28  1  0  0  0  0
  4 21  2  0  0  0  0
  4  5  1  0  0  0  0
  5  6  2  0  0  0  0
  6  7  1  0  0  0  0
  6 29  1  0  0  0  0
  7  8  1  0  0  0  0
  7 21  1  0  0  0  0
  8  9  1  0  0  0  0
  8 30  1  0  0  0  0
  8 31  1  0  0  0  0
  9 10  1  0  0  0  0
  9 11  1  0  0  0  0
  9 32  1  0  0  0  0
 10 33  1  0  0  0  0
 11 12  1  0  0  0  0
 11 34  1  0  0  0  0
 11 35  1  0  0  0  0
 12 13  1  0  0  0  0
 12 14  1  0  0  0  0
 12 50  1  0  0  0  0
 13 36  1  0  0  0  0
 13 37  1  0  0  0  0
 13 38  1  0  0  0  0
 14 15  1  0  0  0  0
 14 39  1  0  0  0  0
 14 40  1  0  0  0  0
 15 20  2  0  0  0  0
 15 16  1  0  0  0  0
 16 17  2  0  0  0  0
 16 41  1  0  0  0  0
 17 18  1  0  0  0  0
 18 19  1  0  0  0  0
 18 20  1  0  0  0  0
 19 42  1  0  0  0  0
 19 43  1  0  0  0  0
 19 44  1  0  0  0  0
 20 45  1  0  0  0  0
 21 22  1  0  0  0  0
 22 23  2  0  0  0  0
 22 46  1  0  0  0  0
 23 24  1  0  0  0  0
 24 47  1  0  0  0  0
 24 48  1  0  0  0  0
 24 49  1  0  0  0  0
M  CHG  1  12   1
M  END
> <s_m_source_file>
AV-unprocessed.smi

> <i_m_source_file_index>
2027

> <i_lp_mmshare_version>
43012

> <i_f3d_flags>
0

> <s_epik_input>
W0NIM11jKFtjSF0xKWMoW0NIM10pW2NIXWMoYzEyKW4oW2NIXW4yKVtDSDJdW0NASF0oW09IXSlbQ0gyXU4oW0NIM10pW0NIMl1jM1tjSF1ubihbQ0gzXSlbY0hdMw==

> <s_epik_cmdline>
J2VwaWtfcHl0aG9uJywgJy1waCcsICc3LjAnLCAnLXRuJywgJzgnLCAnLW1hJywgJzIwMCcsICctbWV0YWxfYmluZGluZycsICctaW1hZScsICc8aW5maWxlLm1hZT4nLCAnLW9tYWUnLCAnPG91dGZpbGUubWFlPic=

> <r_lp_tautomer_probability>
1

> <r_epik_Ionization_Penalty>
0.646578

> <r_epik_Ionization_Penalty_Charging>
0.559419

> <r_epik_Ionization_Penalty_Neutral>
0.087159

> <r_epik_State_Penalty>
0.661677

> <r_epik_Charging_Adjusted_Penalty>
1.2211

> <i_epik_Tot_Q>
1

> <i_epik_Tot_abs_Q>
1

> <r_epik_Metal_State_Penalty>
0.649174

> <b_epik_Metal_Only>
0

> <s_lp_Force_Field>
OPLS_2005

> <r_lp_Energy>
10.2185

> <b_lp_Chiralities_Consistent>
1

> <s_lp_Variant>
AV-unprocessed.smi:2027-6

> <Gold.Version>
5.8.1

> <Gold.Id.Protein>
6NUR|6NUR_protein|mol2

> <Gold.PLP.Fitness>
55.1159

> <Gold.PLP.PLP>
-45.9428

> <Gold.PLP.part.hbond>
-3.3693

> <Gold.PLP.part.metal>
0.0000

> <Gold.PLP.part.buried>
-3.6690

> <Gold.PLP.part.nonpolar>
-41.3238

> <Gold.PLP.part.repulsive>
2.4330

> <Gold.PLP.ligand.clash>
0.0000

> <Gold.PLP.ligand.torsion>
1.3209

> <Gold.PLP.Chemscore.Hbond>
2.8800

> <Gold.PLP.Chemscore.CHOScore>
1.0000

> <Gold.PLP.Chemscore.Metal>
0.0000

> <Gold.Chemscore.Hbonds>
donor molecule, donor type, donor heavy atom, donor atom, acceptor molecule, acceptor atom, score
      L1  H    10    33       P1  7948  1.00
      L1  H    12    50       P1  7948  2.00
      L1  C    20    45       P1  7948  0.94

> <Gold.PLP.Chemscore.Internal.Correction>
0.1748

> <Gold.Rescore>
     Score         DG    S(hbond)    S(metal)    S(lipo)     H(rot)  DE(clash)    DE(int)     intcor
     16.10     -17.78       1.87        0.00     106.40       2.50       0.38       1.29       ----

> <Gold.Chemscore.Fitness>
16.0996

> <Gold.Chemscore.DG>
-17.7760

> <Gold.Chemscore.ZeroCoef>
-5.4800

> <Gold.Chemscore.Hbond>
1.8742

> <Gold.Chemscore.Metal>
0.0000

> <Gold.Chemscore.Lipo>
106.3962

> <Gold.Chemscore.Internal_Hbond>
0.0000

> <Gold.Chemscore.DEClash>
0.3835

> <Gold.Chemscore.DEInternal>
1.2929

> <Gold.Chemscore.Rot>
2.5047

> <Gold.Chemscore.Internal.Correction>
   9.000000E+99

> <Gold.Chemscore.Hbonds>
donor molecule, donor type, donor heavy atom, donor atom, acceptor molecule, acceptor atom, score
      L1  H    10    33       P1  7948  0.78
      L1  H    12    50       P1  7948  0.40

> <Gold.Chemscore.Hbond.Weighted>
-6.2597

> <Gold.Chemscore.Metal.Weighted>
-0.0000

> <Gold.Chemscore.Lipo.Weighted>
-12.4483

> <Gold.Chemscore.Internal_Hbond.Weighted>
0.0000

> <Gold.Chemscore.DEClash.Weighted>
0.3835

> <Gold.Chemscore.DEInternal.Weighted>
1.2929

> <Gold.Chemscore.Rot.Weighted>
6.4120

> <Gold.Chemscore.Internal.Correction.Weighted>
   9.000000E+99

> <Gold.Protein.RotatedTorsions>
[ 6907 6896 6895 6894 ] final   54.20 input  -60.11 | X-H torsion
[ 7974 7965 7964 7962 ] final  -92.29 input  175.53 | X-H torsion
[ 8008 7997 7996 7995 ] final -133.57 input   59.86 | X-H torsion
[ 10167 10162 10161 10158 ] final   13.45 input  -65.29 | X-H torsion
[ 10718 10713 10712 10709 ] final  -93.70 input   66.30 | X-H torsion
[ 10763 10752 10751 10750 ] final  145.99 input  -60.55 | X-H torsion
[ 11005 11000 10999 10996 ] final -162.24 input  -57.11 | X-H torsion

> <Gold.Protein.ActiveResidues>
 VAL166  LYS551  ARG553  GLY616  TRP617  ASP618  TYR619  PRO620  LYS621  CYS622 
 ASP623  PHE694  ASN695  SER759  ASP760  ASP761  ALA762  ILE779  LEU786  VAL792 
 PHE793  MET794  SER795  GLU796  ALA797  LYS798  CYS799  TRP800  GLU811  SER814 

> <Gold.Protein.RotatedAtoms>
  152.3415  134.7128  160.0262 H   0  0  0  0  0  0  0  0  0  0  0  0  # atno 6907 bound_to 6896
  151.7511  133.3322  159.3400 H   0  0  0  0  0  0  0  0  0  0  0  0  # atno 6908 bound_to 6896
  150.7482  134.6123  159.6137 H   0  0  0  0  0  0  0  0  0  0  0  0  # atno 6909 bound_to 6896
  145.4018  140.9538  143.2283 H   0  0  0  0  0  0  0  0  0  0  0  0  # atno 7974 bound_to 7965
  155.3476  140.0475  157.3046 H   0  0  0  0  0  0  0  0  0  0  0  0  # atno 8008 bound_to 7997
  154.5244  140.2236  155.8881 H   0  0  0  0  0  0  0  0  0  0  0  0  # atno 8009 bound_to 7997
  156.1724  140.3093  155.9003 H   0  0  0  0  0  0  0  0  0  0  0  0  # atno 8010 bound_to 7997
  140.6002  143.8621  150.6957 H   0  0  0  0  0  0  0  0  0  0  0  0  # atno 10167 bound_to 10162
  156.0017  130.5037  150.5815 H   0  0  0  0  0  0  0  0  0  0  0  0  # atno 10718 bound_to 10713
  154.0144  135.2911  155.3388 H   0  0  0  0  0  0  0  0  0  0  0  0  # atno 10763 bound_to 10752
  154.7084  135.5160  153.8632 H   0  0  0  0  0  0  0  0  0  0  0  0  # atno 10764 bound_to 10752
  153.0708  135.6647  154.0373 H   0  0  0  0  0  0  0  0  0  0  0  0  # atno 10765 bound_to 10752
  140.6114  134.4845  157.5216 H   0  0  0  0  0  0  0  0  0  0  0  0  # atno 11005 bound_to 11000
  144.8368  139.5536  143.6918 LP  0  0  0  0  0  0  0  0  0  0  0  0  # atno 17320 bound_to 7965
  146.2748  139.6725  142.9271 LP  0  0  0  0  0  0  0  0  0  0  0  0  # atno 17321 bound_to 7965
  140.2165  143.3842  152.1677 LP  0  0  0  0  0  0  0  0  0  0  0  0  # atno 17342 bound_to 10162
  139.5285  144.7132  151.5140 LP  0  0  0  0  0  0  0  0  0  0  0  0  # atno 17343 bound_to 10162
  157.3694  131.0763  151.1570 LP  0  0  0  0  0  0  0  0  0  0  0  0  # atno 17370 bound_to 10713
  157.2328  130.6533  149.5857 LP  0  0  0  0  0  0  0  0  0  0  0  0  # atno 17371 bound_to 10713
  139.9190  134.8186  156.1270 LP  0  0  0  0  0  0  0  0  0  0  0  0  # atno 17394 bound_to 11000
  141.0805  133.6756  156.2327 LP  0  0  0  0  0  0  0  0  0  0  0  0  # atno 17395 bound_to 11000

$$$$
