AV-unprocessed.smi:101|AV-procd|sdf|923|dock4
  -GOLD-   2262017433D 1   1.00000     0.00000
 Structure written by MMmdl.
 44 46  0  0  0  0  0  0  0  0  1 V2000
  146.2082  141.9773  157.7608 C   0  0  0  0  0  0  0  0  0  0  0  0
  146.5603  141.1319  156.5482 C   0  0  0  0  0  0  0  0  0  0  0  0
  147.6669  140.3469  156.5049 C   0  0  0  0  0  0  0  0  0  0  0  0
  148.0166  139.5683  155.4102 N   0  0  0  0  0  0  0  0  0  0  0  0
  149.2633  138.7107  155.4431 C   0  0  2  0  0  0  0  0  0  0  0  0
  149.6694  138.5974  156.7697 O   0  0  0  0  0  0  0  0  0  0  0  0
  151.0861  138.5506  156.8148 C   0  0  2  0  0  0  0  0  0  0  0  0
  151.5708  138.9701  158.2068 C   0  0  0  0  0  0  0  0  0  0  0  0
  151.5646  140.3855  158.2927 O   0  0  0  0  0  0  0  0  0  0  0  0
  152.3581  141.0103  159.1840 C   0  0  0  0  0  0  0  0  0  0  0  0
  153.1356  140.4198  159.9363 O   0  0  0  0  0  0  0  0  0  0  0  0
  152.1971  142.4931  159.1654 C   0  0  0  0  0  0  0  0  0  0  0  0
  151.8343  143.1349  157.9581 C   0  0  0  0  0  0  0  0  0  0  0  0
  151.6741  144.5332  157.9090 C   0  0  0  0  0  0  0  0  0  0  0  0
  151.8737  145.3072  159.0670 C   0  0  0  0  0  0  0  0  0  0  0  0
  152.2349  144.6809  160.2742 C   0  0  0  0  0  0  0  0  0  0  0  0
  152.3961  143.2826  160.3252 C   0  0  0  0  0  0  0  0  0  0  0  0
  151.5058  139.5160  155.7033 C   0  0  1  0  0  0  0  0  0  0  0  0
  152.7883  139.1746  155.2150 O   0  0  0  0  0  0  0  0  0  0  0  0
  150.4400  139.3031  154.6325 C   0  0  2  0  0  0  0  0  0  0  0  0
  150.1456  140.5201  153.9699 O   0  0  0  0  0  0  0  0  0  0  0  0
  147.2021  139.5845  154.2593 C   0  0  0  0  0  0  0  0  0  0  0  0
  147.4621  138.9421  153.2428 O   0  0  0  0  0  0  0  0  0  0  0  0
  146.0627  140.3858  154.3052 N   0  0  0  0  0  0  0  0  0  0  0  0
  145.6668  141.1769  155.3870 C   0  0  0  0  0  0  0  0  0  0  0  0
  144.6351  141.8414  155.3074 O   0  0  0  0  0  0  0  0  0  0  0  0
  145.4738  140.3988  153.4851 H   0  0  0  0  0  0  0  0  0  0  0  0
  146.9477  141.8726  158.5554 H   0  0  0  0  0  0  0  0  0  0  0  0
  145.2394  141.6802  158.1640 H   0  0  0  0  0  0  0  0  0  0  0  0
  146.1579  143.0323  157.4886 H   0  0  0  0  0  0  0  0  0  0  0  0
  148.3183  140.3332  157.3675 H   0  0  0  0  0  0  0  0  0  0  0  0
  148.9870  137.7112  155.1036 H   0  0  0  0  0  0  0  0  0  0  0  0
  151.4107  137.5356  156.5761 H   0  0  0  0  0  0  0  0  0  0  0  0
  150.9043  138.5674  158.9708 H   0  0  0  0  0  0  0  0  0  0  0  0
  152.5696  138.5743  158.3971 H   0  0  0  0  0  0  0  0  0  0  0  0
  151.6751  142.5616  157.0559 H   0  0  0  0  0  0  0  0  0  0  0  0
  151.3972  145.0121  156.9814 H   0  0  0  0  0  0  0  0  0  0  0  0
  151.7503  146.3794  159.0291 H   0  0  0  0  0  0  0  0  0  0  0  0
  152.3887  145.2742  161.1637 H   0  0  0  0  0  0  0  0  0  0  0  0
  152.6730  142.8339  161.2682 H   0  0  0  0  0  0  0  0  0  0  0  0
  151.4923  140.5441  156.0703 H   0  0  0  0  0  0  0  0  0  0  0  0
  152.9320  138.2522  155.3615 H   0  0  0  0  0  0  0  0  0  0  0  0
  150.7489  138.5542  153.9015 H   0  0  0  0  0  0  0  0  0  0  0  0
  149.7119  140.3190  153.1546 H   0  0  0  0  0  0  0  0  0  0  0  0
  1  2  1  0  0  0  0
  1 28  1  0  0  0  0
  1 29  1  0  0  0  0
  1 30  1  0  0  0  0
  2 25  1  0  0  0  0
  2  3  2  0  0  0  0
  3  4  1  0  0  0  0
  3 31  1  0  0  0  0
  4  5  1  0  0  0  0
  4 22  1  0  0  0  0
  5 20  1  0  0  0  0
  5  6  1  0  0  0  0
  5 32  1  0  0  0  0
  6  7  1  0  0  0  0
  7  8  1  0  0  0  0
  7 18  1  0  0  0  0
  7 33  1  0  0  0  0
  8  9  1  0  0  0  0
  8 34  1  0  0  0  0
  8 35  1  0  0  0  0
  9 10  1  0  0  0  0
 10 11  2  0  0  0  0
 10 12  1  0  0  0  0
 12 17  1  0  0  0  0
 12 13  2  0  0  0  0
 13 14  1  0  0  0  0
 13 36  1  0  0  0  0
 14 15  2  0  0  0  0
 14 37  1  0  0  0  0
 15 16  1  0  0  0  0
 15 38  1  0  0  0  0
 16 17  2  0  0  0  0
 16 39  1  0  0  0  0
 17 40  1  0  0  0  0
 18 19  1  0  0  0  0
 18 20  1  0  0  0  0
 18 41  1  0  0  0  0
 19 42  1  0  0  0  0
 20 21  1  0  0  0  0
 20 43  1  0  0  0  0
 21 44  1  0  0  0  0
 22 23  2  0  0  0  0
 22 24  1  0  0  0  0
 24 27  1  0  0  0  0
 24 25  1  0  0  0  0
 25 26  2  0  0  0  0
M  END
> <s_m_source_file>
AV-unprocessed.smi

> <i_m_source_file_index>
101

> <i_lp_mmshare_version>
43012

> <i_f3d_flags>
0

> <s_epik_input>
Tz1jMVtuSF1jKD1PKW4oW2NIXWMxW0NIM10pW0NAQEhdMk9bQ0BIXShbQ0BASF0oW09IXSlbQ0BIXTJbT0hdKVtDSDJdT0MoPU8pYzNbY0hdW2NIXVtjSF1bY0hdW2NIXTM=

> <s_epik_cmdline>
J2VwaWtfcHl0aG9uJywgJy1waCcsICc3LjAnLCAnLXRuJywgJzgnLCAnLW1hJywgJzIwMCcsICctbWV0YWxfYmluZGluZycsICctaW1hZScsICc8aW5maWxlLm1hZT4nLCAnLW9tYWUnLCAnPG91dGZpbGUubWFlPic=

> <r_lp_tautomer_probability>
0.999537

> <r_epik_Ionization_Penalty>
0.00263537

> <r_epik_Ionization_Penalty_Charging>
0.00263428

> <r_epik_Ionization_Penalty_Neutral>
1.09111e-06

> <r_epik_State_Penalty>
0.00183335

> <r_epik_Charging_Adjusted_Penalty>
0.00446763

> <i_epik_Tot_Q>
0

> <i_epik_Tot_abs_Q>
0

> <r_epik_Metal_State_Penalty>
1.00528

> <b_epik_Metal_Only>
0

> <s_epik_Chemistry_Notes>
This compound has an ester and may undergo hydrolysis at high or low pH. This compound contains an acetal/aminal-like group ( X-CH(R)-Y where X, Y are N, S, or O) that may be acid/base labile, releasing an aldehyde.

> <s_lp_Force_Field>
OPLS_2005

> <r_lp_Energy>
35.5527

> <b_lp_Chiralities_Consistent>
1

> <s_lp_Variant>
AV-unprocessed.smi:101-11

> <Gold.Version>
5.8.1

> <Gold.Id.Protein>
6NUR|6NUR_protein|mol2

> <Gold.PLP.Fitness>
49.5926

> <Gold.PLP.PLP>
-40.6151

> <Gold.PLP.part.hbond>
-3.5798

> <Gold.PLP.part.metal>
0.0000

> <Gold.PLP.part.buried>
-7.7407

> <Gold.PLP.part.nonpolar>
-30.1572

> <Gold.PLP.part.repulsive>
0.3874

> <Gold.PLP.ligand.clash>
0.0000

> <Gold.PLP.ligand.torsion>
1.1616

> <Gold.PLP.Chemscore.Hbond>
3.6330

> <Gold.PLP.Chemscore.CHOScore>
0.0000

> <Gold.PLP.Chemscore.Metal>
0.0000

> <Gold.Chemscore.Hbonds>
donor molecule, donor type, donor heavy atom, donor atom, acceptor molecule, acceptor atom, score
      L1  H    21    44       P1  7957  1.00
      L1  H    24    27       P1 10175  0.94
      P1  H  7989  7998       L1    21  0.70
      P1  H  7997  8008       L1    19  0.94

> <Gold.PLP.Chemscore.Internal.Correction>
0.4019

> <Gold.Rescore>
     Score         DG    S(hbond)    S(metal)    S(lipo)     H(rot)  DE(clash)    DE(int)     intcor
     16.49     -18.04       2.82        0.00      99.36       3.32       0.14       1.41       ----

> <Gold.Chemscore.Fitness>
16.4900

> <Gold.Chemscore.DG>
-18.0396

> <Gold.Chemscore.ZeroCoef>
-5.4800

> <Gold.Chemscore.Hbond>
2.8224

> <Gold.Chemscore.Metal>
0.0000

> <Gold.Chemscore.Lipo>
99.3585

> <Gold.Chemscore.Internal_Hbond>
0.0000

> <Gold.Chemscore.DEClash>
0.1374

> <Gold.Chemscore.DEInternal>
1.4121

> <Gold.Chemscore.Rot>
3.3172

> <Gold.Chemscore.Internal.Correction>
   9.000000E+99

> <Gold.Chemscore.Hbonds>
donor molecule, donor type, donor heavy atom, donor atom, acceptor molecule, acceptor atom, score
      L1  H    21    44       P1  7957  0.93
      L1  H    24    27       P1 10175  0.87
      P1  H  7989  7998       L1    21  0.05
      P1  H  7997  8008       L1    19  0.52

> <Gold.Chemscore.Hbond.Weighted>
-9.4267

> <Gold.Chemscore.Metal.Weighted>
-0.0000

> <Gold.Chemscore.Lipo.Weighted>
-11.6249

> <Gold.Chemscore.Internal_Hbond.Weighted>
0.0000

> <Gold.Chemscore.DEClash.Weighted>
0.1374

> <Gold.Chemscore.DEInternal.Weighted>
1.4121

> <Gold.Chemscore.Rot.Weighted>
8.4920

> <Gold.Chemscore.Internal.Correction.Weighted>
   9.000000E+99

> <Gold.Protein.RotatedTorsions>
[ 6907 6896 6895 6894 ] final -101.84 input  -60.11 | X-H torsion
[ 7974 7965 7964 7962 ] final -115.10 input  175.53 | X-H torsion
[ 8008 7997 7996 7995 ] final  -22.14 input   59.86 | X-H torsion
[ 10167 10162 10161 10158 ] final -100.32 input  -65.29 | X-H torsion
[ 10718 10713 10712 10709 ] final -150.25 input   66.30 | X-H torsion
[ 10763 10752 10751 10750 ] final  -63.62 input  -60.55 | X-H torsion
[ 11005 11000 10999 10996 ] final   84.23 input  -57.11 | X-H torsion

> <Gold.Protein.ActiveResidues>
 VAL166  LYS551  ARG553  GLY616  TRP617  ASP618  TYR619  PRO620  LYS621  CYS622 
 ASP623  PHE694  ASN695  SER759  ASP760  ASP761  ALA762  ILE779  LEU786  VAL792 
 PHE793  MET794  SER795  GLU796  ALA797  LYS798  CYS799  TRP800  GLU811  SER814 

> <Gold.Protein.RotatedAtoms>
  150.7171  134.0672  159.3851 H   0  0  0  0  0  0  0  0  0  0  0  0  # atno 6907 bound_to 6896
  151.8653  135.0507  160.0483 H   0  0  0  0  0  0  0  0  0  0  0  0  # atno 6908 bound_to 6896
  152.2685  133.5325  159.5461 H   0  0  0  0  0  0  0  0  0  0  0  0  # atno 6909 bound_to 6896
  145.1124  140.8619  143.3862 H   0  0  0  0  0  0  0  0  0  0  0  0  # atno 7974 bound_to 7965
  154.4662  140.2016  156.0112 H   0  0  0  0  0  0  0  0  0  0  0  0  # atno 8008 bound_to 7997
  156.0931  140.3255  155.7813 H   0  0  0  0  0  0  0  0  0  0  0  0  # atno 8009 bound_to 7997
  155.4923  140.0547  157.2942 H   0  0  0  0  0  0  0  0  0  0  0  0  # atno 8010 bound_to 7997
  140.2531  143.3458  152.0696 H   0  0  0  0  0  0  0  0  0  0  0  0  # atno 10167 bound_to 10162
  156.4436  130.8134  151.2364 H   0  0  0  0  0  0  0  0  0  0  0  0  # atno 10718 bound_to 10713
  154.3177  135.6202  153.5494 H   0  0  0  0  0  0  0  0  0  0  0  0  # atno 10763 bound_to 10752
  152.9823  135.5716  154.5105 H   0  0  0  0  0  0  0  0  0  0  0  0  # atno 10764 bound_to 10752
  154.4767  135.2861  155.1578 H   0  0  0  0  0  0  0  0  0  0  0  0  # atno 10765 bound_to 10752
  139.9006  134.8202  156.2417 H   0  0  0  0  0  0  0  0  0  0  0  0  # atno 11005 bound_to 11000
  145.0832  139.2944  143.5773 LP  0  0  0  0  0  0  0  0  0  0  0  0  # atno 17320 bound_to 7965
  146.3525  140.0345  142.8648 LP  0  0  0  0  0  0  0  0  0  0  0  0  # atno 17321 bound_to 7965
  139.5040  144.6766  151.6112 LP  0  0  0  0  0  0  0  0  0  0  0  0  # atno 17342 bound_to 10162
  140.6025  143.9585  150.6396 LP  0  0  0  0  0  0  0  0  0  0  0  0  # atno 17343 bound_to 10162
  157.7505  131.0160  150.3527 LP  0  0  0  0  0  0  0  0  0  0  0  0  # atno 17370 bound_to 10713
  156.3890  130.3894  149.7044 LP  0  0  0  0  0  0  0  0  0  0  0  0  # atno 17371 bound_to 10713
  141.0280  133.7004  156.1382 LP  0  0  0  0  0  0  0  0  0  0  0  0  # atno 17394 bound_to 11000
  140.7137  134.4433  157.5580 LP  0  0  0  0  0  0  0  0  0  0  0  0  # atno 17395 bound_to 11000

$$$$
