AV-unprocessed.smi:33|AV-procd|sdf|199|dock4
  -GOLD-   2262015473D 1   1.00000     0.00000
 Structure written by MMmdl.
 67 72  0  0  0  0  0  0  0  0  1 V2000
  153.4805  140.2974  158.2791 O   0  0  0  0  0  0  0  0  0  0  0  0
  152.4536  140.9788  158.3039 C   0  0  0  0  0  0  0  0  0  0  0  0
  151.4451  140.8391  157.4238 O   0  0  0  0  0  0  0  0  0  0  0  0
  151.6740  140.2219  156.1680 C   0  0  0  0  0  0  0  0  0  0  0  0
  150.8168  138.9551  156.0886 C   0  0  2  0  0  0  0  0  0  0  0  0
  151.3847  138.0095  155.1923 O   0  0  0  0  0  0  0  0  0  0  0  0
  150.4116  137.0678  154.8533 C   0  0  1  0  0  0  0  0  0  0  0  0
  150.6106  135.8525  155.7103 N   0  0  0  0  0  0  0  0  0  0  0  0
  150.8101  135.7602  157.0731 C   0  0  0  0  0  0  0  0  0  0  0  0
  150.9593  134.5478  157.5348 N   0  0  0  0  0  0  0  0  0  0  0  0
  150.8671  133.7451  156.4055 C   0  0  0  0  0  0  0  0  0  0  0  0
  150.9376  132.3449  156.1771 C   0  0  0  0  0  0  0  0  0  0  0  0
  151.1234  131.4474  157.1731 N   0  0  0  0  0  0  0  0  0  0  0  0
  152.1214  130.3927  156.9431 C   0  0  0  0  0  0  0  0  0  0  0  0
  152.0220  129.3200  157.5419 O   0  0  0  0  0  0  0  0  0  0  0  0
  153.2318  130.5981  155.9523 C   0  0  0  0  0  0  0  0  0  0  0  0
  153.5313  129.5931  155.0066 C   0  0  0  0  0  0  0  0  0  0  0  0
  154.5815  129.7750  154.0858 C   0  0  0  0  0  0  0  0  0  0  0  0
  155.3497  130.9543  154.1167 C   0  0  0  0  0  0  0  0  0  0  0  0
  155.0751  131.9475  155.0759 C   0  0  0  0  0  0  0  0  0  0  0  0
  154.0254  131.7665  155.9970 C   0  0  0  0  0  0  0  0  0  0  0  0
  150.3109  131.6076  158.3880 C   0  0  0  0  0  0  0  0  0  0  0  0
  149.2310  132.1983  158.3234 O   0  0  0  0  0  0  0  0  0  0  0  0
  150.7609  131.0090  159.6904 C   0  0  0  0  0  0  0  0  0  0  0  0
  149.8217  130.7603  160.7152 C   0  0  0  0  0  0  0  0  0  0  0  0
  150.2392  130.2102  161.9425 C   0  0  0  0  0  0  0  0  0  0  0  0
  151.6003  129.9241  162.1602 C   0  0  0  0  0  0  0  0  0  0  0  0
  152.5458  130.1964  161.1532 C   0  0  0  0  0  0  0  0  0  0  0  0
  152.1290  130.7444  159.9248 C   0  0  0  0  0  0  0  0  0  0  0  0
  150.8099  131.9002  154.8997 N   0  0  0  0  0  0  0  0  0  0  0  0
  150.6217  132.7756  153.9073 C   0  0  0  0  0  0  0  0  0  0  0  0
  150.5301  134.1066  153.9728 N   0  0  0  0  0  0  0  0  0  0  0  0
  150.6605  134.5533  155.2555 C   0  0  0  0  0  0  0  0  0  0  0  0
  149.0342  137.7421  155.0826 C   0  0  1  0  0  0  0  0  0  0  0  0
  148.2373  137.1441  156.0907 O   0  0  0  0  0  0  0  0  0  0  0  0
  149.4229  139.1546  155.4980 C   0  0  2  0  0  0  0  0  0  0  0  0
  149.4799  139.9367  154.4178 F   0  0  0  0  0  0  0  0  0  0  0  0
  152.1963  142.0460  159.3136 C   0  0  0  0  0  0  0  0  0  0  0  0
  152.9726  142.0840  160.4953 C   0  0  0  0  0  0  0  0  0  0  0  0
  152.7521  143.0797  161.4668 C   0  0  0  0  0  0  0  0  0  0  0  0
  151.7521  144.0495  161.2687 C   0  0  0  0  0  0  0  0  0  0  0  0
  150.9724  144.0220  160.0978 C   0  0  0  0  0  0  0  0  0  0  0  0
  151.1918  143.0275  159.1247 C   0  0  0  0  0  0  0  0  0  0  0  0
  151.3907  140.9140  155.3739 H   0  0  0  0  0  0  0  0  0  0  0  0
  152.7308  139.9826  156.0413 H   0  0  0  0  0  0  0  0  0  0  0  0
  150.7183  138.5112  157.0807 H   0  0  0  0  0  0  0  0  0  0  0  0
  150.5646  136.7110  153.8341 H   0  0  0  0  0  0  0  0  0  0  0  0
  150.8444  136.6205  157.7254 H   0  0  0  0  0  0  0  0  0  0  0  0
  152.9486  128.6839  154.9742 H   0  0  0  0  0  0  0  0  0  0  0  0
  154.7982  129.0087  153.3562 H   0  0  0  0  0  0  0  0  0  0  0  0
  156.1543  131.0939  153.4099 H   0  0  0  0  0  0  0  0  0  0  0  0
  155.6709  132.8477  155.1071 H   0  0  0  0  0  0  0  0  0  0  0  0
  153.8274  132.5327  156.7330 H   0  0  0  0  0  0  0  0  0  0  0  0
  148.7743  130.9752  160.5588 H   0  0  0  0  0  0  0  0  0  0  0  0
  149.5143  130.0081  162.7172 H   0  0  0  0  0  0  0  0  0  0  0  0
  151.9199  129.5018  163.1015 H   0  0  0  0  0  0  0  0  0  0  0  0
  153.5914  129.9862  161.3225 H   0  0  0  0  0  0  0  0  0  0  0  0
  152.8642  130.9531  159.1607 H   0  0  0  0  0  0  0  0  0  0  0  0
  150.5295  132.3487  152.9195 H   0  0  0  0  0  0  0  0  0  0  0  0
  148.4697  137.7411  154.1495 H   0  0  0  0  0  0  0  0  0  0  0  0
  148.8117  136.7678  156.7404 H   0  0  0  0  0  0  0  0  0  0  0  0
  148.7228  139.6188  156.1938 H   0  0  0  0  0  0  0  0  0  0  0  0
  153.7458  141.3496  160.6699 H   0  0  0  0  0  0  0  0  0  0  0  0
  153.3514  143.0985  162.3650 H   0  0  0  0  0  0  0  0  0  0  0  0
  151.5829  144.8128  162.0138 H   0  0  0  0  0  0  0  0  0  0  0  0
  150.2040  144.7654  159.9447 H   0  0  0  0  0  0  0  0  0  0  0  0
  150.5751  143.0357  158.2379 H   0  0  0  0  0  0  0  0  0  0  0  0
  1  2  2  0  0  0  0
  2  3  1  0  0  0  0
  2 38  1  0  0  0  0
  3  4  1  0  0  0  0
  4  5  1  0  0  0  0
  4 44  1  0  0  0  0
  4 45  1  0  0  0  0
  5 36  1  0  0  0  0
  5  6  1  0  0  0  0
  5 46  1  0  0  0  0
  6  7  1  0  0  0  0
  7  8  1  0  0  0  0
  7 34  1  0  0  0  0
  7 47  1  0  0  0  0
  8 33  1  0  0  0  0
  8  9  1  0  0  0  0
  9 10  2  0  0  0  0
  9 48  1  0  0  0  0
 10 11  1  0  0  0  0
 11 33  2  0  0  0  0
 11 12  1  0  0  0  0
 12 13  1  0  0  0  0
 12 30  2  0  0  0  0
 13 14  1  0  0  0  0
 13 22  1  0  0  0  0
 14 15  2  0  0  0  0
 14 16  1  0  0  0  0
 16 21  1  0  0  0  0
 16 17  2  0  0  0  0
 17 18  1  0  0  0  0
 17 49  1  0  0  0  0
 18 19  2  0  0  0  0
 18 50  1  0  0  0  0
 19 20  1  0  0  0  0
 19 51  1  0  0  0  0
 20 21  2  0  0  0  0
 20 52  1  0  0  0  0
 21 53  1  0  0  0  0
 22 23  2  0  0  0  0
 22 24  1  0  0  0  0
 24 29  1  0  0  0  0
 24 25  2  0  0  0  0
 25 26  1  0  0  0  0
 25 54  1  0  0  0  0
 26 27  2  0  0  0  0
 26 55  1  0  0  0  0
 27 28  1  0  0  0  0
 27 56  1  0  0  0  0
 28 29  2  0  0  0  0
 28 57  1  0  0  0  0
 29 58  1  0  0  0  0
 30 31  1  0  0  0  0
 31 32  2  0  0  0  0
 31 59  1  0  0  0  0
 32 33  1  0  0  0  0
 34 35  1  0  0  0  0
 34 36  1  0  0  0  0
 34 60  1  0  0  0  0
 35 61  1  0  0  0  0
 36 37  1  0  0  0  0
 36 62  1  0  0  0  0
 38 43  1  0  0  0  0
 38 39  2  0  0  0  0
 39 40  1  0  0  0  0
 39 63  1  0  0  0  0
 40 41  2  0  0  0  0
 40 64  1  0  0  0  0
 41 42  1  0  0  0  0
 41 65  1  0  0  0  0
 42 43  2  0  0  0  0
 42 66  1  0  0  0  0
 43 67  1  0  0  0  0
M  END
> <s_m_source_file>
AV-unprocessed.smi

> <i_m_source_file_index>
33

> <i_lp_mmshare_version>
43012

> <i_f3d_flags>
0

> <s_epik_input>
W2NIXTFbY0hdW2NIXVtjSF1bY0hdYzFDKD1PKU9bQ0gyXVtDQEBIXTJPW0NASF0oW0NAQEhdKFtPSF0pW0NAQEhdMkYpbihbY0hdbjMpYyhjMzQpbltjSF1uYzROKEMoPU8pYzVbY0hdW2NIXVtjSF1bY0hdW2NIXTUpQyg9TyljNltjSF1bY0hdW2NIXVtjSF1bY0hdNg==

> <s_epik_cmdline>
J2VwaWtfcHl0aG9uJywgJy1waCcsICc3LjAnLCAnLXRuJywgJzgnLCAnLW1hJywgJzIwMCcsICctbWV0YWxfYmluZGluZycsICctaW1hZScsICc8aW5maWxlLm1hZT4nLCAnLW9tYWUnLCAnPG91dGZpbGUubWFlPic=

> <r_lp_tautomer_probability>
1

> <r_epik_Ionization_Penalty>
0.00067664

> <r_epik_Ionization_Penalty_Charging>
0

> <r_epik_Ionization_Penalty_Neutral>
0.00067664

> <r_epik_State_Penalty>
0.000428095

> <r_epik_Charging_Adjusted_Penalty>
0.000428095

> <i_epik_Tot_Q>
0

> <i_epik_Tot_abs_Q>
0

> <r_epik_Metal_State_Penalty>
-0

> <b_epik_Metal_Only>
0

> <s_epik_Chemistry_Notes>
This compound has an ester and may undergo hydrolysis at high or low pH. This compound contains an acetal/aminal-like group ( X-CH(R)-Y where X, Y are N, S, or O) that may be acid/base labile, releasing an aldehyde.

> <s_lp_Force_Field>
OPLS_2005

> <r_lp_Energy>
71.8737

> <b_lp_Chiralities_Consistent>
1

> <s_lp_Variant>
AV-unprocessed.smi:33-1

> <Gold.Version>
5.8.1

> <Gold.Id.Protein>
6NUR|6NUR_protein|mol2

> <Gold.PLP.Fitness>
60.1690

> <Gold.PLP.PLP>
-56.4176

> <Gold.PLP.part.hbond>
-2.0000

> <Gold.PLP.part.metal>
0.0000

> <Gold.PLP.part.buried>
-6.1041

> <Gold.PLP.part.nonpolar>
-48.8947

> <Gold.PLP.part.repulsive>
0.2370

> <Gold.PLP.ligand.clash>
0.0000

> <Gold.PLP.ligand.torsion>
3.6415

> <Gold.PLP.Chemscore.Hbond>
1.9120

> <Gold.PLP.Chemscore.CHOScore>
0.0000

> <Gold.PLP.Chemscore.Metal>
0.0000

> <Gold.Chemscore.Hbonds>
donor molecule, donor type, donor heavy atom, donor atom, acceptor molecule, acceptor atom, score
      P1  H  6896  6907       L1    10  0.32
      P1  H  7997  8010       L1     1  0.88

> <Gold.PLP.Chemscore.Internal.Correction>
5.2986

> <Gold.Rescore>
     Score         DG    S(hbond)    S(metal)    S(lipo)     H(rot)  DE(clash)    DE(int)     intcor
     11.10     -21.86       1.77        0.00     144.67       2.52       1.20       9.55       ----

> <Gold.Chemscore.Fitness>
11.1037

> <Gold.Chemscore.DG>
-21.8585

> <Gold.Chemscore.ZeroCoef>
-5.4800

> <Gold.Chemscore.Hbond>
1.7711

> <Gold.Chemscore.Metal>
0.0000

> <Gold.Chemscore.Lipo>
144.6707

> <Gold.Chemscore.Internal_Hbond>
0.0000

> <Gold.Chemscore.DEClash>
1.2031

> <Gold.Chemscore.DEInternal>
9.5517

> <Gold.Chemscore.Rot>
2.5247

> <Gold.Chemscore.Internal.Correction>
   9.000000E+99

> <Gold.Chemscore.Hbonds>
donor molecule, donor type, donor heavy atom, donor atom, acceptor molecule, acceptor atom, score
      P1  H  6896  6907       L1    10  0.32
      P1  H  7997  8010       L1     1  0.86

> <Gold.Chemscore.Hbond.Weighted>
-5.9153

> <Gold.Chemscore.Metal.Weighted>
-0.0000

> <Gold.Chemscore.Lipo.Weighted>
-16.9265

> <Gold.Chemscore.Internal_Hbond.Weighted>
0.0000

> <Gold.Chemscore.DEClash.Weighted>
1.2031

> <Gold.Chemscore.DEInternal.Weighted>
9.5517

> <Gold.Chemscore.Rot.Weighted>
6.4633

> <Gold.Chemscore.Internal.Correction.Weighted>
   9.000000E+99

> <Gold.Protein.RotatedTorsions>
[ 6907 6896 6895 6894 ] final -102.64 input  -60.11 | X-H torsion
[ 7974 7965 7964 7962 ] final  141.85 input  175.53 | X-H torsion
[ 8008 7997 7996 7995 ] final   33.99 input   59.86 | X-H torsion
[ 10167 10162 10161 10158 ] final  -35.00 input  -65.29 | X-H torsion
[ 10718 10713 10712 10709 ] final   67.30 input   66.30 | X-H torsion
[ 10763 10752 10751 10750 ] final   63.67 input  -60.55 | X-H torsion
[ 11005 11000 10999 10996 ] final -125.30 input  -57.11 | X-H torsion

> <Gold.Protein.ActiveResidues>
 VAL166  LYS551  ARG553  GLY616  TRP617  ASP618  TYR619  PRO620  LYS621  CYS622 
 ASP623  PHE694  ASN695  SER759  ASP760  ASP761  ALA762  ILE779  LEU786  VAL792 
 PHE793  MET794  SER795  GLU796  ALA797  LYS798  CYS799  TRP800  GLU811  SER814 

> <Gold.Protein.RotatedAtoms>
  150.7205  134.0551  159.3811 H   0  0  0  0  0  0  0  0  0  0  0  0  # atno 6907 bound_to 6896
  151.8529  135.0549  160.0470 H   0  0  0  0  0  0  0  0  0  0  0  0  # atno 6908 bound_to 6896
  152.2777  133.5405  159.5514 H   0  0  0  0  0  0  0  0  0  0  0  0  # atno 6909 bound_to 6896
  144.9059  139.5359  143.5731 H   0  0  0  0  0  0  0  0  0  0  0  0  # atno 7974 bound_to 7965
  155.1475  140.3272  155.4438 H   0  0  0  0  0  0  0  0  0  0  0  0  # atno 8008 bound_to 7997
  156.2585  140.1983  156.6538 H   0  0  0  0  0  0  0  0  0  0  0  0  # atno 8009 bound_to 7997
  154.6497  140.0560  156.9928 H   0  0  0  0  0  0  0  0  0  0  0  0  # atno 8010 bound_to 7997
  140.7174  143.3508  151.2160 H   0  0  0  0  0  0  0  0  0  0  0  0  # atno 10167 bound_to 10162
  157.6222  130.9313  150.0224 H   0  0  0  0  0  0  0  0  0  0  0  0  # atno 10718 bound_to 10713
  153.0026  135.5421  154.6388 H   0  0  0  0  0  0  0  0  0  0  0  0  # atno 10763 bound_to 10752
  154.5648  135.2837  155.0886 H   0  0  0  0  0  0  0  0  0  0  0  0  # atno 10764 bound_to 10752
  154.2075  135.6473  153.5158 H   0  0  0  0  0  0  0  0  0  0  0  0  # atno 10765 bound_to 10752
  140.9773  134.0722  157.3804 H   0  0  0  0  0  0  0  0  0  0  0  0  # atno 11005 bound_to 11000
  146.3133  139.7827  142.9003 LP  0  0  0  0  0  0  0  0  0  0  0  0  # atno 17320 bound_to 7965
  145.3536  141.0312  143.3324 LP  0  0  0  0  0  0  0  0  0  0  0  0  # atno 17321 bound_to 7965
  139.7038  143.9489  152.2917 LP  0  0  0  0  0  0  0  0  0  0  0  0  # atno 17342 bound_to 10162
  139.9191  144.6810  150.8480 LP  0  0  0  0  0  0  0  0  0  0  0  0  # atno 17343 bound_to 10162
  156.1373  130.3642  149.9637 LP  0  0  0  0  0  0  0  0  0  0  0  0  # atno 17370 bound_to 10713
  156.7685  130.9177  151.3643 LP  0  0  0  0  0  0  0  0  0  0  0  0  # atno 17371 bound_to 10713
  139.8936  135.0131  156.6906 LP  0  0  0  0  0  0  0  0  0  0  0  0  # atno 17394 bound_to 11000
  140.7239  133.9117  155.8165 LP  0  0  0  0  0  0  0  0  0  0  0  0  # atno 17395 bound_to 11000

$$$$
