AV-unprocessed.smi:30|AV-procd|sdf|194|dock1
  -GOLD-   2262015463D 1   1.00000     0.00000
 Structure written by MMmdl.
 54 57  0  0  0  0  0  0  0  0  1 V2000
  150.5217  134.6140  156.3056 O   0  0  0  0  0  0  0  0  0  0  0  0
  149.8640  134.8011  155.2812 C   0  0  0  0  0  0  0  0  0  0  0  0
  149.2157  133.6192  154.5425 C   0  0  0  0  0  0  0  0  0  0  0  0
  147.7784  133.8144  154.2504 N   0  0  0  0  0  0  0  0  0  0  0  0
  146.9212  134.2153  155.3058 C   0  0  0  0  0  0  0  0  0  0  0  0
  147.3557  134.4076  156.4424 O   0  0  0  0  0  0  0  0  0  0  0  0
  145.5145  134.3692  154.9520 C   0  0  0  0  0  0  0  0  0  0  0  0
  144.6278  134.7388  155.8918 F   0  0  0  0  0  0  0  0  0  0  0  0
  145.0870  134.1432  153.6930 C   0  0  0  0  0  0  0  0  0  0  0  0
  145.9360  133.7593  152.6719 N   0  0  0  0  0  0  0  0  0  0  0  0
  145.4097  133.5047  151.2786 C   0  0  1  0  0  0  0  0  0  0  0  0
  145.8075  132.1005  150.8078 C   0  0  0  0  0  0  0  0  0  0  0  0
  144.5429  131.3084  151.0631 C   0  0  0  0  0  0  0  0  0  0  0  0
  143.4674  132.3553  150.8008 C   0  0  0  0  0  0  0  0  0  0  0  0
  144.0128  133.5695  151.3053 O   0  0  0  0  0  0  0  0  0  0  0  0
  147.3090  133.5663  152.9382 C   0  0  0  0  0  0  0  0  0  0  0  0
  148.0753  133.1812  152.0527 O   0  0  0  0  0  0  0  0  0  0  0  0
  149.6787  136.0020  154.7033 N   0  0  0  0  0  0  0  0  0  0  0  0
  150.1060  137.2816  155.1509 C   0  0  0  0  0  0  0  0  0  0  0  0
  151.0046  137.3206  156.2353 C   0  0  0  0  0  0  0  0  0  0  0  0
  151.4950  138.5506  156.7135 C   0  0  0  0  0  0  0  0  0  0  0  0
  151.1088  139.7650  156.1118 C   0  0  0  0  0  0  0  0  0  0  0  0
  151.6427  140.9226  156.6368 O   0  0  0  0  0  0  0  0  0  0  0  0
  152.0580  140.9168  157.9970 C   0  0  0  0  0  0  0  0  0  0  0  0
  152.1093  142.3176  158.5764 C   0  0  0  0  0  0  0  0  0  0  0  0
  152.4797  142.5148  159.9237 C   0  0  0  0  0  0  0  0  0  0  0  0
  152.5092  143.8137  160.4679 C   0  0  0  0  0  0  0  0  0  0  0  0
  152.1629  144.9205  159.6689 C   0  0  0  0  0  0  0  0  0  0  0  0
  151.7853  144.7275  158.3260 C   0  0  0  0  0  0  0  0  0  0  0  0
  151.7554  143.4286  157.7815 C   0  0  0  0  0  0  0  0  0  0  0  0
  150.2135  139.7252  155.0141 C   0  0  0  0  0  0  0  0  0  0  0  0
  149.7205  138.4958  154.5353 C   0  0  0  0  0  0  0  0  0  0  0  0
  149.7710  133.4368  153.6207 H   0  0  0  0  0  0  0  0  0  0  0  0
  149.3806  132.7152  155.1307 H   0  0  0  0  0  0  0  0  0  0  0  0
  144.0341  134.2657  153.4866 H   0  0  0  0  0  0  0  0  0  0  0  0
  145.7947  134.3052  150.6451 H   0  0  0  0  0  0  0  0  0  0  0  0
  146.0236  132.1408  149.7395 H   0  0  0  0  0  0  0  0  0  0  0  0
  146.6847  131.7185  151.3317 H   0  0  0  0  0  0  0  0  0  0  0  0
  144.4504  130.4314  150.4221 H   0  0  0  0  0  0  0  0  0  0  0  0
  144.5056  130.9787  152.1021 H   0  0  0  0  0  0  0  0  0  0  0  0
  143.2945  132.4643  149.7293 H   0  0  0  0  0  0  0  0  0  0  0  0
  142.5174  132.1138  151.2773 H   0  0  0  0  0  0  0  0  0  0  0  0
  149.2098  135.9919  153.8094 H   0  0  0  0  0  0  0  0  0  0  0  0
  151.3222  136.4034  156.7096 H   0  0  0  0  0  0  0  0  0  0  0  0
  152.1802  138.5614  157.5483 H   0  0  0  0  0  0  0  0  0  0  0  0
  151.3714  140.3093  158.5891 H   0  0  0  0  0  0  0  0  0  0  0  0
  153.0546  140.4819  158.0847 H   0  0  0  0  0  0  0  0  0  0  0  0
  152.7417  141.6702  160.5440 H   0  0  0  0  0  0  0  0  0  0  0  0
  152.7952  143.9605  161.4990 H   0  0  0  0  0  0  0  0  0  0  0  0
  152.1843  145.9163  160.0862 H   0  0  0  0  0  0  0  0  0  0  0  0
  151.5168  145.5755  157.7137 H   0  0  0  0  0  0  0  0  0  0  0  0
  151.4605  143.2899  156.7516 H   0  0  0  0  0  0  0  0  0  0  0  0
  149.8925  140.6264  154.5147 H   0  0  0  0  0  0  0  0  0  0  0  0
  149.0604  138.5087  153.6820 H   0  0  0  0  0  0  0  0  0  0  0  0
  1  2  2  0  0  0  0
  2  3  1  0  0  0  0
  2 18  1  0  0  0  0
  3  4  1  0  0  0  0
  3 33  1  0  0  0  0
  3 34  1  0  0  0  0
  4 16  1  0  0  0  0
  4  5  1  0  0  0  0
  5  6  2  0  0  0  0
  5  7  1  0  0  0  0
  7  8  1  0  0  0  0
  7  9  2  0  0  0  0
  9 10  1  0  0  0  0
  9 35  1  0  0  0  0
 10 11  1  0  0  0  0
 10 16  1  0  0  0  0
 11 15  1  0  0  0  0
 11 12  1  0  0  0  0
 11 36  1  0  0  0  0
 12 13  1  0  0  0  0
 12 37  1  0  0  0  0
 12 38  1  0  0  0  0
 13 14  1  0  0  0  0
 13 39  1  0  0  0  0
 13 40  1  0  0  0  0
 14 15  1  0  0  0  0
 14 41  1  0  0  0  0
 14 42  1  0  0  0  0
 16 17  2  0  0  0  0
 18 19  1  0  0  0  0
 18 43  1  0  0  0  0
 19 32  1  0  0  0  0
 19 20  2  0  0  0  0
 20 21  1  0  0  0  0
 20 44  1  0  0  0  0
 21 22  2  0  0  0  0
 21 45  1  0  0  0  0
 22 23  1  0  0  0  0
 22 31  1  0  0  0  0
 23 24  1  0  0  0  0
 24 25  1  0  0  0  0
 24 46  1  0  0  0  0
 24 47  1  0  0  0  0
 25 30  1  0  0  0  0
 25 26  2  0  0  0  0
 26 27  1  0  0  0  0
 26 48  1  0  0  0  0
 27 28  2  0  0  0  0
 27 49  1  0  0  0  0
 28 29  1  0  0  0  0
 28 50  1  0  0  0  0
 29 30  2  0  0  0  0
 29 51  1  0  0  0  0
 30 52  1  0  0  0  0
 31 32  2  0  0  0  0
 31 53  1  0  0  0  0
 32 54  1  0  0  0  0
M  END
> <s_m_source_file>
AV-unprocessed.smi

> <i_m_source_file_index>
30

> <i_lp_mmshare_version>
43012

> <i_f3d_flags>
0

> <s_epik_input>
TzFbQ0gyXVtDSDJdW0NIMl1bQ0BIXTFuKGMyPU8pW2NIXWMoRiljKD1PKW4yW0NIMl1DKD1PKVtOSF1jM1tjSF1bY0hdYyhbY0hdW2NIXTMpT1tDSDJdYzRbY0hdW2NIXVtjSF1bY0hdW2NIXTQ=

> <s_epik_cmdline>
J2VwaWtfcHl0aG9uJywgJy1waCcsICc3LjAnLCAnLXRuJywgJzgnLCAnLW1hJywgJzIwMCcsICctbWV0YWxfYmluZGluZycsICctaW1hZScsICc8aW5maWxlLm1hZT4nLCAnLW9tYWUnLCAnPG91dGZpbGUubWFlPic=

> <r_lp_tautomer_probability>
1

> <r_epik_Ionization_Penalty>
1.04818e-05

> <r_epik_Ionization_Penalty_Charging>
3.88729e-08

> <r_epik_Ionization_Penalty_Neutral>
1.04429e-05

> <r_epik_State_Penalty>
-0

> <r_epik_Charging_Adjusted_Penalty>
3.88729e-08

> <i_epik_Tot_Q>
0

> <i_epik_Tot_abs_Q>
0

> <r_epik_Metal_State_Penalty>
-0

> <b_epik_Metal_Only>
0

> <s_epik_Chemistry_Notes>
This compound contains an acetal/aminal-like group ( X-CH(R)-Y where X, Y are N, S, or O) that may be acid/base labile, releasing an aldehyde.

> <s_lp_Force_Field>
OPLS_2005

> <r_lp_Energy>
44.0701

> <b_lp_Chiralities_Consistent>
1

> <s_lp_Variant>
AV-unprocessed.smi:30-2

> <Gold.Version>
5.8.1

> <Gold.Id.Protein>
6NUR|6NUR_protein|mol2

> <Gold.PLP.Fitness>
55.7449

> <Gold.PLP.PLP>
-53.7923

> <Gold.PLP.part.hbond>
-1.0000

> <Gold.PLP.part.metal>
0.0000

> <Gold.PLP.part.buried>
-6.6080

> <Gold.PLP.part.nonpolar>
-46.5961

> <Gold.PLP.part.repulsive>
1.3216

> <Gold.PLP.ligand.clash>
0.0000

> <Gold.PLP.ligand.torsion>
0.7437

> <Gold.PLP.Chemscore.Hbond>
1.0000

> <Gold.PLP.Chemscore.CHOScore>
0.0000

> <Gold.PLP.Chemscore.Metal>
0.0000

> <Gold.Chemscore.Hbonds>
donor molecule, donor type, donor heavy atom, donor atom, acceptor molecule, acceptor atom, score
      L1  H    18    43       P1  7948  1.00

> <Gold.PLP.Chemscore.Internal.Correction>
0.4399

> <Gold.Rescore>
     Score         DG    S(hbond)    S(metal)    S(lipo)     H(rot)  DE(clash)    DE(int)     intcor
     14.89     -19.84       0.83        0.00     147.00       2.20       0.23       4.72       ----

> <Gold.Chemscore.Fitness>
14.8924

> <Gold.Chemscore.DG>
-19.8376

> <Gold.Chemscore.ZeroCoef>
-5.4800

> <Gold.Chemscore.Hbond>
0.8316

> <Gold.Chemscore.Metal>
0.0000

> <Gold.Chemscore.Lipo>
147.0047

> <Gold.Chemscore.Internal_Hbond>
0.0000

> <Gold.Chemscore.DEClash>
0.2292

> <Gold.Chemscore.DEInternal>
4.7160

> <Gold.Chemscore.Rot>
2.1952

> <Gold.Chemscore.Internal.Correction>
   9.000000E+99

> <Gold.Chemscore.Hbonds>
donor molecule, donor type, donor heavy atom, donor atom, acceptor molecule, acceptor atom, score
      L1  H    18    43       P1  7948  0.83

> <Gold.Chemscore.Hbond.Weighted>
-2.7776

> <Gold.Chemscore.Metal.Weighted>
-0.0000

> <Gold.Chemscore.Lipo.Weighted>
-17.1995

> <Gold.Chemscore.Internal_Hbond.Weighted>
0.0000

> <Gold.Chemscore.DEClash.Weighted>
0.2292

> <Gold.Chemscore.DEInternal.Weighted>
4.7160

> <Gold.Chemscore.Rot.Weighted>
5.6196

> <Gold.Chemscore.Internal.Correction.Weighted>
   9.000000E+99

> <Gold.Protein.RotatedTorsions>
[ 6907 6896 6895 6894 ] final   -4.04 input  -60.11 | X-H torsion
[ 7974 7965 7964 7962 ] final  -34.90 input  175.53 | X-H torsion
[ 8008 7997 7996 7995 ] final  -97.12 input   59.86 | X-H torsion
[ 10167 10162 10161 10158 ] final  -14.25 input  -65.29 | X-H torsion
[ 10718 10713 10712 10709 ] final  129.21 input   66.30 | X-H torsion
[ 10763 10752 10751 10750 ] final   68.97 input  -60.55 | X-H torsion
[ 11005 11000 10999 10996 ] final  152.07 input  -57.11 | X-H torsion

> <Gold.Protein.ActiveResidues>
 VAL166  LYS551  ARG553  GLY616  TRP617  ASP618  TYR619  PRO620  LYS621  CYS622 
 ASP623  PHE694  ASN695  SER759  ASP760  ASP761  ALA762  ILE779  LEU786  VAL792 
 PHE793  MET794  SER795  GLU796  ALA797  LYS798  CYS799  TRP800  GLU811  SER814 

> <Gold.Protein.RotatedAtoms>
  151.5041  135.1063  159.9836 H   0  0  0  0  0  0  0  0  0  0  0  0  # atno 6907 bound_to 6896
  152.4689  133.7982  159.6949 H   0  0  0  0  0  0  0  0  0  0  0  0  # atno 6908 bound_to 6896
  150.8688  133.7472  159.2994 H   0  0  0  0  0  0  0  0  0  0  0  0  # atno 6909 bound_to 6896
  146.0791  140.6094  142.8916 H   0  0  0  0  0  0  0  0  0  0  0  0  # atno 7974 bound_to 7965
  154.7835  140.0465  157.1146 H   0  0  0  0  0  0  0  0  0  0  0  0  # atno 8008 bound_to 7997
  154.9676  140.3085  155.4983 H   0  0  0  0  0  0  0  0  0  0  0  0  # atno 8009 bound_to 7997
  156.2940  140.2259  156.4766 H   0  0  0  0  0  0  0  0  0  0  0  0  # atno 8010 bound_to 7997
  140.7198  143.5341  150.9485 H   0  0  0  0  0  0  0  0  0  0  0  0  # atno 10167 bound_to 10162
  157.5174  131.1098  150.9204 H   0  0  0  0  0  0  0  0  0  0  0  0  # atno 10718 bound_to 10713
  153.0262  135.5228  154.7216 H   0  0  0  0  0  0  0  0  0  0  0  0  # atno 10763 bound_to 10752
  154.6270  135.2895  155.0263 H   0  0  0  0  0  0  0  0  0  0  0  0  # atno 10764 bound_to 10752
  154.1229  135.6605  153.4959 H   0  0  0  0  0  0  0  0  0  0  0  0  # atno 10765 bound_to 10752
  140.1275  134.8824  157.2157 H   0  0  0  0  0  0  0  0  0  0  0  0  # atno 11005 bound_to 11000
  144.7281  140.4589  143.6958 LP  0  0  0  0  0  0  0  0  0  0  0  0  # atno 17320 bound_to 7965
  145.6250  139.1529  143.3001 LP  0  0  0  0  0  0  0  0  0  0  0  0  # atno 17321 bound_to 7965
  139.9062  143.6775  152.3123 LP  0  0  0  0  0  0  0  0  0  0  0  0  # atno 17342 bound_to 10162
  139.7142  144.7615  151.1061 LP  0  0  0  0  0  0  0  0  0  0  0  0  # atno 17343 bound_to 10162
  156.9825  130.5532  149.5297 LP  0  0  0  0  0  0  0  0  0  0  0  0  # atno 17370 bound_to 10713
  156.0330  130.5420  150.8582 LP  0  0  0  0  0  0  0  0  0  0  0  0  # atno 17371 bound_to 10713
  140.2885  134.3267  155.7322 LP  0  0  0  0  0  0  0  0  0  0  0  0  # atno 17394 bound_to 11000
  141.2164  133.7521  156.9469 LP  0  0  0  0  0  0  0  0  0  0  0  0  # atno 17395 bound_to 11000

$$$$
