AV-unprocessed.smi:2926|AV-procd|sdf|11226|dock2
  -GOLD-   2272016113D 1   1.00000     0.00000
 Structure written by MMmdl.
 32 32  0  0  0  0  0  0  0  0  1 V2000
  151.0255  140.5178  155.9071 C   0  0  0  0  0  0  0  0  0  0  0  0
  151.4099  139.1097  155.4101 C   0  0  0  0  0  0  0  0  0  0  0  0
  150.4322  138.6983  154.2927 C   0  0  0  0  0  0  0  0  0  0  0  0
  151.4672  138.0802  156.5733 C   0  0  1  0  0  0  0  0  0  0  0  0
  152.5594  138.3759  157.6244 C   0  0  0  0  0  0  0  0  0  0  0  0
  153.8412  138.2744  157.0407 O   0  0  0  0  0  0  0  0  0  0  0  0
  150.1717  138.0721  157.2654 N   0  0  0  0  0  0  0  0  0  0  0  0
  149.8310  136.8012  158.3827 S   0  0  0  0  0  0  0  0  0  0  0  0
  149.7596  135.5418  157.6255 O   0  0  0  0  0  0  0  0  0  0  0  0
  150.7725  136.9313  159.5053 O   0  0  0  0  0  0  0  0  0  0  0  0
  148.1359  137.2291  158.9635 C   0  0  0  0  0  0  0  0  0  0  0  0
  147.7728  136.3714  160.1426 C   0  0  0  0  0  0  0  0  0  0  0  0
  147.6995  134.9525  160.2165 C   0  0  0  0  0  0  0  0  0  0  0  0
  147.3302  134.7191  161.5097 C   0  0  0  0  0  0  0  0  0  0  0  0
  147.1912  135.8891  162.1828 O   0  0  0  0  0  0  0  0  0  0  0  0
  147.4778  136.9382  161.3020 N   0  0  0  0  0  0  0  0  0  0  0  0
  151.6544  137.0958  156.1408 H   0  0  0  0  0  0  0  0  0  0  0  0
  150.0514  140.5113  156.3973 H   0  0  0  0  0  0  0  0  0  0  0  0
  150.9752  141.2275  155.0808 H   0  0  0  0  0  0  0  0  0  0  0  0
  151.7520  140.9131  156.6174 H   0  0  0  0  0  0  0  0  0  0  0  0
  152.4037  139.1796  154.9653 H   0  0  0  0  0  0  0  0  0  0  0  0
  149.4359  138.5032  154.6907 H   0  0  0  0  0  0  0  0  0  0  0  0
  150.7647  137.8081  153.7607 H   0  0  0  0  0  0  0  0  0  0  0  0
  150.3391  139.4857  153.5442 H   0  0  0  0  0  0  0  0  0  0  0  0
  152.4847  139.3916  158.0075 H   0  0  0  0  0  0  0  0  0  0  0  0
  152.4827  137.7055  158.4814 H   0  0  0  0  0  0  0  0  0  0  0  0
  153.7404  138.0513  156.1281 H   0  0  0  0  0  0  0  0  0  0  0  0
  149.9765  138.9836  157.6789 H   0  0  0  0  0  0  0  0  0  0  0  0
  148.1168  138.2861  159.2272 H   0  0  0  0  0  0  0  0  0  0  0  0
  147.4445  137.0795  158.1334 H   0  0  0  0  0  0  0  0  0  0  0  0
  147.8835  134.2229  159.4417 H   0  0  0  0  0  0  0  0  0  0  0  0
  147.1362  133.8200  162.0755 H   0  0  0  0  0  0  0  0  0  0  0  0
  1  2  1  0  0  0  0
  1 18  1  0  0  0  0
  1 19  1  0  0  0  0
  1 20  1  0  0  0  0
  2  3  1  0  0  0  0
  2  4  1  0  0  0  0
  2 21  1  0  0  0  0
  3 22  1  0  0  0  0
  3 23  1  0  0  0  0
  3 24  1  0  0  0  0
  4 17  1  0  0  0  0
  4  5  1  0  0  0  0
  4  7  1  0  0  0  0
  5  6  1  0  0  0  0
  5 25  1  0  0  0  0
  5 26  1  0  0  0  0
  6 27  1  0  0  0  0
  7  8  1  0  0  0  0
  7 28  1  0  0  0  0
  8  9  2  0  0  0  0
  8 10  2  0  0  0  0
  8 11  1  0  0  0  0
 11 12  1  0  0  0  0
 11 29  1  0  0  0  0
 11 30  1  0  0  0  0
 12 16  2  0  0  0  0
 12 13  1  0  0  0  0
 13 14  2  0  0  0  0
 13 31  1  0  0  0  0
 14 15  1  0  0  0  0
 14 32  1  0  0  0  0
 15 16  1  0  0  0  0
M  END
> <s_m_source_file>
AV-unprocessed.smi

> <i_m_source_file_index>
2926

> <i_lp_mmshare_version>
43012

> <i_f3d_flags>
0

> <s_epik_input>
W0NIM11bQ0hdKFtDSDNdKVtDQEBIXShbQ0gyXVtPSF0pW05IXVMoPU8pKD1PKVtDSDJdYzFbY0hdW2NIXW9uMQ==

> <s_epik_cmdline>
J2VwaWtfcHl0aG9uJywgJy1waCcsICc3LjAnLCAnLXRuJywgJzgnLCAnLW1hJywgJzIwMCcsICctbWV0YWxfYmluZGluZycsICctaW1hZScsICc8aW5maWxlLm1hZT4nLCAnLW9tYWUnLCAnPG91dGZpbGUubWFlPic=

> <r_lp_tautomer_probability>
1

> <r_epik_Ionization_Penalty>
0.000193122

> <r_epik_Ionization_Penalty_Charging>
0

> <r_epik_Ionization_Penalty_Neutral>
0.000193122

> <r_epik_State_Penalty>
-0

> <r_epik_Charging_Adjusted_Penalty>
0

> <i_epik_Tot_Q>
0

> <i_epik_Tot_abs_Q>
0

> <r_epik_Metal_State_Penalty>
0.130256

> <b_epik_Metal_Only>
0

> <s_lp_Force_Field>
OPLS_2005

> <r_lp_Energy>
6.6882

> <b_lp_Chiralities_Consistent>
1

> <s_lp_Variant>
AV-unprocessed.smi:2926-1

> <Gold.Version>
5.8.1

> <Gold.Id.Protein>
6NUR|6NUR_protein|mol2

> <Gold.PLP.Fitness>
35.7409

> <Gold.PLP.PLP>
-25.2307

> <Gold.PLP.part.hbond>
-4.6767

> <Gold.PLP.part.metal>
0.0000

> <Gold.PLP.part.buried>
-5.0500

> <Gold.PLP.part.nonpolar>
-16.7423

> <Gold.PLP.part.repulsive>
0.0000

> <Gold.PLP.ligand.clash>
0.0000

> <Gold.PLP.ligand.torsion>
0.3053

> <Gold.PLP.Chemscore.Hbond>
3.6400

> <Gold.PLP.Chemscore.CHOScore>
0.0000

> <Gold.PLP.Chemscore.Metal>
0.0000

> <Gold.Chemscore.Hbonds>
donor molecule, donor type, donor heavy atom, donor atom, acceptor molecule, acceptor atom, score
      P1  H  6896  6907       L1    10  1.00
      P1  H  6931  6943       L1    16  0.78
      P1  H  6934  6947       L1    16  0.72
      P1  H  7997  8009       L1     6  0.75

> <Gold.PLP.Chemscore.Internal.Correction>
0.2007

> <Gold.Rescore>
     Score         DG    S(hbond)    S(metal)    S(lipo)     H(rot)  DE(clash)    DE(int)     intcor
     10.94     -12.13       2.48        0.00      50.75       2.96       0.05       1.14       ----

> <Gold.Chemscore.Fitness>
10.9441

> <Gold.Chemscore.DG>
-12.1293

> <Gold.Chemscore.ZeroCoef>
-5.4800

> <Gold.Chemscore.Hbond>
2.4791

> <Gold.Chemscore.Metal>
0.0000

> <Gold.Chemscore.Lipo>
50.7488

> <Gold.Chemscore.Internal_Hbond>
0.0000

> <Gold.Chemscore.DEClash>
0.0465

> <Gold.Chemscore.DEInternal>
1.1387

> <Gold.Chemscore.Rot>
2.9564

> <Gold.Chemscore.Internal.Correction>
   9.000000E+99

> <Gold.Chemscore.Hbonds>
donor molecule, donor type, donor heavy atom, donor atom, acceptor molecule, acceptor atom, score
      P1  H  6896  6907       L1    10  0.50
      P1  H  6931  6943       L1    16  0.53
      P1  H  6934  6947       L1    16  0.44
      P1  H  7997  8009       L1     6  0.14

> <Gold.Chemscore.Hbond.Weighted>
-8.2802

> <Gold.Chemscore.Metal.Weighted>
-0.0000

> <Gold.Chemscore.Lipo.Weighted>
-5.9376

> <Gold.Chemscore.Internal_Hbond.Weighted>
0.0000

> <Gold.Chemscore.DEClash.Weighted>
0.0465

> <Gold.Chemscore.DEInternal.Weighted>
1.1387

> <Gold.Chemscore.Rot.Weighted>
7.5685

> <Gold.Chemscore.Internal.Correction.Weighted>
   9.000000E+99

> <Gold.Protein.RotatedTorsions>
[ 6907 6896 6895 6894 ] final  -15.15 input  -60.11 | X-H torsion
[ 7974 7965 7964 7962 ] final   -6.88 input  175.53 | X-H torsion
[ 8008 7997 7996 7995 ] final  161.15 input   59.86 | X-H torsion
[ 10167 10162 10161 10158 ] final  140.08 input  -65.29 | X-H torsion
[ 10718 10713 10712 10709 ] final   10.33 input   66.30 | X-H torsion
[ 10763 10752 10751 10750 ] final  -12.34 input  -60.55 | X-H torsion
[ 11005 11000 10999 10996 ] final -175.44 input  -57.11 | X-H torsion

> <Gold.Protein.ActiveResidues>
 VAL166  LYS551  ARG553  GLY616  TRP617  ASP618  TYR619  PRO620  LYS621  CYS622 
 ASP623  PHE694  ASN695  SER759  ASP760  ASP761  ALA762  ILE779  LEU786  VAL792 
 PHE793  MET794  SER795  GLU796  ALA797  LYS798  CYS799  TRP800  GLU811  SER814 

> <Gold.Protein.RotatedAtoms>
  151.3283  135.0835  159.9329 H   0  0  0  0  0  0  0  0  0  0  0  0  # atno 6907 bound_to 6896
  152.5240  133.9568  159.7708 H   0  0  0  0  0  0  0  0  0  0  0  0  # atno 6908 bound_to 6896
  150.9902  133.6104  159.2739 H   0  0  0  0  0  0  0  0  0  0  0  0  # atno 6909 bound_to 6896
  146.2320  140.2236  142.8338 H   0  0  0  0  0  0  0  0  0  0  0  0  # atno 7974 bound_to 7965
  156.2123  140.1785  156.7666 H   0  0  0  0  0  0  0  0  0  0  0  0  # atno 8008 bound_to 7997
  154.5741  140.0677  156.9037 H   0  0  0  0  0  0  0  0  0  0  0  0  # atno 8009 bound_to 7997
  155.2620  140.3336  155.4275 H   0  0  0  0  0  0  0  0  0  0  0  0  # atno 8010 bound_to 7997
  139.5059  144.6256  151.5945 H   0  0  0  0  0  0  0  0  0  0  0  0  # atno 10167 bound_to 10162
  156.9794  130.6000  149.5675 H   0  0  0  0  0  0  0  0  0  0  0  0  # atno 10718 bound_to 10713
  153.4971  135.7017  153.5852 H   0  0  0  0  0  0  0  0  0  0  0  0  # atno 10763 bound_to 10752
  153.4000  135.3874  155.1981 H   0  0  0  0  0  0  0  0  0  0  0  0  # atno 10764 bound_to 10752
  154.8713  135.3879  154.4437 H   0  0  0  0  0  0  0  0  0  0  0  0  # atno 10765 bound_to 10752
  140.4632  134.6235  157.4851 H   0  0  0  0  0  0  0  0  0  0  0  0  # atno 11005 bound_to 11000
  144.9613  140.8277  143.5512 LP  0  0  0  0  0  0  0  0  0  0  0  0  # atno 17320 bound_to 7965
  145.2207  139.2160  143.5094 LP  0  0  0  0  0  0  0  0  0  0  0  0  # atno 17321 bound_to 7965
  140.5972  143.9675  150.6362 LP  0  0  0  0  0  0  0  0  0  0  0  0  # atno 17342 bound_to 10162
  140.2875  143.3347  152.1094 LP  0  0  0  0  0  0  0  0  0  0  0  0  # atno 17343 bound_to 10162
  156.0250  130.5344  150.8382 LP  0  0  0  0  0  0  0  0  0  0  0  0  # atno 17370 bound_to 10713
  157.5537  131.0944  150.9659 LP  0  0  0  0  0  0  0  0  0  0  0  0  # atno 17371 bound_to 10713
  139.9932  134.6953  155.9654 LP  0  0  0  0  0  0  0  0  0  0  0  0  # atno 17394 bound_to 11000
  141.1611  133.6539  156.4323 LP  0  0  0  0  0  0  0  0  0  0  0  0  # atno 17395 bound_to 11000

$$$$
