AV-unprocessed.smi:118|AV-procd|sdf|1132|dock10
  -GOLD-   2262018263D 1   1.00000     0.00000
 Structure written by MMmdl.
 41 44  0  0  0  0  0  0  0  0  1 V2000
  151.9015  136.8419  154.1463 O   0  0  0  0  0  0  0  0  0  0  0  0
  151.6492  137.5869  155.0942 C   0  0  0  0  0  0  0  0  0  0  0  0
  152.2388  139.0054  155.1474 C   0  0  0  0  0  0  0  0  0  0  0  0
  151.5642  139.8811  156.1306 N   0  0  0  0  0  0  0  0  0  0  0  0
  150.3971  140.5815  155.7371 C   0  0  0  0  0  0  0  0  0  0  0  0
  149.9308  140.4610  154.6033 O   0  0  0  0  0  0  0  0  0  0  0  0
  149.8069  141.4431  156.7553 C   0  0  0  0  0  0  0  0  0  0  0  0
  148.6865  142.1310  156.4768 F   0  0  0  0  0  0  0  0  0  0  0  0
  150.3677  141.5620  157.9765 C   0  0  0  0  0  0  0  0  0  0  0  0
  151.5218  140.8902  158.3395 N   0  0  0  0  0  0  0  0  0  0  0  0
  152.1427  141.0372  159.7139 C   0  0  1  0  0  0  0  0  0  0  0  0
  153.6380  141.3977  159.6017 C   0  0  0  0  0  0  0  0  0  0  0  0
  153.7517  142.6440  160.4574 C   0  0  0  0  0  0  0  0  0  0  0  0
  152.3561  143.2372  160.3401 C   0  0  0  0  0  0  0  0  0  0  0  0
  151.5258  142.0854  160.4055 O   0  0  0  0  0  0  0  0  0  0  0  0
  152.1382  140.0171  157.4169 C   0  0  0  0  0  0  0  0  0  0  0  0
  153.1577  139.3957  157.7257 O   0  0  0  0  0  0  0  0  0  0  0  0
  150.8750  137.2495  156.1410 N   0  0  0  0  0  0  0  0  0  0  0  0
  150.2106  136.0162  156.3880 C   0  0  0  0  0  0  0  0  0  0  0  0
  150.2007  134.9365  155.4676 C   0  0  0  0  0  0  0  0  0  0  0  0
  149.5085  133.7406  155.7622 C   0  0  0  0  0  0  0  0  0  0  0  0
  148.8021  133.5982  156.9738 C   0  0  0  0  0  0  0  0  0  0  0  0
  148.7939  134.6723  157.8813 C   0  0  0  0  0  0  0  0  0  0  0  0
  149.4860  135.8711  157.5918 C   0  0  0  0  0  0  0  0  0  0  0  0
  149.3733  136.8317  158.5955 N   0  0  0  0  0  0  0  0  0  0  0  0
  148.4967  136.0814  159.5984 S   0  0  0  0  0  0  0  0  0  0  0  0
  148.1360  134.6797  159.1067 N   0  0  0  0  0  0  0  0  0  0  0  0
  153.3072  138.9222  155.3518 H   0  0  0  0  0  0  0  0  0  0  0  0
  152.1951  139.4478  154.1505 H   0  0  0  0  0  0  0  0  0  0  0  0
  149.8778  142.2132  158.6839 H   0  0  0  0  0  0  0  0  0  0  0  0
  151.9465  140.0927  160.2244 H   0  0  0  0  0  0  0  0  0  0  0  0
  154.2646  140.5780  159.9544 H   0  0  0  0  0  0  0  0  0  0  0  0
  153.8988  141.6228  158.5662 H   0  0  0  0  0  0  0  0  0  0  0  0
  153.9553  142.3706  161.4934 H   0  0  0  0  0  0  0  0  0  0  0  0
  154.5351  143.3233  160.1208 H   0  0  0  0  0  0  0  0  0  0  0  0
  152.1281  143.9440  161.1380 H   0  0  0  0  0  0  0  0  0  0  0  0
  152.2269  143.7426  159.3821 H   0  0  0  0  0  0  0  0  0  0  0  0
  150.8271  137.9239  156.8909 H   0  0  0  0  0  0  0  0  0  0  0  0
  150.7088  135.0078  154.5183 H   0  0  0  0  0  0  0  0  0  0  0  0
  149.5163  132.9291  155.0494 H   0  0  0  0  0  0  0  0  0  0  0  0
  148.2725  132.6837  157.1969 H   0  0  0  0  0  0  0  0  0  0  0  0
  1  2  2  0  0  0  0
  2  3  1  0  0  0  0
  2 18  1  0  0  0  0
  3  4  1  0  0  0  0
  3 28  1  0  0  0  0
  3 29  1  0  0  0  0
  4 16  1  0  0  0  0
  4  5  1  0  0  0  0
  5  6  2  0  0  0  0
  5  7  1  0  0  0  0
  7  8  1  0  0  0  0
  7  9  2  0  0  0  0
  9 10  1  0  0  0  0
  9 30  1  0  0  0  0
 10 11  1  0  0  0  0
 10 16  1  0  0  0  0
 11 15  1  0  0  0  0
 11 12  1  0  0  0  0
 11 31  1  0  0  0  0
 12 13  1  0  0  0  0
 12 32  1  0  0  0  0
 12 33  1  0  0  0  0
 13 14  1  0  0  0  0
 13 34  1  0  0  0  0
 13 35  1  0  0  0  0
 14 15  1  0  0  0  0
 14 36  1  0  0  0  0
 14 37  1  0  0  0  0
 16 17  2  0  0  0  0
 18 19  1  0  0  0  0
 18 38  1  0  0  0  0
 19 24  1  0  0  0  0
 19 20  2  0  0  0  0
 20 21  1  0  0  0  0
 20 39  1  0  0  0  0
 21 22  2  0  0  0  0
 21 40  1  0  0  0  0
 22 23  1  0  0  0  0
 22 41  1  0  0  0  0
 23 27  1  0  0  0  0
 23 24  2  0  0  0  0
 24 25  1  0  0  0  0
 25 26  2  0  0  0  0
 26 27  2  0  0  0  0
M  END
> <s_m_source_file>
AV-unprocessed.smi

> <i_m_source_file_index>
118

> <i_lp_mmshare_version>
43012

> <i_f3d_flags>
0

> <s_epik_input>
TjE9Uz1OYyhjMTIpYyhbY0hdW2NIXVtjSF0yKVtOSF1DKD1PKVtDSDJdbjNjKD1PKWMoRilbY0hdbihjMz1PKVtDQEBIXTRbQ0gyXVtDSDJdW0NIMl1PNA==

> <s_epik_cmdline>
J2VwaWtfcHl0aG9uJywgJy1waCcsICc3LjAnLCAnLXRuJywgJzgnLCAnLW1hJywgJzIwMCcsICctbWV0YWxfYmluZGluZycsICctaW1hZScsICc8aW5maWxlLm1hZT4nLCAnLW9tYWUnLCAnPG91dGZpbGUubWFlPic=

> <r_lp_tautomer_probability>
1

> <r_epik_Ionization_Penalty>
1.81156e-06

> <r_epik_Ionization_Penalty_Charging>
3.88729e-08

> <r_epik_Ionization_Penalty_Neutral>
1.77269e-06

> <r_epik_State_Penalty>
-0

> <r_epik_Charging_Adjusted_Penalty>
3.88729e-08

> <i_epik_Tot_Q>
0

> <i_epik_Tot_abs_Q>
0

> <r_epik_Metal_State_Penalty>
-0

> <b_epik_Metal_Only>
0

> <s_epik_Chemistry_Notes>
This compound contains an acetal/aminal-like group ( X-CH(R)-Y where X, Y are N, S, or O) that may be acid/base labile, releasing an aldehyde.

> <s_lp_Force_Field>
OPLS_2005

> <r_lp_Energy>
52.0747

> <b_lp_Chiralities_Consistent>
1

> <s_lp_Variant>
AV-unprocessed.smi:118-2

> <Gold.Version>
5.8.1

> <Gold.Id.Protein>
6NUR|6NUR_protein|mol2

> <Gold.PLP.Fitness>
45.5827

> <Gold.PLP.PLP>
-38.3130

> <Gold.PLP.part.hbond>
-3.7916

> <Gold.PLP.part.metal>
0.0000

> <Gold.PLP.part.buried>
-3.2180

> <Gold.PLP.part.nonpolar>
-33.7338

> <Gold.PLP.part.repulsive>
2.3200

> <Gold.PLP.ligand.clash>
0.0000

> <Gold.PLP.ligand.torsion>
0.6975

> <Gold.PLP.Chemscore.Hbond>
2.8842

> <Gold.PLP.Chemscore.CHOScore>
0.0000

> <Gold.PLP.Chemscore.Metal>
0.0000

> <Gold.Chemscore.Hbonds>
donor molecule, donor type, donor heavy atom, donor atom, acceptor molecule, acceptor atom, score
      P1  H  6933  6945       L1    15  0.01
      P1  H  7989  7998       L1     6  0.82
      P1  H  7997  8008       L1    17  1.00
      P1  H 10752 10765       L1     1  1.00

> <Gold.PLP.Chemscore.Internal.Correction>
0.0122

> <Gold.Rescore>
     Score         DG    S(hbond)    S(metal)    S(lipo)     H(rot)  DE(clash)    DE(int)     intcor
     13.58     -17.81       2.42        0.00      75.70       1.80       0.96       3.27       ----

> <Gold.Chemscore.Fitness>
13.5825

> <Gold.Chemscore.DG>
-17.8093

> <Gold.Chemscore.ZeroCoef>
-5.4800

> <Gold.Chemscore.Hbond>
2.4174

> <Gold.Chemscore.Metal>
0.0000

> <Gold.Chemscore.Lipo>
75.7042

> <Gold.Chemscore.Internal_Hbond>
0.0000

> <Gold.Chemscore.DEClash>
0.9607

> <Gold.Chemscore.DEInternal>
3.2661

> <Gold.Chemscore.Rot>
1.7977

> <Gold.Chemscore.Internal.Correction>
   9.000000E+99

> <Gold.Chemscore.Hbonds>
donor molecule, donor type, donor heavy atom, donor atom, acceptor molecule, acceptor atom, score
      P1  H  6933  6945       L1    15  0.02
      P1  H  7989  7998       L1     6  0.20
      P1  H  7997  8008       L1    17  0.70
      P1  H 10752 10765       L1     1  0.94

> <Gold.Chemscore.Hbond.Weighted>
-8.0741

> <Gold.Chemscore.Metal.Weighted>
-0.0000

> <Gold.Chemscore.Lipo.Weighted>
-8.8574

> <Gold.Chemscore.Internal_Hbond.Weighted>
0.0000

> <Gold.Chemscore.DEClash.Weighted>
0.9607

> <Gold.Chemscore.DEInternal.Weighted>
3.2661

> <Gold.Chemscore.Rot.Weighted>
4.6022

> <Gold.Chemscore.Internal.Correction.Weighted>
   9.000000E+99

> <Gold.Protein.RotatedTorsions>
[ 6907 6896 6895 6894 ] final   90.17 input  -60.11 | X-H torsion
[ 7974 7965 7964 7962 ] final   52.80 input  175.53 | X-H torsion
[ 8008 7997 7996 7995 ] final  -75.73 input   59.86 | X-H torsion
[ 10167 10162 10161 10158 ] final  -97.90 input  -65.29 | X-H torsion
[ 10718 10713 10712 10709 ] final   29.22 input   66.30 | X-H torsion
[ 10763 10752 10751 10750 ] final  142.26 input  -60.55 | X-H torsion
[ 11005 11000 10999 10996 ] final   -2.22 input  -57.11 | X-H torsion

> <Gold.Protein.ActiveResidues>
 VAL166  LYS551  ARG553  GLY616  TRP617  ASP618  TYR619  PRO620  LYS621  CYS622 
 ASP623  PHE694  ASN695  SER759  ASP760  ASP761  ALA762  ILE779  LEU786  VAL792 
 PHE793  MET794  SER795  GLU796  ALA797  LYS798  CYS799  TRP800  GLU811  SER814 

> <Gold.Protein.RotatedAtoms>
  152.5442  134.1852  159.8651 H   0  0  0  0  0  0  0  0  0  0  0  0  # atno 6907 bound_to 6896
  151.1852  133.4694  159.2602 H   0  0  0  0  0  0  0  0  0  0  0  0  # atno 6908 bound_to 6896
  151.1139  135.0053  159.8562 H   0  0  0  0  0  0  0  0  0  0  0  0  # atno 6909 bound_to 6896
  145.9777  139.4211  143.0151 H   0  0  0  0  0  0  0  0  0  0  0  0  # atno 7974 bound_to 7965
  154.5443  140.0739  156.8562 H   0  0  0  0  0  0  0  0  0  0  0  0  # atno 8008 bound_to 7997
  155.3119  140.3391  155.4225 H   0  0  0  0  0  0  0  0  0  0  0  0  # atno 8009 bound_to 7997
  156.1903  140.1684  156.8091 H   0  0  0  0  0  0  0  0  0  0  0  0  # atno 8010 bound_to 7997
  140.2786  143.3296  152.0463 H   0  0  0  0  0  0  0  0  0  0  0  0  # atno 10167 bound_to 10162
  157.2437  130.7081  149.6371 H   0  0  0  0  0  0  0  0  0  0  0  0  # atno 10718 bound_to 10713
  153.9528  135.2968  155.3438 H   0  0  0  0  0  0  0  0  0  0  0  0  # atno 10763 bound_to 10752
  154.7417  135.5021  153.9137 H   0  0  0  0  0  0  0  0  0  0  0  0  # atno 10764 bound_to 10752
  153.0985  135.6728  153.9825 H   0  0  0  0  0  0  0  0  0  0  0  0  # atno 10765 bound_to 10752
  140.6559  133.9363  155.8407 H   0  0  0  0  0  0  0  0  0  0  0  0  # atno 11005 bound_to 11000
  145.7815  140.9854  143.1096 LP  0  0  0  0  0  0  0  0  0  0  0  0  # atno 17320 bound_to 7965
  144.6853  139.9570  143.7479 LP  0  0  0  0  0  0  0  0  0  0  0  0  # atno 17321 bound_to 7965
  139.4969  144.6607  151.6471 LP  0  0  0  0  0  0  0  0  0  0  0  0  # atno 17342 bound_to 10162
  140.5830  143.9912  150.6279 LP  0  0  0  0  0  0  0  0  0  0  0  0  # atno 17343 bound_to 10162
  155.9669  130.4450  150.5483 LP  0  0  0  0  0  0  0  0  0  0  0  0  # atno 17370 bound_to 10713
  157.3352  131.0707  151.1830 LP  0  0  0  0  0  0  0  0  0  0  0  0  # atno 17371 bound_to 10713
  141.0501  134.0496  157.3794 LP  0  0  0  0  0  0  0  0  0  0  0  0  # atno 17394 bound_to 11000
  139.9029  135.0171  156.7355 LP  0  0  0  0  0  0  0  0  0  0  0  0  # atno 17395 bound_to 11000

$$$$
