AV-unprocessed.smi:33|AV-procd|sdf|202|dock9
  -GOLD-   2262015483D 1   1.00000     0.00000
 Structure written by MMmdl.
 67 72  0  0  0  0  0  0  0  0  1 V2000
  152.5509  140.5366  158.7312 O   0  0  0  0  0  0  0  0  0  0  0  0
  152.1373  141.6175  158.3062 C   0  0  0  0  0  0  0  0  0  0  0  0
  151.6565  141.7935  157.0597 O   0  0  0  0  0  0  0  0  0  0  0  0
  151.8710  140.7980  156.0720 C   0  0  0  0  0  0  0  0  0  0  0  0
  150.6181  139.9255  155.9365 C   0  0  1  0  0  0  0  0  0  0  0  0
  149.4754  140.6436  156.3770 O   0  0  0  0  0  0  0  0  0  0  0  0
  148.3308  140.0349  155.8647 C   0  0  2  0  0  0  0  0  0  0  0  0
  147.8498  139.0451  156.8873 N   0  0  0  0  0  0  0  0  0  0  0  0
  146.6535  138.9895  157.5768 C   0  0  0  0  0  0  0  0  0  0  0  0
  146.5177  137.9730  158.3851 N   0  0  0  0  0  0  0  0  0  0  0  0
  147.6959  137.2576  158.2236 C   0  0  0  0  0  0  0  0  0  0  0  0
  148.2066  136.0540  158.7797 C   0  0  0  0  0  0  0  0  0  0  0  0
  147.5288  135.3237  159.6957 N   0  0  0  0  0  0  0  0  0  0  0  0
  147.3948  133.8803  159.4449 C   0  0  0  0  0  0  0  0  0  0  0  0
  147.1962  133.1167  160.3920 O   0  0  0  0  0  0  0  0  0  0  0  0
  147.5566  133.3251  158.0577 C   0  0  0  0  0  0  0  0  0  0  0  0
  146.9782  133.9961  156.9578 C   0  0  0  0  0  0  0  0  0  0  0  0
  147.1321  133.4872  155.6536 C   0  0  0  0  0  0  0  0  0  0  0  0
  147.8805  132.3143  155.4385 C   0  0  0  0  0  0  0  0  0  0  0  0
  148.4854  131.6571  156.5267 C   0  0  0  0  0  0  0  0  0  0  0  0
  148.3328  132.1657  157.8311 C   0  0  0  0  0  0  0  0  0  0  0  0
  146.9882  136.0485  160.8545 C   0  0  0  0  0  0  0  0  0  0  0  0
  147.5211  137.0988  161.2180 O   0  0  0  0  0  0  0  0  0  0  0  0
  145.8217  135.4957  161.6226 C   0  0  0  0  0  0  0  0  0  0  0  0
  144.5280  136.0251  161.4221 C   0  0  0  0  0  0  0  0  0  0  0  0
  143.4291  135.5005  162.1297 C   0  0  0  0  0  0  0  0  0  0  0  0
  143.6136  134.4306  163.0262 C   0  0  0  0  0  0  0  0  0  0  0  0
  144.8958  133.8786  163.2083 C   0  0  0  0  0  0  0  0  0  0  0  0
  145.9957  134.4042  162.5033 C   0  0  0  0  0  0  0  0  0  0  0  0
  149.4280  135.6277  158.3660 N   0  0  0  0  0  0  0  0  0  0  0  0
  150.1085  136.3411  157.4638 C   0  0  0  0  0  0  0  0  0  0  0  0
  149.7599  137.4834  156.8660 N   0  0  0  0  0  0  0  0  0  0  0  0
  148.5323  137.9133  157.2800 C   0  0  0  0  0  0  0  0  0  0  0  0
  148.7381  139.3456  154.5467 C   0  0  1  0  0  0  0  0  0  0  0  0
  148.1135  139.9303  153.4223 O   0  0  0  0  0  0  0  0  0  0  0  0
  150.2476  139.5667  154.4967 C   0  0  2  0  0  0  0  0  0  0  0  0
  150.8866  138.4721  154.0823 F   0  0  0  0  0  0  0  0  0  0  0  0
  152.1213  142.8680  159.1188 C   0  0  0  0  0  0  0  0  0  0  0  0
  151.9469  144.1127  158.4698 C   0  0  0  0  0  0  0  0  0  0  0  0
  151.9241  145.3110  159.2095 C   0  0  0  0  0  0  0  0  0  0  0  0
  152.0763  145.2793  160.6078 C   0  0  0  0  0  0  0  0  0  0  0  0
  152.2520  144.0477  161.2655 C   0  0  0  0  0  0  0  0  0  0  0  0
  152.2744  142.8479  160.5272 C   0  0  0  0  0  0  0  0  0  0  0  0
  152.0842  141.2821  155.1179 H   0  0  0  0  0  0  0  0  0  0  0  0
  152.7372  140.1869  156.3294 H   0  0  0  0  0  0  0  0  0  0  0  0
  150.7227  139.0267  156.5452 H   0  0  0  0  0  0  0  0  0  0  0  0
  147.5146  140.7503  155.7558 H   0  0  0  0  0  0  0  0  0  0  0  0
  145.8725  139.7276  157.4680 H   0  0  0  0  0  0  0  0  0  0  0  0
  146.4004  134.8963  157.1110 H   0  0  0  0  0  0  0  0  0  0  0  0
  146.6757  133.9974  154.8181 H   0  0  0  0  0  0  0  0  0  0  0  0
  147.9962  131.9235  154.4384 H   0  0  0  0  0  0  0  0  0  0  0  0
  149.0672  130.7623  156.3613 H   0  0  0  0  0  0  0  0  0  0  0  0
  148.8046  131.6544  158.6576 H   0  0  0  0  0  0  0  0  0  0  0  0
  144.3756  136.8463  160.7367 H   0  0  0  0  0  0  0  0  0  0  0  0
  142.4441  135.9188  161.9838 H   0  0  0  0  0  0  0  0  0  0  0  0
  142.7701  134.0286  163.5678 H   0  0  0  0  0  0  0  0  0  0  0  0
  145.0362  133.0510  163.8877 H   0  0  0  0  0  0  0  0  0  0  0  0
  146.9748  133.9699  162.6469 H   0  0  0  0  0  0  0  0  0  0  0  0
  151.0700  135.9395  157.1797 H   0  0  0  0  0  0  0  0  0  0  0  0
  148.4826  138.2863  154.5663 H   0  0  0  0  0  0  0  0  0  0  0  0
  148.7780  140.1330  152.7812 H   0  0  0  0  0  0  0  0  0  0  0  0
  150.5061  140.3841  153.8212 H   0  0  0  0  0  0  0  0  0  0  0  0
  151.8272  144.1627  157.3971 H   0  0  0  0  0  0  0  0  0  0  0  0
  151.7896  146.2552  158.7024 H   0  0  0  0  0  0  0  0  0  0  0  0
  152.0585  146.1984  161.1748 H   0  0  0  0  0  0  0  0  0  0  0  0
  152.3698  144.0226  162.3388 H   0  0  0  0  0  0  0  0  0  0  0  0
  152.4115  141.9199  161.0631 H   0  0  0  0  0  0  0  0  0  0  0  0
  1  2  2  0  0  0  0
  2  3  1  0  0  0  0
  2 38  1  0  0  0  0
  3  4  1  0  0  0  0
  4  5  1  0  0  0  0
  4 44  1  0  0  0  0
  4 45  1  0  0  0  0
  5 36  1  0  0  0  0
  5  6  1  0  0  0  0
  5 46  1  0  0  0  0
  6  7  1  0  0  0  0
  7  8  1  0  0  0  0
  7 34  1  0  0  0  0
  7 47  1  0  0  0  0
  8 33  1  0  0  0  0
  8  9  1  0  0  0  0
  9 10  2  0  0  0  0
  9 48  1  0  0  0  0
 10 11  1  0  0  0  0
 11 33  2  0  0  0  0
 11 12  1  0  0  0  0
 12 13  1  0  0  0  0
 12 30  2  0  0  0  0
 13 14  1  0  0  0  0
 13 22  1  0  0  0  0
 14 15  2  0  0  0  0
 14 16  1  0  0  0  0
 16 21  1  0  0  0  0
 16 17  2  0  0  0  0
 17 18  1  0  0  0  0
 17 49  1  0  0  0  0
 18 19  2  0  0  0  0
 18 50  1  0  0  0  0
 19 20  1  0  0  0  0
 19 51  1  0  0  0  0
 20 21  2  0  0  0  0
 20 52  1  0  0  0  0
 21 53  1  0  0  0  0
 22 23  2  0  0  0  0
 22 24  1  0  0  0  0
 24 29  1  0  0  0  0
 24 25  2  0  0  0  0
 25 26  1  0  0  0  0
 25 54  1  0  0  0  0
 26 27  2  0  0  0  0
 26 55  1  0  0  0  0
 27 28  1  0  0  0  0
 27 56  1  0  0  0  0
 28 29  2  0  0  0  0
 28 57  1  0  0  0  0
 29 58  1  0  0  0  0
 30 31  1  0  0  0  0
 31 32  2  0  0  0  0
 31 59  1  0  0  0  0
 32 33  1  0  0  0  0
 34 35  1  0  0  0  0
 34 36  1  0  0  0  0
 34 60  1  0  0  0  0
 35 61  1  0  0  0  0
 36 37  1  0  0  0  0
 36 62  1  0  0  0  0
 38 43  1  0  0  0  0
 38 39  2  0  0  0  0
 39 40  1  0  0  0  0
 39 63  1  0  0  0  0
 40 41  2  0  0  0  0
 40 64  1  0  0  0  0
 41 42  1  0  0  0  0
 41 65  1  0  0  0  0
 42 43  2  0  0  0  0
 42 66  1  0  0  0  0
 43 67  1  0  0  0  0
M  END
> <s_m_source_file>
AV-unprocessed.smi

> <i_m_source_file_index>
33

> <i_lp_mmshare_version>
43012

> <i_f3d_flags>
0

> <s_epik_input>
W2NIXTFbY0hdW2NIXVtjSF1bY0hdYzFDKD1PKU9bQ0gyXVtDQEBIXTJPW0NASF0oW0NAQEhdKFtPSF0pW0NAQEhdMkYpbihbY0hdbjMpYyhjMzQpbltjSF1uYzROKEMoPU8pYzVbY0hdW2NIXVtjSF1bY0hdW2NIXTUpQyg9TyljNltjSF1bY0hdW2NIXVtjSF1bY0hdNg==

> <s_epik_cmdline>
J2VwaWtfcHl0aG9uJywgJy1waCcsICc3LjAnLCAnLXRuJywgJzgnLCAnLW1hJywgJzIwMCcsICctbWV0YWxfYmluZGluZycsICctaW1hZScsICc8aW5maWxlLm1hZT4nLCAnLW9tYWUnLCAnPG91dGZpbGUubWFlPic=

> <r_lp_tautomer_probability>
1

> <r_epik_Ionization_Penalty>
0.00067664

> <r_epik_Ionization_Penalty_Charging>
0

> <r_epik_Ionization_Penalty_Neutral>
0.00067664

> <r_epik_State_Penalty>
0.000428095

> <r_epik_Charging_Adjusted_Penalty>
0.000428095

> <i_epik_Tot_Q>
0

> <i_epik_Tot_abs_Q>
0

> <r_epik_Metal_State_Penalty>
-0

> <b_epik_Metal_Only>
0

> <s_epik_Chemistry_Notes>
This compound has an ester and may undergo hydrolysis at high or low pH. This compound contains an acetal/aminal-like group ( X-CH(R)-Y where X, Y are N, S, or O) that may be acid/base labile, releasing an aldehyde.

> <s_lp_Force_Field>
OPLS_2005

> <r_lp_Energy>
69.1038

> <b_lp_Chiralities_Consistent>
1

> <s_lp_Variant>
AV-unprocessed.smi:33-4

> <Gold.Version>
5.8.1

> <Gold.Id.Protein>
6NUR|6NUR_protein|mol2

> <Gold.PLP.Fitness>
63.9997

> <Gold.PLP.PLP>
-57.8121

> <Gold.PLP.part.hbond>
-4.0000

> <Gold.PLP.part.metal>
0.0000

> <Gold.PLP.part.buried>
-5.7079

> <Gold.PLP.part.nonpolar>
-48.1600

> <Gold.PLP.part.repulsive>
0.0735

> <Gold.PLP.ligand.clash>
0.0424

> <Gold.PLP.ligand.torsion>
4.5944

> <Gold.PLP.Chemscore.Hbond>
3.8957

> <Gold.PLP.Chemscore.CHOScore>
0.0000

> <Gold.PLP.Chemscore.Metal>
0.0000

> <Gold.Chemscore.Hbonds>
donor molecule, donor type, donor heavy atom, donor atom, acceptor molecule, acceptor atom, score
      L1  H    35    61       P1  7957  1.00
      P1  H  6896  6908       L1    30  0.91
      P1  H  6931  6943       L1    23  0.94
      P1  H  6934  6947       L1    23  0.94

> <Gold.PLP.Chemscore.Internal.Correction>
3.7316

> <Gold.Rescore>
     Score         DG    S(hbond)    S(metal)    S(lipo)     H(rot)  DE(clash)    DE(int)     intcor
     16.39     -28.26       3.61        0.00     147.01       2.52       1.64      10.22       ----

> <Gold.Chemscore.Fitness>
16.3922

> <Gold.Chemscore.DG>
-28.2598

> <Gold.Chemscore.ZeroCoef>
-5.4800

> <Gold.Chemscore.Hbond>
3.6057

> <Gold.Chemscore.Metal>
0.0000

> <Gold.Chemscore.Lipo>
147.0090

> <Gold.Chemscore.Internal_Hbond>
0.0000

> <Gold.Chemscore.DEClash>
1.6438

> <Gold.Chemscore.DEInternal>
10.2238

> <Gold.Chemscore.Rot>
2.5247

> <Gold.Chemscore.Internal.Correction>
   9.000000E+99

> <Gold.Chemscore.Hbonds>
donor molecule, donor type, donor heavy atom, donor atom, acceptor molecule, acceptor atom, score
      L1  H    35    61       P1  7957  0.98
      P1  H  6896  6908       L1    30  0.69
      P1  H  6931  6943       L1    23  0.86
      P1  H  6934  6947       L1    23  0.89

> <Gold.Chemscore.Hbond.Weighted>
-12.0430

> <Gold.Chemscore.Metal.Weighted>
-0.0000

> <Gold.Chemscore.Lipo.Weighted>
-17.2001

> <Gold.Chemscore.Internal_Hbond.Weighted>
0.0000

> <Gold.Chemscore.DEClash.Weighted>
1.6438

> <Gold.Chemscore.DEInternal.Weighted>
10.2238

> <Gold.Chemscore.Rot.Weighted>
6.4633

> <Gold.Chemscore.Internal.Correction.Weighted>
   9.000000E+99

> <Gold.Protein.RotatedTorsions>
[ 6907 6896 6895 6894 ] final  153.10 input  -60.11 | X-H torsion
[ 7974 7965 7964 7962 ] final  -21.03 input  175.53 | X-H torsion
[ 8008 7997 7996 7995 ] final -120.56 input   59.86 | X-H torsion
[ 10167 10162 10161 10158 ] final   -1.54 input  -65.29 | X-H torsion
[ 10718 10713 10712 10709 ] final -142.52 input   66.30 | X-H torsion
[ 10763 10752 10751 10750 ] final -114.50 input  -60.55 | X-H torsion
[ 11005 11000 10999 10996 ] final   74.08 input  -57.11 | X-H torsion

> <Gold.Protein.ActiveResidues>
 VAL166  LYS551  ARG553  GLY616  TRP617  ASP618  TYR619  PRO620  LYS621  CYS622 
 ASP623  PHE694  ASN695  SER759  ASP760  ASP761  ALA762  ILE779  LEU786  VAL792 
 PHE793  MET794  SER795  GLU796  ALA797  LYS798  CYS799  TRP800  GLU811  SER814 

> <Gold.Protein.RotatedAtoms>
  152.0774  133.4136  159.4485 H   0  0  0  0  0  0  0  0  0  0  0  0  # atno 6907 bound_to 6896
  150.6862  134.3022  159.4720 H   0  0  0  0  0  0  0  0  0  0  0  0  # atno 6908 bound_to 6896
  152.0860  134.9439  160.0623 H   0  0  0  0  0  0  0  0  0  0  0  0  # atno 6909 bound_to 6896
  146.1755  140.4285  142.8515 H   0  0  0  0  0  0  0  0  0  0  0  0  # atno 7974 bound_to 7965
  155.1338  140.0400  157.2781 H   0  0  0  0  0  0  0  0  0  0  0  0  # atno 8008 bound_to 7997
  154.6523  140.2572  155.7173 H   0  0  0  0  0  0  0  0  0  0  0  0  # atno 8009 bound_to 7997
  156.2583  140.2833  156.0962 H   0  0  0  0  0  0  0  0  0  0  0  0  # atno 8010 bound_to 7997
  140.6814  143.6764  150.8142 H   0  0  0  0  0  0  0  0  0  0  0  0  # atno 10167 bound_to 10162
  156.3469  130.7667  151.1813 H   0  0  0  0  0  0  0  0  0  0  0  0  # atno 10718 bound_to 10713
  154.8443  135.4415  154.1516 H   0  0  0  0  0  0  0  0  0  0  0  0  # atno 10763 bound_to 10752
  153.2675  135.6942  153.7520 H   0  0  0  0  0  0  0  0  0  0  0  0  # atno 10764 bound_to 10752
  153.6773  135.3409  155.3144 H   0  0  0  0  0  0  0  0  0  0  0  0  # atno 10765 bound_to 10752
  139.9408  134.7402  156.1104 H   0  0  0  0  0  0  0  0  0  0  0  0  # atno 11005 bound_to 11000
  144.8230  140.6581  143.6340 LP  0  0  0  0  0  0  0  0  0  0  0  0  # atno 17320 bound_to 7965
  145.4223  139.1562  143.4067 LP  0  0  0  0  0  0  0  0  0  0  0  0  # atno 17321 bound_to 7965
  140.0464  143.5293  152.2694 LP  0  0  0  0  0  0  0  0  0  0  0  0  # atno 17342 bound_to 10162
  139.6139  144.7615  151.2889 LP  0  0  0  0  0  0  0  0  0  0  0  0  # atno 17343 bound_to 10162
  157.7455  131.0438  150.4764 LP  0  0  0  0  0  0  0  0  0  0  0  0  # atno 17370 bound_to 10713
  156.4953  130.4104  149.6383 LP  0  0  0  0  0  0  0  0  0  0  0  0  # atno 17371 bound_to 10713
  141.1042  133.6666  156.2825 LP  0  0  0  0  0  0  0  0  0  0  0  0  # atno 17394 bound_to 11000
  140.5956  134.5607  157.5508 LP  0  0  0  0  0  0  0  0  0  0  0  0  # atno 17395 bound_to 11000

$$$$
