AV-unprocessed.smi:567|AV-procd|sdf|2956|dock5
  -GOLD-   2262023463D 1   1.00000     0.00000
 Structure written by MMmdl.
 53 54  0  0  0  0  0  0  0  0  2 V2000
  152.9282  143.1876  161.7975 C   0  0  0  0  0  0  0  0  0  0  0  0
  153.8001  142.4621  160.9494 O   0  0  0  0  0  0  0  0  0  0  0  0
  153.3038  142.3506  159.6241 C   0  0  0  0  0  0  0  0  0  0  0  0
  152.5327  141.0294  159.4754 C   0  0  0  0  0  0  0  0  0  0  0  0
  151.5641  141.0879  158.3748 N   0  0  0  0  0  0  0  0  0  0  0  0
  150.4087  141.7790  158.6897 N   0  0  0  0  0  0  0  0  0  0  0  0
  149.4669  141.9106  157.8131 C   0  0  0  0  0  0  0  0  0  0  0  0
  148.2066  142.6322  158.1340 C   0  0  0  0  0  0  0  0  0  0  0  0
  148.1018  143.3646  159.1185 O   0  0  0  0  0  0  0  0  0  0  0  0
  147.1988  142.4068  157.2735 N   0  0  0  0  0  0  0  0  0  0  0  0
  145.8331  142.9037  157.3835 C   0  0  0  0  0  0  0  0  0  0  0  0
  144.7987  141.7687  157.4772 C   0  0  0  0  0  0  0  0  0  0  0  0
  144.5204  141.0225  156.1463 C   0  0  0  0  0  0  0  0  0  0  0  0
  145.6127  139.9821  155.8096 C   0  0  0  0  0  0  0  0  0  0  0  0
  143.2052  140.2362  156.3119 C   0  0  0  0  0  0  0  0  0  0  0  0
  144.3102  141.9798  155.0229 N   0  3  0  0  0  0  0  0  0  0  0  0
  145.2125  143.1562  154.8644 C   0  0  0  0  0  0  0  0  0  0  0  0
  146.5169  142.7790  154.1246 C   0  0  0  0  0  0  0  0  0  0  0  0
  144.4732  144.1612  153.9599 C   0  0  0  0  0  0  0  0  0  0  0  0
  145.4791  143.8503  156.2259 C   0  0  0  0  0  0  0  0  0  0  0  0
  149.6090  141.3562  156.4786 C   0  0  0  0  0  0  0  0  0  0  0  0
  150.7341  140.6644  156.1914 C   0  0  0  0  0  0  0  0  0  0  0  0
  151.8012  140.4734  157.1766 C   0  0  0  0  0  0  0  0  0  0  0  0
  152.8175  139.8180  156.9486 O   0  0  0  0  0  0  0  0  0  0  0  0
  153.3519  143.2382  162.8005 H   0  0  0  0  0  0  0  0  0  0  0  0
  151.9527  142.7046  161.8676 H   0  0  0  0  0  0  0  0  0  0  0  0
  152.7894  144.2081  161.4383 H   0  0  0  0  0  0  0  0  0  0  0  0
  152.6338  143.1870  159.4200 H   0  0  0  0  0  0  0  0  0  0  0  0
  154.1182  142.4019  158.8997 H   0  0  0  0  0  0  0  0  0  0  0  0
  153.2334  140.2088  159.3112 H   0  0  0  0  0  0  0  0  0  0  0  0
  152.0333  140.7922  160.4160 H   0  0  0  0  0  0  0  0  0  0  0  0
  147.3953  141.8040  156.4871 H   0  0  0  0  0  0  0  0  0  0  0  0
  145.7770  143.4879  158.3039 H   0  0  0  0  0  0  0  0  0  0  0  0
  145.0827  141.0602  158.2571 H   0  0  0  0  0  0  0  0  0  0  0  0
  143.8670  142.2183  157.8248 H   0  0  0  0  0  0  0  0  0  0  0  0
  145.6558  139.2052  156.5739 H   0  0  0  0  0  0  0  0  0  0  0  0
  146.6134  140.3956  155.7469 H   0  0  0  0  0  0  0  0  0  0  0  0
  145.4080  139.4880  154.8593 H   0  0  0  0  0  0  0  0  0  0  0  0
  143.2687  139.5225  157.1346 H   0  0  0  0  0  0  0  0  0  0  0  0
  142.9581  139.6742  155.4102 H   0  0  0  0  0  0  0  0  0  0  0  0
  142.3645  140.8990  156.5210 H   0  0  0  0  0  0  0  0  0  0  0  0
  144.2822  141.4668  154.1534 H   0  0  0  0  0  0  0  0  0  0  0  0
  147.0956  143.6705  153.8799 H   0  0  0  0  0  0  0  0  0  0  0  0
  146.3036  142.2675  153.1854 H   0  0  0  0  0  0  0  0  0  0  0  0
  147.1816  142.1387  154.6945 H   0  0  0  0  0  0  0  0  0  0  0  0
  145.0586  145.0697  153.8110 H   0  0  0  0  0  0  0  0  0  0  0  0
  143.5151  144.4583  154.3886 H   0  0  0  0  0  0  0  0  0  0  0  0
  144.2696  143.7387  152.9749 H   0  0  0  0  0  0  0  0  0  0  0  0
  144.5781  144.3898  156.5234 H   0  0  0  0  0  0  0  0  0  0  0  0
  146.2488  144.6161  156.1176 H   0  0  0  0  0  0  0  0  0  0  0  0
  148.8366  141.4830  155.7339 H   0  0  0  0  0  0  0  0  0  0  0  0
  150.8538  140.2414  155.2046 H   0  0  0  0  0  0  0  0  0  0  0  0
  143.3910  142.3696  155.1760 H   0  0  0  0  0  0  0  0  0  0  0  0
  1  2  1  0  0  0  0
  1 25  1  0  0  0  0
  1 26  1  0  0  0  0
  1 27  1  0  0  0  0
  2  3  1  0  0  0  0
  3  4  1  0  0  0  0
  3 28  1  0  0  0  0
  3 29  1  0  0  0  0
  4  5  1  0  0  0  0
  4 30  1  0  0  0  0
  4 31  1  0  0  0  0
  5 23  1  0  0  0  0
  5  6  1  0  0  0  0
  6  7  2  0  0  0  0
  7  8  1  0  0  0  0
  7 21  1  0  0  0  0
  8  9  2  0  0  0  0
  8 10  1  0  0  0  0
 10 11  1  0  0  0  0
 10 32  1  0  0  0  0
 11 20  1  0  0  0  0
 11 12  1  0  0  0  0
 11 33  1  0  0  0  0
 12 13  1  0  0  0  0
 12 34  1  0  0  0  0
 12 35  1  0  0  0  0
 13 14  1  0  0  0  0
 13 15  1  0  0  0  0
 13 16  1  0  0  0  0
 14 36  1  0  0  0  0
 14 37  1  0  0  0  0
 14 38  1  0  0  0  0
 15 39  1  0  0  0  0
 15 40  1  0  0  0  0
 15 41  1  0  0  0  0
 16 17  1  0  0  0  0
 16 42  1  0  0  0  0
 16 53  1  0  0  0  0
 17 18  1  0  0  0  0
 17 19  1  0  0  0  0
 17 20  1  0  0  0  0
 18 43  1  0  0  0  0
 18 44  1  0  0  0  0
 18 45  1  0  0  0  0
 19 46  1  0  0  0  0
 19 47  1  0  0  0  0
 19 48  1  0  0  0  0
 20 49  1  0  0  0  0
 20 50  1  0  0  0  0
 21 22  2  0  0  0  0
 21 51  1  0  0  0  0
 22 23  1  0  0  0  0
 22 52  1  0  0  0  0
 23 24  2  0  0  0  0
M  CHG  1  16   1
M  END
> <s_m_source_file>
AV-unprocessed.smi

> <i_m_source_file_index>
567

> <i_lp_mmshare_version>
43012

> <i_f3d_flags>
0

> <s_epik_input>
W0NIM11PW0NIMl1bQ0gyXW4xbmMoW2NIXVtjSF1jMT1PKUMoPU8pW05IXVtDSF0oW0NIMl1DMihbQ0gzXSlbQ0gzXSlbQ0gyXUMoW05IXTIpKFtDSDNdKVtDSDNd

> <s_epik_cmdline>
J2VwaWtfcHl0aG9uJywgJy1waCcsICc3LjAnLCAnLXRuJywgJzgnLCAnLW1hJywgJzIwMCcsICctbWV0YWxfYmluZGluZycsICctaW1hZScsICc8aW5maWxlLm1hZT4nLCAnLW9tYWUnLCAnPG91dGZpbGUubWFlPic=

> <r_lp_tautomer_probability>
1

> <r_epik_Ionization_Penalty>
0.000138804

> <r_epik_Ionization_Penalty_Charging>
0.000136152

> <r_epik_Ionization_Penalty_Neutral>
2.65225e-06

> <r_epik_State_Penalty>
-0

> <r_epik_Charging_Adjusted_Penalty>
0.000136152

> <i_epik_Tot_Q>
1

> <i_epik_Tot_abs_Q>
1

> <r_epik_Metal_State_Penalty>
-0

> <b_epik_Metal_Only>
0

> <s_lp_Force_Field>
OPLS_2005

> <r_lp_Energy>
46.3617

> <b_lp_Chiralities_Consistent>
1

> <s_lp_Variant>
AV-unprocessed.smi:567-1

> <Gold.Version>
5.8.1

> <Gold.Id.Protein>
6NUR|6NUR_protein|mol2

> <Gold.PLP.Fitness>
44.7456

> <Gold.PLP.PLP>
-36.1913

> <Gold.PLP.part.hbond>
-3.5793

> <Gold.PLP.part.metal>
0.0000

> <Gold.PLP.part.buried>
-5.6425

> <Gold.PLP.part.nonpolar>
-27.7674

> <Gold.PLP.part.repulsive>
0.1722

> <Gold.PLP.ligand.clash>
0.1165

> <Gold.PLP.ligand.torsion>
0.6901

> <Gold.PLP.Chemscore.Hbond>
3.3359

> <Gold.PLP.Chemscore.CHOScore>
0.0000

> <Gold.PLP.Chemscore.Metal>
0.0000

> <Gold.Chemscore.Hbonds>
donor molecule, donor type, donor heavy atom, donor atom, acceptor molecule, acceptor atom, score
      L1  H    16    42       P1 10175  2.00
      P1  H  7997  8008       L1    24  1.00

> <Gold.PLP.Chemscore.Internal.Correction>
0.0432

> <Gold.Rescore>
     Score         DG    S(hbond)    S(metal)    S(lipo)     H(rot)  DE(clash)    DE(int)     intcor
     15.40     -16.24       2.27        0.00      62.50       1.61       0.10       0.73       ----

> <Gold.Chemscore.Fitness>
15.3995

> <Gold.Chemscore.DG>
-16.2361

> <Gold.Chemscore.ZeroCoef>
-5.4800

> <Gold.Chemscore.Hbond>
2.2661

> <Gold.Chemscore.Metal>
0.0000

> <Gold.Chemscore.Lipo>
62.4954

> <Gold.Chemscore.Internal_Hbond>
0.0000

> <Gold.Chemscore.DEClash>
0.1020

> <Gold.Chemscore.DEInternal>
0.7346

> <Gold.Chemscore.Rot>
1.6112

> <Gold.Chemscore.Internal.Correction>
   9.000000E+99

> <Gold.Chemscore.Hbonds>
donor molecule, donor type, donor heavy atom, donor atom, acceptor molecule, acceptor atom, score
      L1  H    16    42       P1 10175  0.29
      P1  H  7997  8008       L1    24  0.99

> <Gold.Chemscore.Hbond.Weighted>
-7.5688

> <Gold.Chemscore.Metal.Weighted>
-0.0000

> <Gold.Chemscore.Lipo.Weighted>
-7.3120

> <Gold.Chemscore.Internal_Hbond.Weighted>
0.0000

> <Gold.Chemscore.DEClash.Weighted>
0.1020

> <Gold.Chemscore.DEInternal.Weighted>
0.7346

> <Gold.Chemscore.Rot.Weighted>
4.1247

> <Gold.Chemscore.Internal.Correction.Weighted>
   9.000000E+99

> <Gold.Protein.RotatedTorsions>
[ 6907 6896 6895 6894 ] final  -79.94 input  -60.11 | X-H torsion
[ 7974 7965 7964 7962 ] final -178.15 input  175.53 | X-H torsion
[ 8008 7997 7996 7995 ] final  -58.17 input   59.86 | X-H torsion
[ 10167 10162 10161 10158 ] final  -92.54 input  -65.29 | X-H torsion
[ 10718 10713 10712 10709 ] final  -65.39 input   66.30 | X-H torsion
[ 10763 10752 10751 10750 ] final  -95.28 input  -60.55 | X-H torsion
[ 11005 11000 10999 10996 ] final  -37.39 input  -57.11 | X-H torsion

> <Gold.Protein.ActiveResidues>
 VAL166  LYS551  ARG553  GLY616  TRP617  ASP618  TYR619  PRO620  LYS621  CYS622 
 ASP623  PHE694  ASN695  SER759  ASP760  ASP761  ALA762  ILE779  LEU786  VAL792 
 PHE793  MET794  SER795  GLU796  ALA797  LYS798  CYS799  TRP800  GLU811  SER814 

> <Gold.Protein.RotatedAtoms>
  150.6939  134.4044  159.5133 H   0  0  0  0  0  0  0  0  0  0  0  0  # atno 6907 bound_to 6896
  152.1813  134.8749  160.0535 H   0  0  0  0  0  0  0  0  0  0  0  0  # atno 6908 bound_to 6896
  151.9739  133.3700  159.4118 H   0  0  0  0  0  0  0  0  0  0  0  0  # atno 6909 bound_to 6896
  144.7130  140.0912  143.6421 H   0  0  0  0  0  0  0  0  0  0  0  0  # atno 7974 bound_to 7965
  154.4297  140.1090  156.5914 H   0  0  0  0  0  0  0  0  0  0  0  0  # atno 8008 bound_to 7997
  155.6008  140.3493  155.4574 H   0  0  0  0  0  0  0  0  0  0  0  0  # atno 8009 bound_to 7997
  156.0175  140.1232  157.0381 H   0  0  0  0  0  0  0  0  0  0  0  0  # atno 8010 bound_to 7997
  140.3338  143.2980  151.9912 H   0  0  0  0  0  0  0  0  0  0  0  0  # atno 10167 bound_to 10162
  156.0672  130.4246  150.1557 H   0  0  0  0  0  0  0  0  0  0  0  0  # atno 10718 bound_to 10713
  154.7133  135.5126  153.8700 H   0  0  0  0  0  0  0  0  0  0  0  0  # atno 10763 bound_to 10752
  153.0799  135.6628  154.0076 H   0  0  0  0  0  0  0  0  0  0  0  0  # atno 10764 bound_to 10752
  153.9913  135.3019  155.3391 H   0  0  0  0  0  0  0  0  0  0  0  0  # atno 10765 bound_to 10752
  140.9948  133.6986  156.1915 H   0  0  0  0  0  0  0  0  0  0  0  0  # atno 11005 bound_to 11000
  145.9619  139.2806  143.1150 LP  0  0  0  0  0  0  0  0  0  0  0  0  # atno 17320 bound_to 7965
  145.9211  140.9114  143.0404 LP  0  0  0  0  0  0  0  0  0  0  0  0  # atno 17321 bound_to 7965
  139.4852  144.6213  151.7249 LP  0  0  0  0  0  0  0  0  0  0  0  0  # atno 17342 bound_to 10162
  140.5373  144.0636  150.6075 LP  0  0  0  0  0  0  0  0  0  0  0  0  # atno 17343 bound_to 10162
  156.9615  130.9806  151.3478 LP  0  0  0  0  0  0  0  0  0  0  0  0  # atno 17370 bound_to 10713
  157.5721  130.8318  149.8406 LP  0  0  0  0  0  0  0  0  0  0  0  0  # atno 17371 bound_to 10713
  140.6983  134.4591  157.5587 LP  0  0  0  0  0  0  0  0  0  0  0  0  # atno 17394 bound_to 11000
  139.9009  134.8558  156.1899 LP  0  0  0  0  0  0  0  0  0  0  0  0  # atno 17395 bound_to 11000

$$$$
