AV-unprocessed.smi:155|AV-procd|sdf|1278|dock8
  -GOLD-   2262018543D 1   1.00000     0.00000
 Structure written by MMmdl.
 63 66  0  0  0  0  0  0  0  0  2 V2000
  146.2927  132.5296  150.8735 C   0  0  0  0  0  0  0  0  0  0  0  0
  147.1183  131.8566  151.9035 N   0  3  0  0  0  0  0  0  0  0  0  0
  146.3694  130.7669  152.5681 C   0  0  0  0  0  0  0  0  0  0  0  0
  147.7204  132.7999  152.8789 C   0  0  0  0  0  0  0  0  0  0  0  0
  146.6829  133.3432  153.8840 C   0  0  0  0  0  0  0  0  0  0  0  0
  147.3184  133.8893  155.0838 N   0  0  0  0  0  0  0  0  0  0  0  0
  148.2891  132.9602  155.6819 C   0  0  0  0  0  0  0  0  0  0  0  0
  149.7191  133.0513  155.1088 C   0  0  0  0  0  0  0  0  0  0  0  0
  150.5894  134.0837  155.8512 C   0  0  0  0  0  0  0  0  0  0  0  0
  150.1566  135.4655  155.6363 N   0  0  0  0  0  0  0  0  0  0  0  0
  151.0498  136.4571  155.8856 C   0  0  0  0  0  0  0  0  0  0  0  0
  152.3277  136.3430  155.4348 N   0  0  0  0  0  0  0  0  0  0  0  0
  153.2211  137.3038  155.6875 C   0  0  0  0  0  0  0  0  0  0  0  0
  153.0522  138.4454  156.3571 N   0  0  0  0  0  0  0  0  0  0  0  0
  151.7691  138.5734  156.8008 C   0  0  0  0  0  0  0  0  0  0  0  0
  150.7145  137.6360  156.6106 C   0  0  0  0  0  0  0  0  0  0  0  0
  149.5471  138.1130  157.1956 N   0  0  0  0  0  0  0  0  0  0  0  0
  149.8950  139.2596  157.7129 C   0  0  0  0  0  0  0  0  0  0  0  0
  151.2077  139.6215  157.5098 N   0  0  0  0  0  0  0  0  0  0  0  0
  151.8575  140.8318  157.9841 C   0  0  0  0  0  0  0  0  0  0  0  0
  152.1081  140.8493  159.5093 C   0  0  1  0  0  0  0  0  0  0  0  0
  153.2771  140.0828  159.7152 O   0  0  0  0  0  0  0  0  0  0  0  0
  152.3719  142.2441  160.1200 C   0  0  1  0  0  0  0  0  0  0  0  0
  153.2903  143.1695  159.3166 C   0  0  0  0  0  0  0  0  0  0  0  0
  152.8495  144.5686  159.7165 C   0  0  0  0  0  0  0  0  0  0  0  0
  151.4991  144.3475  160.3982 C   0  0  0  0  0  0  0  0  0  0  0  0
  151.1674  142.9974  160.1104 O   0  0  0  0  0  0  0  0  0  0  0  0
  148.7533  135.7953  155.8820 C   0  0  0  0  0  0  0  0  0  0  0  0
  147.8604  135.2157  154.7731 C   0  0  0  0  0  0  0  0  0  0  0  0
  145.4346  133.0287  151.3256 H   0  0  0  0  0  0  0  0  0  0  0  0
  145.9187  131.8043  150.1500 H   0  0  0  0  0  0  0  0  0  0  0  0
  146.8642  133.2734  150.3197 H   0  0  0  0  0  0  0  0  0  0  0  0
  145.5303  131.1630  153.1420 H   0  0  0  0  0  0  0  0  0  0  0  0
  147.0157  130.2088  153.2464 H   0  0  0  0  0  0  0  0  0  0  0  0
  145.9788  130.0618  151.8334 H   0  0  0  0  0  0  0  0  0  0  0  0
  148.5412  132.3002  153.3966 H   0  0  0  0  0  0  0  0  0  0  0  0
  148.1616  133.6384  152.3396 H   0  0  0  0  0  0  0  0  0  0  0  0
  146.0330  134.0841  153.4161 H   0  0  0  0  0  0  0  0  0  0  0  0
  146.0356  132.5239  154.1960 H   0  0  0  0  0  0  0  0  0  0  0  0
  148.3259  133.1479  156.7553 H   0  0  0  0  0  0  0  0  0  0  0  0
  147.9299  131.9363  155.5948 H   0  0  0  0  0  0  0  0  0  0  0  0
  150.1917  132.0773  155.2389 H   0  0  0  0  0  0  0  0  0  0  0  0
  149.7164  133.2320  154.0333 H   0  0  0  0  0  0  0  0  0  0  0  0
  150.5944  133.8697  156.9209 H   0  0  0  0  0  0  0  0  0  0  0  0
  151.6182  133.9759  155.5045 H   0  0  0  0  0  0  0  0  0  0  0  0
  154.2139  137.1327  155.2983 H   0  0  0  0  0  0  0  0  0  0  0  0
  149.1964  139.8791  158.2563 H   0  0  0  0  0  0  0  0  0  0  0  0
  152.8066  140.9081  157.4512 H   0  0  0  0  0  0  0  0  0  0  0  0
  151.2683  141.7000  157.6860 H   0  0  0  0  0  0  0  0  0  0  0  0
  151.2849  140.3593  160.0305 H   0  0  0  0  0  0  0  0  0  0  0  0
  153.0192  139.2210  160.0059 H   0  0  0  0  0  0  0  0  0  0  0  0
  152.7424  142.1572  161.1438 H   0  0  0  0  0  0  0  0  0  0  0  0
  154.3462  142.9965  159.5225 H   0  0  0  0  0  0  0  0  0  0  0  0
  153.1251  143.0322  158.2473 H   0  0  0  0  0  0  0  0  0  0  0  0
  153.5575  145.0320  160.4046 H   0  0  0  0  0  0  0  0  0  0  0  0
  152.7593  145.2124  158.8407 H   0  0  0  0  0  0  0  0  0  0  0  0
  151.5881  144.4736  161.4784 H   0  0  0  0  0  0  0  0  0  0  0  0
  150.7285  145.0289  160.0367 H   0  0  0  0  0  0  0  0  0  0  0  0
  148.4481  135.4419  156.8677 H   0  0  0  0  0  0  0  0  0  0  0  0
  148.6129  136.8755  155.9090 H   0  0  0  0  0  0  0  0  0  0  0  0
  148.4022  135.2070  153.8254 H   0  0  0  0  0  0  0  0  0  0  0  0
  147.0103  135.8831  154.6269 H   0  0  0  0  0  0  0  0  0  0  0  0
  147.8870  131.4125  151.4216 H   0  0  0  0  0  0  0  0  0  0  0  0
  1  2  1  0  0  0  0
  1 30  1  0  0  0  0
  1 31  1  0  0  0  0
  1 32  1  0  0  0  0
  2  3  1  0  0  0  0
  2  4  1  0  0  0  0
  2 63  1  0  0  0  0
  3 33  1  0  0  0  0
  3 34  1  0  0  0  0
  3 35  1  0  0  0  0
  4  5  1  0  0  0  0
  4 36  1  0  0  0  0
  4 37  1  0  0  0  0
  5  6  1  0  0  0  0
  5 38  1  0  0  0  0
  5 39  1  0  0  0  0
  6 29  1  0  0  0  0
  6  7  1  0  0  0  0
  7  8  1  0  0  0  0
  7 40  1  0  0  0  0
  7 41  1  0  0  0  0
  8  9  1  0  0  0  0
  8 42  1  0  0  0  0
  8 43  1  0  0  0  0
  9 10  1  0  0  0  0
  9 44  1  0  0  0  0
  9 45  1  0  0  0  0
 10 11  1  0  0  0  0
 10 28  1  0  0  0  0
 11 16  1  0  0  0  0
 11 12  2  0  0  0  0
 12 13  1  0  0  0  0
 13 14  2  0  0  0  0
 13 46  1  0  0  0  0
 14 15  1  0  0  0  0
 15 19  1  0  0  0  0
 15 16  2  0  0  0  0
 16 17  1  0  0  0  0
 17 18  2  0  0  0  0
 18 19  1  0  0  0  0
 18 47  1  0  0  0  0
 19 20  1  0  0  0  0
 20 21  1  0  0  0  0
 20 48  1  0  0  0  0
 20 49  1  0  0  0  0
 21 22  1  0  0  0  0
 21 23  1  0  0  0  0
 21 50  1  0  0  0  0
 22 51  1  0  0  0  0
 23 27  1  0  0  0  0
 23 24  1  0  0  0  0
 23 52  1  0  0  0  0
 24 25  1  0  0  0  0
 24 53  1  0  0  0  0
 24 54  1  0  0  0  0
 25 26  1  0  0  0  0
 25 55  1  0  0  0  0
 25 56  1  0  0  0  0
 26 27  1  0  0  0  0
 26 57  1  0  0  0  0
 26 58  1  0  0  0  0
 28 29  1  0  0  0  0
 28 59  1  0  0  0  0
 28 60  1  0  0  0  0
 29 61  1  0  0  0  0
 29 62  1  0  0  0  0
M  CHG  1   2   1
M  END
> <s_m_source_file>
AV-unprocessed.smi

> <i_m_source_file_index>
155

> <i_lp_mmshare_version>
43012

> <i_f3d_flags>
0

> <s_epik_input>
W0NIM11OKFtDSDNdKVtDSDJdW0NIMl1OMVtDSDJdW0NIMl1bQ0gyXU4oW0NIMl1bQ0gyXTEpYyhuW2NIXW4yKWMoYzIzKW5bY0hdbjNbQ0gyXVtDQEhdKFtPSF0pW0NAQEhdNFtDSDJdW0NIMl1bQ0gyXU80

> <s_epik_cmdline>
J2VwaWtfcHl0aG9uJywgJy1waCcsICc3LjAnLCAnLXRuJywgJzgnLCAnLW1hJywgJzIwMCcsICctbWV0YWxfYmluZGluZycsICctaW1hZScsICc8aW5maWxlLm1hZT4nLCAnLW9tYWUnLCAnPG91dGZpbGUubWFlPic=

> <r_lp_tautomer_probability>
1

> <r_epik_Ionization_Penalty>
0.0599493

> <r_epik_Ionization_Penalty_Charging>
0.00816363

> <r_epik_Ionization_Penalty_Neutral>
0.0517857

> <r_epik_State_Penalty>
0.460607

> <r_epik_Charging_Adjusted_Penalty>
0.468771

> <i_epik_Tot_Q>
1

> <i_epik_Tot_abs_Q>
1

> <r_epik_Metal_State_Penalty>
0.45965

> <b_epik_Metal_Only>
0

> <s_lp_Force_Field>
OPLS_2005

> <r_lp_Energy>
60.0635

> <b_lp_Chiralities_Consistent>
1

> <s_lp_Variant>
AV-unprocessed.smi:155-12

> <Gold.Version>
5.8.1

> <Gold.Id.Protein>
6NUR|6NUR_protein|mol2

> <Gold.PLP.Fitness>
55.8775

> <Gold.PLP.PLP>
-49.1587

> <Gold.PLP.part.hbond>
-3.2512

> <Gold.PLP.part.metal>
0.0000

> <Gold.PLP.part.buried>
-6.0857

> <Gold.PLP.part.nonpolar>
-39.5705

> <Gold.PLP.part.repulsive>
0.2802

> <Gold.PLP.ligand.clash>
0.0000

> <Gold.PLP.ligand.torsion>
1.1679

> <Gold.PLP.Chemscore.Hbond>
2.8960

> <Gold.PLP.Chemscore.CHOScore>
0.0000

> <Gold.PLP.Chemscore.Metal>
0.0000

> <Gold.Chemscore.Hbonds>
donor molecule, donor type, donor heavy atom, donor atom, acceptor molecule, acceptor atom, score
      L1  H     2    63       P1 10747  1.00
      P1  H  7997  8008       L1    14  0.60
      P1  H 10752 10764       L1    12  0.38

> <Gold.PLP.Chemscore.Internal.Correction>
0.3667

> <Gold.Rescore>
     Score         DG    S(hbond)    S(metal)    S(lipo)     H(rot)  DE(clash)    DE(int)     intcor
     14.78     -20.34       2.52        0.00     114.44       2.71       1.42       4.14       ----

> <Gold.Chemscore.Fitness>
14.7792

> <Gold.Chemscore.DG>
-20.3400

> <Gold.Chemscore.ZeroCoef>
-5.4800

> <Gold.Chemscore.Hbond>
2.5160

> <Gold.Chemscore.Metal>
0.0000

> <Gold.Chemscore.Lipo>
114.4380

> <Gold.Chemscore.Internal_Hbond>
0.0000

> <Gold.Chemscore.DEClash>
1.4188

> <Gold.Chemscore.DEInternal>
4.1420

> <Gold.Chemscore.Rot>
2.7080

> <Gold.Chemscore.Internal.Correction>
   9.000000E+99

> <Gold.Chemscore.Hbonds>
donor molecule, donor type, donor heavy atom, donor atom, acceptor molecule, acceptor atom, score
      L1  H     2    63       P1 10747  1.00
      P1  H  7997  8008       L1    14  0.59
      P1  H 10752 10764       L1    12  0.13

> <Gold.Chemscore.Hbond.Weighted>
-8.4033

> <Gold.Chemscore.Metal.Weighted>
-0.0000

> <Gold.Chemscore.Lipo.Weighted>
-13.3892

> <Gold.Chemscore.Internal_Hbond.Weighted>
0.0000

> <Gold.Chemscore.DEClash.Weighted>
1.4188

> <Gold.Chemscore.DEInternal.Weighted>
4.1420

> <Gold.Chemscore.Rot.Weighted>
6.9326

> <Gold.Chemscore.Internal.Correction.Weighted>
   9.000000E+99

> <Gold.Protein.RotatedTorsions>
[ 6907 6896 6895 6894 ] final  -34.47 input  -60.11 | X-H torsion
[ 7974 7965 7964 7962 ] final   38.42 input  175.53 | X-H torsion
[ 8008 7997 7996 7995 ] final  -30.96 input   59.86 | X-H torsion
[ 10167 10162 10161 10158 ] final   45.11 input  -65.29 | X-H torsion
[ 10718 10713 10712 10709 ] final -146.85 input   66.30 | X-H torsion
[ 10763 10752 10751 10750 ] final  -75.22 input  -60.55 | X-H torsion
[ 11005 11000 10999 10996 ] final   34.34 input  -57.11 | X-H torsion

> <Gold.Protein.ActiveResidues>
 VAL166  LYS551  ARG553  GLY616  TRP617  ASP618  TYR619  PRO620  LYS621  CYS622 
 ASP623  PHE694  ASN695  SER759  ASP760  ASP761  ALA762  ILE779  LEU786  VAL792 
 PHE793  MET794  SER795  GLU796  ALA797  LYS798  CYS799  TRP800  GLU811  SER814 

> <Gold.Protein.RotatedAtoms>
  151.0522  134.9680  159.8216 H   0  0  0  0  0  0  0  0  0  0  0  0  # atno 6907 bound_to 6896
  152.5382  134.2523  159.8913 H   0  0  0  0  0  0  0  0  0  0  0  0  # atno 6908 bound_to 6896
  151.2539  133.4293  159.2646 H   0  0  0  0  0  0  0  0  0  0  0  0  # atno 6909 bound_to 6896
  146.1063  139.5774  142.9381 H   0  0  0  0  0  0  0  0  0  0  0  0  # atno 7974 bound_to 7965
  154.4231  140.1777  156.1491 H   0  0  0  0  0  0  0  0  0  0  0  0  # atno 8008 bound_to 7997
  155.9930  140.3367  155.6746 H   0  0  0  0  0  0  0  0  0  0  0  0  # atno 8009 bound_to 7997
  155.6347  140.0673  157.2628 H   0  0  0  0  0  0  0  0  0  0  0  0  # atno 8010 bound_to 7997
  140.3275  144.2630  150.6173 H   0  0  0  0  0  0  0  0  0  0  0  0  # atno 10167 bound_to 10162
  156.4001  130.7929  151.2139 H   0  0  0  0  0  0  0  0  0  0  0  0  # atno 10718 bound_to 10713
  154.4836  135.5838  153.6408 H   0  0  0  0  0  0  0  0  0  0  0  0  # atno 10763 bound_to 10752
  152.9851  135.6096  154.3214 H   0  0  0  0  0  0  0  0  0  0  0  0  # atno 10764 bound_to 10752
  154.3108  135.2845  155.2546 H   0  0  0  0  0  0  0  0  0  0  0  0  # atno 10765 bound_to 10752
  140.2539  134.3271  155.7881 H   0  0  0  0  0  0  0  0  0  0  0  0  # atno 11005 bound_to 11000
  145.5754  141.0389  143.2151 LP  0  0  0  0  0  0  0  0  0  0  0  0  # atno 17320 bound_to 7965
  144.7474  139.7284  143.7287 LP  0  0  0  0  0  0  0  0  0  0  0  0  # atno 17321 bound_to 7965
  140.5428  143.2220  151.8057 LP  0  0  0  0  0  0  0  0  0  0  0  0  # atno 17342 bound_to 10162
  139.4862  144.4578  151.9577 LP  0  0  0  0  0  0  0  0  0  0  0  0  # atno 17343 bound_to 10162
  157.7503  131.0289  150.4070 LP  0  0  0  0  0  0  0  0  0  0  0  0  # atno 17370 bound_to 10713
  156.4348  130.3979  149.6736 LP  0  0  0  0  0  0  0  0  0  0  0  0  # atno 17371 bound_to 10713
  141.2198  133.7369  156.9080 LP  0  0  0  0  0  0  0  0  0  0  0  0  # atno 17394 bound_to 11000
  140.1531  134.9217  157.2618 LP  0  0  0  0  0  0  0  0  0  0  0  0  # atno 17395 bound_to 11000

$$$$
