AV-unprocessed.smi:2580|AV-procd|sdf|10128|dock2
  -GOLD-   2272014143D 1   1.00000     0.00000
 Structure written by MMmdl.
 29 30  0  0  0  0  0  0  0  0  1 V2000
  149.1992  138.8585  156.2613 C   0  0  0  0  0  0  0  0  0  0  0  0
  150.7107  138.6045  156.1137 C   0  0  1  0  0  0  0  0  0  0  0  0
  151.2607  138.8684  154.7267 C   0  0  0  0  0  0  0  0  0  0  0  0
  152.7584  138.8994  155.0072 C   0  0  0  0  0  0  0  0  0  0  0  0
  152.8901  139.4965  156.2943 O   0  0  0  0  0  0  0  0  0  0  0  0
  151.6608  139.4200  157.0186 C   0  0  1  0  0  0  0  0  0  0  0  0
  151.2141  140.8593  157.3252 C   0  0  0  0  0  0  0  0  0  0  0  0
  150.2674  141.3536  156.7113 O   0  0  0  0  0  0  0  0  0  0  0  0
  151.9342  141.5011  158.2637 N   0  0  0  0  0  0  0  0  0  0  0  0
  151.7575  142.8166  158.7735 C   0  0  0  0  0  0  0  0  0  0  0  0
  151.0200  143.7625  158.1385 N   0  0  0  0  0  0  0  0  0  0  0  0
  150.8979  144.9883  158.6889 C   0  0  0  0  0  0  0  0  0  0  0  0
  151.5019  145.3480  159.9067 C   0  0  0  0  0  0  0  0  0  0  0  0
  152.2677  144.3782  160.5771 C   0  0  0  0  0  0  0  0  0  0  0  0
  152.3988  143.0959  160.0075 C   0  0  0  0  0  0  0  0  0  0  0  0
  153.3401  141.9005  160.8315 Cl  0  0  0  0  0  0  0  0  0  0  0  0
  148.9203  139.8689  155.9613 H   0  0  0  0  0  0  0  0  0  0  0  0
  148.8776  138.7127  157.2927 H   0  0  0  0  0  0  0  0  0  0  0  0
  148.6308  138.1680  155.6380 H   0  0  0  0  0  0  0  0  0  0  0  0
  150.8814  137.5506  156.3407 H   0  0  0  0  0  0  0  0  0  0  0  0
  150.9817  138.1036  154.0015 H   0  0  0  0  0  0  0  0  0  0  0  0
  150.9243  139.8354  154.3507 H   0  0  0  0  0  0  0  0  0  0  0  0
  153.1576  137.8851  155.0502 H   0  0  0  0  0  0  0  0  0  0  0  0
  153.3164  139.4521  154.2514 H   0  0  0  0  0  0  0  0  0  0  0  0
  151.8313  138.8839  157.9538 H   0  0  0  0  0  0  0  0  0  0  0  0
  152.7019  140.9830  158.6658 H   0  0  0  0  0  0  0  0  0  0  0  0
  150.3012  145.7027  158.1412 H   0  0  0  0  0  0  0  0  0  0  0  0
  151.3810  146.3407  160.3146 H   0  0  0  0  0  0  0  0  0  0  0  0
  152.7482  144.6148  161.5150 H   0  0  0  0  0  0  0  0  0  0  0  0
  1  2  1  0  0  0  0
  1 17  1  0  0  0  0
  1 18  1  0  0  0  0
  1 19  1  0  0  0  0
  2  6  1  0  0  0  0
  2  3  1  0  0  0  0
  2 20  1  0  0  0  0
  3  4  1  0  0  0  0
  3 21  1  0  0  0  0
  3 22  1  0  0  0  0
  4  5  1  0  0  0  0
  4 23  1  0  0  0  0
  4 24  1  0  0  0  0
  5  6  1  0  0  0  0
  6  7  1  0  0  0  0
  6 25  1  0  0  0  0
  7  8  2  0  0  0  0
  7  9  1  0  0  0  0
  9 10  1  0  0  0  0
  9 26  1  0  0  0  0
 10 15  1  0  0  0  0
 10 11  2  0  0  0  0
 11 12  1  0  0  0  0
 12 13  2  0  0  0  0
 12 27  1  0  0  0  0
 13 14  1  0  0  0  0
 13 28  1  0  0  0  0
 14 15  2  0  0  0  0
 14 29  1  0  0  0  0
 15 16  1  0  0  0  0
M  END
> <s_m_source_file>
AV-unprocessed.smi

> <i_m_source_file_index>
2580

> <i_lp_mmshare_version>
43012

> <i_f3d_flags>
0

> <s_epik_input>
W0NIM11bQ0BASF0xW0NIMl1bQ0gyXU9bQ0BIXTFDKD1PKVtOSF1jMm5bY0hdW2NIXVtjSF1jMkNs

> <s_epik_cmdline>
J2VwaWtfcHl0aG9uJywgJy1waCcsICc3LjAnLCAnLXRuJywgJzgnLCAnLW1hJywgJzIwMCcsICctbWV0YWxfYmluZGluZycsICctaW1hZScsICc8aW5maWxlLm1hZT4nLCAnLW9tYWUnLCAnPG91dGZpbGUubWFlPic=

> <r_lp_tautomer_probability>
1

> <r_epik_Ionization_Penalty>
4.32497e-05

> <r_epik_Ionization_Penalty_Charging>
0

> <r_epik_Ionization_Penalty_Neutral>
4.32497e-05

> <r_epik_State_Penalty>
-0

> <r_epik_Charging_Adjusted_Penalty>
0

> <i_epik_Tot_Q>
0

> <i_epik_Tot_abs_Q>
0

> <r_epik_Metal_State_Penalty>
-0

> <b_epik_Metal_Only>
0

> <s_lp_Force_Field>
OPLS_2005

> <r_lp_Energy>
21.8513

> <b_lp_Chiralities_Consistent>
1

> <s_lp_Variant>
AV-unprocessed.smi:2580-2

> <Gold.Version>
5.8.1

> <Gold.Id.Protein>
6NUR|6NUR_protein|mol2

> <Gold.PLP.Fitness>
39.3275

> <Gold.PLP.PLP>
-33.9341

> <Gold.PLP.part.hbond>
-1.0000

> <Gold.PLP.part.metal>
0.0000

> <Gold.PLP.part.buried>
-5.1787

> <Gold.PLP.part.nonpolar>
-28.4213

> <Gold.PLP.part.repulsive>
0.2945

> <Gold.PLP.ligand.clash>
0.0000

> <Gold.PLP.ligand.torsion>
0.3047

> <Gold.PLP.Chemscore.Hbond>
1.0000

> <Gold.PLP.Chemscore.CHOScore>
0.9974

> <Gold.PLP.Chemscore.Metal>
0.0000

> <Gold.Chemscore.Hbonds>
donor molecule, donor type, donor heavy atom, donor atom, acceptor molecule, acceptor atom, score
      P1  H  7997  8009       L1     5  1.00
      L1  C    12    27       P1  8029  0.96

> <Gold.PLP.Chemscore.Internal.Correction>
0.0108

> <Gold.Rescore>
     Score         DG    S(hbond)    S(metal)    S(lipo)     H(rot)  DE(clash)    DE(int)     intcor
     13.73     -16.60       0.99        0.00      88.70       1.00       0.00       2.87       ----

> <Gold.Chemscore.Fitness>
13.7272

> <Gold.Chemscore.DG>
-16.5983

> <Gold.Chemscore.ZeroCoef>
-5.4800

> <Gold.Chemscore.Hbond>
0.9881

> <Gold.Chemscore.Metal>
0.0000

> <Gold.Chemscore.Lipo>
88.7012

> <Gold.Chemscore.Internal_Hbond>
0.0000

> <Gold.Chemscore.DEClash>
0.0015

> <Gold.Chemscore.DEInternal>
2.8696

> <Gold.Chemscore.Rot>
1.0000

> <Gold.Chemscore.Internal.Correction>
   9.000000E+99

> <Gold.Chemscore.Hbonds>
donor molecule, donor type, donor heavy atom, donor atom, acceptor molecule, acceptor atom, score
      P1  H  7997  8009       L1     5  0.64

> <Gold.Chemscore.Hbond.Weighted>
-3.3003

> <Gold.Chemscore.Metal.Weighted>
-0.0000

> <Gold.Chemscore.Lipo.Weighted>
-10.3780

> <Gold.Chemscore.Internal_Hbond.Weighted>
0.0000

> <Gold.Chemscore.DEClash.Weighted>
0.0015

> <Gold.Chemscore.DEInternal.Weighted>
2.8696

> <Gold.Chemscore.Rot.Weighted>
2.5600

> <Gold.Chemscore.Internal.Correction.Weighted>
   9.000000E+99

> <Gold.Protein.RotatedTorsions>
[ 6907 6896 6895 6894 ] final -101.69 input  -60.11 | X-H torsion
[ 7974 7965 7964 7962 ] final   24.95 input  175.53 | X-H torsion
[ 8008 7997 7996 7995 ] final -165.82 input   59.86 | X-H torsion
[ 10167 10162 10161 10158 ] final  167.85 input  -65.29 | X-H torsion
[ 10718 10713 10712 10709 ] final  -10.90 input   66.30 | X-H torsion
[ 10763 10752 10751 10750 ] final  107.90 input  -60.55 | X-H torsion
[ 11005 11000 10999 10996 ] final   67.64 input  -57.11 | X-H torsion

> <Gold.Protein.ActiveResidues>
 VAL166  LYS551  ARG553  GLY616  TRP617  ASP618  TYR619  PRO620  LYS621  CYS622 
 ASP623  PHE694  ASN695  SER759  ASP760  ASP761  ALA762  ILE779  LEU786  VAL792 
 PHE793  MET794  SER795  GLU796  ALA797  LYS798  CYS799  TRP800  GLU811  SER814 

> <Gold.Protein.RotatedAtoms>
  150.7165  134.0695  159.3859 H   0  0  0  0  0  0  0  0  0  0  0  0  # atno 6907 bound_to 6896
  151.8677  135.0499  160.0485 H   0  0  0  0  0  0  0  0  0  0  0  0  # atno 6908 bound_to 6896
  152.2668  133.5310  159.5451 H   0  0  0  0  0  0  0  0  0  0  0  0  # atno 6909 bound_to 6896
  146.1913  139.7534  142.8830 H   0  0  0  0  0  0  0  0  0  0  0  0  # atno 7974 bound_to 7965
  155.8552  140.0969  157.1649 H   0  0  0  0  0  0  0  0  0  0  0  0  # atno 8008 bound_to 7997
  154.3987  140.1375  156.3955 H   0  0  0  0  0  0  0  0  0  0  0  0  # atno 8009 bound_to 7997
  155.7918  140.3455  155.5356 H   0  0  0  0  0  0  0  0  0  0  0  0  # atno 8010 bound_to 7997
  139.4954  144.3877  151.9552 H   0  0  0  0  0  0  0  0  0  0  0  0  # atno 10167 bound_to 10162
  156.6668  130.4998  149.6013 H   0  0  0  0  0  0  0  0  0  0  0  0  # atno 10718 bound_to 10713
  153.4131  135.3829  155.2063 H   0  0  0  0  0  0  0  0  0  0  0  0  # atno 10763 bound_to 10752
  154.8739  135.3799  154.4476 H   0  0  0  0  0  0  0  0  0  0  0  0  # atno 10764 bound_to 10752
  153.4987  135.7088  153.5906 H   0  0  0  0  0  0  0  0  0  0  0  0  # atno 10765 bound_to 10752
  139.9758  134.6824  156.0356 H   0  0  0  0  0  0  0  0  0  0  0  0  # atno 11005 bound_to 11000
  145.3785  141.0354  143.3191 LP  0  0  0  0  0  0  0  0  0  0  0  0  # atno 17320 bound_to 7965
  144.8491  139.5349  143.6864 LP  0  0  0  0  0  0  0  0  0  0  0  0  # atno 17321 bound_to 7965
  140.3314  144.3312  150.5986 LP  0  0  0  0  0  0  0  0  0  0  0  0  # atno 17342 bound_to 10162
  140.5642  143.2188  151.7713 LP  0  0  0  0  0  0  0  0  0  0  0  0  # atno 17343 bound_to 10162
  156.1969  130.6595  151.1124 LP  0  0  0  0  0  0  0  0  0  0  0  0  # atno 17370 bound_to 10713
  157.7091  131.0743  150.6565 LP  0  0  0  0  0  0  0  0  0  0  0  0  # atno 17371 bound_to 10713
  141.1435  133.6560  156.3800 LP  0  0  0  0  0  0  0  0  0  0  0  0  # atno 17394 bound_to 11000
  140.5197  134.6316  157.5314 LP  0  0  0  0  0  0  0  0  0  0  0  0  # atno 17395 bound_to 11000

$$$$
