AV-unprocessed.smi:2168|AV-procd|sdf|8819|dock5
  -GOLD-   2272012 13D 1   1.00000     0.00000
 Structure written by MMmdl.
 47 48  0  0  0  0  0  0  0  0  2 V2000
  151.7557  144.4329  158.3110 C   0  0  0  0  0  0  0  0  0  0  0  0
  150.9685  143.1199  158.4326 C   0  0  0  0  0  0  0  0  0  0  0  0
  151.8354  141.9522  158.6821 N   0  0  0  0  0  0  0  0  0  0  0  0
  152.6220  141.9603  159.9314 C   0  0  0  0  0  0  0  0  0  0  0  0
  154.1350  141.8365  159.6893 C   0  0  0  0  0  0  0  0  0  0  0  0
  151.5820  140.4703  157.8106 S   0  0  0  0  0  0  0  0  0  0  0  0
  152.5853  140.3580  156.7410 O   0  0  0  0  0  0  0  0  0  0  0  0
  151.3793  139.3784  158.7756 O   0  0  0  0  0  0  0  0  0  0  0  0
  150.0655  140.8295  157.0744 N   0  0  0  0  0  0  0  0  0  0  0  0
  149.9744  140.9181  155.6194 C   0  0  0  0  0  0  0  0  0  0  0  0
  148.9118  139.9971  155.0516 C   0  0  0  0  0  0  0  0  0  0  0  0
  147.5639  140.1200  155.4477 C   0  0  0  0  0  0  0  0  0  0  0  0
  146.5943  139.2657  154.8833 C   0  0  0  0  0  0  0  0  0  0  0  0
  146.9792  138.2953  153.9260 C   0  0  0  0  0  0  0  0  0  0  0  0
  146.0507  137.4210  153.3205 N   0  0  0  0  0  0  0  0  0  0  0  0
  145.1991  136.6588  154.2302 C   0  0  0  0  0  0  0  0  0  0  0  0
  144.0399  136.0063  153.4580 C   0  0  0  0  0  0  0  0  0  0  0  0
  144.5558  135.2212  152.3887 O   0  0  0  0  0  0  0  0  0  0  0  0
  145.2794  136.0119  151.4525 C   0  0  0  0  0  0  0  0  0  0  0  0
  146.4860  136.6629  152.1492 C   0  0  0  0  0  0  0  0  0  0  0  0
  148.2889  138.2200  153.5799 N   0  3  0  0  0  0  0  0  0  0  0  0
  149.2493  139.0148  154.0986 C   0  0  0  0  0  0  0  0  0  0  0  0
  151.0744  145.2732  158.1770 H   0  0  0  0  0  0  0  0  0  0  0  0
  152.4256  144.4220  157.4517 H   0  0  0  0  0  0  0  0  0  0  0  0
  152.3486  144.6337  159.2027 H   0  0  0  0  0  0  0  0  0  0  0  0
  150.2350  143.2056  159.2339 H   0  0  0  0  0  0  0  0  0  0  0  0
  150.3971  142.9483  157.5199 H   0  0  0  0  0  0  0  0  0  0  0  0
  152.4152  142.8876  160.4662 H   0  0  0  0  0  0  0  0  0  0  0  0
  152.2852  141.1537  160.5835 H   0  0  0  0  0  0  0  0  0  0  0  0
  154.6675  141.7646  160.6378 H   0  0  0  0  0  0  0  0  0  0  0  0
  154.5293  142.7072  159.1664 H   0  0  0  0  0  0  0  0  0  0  0  0
  154.3858  140.9526  159.1043 H   0  0  0  0  0  0  0  0  0  0  0  0
  149.5305  141.5418  157.5711 H   0  0  0  0  0  0  0  0  0  0  0  0
  149.7236  141.9436  155.3476 H   0  0  0  0  0  0  0  0  0  0  0  0
  150.9504  140.7046  155.1815 H   0  0  0  0  0  0  0  0  0  0  0  0
  147.2696  140.8693  156.1682 H   0  0  0  0  0  0  0  0  0  0  0  0
  145.5622  139.3825  155.1774 H   0  0  0  0  0  0  0  0  0  0  0  0
  145.8024  135.8905  154.7152 H   0  0  0  0  0  0  0  0  0  0  0  0
  144.7869  137.2851  155.0197 H   0  0  0  0  0  0  0  0  0  0  0  0
  143.4616  135.3643  154.1224 H   0  0  0  0  0  0  0  0  0  0  0  0
  143.3551  136.7630  153.0716 H   0  0  0  0  0  0  0  0  0  0  0  0
  145.6167  135.3750  150.6347 H   0  0  0  0  0  0  0  0  0  0  0  0
  144.6256  136.7694  151.0170 H   0  0  0  0  0  0  0  0  0  0  0  0
  146.9970  137.3172  151.4419 H   0  0  0  0  0  0  0  0  0  0  0  0
  147.1970  135.8959  152.4593 H   0  0  0  0  0  0  0  0  0  0  0  0
  150.2507  138.8500  153.7280 H   0  0  0  0  0  0  0  0  0  0  0  0
  148.5655  137.5237  152.8878 H   0  0  0  0  0  0  0  0  0  0  0  0
  1  2  1  0  0  0  0
  1 23  1  0  0  0  0
  1 24  1  0  0  0  0
  1 25  1  0  0  0  0
  2  3  1  0  0  0  0
  2 26  1  0  0  0  0
  2 27  1  0  0  0  0
  3  4  1  0  0  0  0
  3  6  1  0  0  0  0
  4  5  1  0  0  0  0
  4 28  1  0  0  0  0
  4 29  1  0  0  0  0
  5 30  1  0  0  0  0
  5 31  1  0  0  0  0
  5 32  1  0  0  0  0
  6  7  2  0  0  0  0
  6  8  2  0  0  0  0
  6  9  1  0  0  0  0
  9 10  1  0  0  0  0
  9 33  1  0  0  0  0
 10 11  1  0  0  0  0
 10 34  1  0  0  0  0
 10 35  1  0  0  0  0
 11 22  1  0  0  0  0
 11 12  2  0  0  0  0
 12 13  1  0  0  0  0
 12 36  1  0  0  0  0
 13 14  2  0  0  0  0
 13 37  1  0  0  0  0
 14 15  1  0  0  0  0
 14 21  1  0  0  0  0
 15 20  1  0  0  0  0
 15 16  1  0  0  0  0
 16 17  1  0  0  0  0
 16 38  1  0  0  0  0
 16 39  1  0  0  0  0
 17 18  1  0  0  0  0
 17 40  1  0  0  0  0
 17 41  1  0  0  0  0
 18 19  1  0  0  0  0
 19 20  1  0  0  0  0
 19 42  1  0  0  0  0
 19 43  1  0  0  0  0
 20 44  1  0  0  0  0
 20 45  1  0  0  0  0
 21 22  2  0  0  0  0
 21 47  1  0  0  0  0
 22 46  1  0  0  0  0
M  CHG  1  21   1
M  END
> <s_m_source_file>
AV-unprocessed.smi

> <i_m_source_file_index>
2168

> <i_lp_mmshare_version>
43012

> <i_f3d_flags>
0

> <s_epik_input>
W0NIM11bQ0gyXU4oW0NIMl1bQ0gzXSlTKD1PKSg9TylbTkhdW0NIMl1jMVtjSF1bY0hdYyhuW2NIXTEpTjJbQ0gyXVtDSDJdT1tDSDJdW0NIMl0y

> <s_epik_cmdline>
J2VwaWtfcHl0aG9uJywgJy1waCcsICc3LjAnLCAnLXRuJywgJzgnLCAnLW1hJywgJzIwMCcsICctbWV0YWxfYmluZGluZycsICctaW1hZScsICc8aW5maWxlLm1hZT4nLCAnLW9tYWUnLCAnPG91dGZpbGUubWFlPic=

> <r_lp_tautomer_probability>
0.999994

> <r_epik_Ionization_Penalty>
2.66893

> <r_epik_Ionization_Penalty_Charging>
2.61323

> <r_epik_Ionization_Penalty_Neutral>
0.0557011

> <r_epik_State_Penalty>
2.68492

> <r_epik_Charging_Adjusted_Penalty>
5.29815

> <i_epik_Tot_Q>
1

> <i_epik_Tot_abs_Q>
1

> <r_epik_Metal_State_Penalty>
5.63236

> <b_epik_Metal_Only>
0

> <s_lp_Force_Field>
OPLS_2005

> <r_lp_Energy>
21.5493

> <b_lp_Chiralities_Consistent>
1

> <s_lp_Variant>
AV-unprocessed.smi:2168-2

> <Gold.Version>
5.8.1

> <Gold.Id.Protein>
6NUR|6NUR_protein|mol2

> <Gold.PLP.Fitness>
41.4186

> <Gold.PLP.PLP>
-33.6920

> <Gold.PLP.part.hbond>
-3.0000

> <Gold.PLP.part.metal>
0.0000

> <Gold.PLP.part.buried>
6.0738

> <Gold.PLP.part.nonpolar>
-36.7624

> <Gold.PLP.part.repulsive>
0.5116

> <Gold.PLP.ligand.clash>
0.0000

> <Gold.PLP.ligand.torsion>
2.0570

> <Gold.PLP.Chemscore.Hbond>
3.0000

> <Gold.PLP.Chemscore.CHOScore>
0.0000

> <Gold.PLP.Chemscore.Metal>
0.0000

> <Gold.Chemscore.Hbonds>
donor molecule, donor type, donor heavy atom, donor atom, acceptor molecule, acceptor atom, score
      L1  H    21    47       P1  7948  2.00
      P1  H  7997  8009       L1     7  0.98

> <Gold.PLP.Chemscore.Internal.Correction>
2.8406

> <Gold.Rescore>
     Score         DG    S(hbond)    S(metal)    S(lipo)     H(rot)  DE(clash)    DE(int)     intcor
     13.14     -17.65       1.91        0.00      93.03       1.99       2.27       2.24       ----

> <Gold.Chemscore.Fitness>
13.1437

> <Gold.Chemscore.DG>
-17.6530

> <Gold.Chemscore.ZeroCoef>
-5.4800

> <Gold.Chemscore.Hbond>
1.9136

> <Gold.Chemscore.Metal>
0.0000

> <Gold.Chemscore.Lipo>
93.0251

> <Gold.Chemscore.Internal_Hbond>
0.0000

> <Gold.Chemscore.DEClash>
2.2689

> <Gold.Chemscore.DEInternal>
2.2404

> <Gold.Chemscore.Rot>
1.9932

> <Gold.Chemscore.Internal.Correction>
   9.000000E+99

> <Gold.Chemscore.Hbonds>
donor molecule, donor type, donor heavy atom, donor atom, acceptor molecule, acceptor atom, score
      L1  H    21    47       P1  7948  1.00
      P1  H  7997  8009       L1     7  0.93

> <Gold.Chemscore.Hbond.Weighted>
-6.3915

> <Gold.Chemscore.Metal.Weighted>
-0.0000

> <Gold.Chemscore.Lipo.Weighted>
-10.8839

> <Gold.Chemscore.Internal_Hbond.Weighted>
0.0000

> <Gold.Chemscore.DEClash.Weighted>
2.2689

> <Gold.Chemscore.DEInternal.Weighted>
2.2404

> <Gold.Chemscore.Rot.Weighted>
5.1025

> <Gold.Chemscore.Internal.Correction.Weighted>
   9.000000E+99

> <Gold.Protein.RotatedTorsions>
[ 6907 6896 6895 6894 ] final -146.83 input  -60.11 | X-H torsion
[ 7974 7965 7964 7962 ] final -151.28 input  175.53 | X-H torsion
[ 8008 7997 7996 7995 ] final -173.96 input   59.86 | X-H torsion
[ 10167 10162 10161 10158 ] final -129.60 input  -65.29 | X-H torsion
[ 10718 10713 10712 10709 ] final  -42.84 input   66.30 | X-H torsion
[ 10763 10752 10751 10750 ] final  173.47 input  -60.55 | X-H torsion
[ 11005 11000 10999 10996 ] final  118.44 input  -57.11 | X-H torsion

> <Gold.Protein.ActiveResidues>
 VAL166  LYS551  ARG553  GLY616  TRP617  ASP618  TYR619  PRO620  LYS621  CYS622 
 ASP623  PHE694  ASN695  SER759  ASP760  ASP761  ALA762  ILE779  LEU786  VAL792 
 PHE793  MET794  SER795  GLU796  ALA797  LYS798  CYS799  TRP800  GLU811  SER814 

> <Gold.Protein.RotatedAtoms>
  151.1471  133.4932  159.2595 H   0  0  0  0  0  0  0  0  0  0  0  0  # atno 6907 bound_to 6896
  151.1593  135.0265  159.8713 H   0  0  0  0  0  0  0  0  0  0  0  0  # atno 6908 bound_to 6896
  152.5463  134.1347  159.8507 H   0  0  0  0  0  0  0  0  0  0  0  0  # atno 6909 bound_to 6896
  144.7859  140.4818  143.5807 H   0  0  0  0  0  0  0  0  0  0  0  0  # atno 7974 bound_to 7965
  155.9641  140.1150  157.0870 H   0  0  0  0  0  0  0  0  0  0  0  0  # atno 8008 bound_to 7997
  154.4139  140.1176  156.5285 H   0  0  0  0  0  0  0  0  0  0  0  0  # atno 8009 bound_to 7997
  155.6682  140.3473  155.4810 H   0  0  0  0  0  0  0  0  0  0  0  0  # atno 8010 bound_to 7997
  139.9381  143.6195  152.2511 H   0  0  0  0  0  0  0  0  0  0  0  0  # atno 10167 bound_to 10162
  156.2553  130.4192  149.8603 H   0  0  0  0  0  0  0  0  0  0  0  0  # atno 10718 bound_to 10713
  154.4406  135.2762  155.1850 H   0  0  0  0  0  0  0  0  0  0  0  0  # atno 10763 bound_to 10752
  154.3718  135.6107  153.5748 H   0  0  0  0  0  0  0  0  0  0  0  0  # atno 10764 bound_to 10752
  152.9840  135.5859  154.4732 H   0  0  0  0  0  0  0  0  0  0  0  0  # atno 10765 bound_to 10752
  139.9110  134.9620  156.7503 H   0  0  0  0  0  0  0  0  0  0  0  0  # atno 11005 bound_to 11000
  145.5924  139.1497  143.3175 LP  0  0  0  0  0  0  0  0  0  0  0  0  # atno 17320 bound_to 7965
  146.2090  140.6049  142.9068 LP  0  0  0  0  0  0  0  0  0  0  0  0  # atno 17321 bound_to 7965
  139.6727  144.7660  151.1753 LP  0  0  0  0  0  0  0  0  0  0  0  0  # atno 17342 bound_to 10162
  140.7619  143.5841  150.8864 LP  0  0  0  0  0  0  0  0  0  0  0  0  # atno 17343 bound_to 10162
  156.6137  130.8597  151.3460 LP  0  0  0  0  0  0  0  0  0  0  0  0  # atno 17370 bound_to 10713
  157.7230  130.9584  150.1517 LP  0  0  0  0  0  0  0  0  0  0  0  0  # atno 17371 bound_to 10713
  140.6778  133.9501  155.7893 LP  0  0  0  0  0  0  0  0  0  0  0  0  # atno 17394 bound_to 11000
  141.0531  134.0455  157.3757 LP  0  0  0  0  0  0  0  0  0  0  0  0  # atno 17395 bound_to 11000

$$$$
