AV-unprocessed.smi:197|AV-procd|sdf|1551|dock7
  -GOLD-   2262019423D 1   1.00000     0.00000
 Structure written by MMmdl.
 54 57  0  0  0  0  0  0  0  0  1 V2000
  150.8371  141.0729  155.6498 C   0  0  0  0  0  0  0  0  0  0  0  0
  151.3817  140.0065  154.8876 O   0  0  0  0  0  0  0  0  0  0  0  0
  150.4144  139.0962  154.3829 C   0  0  0  0  0  0  0  0  0  0  0  0
  149.4941  138.5643  155.4973 C   0  0  0  0  0  0  0  0  0  0  0  0
  150.1250  137.4255  156.3360 C   0  0  1  0  0  0  0  0  0  0  0  0
  151.3324  137.8928  157.1785 C   0  0  0  0  0  0  0  0  0  0  0  0
  150.8971  138.7579  158.2231 O   0  0  0  0  0  0  0  0  0  0  0  0
  150.0204  138.0977  159.1296 C   0  0  0  0  0  0  0  0  0  0  0  0
  148.7663  137.6161  158.3831 C   0  0  0  0  0  0  0  0  0  0  0  0
  149.1489  136.7979  157.2329 N   0  0  0  0  0  0  0  0  0  0  0  0
  148.1938  136.0254  156.6497 C   0  0  0  0  0  0  0  0  0  0  0  0
  146.8914  136.1809  157.0109 N   0  0  0  0  0  0  0  0  0  0  0  0
  145.9350  135.4497  156.4322 C   0  0  0  0  0  0  0  0  0  0  0  0
  146.0557  134.5188  155.4849 N   0  0  0  0  0  0  0  0  0  0  0  0
  147.3591  134.3491  155.1223 C   0  0  0  0  0  0  0  0  0  0  0  0
  148.4806  135.0499  155.6515 C   0  0  0  0  0  0  0  0  0  0  0  0
  149.6468  134.5892  155.0510 N   0  0  0  0  0  0  0  0  0  0  0  0
  149.2376  133.6832  154.2060 C   0  0  0  0  0  0  0  0  0  0  0  0
  147.8767  133.4808  154.1772 N   0  0  0  0  0  0  0  0  0  0  0  0
  147.1553  132.5413  153.3324 C   0  0  0  0  0  0  0  0  0  0  0  0
  146.2394  133.2317  152.2878 C   0  0  2  0  0  0  0  0  0  0  0  0
  147.0526  134.0756  151.4889 O   0  0  0  0  0  0  0  0  0  0  0  0
  145.1413  134.0906  152.9065 C   0  0  0  0  0  0  0  0  0  0  0  0
  144.0558  134.0727  151.8415 C   0  0  0  0  0  0  0  0  0  0  0  0
  144.0965  132.7334  151.3816 O   0  0  0  0  0  0  0  0  0  0  0  0
  145.4524  132.2942  151.3291 C   0  0  2  0  0  0  0  0  0  0  0  0
  145.4594  130.7956  151.6707 C   0  0  0  0  0  0  0  0  0  0  0  0
  151.6376  141.7510  155.9449 H   0  0  0  0  0  0  0  0  0  0  0  0
  150.3534  140.7203  156.5602 H   0  0  0  0  0  0  0  0  0  0  0  0
  150.1135  141.6453  155.0680 H   0  0  0  0  0  0  0  0  0  0  0  0
  149.8358  139.5530  153.5784 H   0  0  0  0  0  0  0  0  0  0  0  0
  150.9658  138.2701  153.9358 H   0  0  0  0  0  0  0  0  0  0  0  0
  149.1940  139.3889  156.1444 H   0  0  0  0  0  0  0  0  0  0  0  0
  148.5774  138.1943  155.0402 H   0  0  0  0  0  0  0  0  0  0  0  0
  150.4993  136.6781  155.6393 H   0  0  0  0  0  0  0  0  0  0  0  0
  151.8492  137.0332  157.6088 H   0  0  0  0  0  0  0  0  0  0  0  0
  152.0680  138.4128  156.5668 H   0  0  0  0  0  0  0  0  0  0  0  0
  150.5350  137.2597  159.6025 H   0  0  0  0  0  0  0  0  0  0  0  0
  149.7420  138.7896  159.9245 H   0  0  0  0  0  0  0  0  0  0  0  0
  148.1400  137.0397  159.0656 H   0  0  0  0  0  0  0  0  0  0  0  0
  148.1775  138.4705  158.0471 H   0  0  0  0  0  0  0  0  0  0  0  0
  144.9289  135.6398  156.7761 H   0  0  0  0  0  0  0  0  0  0  0  0
  149.9208  133.1368  153.5720 H   0  0  0  0  0  0  0  0  0  0  0  0
  147.8863  131.9031  152.8344 H   0  0  0  0  0  0  0  0  0  0  0  0
  146.5717  131.8913  153.9847 H   0  0  0  0  0  0  0  0  0  0  0  0
  147.6138  134.5773  152.0602 H   0  0  0  0  0  0  0  0  0  0  0  0
  144.7545  133.6124  153.8069 H   0  0  0  0  0  0  0  0  0  0  0  0
  145.4649  135.0967  153.1768 H   0  0  0  0  0  0  0  0  0  0  0  0
  143.0729  134.3336  152.2341 H   0  0  0  0  0  0  0  0  0  0  0  0
  144.2948  134.7521  151.0221 H   0  0  0  0  0  0  0  0  0  0  0  0
  145.8045  132.4142  150.3026 H   0  0  0  0  0  0  0  0  0  0  0  0
  146.4680  130.3833  151.6394 H   0  0  0  0  0  0  0  0  0  0  0  0
  144.8575  130.2363  150.9542 H   0  0  0  0  0  0  0  0  0  0  0  0
  145.0434  130.6090  152.6610 H   0  0  0  0  0  0  0  0  0  0  0  0
  1  2  1  0  0  0  0
  1 28  1  0  0  0  0
  1 29  1  0  0  0  0
  1 30  1  0  0  0  0
  2  3  1  0  0  0  0
  3  4  1  0  0  0  0
  3 31  1  0  0  0  0
  3 32  1  0  0  0  0
  4  5  1  0  0  0  0
  4 33  1  0  0  0  0
  4 34  1  0  0  0  0
  5 10  1  0  0  0  0
  5  6  1  0  0  0  0
  5 35  1  0  0  0  0
  6  7  1  0  0  0  0
  6 36  1  0  0  0  0
  6 37  1  0  0  0  0
  7  8  1  0  0  0  0
  8  9  1  0  0  0  0
  8 38  1  0  0  0  0
  8 39  1  0  0  0  0
  9 10  1  0  0  0  0
  9 40  1  0  0  0  0
  9 41  1  0  0  0  0
 10 11  1  0  0  0  0
 11 16  1  0  0  0  0
 11 12  2  0  0  0  0
 12 13  1  0  0  0  0
 13 14  2  0  0  0  0
 13 42  1  0  0  0  0
 14 15  1  0  0  0  0
 15 19  1  0  0  0  0
 15 16  2  0  0  0  0
 16 17  1  0  0  0  0
 17 18  2  0  0  0  0
 18 19  1  0  0  0  0
 18 43  1  0  0  0  0
 19 20  1  0  0  0  0
 20 21  1  0  0  0  0
 20 44  1  0  0  0  0
 20 45  1  0  0  0  0
 21 26  1  0  0  0  0
 21 22  1  0  0  0  0
 21 23  1  0  0  0  0
 22 46  1  0  0  0  0
 23 24  1  0  0  0  0
 23 47  1  0  0  0  0
 23 48  1  0  0  0  0
 24 25  1  0  0  0  0
 24 49  1  0  0  0  0
 24 50  1  0  0  0  0
 25 26  1  0  0  0  0
 26 27  1  0  0  0  0
 26 51  1  0  0  0  0
 27 52  1  0  0  0  0
 27 53  1  0  0  0  0
 27 54  1  0  0  0  0
M  END
> <s_m_source_file>
AV-unprocessed.smi

> <i_m_source_file_index>
197

> <i_lp_mmshare_version>
43012

> <i_f3d_flags>
0

> <s_epik_input>
W0NIM11PW0NIMl1bQ0gyXVtDQEBIXTFbQ0gyXU9bQ0gyXVtDSDJdTjFjKG5bY0hdbjIpYyhjMjMpbltjSF1uM1tDSDJdW0NAQF00KFtPSF0pW0NIMl1bQ0gyXU9bQ0BIXTRbQ0gzXQ==

> <s_epik_cmdline>
J2VwaWtfcHl0aG9uJywgJy1waCcsICc3LjAnLCAnLXRuJywgJzgnLCAnLW1hJywgJzIwMCcsICctbWV0YWxfYmluZGluZycsICctaW1hZScsICc8aW5maWxlLm1hZT4nLCAnLW9tYWUnLCAnPG91dGZpbGUubWFlPic=

> <r_lp_tautomer_probability>
1

> <r_epik_Ionization_Penalty>
0.000106218

> <r_epik_Ionization_Penalty_Charging>
0

> <r_epik_Ionization_Penalty_Neutral>
0.000106218

> <r_epik_State_Penalty>
-0

> <r_epik_Charging_Adjusted_Penalty>
0

> <i_epik_Tot_Q>
0

> <i_epik_Tot_abs_Q>
0

> <r_epik_Metal_State_Penalty>
-0

> <b_epik_Metal_Only>
0

> <s_lp_Force_Field>
OPLS_2005

> <r_lp_Energy>
41.9523

> <b_lp_Chiralities_Consistent>
1

> <s_lp_Variant>
AV-unprocessed.smi:197-8

> <Gold.Version>
5.8.1

> <Gold.Id.Protein>
6NUR|6NUR_protein|mol2

> <Gold.PLP.Fitness>
36.3389

> <Gold.PLP.PLP>
-31.7810

> <Gold.PLP.part.hbond>
-2.0000

> <Gold.PLP.part.metal>
0.0000

> <Gold.PLP.part.buried>
-5.1709

> <Gold.PLP.part.nonpolar>
-24.8729

> <Gold.PLP.part.repulsive>
0.3932

> <Gold.PLP.ligand.clash>
0.0000

> <Gold.PLP.ligand.torsion>
0.4217

> <Gold.PLP.Chemscore.Hbond>
1.6240

> <Gold.PLP.Chemscore.CHOScore>
0.0000

> <Gold.PLP.Chemscore.Metal>
0.0000

> <Gold.Chemscore.Hbonds>
donor molecule, donor type, donor heavy atom, donor atom, acceptor molecule, acceptor atom, score
      L1  H    22    46       P1  7948  0.61
      P1  H  7989  7998       L1     2  0.81

> <Gold.PLP.Chemscore.Internal.Correction>
0.5293

> <Gold.Rescore>
     Score         DG    S(hbond)    S(metal)    S(lipo)     H(rot)  DE(clash)    DE(int)     intcor
      8.65     -10.71       1.27        0.00      70.58       2.84       0.15       1.91       ----

> <Gold.Chemscore.Fitness>
8.6508

> <Gold.Chemscore.DG>
-10.7147

> <Gold.Chemscore.ZeroCoef>
-5.4800

> <Gold.Chemscore.Hbond>
1.2684

> <Gold.Chemscore.Metal>
0.0000

> <Gold.Chemscore.Lipo>
70.5799

> <Gold.Chemscore.Internal_Hbond>
0.0000

> <Gold.Chemscore.DEClash>
0.1514

> <Gold.Chemscore.DEInternal>
1.9126

> <Gold.Chemscore.Rot>
2.8358

> <Gold.Chemscore.Internal.Correction>
   9.000000E+99

> <Gold.Chemscore.Hbonds>
donor molecule, donor type, donor heavy atom, donor atom, acceptor molecule, acceptor atom, score
      L1  H    22    46       P1  7948  0.32
      P1  H  7989  7998       L1     2  0.03

> <Gold.Chemscore.Hbond.Weighted>
-4.2364

> <Gold.Chemscore.Metal.Weighted>
-0.0000

> <Gold.Chemscore.Lipo.Weighted>
-8.2578

> <Gold.Chemscore.Internal_Hbond.Weighted>
0.0000

> <Gold.Chemscore.DEClash.Weighted>
0.1514

> <Gold.Chemscore.DEInternal.Weighted>
1.9126

> <Gold.Chemscore.Rot.Weighted>
7.2596

> <Gold.Chemscore.Internal.Correction.Weighted>
   9.000000E+99

> <Gold.Protein.RotatedTorsions>
[ 6907 6896 6895 6894 ] final  120.50 input  -60.11 | X-H torsion
[ 7974 7965 7964 7962 ] final  133.05 input  175.53 | X-H torsion
[ 8008 7997 7996 7995 ] final  146.31 input   59.86 | X-H torsion
[ 10167 10162 10161 10158 ] final   23.92 input  -65.29 | X-H torsion
[ 10718 10713 10712 10709 ] final  -77.09 input   66.30 | X-H torsion
[ 10763 10752 10751 10750 ] final   -6.54 input  -60.55 | X-H torsion
[ 11005 11000 10999 10996 ] final -162.81 input  -57.11 | X-H torsion

> <Gold.Protein.ActiveResidues>
 VAL166  LYS551  ARG553  GLY616  TRP617  ASP618  TYR619  PRO620  LYS621  CYS622 
 ASP623  PHE694  ASN695  SER759  ASP760  ASP761  ALA762  ILE779  LEU786  VAL792 
 PHE793  MET794  SER795  GLU796  ALA797  LYS798  CYS799  TRP800  GLU811  SER814 

> <Gold.Protein.RotatedAtoms>
  152.4393  133.7419  159.6645 H   0  0  0  0  0  0  0  0  0  0  0  0  # atno 6907 bound_to 6896
  150.8282  133.8126  159.3116 H   0  0  0  0  0  0  0  0  0  0  0  0  # atno 6908 bound_to 6896
  151.5788  135.1062  160.0064 H   0  0  0  0  0  0  0  0  0  0  0  0  # atno 6909 bound_to 6896
  144.9906  139.4411  143.5341 H   0  0  0  0  0  0  0  0  0  0  0  0  # atno 7974 bound_to 7965
  156.2859  140.2186  156.5355 H   0  0  0  0  0  0  0  0  0  0  0  0  # atno 8008 bound_to 7997
  154.7413  140.0487  157.0835 H   0  0  0  0  0  0  0  0  0  0  0  0  # atno 8009 bound_to 7997
  155.0227  140.3126  155.4790 H   0  0  0  0  0  0  0  0  0  0  0  0  # atno 8010 bound_to 7997
  140.5230  143.9971  150.6426 H   0  0  0  0  0  0  0  0  0  0  0  0  # atno 10167 bound_to 10162
  156.0155  130.4482  150.3292 H   0  0  0  0  0  0  0  0  0  0  0  0  # atno 10718 bound_to 10713
  153.4138  135.7008  153.6341 H   0  0  0  0  0  0  0  0  0  0  0  0  # atno 10763 bound_to 10752
  153.4824  135.3690  155.2449 H   0  0  0  0  0  0  0  0  0  0  0  0  # atno 10764 bound_to 10752
  154.8718  135.4069  154.3494 H   0  0  0  0  0  0  0  0  0  0  0  0  # atno 10765 bound_to 10752
  140.6051  134.4907  157.5209 H   0  0  0  0  0  0  0  0  0  0  0  0  # atno 11005 bound_to 11000
  146.3430  139.9234  142.8763 LP  0  0  0  0  0  0  0  0  0  0  0  0  # atno 17320 bound_to 7965
  145.2292  140.9966  143.4001 LP  0  0  0  0  0  0  0  0  0  0  0  0  # atno 17321 bound_to 7965
  140.3325  143.3069  152.0672 LP  0  0  0  0  0  0  0  0  0  0  0  0  # atno 17342 bound_to 10162
  139.4929  144.6499  151.6698 LP  0  0  0  0  0  0  0  0  0  0  0  0  # atno 17343 bound_to 10162
  157.1390  131.0291  151.2936 LP  0  0  0  0  0  0  0  0  0  0  0  0  # atno 17370 bound_to 10713
  157.4487  130.7586  149.7132 LP  0  0  0  0  0  0  0  0  0  0  0  0  # atno 17371 bound_to 10713
  139.9216  134.8138  156.1195 LP  0  0  0  0  0  0  0  0  0  0  0  0  # atno 17394 bound_to 11000
  141.0846  133.6740  156.2408 LP  0  0  0  0  0  0  0  0  0  0  0  0  # atno 17395 bound_to 11000

$$$$
