AV-unprocessed.smi:861|AV-procd|sdf|3971|dock4
  -GOLD-   22720 1443D 1   1.00000     0.00000
 Structure written by MMmdl.
 43 44  0  0  0  0  0  0  0  0  1 V2000
  152.4682  143.4415  161.6430 C   0  0  0  0  0  0  0  0  0  0  0  0
  152.8161  142.9756  160.2188 C   0  0  0  0  0  0  0  0  0  0  0  0
  152.1767  143.9125  159.1822 C   0  0  0  0  0  0  0  0  0  0  0  0
  152.4068  141.5113  159.9565 C   0  0  0  0  0  0  0  0  0  0  0  0
  152.4302  141.1139  158.4669 C   0  0  0  0  0  0  0  0  0  0  0  0
  151.5761  139.9801  158.1128 N   0  0  0  0  0  0  0  0  0  0  0  0
  151.8090  138.8550  159.0117 C   0  0  0  0  0  0  0  0  0  0  0  0
  150.9282  137.6458  158.6588 C   0  0  0  0  0  0  0  0  0  0  0  0
  151.1616  137.2737  157.3054 O   0  0  0  0  0  0  0  0  0  0  0  0
  150.8856  138.3229  156.3807 C   0  0  2  0  0  0  0  0  0  0  0  0
  151.1609  137.8212  154.9527 C   0  0  0  0  0  0  0  0  0  0  0  0
  149.9924  137.9369  154.0873 N   0  0  0  0  0  0  0  0  0  0  0  0
  149.2598  139.1306  154.0115 C   0  0  0  0  0  0  0  0  0  0  0  0
  147.8630  139.0596  153.8382 C   0  0  0  0  0  0  0  0  0  0  0  0
  147.1507  140.2693  153.7695 C   0  0  0  0  0  0  0  0  0  0  0  0
  147.8905  141.4606  153.8819 C   0  0  0  0  0  0  0  0  0  0  0  0
  149.2316  141.4715  154.0512 N   0  0  0  0  0  0  0  0  0  0  0  0
  149.9071  140.3186  154.1176 N   0  0  0  0  0  0  0  0  0  0  0  0
  151.7757  139.5312  156.7356 C   0  0  0  0  0  0  0  0  0  0  0  0
  151.3994  143.3514  161.8396 H   0  0  0  0  0  0  0  0  0  0  0  0
  152.7440  144.4862  161.7895 H   0  0  0  0  0  0  0  0  0  0  0  0
  152.9977  142.8638  162.3999 H   0  0  0  0  0  0  0  0  0  0  0  0
  153.8973  143.0507  160.0963 H   0  0  0  0  0  0  0  0  0  0  0  0
  151.0881  143.8812  159.2391 H   0  0  0  0  0  0  0  0  0  0  0  0
  152.4653  143.6353  158.1679 H   0  0  0  0  0  0  0  0  0  0  0  0
  152.4890  144.9453  159.3392 H   0  0  0  0  0  0  0  0  0  0  0  0
  153.0525  140.8415  160.5262 H   0  0  0  0  0  0  0  0  0  0  0  0
  151.4006  141.3680  160.3490 H   0  0  0  0  0  0  0  0  0  0  0  0
  152.1670  141.9777  157.8546 H   0  0  0  0  0  0  0  0  0  0  0  0
  153.4565  140.8616  158.2016 H   0  0  0  0  0  0  0  0  0  0  0  0
  152.8582  138.5584  158.9692 H   0  0  0  0  0  0  0  0  0  0  0  0
  151.6113  139.1548  160.0414 H   0  0  0  0  0  0  0  0  0  0  0  0
  151.1650  136.8013  159.3061 H   0  0  0  0  0  0  0  0  0  0  0  0
  149.8723  137.8778  158.8054 H   0  0  0  0  0  0  0  0  0  0  0  0
  149.8367  138.6147  156.4646 H   0  0  0  0  0  0  0  0  0  0  0  0
  151.9428  138.4351  154.5048 H   0  0  0  0  0  0  0  0  0  0  0  0
  151.5510  136.8030  154.9650 H   0  0  0  0  0  0  0  0  0  0  0  0
  149.8924  137.2641  153.3413 H   0  0  0  0  0  0  0  0  0  0  0  0
  147.3524  138.1110  153.7584 H   0  0  0  0  0  0  0  0  0  0  0  0
  146.0794  140.2845  153.6363 H   0  0  0  0  0  0  0  0  0  0  0  0
  147.3996  142.4214  153.8372 H   0  0  0  0  0  0  0  0  0  0  0  0
  151.5508  140.3383  156.0398 H   0  0  0  0  0  0  0  0  0  0  0  0
  152.8234  139.2680  156.5821 H   0  0  0  0  0  0  0  0  0  0  0  0
  1  2  1  0  0  0  0
  1 20  1  0  0  0  0
  1 21  1  0  0  0  0
  1 22  1  0  0  0  0
  2  3  1  0  0  0  0
  2  4  1  0  0  0  0
  2 23  1  0  0  0  0
  3 24  1  0  0  0  0
  3 25  1  0  0  0  0
  3 26  1  0  0  0  0
  4  5  1  0  0  0  0
  4 27  1  0  0  0  0
  4 28  1  0  0  0  0
  5  6  1  0  0  0  0
  5 29  1  0  0  0  0
  5 30  1  0  0  0  0
  6 19  1  0  0  0  0
  6  7  1  0  0  0  0
  7  8  1  0  0  0  0
  7 31  1  0  0  0  0
  7 32  1  0  0  0  0
  8  9  1  0  0  0  0
  8 33  1  0  0  0  0
  8 34  1  0  0  0  0
  9 10  1  0  0  0  0
 10 11  1  0  0  0  0
 10 19  1  0  0  0  0
 10 35  1  0  0  0  0
 11 12  1  0  0  0  0
 11 36  1  0  0  0  0
 11 37  1  0  0  0  0
 12 13  1  0  0  0  0
 12 38  1  0  0  0  0
 13 18  1  0  0  0  0
 13 14  2  0  0  0  0
 14 15  1  0  0  0  0
 14 39  1  0  0  0  0
 15 16  2  0  0  0  0
 15 40  1  0  0  0  0
 16 17  1  0  0  0  0
 16 41  1  0  0  0  0
 17 18  2  0  0  0  0
 19 42  1  0  0  0  0
 19 43  1  0  0  0  0
M  END
> <s_m_source_file>
AV-unprocessed.smi

> <i_m_source_file_index>
861

> <i_lp_mmshare_version>
43012

> <i_f3d_flags>
0

> <s_epik_input>
W0NIM11bQ0hdKFtDSDNdKVtDSDJdW0NIMl1OMVtDSDJdW0NIMl1PW0NASF0oW0NIMl0xKVtDSDJdW05IXWMyW2NIXVtjSF1bY0hdbm4y

> <s_epik_cmdline>
J2VwaWtfcHl0aG9uJywgJy1waCcsICc3LjAnLCAnLXRuJywgJzgnLCAnLW1hJywgJzIwMCcsICctbWV0YWxfYmluZGluZycsICctaW1hZScsICc8aW5maWxlLm1hZT4nLCAnLW9tYWUnLCAnPG91dGZpbGUubWFlPic=

> <r_lp_tautomer_probability>
0.999978

> <r_epik_Ionization_Penalty>
1.1508

> <r_epik_Ionization_Penalty_Charging>
0

> <r_epik_Ionization_Penalty_Neutral>
1.1508

> <r_epik_State_Penalty>
1.22808

> <r_epik_Charging_Adjusted_Penalty>
1.22808

> <i_epik_Tot_Q>
0

> <i_epik_Tot_abs_Q>
0

> <r_epik_Metal_State_Penalty>
1.22149

> <b_epik_Metal_Only>
0

> <s_lp_Force_Field>
OPLS_2005

> <r_lp_Energy>
31.1204

> <b_lp_Chiralities_Consistent>
1

> <s_lp_Variant>
AV-unprocessed.smi:861-6

> <Gold.Version>
5.8.1

> <Gold.Id.Protein>
6NUR|6NUR_protein|mol2

> <Gold.PLP.Fitness>
42.0504

> <Gold.PLP.PLP>
-37.1458

> <Gold.PLP.part.hbond>
-4.0000

> <Gold.PLP.part.metal>
0.0000

> <Gold.PLP.part.buried>
-5.3098

> <Gold.PLP.part.nonpolar>
-29.6764

> <Gold.PLP.part.repulsive>
1.3197

> <Gold.PLP.ligand.clash>
0.0000

> <Gold.PLP.ligand.torsion>
1.3321

> <Gold.PLP.Chemscore.Hbond>
2.5040

> <Gold.PLP.Chemscore.CHOScore>
0.0000

> <Gold.PLP.Chemscore.Metal>
0.0000

> <Gold.Chemscore.Hbonds>
donor molecule, donor type, donor heavy atom, donor atom, acceptor molecule, acceptor atom, score
      L1  H    12    38       P1  7948  1.00
      P1  H  7989  7998       L1    18  0.82
      P1  H  8011  8017       L1    17  0.67

> <Gold.PLP.Chemscore.Internal.Correction>
0.0567

> <Gold.Rescore>
     Score         DG    S(hbond)    S(metal)    S(lipo)     H(rot)  DE(clash)    DE(int)     intcor
     15.18     -16.83       1.24        0.00      97.91       1.66       0.37       1.28       ----

> <Gold.Chemscore.Fitness>
15.1816

> <Gold.Chemscore.DG>
-16.8341

> <Gold.Chemscore.ZeroCoef>
-5.4800

> <Gold.Chemscore.Hbond>
1.2415

> <Gold.Chemscore.Metal>
0.0000

> <Gold.Chemscore.Lipo>
97.9066

> <Gold.Chemscore.Internal_Hbond>
0.0000

> <Gold.Chemscore.DEClash>
0.3689

> <Gold.Chemscore.DEInternal>
1.2836

> <Gold.Chemscore.Rot>
1.6591

> <Gold.Chemscore.Internal.Correction>
   9.000000E+99

> <Gold.Chemscore.Hbonds>
donor molecule, donor type, donor heavy atom, donor atom, acceptor molecule, acceptor atom, score
      L1  H    12    38       P1  7948  0.43
      P1  H  7989  7998       L1    18  0.21
      P1  H  8011  8017       L1    17  0.10

> <Gold.Chemscore.Hbond.Weighted>
-4.1465

> <Gold.Chemscore.Metal.Weighted>
-0.0000

> <Gold.Chemscore.Lipo.Weighted>
-11.4551

> <Gold.Chemscore.Internal_Hbond.Weighted>
0.0000

> <Gold.Chemscore.DEClash.Weighted>
0.3689

> <Gold.Chemscore.DEInternal.Weighted>
1.2836

> <Gold.Chemscore.Rot.Weighted>
4.2474

> <Gold.Chemscore.Internal.Correction.Weighted>
   9.000000E+99

> <Gold.Protein.RotatedTorsions>
[ 6907 6896 6895 6894 ] final  168.58 input  -60.11 | X-H torsion
[ 7974 7965 7964 7962 ] final   30.10 input  175.53 | X-H torsion
[ 8008 7997 7996 7995 ] final -136.19 input   59.86 | X-H torsion
[ 10167 10162 10161 10158 ] final   24.35 input  -65.29 | X-H torsion
[ 10718 10713 10712 10709 ] final   80.66 input   66.30 | X-H torsion
[ 10763 10752 10751 10750 ] final  -28.84 input  -60.55 | X-H torsion
[ 11005 11000 10999 10996 ] final  144.05 input  -57.11 | X-H torsion

> <Gold.Protein.ActiveResidues>
 VAL166  LYS551  ARG553  GLY616  TRP617  ASP618  TYR619  PRO620  LYS621  CYS622 
 ASP623  PHE694  ASN695  SER759  ASP760  ASP761  ALA762  ILE779  LEU786  VAL792 
 PHE793  MET794  SER795  GLU796  ALA797  LYS798  CYS799  TRP800  GLU811  SER814 

> <Gold.Protein.RotatedAtoms>
  151.8454  133.3430  159.3655 H   0  0  0  0  0  0  0  0  0  0  0  0  # atno 6907 bound_to 6896
  150.7222  134.5351  159.5729 H   0  0  0  0  0  0  0  0  0  0  0  0  # atno 6908 bound_to 6896
  152.2833  134.7804  160.0443 H   0  0  0  0  0  0  0  0  0  0  0  0  # atno 6909 bound_to 6896
  146.1632  139.6833  142.9019 H   0  0  0  0  0  0  0  0  0  0  0  0  # atno 7974 bound_to 7965
  155.3912  140.0500  157.3040 H   0  0  0  0  0  0  0  0  0  0  0  0  # atno 8008 bound_to 7997
  154.5035  140.2165  155.9259 H   0  0  0  0  0  0  0  0  0  0  0  0  # atno 8009 bound_to 7997
  156.1497  140.3138  155.8633 H   0  0  0  0  0  0  0  0  0  0  0  0  # atno 8010 bound_to 7997
  140.5195  144.0026  150.6410 H   0  0  0  0  0  0  0  0  0  0  0  0  # atno 10167 bound_to 10162
  157.6812  130.9969  150.2112 H   0  0  0  0  0  0  0  0  0  0  0  0  # atno 10718 bound_to 10713
  153.7549  135.6923  153.4937 H   0  0  0  0  0  0  0  0  0  0  0  0  # atno 10763 bound_to 10752
  153.1978  135.4447  155.0227 H   0  0  0  0  0  0  0  0  0  0  0  0  # atno 10764 bound_to 10752
  154.8174  135.3405  154.7068 H   0  0  0  0  0  0  0  0  0  0  0  0  # atno 10765 bound_to 10752
  140.0602  134.9209  157.1170 H   0  0  0  0  0  0  0  0  0  0  0  0  # atno 11005 bound_to 11000
  145.4535  141.0429  143.2791 LP  0  0  0  0  0  0  0  0  0  0  0  0  # atno 17320 bound_to 7965
  144.8055  139.6059  143.7052 LP  0  0  0  0  0  0  0  0  0  0  0  0  # atno 17321 bound_to 7965
  140.3371  143.3042  152.0627 LP  0  0  0  0  0  0  0  0  0  0  0  0  # atno 17342 bound_to 10162
  139.4919  144.6468  151.6760 LP  0  0  0  0  0  0  0  0  0  0  0  0  # atno 17343 bound_to 10162
  156.2783  130.3730  149.7961 LP  0  0  0  0  0  0  0  0  0  0  0  0  # atno 17370 bound_to 10713
  156.5657  130.8403  151.3342 LP  0  0  0  0  0  0  0  0  0  0  0  0  # atno 17371 bound_to 10713
  140.3782  134.2315  155.7173 LP  0  0  0  0  0  0  0  0  0  0  0  0  # atno 17394 bound_to 11000
  141.1969  133.8070  157.0649 LP  0  0  0  0  0  0  0  0  0  0  0  0  # atno 17395 bound_to 11000

$$$$
