AV-unprocessed.smi:2237|AV-procd|sdf|9052|dock5
  -GOLD-   2272012253D 1   1.00000     0.00000
 Structure written by MMmdl.
 54 56  0  0  0  0  0  0  0  0  2 V2000
  153.6244  141.1411  160.5905 C   0  0  0  0  0  0  0  0  0  0  0  0
  152.7390  142.2868  160.1469 C   0  0  0  0  0  0  0  0  0  0  0  0
  152.7151  143.5017  160.8595 C   0  0  0  0  0  0  0  0  0  0  0  0
  151.8714  144.5262  160.3944 C   0  0  0  0  0  0  0  0  0  0  0  0
  151.0914  144.2951  159.2448 C   0  0  0  0  0  0  0  0  0  0  0  0
  151.1728  143.0458  158.5893 C   0  0  0  0  0  0  0  0  0  0  0  0
  150.3492  142.9140  157.4397 N   0  0  0  0  0  0  0  0  0  0  0  0
  150.0334  141.7924  156.7682 C   0  0  0  0  0  0  0  0  0  0  0  0
  150.4023  140.6552  157.0633 O   0  0  0  0  0  0  0  0  0  0  0  0
  149.2470  142.0620  155.7156 N   0  0  0  0  0  0  0  0  0  0  0  0
  148.7324  141.0694  154.7765 C   0  0  2  0  0  0  0  0  0  0  0  0
  147.7624  141.7354  153.7926 C   0  0  0  0  0  0  0  0  0  0  0  0
  147.1283  140.7078  152.8390 C   0  0  0  0  0  0  0  0  0  0  0  0
  146.4341  139.6156  153.5822 N   0  3  1  0  0  0  0  0  0  0  0  0
  145.6915  138.6310  152.7287 C   0  0  0  0  0  0  0  0  0  0  0  0
  145.0269  137.4772  153.5187 C   0  0  0  0  0  0  0  0  0  0  0  0
  144.3706  136.4459  152.5845 C   0  0  0  0  0  0  0  0  0  0  0  0
  145.3680  135.8830  151.6777 N   0  0  0  0  0  0  0  0  0  0  0  0
  144.7437  134.8630  150.8468 C   0  0  0  0  0  0  0  0  0  0  0  0
  145.9072  136.9391  150.8245 C   0  0  0  0  0  0  0  0  0  0  0  0
  146.6316  137.9916  151.6810 C   0  0  0  0  0  0  0  0  0  0  0  0
  147.3748  138.9456  154.5261 C   0  0  0  0  0  0  0  0  0  0  0  0
  147.9985  139.9410  155.5171 C   0  0  0  0  0  0  0  0  0  0  0  0
  151.9896  142.0641  159.0457 N   0  0  0  0  0  0  0  0  0  0  0  0
  154.3491  141.4689  161.3363 H   0  0  0  0  0  0  0  0  0  0  0  0
  154.1738  140.7309  159.7424 H   0  0  0  0  0  0  0  0  0  0  0  0
  153.0202  140.3451  161.0264 H   0  0  0  0  0  0  0  0  0  0  0  0
  153.3254  143.6473  161.7387 H   0  0  0  0  0  0  0  0  0  0  0  0
  151.8222  145.4740  160.9098 H   0  0  0  0  0  0  0  0  0  0  0  0
  150.4389  145.0725  158.8747 H   0  0  0  0  0  0  0  0  0  0  0  0
  149.9617  143.7753  157.0842 H   0  0  0  0  0  0  0  0  0  0  0  0
  148.9905  143.0242  155.5491 H   0  0  0  0  0  0  0  0  0  0  0  0
  149.5634  140.6462  154.2083 H   0  0  0  0  0  0  0  0  0  0  0  0
  146.9728  142.2507  154.3420 H   0  0  0  0  0  0  0  0  0  0  0  0
  148.2840  142.4990  153.2141 H   0  0  0  0  0  0  0  0  0  0  0  0
  146.4291  141.2573  152.2106 H   0  0  0  0  0  0  0  0  0  0  0  0
  147.8874  140.2795  152.1824 H   0  0  0  0  0  0  0  0  0  0  0  0
  144.8959  139.1680  152.2089 H   0  0  0  0  0  0  0  0  0  0  0  0
  145.7645  136.9761  154.1476 H   0  0  0  0  0  0  0  0  0  0  0  0
  144.2503  137.8599  154.1812 H   0  0  0  0  0  0  0  0  0  0  0  0
  143.9296  135.6461  153.1812 H   0  0  0  0  0  0  0  0  0  0  0  0
  143.5597  136.9071  152.0179 H   0  0  0  0  0  0  0  0  0  0  0  0
  145.4748  134.4219  150.1684 H   0  0  0  0  0  0  0  0  0  0  0  0
  143.9299  135.2768  150.2495 H   0  0  0  0  0  0  0  0  0  0  0  0
  144.3400  134.0602  151.4649 H   0  0  0  0  0  0  0  0  0  0  0  0
  146.6103  136.5062  150.1117 H   0  0  0  0  0  0  0  0  0  0  0  0
  145.1083  137.4047  150.2446 H   0  0  0  0  0  0  0  0  0  0  0  0
  147.0455  138.7412  151.0089 H   0  0  0  0  0  0  0  0  0  0  0  0
  147.4827  137.5274  152.1822 H   0  0  0  0  0  0  0  0  0  0  0  0
  146.8692  138.1720  155.1005 H   0  0  0  0  0  0  0  0  0  0  0  0
  148.1621  138.4457  153.9592 H   0  0  0  0  0  0  0  0  0  0  0  0
  148.6884  139.4133  156.1770 H   0  0  0  0  0  0  0  0  0  0  0  0
  147.2177  140.3576  156.1553 H   0  0  0  0  0  0  0  0  0  0  0  0
  145.7333  140.0749  154.1464 H   0  0  0  0  0  0  0  0  0  0  0  0
  1  2  1  0  0  0  0
  1 25  1  0  0  0  0
  1 26  1  0  0  0  0
  1 27  1  0  0  0  0
  2 24  1  0  0  0  0
  2  3  2  0  0  0  0
  3  4  1  0  0  0  0
  3 28  1  0  0  0  0
  4  5  2  0  0  0  0
  4 29  1  0  0  0  0
  5  6  1  0  0  0  0
  5 30  1  0  0  0  0
  6  7  1  0  0  0  0
  6 24  2  0  0  0  0
  7  8  1  0  0  0  0
  7 31  1  0  0  0  0
  8  9  2  0  0  0  0
  8 10  1  0  0  0  0
 10 11  1  0  0  0  0
 10 32  1  0  0  0  0
 11 23  1  0  0  0  0
 11 12  1  0  0  0  0
 11 33  1  0  0  0  0
 12 13  1  0  0  0  0
 12 34  1  0  0  0  0
 12 35  1  0  0  0  0
 13 14  1  0  0  0  0
 13 36  1  0  0  0  0
 13 37  1  0  0  0  0
 14 15  1  0  0  0  0
 14 22  1  0  0  0  0
 14 54  1  0  0  0  0
 15 21  1  0  0  0  0
 15 16  1  0  0  0  0
 15 38  1  0  0  0  0
 16 17  1  0  0  0  0
 16 39  1  0  0  0  0
 16 40  1  0  0  0  0
 17 18  1  0  0  0  0
 17 41  1  0  0  0  0
 17 42  1  0  0  0  0
 18 19  1  0  0  0  0
 18 20  1  0  0  0  0
 19 43  1  0  0  0  0
 19 44  1  0  0  0  0
 19 45  1  0  0  0  0
 20 21  1  0  0  0  0
 20 46  1  0  0  0  0
 20 47  1  0  0  0  0
 21 48  1  0  0  0  0
 21 49  1  0  0  0  0
 22 23  1  0  0  0  0
 22 50  1  0  0  0  0
 22 51  1  0  0  0  0
 23 52  1  0  0  0  0
 23 53  1  0  0  0  0
M  CHG  1  14   1
M  END
> <s_m_source_file>
AV-unprocessed.smi

> <i_m_source_file_index>
2237

> <i_lp_mmshare_version>
43012

> <i_f3d_flags>
0

> <s_epik_input>
W0NIM11jMVtjSF1bY0hdW2NIXWMobjEpW05IXUMoPU8pW05IXVtDSF0yW0NIMl1bQ0gyXU4oW0NIMl1bQ0gyXTIpW0NIXTNbQ0gyXVtDSDJdTihbQ0gzXSlbQ0gyXVtDSDJdMw==

> <s_epik_cmdline>
J2VwaWtfcHl0aG9uJywgJy1waCcsICc3LjAnLCAnLXRuJywgJzgnLCAnLW1hJywgJzIwMCcsICctbWV0YWxfYmluZGluZycsICctaW1hZScsICc8aW5maWxlLm1hZT4nLCAnLW9tYWUnLCAnPG91dGZpbGUubWFlPic=

> <r_epik_Ionization_Penalty>
1.37251

> <r_epik_Ionization_Penalty_Charging>
0.00081195

> <r_epik_Ionization_Penalty_Neutral>
1.3717

> <r_epik_State_Penalty>
1.55149

> <r_epik_Charging_Adjusted_Penalty>
1.5523

> <i_epik_Tot_Q>
1

> <i_epik_Tot_abs_Q>
1

> <r_epik_Metal_State_Penalty>
1.55149

> <b_epik_Metal_Only>
0

> <s_lp_Force_Field>
OPLS_2005

> <r_lp_Energy>
32.6589

> <b_lp_Chiralities_Consistent>
1

> <s_lp_Variant>
AV-unprocessed.smi:2237-7

> <Gold.Version>
5.8.1

> <Gold.Id.Protein>
6NUR|6NUR_protein|mol2

> <Gold.PLP.Fitness>
47.2099

> <Gold.PLP.PLP>
-41.4751

> <Gold.PLP.part.hbond>
-2.7862

> <Gold.PLP.part.metal>
0.0000

> <Gold.PLP.part.buried>
1.3583

> <Gold.PLP.part.nonpolar>
-40.3625

> <Gold.PLP.part.repulsive>
0.3573

> <Gold.PLP.ligand.clash>
0.0000

> <Gold.PLP.ligand.torsion>
0.1375

> <Gold.PLP.Chemscore.Hbond>
1.9920

> <Gold.PLP.Chemscore.CHOScore>
0.0000

> <Gold.PLP.Chemscore.Metal>
0.0000

> <Gold.Chemscore.Hbonds>
donor molecule, donor type, donor heavy atom, donor atom, acceptor molecule, acceptor atom, score
      L1  H     7    31       P1  8028  0.99
      L1  H    10    32       P1  8028  1.00

> <Gold.PLP.Chemscore.Internal.Correction>
0.0337

> <Gold.Rescore>
     Score         DG    S(hbond)    S(metal)    S(lipo)     H(rot)  DE(clash)    DE(int)     intcor
     18.16     -22.77       1.93        0.00     119.25       1.21       2.01       2.60       ----

> <Gold.Chemscore.Fitness>
18.1628

> <Gold.Chemscore.DG>
-22.7699

> <Gold.Chemscore.ZeroCoef>
-5.4800

> <Gold.Chemscore.Hbond>
1.9278

> <Gold.Chemscore.Metal>
0.0000

> <Gold.Chemscore.Lipo>
119.2465

> <Gold.Chemscore.Internal_Hbond>
0.0000

> <Gold.Chemscore.DEClash>
2.0109

> <Gold.Chemscore.DEInternal>
2.5961

> <Gold.Chemscore.Rot>
1.2113

> <Gold.Chemscore.Internal.Correction>
   9.000000E+99

> <Gold.Chemscore.Hbonds>
donor molecule, donor type, donor heavy atom, donor atom, acceptor molecule, acceptor atom, score
      L1  H     7    31       P1  8028  0.87
      L1  H    10    32       P1  8028  1.00

> <Gold.Chemscore.Hbond.Weighted>
-6.4389

> <Gold.Chemscore.Metal.Weighted>
-0.0000

> <Gold.Chemscore.Lipo.Weighted>
-13.9518

> <Gold.Chemscore.Internal_Hbond.Weighted>
0.0000

> <Gold.Chemscore.DEClash.Weighted>
2.0109

> <Gold.Chemscore.DEInternal.Weighted>
2.5961

> <Gold.Chemscore.Rot.Weighted>
3.1009

> <Gold.Chemscore.Internal.Correction.Weighted>
   9.000000E+99

> <Gold.Protein.RotatedTorsions>
[ 6907 6896 6895 6894 ] final  -32.88 input  -60.11 | X-H torsion
[ 7974 7965 7964 7962 ] final  -99.21 input  175.53 | X-H torsion
[ 8008 7997 7996 7995 ] final  -65.53 input   59.86 | X-H torsion
[ 10167 10162 10161 10158 ] final -117.58 input  -65.29 | X-H torsion
[ 10718 10713 10712 10709 ] final -132.39 input   66.30 | X-H torsion
[ 10763 10752 10751 10750 ] final   93.12 input  -60.55 | X-H torsion
[ 11005 11000 10999 10996 ] final  -26.31 input  -57.11 | X-H torsion

> <Gold.Protein.ActiveResidues>
 VAL166  LYS551  ARG553  GLY616  TRP617  ASP618  TYR619  PRO620  LYS621  CYS622 
 ASP623  PHE694  ASN695  SER759  ASP760  ASP761  ALA762  ILE779  LEU786  VAL792 
 PHE793  MET794  SER795  GLU796  ALA797  LYS798  CYS799  TRP800  GLU811  SER814 

> <Gold.Protein.RotatedAtoms>
  151.0729  134.9810  159.8317 H   0  0  0  0  0  0  0  0  0  0  0  0  # atno 6907 bound_to 6896
  152.5410  134.2277  159.8822 H   0  0  0  0  0  0  0  0  0  0  0  0  # atno 6908 bound_to 6896
  151.2302  133.4411  159.2637 H   0  0  0  0  0  0  0  0  0  0  0  0  # atno 6909 bound_to 6896
  145.3106  140.9399  143.2772 H   0  0  0  0  0  0  0  0  0  0  0  0  # atno 7974 bound_to 7965
  154.4677  140.0931  156.7064 H   0  0  0  0  0  0  0  0  0  0  0  0  # atno 8008 bound_to 7997
  155.4811  140.3467  155.4321 H   0  0  0  0  0  0  0  0  0  0  0  0  # atno 8009 bound_to 7997
  156.0986  140.1416  156.9487 H   0  0  0  0  0  0  0  0  0  0  0  0  # atno 8010 bound_to 7997
  140.0668  143.4915  152.2002 H   0  0  0  0  0  0  0  0  0  0  0  0  # atno 10167 bound_to 10162
  156.2341  130.7056  151.0889 H   0  0  0  0  0  0  0  0  0  0  0  0  # atno 10718 bound_to 10713
  153.2267  135.4337  155.0550 H   0  0  0  0  0  0  0  0  0  0  0  0  # atno 10763 bound_to 10752
  154.8277  135.3369  154.6847 H   0  0  0  0  0  0  0  0  0  0  0  0  # atno 10764 bound_to 10752
  153.7276  135.7013  153.5053 H   0  0  0  0  0  0  0  0  0  0  0  0  # atno 10765 bound_to 10752
  140.9017  133.7519  156.0553 H   0  0  0  0  0  0  0  0  0  0  0  0  # atno 11005 bound_to 11000
  144.9019  139.4638  143.6628 LP  0  0  0  0  0  0  0  0  0  0  0  0  # atno 17320 bound_to 7965
  146.3119  139.7778  142.9013 LP  0  0  0  0  0  0  0  0  0  0  0  0  # atno 17321 bound_to 7965
  139.5860  144.7531  151.3519 LP  0  0  0  0  0  0  0  0  0  0  0  0  # atno 17342 bound_to 10162
  140.7145  143.7303  150.7629 LP  0  0  0  0  0  0  0  0  0  0  0  0  # atno 17343 bound_to 10162
  157.7146  131.0716  150.6373 LP  0  0  0  0  0  0  0  0  0  0  0  0  # atno 17370 bound_to 10713
  156.6443  130.4467  149.5741 LP  0  0  0  0  0  0  0  0  0  0  0  0  # atno 17371 bound_to 10713
  140.8221  134.3277  157.5378 LP  0  0  0  0  0  0  0  0  0  0  0  0  # atno 17394 bound_to 11000
  139.8743  134.9315  156.3530 LP  0  0  0  0  0  0  0  0  0  0  0  0  # atno 17395 bound_to 11000

$$$$
