AV-unprocessed.smi:937|AV-procd|sdf|4209|dock3
  -GOLD-   22720 2113D 1   1.00000     0.00000
 Structure written by MMmdl.
 45 46  0  0  0  0  0  0  0  0  1 V2000
  154.7741  142.8837  164.1323 C   0  0  0  0  0  0  0  0  0  0  0  0
  153.9524  143.0180  162.8674 C   0  0  0  0  0  0  0  0  0  0  0  0
  153.0489  144.0894  162.7072 C   0  0  0  0  0  0  0  0  0  0  0  0
  152.3059  144.1670  161.5137 C   0  0  0  0  0  0  0  0  0  0  0  0
  152.4934  143.1743  160.5305 C   0  0  0  0  0  0  0  0  0  0  0  0
  151.7131  143.2124  159.2319 C   0  0  0  0  0  0  0  0  0  0  0  0
  150.5518  144.2176  159.2862 C   0  0  0  0  0  0  0  0  0  0  0  0
  149.3869  143.7233  158.5632 N   0  0  0  0  0  0  0  0  0  0  0  0
  148.2336  143.3375  159.1347 C   0  0  0  0  0  0  0  0  0  0  0  0
  148.0438  143.3464  160.3495 O   0  0  0  0  0  0  0  0  0  0  0  0
  147.2822  142.9356  158.2732 N   0  0  0  0  0  0  0  0  0  0  0  0
  145.9263  142.4580  158.5628 C   0  0  2  0  0  0  0  0  0  0  0  0
  145.5476  141.2502  157.6784 C   0  0  0  0  0  0  0  0  0  0  0  0
  145.3648  141.6483  156.2050 C   0  0  0  0  0  0  0  0  0  0  0  0
  144.3383  142.7820  156.0567 C   0  0  0  0  0  0  0  0  0  0  0  0
  144.7221  144.0140  156.9030 C   0  0  1  0  0  0  0  0  0  0  0  0
  143.7038  145.1625  156.7483 C   0  0  0  0  0  0  0  0  0  0  0  0
  143.5316  145.4755  155.4637 F   0  0  0  0  0  0  0  0  0  0  0  0
  142.5290  144.8025  157.2653 F   0  0  0  0  0  0  0  0  0  0  0  0
  144.1311  146.2431  157.4016 F   0  0  0  0  0  0  0  0  0  0  0  0
  144.9123  143.6058  158.3824 C   0  0  0  0  0  0  0  0  0  0  0  0
  153.4201  142.1427  160.7903 C   0  0  0  0  0  0  0  0  0  0  0  0
  154.1365  142.0598  161.9322 N   0  0  0  0  0  0  0  0  0  0  0  0
  154.9170  143.8546  164.6075 H   0  0  0  0  0  0  0  0  0  0  0  0
  155.7582  142.4666  163.9159 H   0  0  0  0  0  0  0  0  0  0  0  0
  154.2692  142.2262  164.8404 H   0  0  0  0  0  0  0  0  0  0  0  0
  152.9261  144.8348  163.4792 H   0  0  0  0  0  0  0  0  0  0  0  0
  151.6037  144.9733  161.3585 H   0  0  0  0  0  0  0  0  0  0  0  0
  152.3964  143.4653  158.4199 H   0  0  0  0  0  0  0  0  0  0  0  0
  151.3340  142.2129  159.0140 H   0  0  0  0  0  0  0  0  0  0  0  0
  150.2599  144.3948  160.3217 H   0  0  0  0  0  0  0  0  0  0  0  0
  150.8608  145.1828  158.8807 H   0  0  0  0  0  0  0  0  0  0  0  0
  149.4570  143.6804  157.5571 H   0  0  0  0  0  0  0  0  0  0  0  0
  147.5363  142.9504  157.2959 H   0  0  0  0  0  0  0  0  0  0  0  0
  145.8842  142.1527  159.6096 H   0  0  0  0  0  0  0  0  0  0  0  0
  146.2954  140.4608  157.7603 H   0  0  0  0  0  0  0  0  0  0  0  0
  144.6158  140.8186  158.0460 H   0  0  0  0  0  0  0  0  0  0  0  0
  146.3214  141.9613  155.7850 H   0  0  0  0  0  0  0  0  0  0  0  0
  145.0448  140.7819  155.6257 H   0  0  0  0  0  0  0  0  0  0  0  0
  144.2577  143.0594  155.0053 H   0  0  0  0  0  0  0  0  0  0  0  0
  143.3535  142.4206  156.3553 H   0  0  0  0  0  0  0  0  0  0  0  0
  145.6791  144.3837  156.5312 H   0  0  0  0  0  0  0  0  0  0  0  0
  143.9514  143.2939  158.7937 H   0  0  0  0  0  0  0  0  0  0  0  0
  145.2254  144.4669  158.9739 H   0  0  0  0  0  0  0  0  0  0  0  0
  153.5901  141.3609  160.0646 H   0  0  0  0  0  0  0  0  0  0  0  0
  1  2  1  0  0  0  0
  1 24  1  0  0  0  0
  1 25  1  0  0  0  0
  1 26  1  0  0  0  0
  2 23  1  0  0  0  0
  2  3  2  0  0  0  0
  3  4  1  0  0  0  0
  3 27  1  0  0  0  0
  4  5  2  0  0  0  0
  4 28  1  0  0  0  0
  5  6  1  0  0  0  0
  5 22  1  0  0  0  0
  6  7  1  0  0  0  0
  6 29  1  0  0  0  0
  6 30  1  0  0  0  0
  7  8  1  0  0  0  0
  7 31  1  0  0  0  0
  7 32  1  0  0  0  0
  8  9  1  0  0  0  0
  8 33  1  0  0  0  0
  9 10  2  0  0  0  0
  9 11  1  0  0  0  0
 11 12  1  0  0  0  0
 11 34  1  0  0  0  0
 12 21  1  0  0  0  0
 12 13  1  0  0  0  0
 12 35  1  0  0  0  0
 13 14  1  0  0  0  0
 13 36  1  0  0  0  0
 13 37  1  0  0  0  0
 14 15  1  0  0  0  0
 14 38  1  0  0  0  0
 14 39  1  0  0  0  0
 15 16  1  0  0  0  0
 15 40  1  0  0  0  0
 15 41  1  0  0  0  0
 16 17  1  0  0  0  0
 16 21  1  0  0  0  0
 16 42  1  0  0  0  0
 17 18  1  0  0  0  0
 17 19  1  0  0  0  0
 17 20  1  0  0  0  0
 21 43  1  0  0  0  0
 21 44  1  0  0  0  0
 22 23  2  0  0  0  0
 22 45  1  0  0  0  0
M  END
> <s_m_source_file>
AV-unprocessed.smi

> <i_m_source_file_index>
937

> <i_lp_mmshare_version>
43012

> <i_f3d_flags>
0

> <s_epik_input>
W0NIM11jMVtjSF1bY0hdYyhbY0hdbjEpW0NIMl1bQ0gyXVtOSF1DKD1PKVtOSF1bQ0BASF0yW0NIMl1bQ0gyXVtDSDJdW0NAQEhdKEMoRikoRilGKVtDSDJdMg==

> <s_epik_cmdline>
J2VwaWtfcHl0aG9uJywgJy1waCcsICc3LjAnLCAnLXRuJywgJzgnLCAnLW1hJywgJzIwMCcsICctbWV0YWxfYmluZGluZycsICctaW1hZScsICc8aW5maWxlLm1hZT4nLCAnLW9tYWUnLCAnPG91dGZpbGUubWFlPic=

> <r_epik_Ionization_Penalty>
0.0563445

> <r_epik_Ionization_Penalty_Charging>
0

> <r_epik_Ionization_Penalty_Neutral>
0.0563445

> <r_epik_State_Penalty>
0.0485409

> <r_epik_Charging_Adjusted_Penalty>
0.0485409

> <i_epik_Tot_Q>
0

> <i_epik_Tot_abs_Q>
0

> <r_epik_Metal_State_Penalty>
0.0443056

> <b_epik_Metal_Only>
0

> <s_lp_Force_Field>
OPLS_2005

> <r_lp_Energy>
16.8022

> <b_lp_Chiralities_Consistent>
1

> <s_lp_Variant>
AV-unprocessed.smi:937-1

> <Gold.Version>
5.8.1

> <Gold.Id.Protein>
6NUR|6NUR_protein|mol2

> <Gold.PLP.Fitness>
49.2398

> <Gold.PLP.PLP>
-44.5932

> <Gold.PLP.part.hbond>
-5.6137

> <Gold.PLP.part.metal>
0.0000

> <Gold.PLP.part.buried>
-0.8918

> <Gold.PLP.part.nonpolar>
-37.6377

> <Gold.PLP.part.repulsive>
0.2004

> <Gold.PLP.ligand.clash>
0.0000

> <Gold.PLP.ligand.torsion>
0.7472

> <Gold.PLP.Chemscore.Hbond>
2.0239

> <Gold.PLP.Chemscore.CHOScore>
0.0000

> <Gold.PLP.Chemscore.Metal>
0.0000

> <Gold.Chemscore.Hbonds>
donor molecule, donor type, donor heavy atom, donor atom, acceptor molecule, acceptor atom, score
      L1  H     8    33       P1  8028  0.45
      P1  H  6933  6944       L1    10  1.00

> <Gold.PLP.Chemscore.Internal.Correction>
0.0693

> <Gold.Rescore>
     Score         DG    S(hbond)    S(metal)    S(lipo)     H(rot)  DE(clash)    DE(int)     intcor
     16.55     -17.04       1.38        0.00      94.13       1.58       0.11       0.37       ----

> <Gold.Chemscore.Fitness>
16.5483

> <Gold.Chemscore.DG>
-17.0372

> <Gold.Chemscore.ZeroCoef>
-5.4800

> <Gold.Chemscore.Hbond>
1.3778

> <Gold.Chemscore.Metal>
0.0000

> <Gold.Chemscore.Lipo>
94.1275

> <Gold.Chemscore.Internal_Hbond>
0.0000

> <Gold.Chemscore.DEClash>
0.1141

> <Gold.Chemscore.DEInternal>
0.3748

> <Gold.Chemscore.Rot>
1.5849

> <Gold.Chemscore.Internal.Correction>
   9.000000E+99

> <Gold.Chemscore.Hbonds>
donor molecule, donor type, donor heavy atom, donor atom, acceptor molecule, acceptor atom, score
      L1  H     8    33       P1  8028  0.20
      P1  H  6933  6944       L1    10  0.90

> <Gold.Chemscore.Hbond.Weighted>
-4.6017

> <Gold.Chemscore.Metal.Weighted>
-0.0000

> <Gold.Chemscore.Lipo.Weighted>
-11.0129

> <Gold.Chemscore.Internal_Hbond.Weighted>
0.0000

> <Gold.Chemscore.DEClash.Weighted>
0.1141

> <Gold.Chemscore.DEInternal.Weighted>
0.3748

> <Gold.Chemscore.Rot.Weighted>
4.0574

> <Gold.Chemscore.Internal.Correction.Weighted>
   9.000000E+99

> <Gold.Protein.RotatedTorsions>
[ 6907 6896 6895 6894 ] final  149.72 input  -60.11 | X-H torsion
[ 7974 7965 7964 7962 ] final -137.00 input  175.53 | X-H torsion
[ 8008 7997 7996 7995 ] final   64.05 input   59.86 | X-H torsion
[ 10167 10162 10161 10158 ] final   45.58 input  -65.29 | X-H torsion
[ 10718 10713 10712 10709 ] final   47.32 input   66.30 | X-H torsion
[ 10763 10752 10751 10750 ] final   67.57 input  -60.55 | X-H torsion
[ 11005 11000 10999 10996 ] final -143.64 input  -57.11 | X-H torsion

> <Gold.Protein.ActiveResidues>
 VAL166  LYS551  ARG553  GLY616  TRP617  ASP618  TYR619  PRO620  LYS621  CYS622 
 ASP623  PHE694  ASN695  SER759  ASP760  ASP761  ALA762  ILE779  LEU786  VAL792 
 PHE793  MET794  SER795  GLU796  ALA797  LYS798  CYS799  TRP800  GLU811  SER814 

> <Gold.Protein.RotatedAtoms>
  152.1242  133.4370  159.4689 H   0  0  0  0  0  0  0  0  0  0  0  0  # atno 6907 bound_to 6896
  150.6874  134.2499  159.4515 H   0  0  0  0  0  0  0  0  0  0  0  0  # atno 6908 bound_to 6896
  152.0378  134.9729  160.0624 H   0  0  0  0  0  0  0  0  0  0  0  0  # atno 6909 bound_to 6896
  144.8879  140.6600  143.5164 H   0  0  0  0  0  0  0  0  0  0  0  0  # atno 7974 bound_to 7965
  155.6399  140.3497  155.4711 H   0  0  0  0  0  0  0  0  0  0  0  0  # atno 8008 bound_to 7997
  155.9934  140.1198  157.0640 H   0  0  0  0  0  0  0  0  0  0  0  0  # atno 8009 bound_to 7997
  154.4226  140.1115  156.5583 H   0  0  0  0  0  0  0  0  0  0  0  0  # atno 8010 bound_to 7997
  140.3227  144.2686  150.6180 H   0  0  0  0  0  0  0  0  0  0  0  0  # atno 10167 bound_to 10162
  157.4572  130.8174  149.7849 H   0  0  0  0  0  0  0  0  0  0  0  0  # atno 10718 bound_to 10713
  153.0193  135.5279  154.7000 H   0  0  0  0  0  0  0  0  0  0  0  0  # atno 10763 bound_to 10752
  154.6111  135.2878  155.0433 H   0  0  0  0  0  0  0  0  0  0  0  0  # atno 10764 bound_to 10752
  154.1454  135.6571  153.5004 H   0  0  0  0  0  0  0  0  0  0  0  0  # atno 10765 bound_to 10752
  140.8105  134.2750  157.4943 H   0  0  0  0  0  0  0  0  0  0  0  0  # atno 11005 bound_to 11000
  145.3836  139.1631  143.4267 LP  0  0  0  0  0  0  0  0  0  0  0  0  # atno 17320 bound_to 7965
  146.3035  140.3919  142.8695 LP  0  0  0  0  0  0  0  0  0  0  0  0  # atno 17321 bound_to 7965
  140.5469  143.2213  151.7992 LP  0  0  0  0  0  0  0  0  0  0  0  0  # atno 17342 bound_to 10162
  139.4871  144.4528  151.9634 LP  0  0  0  0  0  0  0  0  0  0  0  0  # atno 17343 bound_to 10162
  156.0013  130.3879  150.2597 LP  0  0  0  0  0  0  0  0  0  0  0  0  # atno 17370 bound_to 10713
  157.0772  131.0133  151.3169 LP  0  0  0  0  0  0  0  0  0  0  0  0  # atno 17371 bound_to 10713
  139.8714  134.9480  156.3984 LP  0  0  0  0  0  0  0  0  0  0  0  0  # atno 17394 bound_to 11000
  140.9203  133.7650  155.9898 LP  0  0  0  0  0  0  0  0  0  0  0  0  # atno 17395 bound_to 11000

$$$$
