AV-unprocessed.smi:1769|AV-procd|sdf|7153|dock2
  -GOLD-   22720 8393D 1   1.00000     0.00000
 Structure written by MMmdl.
 42 43  0  0  0  0  0  0  0  0  2 V2000
  150.9848  145.2828  160.1007 C   0  0  0  0  0  0  0  0  0  0  0  0
  152.0119  144.2850  160.6405 C   0  0  0  0  0  0  0  0  0  0  0  0
  152.1976  144.2475  161.8570 O   0  0  0  0  0  0  0  0  0  0  0  0
  152.6728  143.4803  159.7737 N   0  0  0  0  0  0  0  0  0  0  0  0
  152.4404  143.4205  158.3249 C   0  0  0  0  0  0  0  0  0  0  0  0
  151.7372  142.0923  157.9942 C   0  0  0  0  0  0  0  0  0  0  0  0
  152.5601  140.8929  158.5018 C   0  0  0  0  0  0  0  0  0  0  0  0
  152.9567  141.0549  159.9890 C   0  0  1  0  0  0  0  0  0  0  0  0
  153.8941  139.9270  160.4394 C   0  0  0  0  0  0  0  0  0  0  0  0
  155.0351  140.1836  160.8252 O   0  0  0  0  0  0  0  0  0  0  0  0
  153.4022  138.6794  160.3842 N   0  0  0  0  0  0  0  0  0  0  0  0
  154.1344  137.4775  160.7645 C   0  0  0  0  0  0  0  0  0  0  0  0
  154.3884  137.4283  162.2800 C   0  0  0  0  0  0  0  0  0  0  0  0
  154.4791  136.0064  162.7981 C   0  0  0  0  0  0  0  0  0  0  0  0
  154.2055  135.7194  164.1537 C   0  0  0  0  0  0  0  0  0  0  0  0
  154.2925  134.3876  164.6099 C   0  0  0  0  0  0  0  0  0  0  0  0
  154.6507  133.3723  163.6995 C   0  0  0  0  0  0  0  0  0  0  0  0
  154.9052  133.6849  162.4095 N   0  3  0  0  0  0  0  0  0  0  0  0
  154.8329  134.9477  161.9338 C   0  0  0  0  0  0  0  0  0  0  0  0
  153.6082  142.4381  160.2155 C   0  0  0  0  0  0  0  0  0  0  0  0
  150.1961  144.7682  159.5512 H   0  0  0  0  0  0  0  0  0  0  0  0
  151.4611  146.0093  159.4420 H   0  0  0  0  0  0  0  0  0  0  0  0
  150.5159  145.8316  160.9181 H   0  0  0  0  0  0  0  0  0  0  0  0
  151.8576  144.2559  157.9398 H   0  0  0  0  0  0  0  0  0  0  0  0
  153.3990  143.4731  157.8066 H   0  0  0  0  0  0  0  0  0  0  0  0
  150.7482  142.0793  158.4541 H   0  0  0  0  0  0  0  0  0  0  0  0
  151.5801  142.0077  156.9186 H   0  0  0  0  0  0  0  0  0  0  0  0
  151.9944  139.9714  158.3591 H   0  0  0  0  0  0  0  0  0  0  0  0
  153.4564  140.8012  157.8858 H   0  0  0  0  0  0  0  0  0  0  0  0
  152.0462  141.0069  160.5899 H   0  0  0  0  0  0  0  0  0  0  0  0
  152.4536  138.5564  160.0598 H   0  0  0  0  0  0  0  0  0  0  0  0
  153.5879  136.5904  160.4387 H   0  0  0  0  0  0  0  0  0  0  0  0
  155.0827  137.4720  160.2266 H   0  0  0  0  0  0  0  0  0  0  0  0
  155.3118  137.9569  162.5213 H   0  0  0  0  0  0  0  0  0  0  0  0
  153.5907  137.9452  162.8155 H   0  0  0  0  0  0  0  0  0  0  0  0
  153.9299  136.5099  164.8370 H   0  0  0  0  0  0  0  0  0  0  0  0
  154.0863  134.1492  165.6430 H   0  0  0  0  0  0  0  0  0  0  0  0
  154.7402  132.3280  163.9616 H   0  0  0  0  0  0  0  0  0  0  0  0
  155.0569  135.0706  160.8840 H   0  0  0  0  0  0  0  0  0  0  0  0
  154.5344  142.5258  159.6447 H   0  0  0  0  0  0  0  0  0  0  0  0
  153.8966  142.5533  161.2617 H   0  0  0  0  0  0  0  0  0  0  0  0
  155.1622  132.9349  161.7672 H   0  0  0  0  0  0  0  0  0  0  0  0
  1  2  1  0  0  0  0
  1 21  1  0  0  0  0
  1 22  1  0  0  0  0
  1 23  1  0  0  0  0
  2  3  2  0  0  0  0
  2  4  1  0  0  0  0
  4 20  1  0  0  0  0
  4  5  1  0  0  0  0
  5  6  1  0  0  0  0
  5 24  1  0  0  0  0
  5 25  1  0  0  0  0
  6  7  1  0  0  0  0
  6 26  1  0  0  0  0
  6 27  1  0  0  0  0
  7  8  1  0  0  0  0
  7 28  1  0  0  0  0
  7 29  1  0  0  0  0
  8  9  1  0  0  0  0
  8 20  1  0  0  0  0
  8 30  1  0  0  0  0
  9 10  2  0  0  0  0
  9 11  1  0  0  0  0
 11 12  1  0  0  0  0
 11 31  1  0  0  0  0
 12 13  1  0  0  0  0
 12 32  1  0  0  0  0
 12 33  1  0  0  0  0
 13 14  1  0  0  0  0
 13 34  1  0  0  0  0
 13 35  1  0  0  0  0
 14 19  1  0  0  0  0
 14 15  2  0  0  0  0
 15 16  1  0  0  0  0
 15 36  1  0  0  0  0
 16 17  2  0  0  0  0
 16 37  1  0  0  0  0
 17 18  1  0  0  0  0
 17 38  1  0  0  0  0
 18 19  2  0  0  0  0
 18 42  1  0  0  0  0
 19 39  1  0  0  0  0
 20 40  1  0  0  0  0
 20 41  1  0  0  0  0
M  CHG  1  18   1
M  END
> <s_m_source_file>
AV-unprocessed.smi

> <i_m_source_file_index>
1769

> <i_lp_mmshare_version>
43012

> <i_f3d_flags>
0

> <s_epik_input>
W0NIM11DKD1PKU4xW0NIMl1bQ0gyXVtDSDJdW0NASF0oW0NIMl0xKUMoPU8pW05IXVtDSDJdW0NIMl1jMltjSF1bY0hdW2NIXW5bY0hdMg==

> <s_epik_cmdline>
J2VwaWtfcHl0aG9uJywgJy1waCcsICc3LjAnLCAnLXRuJywgJzgnLCAnLW1hJywgJzIwMCcsICctbWV0YWxfYmluZGluZycsICctaW1hZScsICc8aW5maWxlLm1hZT4nLCAnLW9tYWUnLCAnPG91dGZpbGUubWFlPic=

> <r_epik_Ionization_Penalty>
2.25127

> <r_epik_Ionization_Penalty_Charging>
2.25127

> <r_epik_Ionization_Penalty_Neutral>
1.02261e-06

> <r_epik_State_Penalty>
2.39841

> <r_epik_Charging_Adjusted_Penalty>
4.64968

> <i_epik_Tot_Q>
1

> <i_epik_Tot_abs_Q>
1

> <r_epik_Metal_State_Penalty>
2.41159

> <b_epik_Metal_Only>
0

> <s_lp_Force_Field>
OPLS_2005

> <r_lp_Energy>
29.7946

> <b_lp_Chiralities_Consistent>
1

> <s_lp_Variant>
AV-unprocessed.smi:1769-3

> <Gold.Version>
5.8.1

> <Gold.Id.Protein>
6NUR|6NUR_protein|mol2

> <Gold.PLP.Fitness>
42.4006

> <Gold.PLP.PLP>
-43.5277

> <Gold.PLP.part.hbond>
0.0000

> <Gold.PLP.part.metal>
0.0000

> <Gold.PLP.part.buried>
-6.3593

> <Gold.PLP.part.nonpolar>
-37.5877

> <Gold.PLP.part.repulsive>
0.3937

> <Gold.PLP.ligand.clash>
0.0000

> <Gold.PLP.ligand.torsion>
0.5816

> <Gold.PLP.Chemscore.Hbond>
0.0000

> <Gold.PLP.Chemscore.CHOScore>
0.0000

> <Gold.PLP.Chemscore.Metal>
0.0000

> <Gold.PLP.Chemscore.Internal.Correction>
0.0360

> <Gold.Rescore>
     Score         DG    S(hbond)    S(metal)    S(lipo)     H(rot)  DE(clash)    DE(int)     intcor
     13.86     -14.73       0.00        0.00     114.25       1.61       0.12       0.75       ----

> <Gold.Chemscore.Fitness>
13.8556

> <Gold.Chemscore.DG>
-14.7261

> <Gold.Chemscore.ZeroCoef>
-5.4800

> <Gold.Chemscore.Hbond>
0.0000

> <Gold.Chemscore.Metal>
0.0000

> <Gold.Chemscore.Lipo>
114.2543

> <Gold.Chemscore.Internal_Hbond>
0.0000

> <Gold.Chemscore.DEClash>
0.1160

> <Gold.Chemscore.DEInternal>
0.7545

> <Gold.Chemscore.Rot>
1.6100

> <Gold.Chemscore.Internal.Correction>
   9.000000E+99

> <Gold.Chemscore.Hbond.Weighted>
-0.0000

> <Gold.Chemscore.Metal.Weighted>
-0.0000

> <Gold.Chemscore.Lipo.Weighted>
-13.3677

> <Gold.Chemscore.Internal_Hbond.Weighted>
0.0000

> <Gold.Chemscore.DEClash.Weighted>
0.1160

> <Gold.Chemscore.DEInternal.Weighted>
0.7545

> <Gold.Chemscore.Rot.Weighted>
4.1216

> <Gold.Chemscore.Internal.Correction.Weighted>
   9.000000E+99

> <Gold.Protein.RotatedTorsions>
[ 6907 6896 6895 6894 ] final   40.60 input  -60.11 | X-H torsion
[ 7974 7965 7964 7962 ] final  113.14 input  175.53 | X-H torsion
[ 8008 7997 7996 7995 ] final  -54.48 input   59.86 | X-H torsion
[ 10167 10162 10161 10158 ] final   56.32 input  -65.29 | X-H torsion
[ 10718 10713 10712 10709 ] final   32.63 input   66.30 | X-H torsion
[ 10763 10752 10751 10750 ] final -136.91 input  -60.55 | X-H torsion
[ 11005 11000 10999 10996 ] final    5.23 input  -57.11 | X-H torsion

> <Gold.Protein.ActiveResidues>
 VAL166  LYS551  ARG553  GLY616  TRP617  ASP618  TYR619  PRO620  LYS621  CYS622 
 ASP623  PHE694  ASN695  SER759  ASP760  ASP761  ALA762  ILE779  LEU786  VAL792 
 PHE793  MET794  SER795  GLU796  ALA797  LYS798  CYS799  TRP800  GLU811  SER814 

> <Gold.Protein.RotatedAtoms>
  152.1846  134.8725  160.0523 H   0  0  0  0  0  0  0  0  0  0  0  0  # atno 6907 bound_to 6896
  151.9636  133.3698  159.4053 H   0  0  0  0  0  0  0  0  0  0  0  0  # atno 6908 bound_to 6896
  150.6923  134.4138  159.5217 H   0  0  0  0  0  0  0  0  0  0  0  0  # atno 6909 bound_to 6896
  145.2207  139.2863  143.4219 H   0  0  0  0  0  0  0  0  0  0  0  0  # atno 7974 bound_to 7965
  154.4164  140.1175  156.5322 H   0  0  0  0  0  0  0  0  0  0  0  0  # atno 8008 bound_to 7997
  155.6594  140.3496  155.4758 H   0  0  0  0  0  0  0  0  0  0  0  0  # atno 8009 bound_to 7997
  155.9726  140.1144  157.0789 H   0  0  0  0  0  0  0  0  0  0  0  0  # atno 8010 bound_to 7997
  140.2100  144.3899  150.6493 H   0  0  0  0  0  0  0  0  0  0  0  0  # atno 10167 bound_to 10162
  157.2877  130.7287  149.6592 H   0  0  0  0  0  0  0  0  0  0  0  0  # atno 10718 bound_to 10713
  154.8673  135.3658  154.5137 H   0  0  0  0  0  0  0  0  0  0  0  0  # atno 10763 bound_to 10752
  153.5771  135.7019  153.5484 H   0  0  0  0  0  0  0  0  0  0  0  0  # atno 10764 bound_to 10752
  153.3490  135.4077  155.1594 H   0  0  0  0  0  0  0  0  0  0  0  0  # atno 10765 bound_to 10752
  140.5731  134.0084  155.8016 H   0  0  0  0  0  0  0  0  0  0  0  0  # atno 11005 bound_to 11000
  146.3376  140.2512  142.8598 LP  0  0  0  0  0  0  0  0  0  0  0  0  # atno 17320 bound_to 7965
  144.9768  140.8421  143.5422 LP  0  0  0  0  0  0  0  0  0  0  0  0  # atno 17321 bound_to 7965
  140.6330  143.2190  151.6454 LP  0  0  0  0  0  0  0  0  0  0  0  0  # atno 17342 bound_to 10162
  139.5184  144.3286  152.0846 LP  0  0  0  0  0  0  0  0  0  0  0  0  # atno 17343 bound_to 10162
  155.9666  130.4318  150.4938 LP  0  0  0  0  0  0  0  0  0  0  0  0  # atno 17370 bound_to 10713
  157.2894  131.0623  151.2144 LP  0  0  0  0  0  0  0  0  0  0  0  0  # atno 17371 bound_to 10713
  141.1044  133.9717  157.3023 LP  0  0  0  0  0  0  0  0  0  0  0  0  # atno 17394 bound_to 11000
  139.9352  135.0197  156.8533 LP  0  0  0  0  0  0  0  0  0  0  0  0  # atno 17395 bound_to 11000

$$$$
