AV-unprocessed.smi:3335|AV-procd|sdf|12850|dock4
  -GOLD-   2272019243D 1   1.00000     0.00000
 Structure written by MMmdl.
 46 47  0  0  0  0  0  0  0  0  1 V2000
  142.0176  136.5818  153.0634 C   0  0  0  0  0  0  0  0  0  0  0  0
  143.4480  136.6773  152.6173 C   0  0  0  0  0  0  0  0  0  0  0  0
  144.2169  135.6988  151.9270 C   0  0  0  0  0  0  0  0  0  0  0  0
  145.4503  136.1015  151.6725 N   0  0  0  0  0  0  0  0  0  0  0  0
  145.5216  137.3459  152.1975 N   0  0  0  0  0  0  0  0  0  0  0  0
  146.7441  138.1388  152.0802 C   0  0  1  0  0  0  0  0  0  0  0  0
  146.5688  139.3502  151.1428 C   0  0  0  0  0  0  0  0  0  0  0  0
  147.3652  138.5110  153.4547 C   0  0  2  0  0  0  0  0  0  0  0  0
  146.6550  139.7225  154.0928 C   0  0  0  0  0  0  0  0  0  0  0  0
  148.8051  138.7350  153.2936 N   0  0  0  0  0  0  0  0  0  0  0  0
  149.5977  138.9109  154.5238 C   0  0  1  0  0  0  0  0  0  0  0  0
  150.9394  138.1779  154.3722 C   0  0  0  0  0  0  0  0  0  0  0  0
  149.8617  140.3959  154.8508 C   0  0  0  0  0  0  0  0  0  0  0  0
  149.4893  141.2536  154.0481 O   0  0  0  0  0  0  0  0  0  0  0  0
  150.4813  140.7243  156.0052 N   0  0  0  0  0  0  0  0  0  0  0  0
  150.7284  142.1066  156.4124 C   0  0  0  0  0  0  0  0  0  0  0  0
  151.2005  142.0354  157.8642 C   0  0  0  0  0  0  0  0  0  0  0  0
  151.8060  140.6451  157.9890 C   0  0  0  0  0  0  0  0  0  0  0  0
  150.9940  139.7952  157.0118 C   0  0  0  0  0  0  0  0  0  0  0  0
  144.3204  137.7177  152.7667 C   0  0  0  0  0  0  0  0  0  0  0  0
  141.5560  135.6458  152.7483 H   0  0  0  0  0  0  0  0  0  0  0  0
  141.4140  137.3912  152.6530 H   0  0  0  0  0  0  0  0  0  0  0  0
  141.9312  136.6329  154.1487 H   0  0  0  0  0  0  0  0  0  0  0  0
  143.9153  134.7143  151.6008 H   0  0  0  0  0  0  0  0  0  0  0  0
  147.4680  137.4919  151.5822 H   0  0  0  0  0  0  0  0  0  0  0  0
  147.5172  139.8668  150.9931 H   0  0  0  0  0  0  0  0  0  0  0  0
  145.8581  140.0761  151.5383 H   0  0  0  0  0  0  0  0  0  0  0  0
  146.2088  139.0361  150.1628 H   0  0  0  0  0  0  0  0  0  0  0  0
  147.2261  137.6525  154.1131 H   0  0  0  0  0  0  0  0  0  0  0  0
  145.5723  139.6017  154.0562 H   0  0  0  0  0  0  0  0  0  0  0  0
  146.9009  140.6533  153.5807 H   0  0  0  0  0  0  0  0  0  0  0  0
  146.9165  139.8359  155.1439 H   0  0  0  0  0  0  0  0  0  0  0  0
  148.9951  139.4492  152.6041 H   0  0  0  0  0  0  0  0  0  0  0  0
  149.0579  138.4247  155.3349 H   0  0  0  0  0  0  0  0  0  0  0  0
  151.5430  138.2636  155.2767 H   0  0  0  0  0  0  0  0  0  0  0  0
  151.5250  138.5768  153.5425 H   0  0  0  0  0  0  0  0  0  0  0  0
  150.7840  137.1149  154.1849 H   0  0  0  0  0  0  0  0  0  0  0  0
  151.5062  142.5309  155.7759 H   0  0  0  0  0  0  0  0  0  0  0  0
  149.8362  142.7276  156.3183 H   0  0  0  0  0  0  0  0  0  0  0  0
  151.9035  142.8287  158.1197 H   0  0  0  0  0  0  0  0  0  0  0  0
  150.3425  142.1204  158.5322 H   0  0  0  0  0  0  0  0  0  0  0  0
  152.8489  140.6722  157.6708 H   0  0  0  0  0  0  0  0  0  0  0  0
  151.7777  140.2608  159.0088 H   0  0  0  0  0  0  0  0  0  0  0  0
  150.1534  139.3264  157.5256 H   0  0  0  0  0  0  0  0  0  0  0  0
  151.6108  139.0100  156.5726 H   0  0  0  0  0  0  0  0  0  0  0  0
  144.1854  138.6872  153.2231 H   0  0  0  0  0  0  0  0  0  0  0  0
  1  2  1  0  0  0  0
  1 21  1  0  0  0  0
  1 22  1  0  0  0  0
  1 23  1  0  0  0  0
  2 20  2  0  0  0  0
  2  3  1  0  0  0  0
  3  4  2  0  0  0  0
  3 24  1  0  0  0  0
  4  5  1  0  0  0  0
  5  6  1  0  0  0  0
  5 20  1  0  0  0  0
  6  7  1  0  0  0  0
  6  8  1  0  0  0  0
  6 25  1  0  0  0  0
  7 26  1  0  0  0  0
  7 27  1  0  0  0  0
  7 28  1  0  0  0  0
  8  9  1  0  0  0  0
  8 10  1  0  0  0  0
  8 29  1  0  0  0  0
  9 30  1  0  0  0  0
  9 31  1  0  0  0  0
  9 32  1  0  0  0  0
 10 11  1  0  0  0  0
 10 33  1  0  0  0  0
 11 12  1  0  0  0  0
 11 13  1  0  0  0  0
 11 34  1  0  0  0  0
 12 35  1  0  0  0  0
 12 36  1  0  0  0  0
 12 37  1  0  0  0  0
 13 14  2  0  0  0  0
 13 15  1  0  0  0  0
 15 19  1  0  0  0  0
 15 16  1  0  0  0  0
 16 17  1  0  0  0  0
 16 38  1  0  0  0  0
 16 39  1  0  0  0  0
 17 18  1  0  0  0  0
 17 40  1  0  0  0  0
 17 41  1  0  0  0  0
 18 19  1  0  0  0  0
 18 42  1  0  0  0  0
 18 43  1  0  0  0  0
 19 44  1  0  0  0  0
 19 45  1  0  0  0  0
 20 46  1  0  0  0  0
M  END
> <s_m_source_file>
AV-unprocessed.smi

> <i_m_source_file_index>
3335

> <i_lp_mmshare_version>
43012

> <i_f3d_flags>
0

> <s_epik_input>
W0NIM11jMVtjSF1ubihbY0hdMSlbQ0BIXShbQ0gzXSlbQ0BIXShbQ0gzXSlbTkhdW0NASF0oW0NIM10pQyg9TylOMltDSDJdW0NIMl1bQ0gyXVtDSDJdMg==

> <s_epik_cmdline>
J2VwaWtfcHl0aG9uJywgJy1waCcsICc3LjAnLCAnLXRuJywgJzgnLCAnLW1hJywgJzIwMCcsICctbWV0YWxfYmluZGluZycsICctaW1hZScsICc8aW5maWxlLm1hZT4nLCAnLW9tYWUnLCAnPG91dGZpbGUubWFlPic=

> <r_lp_tautomer_probability>
1

> <r_epik_Ionization_Penalty>
0.918803

> <r_epik_Ionization_Penalty_Charging>
0

> <r_epik_Ionization_Penalty_Neutral>
0.918803

> <r_epik_State_Penalty>
0.958258

> <r_epik_Charging_Adjusted_Penalty>
0.958258

> <i_epik_Tot_Q>
0

> <i_epik_Tot_abs_Q>
0

> <r_epik_Metal_State_Penalty>
0.956786

> <b_epik_Metal_Only>
0

> <s_lp_Force_Field>
OPLS_2005

> <r_lp_Energy>
40.2433

> <b_lp_Chiralities_Consistent>
1

> <s_lp_Variant>
AV-unprocessed.smi:3335-14

> <Gold.Version>
5.8.1

> <Gold.Id.Protein>
6NUR|6NUR_protein|mol2

> <Gold.PLP.Fitness>
41.7470

> <Gold.PLP.PLP>
-35.2154

> <Gold.PLP.part.hbond>
-4.0000

> <Gold.PLP.part.metal>
0.0000

> <Gold.PLP.part.buried>
3.9902

> <Gold.PLP.part.nonpolar>
-35.5570

> <Gold.PLP.part.repulsive>
0.6031

> <Gold.PLP.ligand.clash>
0.0000

> <Gold.PLP.ligand.torsion>
1.0096

> <Gold.PLP.Chemscore.Hbond>
1.7771

> <Gold.PLP.Chemscore.CHOScore>
0.9920

> <Gold.PLP.Chemscore.Metal>
0.0000

> <Gold.Chemscore.Hbonds>
donor molecule, donor type, donor heavy atom, donor atom, acceptor molecule, acceptor atom, score
      L1  H    10    33       P1  7957  1.00
      P1  H  8011  8017       L1    14  0.65
      L1  C    20    46       P1 10175  0.88

> <Gold.PLP.Chemscore.Internal.Correction>
0.2435

> <Gold.Rescore>
     Score         DG    S(hbond)    S(metal)    S(lipo)     H(rot)  DE(clash)    DE(int)     intcor
     13.31     -17.19       1.87        0.00      82.28       1.62       2.73       1.15       ----

> <Gold.Chemscore.Fitness>
13.3126

> <Gold.Chemscore.DG>
-17.1887

> <Gold.Chemscore.ZeroCoef>
-5.4800

> <Gold.Chemscore.Hbond>
1.8654

> <Gold.Chemscore.Metal>
0.0000

> <Gold.Chemscore.Lipo>
82.2783

> <Gold.Chemscore.Internal_Hbond>
0.0000

> <Gold.Chemscore.DEClash>
2.7275

> <Gold.Chemscore.DEInternal>
1.1486

> <Gold.Chemscore.Rot>
1.6204

> <Gold.Chemscore.Internal.Correction>
   9.000000E+99

> <Gold.Chemscore.Hbonds>
donor molecule, donor type, donor heavy atom, donor atom, acceptor molecule, acceptor atom, score
      L1  H    10    33       P1  7957  0.97
      P1  H  8011  8017       L1    14  0.64

> <Gold.Chemscore.Hbond.Weighted>
-6.2304

> <Gold.Chemscore.Metal.Weighted>
-0.0000

> <Gold.Chemscore.Lipo.Weighted>
-9.6266

> <Gold.Chemscore.Internal_Hbond.Weighted>
0.0000

> <Gold.Chemscore.DEClash.Weighted>
2.7275

> <Gold.Chemscore.DEInternal.Weighted>
1.1486

> <Gold.Chemscore.Rot.Weighted>
4.1482

> <Gold.Chemscore.Internal.Correction.Weighted>
   9.000000E+99

> <Gold.Protein.RotatedTorsions>
[ 6907 6896 6895 6894 ] final   11.58 input  -60.11 | X-H torsion
[ 7974 7965 7964 7962 ] final  141.64 input  175.53 | X-H torsion
[ 8008 7997 7996 7995 ] final  136.03 input   59.86 | X-H torsion
[ 10167 10162 10161 10158 ] final   70.64 input  -65.29 | X-H torsion
[ 10718 10713 10712 10709 ] final  -13.92 input   66.30 | X-H torsion
[ 10763 10752 10751 10750 ] final  108.53 input  -60.55 | X-H torsion
[ 11005 11000 10999 10996 ] final   54.10 input  -57.11 | X-H torsion

> <Gold.Protein.ActiveResidues>
 VAL166  LYS551  ARG553  GLY616  TRP617  ASP618  TYR619  PRO620  LYS621  CYS622 
 ASP623  PHE694  ASN695  SER759  ASP760  ASP761  ALA762  ILE779  LEU786  VAL792 
 PHE793  MET794  SER795  GLU796  ALA797  LYS798  CYS799  TRP800  GLU811  SER814 

> <Gold.Protein.RotatedAtoms>
  151.7566  135.0820  160.0338 H   0  0  0  0  0  0  0  0  0  0  0  0  # atno 6907 bound_to 6896
  152.3381  133.6031  159.5865 H   0  0  0  0  0  0  0  0  0  0  0  0  # atno 6908 bound_to 6896
  150.7462  133.9681  159.3578 H   0  0  0  0  0  0  0  0  0  0  0  0  # atno 6909 bound_to 6896
  144.9078  139.5334  143.5723 H   0  0  0  0  0  0  0  0  0  0  0  0  # atno 7974 bound_to 7965
  156.3004  140.2455  156.3679 H   0  0  0  0  0  0  0  0  0  0  0  0  # atno 8008 bound_to 7997
  154.8816  140.0412  157.1805 H   0  0  0  0  0  0  0  0  0  0  0  0  # atno 8009 bound_to 7997
  154.8690  140.2932  155.5497 H   0  0  0  0  0  0  0  0  0  0  0  0  # atno 8010 bound_to 7997
  140.0547  144.5282  150.7337 H   0  0  0  0  0  0  0  0  0  0  0  0  # atno 10167 bound_to 10162
  156.6234  130.4881  149.6156 H   0  0  0  0  0  0  0  0  0  0  0  0  # atno 10718 bound_to 10713
  153.4220  135.3809  155.2117 H   0  0  0  0  0  0  0  0  0  0  0  0  # atno 10763 bound_to 10752
  154.8745  135.3819  154.4373 H   0  0  0  0  0  0  0  0  0  0  0  0  # atno 10764 bound_to 10752
  153.4894  135.7088  153.5955 H   0  0  0  0  0  0  0  0  0  0  0  0  # atno 10765 bound_to 10752
  140.0713  134.5466  155.9043 H   0  0  0  0  0  0  0  0  0  0  0  0  # atno 11005 bound_to 11000
  146.3143  139.7860  142.8996 LP  0  0  0  0  0  0  0  0  0  0  0  0  # atno 17320 bound_to 7965
  145.3506  141.0306  143.3341 LP  0  0  0  0  0  0  0  0  0  0  0  0  # atno 17321 bound_to 7965
  140.7200  143.2580  151.4310 LP  0  0  0  0  0  0  0  0  0  0  0  0  # atno 17342 bound_to 10162
  139.5931  144.1457  152.2111 LP  0  0  0  0  0  0  0  0  0  0  0  0  # atno 17343 bound_to 10162
  156.2293  130.6785  151.1447 LP  0  0  0  0  0  0  0  0  0  0  0  0  # atno 17370 bound_to 10713
  157.7221  131.0675  150.6091 LP  0  0  0  0  0  0  0  0  0  0  0  0  # atno 17371 bound_to 10713
  141.2013  133.6617  156.5942 LP  0  0  0  0  0  0  0  0  0  0  0  0  # atno 17394 bound_to 11000
  140.3623  134.7677  157.4542 LP  0  0  0  0  0  0  0  0  0  0  0  0  # atno 17395 bound_to 11000

$$$$
