AV-unprocessed.smi:2069|AV-procd|sdf|8432|dock3
  -GOLD-   2272011123D 1   1.00000     0.00000
 Structure written by MMmdl.
 38 39  0  0  0  0  0  0  0  0  1 V2000
  143.6039  132.4039  149.5146 C   0  0  0  0  0  0  0  0  0  0  0  0
  144.6222  133.1963  150.2611 C   0  0  0  0  0  0  0  0  0  0  0  0
  145.8261  132.7087  150.5850 N   0  0  0  0  0  0  0  0  0  0  0  0
  146.5990  133.6313  151.2762 N   0  0  0  0  0  0  0  0  0  0  0  0
  145.9534  134.7923  151.4524 C   0  0  0  0  0  0  0  0  0  0  0  0
  146.5103  135.9111  152.1269 N   0  0  0  0  0  0  0  0  0  0  0  0
  145.8751  136.9901  152.6173 C   0  0  0  0  0  0  0  0  0  0  0  0
  144.6619  137.1905  152.5549 O   0  0  0  0  0  0  0  0  0  0  0  0
  146.7402  137.8411  153.1891 N   0  0  0  0  0  0  0  0  0  0  0  0
  146.3928  139.1108  153.8244 C   0  0  0  0  0  0  0  0  0  0  0  0
  147.4748  140.2091  153.6203 C   0  0  1  0  0  0  0  0  0  0  0  0
  146.8156  141.6034  153.7740 C   0  0  0  0  0  0  0  0  0  0  0  0
  148.6544  140.0348  154.5007 N   0  0  0  0  0  0  0  0  0  0  0  0
  149.6151  139.0553  153.9788 C   0  0  0  0  0  0  0  0  0  0  0  0
  150.8537  138.8945  154.8775 C   0  0  0  0  0  0  0  0  0  0  0  0
  151.4871  140.1540  155.0518 O   0  0  0  0  0  0  0  0  0  0  0  0
  150.6134  141.1120  155.6325 C   0  0  0  0  0  0  0  0  0  0  0  0
  149.3746  141.2917  154.7380 C   0  0  0  0  0  0  0  0  0  0  0  0
  144.3324  134.8522  150.7805 S   0  0  0  0  0  0  0  0  0  0  0  0
  143.8576  131.3434  149.5271 H   0  0  0  0  0  0  0  0  0  0  0  0
  143.5565  132.7406  148.4790 H   0  0  0  0  0  0  0  0  0  0  0  0
  142.6221  132.5319  149.9706 H   0  0  0  0  0  0  0  0  0  0  0  0
  147.5116  135.8864  152.2508 H   0  0  0  0  0  0  0  0  0  0  0  0
  147.7184  137.5924  153.1882 H   0  0  0  0  0  0  0  0  0  0  0  0
  145.4224  139.4775  153.4854 H   0  0  0  0  0  0  0  0  0  0  0  0
  146.2749  138.8634  154.8775 H   0  0  0  0  0  0  0  0  0  0  0  0
  147.8146  140.1323  152.5862 H   0  0  0  0  0  0  0  0  0  0  0  0
  145.9294  141.7159  153.1510 H   0  0  0  0  0  0  0  0  0  0  0  0
  147.4771  142.4117  153.4662 H   0  0  0  0  0  0  0  0  0  0  0  0
  146.5157  141.7852  154.8065 H   0  0  0  0  0  0  0  0  0  0  0  0
  149.1577  138.0714  153.8974 H   0  0  0  0  0  0  0  0  0  0  0  0
  149.9305  139.3443  152.9751 H   0  0  0  0  0  0  0  0  0  0  0  0
  150.5753  138.4807  155.8479 H   0  0  0  0  0  0  0  0  0  0  0  0
  151.5620  138.2001  154.4251 H   0  0  0  0  0  0  0  0  0  0  0  0
  150.3238  140.7928  156.6347 H   0  0  0  0  0  0  0  0  0  0  0  0
  151.1433  142.0586  155.7393 H   0  0  0  0  0  0  0  0  0  0  0  0
  149.6769  141.7311  153.7862 H   0  0  0  0  0  0  0  0  0  0  0  0
  148.7305  142.0168  155.2318 H   0  0  0  0  0  0  0  0  0  0  0  0
  1  2  1  0  0  0  0
  1 20  1  0  0  0  0
  1 21  1  0  0  0  0
  1 22  1  0  0  0  0
  2 19  1  0  0  0  0
  2  3  2  0  0  0  0
  3  4  1  0  0  0  0
  4  5  2  0  0  0  0
  5  6  1  0  0  0  0
  5 19  1  0  0  0  0
  6  7  1  0  0  0  0
  6 23  1  0  0  0  0
  7  8  2  0  0  0  0
  7  9  1  0  0  0  0
  9 10  1  0  0  0  0
  9 24  1  0  0  0  0
 10 11  1  0  0  0  0
 10 25  1  0  0  0  0
 10 26  1  0  0  0  0
 11 12  1  0  0  0  0
 11 13  1  0  0  0  0
 11 27  1  0  0  0  0
 12 28  1  0  0  0  0
 12 29  1  0  0  0  0
 12 30  1  0  0  0  0
 13 18  1  0  0  0  0
 13 14  1  0  0  0  0
 14 15  1  0  0  0  0
 14 31  1  0  0  0  0
 14 32  1  0  0  0  0
 15 16  1  0  0  0  0
 15 33  1  0  0  0  0
 15 34  1  0  0  0  0
 16 17  1  0  0  0  0
 17 18  1  0  0  0  0
 17 35  1  0  0  0  0
 17 36  1  0  0  0  0
 18 37  1  0  0  0  0
 18 38  1  0  0  0  0
M  END
> <s_m_source_file>
AV-unprocessed.smi

> <i_m_source_file_index>
2069

> <i_lp_mmshare_version>
43012

> <i_f3d_flags>
0

> <s_epik_input>
W0NIM11jMW5uYyhzMSlbTkhdQyg9TylbTkhdW0NIMl1bQ0BIXShbQ0gzXSlOMltDSDJdW0NIMl1PW0NIMl1bQ0gyXTI=

> <s_epik_cmdline>
J2VwaWtfcHl0aG9uJywgJy1waCcsICc3LjAnLCAnLXRuJywgJzgnLCAnLW1hJywgJzIwMCcsICctbWV0YWxfYmluZGluZycsICctaW1hZScsICc8aW5maWxlLm1hZT4nLCAnLW9tYWUnLCAnPG91dGZpbGUubWFlPic=

> <r_lp_tautomer_probability>
1

> <r_epik_Ionization_Penalty>
0.221104

> <r_epik_Ionization_Penalty_Charging>
0

> <r_epik_Ionization_Penalty_Neutral>
0.221104

> <r_epik_State_Penalty>
0.209349

> <r_epik_Charging_Adjusted_Penalty>
0.209349

> <i_epik_Tot_Q>
0

> <i_epik_Tot_abs_Q>
0

> <r_epik_Metal_State_Penalty>
0.561068

> <b_epik_Metal_Only>
0

> <s_lp_Force_Field>
OPLS_2005

> <r_lp_Energy>
28.2693

> <b_lp_Chiralities_Consistent>
1

> <s_lp_Variant>
AV-unprocessed.smi:2069-2

> <Gold.Version>
5.8.1

> <Gold.Id.Protein>
6NUR|6NUR_protein|mol2

> <Gold.PLP.Fitness>
37.2240

> <Gold.PLP.PLP>
-32.5115

> <Gold.PLP.part.hbond>
-2.6936

> <Gold.PLP.part.metal>
0.0000

> <Gold.PLP.part.buried>
-3.9158

> <Gold.PLP.part.nonpolar>
-27.4675

> <Gold.PLP.part.repulsive>
0.7689

> <Gold.PLP.ligand.clash>
0.0000

> <Gold.PLP.ligand.torsion>
0.9882

> <Gold.PLP.Chemscore.Hbond>
2.2202

> <Gold.PLP.Chemscore.CHOScore>
0.0000

> <Gold.PLP.Chemscore.Metal>
0.0000

> <Gold.Chemscore.Hbonds>
donor molecule, donor type, donor heavy atom, donor atom, acceptor molecule, acceptor atom, score
      L1  H     6    23       P1  7948  0.96
      L1  H     9    24       P1  7948  0.28
      P1  H  7989  7998       L1    16  0.90

> <Gold.PLP.Chemscore.Internal.Correction>
0.0284

> <Gold.Rescore>
     Score         DG    S(hbond)    S(metal)    S(lipo)     H(rot)  DE(clash)    DE(int)     intcor
     13.53     -15.95       1.78        0.00      73.81       1.60       0.36       2.05       ----

> <Gold.Chemscore.Fitness>
13.5292

> <Gold.Chemscore.DG>
-15.9481

> <Gold.Chemscore.ZeroCoef>
-5.4800

> <Gold.Chemscore.Hbond>
1.7761

> <Gold.Chemscore.Metal>
0.0000

> <Gold.Chemscore.Lipo>
73.8110

> <Gold.Chemscore.Internal_Hbond>
0.0000

> <Gold.Chemscore.DEClash>
0.3648

> <Gold.Chemscore.DEInternal>
2.0540

> <Gold.Chemscore.Rot>
1.6016

> <Gold.Chemscore.Internal.Correction>
   9.000000E+99

> <Gold.Chemscore.Hbonds>
donor molecule, donor type, donor heavy atom, donor atom, acceptor molecule, acceptor atom, score
      L1  H     6    23       P1  7948  0.88
      L1  H     9    24       P1  7948  0.29
      P1  H  7989  7998       L1    16  0.11

> <Gold.Chemscore.Hbond.Weighted>
-5.9323

> <Gold.Chemscore.Metal.Weighted>
-0.0000

> <Gold.Chemscore.Lipo.Weighted>
-8.6359

> <Gold.Chemscore.Internal_Hbond.Weighted>
0.0000

> <Gold.Chemscore.DEClash.Weighted>
0.3648

> <Gold.Chemscore.DEInternal.Weighted>
2.0540

> <Gold.Chemscore.Rot.Weighted>
4.1001

> <Gold.Chemscore.Internal.Correction.Weighted>
   9.000000E+99

> <Gold.Protein.RotatedTorsions>
[ 6907 6896 6895 6894 ] final   12.00 input  -60.11 | X-H torsion
[ 7974 7965 7964 7962 ] final  -36.67 input  175.53 | X-H torsion
[ 8008 7997 7996 7995 ] final  173.95 input   59.86 | X-H torsion
[ 10167 10162 10161 10158 ] final -151.06 input  -65.29 | X-H torsion
[ 10718 10713 10712 10709 ] final -160.55 input   66.30 | X-H torsion
[ 10763 10752 10751 10750 ] final   43.02 input  -60.55 | X-H torsion
[ 11005 11000 10999 10996 ] final  168.19 input  -57.11 | X-H torsion

> <Gold.Protein.ActiveResidues>
 VAL166  LYS551  ARG553  GLY616  TRP617  ASP618  TYR619  PRO620  LYS621  CYS622 
 ASP623  PHE694  ASN695  SER759  ASP760  ASP761  ALA762  ILE779  LEU786  VAL792 
 PHE793  MET794  SER795  GLU796  ALA797  LYS798  CYS799  TRP800  GLU811  SER814 

> <Gold.Protein.RotatedAtoms>
  151.7633  135.0805  160.0348 H   0  0  0  0  0  0  0  0  0  0  0  0  # atno 6907 bound_to 6896
  152.3338  133.5984  159.5837 H   0  0  0  0  0  0  0  0  0  0  0  0  # atno 6908 bound_to 6896
  150.7438  133.9743  159.3597 H   0  0  0  0  0  0  0  0  0  0  0  0  # atno 6909 bound_to 6896
  146.0642  140.6305  142.8983 H   0  0  0  0  0  0  0  0  0  0  0  0  # atno 7974 bound_to 7965
  156.1024  140.1447  156.9450 H   0  0  0  0  0  0  0  0  0  0  0  0  # atno 8008 bound_to 7997
  154.4711  140.0909  156.7191 H   0  0  0  0  0  0  0  0  0  0  0  0  # atno 8009 bound_to 7997
  155.4738  140.3442  155.4332 H   0  0  0  0  0  0  0  0  0  0  0  0  # atno 8010 bound_to 7997
  139.7300  143.8823  152.2531 H   0  0  0  0  0  0  0  0  0  0  0  0  # atno 10167 bound_to 10162
  156.5836  130.8740  151.2871 H   0  0  0  0  0  0  0  0  0  0  0  0  # atno 10718 bound_to 10713
  152.9870  135.6114  154.3044 H   0  0  0  0  0  0  0  0  0  0  0  0  # atno 10763 bound_to 10752
  154.2763  135.2778  155.2718 H   0  0  0  0  0  0  0  0  0  0  0  0  # atno 10764 bound_to 10752
  154.5078  135.5849  153.6638 H   0  0  0  0  0  0  0  0  0  0  0  0  # atno 10765 bound_to 10752
  140.2846  134.7722  157.3787 H   0  0  0  0  0  0  0  0  0  0  0  0  # atno 11005 bound_to 11000
  144.7192  140.4317  143.7021 LP  0  0  0  0  0  0  0  0  0  0  0  0  # atno 17320 bound_to 7965
  145.6507  139.1564  143.2864 LP  0  0  0  0  0  0  0  0  0  0  0  0  # atno 17321 bound_to 7965
  139.8744  144.7051  150.8950 LP  0  0  0  0  0  0  0  0  0  0  0  0  # atno 17342 bound_to 10162
  140.7769  143.3712  151.1646 LP  0  0  0  0  0  0  0  0  0  0  0  0  # atno 17343 bound_to 10162
  157.7320  130.9709  150.1909 LP  0  0  0  0  0  0  0  0  0  0  0  0  # atno 17370 bound_to 10713
  156.2610  130.3711  149.8131 LP  0  0  0  0  0  0  0  0  0  0  0  0  # atno 17371 bound_to 10713
  140.1251  134.5168  155.8151 LP  0  0  0  0  0  0  0  0  0  0  0  0  # atno 17394 bound_to 11000
  141.2157  133.6770  156.6937 LP  0  0  0  0  0  0  0  0  0  0  0  0  # atno 17395 bound_to 11000

$$$$
