AV-unprocessed.smi:1019|AV-procd|sdf|4449|dock2
  -GOLD-   22720 2413D 1   1.00000     0.00000
 Structure written by MMmdl.
 45 47  0  0  0  0  0  0  0  0  3 V2000
  146.0538  136.2449  153.7603 C   0  0  0  0  0  0  0  0  0  0  0  0
  146.0590  136.5827  152.3182 N   0  3  1  0  0  0  0  0  0  0  0  0
  145.1261  135.7237  151.5471 C   0  0  0  0  0  0  0  0  0  0  0  0
  143.7888  135.5694  152.2509 C   0  0  0  0  0  0  0  0  0  0  0  0
  143.1799  134.2994  152.3345 C   0  0  0  0  0  0  0  0  0  0  0  0
  141.9347  134.1524  152.9757 C   0  0  0  0  0  0  0  0  0  0  0  0
  141.2952  135.2734  153.5388 C   0  0  0  0  0  0  0  0  0  0  0  0
  141.9017  136.5419  153.4619 C   0  0  0  0  0  0  0  0  0  0  0  0
  143.1468  136.6900  152.8205 C   0  0  0  0  0  0  0  0  0  0  0  0
  145.8708  138.0370  152.0693 C   0  0  0  0  0  0  0  0  0  0  0  0
  147.0431  138.8783  152.6106 C   0  0  1  0  0  0  0  0  0  0  0  0
  147.2182  140.0117  151.7804 O   0  0  0  0  0  0  0  0  0  0  0  0
  146.7808  139.3539  154.0535 C   0  0  0  0  0  0  0  0  0  0  0  0
  147.7863  140.3119  154.5323 N   0  0  0  0  0  0  0  0  0  0  0  0
  147.6687  141.6407  154.8032 C   0  0  0  0  0  0  0  0  0  0  0  0
  148.8878  142.0854  155.2165 N   0  3  0  0  0  0  0  0  0  0  0  0
  149.7974  141.0258  155.2114 C   0  0  0  0  0  0  0  0  0  0  0  0
  151.1470  140.9807  155.5471 C   0  0  0  0  0  0  0  0  0  0  0  0
  151.7872  139.7297  155.4284 C   0  0  0  0  0  0  0  0  0  0  0  0
  151.0883  138.5849  154.9922 C   0  0  0  0  0  0  0  0  0  0  0  0
  149.7199  138.6419  154.6544 C   0  0  0  0  0  0  0  0  0  0  0  0
  149.0954  139.8827  154.7737 C   0  0  0  0  0  0  0  0  0  0  0  0
  145.0741  136.4320  154.2020 H   0  0  0  0  0  0  0  0  0  0  0  0
  146.7916  136.8308  154.3081 H   0  0  0  0  0  0  0  0  0  0  0  0
  146.2989  135.1929  153.9102 H   0  0  0  0  0  0  0  0  0  0  0  0
  144.9312  136.1701  150.5707 H   0  0  0  0  0  0  0  0  0  0  0  0
  145.5811  134.7498  151.3594 H   0  0  0  0  0  0  0  0  0  0  0  0
  143.6636  133.4348  151.9038 H   0  0  0  0  0  0  0  0  0  0  0  0
  141.4695  133.1795  153.0363 H   0  0  0  0  0  0  0  0  0  0  0  0
  140.3403  135.1599  154.0307 H   0  0  0  0  0  0  0  0  0  0  0  0
  141.4113  137.4017  153.8945 H   0  0  0  0  0  0  0  0  0  0  0  0
  143.6039  137.6672  152.7644 H   0  0  0  0  0  0  0  0  0  0  0  0
  145.7678  138.2410  151.0034 H   0  0  0  0  0  0  0  0  0  0  0  0
  144.9299  138.3564  152.5203 H   0  0  0  0  0  0  0  0  0  0  0  0
  147.9656  138.2980  152.5940 H   0  0  0  0  0  0  0  0  0  0  0  0
  148.1255  140.2749  151.8028 H   0  0  0  0  0  0  0  0  0  0  0  0
  145.8079  139.8433  154.1198 H   0  0  0  0  0  0  0  0  0  0  0  0
  146.7500  138.5110  154.7451 H   0  0  0  0  0  0  0  0  0  0  0  0
  146.7722  142.2358  154.7037 H   0  0  0  0  0  0  0  0  0  0  0  0
  151.6847  141.8555  155.8823 H   0  0  0  0  0  0  0  0  0  0  0  0
  152.8353  139.6465  155.6774 H   0  0  0  0  0  0  0  0  0  0  0  0
  151.6134  137.6437  154.9157 H   0  0  0  0  0  0  0  0  0  0  0  0
  149.1938  137.7596  154.3218 H   0  0  0  0  0  0  0  0  0  0  0  0
  146.9795  136.3514  151.9738 H   0  0  0  0  0  0  0  0  0  0  0  0
  149.0817  143.0428  155.4814 H   0  0  0  0  0  0  0  0  0  0  0  0
  1  2  1  0  0  0  0
  1 23  1  0  0  0  0
  1 24  1  0  0  0  0
  1 25  1  0  0  0  0
  2  3  1  0  0  0  0
  2 10  1  0  0  0  0
  2 44  1  0  0  0  0
  3  4  1  0  0  0  0
  3 26  1  0  0  0  0
  3 27  1  0  0  0  0
  4  9  1  0  0  0  0
  4  5  2  0  0  0  0
  5  6  1  0  0  0  0
  5 28  1  0  0  0  0
  6  7  2  0  0  0  0
  6 29  1  0  0  0  0
  7  8  1  0  0  0  0
  7 30  1  0  0  0  0
  8  9  2  0  0  0  0
  8 31  1  0  0  0  0
  9 32  1  0  0  0  0
 10 11  1  0  0  0  0
 10 33  1  0  0  0  0
 10 34  1  0  0  0  0
 11 12  1  0  0  0  0
 11 13  1  0  0  0  0
 11 35  1  0  0  0  0
 12 36  1  0  0  0  0
 13 14  1  0  0  0  0
 13 37  1  0  0  0  0
 13 38  1  0  0  0  0
 14 22  1  0  0  0  0
 14 15  1  0  0  0  0
 15 16  2  0  0  0  0
 15 39  1  0  0  0  0
 16 17  1  0  0  0  0
 16 45  1  0  0  0  0
 17 22  2  0  0  0  0
 17 18  1  0  0  0  0
 18 19  2  0  0  0  0
 18 40  1  0  0  0  0
 19 20  1  0  0  0  0
 19 41  1  0  0  0  0
 20 21  2  0  0  0  0
 20 42  1  0  0  0  0
 21 22  1  0  0  0  0
 21 43  1  0  0  0  0
M  CHG  1   2   1
M  CHG  1  16   1
M  END
> <s_m_source_file>
AV-unprocessed.smi

> <i_m_source_file_index>
1019

> <i_lp_mmshare_version>
43012

> <i_f3d_flags>
0

> <s_epik_input>
W2NIXTFbY0hdW2NIXVtjSF1bY0hdYzFbQ0gyXU4oW0NIM10pW0NIMl1bQ0BIXShbT0hdKVtDSDJdbihbY0hdbjIpYyhjMjMpW2NIXVtjSF1bY0hdW2NIXTM=

> <s_epik_cmdline>
J2VwaWtfcHl0aG9uJywgJy1waCcsICc3LjAnLCAnLXRuJywgJzgnLCAnLW1hJywgJzIwMCcsICctbWV0YWxfYmluZGluZycsICctaW1hZScsICc8aW5maWxlLm1hZT4nLCAnLW9tYWUnLCAnPG91dGZpbGUubWFlPic=

> <r_epik_Ionization_Penalty>
1.5198

> <r_epik_Ionization_Penalty_Charging>
1.5198

> <r_epik_Ionization_Penalty_Neutral>
3.13312e-06

> <r_epik_State_Penalty>
1.624

> <r_epik_Charging_Adjusted_Penalty>
3.1438

> <i_epik_Tot_Q>
2

> <i_epik_Tot_abs_Q>
2

> <r_epik_Metal_State_Penalty>
5.67392

> <b_epik_Metal_Only>
0

> <s_lp_Force_Field>
OPLS_2005

> <r_lp_Energy>
24.7474

> <b_lp_Chiralities_Consistent>
1

> <s_lp_Variant>
AV-unprocessed.smi:1019-7

> <Gold.Version>
5.8.1

> <Gold.Id.Protein>
6NUR|6NUR_protein|mol2

> <Gold.PLP.Fitness>
54.9580

> <Gold.PLP.PLP>
-41.9780

> <Gold.PLP.part.hbond>
-2.3820

> <Gold.PLP.part.metal>
0.0000

> <Gold.PLP.part.buried>
-3.6587

> <Gold.PLP.part.nonpolar>
-37.6720

> <Gold.PLP.part.repulsive>
0.1952

> <Gold.PLP.ligand.clash>
0.0000

> <Gold.PLP.ligand.torsion>
0.9711

> <Gold.PLP.Chemscore.Hbond>
4.8580

> <Gold.PLP.Chemscore.CHOScore>
0.0000

> <Gold.PLP.Chemscore.Metal>
0.0000

> <Gold.Chemscore.Hbonds>
donor molecule, donor type, donor heavy atom, donor atom, acceptor molecule, acceptor atom, score
      L1  H     2    44       P1  7948  2.00
      L1  H    12    36       P1  7957  0.88
      L1  H    16    45       P1  8028  2.00

> <Gold.PLP.Chemscore.Internal.Correction>
0.3482

> <Gold.Rescore>
     Score         DG    S(hbond)    S(metal)    S(lipo)     H(rot)  DE(clash)    DE(int)     intcor
     18.93     -19.85       2.78        0.00      97.31       2.46       0.06       0.87       ----

> <Gold.Chemscore.Fitness>
18.9268

> <Gold.Chemscore.DG>
-19.8546

> <Gold.Chemscore.ZeroCoef>
-5.4800

> <Gold.Chemscore.Hbond>
2.7770

> <Gold.Chemscore.Metal>
0.0000

> <Gold.Chemscore.Lipo>
97.3071

> <Gold.Chemscore.Internal_Hbond>
0.0000

> <Gold.Chemscore.DEClash>
0.0603

> <Gold.Chemscore.DEInternal>
0.8675

> <Gold.Chemscore.Rot>
2.4552

> <Gold.Chemscore.Internal.Correction>
   9.000000E+99

> <Gold.Chemscore.Hbonds>
donor molecule, donor type, donor heavy atom, donor atom, acceptor molecule, acceptor atom, score
      L1  H     2    44       P1  7948  0.98
      L1  H    12    36       P1  7957  0.85
      L1  H    16    45       P1  8028  0.99

> <Gold.Chemscore.Hbond.Weighted>
-9.2751

> <Gold.Chemscore.Metal.Weighted>
-0.0000

> <Gold.Chemscore.Lipo.Weighted>
-11.3849

> <Gold.Chemscore.Internal_Hbond.Weighted>
0.0000

> <Gold.Chemscore.DEClash.Weighted>
0.0603

> <Gold.Chemscore.DEInternal.Weighted>
0.8675

> <Gold.Chemscore.Rot.Weighted>
6.2854

> <Gold.Chemscore.Internal.Correction.Weighted>
   9.000000E+99

> <Gold.Protein.RotatedTorsions>
[ 6907 6896 6895 6894 ] final   52.37 input  -60.11 | X-H torsion
[ 7974 7965 7964 7962 ] final  142.05 input  175.53 | X-H torsion
[ 8008 7997 7996 7995 ] final  132.89 input   59.86 | X-H torsion
[ 10167 10162 10161 10158 ] final   33.33 input  -65.29 | X-H torsion
[ 10718 10713 10712 10709 ] final  -87.57 input   66.30 | X-H torsion
[ 10763 10752 10751 10750 ] final -110.74 input  -60.55 | X-H torsion
[ 11005 11000 10999 10996 ] final  107.75 input  -57.11 | X-H torsion

> <Gold.Protein.ActiveResidues>
 VAL166  LYS551  ARG553  GLY616  TRP617  ASP618  TYR619  PRO620  LYS621  CYS622 
 ASP623  PHE694  ASN695  SER759  ASP760  ASP761  ALA762  ILE779  LEU786  VAL792 
 PHE793  MET794  SER795  GLU796  ALA797  LYS798  CYS799  TRP800  GLU811  SER814 

> <Gold.Protein.RotatedAtoms>
  152.3226  134.7361  160.0309 H   0  0  0  0  0  0  0  0  0  0  0  0  # atno 6907 bound_to 6896
  151.7804  133.3344  159.3478 H   0  0  0  0  0  0  0  0  0  0  0  0  # atno 6908 bound_to 6896
  150.7378  134.5867  159.6011 H   0  0  0  0  0  0  0  0  0  0  0  0  # atno 6909 bound_to 6896
  144.9042  139.5381  143.5739 H   0  0  0  0  0  0  0  0  0  0  0  0  # atno 7974 bound_to 7965
  156.2987  140.2535  156.3164 H   0  0  0  0  0  0  0  0  0  0  0  0  # atno 8008 bound_to 7997
  154.9277  140.0399  157.2050 H   0  0  0  0  0  0  0  0  0  0  0  0  # atno 8009 bound_to 7997
  154.8248  140.2866  155.5766 H   0  0  0  0  0  0  0  0  0  0  0  0  # atno 8010 bound_to 7997
  140.4417  144.1177  150.6175 H   0  0  0  0  0  0  0  0  0  0  0  0  # atno 10167 bound_to 10162
  155.9985  130.4805  150.4887 H   0  0  0  0  0  0  0  0  0  0  0  0  # atno 10718 bound_to 10713
  154.8264  135.4553  154.0931 H   0  0  0  0  0  0  0  0  0  0  0  0  # atno 10763 bound_to 10752
  153.2242  135.6898  153.7971 H   0  0  0  0  0  0  0  0  0  0  0  0  # atno 10764 bound_to 10752
  153.7377  135.3317  155.3274 H   0  0  0  0  0  0  0  0  0  0  0  0  # atno 10765 bound_to 10752
  139.8833  134.9410  156.5867 H   0  0  0  0  0  0  0  0  0  0  0  0  # atno 11005 bound_to 11000
  146.3124  139.7796  142.9009 LP  0  0  0  0  0  0  0  0  0  0  0  0  # atno 17320 bound_to 7965
  145.3565  141.0317  143.3309 LP  0  0  0  0  0  0  0  0  0  0  0  0  # atno 17321 bound_to 7965
  140.4310  143.2568  151.9595 LP  0  0  0  0  0  0  0  0  0  0  0  0  # atno 17342 bound_to 10162
  139.4790  144.5744  151.8036 LP  0  0  0  0  0  0  0  0  0  0  0  0  # atno 17343 bound_to 10162
  157.2885  131.0621  151.2150 LP  0  0  0  0  0  0  0  0  0  0  0  0  # atno 17370 bound_to 10713
  157.3171  130.6919  149.6248 LP  0  0  0  0  0  0  0  0  0  0  0  0  # atno 17371 bound_to 10713
  140.7986  133.8523  155.8707 LP  0  0  0  0  0  0  0  0  0  0  0  0  # atno 17394 bound_to 11000
  140.9612  134.1652  157.4652 LP  0  0  0  0  0  0  0  0  0  0  0  0  # atno 17395 bound_to 11000

$$$$
