AV-unprocessed.smi:2603|AV-procd|sdf|10188|dock4
  -GOLD-   2272014203D 1   1.00000     0.00000
 Structure written by MMmdl.
 35 36  0  0  0  0  0  0  0  0  1 V2000
  152.8806  142.7994  162.2926 C   0  0  0  0  0  0  0  0  0  0  0  0
  153.3950  142.2985  160.9412 C   0  0  0  0  0  0  0  0  0  0  0  0
  152.9259  143.1620  159.9203 O   0  0  0  0  0  0  0  0  0  0  0  0
  151.7844  142.6368  159.2679 C   0  0  1  0  0  0  0  0  0  0  0  0
  151.5645  143.2270  157.9045 C   0  0  0  0  0  0  0  0  0  0  0  0
  152.1127  141.8172  158.0414 C   0  0  2  0  0  0  0  0  0  0  0  0
  151.2432  140.7305  157.7336 N   0  0  0  0  0  0  0  0  0  0  0  0
  151.4853  139.7695  156.8303 C   0  0  0  0  0  0  0  0  0  0  0  0
  152.5016  139.7226  156.1376 O   0  0  0  0  0  0  0  0  0  0  0  0
  150.4187  138.6831  156.6960 C   0  0  0  0  0  0  0  0  0  0  0  0
  150.2043  138.0172  158.0312 C   0  0  0  0  0  0  0  0  0  0  0  0
  148.9728  137.7125  158.6815 C   0  0  0  0  0  0  0  0  0  0  0  0
  147.5702  137.9780  158.2146 C   0  0  0  0  0  0  0  0  0  0  0  0
  149.1645  137.1305  159.8532 N   0  0  0  0  0  0  0  0  0  0  0  0
  150.5504  137.0308  160.0103 O   0  0  0  0  0  0  0  0  0  0  0  0
  151.1458  137.5674  158.9152 C   0  0  0  0  0  0  0  0  0  0  0  0
  152.6370  137.5655  158.8920 C   0  0  0  0  0  0  0  0  0  0  0  0
  153.2276  142.1587  163.1034 H   0  0  0  0  0  0  0  0  0  0  0  0
  151.7908  142.8094  162.3170 H   0  0  0  0  0  0  0  0  0  0  0  0
  153.2303  143.8124  162.4930 H   0  0  0  0  0  0  0  0  0  0  0  0
  154.4859  142.2765  160.9430 H   0  0  0  0  0  0  0  0  0  0  0  0
  153.0449  141.2809  160.7624 H   0  0  0  0  0  0  0  0  0  0  0  0
  150.9303  142.3964  159.8993 H   0  0  0  0  0  0  0  0  0  0  0  0
  150.5359  143.3412  157.5680 H   0  0  0  0  0  0  0  0  0  0  0  0
  152.2512  144.0027  157.5718 H   0  0  0  0  0  0  0  0  0  0  0  0
  153.1696  141.6932  157.8079 H   0  0  0  0  0  0  0  0  0  0  0  0
  150.3804  140.6792  158.2551 H   0  0  0  0  0  0  0  0  0  0  0  0
  149.4980  139.1251  156.3141 H   0  0  0  0  0  0  0  0  0  0  0  0
  150.7402  137.9634  155.9422 H   0  0  0  0  0  0  0  0  0  0  0  0
  147.1904  138.9093  158.6353 H   0  0  0  0  0  0  0  0  0  0  0  0
  146.8933  137.1766  158.5125 H   0  0  0  0  0  0  0  0  0  0  0  0
  147.5210  138.0606  157.1292 H   0  0  0  0  0  0  0  0  0  0  0  0
  153.0192  138.5524  158.6304 H   0  0  0  0  0  0  0  0  0  0  0  0
  153.0094  136.8528  158.1562 H   0  0  0  0  0  0  0  0  0  0  0  0
  153.0461  137.2927  159.8650 H   0  0  0  0  0  0  0  0  0  0  0  0
  1  2  1  0  0  0  0
  1 18  1  0  0  0  0
  1 19  1  0  0  0  0
  1 20  1  0  0  0  0
  2  3  1  0  0  0  0
  2 21  1  0  0  0  0
  2 22  1  0  0  0  0
  3  4  1  0  0  0  0
  4  6  1  0  0  0  0
  4  5  1  0  0  0  0
  4 23  1  0  0  0  0
  5  6  1  0  0  0  0
  5 24  1  0  0  0  0
  5 25  1  0  0  0  0
  6  7  1  0  0  0  0
  6 26  1  0  0  0  0
  7  8  1  0  0  0  0
  7 27  1  0  0  0  0
  8  9  2  0  0  0  0
  8 10  1  0  0  0  0
 10 11  1  0  0  0  0
 10 28  1  0  0  0  0
 10 29  1  0  0  0  0
 11 16  2  0  0  0  0
 11 12  1  0  0  0  0
 12 13  1  0  0  0  0
 12 14  2  0  0  0  0
 13 30  1  0  0  0  0
 13 31  1  0  0  0  0
 13 32  1  0  0  0  0
 14 15  1  0  0  0  0
 15 16  1  0  0  0  0
 16 17  1  0  0  0  0
 17 33  1  0  0  0  0
 17 34  1  0  0  0  0
 17 35  1  0  0  0  0
M  END
> <s_m_source_file>
AV-unprocessed.smi

> <i_m_source_file_index>
2603

> <i_lp_mmshare_version>
43012

> <i_f3d_flags>
0

> <s_epik_input>
W0NIM11bQ0gyXU9bQ0BASF0xW0NIMl1bQ0BIXTFbTkhdQyg9TylbQ0gyXWMyYyhbQ0gzXSlub2MyW0NIM10=

> <s_epik_cmdline>
J2VwaWtfcHl0aG9uJywgJy1waCcsICc3LjAnLCAnLXRuJywgJzgnLCAnLW1hJywgJzIwMCcsICctbWV0YWxfYmluZGluZycsICctaW1hZScsICc8aW5maWxlLm1hZT4nLCAnLW9tYWUnLCAnPG91dGZpbGUubWFlPic=

> <r_lp_tautomer_probability>
1

> <r_epik_Ionization_Penalty>
2.37325e-08

> <r_epik_Ionization_Penalty_Charging>
0

> <r_epik_Ionization_Penalty_Neutral>
2.37325e-08

> <r_epik_State_Penalty>
-0

> <r_epik_Charging_Adjusted_Penalty>
0

> <i_epik_Tot_Q>
0

> <i_epik_Tot_abs_Q>
0

> <r_epik_Metal_State_Penalty>
-0

> <b_epik_Metal_Only>
0

> <s_lp_Force_Field>
OPLS_2005

> <r_lp_Energy>
9.74593

> <b_lp_Chiralities_Consistent>
1

> <s_lp_Variant>
AV-unprocessed.smi:2603-4

> <Gold.Version>
5.8.1

> <Gold.Id.Protein>
6NUR|6NUR_protein|mol2

> <Gold.PLP.Fitness>
32.3429

> <Gold.PLP.PLP>
-27.2907

> <Gold.PLP.part.hbond>
-3.6621

> <Gold.PLP.part.metal>
0.0000

> <Gold.PLP.part.buried>
-5.9315

> <Gold.PLP.part.nonpolar>
-18.2245

> <Gold.PLP.part.repulsive>
0.0623

> <Gold.PLP.ligand.clash>
0.0000

> <Gold.PLP.ligand.torsion>
0.8145

> <Gold.PLP.Chemscore.Hbond>
2.0045

> <Gold.PLP.Chemscore.CHOScore>
0.0000

> <Gold.PLP.Chemscore.Metal>
0.0000

> <Gold.Chemscore.Hbonds>
donor molecule, donor type, donor heavy atom, donor atom, acceptor molecule, acceptor atom, score
      P1  H  6896  6907       L1    15  1.00
      P1  H  6931  6943       L1    14  0.06
      P1  H  7997  8009       L1     9  1.00

> <Gold.PLP.Chemscore.Internal.Correction>
0.6676

> <Gold.Rescore>
     Score         DG    S(hbond)    S(metal)    S(lipo)     H(rot)  DE(clash)    DE(int)     intcor
     15.02     -15.76       1.95        0.00      69.40       1.69       0.02       0.72       ----

> <Gold.Chemscore.Fitness>
15.0177

> <Gold.Chemscore.DG>
-15.7626

> <Gold.Chemscore.ZeroCoef>
-5.4800

> <Gold.Chemscore.Hbond>
1.9455

> <Gold.Chemscore.Metal>
0.0000

> <Gold.Chemscore.Lipo>
69.3971

> <Gold.Chemscore.Internal_Hbond>
0.0000

> <Gold.Chemscore.DEClash>
0.0234

> <Gold.Chemscore.DEInternal>
0.7215

> <Gold.Chemscore.Rot>
1.6933

> <Gold.Chemscore.Internal.Correction>
   9.000000E+99

> <Gold.Chemscore.Hbonds>
donor molecule, donor type, donor heavy atom, donor atom, acceptor molecule, acceptor atom, score
      P1  H  6896  6907       L1    15  0.22
      P1  H  7997  8009       L1     9  1.00

> <Gold.Chemscore.Hbond.Weighted>
-6.4979

> <Gold.Chemscore.Metal.Weighted>
-0.0000

> <Gold.Chemscore.Lipo.Weighted>
-8.1195

> <Gold.Chemscore.Internal_Hbond.Weighted>
0.0000

> <Gold.Chemscore.DEClash.Weighted>
0.0234

> <Gold.Chemscore.DEInternal.Weighted>
0.7215

> <Gold.Chemscore.Rot.Weighted>
4.3348

> <Gold.Chemscore.Internal.Correction.Weighted>
   9.000000E+99

> <Gold.Protein.RotatedTorsions>
[ 6907 6896 6895 6894 ] final  -26.09 input  -60.11 | X-H torsion
[ 7974 7965 7964 7962 ] final  134.27 input  175.53 | X-H torsion
[ 8008 7997 7996 7995 ] final -163.90 input   59.86 | X-H torsion
[ 10167 10162 10161 10158 ] final  -75.98 input  -65.29 | X-H torsion
[ 10718 10713 10712 10709 ] final   36.71 input   66.30 | X-H torsion
[ 10763 10752 10751 10750 ] final  -84.81 input  -60.55 | X-H torsion
[ 11005 11000 10999 10996 ] final  -25.28 input  -57.11 | X-H torsion

> <Gold.Protein.ActiveResidues>
 VAL166  LYS551  ARG553  GLY616  TRP617  ASP618  TYR619  PRO620  LYS621  CYS622 
 ASP623  PHE694  ASN695  SER759  ASP760  ASP761  ALA762  ILE779  LEU786  VAL792 
 PHE793  MET794  SER795  GLU796  ALA797  LYS798  CYS799  TRP800  GLU811  SER814 

> <Gold.Protein.RotatedAtoms>
  151.1659  135.0295  159.8730 H   0  0  0  0  0  0  0  0  0  0  0  0  # atno 6907 bound_to 6896
  152.5450  134.1226  159.8415 H   0  0  0  0  0  0  0  0  0  0  0  0  # atno 6908 bound_to 6896
  151.1326  133.4980  159.2631 H   0  0  0  0  0  0  0  0  0  0  0  0  # atno 6909 bound_to 6896
  144.9780  139.4534  143.5400 H   0  0  0  0  0  0  0  0  0  0  0  0  # atno 7974 bound_to 7965
  155.8279  140.0929  157.1810 H   0  0  0  0  0  0  0  0  0  0  0  0  # atno 8008 bound_to 7997
  154.3979  140.1424  156.3639 H   0  0  0  0  0  0  0  0  0  0  0  0  # atno 8009 bound_to 7997
  155.8197  140.3447  155.5509 H   0  0  0  0  0  0  0  0  0  0  0  0  # atno 8010 bound_to 7997
  140.4896  143.2383  151.7928 H   0  0  0  0  0  0  0  0  0  0  0  0  # atno 10167 bound_to 10162
  157.3382  130.7534  149.6893 H   0  0  0  0  0  0  0  0  0  0  0  0  # atno 10718 bound_to 10713
  154.6038  135.5507  153.7402 H   0  0  0  0  0  0  0  0  0  0  0  0  # atno 10763 bound_to 10752
  153.0166  135.6373  154.1676 H   0  0  0  0  0  0  0  0  0  0  0  0  # atno 10764 bound_to 10752
  154.1616  135.2897  155.3087 H   0  0  0  0  0  0  0  0  0  0  0  0  # atno 10765 bound_to 10752
  140.8923  133.7580  156.0437 H   0  0  0  0  0  0  0  0  0  0  0  0  # atno 11005 bound_to 11000
  146.3400  139.9035  142.8791 LP  0  0  0  0  0  0  0  0  0  0  0  0  # atno 17320 bound_to 7965
  145.2462  141.0027  143.3907 LP  0  0  0  0  0  0  0  0  0  0  0  0  # atno 17321 bound_to 7965
  139.4848  144.4667  151.9476 LP  0  0  0  0  0  0  0  0  0  0  0  0  # atno 17342 bound_to 10162
  140.3753  144.2804  150.5915 LP  0  0  0  0  0  0  0  0  0  0  0  0  # atno 17343 bound_to 10162
  155.9704  130.4175  150.4284 LP  0  0  0  0  0  0  0  0  0  0  0  0  # atno 17370 bound_to 10713
  157.2327  131.0508  151.2483 LP  0  0  0  0  0  0  0  0  0  0  0  0  # atno 17371 bound_to 10713
  140.8332  134.3154  157.5341 LP  0  0  0  0  0  0  0  0  0  0  0  0  # atno 17394 bound_to 11000
  139.8731  134.9375  156.3688 LP  0  0  0  0  0  0  0  0  0  0  0  0  # atno 17395 bound_to 11000

$$$$
