AV-unprocessed.smi:2999|AV-procd|sdf|11421|dock6
  -GOLD-   2272016343D 1   1.00000     0.00000
 Structure written by MMmdl.
 38 40  0  0  0  0  0  0  0  0  2 V2000
  144.8096  137.4528  152.5257 O   0  0  0  0  0  0  0  0  0  0  0  0
  145.9969  137.1761  152.3551 C   0  0  0  0  0  0  0  0  0  0  0  0
  146.9911  138.0566  152.5384 N   0  0  0  0  0  0  0  0  0  0  0  0
  146.8115  139.4460  152.9468 C   0  0  0  0  0  0  0  0  0  0  0  0
  147.7109  139.8199  154.1389 C   0  0  2  0  0  0  0  0  0  0  0  0
  147.6748  141.3355  154.4294 C   0  0  0  0  0  0  0  0  0  0  0  0
  148.6183  141.7039  155.5121 N   0  3  1  0  0  0  0  0  0  0  0  0
  148.1258  141.3582  156.8663 C   0  0  0  0  0  0  0  0  0  0  0  0
  147.2049  142.3990  157.4587 C   0  0  0  0  0  0  0  0  0  0  0  0
  148.6317  142.2846  157.9473 C   0  0  0  0  0  0  0  0  0  0  0  0
  149.9775  141.1845  155.2308 C   0  0  0  0  0  0  0  0  0  0  0  0
  149.9447  139.6799  154.9065 C   0  0  0  0  0  0  0  0  0  0  0  0
  149.0497  139.4465  153.8262 O   0  0  0  0  0  0  0  0  0  0  0  0
  146.4694  135.9803  151.9686 N   0  0  0  0  0  0  0  0  0  0  0  0
  145.7302  134.8014  151.7018 C   0  0  0  0  0  0  0  0  0  0  0  0
  144.4003  134.8774  151.6263 N   0  0  0  0  0  0  0  0  0  0  0  0
  143.8185  133.6358  151.3549 C   0  0  0  0  0  0  0  0  0  0  0  0
  144.7290  132.6169  151.2219 C   0  0  0  0  0  0  0  0  0  0  0  0
  146.3658  133.1758  151.4364 S   0  0  0  0  0  0  0  0  0  0  0  0
  147.9390  137.7466  152.3797 H   0  0  0  0  0  0  0  0  0  0  0  0
  147.0350  140.0862  152.0931 H   0  0  0  0  0  0  0  0  0  0  0  0
  145.7625  139.6169  153.1947 H   0  0  0  0  0  0  0  0  0  0  0  0
  147.3791  139.2717  155.0220 H   0  0  0  0  0  0  0  0  0  0  0  0
  147.9539  141.8875  153.5310 H   0  0  0  0  0  0  0  0  0  0  0  0
  146.6649  141.6559  154.6883 H   0  0  0  0  0  0  0  0  0  0  0  0
  147.9706  140.3027  157.0804 H   0  0  0  0  0  0  0  0  0  0  0  0
  146.9503  143.2682  156.8547 H   0  0  0  0  0  0  0  0  0  0  0  0
  146.4200  142.0520  158.1276 H   0  0  0  0  0  0  0  0  0  0  0  0
  148.7864  141.8626  158.9382 H   0  0  0  0  0  0  0  0  0  0  0  0
  149.3242  143.0758  157.6655 H   0  0  0  0  0  0  0  0  0  0  0  0
  150.3832  141.7293  154.3772 H   0  0  0  0  0  0  0  0  0  0  0  0
  150.6429  141.3851  156.0714 H   0  0  0  0  0  0  0  0  0  0  0  0
  150.9391  139.3390  154.6182 H   0  0  0  0  0  0  0  0  0  0  0  0
  149.6499  139.0908  155.7761 H   0  0  0  0  0  0  0  0  0  0  0  0
  147.4691  135.9017  151.8530 H   0  0  0  0  0  0  0  0  0  0  0  0
  142.7440  133.5672  151.2715 H   0  0  0  0  0  0  0  0  0  0  0  0
  144.5368  131.5753  151.0120 H   0  0  0  0  0  0  0  0  0  0  0  0
  148.6882  142.7117  155.5019 H   0  0  0  0  0  0  0  0  0  0  0  0
  1  2  2  0  0  0  0
  2  3  1  0  0  0  0
  2 14  1  0  0  0  0
  3  4  1  0  0  0  0
  3 20  1  0  0  0  0
  4  5  1  0  0  0  0
  4 21  1  0  0  0  0
  4 22  1  0  0  0  0
  5 13  1  0  0  0  0
  5  6  1  0  0  0  0
  5 23  1  0  0  0  0
  6  7  1  0  0  0  0
  6 24  1  0  0  0  0
  6 25  1  0  0  0  0
  7  8  1  0  0  0  0
  7 11  1  0  0  0  0
  7 38  1  0  0  0  0
  8 10  1  0  0  0  0
  8  9  1  0  0  0  0
  8 26  1  0  0  0  0
  9 10  1  0  0  0  0
  9 27  1  0  0  0  0
  9 28  1  0  0  0  0
 10 29  1  0  0  0  0
 10 30  1  0  0  0  0
 11 12  1  0  0  0  0
 11 31  1  0  0  0  0
 11 32  1  0  0  0  0
 12 13  1  0  0  0  0
 12 33  1  0  0  0  0
 12 34  1  0  0  0  0
 14 15  1  0  0  0  0
 14 35  1  0  0  0  0
 15 19  1  0  0  0  0
 15 16  2  0  0  0  0
 16 17  1  0  0  0  0
 17 18  2  0  0  0  0
 17 36  1  0  0  0  0
 18 19  1  0  0  0  0
 18 37  1  0  0  0  0
M  CHG  1   7   1
M  END
> <s_m_source_file>
AV-unprocessed.smi

> <i_m_source_file_index>
2999

> <i_lp_mmshare_version>
43012

> <i_f3d_flags>
0

> <s_epik_input>
czFbY0hdW2NIXW5jMVtOSF1DKD1PKVtOSF1bQ0gyXVtDQEBIXTJbQ0gyXU4oW0NIMl1bQ0gyXU8yKVtDSF0zW0NIMl1bQ0gyXTM=

> <s_epik_cmdline>
J2VwaWtfcHl0aG9uJywgJy1waCcsICc3LjAnLCAnLXRuJywgJzgnLCAnLW1hJywgJzIwMCcsICctbWV0YWxfYmluZGluZycsICctaW1hZScsICc8aW5maWxlLm1hZT4nLCAnLW9tYWUnLCAnPG91dGZpbGUubWFlPic=

> <r_lp_tautomer_probability>
0.999

> <r_epik_Ionization_Penalty>
1.55235

> <r_epik_Ionization_Penalty_Charging>
1.55221

> <r_epik_Ionization_Penalty_Neutral>
0.000139685

> <r_epik_State_Penalty>
1.64652

> <r_epik_Charging_Adjusted_Penalty>
3.19873

> <i_epik_Tot_Q>
1

> <i_epik_Tot_abs_Q>
1

> <r_epik_Metal_State_Penalty>
1.68612

> <b_epik_Metal_Only>
0

> <s_lp_Force_Field>
OPLS_2005

> <r_lp_Energy>
21.4475

> <b_lp_Chiralities_Consistent>
1

> <s_lp_Variant>
AV-unprocessed.smi:2999-5

> <Gold.Version>
5.8.1

> <Gold.Id.Protein>
6NUR|6NUR_protein|mol2

> <Gold.PLP.Fitness>
41.8982

> <Gold.PLP.PLP>
-27.4585

> <Gold.PLP.part.hbond>
-2.9397

> <Gold.PLP.part.metal>
0.0000

> <Gold.PLP.part.buried>
-6.5745

> <Gold.PLP.part.nonpolar>
-21.7137

> <Gold.PLP.part.repulsive>
3.0849

> <Gold.PLP.ligand.clash>
0.0000

> <Gold.PLP.ligand.torsion>
0.7340

> <Gold.PLP.Chemscore.Hbond>
3.8800

> <Gold.PLP.Chemscore.CHOScore>
0.9991

> <Gold.PLP.Chemscore.Metal>
0.0000

> <Gold.Chemscore.Hbonds>
donor molecule, donor type, donor heavy atom, donor atom, acceptor molecule, acceptor atom, score
      L1  H     3    20       P1  7948  0.86
      L1  H     7    38       P1  8028  2.00
      L1  H    14    35       P1  7948  0.89
      L1  C    17    36       P1 10186  0.87

> <Gold.PLP.Chemscore.Internal.Correction>
1.2702

> <Gold.Rescore>
     Score         DG    S(hbond)    S(metal)    S(lipo)     H(rot)  DE(clash)    DE(int)     intcor
     14.43     -18.03       2.85        0.00      60.39       1.58       1.44       2.15       ----

> <Gold.Chemscore.Fitness>
14.4305

> <Gold.Chemscore.DG>
-18.0270

> <Gold.Chemscore.ZeroCoef>
-5.4800

> <Gold.Chemscore.Hbond>
2.8518

> <Gold.Chemscore.Metal>
0.0000

> <Gold.Chemscore.Lipo>
60.3873

> <Gold.Chemscore.Internal_Hbond>
0.0000

> <Gold.Chemscore.DEClash>
1.4436

> <Gold.Chemscore.DEInternal>
2.1529

> <Gold.Chemscore.Rot>
1.5795

> <Gold.Chemscore.Internal.Correction>
   9.000000E+99

> <Gold.Chemscore.Hbonds>
donor molecule, donor type, donor heavy atom, donor atom, acceptor molecule, acceptor atom, score
      L1  H     3    20       P1  7948  0.85
      L1  H     7    38       P1  8028  0.94
      L1  H    14    35       P1  7948  0.87

> <Gold.Chemscore.Hbond.Weighted>
-9.5252

> <Gold.Chemscore.Metal.Weighted>
-0.0000

> <Gold.Chemscore.Lipo.Weighted>
-7.0653

> <Gold.Chemscore.Internal_Hbond.Weighted>
0.0000

> <Gold.Chemscore.DEClash.Weighted>
1.4436

> <Gold.Chemscore.DEInternal.Weighted>
2.1529

> <Gold.Chemscore.Rot.Weighted>
4.0434

> <Gold.Chemscore.Internal.Correction.Weighted>
   9.000000E+99

> <Gold.Protein.RotatedTorsions>
[ 6907 6896 6895 6894 ] final  -93.83 input  -60.11 | X-H torsion
[ 7974 7965 7964 7962 ] final   86.95 input  175.53 | X-H torsion
[ 8008 7997 7996 7995 ] final -106.88 input   59.86 | X-H torsion
[ 10167 10162 10161 10158 ] final  -26.37 input  -65.29 | X-H torsion
[ 10718 10713 10712 10709 ] final  -58.00 input   66.30 | X-H torsion
[ 10763 10752 10751 10750 ] final   55.57 input  -60.55 | X-H torsion
[ 11005 11000 10999 10996 ] final  129.79 input  -57.11 | X-H torsion

> <Gold.Protein.ActiveResidues>
 VAL166  LYS551  ARG553  GLY616  TRP617  ASP618  TYR619  PRO620  LYS621  CYS622 
 ASP623  PHE694  ASN695  SER759  ASP760  ASP761  ALA762  ILE779  LEU786  VAL792 
 PHE793  MET794  SER795  GLU796  ALA797  LYS798  CYS799  TRP800  GLU811  SER814 

> <Gold.Protein.RotatedAtoms>
  150.6930  134.1906  159.4283 H   0  0  0  0  0  0  0  0  0  0  0  0  # atno 6907 bound_to 6896
  151.9877  134.9993  160.0569 H   0  0  0  0  0  0  0  0  0  0  0  0  # atno 6908 bound_to 6896
  152.1697  133.4600  159.4939 H   0  0  0  0  0  0  0  0  0  0  0  0  # atno 6909 bound_to 6896
  145.5654  139.2308  143.2436 H   0  0  0  0  0  0  0  0  0  0  0  0  # atno 7974 bound_to 7965
  154.9211  140.0407  157.1998 H   0  0  0  0  0  0  0  0  0  0  0  0  # atno 8008 bound_to 7997
  154.8253  140.2890  155.5737 H   0  0  0  0  0  0  0  0  0  0  0  0  # atno 8009 bound_to 7997
  156.2983  140.2511  156.3168 H   0  0  0  0  0  0  0  0  0  0  0  0  # atno 8010 bound_to 7997
  140.7283  143.4184  151.0990 H   0  0  0  0  0  0  0  0  0  0  0  0  # atno 10167 bound_to 10162
  156.1168  130.4170  150.0518 H   0  0  0  0  0  0  0  0  0  0  0  0  # atno 10718 bound_to 10713
  152.9819  135.5706  154.5088 H   0  0  0  0  0  0  0  0  0  0  0  0  # atno 10763 bound_to 10752
  154.4595  135.2781  155.1725 H   0  0  0  0  0  0  0  0  0  0  0  0  # atno 10764 bound_to 10752
  154.3319  135.6247  153.5609 H   0  0  0  0  0  0  0  0  0  0  0  0  # atno 10765 bound_to 10752
  139.9635  134.9596  156.9200 H   0  0  0  0  0  0  0  0  0  0  0  0  # atno 11005 bound_to 11000
  146.1822  140.6480  142.9184 LP  0  0  0  0  0  0  0  0  0  0  0  0  # atno 17320 bound_to 7965
  144.7463  140.5075  143.6833 LP  0  0  0  0  0  0  0  0  0  0  0  0  # atno 17321 bound_to 7965
  139.7827  143.8332  152.3140 LP  0  0  0  0  0  0  0  0  0  0  0  0  # atno 17342 bound_to 10162
  139.8289  144.7263  150.9476 LP  0  0  0  0  0  0  0  0  0  0  0  0  # atno 17343 bound_to 10162
  156.8467  130.9444  151.3628 LP  0  0  0  0  0  0  0  0  0  0  0  0  # atno 17370 bound_to 10713
  157.6351  130.8760  149.9344 LP  0  0  0  0  0  0  0  0  0  0  0  0  # atno 17371 bound_to 10713
  140.5447  134.0685  155.7351 LP  0  0  0  0  0  0  0  0  0  0  0  0  # atno 17394 bound_to 11000
  141.1314  133.9296  157.2527 LP  0  0  0  0  0  0  0  0  0  0  0  0  # atno 17395 bound_to 11000

$$$$
