AV-unprocessed.smi:244|AV-procd|sdf|1866|dock7
  -GOLD-   2262020503D 1   1.00000     0.00000
 Structure written by MMmdl.
 57 61  0  0  0  0  0  0  0  0  2 V2000
  146.3501  131.1752  152.4294 C   0  0  0  0  0  0  0  0  0  0  0  0
  146.4772  131.9954  151.2023 N   0  3  1  0  0  0  0  0  0  0  0  0
  145.3067  131.9014  150.2946 C   0  0  0  0  0  0  0  0  0  0  0  0
  144.1226  132.7410  150.7990 C   0  0  0  0  0  0  0  0  0  0  0  0
  144.5423  134.2110  150.9964 C   0  0  1  0  0  0  0  0  0  0  0  0
  143.4636  135.0300  151.4492 O   0  0  0  0  0  0  0  0  0  0  0  0
  143.0712  134.8005  152.7994 C   0  0  0  0  0  0  0  0  0  0  0  0
  144.2709  135.0090  153.7315 C   0  0  0  0  0  0  0  0  0  0  0  0
  145.3884  134.1637  153.3277 N   0  0  0  0  0  0  0  0  0  0  0  0
  146.3688  134.2041  154.2606 C   0  0  0  0  0  0  0  0  0  0  0  0
  146.7325  133.0773  154.9285 N   0  0  0  0  0  0  0  0  0  0  0  0
  147.7030  133.1290  155.8461 C   0  0  0  0  0  0  0  0  0  0  0  0
  148.4229  134.1816  156.2409 N   0  0  0  0  0  0  0  0  0  0  0  0
  148.0652  135.3107  155.5646 C   0  0  0  0  0  0  0  0  0  0  0  0
  147.0620  135.4057  154.5611 C   0  0  0  0  0  0  0  0  0  0  0  0
  146.9759  136.7093  154.0913 N   0  0  0  0  0  0  0  0  0  0  0  0
  147.8765  137.3528  154.7831 C   0  0  0  0  0  0  0  0  0  0  0  0
  148.5676  136.5931  155.7009 N   0  0  0  0  0  0  0  0  0  0  0  0
  149.6099  137.0570  156.6045 C   0  0  0  0  0  0  0  0  0  0  0  0
  150.9853  137.2832  155.9189 C   0  0  0  0  0  0  0  0  0  0  0  0
  151.7471  136.1016  156.0886 O   0  0  0  0  0  0  0  0  0  0  0  0
  150.8951  137.5626  154.4031 C   0  0  0  0  0  0  0  0  0  0  0  0
  150.3633  138.9796  154.1240 C   0  0  0  0  0  0  0  0  0  0  0  0
  151.1908  139.9421  154.7681 O   0  0  0  0  0  0  0  0  0  0  0  0
  151.2023  139.8088  156.1853 C   0  0  0  0  0  0  0  0  0  0  0  0
  151.7702  138.4335  156.5803 C   0  0  0  0  0  0  0  0  0  0  0  0
  145.7751  134.3452  151.9226 C   0  0  1  0  0  0  0  0  0  0  0  0
  146.9126  133.3980  151.4412 C   0  0  0  0  0  0  0  0  0  0  0  0
  145.4966  131.4749  153.0358 H   0  0  0  0  0  0  0  0  0  0  0  0
  147.2484  131.2543  153.0428 H   0  0  0  0  0  0  0  0  0  0  0  0
  146.2201  130.1247  152.1693 H   0  0  0  0  0  0  0  0  0  0  0  0
  145.6075  132.2540  149.3071 H   0  0  0  0  0  0  0  0  0  0  0  0
  145.0124  130.8585  150.1716 H   0  0  0  0  0  0  0  0  0  0  0  0
  143.3021  132.6860  150.0835 H   0  0  0  0  0  0  0  0  0  0  0  0
  143.7478  132.3085  151.7253 H   0  0  0  0  0  0  0  0  0  0  0  0
  144.8202  134.5997  150.0158 H   0  0  0  0  0  0  0  0  0  0  0  0
  142.2782  135.5033  153.0553 H   0  0  0  0  0  0  0  0  0  0  0  0
  142.6486  133.8038  152.9222 H   0  0  0  0  0  0  0  0  0  0  0  0
  144.5816  136.0546  153.7057 H   0  0  0  0  0  0  0  0  0  0  0  0
  143.9778  134.7875  154.7588 H   0  0  0  0  0  0  0  0  0  0  0  0
  147.9349  132.1942  156.3352 H   0  0  0  0  0  0  0  0  0  0  0  0
  148.0579  138.4098  154.6494 H   0  0  0  0  0  0  0  0  0  0  0  0
  149.2580  137.9713  157.0817 H   0  0  0  0  0  0  0  0  0  0  0  0
  149.7088  136.3232  157.4058 H   0  0  0  0  0  0  0  0  0  0  0  0
  151.1533  135.3758  156.2061 H   0  0  0  0  0  0  0  0  0  0  0  0
  151.8881  137.4819  153.9583 H   0  0  0  0  0  0  0  0  0  0  0  0
  150.2814  136.8189  153.8951 H   0  0  0  0  0  0  0  0  0  0  0  0
  150.3706  139.1738  153.0516 H   0  0  0  0  0  0  0  0  0  0  0  0
  149.3314  139.0924  154.4570 H   0  0  0  0  0  0  0  0  0  0  0  0
  151.8236  140.6002  156.6047 H   0  0  0  0  0  0  0  0  0  0  0  0
  150.1985  139.9557  156.5846 H   0  0  0  0  0  0  0  0  0  0  0  0
  151.7747  138.3243  157.6655 H   0  0  0  0  0  0  0  0  0  0  0  0
  152.8144  138.3946  156.2656 H   0  0  0  0  0  0  0  0  0  0  0  0
  146.1378  135.3702  151.8316 H   0  0  0  0  0  0  0  0  0  0  0  0
  147.7776  133.4115  152.1039 H   0  0  0  0  0  0  0  0  0  0  0  0
  147.2817  133.7766  150.4874 H   0  0  0  0  0  0  0  0  0  0  0  0
  147.2406  131.5674  150.6978 H   0  0  0  0  0  0  0  0  0  0  0  0
  1  2  1  0  0  0  0
  1 29  1  0  0  0  0
  1 30  1  0  0  0  0
  1 31  1  0  0  0  0
  2 28  1  0  0  0  0
  2  3  1  0  0  0  0
  2 57  1  0  0  0  0
  3  4  1  0  0  0  0
  3 32  1  0  0  0  0
  3 33  1  0  0  0  0
  4  5  1  0  0  0  0
  4 34  1  0  0  0  0
  4 35  1  0  0  0  0
  5 27  1  0  0  0  0
  5  6  1  0  0  0  0
  5 36  1  0  0  0  0
  6  7  1  0  0  0  0
  7  8  1  0  0  0  0
  7 37  1  0  0  0  0
  7 38  1  0  0  0  0
  8  9  1  0  0  0  0
  8 39  1  0  0  0  0
  8 40  1  0  0  0  0
  9 10  1  0  0  0  0
  9 27  1  0  0  0  0
 10 15  1  0  0  0  0
 10 11  2  0  0  0  0
 11 12  1  0  0  0  0
 12 13  2  0  0  0  0
 12 41  1  0  0  0  0
 13 14  1  0  0  0  0
 14 18  1  0  0  0  0
 14 15  2  0  0  0  0
 15 16  1  0  0  0  0
 16 17  2  0  0  0  0
 17 18  1  0  0  0  0
 17 42  1  0  0  0  0
 18 19  1  0  0  0  0
 19 20  1  0  0  0  0
 19 43  1  0  0  0  0
 19 44  1  0  0  0  0
 20 26  1  0  0  0  0
 20 21  1  0  0  0  0
 20 22  1  0  0  0  0
 21 45  1  0  0  0  0
 22 23  1  0  0  0  0
 22 46  1  0  0  0  0
 22 47  1  0  0  0  0
 23 24  1  0  0  0  0
 23 48  1  0  0  0  0
 23 49  1  0  0  0  0
 24 25  1  0  0  0  0
 25 26  1  0  0  0  0
 25 50  1  0  0  0  0
 25 51  1  0  0  0  0
 26 52  1  0  0  0  0
 26 53  1  0  0  0  0
 27 28  1  0  0  0  0
 27 54  1  0  0  0  0
 28 55  1  0  0  0  0
 28 56  1  0  0  0  0
M  CHG  1   2   1
M  END
> <s_m_source_file>
AV-unprocessed.smi

> <i_m_source_file_index>
244

> <i_lp_mmshare_version>
43012

> <i_f3d_flags>
0

> <s_epik_input>
W0NIMl0xW0NIMl1OKFtDSDNdKVtDSDJdW0NAQEhdKFtDQEhdMTIpTihbQ0gyXVtDSDJdTzIpYyhuW2NIXW4zKWMoYzM0KW5bY0hdbjRbQ0gyXUM1KFtPSF0pW0NIMl1bQ0gyXU9bQ0gyXVtDSDJdNQ==

> <s_epik_cmdline>
J2VwaWtfcHl0aG9uJywgJy1waCcsICc3LjAnLCAnLXRuJywgJzgnLCAnLW1hJywgJzIwMCcsICctbWV0YWxfYmluZGluZycsICctaW1hZScsICc8aW5maWxlLm1hZT4nLCAnLW9tYWUnLCAnPG91dGZpbGUubWFlPic=

> <r_lp_tautomer_probability>
1

> <r_epik_Ionization_Penalty>
0.0136215

> <r_epik_Ionization_Penalty_Charging>
0.0131385

> <r_epik_Ionization_Penalty_Neutral>
0.000483022

> <r_epik_State_Penalty>
0.0104001

> <r_epik_Charging_Adjusted_Penalty>
0.0235387

> <i_epik_Tot_Q>
1

> <i_epik_Tot_abs_Q>
1

> <r_epik_Metal_State_Penalty>
0.0104469

> <b_epik_Metal_Only>
0

> <s_lp_Force_Field>
OPLS_2005

> <r_lp_Energy>
49.6468

> <b_lp_Chiralities_Consistent>
1

> <s_lp_Variant>
AV-unprocessed.smi:244-3

> <Gold.Version>
5.8.1

> <Gold.Id.Protein>
6NUR|6NUR_protein|mol2

> <Gold.PLP.Fitness>
40.4300

> <Gold.PLP.PLP>
-33.2674

> <Gold.PLP.part.hbond>
-3.0000

> <Gold.PLP.part.metal>
0.0000

> <Gold.PLP.part.buried>
-6.4786

> <Gold.PLP.part.nonpolar>
-24.7360

> <Gold.PLP.part.repulsive>
1.5228

> <Gold.PLP.ligand.clash>
0.0000

> <Gold.PLP.ligand.torsion>
0.9944

> <Gold.PLP.Chemscore.Hbond>
3.0000

> <Gold.PLP.Chemscore.CHOScore>
0.0000

> <Gold.PLP.Chemscore.Metal>
0.0000

> <Gold.Chemscore.Hbonds>
donor molecule, donor type, donor heavy atom, donor atom, acceptor molecule, acceptor atom, score
      L1  H     2    57       P1 10747  1.00
      P1  H  7989  7998       L1    24  1.00
      P1  H 10752 10765       L1    21  1.00

> <Gold.PLP.Chemscore.Internal.Correction>
0.1514

> <Gold.Rescore>
     Score         DG    S(hbond)    S(metal)    S(lipo)     H(rot)  DE(clash)    DE(int)     intcor
     17.19     -18.65       2.62        0.00      83.63       2.09       0.33       1.13       ----

> <Gold.Chemscore.Fitness>
17.1887

> <Gold.Chemscore.DG>
-18.6520

> <Gold.Chemscore.ZeroCoef>
-5.4800

> <Gold.Chemscore.Hbond>
2.6170

> <Gold.Chemscore.Metal>
0.0000

> <Gold.Chemscore.Lipo>
83.6263

> <Gold.Chemscore.Internal_Hbond>
0.0000

> <Gold.Chemscore.DEClash>
0.3333

> <Gold.Chemscore.DEInternal>
1.1300

> <Gold.Chemscore.Rot>
2.0911

> <Gold.Chemscore.Internal.Correction>
   9.000000E+99

> <Gold.Chemscore.Hbonds>
donor molecule, donor type, donor heavy atom, donor atom, acceptor molecule, acceptor atom, score
      L1  H     2    57       P1 10747  0.99
      P1  H  7989  7998       L1    24  0.30
      P1  H 10752 10765       L1    21  0.60

> <Gold.Chemscore.Hbond.Weighted>
-8.7409

> <Gold.Chemscore.Metal.Weighted>
-0.0000

> <Gold.Chemscore.Lipo.Weighted>
-9.7843

> <Gold.Chemscore.Internal_Hbond.Weighted>
0.0000

> <Gold.Chemscore.DEClash.Weighted>
0.3333

> <Gold.Chemscore.DEInternal.Weighted>
1.1300

> <Gold.Chemscore.Rot.Weighted>
5.3531

> <Gold.Chemscore.Internal.Correction.Weighted>
   9.000000E+99

> <Gold.Protein.RotatedTorsions>
[ 6907 6896 6895 6894 ] final  -81.76 input  -60.11 | X-H torsion
[ 7974 7965 7964 7962 ] final  144.26 input  175.53 | X-H torsion
[ 8008 7997 7996 7995 ] final   11.48 input   59.86 | X-H torsion
[ 10167 10162 10161 10158 ] final -100.83 input  -65.29 | X-H torsion
[ 10718 10713 10712 10709 ] final  -66.82 input   66.30 | X-H torsion
[ 10763 10752 10751 10750 ] final -147.69 input  -60.55 | X-H torsion
[ 11005 11000 10999 10996 ] final  -64.88 input  -57.11 | X-H torsion

> <Gold.Protein.ActiveResidues>
 VAL166  LYS551  ARG553  GLY616  TRP617  ASP618  TYR619  PRO620  LYS621  CYS622 
 ASP623  PHE694  ASN695  SER759  ASP760  ASP761  ALA762  ILE779  LEU786  VAL792 
 PHE793  MET794  SER795  GLU796  ALA797  LYS798  CYS799  TRP800  GLU811  SER814 

> <Gold.Protein.RotatedAtoms>
  150.6907  134.3769  159.5016 H   0  0  0  0  0  0  0  0  0  0  0  0  # atno 6907 bound_to 6896
  152.1577  134.8935  160.0553 H   0  0  0  0  0  0  0  0  0  0  0  0  # atno 6908 bound_to 6896
  152.0009  133.3790  159.4218 H   0  0  0  0  0  0  0  0  0  0  0  0  # atno 6909 bound_to 6896
  144.8851  139.5641  143.5824 H   0  0  0  0  0  0  0  0  0  0  0  0  # atno 7974 bound_to 7965
  154.8075  140.2862  155.5877 H   0  0  0  0  0  0  0  0  0  0  0  0  # atno 8008 bound_to 7997
  156.2984  140.2574  156.2885 H   0  0  0  0  0  0  0  0  0  0  0  0  # atno 8009 bound_to 7997
  154.9486  140.0380  157.2122 H   0  0  0  0  0  0  0  0  0  0  0  0  # atno 8010 bound_to 7997
  140.2478  143.3494  152.0743 H   0  0  0  0  0  0  0  0  0  0  0  0  # atno 10167 bound_to 10162
  156.0591  130.4268  150.1764 H   0  0  0  0  0  0  0  0  0  0  0  0  # atno 10718 bound_to 10713
  154.8273  135.3354  154.6857 H   0  0  0  0  0  0  0  0  0  0  0  0  # atno 10763 bound_to 10752
  153.7481  135.6941  153.4956 H   0  0  0  0  0  0  0  0  0  0  0  0  # atno 10764 bound_to 10752
  153.2196  135.4453  155.0424 H   0  0  0  0  0  0  0  0  0  0  0  0  # atno 10765 bound_to 10752
  141.1438  133.6672  156.5900 H   0  0  0  0  0  0  0  0  0  0  0  0  # atno 11005 bound_to 11000
  146.3019  139.7455  142.9085 LP  0  0  0  0  0  0  0  0  0  0  0  0  # atno 17320 bound_to 7965
  145.3883  141.0369  143.3138 LP  0  0  0  0  0  0  0  0  0  0  0  0  # atno 17321 bound_to 7965
  139.5056  144.6798  151.6037 LP  0  0  0  0  0  0  0  0  0  0  0  0  # atno 17342 bound_to 10162
  140.6064  143.9516  150.6422 LP  0  0  0  0  0  0  0  0  0  0  0  0  # atno 17343 bound_to 10162
  156.9835  130.9871  151.3431 LP  0  0  0  0  0  0  0  0  0  0  0  0  # atno 17370 bound_to 10713
  157.5586  130.8230  149.8236 LP  0  0  0  0  0  0  0  0  0  0  0  0  # atno 17371 bound_to 10713
  140.3770  134.7556  157.4636 LP  0  0  0  0  0  0  0  0  0  0  0  0  # atno 17394 bound_to 11000
  140.0666  134.5920  155.8688 LP  0  0  0  0  0  0  0  0  0  0  0  0  # atno 17395 bound_to 11000

$$$$
