AV-unprocessed.smi:1972|AV-procd|sdf|7974|dock6
  -GOLD-   2272010153D 1   1.00000     0.00000
 Structure written by MMmdl.
 44 45  0  0  0  0  0  0  0  0  1 V2000
  148.7702  131.7807  153.5947 C   0  0  0  0  0  0  0  0  0  0  0  0
  149.9632  132.4237  154.7966 S   0  0  0  0  0  0  0  0  0  0  0  0
  149.7367  134.2048  154.5215 C   0  0  0  0  0  0  0  0  0  0  0  0
  150.6012  135.0587  155.4671 C   0  0  0  0  0  0  0  0  0  0  0  0
  150.3100  136.5607  155.3762 C   0  0  0  0  0  0  0  0  0  0  0  0
  149.8501  137.1665  156.3444 O   0  0  0  0  0  0  0  0  0  0  0  0
  150.5725  137.1461  154.1972 N   0  0  0  0  0  0  0  0  0  0  0  0
  150.3851  138.5615  153.8889 C   0  0  0  0  0  0  0  0  0  0  0  0
  150.7884  139.5094  155.0103 C   0  0  0  0  0  0  0  0  0  0  0  0
  149.9974  140.6397  155.2959 C   0  0  0  0  0  0  0  0  0  0  0  0
  150.3907  141.5109  156.3295 C   0  0  0  0  0  0  0  0  0  0  0  0
  151.5769  141.2362  157.0510 C   0  0  0  0  0  0  0  0  0  0  0  0
  151.9936  142.0950  158.0923 N   0  0  0  0  0  0  0  0  0  0  0  0
  151.2413  143.3301  158.3061 C   0  0  0  0  0  0  0  0  0  0  0  0
  152.0030  144.2636  159.2612 C   0  0  0  0  0  0  0  0  0  0  0  0
  152.2964  143.5755  160.4726 O   0  0  0  0  0  0  0  0  0  0  0  0
  153.1280  142.4391  160.2557 C   0  0  1  0  0  0  0  0  0  0  0  0
  153.4667  141.8235  161.6172 C   0  0  0  0  0  0  0  0  0  0  0  0
  152.3965  141.4422  159.3358 C   0  0  0  0  0  0  0  0  0  0  0  0
  152.3371  140.1484  156.7726 N   0  0  0  0  0  0  0  0  0  0  0  0
  151.9552  139.3163  155.7810 C   0  0  0  0  0  0  0  0  0  0  0  0
  148.7642  130.6910  153.6160 H   0  0  0  0  0  0  0  0  0  0  0  0
  149.0312  132.1060  152.5876 H   0  0  0  0  0  0  0  0  0  0  0  0
  147.7664  132.1369  153.8275 H   0  0  0  0  0  0  0  0  0  0  0  0
  150.0080  134.4239  153.4886 H   0  0  0  0  0  0  0  0  0  0  0  0
  148.6796  134.4541  154.6227 H   0  0  0  0  0  0  0  0  0  0  0  0
  150.4807  134.7112  156.4944 H   0  0  0  0  0  0  0  0  0  0  0  0
  151.6528  134.9158  155.2169 H   0  0  0  0  0  0  0  0  0  0  0  0
  150.9445  136.5675  153.4577 H   0  0  0  0  0  0  0  0  0  0  0  0
  150.9260  138.8400  152.9833 H   0  0  0  0  0  0  0  0  0  0  0  0
  149.3280  138.7076  153.6654 H   0  0  0  0  0  0  0  0  0  0  0  0
  149.0954  140.8369  154.7354 H   0  0  0  0  0  0  0  0  0  0  0  0
  149.7731  142.3650  156.5629 H   0  0  0  0  0  0  0  0  0  0  0  0
  151.0767  143.8428  157.3575 H   0  0  0  0  0  0  0  0  0  0  0  0
  150.2622  143.0882  158.7221 H   0  0  0  0  0  0  0  0  0  0  0  0
  152.9252  144.6227  158.8011 H   0  0  0  0  0  0  0  0  0  0  0  0
  151.3986  145.1417  159.4883 H   0  0  0  0  0  0  0  0  0  0  0  0
  154.0568  142.7618  159.7814 H   0  0  0  0  0  0  0  0  0  0  0  0
  154.1152  140.9544  161.5042 H   0  0  0  0  0  0  0  0  0  0  0  0
  152.5655  141.5035  162.1411 H   0  0  0  0  0  0  0  0  0  0  0  0
  153.9838  142.5434  162.2521 H   0  0  0  0  0  0  0  0  0  0  0  0
  151.5048  141.0575  159.8325 H   0  0  0  0  0  0  0  0  0  0  0  0
  153.0479  140.5894  159.1511 H   0  0  0  0  0  0  0  0  0  0  0  0
  152.6097  138.4765  155.6032 H   0  0  0  0  0  0  0  0  0  0  0  0
  1  2  1  0  0  0  0
  1 22  1  0  0  0  0
  1 23  1  0  0  0  0
  1 24  1  0  0  0  0
  2  3  1  0  0  0  0
  3  4  1  0  0  0  0
  3 25  1  0  0  0  0
  3 26  1  0  0  0  0
  4  5  1  0  0  0  0
  4 27  1  0  0  0  0
  4 28  1  0  0  0  0
  5  6  2  0  0  0  0
  5  7  1  0  0  0  0
  7  8  1  0  0  0  0
  7 29  1  0  0  0  0
  8  9  1  0  0  0  0
  8 30  1  0  0  0  0
  8 31  1  0  0  0  0
  9 21  1  0  0  0  0
  9 10  2  0  0  0  0
 10 11  1  0  0  0  0
 10 32  1  0  0  0  0
 11 12  2  0  0  0  0
 11 33  1  0  0  0  0
 12 13  1  0  0  0  0
 12 20  1  0  0  0  0
 13 19  1  0  0  0  0
 13 14  1  0  0  0  0
 14 15  1  0  0  0  0
 14 34  1  0  0  0  0
 14 35  1  0  0  0  0
 15 16  1  0  0  0  0
 15 36  1  0  0  0  0
 15 37  1  0  0  0  0
 16 17  1  0  0  0  0
 17 18  1  0  0  0  0
 17 19  1  0  0  0  0
 17 38  1  0  0  0  0
 18 39  1  0  0  0  0
 18 40  1  0  0  0  0
 18 41  1  0  0  0  0
 19 42  1  0  0  0  0
 19 43  1  0  0  0  0
 20 21  2  0  0  0  0
 21 44  1  0  0  0  0
M  END
> <s_m_source_file>
AV-unprocessed.smi

> <i_m_source_file_index>
1972

> <i_lp_mmshare_version>
43012

> <i_f3d_flags>
0

> <s_epik_input>
W0NIM11TW0NIMl1bQ0gyXUMoPU8pW05IXVtDSDJdYzFbY0hdW2NIXWMobltjSF0xKU4yW0NIMl1bQ0gyXU9bQ0BASF0oW0NIM10pW0NIMl0y

> <s_epik_cmdline>
J2VwaWtfcHl0aG9uJywgJy1waCcsICc3LjAnLCAnLXRuJywgJzgnLCAnLW1hJywgJzIwMCcsICctbWV0YWxfYmluZGluZycsICctaW1hZScsICc8aW5maWxlLm1hZT4nLCAnLW9tYWUnLCAnPG91dGZpbGUubWFlPic=

> <r_lp_tautomer_probability>
1

> <r_epik_Ionization_Penalty>
0.00559088

> <r_epik_Ionization_Penalty_Charging>
0

> <r_epik_Ionization_Penalty_Neutral>
0.00559088

> <r_epik_State_Penalty>
0.00409544

> <r_epik_Charging_Adjusted_Penalty>
0.00409544

> <i_epik_Tot_Q>
0

> <i_epik_Tot_abs_Q>
0

> <r_epik_Metal_State_Penalty>
-0

> <b_epik_Metal_Only>
0

> <s_lp_Force_Field>
OPLS_2005

> <r_lp_Energy>
17.6906

> <b_lp_Chiralities_Consistent>
1

> <s_lp_Variant>
AV-unprocessed.smi:1972-1

> <Gold.Version>
5.8.1

> <Gold.Id.Protein>
6NUR|6NUR_protein|mol2

> <Gold.PLP.Fitness>
50.1609

> <Gold.PLP.PLP>
-44.9549

> <Gold.PLP.part.hbond>
-3.0000

> <Gold.PLP.part.metal>
0.0000

> <Gold.PLP.part.buried>
-2.7215

> <Gold.PLP.part.nonpolar>
-38.1023

> <Gold.PLP.part.repulsive>
0.1581

> <Gold.PLP.ligand.clash>
0.0000

> <Gold.PLP.ligand.torsion>
0.6178

> <Gold.PLP.Chemscore.Hbond>
2.0000

> <Gold.PLP.Chemscore.CHOScore>
0.0000

> <Gold.PLP.Chemscore.Metal>
0.0000

> <Gold.Chemscore.Hbonds>
donor molecule, donor type, donor heavy atom, donor atom, acceptor molecule, acceptor atom, score
      L1  H     7    29       P1  7949  0.83
      P1  H  7997  8009       L1    20  0.99

> <Gold.PLP.Chemscore.Internal.Correction>
0.4417

> <Gold.Rescore>
     Score         DG    S(hbond)    S(metal)    S(lipo)     H(rot)  DE(clash)    DE(int)     intcor
     15.45     -17.51       0.91        0.00     115.06       1.75       0.31       1.75       ----

> <Gold.Chemscore.Fitness>
15.4496

> <Gold.Chemscore.DG>
-17.5142

> <Gold.Chemscore.ZeroCoef>
-5.4800

> <Gold.Chemscore.Hbond>
0.9106

> <Gold.Chemscore.Metal>
0.0000

> <Gold.Chemscore.Lipo>
115.0640

> <Gold.Chemscore.Internal_Hbond>
0.0000

> <Gold.Chemscore.DEClash>
0.3139

> <Gold.Chemscore.DEInternal>
1.7507

> <Gold.Chemscore.Rot>
1.7460

> <Gold.Chemscore.Internal.Correction>
   9.000000E+99

> <Gold.Chemscore.Hbonds>
donor molecule, donor type, donor heavy atom, donor atom, acceptor molecule, acceptor atom, score
      L1  H     7    29       P1  7949  0.15
      P1  H  7997  8009       L1    20  0.31

> <Gold.Chemscore.Hbond.Weighted>
-3.0414

> <Gold.Chemscore.Metal.Weighted>
-0.0000

> <Gold.Chemscore.Lipo.Weighted>
-13.4625

> <Gold.Chemscore.Internal_Hbond.Weighted>
0.0000

> <Gold.Chemscore.DEClash.Weighted>
0.3139

> <Gold.Chemscore.DEInternal.Weighted>
1.7507

> <Gold.Chemscore.Rot.Weighted>
4.4697

> <Gold.Chemscore.Internal.Correction.Weighted>
   9.000000E+99

> <Gold.Protein.RotatedTorsions>
[ 6907 6896 6895 6894 ] final   88.26 input  -60.11 | X-H torsion
[ 7974 7965 7964 7962 ] final  -85.81 input  175.53 | X-H torsion
[ 8008 7997 7996 7995 ] final -178.55 input   59.86 | X-H torsion
[ 10167 10162 10161 10158 ] final   39.48 input  -65.29 | X-H torsion
[ 10718 10713 10712 10709 ] final   61.32 input   66.30 | X-H torsion
[ 10763 10752 10751 10750 ] final  146.81 input  -60.55 | X-H torsion
[ 11005 11000 10999 10996 ] final  -74.28 input  -57.11 | X-H torsion

> <Gold.Protein.ActiveResidues>
 VAL166  LYS551  ARG553  GLY616  TRP617  ASP618  TYR619  PRO620  LYS621  CYS622 
 ASP623  PHE694  ASN695  SER759  ASP760  ASP761  ALA762  ILE779  LEU786  VAL792 
 PHE793  MET794  SER795  GLU796  ALA797  LYS798  CYS799  TRP800  GLU811  SER814 

> <Gold.Protein.RotatedAtoms>
  152.5422  134.2149  159.8764 H   0  0  0  0  0  0  0  0  0  0  0  0  # atno 6907 bound_to 6896
  151.2130  133.4538  159.2606 H   0  0  0  0  0  0  0  0  0  0  0  0  # atno 6908 bound_to 6896
  151.0879  134.9911  159.8444 H   0  0  0  0  0  0  0  0  0  0  0  0  # atno 6909 bound_to 6896
  145.4882  140.9554  143.1826 H   0  0  0  0  0  0  0  0  0  0  0  0  # atno 7974 bound_to 7965
  156.0201  140.1259  157.0366 H   0  0  0  0  0  0  0  0  0  0  0  0  # atno 8008 bound_to 7997
  154.4308  140.1070  156.6021 H   0  0  0  0  0  0  0  0  0  0  0  0  # atno 8009 bound_to 7997
  155.5957  140.3470  155.4581 H   0  0  0  0  0  0  0  0  0  0  0  0  # atno 8010 bound_to 7997
  140.3835  144.1948  150.6130 H   0  0  0  0  0  0  0  0  0  0  0  0  # atno 10167 bound_to 10162
  157.5819  130.8988  149.9446 H   0  0  0  0  0  0  0  0  0  0  0  0  # atno 10718 bound_to 10713
  154.0281  135.2900  155.3372 H   0  0  0  0  0  0  0  0  0  0  0  0  # atno 10763 bound_to 10752
  154.7005  135.5190  153.8523 H   0  0  0  0  0  0  0  0  0  0  0  0  # atno 10764 bound_to 10752
  153.0652  135.6628  154.0496 H   0  0  0  0  0  0  0  0  0  0  0  0  # atno 10765 bound_to 10752
  141.1633  133.6906  156.7341 H   0  0  0  0  0  0  0  0  0  0  0  0  # atno 11005 bound_to 11000
  144.7849  139.6448  143.7138 LP  0  0  0  0  0  0  0  0  0  0  0  0  # atno 17320 bound_to 7965
  146.2300  139.5795  142.9561 LP  0  0  0  0  0  0  0  0  0  0  0  0  # atno 17321 bound_to 7965
  140.4913  143.2346  151.8814 LP  0  0  0  0  0  0  0  0  0  0  0  0  # atno 17342 bound_to 10162
  139.4793  144.5163  151.8864 LP  0  0  0  0  0  0  0  0  0  0  0  0  # atno 17343 bound_to 10162
  156.0865  130.3667  150.0477 LP  0  0  0  0  0  0  0  0  0  0  0  0  # atno 17370 bound_to 10713
  156.8614  130.9493  151.3617 LP  0  0  0  0  0  0  0  0  0  0  0  0  # atno 17371 bound_to 10713
  140.2723  134.8382  157.3858 LP  0  0  0  0  0  0  0  0  0  0  0  0  # atno 17394 bound_to 11000
  140.1510  134.4850  155.7961 LP  0  0  0  0  0  0  0  0  0  0  0  0  # atno 17395 bound_to 11000

$$$$
