AV-unprocessed.smi:1019|AV-procd|sdf|4449|dock8
  -GOLD-   22720 2413D 1   1.00000     0.00000
 Structure written by MMmdl.
 45 47  0  0  0  0  0  0  0  0  3 V2000
  149.1212  141.8591  157.4730 C   0  0  0  0  0  0  0  0  0  0  0  0
  150.1958  142.1763  156.5043 N   0  3  1  0  0  0  0  0  0  0  0  0
  151.5439  142.0211  157.1054 C   0  0  0  0  0  0  0  0  0  0  0  0
  151.7416  142.9462  158.2940 C   0  0  0  0  0  0  0  0  0  0  0  0
  151.6792  144.3444  158.1155 C   0  0  0  0  0  0  0  0  0  0  0  0
  151.8731  145.2071  159.2116 C   0  0  0  0  0  0  0  0  0  0  0  0
  152.1265  144.6756  160.4906 C   0  0  0  0  0  0  0  0  0  0  0  0
  152.1848  143.2807  160.6741 C   0  0  0  0  0  0  0  0  0  0  0  0
  151.9914  142.4172  159.5784 C   0  0  0  0  0  0  0  0  0  0  0  0
  150.0346  141.4561  155.2130 C   0  0  0  0  0  0  0  0  0  0  0  0
  148.5534  141.2496  154.8408 C   0  0  1  0  0  0  0  0  0  0  0  0
  148.3933  141.4674  153.4510 O   0  0  0  0  0  0  0  0  0  0  0  0
  148.0775  139.8227  155.1791 C   0  0  0  0  0  0  0  0  0  0  0  0
  149.1082  138.8035  154.9396 N   0  0  0  0  0  0  0  0  0  0  0  0
  149.5281  138.2420  153.7729 C   0  0  0  0  0  0  0  0  0  0  0  0
  150.5047  137.3430  154.0775 N   0  3  0  0  0  0  0  0  0  0  0  0
  150.7134  137.3306  155.4582 C   0  0  0  0  0  0  0  0  0  0  0  0
  151.5930  136.5893  156.2411 C   0  0  0  0  0  0  0  0  0  0  0  0
  151.5500  136.8191  157.6319 C   0  0  0  0  0  0  0  0  0  0  0  0
  150.6587  137.7561  158.1948 C   0  0  0  0  0  0  0  0  0  0  0  0
  149.7710  138.5024  157.3917 C   0  0  0  0  0  0  0  0  0  0  0  0
  149.8197  138.2681  156.0181 C   0  0  0  0  0  0  0  0  0  0  0  0
  149.1694  140.8139  157.7817 H   0  0  0  0  0  0  0  0  0  0  0  0
  148.1353  142.0430  157.0468 H   0  0  0  0  0  0  0  0  0  0  0  0
  149.2105  142.4811  158.3644 H   0  0  0  0  0  0  0  0  0  0  0  0
  151.6758  140.9985  157.4626 H   0  0  0  0  0  0  0  0  0  0  0  0
  152.3132  142.1891  156.3500 H   0  0  0  0  0  0  0  0  0  0  0  0
  151.4865  144.7599  157.1371 H   0  0  0  0  0  0  0  0  0  0  0  0
  151.8272  146.2772  159.0719 H   0  0  0  0  0  0  0  0  0  0  0  0
  152.2749  145.3379  161.3309 H   0  0  0  0  0  0  0  0  0  0  0  0
  152.3786  142.8730  161.6555 H   0  0  0  0  0  0  0  0  0  0  0  0
  152.0398  141.3483  159.7279 H   0  0  0  0  0  0  0  0  0  0  0  0
  150.5185  141.9979  154.4002 H   0  0  0  0  0  0  0  0  0  0  0  0
  150.5516  140.4970  155.2734 H   0  0  0  0  0  0  0  0  0  0  0  0
  147.9257  141.9647  155.3723 H   0  0  0  0  0  0  0  0  0  0  0  0
  147.5638  141.1088  153.1748 H   0  0  0  0  0  0  0  0  0  0  0  0
  147.7939  139.7574  156.2307 H   0  0  0  0  0  0  0  0  0  0  0  0
  147.1899  139.5581  154.6031 H   0  0  0  0  0  0  0  0  0  0  0  0
  149.1516  138.4652  152.7849 H   0  0  0  0  0  0  0  0  0  0  0  0
  152.2774  135.8717  155.8129 H   0  0  0  0  0  0  0  0  0  0  0  0
  152.2144  136.2659  158.2799 H   0  0  0  0  0  0  0  0  0  0  0  0
  150.6566  137.9052  159.2649 H   0  0  0  0  0  0  0  0  0  0  0  0
  149.0927  139.2177  157.8323 H   0  0  0  0  0  0  0  0  0  0  0  0
  150.1100  143.1603  156.2945 H   0  0  0  0  0  0  0  0  0  0  0  0
  150.9908  136.7802  153.3910 H   0  0  0  0  0  0  0  0  0  0  0  0
  1  2  1  0  0  0  0
  1 23  1  0  0  0  0
  1 24  1  0  0  0  0
  1 25  1  0  0  0  0
  2  3  1  0  0  0  0
  2 10  1  0  0  0  0
  2 44  1  0  0  0  0
  3  4  1  0  0  0  0
  3 26  1  0  0  0  0
  3 27  1  0  0  0  0
  4  9  1  0  0  0  0
  4  5  2  0  0  0  0
  5  6  1  0  0  0  0
  5 28  1  0  0  0  0
  6  7  2  0  0  0  0
  6 29  1  0  0  0  0
  7  8  1  0  0  0  0
  7 30  1  0  0  0  0
  8  9  2  0  0  0  0
  8 31  1  0  0  0  0
  9 32  1  0  0  0  0
 10 11  1  0  0  0  0
 10 33  1  0  0  0  0
 10 34  1  0  0  0  0
 11 12  1  0  0  0  0
 11 13  1  0  0  0  0
 11 35  1  0  0  0  0
 12 36  1  0  0  0  0
 13 14  1  0  0  0  0
 13 37  1  0  0  0  0
 13 38  1  0  0  0  0
 14 22  1  0  0  0  0
 14 15  1  0  0  0  0
 15 16  2  0  0  0  0
 15 39  1  0  0  0  0
 16 17  1  0  0  0  0
 16 45  1  0  0  0  0
 17 22  2  0  0  0  0
 17 18  1  0  0  0  0
 18 19  2  0  0  0  0
 18 40  1  0  0  0  0
 19 20  1  0  0  0  0
 19 41  1  0  0  0  0
 20 21  2  0  0  0  0
 20 42  1  0  0  0  0
 21 22  1  0  0  0  0
 21 43  1  0  0  0  0
M  CHG  1   2   1
M  CHG  1  16   1
M  END
> <s_m_source_file>
AV-unprocessed.smi

> <i_m_source_file_index>
1019

> <i_lp_mmshare_version>
43012

> <i_f3d_flags>
0

> <s_epik_input>
W2NIXTFbY0hdW2NIXVtjSF1bY0hdYzFbQ0gyXU4oW0NIM10pW0NIMl1bQ0BIXShbT0hdKVtDSDJdbihbY0hdbjIpYyhjMjMpW2NIXVtjSF1bY0hdW2NIXTM=

> <s_epik_cmdline>
J2VwaWtfcHl0aG9uJywgJy1waCcsICc3LjAnLCAnLXRuJywgJzgnLCAnLW1hJywgJzIwMCcsICctbWV0YWxfYmluZGluZycsICctaW1hZScsICc8aW5maWxlLm1hZT4nLCAnLW9tYWUnLCAnPG91dGZpbGUubWFlPic=

> <r_epik_Ionization_Penalty>
1.5198

> <r_epik_Ionization_Penalty_Charging>
1.5198

> <r_epik_Ionization_Penalty_Neutral>
3.13312e-06

> <r_epik_State_Penalty>
1.624

> <r_epik_Charging_Adjusted_Penalty>
3.1438

> <i_epik_Tot_Q>
2

> <i_epik_Tot_abs_Q>
2

> <r_epik_Metal_State_Penalty>
5.67392

> <b_epik_Metal_Only>
0

> <s_lp_Force_Field>
OPLS_2005

> <r_lp_Energy>
24.7474

> <b_lp_Chiralities_Consistent>
1

> <s_lp_Variant>
AV-unprocessed.smi:1019-7

> <Gold.Version>
5.8.1

> <Gold.Id.Protein>
6NUR|6NUR_protein|mol2

> <Gold.PLP.Fitness>
53.5669

> <Gold.PLP.PLP>
-38.0536

> <Gold.PLP.part.hbond>
-5.0000

> <Gold.PLP.part.metal>
0.0000

> <Gold.PLP.part.buried>
-0.3740

> <Gold.PLP.part.nonpolar>
-31.6051

> <Gold.PLP.part.repulsive>
0.1461

> <Gold.PLP.ligand.clash>
0.0000

> <Gold.PLP.ligand.torsion>
1.3078

> <Gold.PLP.Chemscore.Hbond>
4.5302

> <Gold.PLP.Chemscore.CHOScore>
1.4476

> <Gold.PLP.Chemscore.Metal>
0.0000

> <Gold.Chemscore.Hbonds>
donor molecule, donor type, donor heavy atom, donor atom, acceptor molecule, acceptor atom, score
      L1  H     2    44       P1  8028  1.68
      L1  H    16    45       P1  7949  1.82
      P1  H  8011  8017       L1    12  0.74
      L1  C    15    39       P1  7948  0.43
      L1  C    15    39       P1  7957  1.00

> <Gold.PLP.Chemscore.Internal.Correction>
0.1955

> <Gold.Rescore>
     Score         DG    S(hbond)    S(metal)    S(lipo)     H(rot)  DE(clash)    DE(int)     intcor
     17.86     -20.43       2.13        0.00     120.79       2.46       1.18       1.38       ----

> <Gold.Chemscore.Fitness>
17.8650

> <Gold.Chemscore.DG>
-20.4308

> <Gold.Chemscore.ZeroCoef>
-5.4800

> <Gold.Chemscore.Hbond>
2.1268

> <Gold.Chemscore.Metal>
0.0000

> <Gold.Chemscore.Lipo>
120.7906

> <Gold.Chemscore.Internal_Hbond>
0.0000

> <Gold.Chemscore.DEClash>
1.1837

> <Gold.Chemscore.DEInternal>
1.3821

> <Gold.Chemscore.Rot>
2.4552

> <Gold.Chemscore.Internal.Correction>
   9.000000E+99

> <Gold.Chemscore.Hbonds>
donor molecule, donor type, donor heavy atom, donor atom, acceptor molecule, acceptor atom, score
      L1  H     2    44       P1  8028  0.79
      L1  H    16    45       P1  7949  0.21
      P1  H  8011  8017       L1    12  0.69

> <Gold.Chemscore.Hbond.Weighted>
-7.1037

> <Gold.Chemscore.Metal.Weighted>
-0.0000

> <Gold.Chemscore.Lipo.Weighted>
-14.1325

> <Gold.Chemscore.Internal_Hbond.Weighted>
0.0000

> <Gold.Chemscore.DEClash.Weighted>
1.1837

> <Gold.Chemscore.DEInternal.Weighted>
1.3821

> <Gold.Chemscore.Rot.Weighted>
6.2854

> <Gold.Chemscore.Internal.Correction.Weighted>
   9.000000E+99

> <Gold.Protein.RotatedTorsions>
[ 6907 6896 6895 6894 ] final  -87.59 input  -60.11 | X-H torsion
[ 7974 7965 7964 7962 ] final  120.58 input  175.53 | X-H torsion
[ 8008 7997 7996 7995 ] final   32.22 input   59.86 | X-H torsion
[ 10167 10162 10161 10158 ] final -106.35 input  -65.29 | X-H torsion
[ 10718 10713 10712 10709 ] final  -43.62 input   66.30 | X-H torsion
[ 10763 10752 10751 10750 ] final  -86.08 input  -60.55 | X-H torsion
[ 11005 11000 10999 10996 ] final   38.36 input  -57.11 | X-H torsion

> <Gold.Protein.ActiveResidues>
 VAL166  LYS551  ARG553  GLY616  TRP617  ASP618  TYR619  PRO620  LYS621  CYS622 
 ASP623  PHE694  ASN695  SER759  ASP760  ASP761  ALA762  ILE779  LEU786  VAL792 
 PHE793  MET794  SER795  GLU796  ALA797  LYS798  CYS799  TRP800  GLU811  SER814 

> <Gold.Protein.RotatedAtoms>
  150.6866  134.2872  159.4651 H   0  0  0  0  0  0  0  0  0  0  0  0  # atno 6907 bound_to 6896
  152.0781  134.9487  160.0583 H   0  0  0  0  0  0  0  0  0  0  0  0  # atno 6908 bound_to 6896
  152.0851  133.4137  159.4555 H   0  0  0  0  0  0  0  0  0  0  0  0  # atno 6909 bound_to 6896
  145.1294  139.3337  143.4673 H   0  0  0  0  0  0  0  0  0  0  0  0  # atno 7974 bound_to 7965
  155.1190  140.3246  155.4502 H   0  0  0  0  0  0  0  0  0  0  0  0  # atno 8008 bound_to 7997
  156.2668  140.2030  156.6260 H   0  0  0  0  0  0  0  0  0  0  0  0  # atno 8009 bound_to 7997
  154.6698  140.0538  157.0140 H   0  0  0  0  0  0  0  0  0  0  0  0  # atno 8010 bound_to 7997
  140.1887  143.3909  152.1224 H   0  0  0  0  0  0  0  0  0  0  0  0  # atno 10167 bound_to 10162
  156.2471  130.4185  149.8692 H   0  0  0  0  0  0  0  0  0  0  0  0  # atno 10718 bound_to 10713
  154.6184  135.5462  153.7549 H   0  0  0  0  0  0  0  0  0  0  0  0  # atno 10763 bound_to 10752
  153.0227  135.6407  154.1476 H   0  0  0  0  0  0  0  0  0  0  0  0  # atno 10764 bound_to 10752
  154.1411  135.2908  155.3140 H   0  0  0  0  0  0  0  0  0  0  0  0  # atno 10765 bound_to 10752
  140.2134  134.3728  155.8038 H   0  0  0  0  0  0  0  0  0  0  0  0  # atno 11005 bound_to 11000
  146.3515  140.1287  142.8598 LP  0  0  0  0  0  0  0  0  0  0  0  0  # atno 17320 bound_to 7965
  145.0652  140.9116  143.4915 LP  0  0  0  0  0  0  0  0  0  0  0  0  # atno 17321 bound_to 7965
  139.5265  144.7108  151.5211 LP  0  0  0  0  0  0  0  0  0  0  0  0  # atno 17342 bound_to 10162
  140.6470  143.8773  150.6747 LP  0  0  0  0  0  0  0  0  0  0  0  0  # atno 17343 bound_to 10162
  156.6254  130.8643  151.3484 LP  0  0  0  0  0  0  0  0  0  0  0  0  # atno 17370 bound_to 10713
  157.7199  130.9545  150.1399 LP  0  0  0  0  0  0  0  0  0  0  0  0  # atno 17371 bound_to 10713
  141.2225  133.7155  156.8455 LP  0  0  0  0  0  0  0  0  0  0  0  0  # atno 17394 bound_to 11000
  140.1927  134.8954  157.3078 LP  0  0  0  0  0  0  0  0  0  0  0  0  # atno 17395 bound_to 11000

$$$$
