AV-unprocessed.smi:213|AV-procd|sdf|1647|dock9
  -GOLD-   2262020 23D 1   1.00000     0.00000
 Structure written by MMmdl.
 58 61  0  0  0  0  0  0  0  0  1 V2000
  151.9900  140.0241  157.3459 C   0  0  0  0  0  0  0  0  0  0  0  0
  152.0503  139.7246  158.8541 C   0  0  2  0  0  0  0  0  0  0  0  0
  153.1255  140.5682  159.5752 C   0  0  0  0  0  0  0  0  0  0  0  0
  152.6884  141.8883  160.0312 N   0  0  0  0  0  0  0  0  0  0  0  0
  153.3194  142.9467  159.2497 C   0  0  0  0  0  0  0  0  0  0  0  0
  152.8712  144.3452  159.7078 C   0  0  0  0  0  0  0  0  0  0  0  0
  153.1574  144.5063  161.0929 O   0  0  0  0  0  0  0  0  0  0  0  0
  152.5261  143.5192  161.9016 C   0  0  0  0  0  0  0  0  0  0  0  0
  152.9678  142.1166  161.4481 C   0  0  0  0  0  0  0  0  0  0  0  0
  152.2593  138.2944  159.0964 N   0  0  0  0  0  0  0  0  0  0  0  0
  151.9501  137.6927  160.3917 C   0  0  0  0  0  0  0  0  0  0  0  0
  152.6559  137.4768  158.0852 C   0  0  0  0  0  0  0  0  0  0  0  0
  151.6979  136.8564  157.3463 N   0  0  0  0  0  0  0  0  0  0  0  0
  152.0350  136.0486  156.3373 C   0  0  0  0  0  0  0  0  0  0  0  0
  153.2524  135.7198  155.9035 N   0  0  0  0  0  0  0  0  0  0  0  0
  154.2217  136.3231  156.6488 C   0  0  0  0  0  0  0  0  0  0  0  0
  154.0161  137.2077  157.7469 C   0  0  0  0  0  0  0  0  0  0  0  0
  155.2469  137.6018  158.2630 N   0  0  0  0  0  0  0  0  0  0  0  0
  156.1239  136.9980  157.5094 C   0  0  0  0  0  0  0  0  0  0  0  0
  155.5944  136.2079  156.5164 N   0  0  0  0  0  0  0  0  0  0  0  0
  156.3378  135.4198  155.5491 C   0  0  0  0  0  0  0  0  0  0  0  0
  156.8270  136.2639  154.3557 C   0  0  1  0  0  0  0  0  0  0  0  0
  157.9118  137.0885  154.7385 O   0  0  0  0  0  0  0  0  0  0  0  0
  157.1985  135.4061  153.1282 C   0  0  1  0  0  0  0  0  0  0  0  0
  157.5100  136.1621  151.8328 C   0  0  0  0  0  0  0  0  0  0  0  0
  158.3546  135.1471  151.0953 C   0  0  0  0  0  0  0  0  0  0  0  0
  159.1692  134.5362  152.2328 C   0  0  0  0  0  0  0  0  0  0  0  0
  158.3241  134.5681  153.3796 O   0  0  0  0  0  0  0  0  0  0  0  0
  151.7353  141.0683  157.1643 H   0  0  0  0  0  0  0  0  0  0  0  0
  151.2313  139.4150  156.8544 H   0  0  0  0  0  0  0  0  0  0  0  0
  152.9432  139.8281  156.8550 H   0  0  0  0  0  0  0  0  0  0  0  0
  151.0918  140.0000  159.2861 H   0  0  0  0  0  0  0  0  0  0  0  0
  153.5125  140.0063  160.4269 H   0  0  0  0  0  0  0  0  0  0  0  0
  153.9697  140.6928  158.8957 H   0  0  0  0  0  0  0  0  0  0  0  0
  154.4049  142.8710  159.3318 H   0  0  0  0  0  0  0  0  0  0  0  0
  153.0777  142.8215  158.1936 H   0  0  0  0  0  0  0  0  0  0  0  0
  153.3958  145.1157  159.1428 H   0  0  0  0  0  0  0  0  0  0  0  0
  151.8039  144.4871  159.5301 H   0  0  0  0  0  0  0  0  0  0  0  0
  152.7993  143.6841  162.9441 H   0  0  0  0  0  0  0  0  0  0  0  0
  151.4419  143.6226  161.8344 H   0  0  0  0  0  0  0  0  0  0  0  0
  152.4546  141.3790  162.0635 H   0  0  0  0  0  0  0  0  0  0  0  0
  154.0353  141.9958  161.6393 H   0  0  0  0  0  0  0  0  0  0  0  0
  152.6778  136.9208  160.6457 H   0  0  0  0  0  0  0  0  0  0  0  0
  150.9585  137.2395  160.3729 H   0  0  0  0  0  0  0  0  0  0  0  0
  151.9657  138.4359  161.1882 H   0  0  0  0  0  0  0  0  0  0  0  0
  151.2113  135.6021  155.8003 H   0  0  0  0  0  0  0  0  0  0  0  0
  157.1877  137.1085  157.6617 H   0  0  0  0  0  0  0  0  0  0  0  0
  157.1790  134.9462  156.0569 H   0  0  0  0  0  0  0  0  0  0  0  0
  155.6920  134.6134  155.1995 H   0  0  0  0  0  0  0  0  0  0  0  0
  156.0216  136.9362  154.0571 H   0  0  0  0  0  0  0  0  0  0  0  0
  158.6327  136.5359  154.9985 H   0  0  0  0  0  0  0  0  0  0  0  0
  156.3677  134.7287  152.9232 H   0  0  0  0  0  0  0  0  0  0  0  0
  156.6141  136.4536  151.2842 H   0  0  0  0  0  0  0  0  0  0  0  0
  158.1024  137.0585  152.0191 H   0  0  0  0  0  0  0  0  0  0  0  0
  157.7171  134.3887  150.6384 H   0  0  0  0  0  0  0  0  0  0  0  0
  158.9757  135.5883  150.3152 H   0  0  0  0  0  0  0  0  0  0  0  0
  159.5026  133.5223  152.0105 H   0  0  0  0  0  0  0  0  0  0  0  0
  160.0506  135.1451  152.4373 H   0  0  0  0  0  0  0  0  0  0  0  0
  1  2  1  0  0  0  0
  1 29  1  0  0  0  0
  1 30  1  0  0  0  0
  1 31  1  0  0  0  0
  2  3  1  0  0  0  0
  2 10  1  0  0  0  0
  2 32  1  0  0  0  0
  3  4  1  0  0  0  0
  3 33  1  0  0  0  0
  3 34  1  0  0  0  0
  4  9  1  0  0  0  0
  4  5  1  0  0  0  0
  5  6  1  0  0  0  0
  5 35  1  0  0  0  0
  5 36  1  0  0  0  0
  6  7  1  0  0  0  0
  6 37  1  0  0  0  0
  6 38  1  0  0  0  0
  7  8  1  0  0  0  0
  8  9  1  0  0  0  0
  8 39  1  0  0  0  0
  8 40  1  0  0  0  0
  9 41  1  0  0  0  0
  9 42  1  0  0  0  0
 10 11  1  0  0  0  0
 10 12  1  0  0  0  0
 11 43  1  0  0  0  0
 11 44  1  0  0  0  0
 11 45  1  0  0  0  0
 12 17  1  0  0  0  0
 12 13  2  0  0  0  0
 13 14  1  0  0  0  0
 14 15  2  0  0  0  0
 14 46  1  0  0  0  0
 15 16  1  0  0  0  0
 16 20  1  0  0  0  0
 16 17  2  0  0  0  0
 17 18  1  0  0  0  0
 18 19  2  0  0  0  0
 19 20  1  0  0  0  0
 19 47  1  0  0  0  0
 20 21  1  0  0  0  0
 21 22  1  0  0  0  0
 21 48  1  0  0  0  0
 21 49  1  0  0  0  0
 22 23  1  0  0  0  0
 22 24  1  0  0  0  0
 22 50  1  0  0  0  0
 23 51  1  0  0  0  0
 24 28  1  0  0  0  0
 24 25  1  0  0  0  0
 24 52  1  0  0  0  0
 25 26  1  0  0  0  0
 25 53  1  0  0  0  0
 25 54  1  0  0  0  0
 26 27  1  0  0  0  0
 26 55  1  0  0  0  0
 26 56  1  0  0  0  0
 27 28  1  0  0  0  0
 27 57  1  0  0  0  0
 27 58  1  0  0  0  0
M  END
> <s_m_source_file>
AV-unprocessed.smi

> <i_m_source_file_index>
213

> <i_lp_mmshare_version>
43012

> <i_f3d_flags>
0

> <s_epik_input>
W0NIMl0xW0NIMl1PW0NIMl1bQ0gyXU4xW0NIMl1bQ0BASF0oW0NIM10pTihbQ0gzXSljKG5bY0hdbjIpYyhjMjMpbltjSF1uM1tDSDJdW0NASF0oW09IXSlbQ0BASF00W0NIMl1bQ0gyXVtDSDJdTzQ=

> <s_epik_cmdline>
J2VwaWtfcHl0aG9uJywgJy1waCcsICc3LjAnLCAnLXRuJywgJzgnLCAnLW1hJywgJzIwMCcsICctbWV0YWxfYmluZGluZycsICctaW1hZScsICc8aW5maWxlLm1hZT4nLCAnLW9tYWUnLCAnPG91dGZpbGUubWFlPic=

> <r_lp_tautomer_probability>
1

> <r_epik_Ionization_Penalty>
0.423322

> <r_epik_Ionization_Penalty_Charging>
0

> <r_epik_Ionization_Penalty_Neutral>
0.423322

> <r_epik_State_Penalty>
0.569486

> <r_epik_Charging_Adjusted_Penalty>
0.569486

> <i_epik_Tot_Q>
0

> <i_epik_Tot_abs_Q>
0

> <r_epik_Metal_State_Penalty>
0.568671

> <b_epik_Metal_Only>
0

> <s_lp_Force_Field>
OPLS_2005

> <r_lp_Energy>
53.6453

> <b_lp_Chiralities_Consistent>
1

> <s_lp_Variant>
AV-unprocessed.smi:213-15

> <Gold.Version>
5.8.1

> <Gold.Id.Protein>
6NUR|6NUR_protein|mol2

> <Gold.PLP.Fitness>
46.0156

> <Gold.PLP.PLP>
-45.8417

> <Gold.PLP.part.hbond>
-3.0000

> <Gold.PLP.part.metal>
0.0000

> <Gold.PLP.part.buried>
-4.3474

> <Gold.PLP.part.nonpolar>
-38.7495

> <Gold.PLP.part.repulsive>
0.2308

> <Gold.PLP.ligand.clash>
0.5533

> <Gold.PLP.ligand.torsion>
3.3710

> <Gold.PLP.Chemscore.Hbond>
2.4290

> <Gold.PLP.Chemscore.CHOScore>
0.0000

> <Gold.PLP.Chemscore.Metal>
0.0000

> <Gold.PLP.Chemscore.Internal.Correction>
0.1821

> <Gold.Rescore>
     Score         DG    S(hbond)    S(metal)    S(lipo)     H(rot)  DE(clash)    DE(int)     intcor
     13.13     -16.83       0.88        0.00     131.82       2.74       0.36       3.35       ----

> <Gold.Chemscore.Fitness>
13.1321

> <Gold.Chemscore.DG>
-16.8343

> <Gold.Chemscore.ZeroCoef>
-5.4800

> <Gold.Chemscore.Hbond>
0.8803

> <Gold.Chemscore.Metal>
0.0000

> <Gold.Chemscore.Lipo>
131.8186

> <Gold.Chemscore.Internal_Hbond>
0.0000

> <Gold.Chemscore.DEClash>
0.3565

> <Gold.Chemscore.DEInternal>
3.3457

> <Gold.Chemscore.Rot>
2.7378

> <Gold.Chemscore.Internal.Correction>
   9.000000E+99

> <Gold.Chemscore.Hbond.Weighted>
-2.9402

> <Gold.Chemscore.Metal.Weighted>
-0.0000

> <Gold.Chemscore.Lipo.Weighted>
-15.4228

> <Gold.Chemscore.Internal_Hbond.Weighted>
0.0000

> <Gold.Chemscore.DEClash.Weighted>
0.3565

> <Gold.Chemscore.DEInternal.Weighted>
3.3457

> <Gold.Chemscore.Rot.Weighted>
7.0087

> <Gold.Chemscore.Internal.Correction.Weighted>
   9.000000E+99

> <Gold.Protein.RotatedTorsions>
[ 6907 6896 6895 6894 ] final   29.81 input  -60.11 | X-H torsion
[ 7974 7965 7964 7962 ] final  -52.80 input  175.53 | X-H torsion
[ 8008 7997 7996 7995 ] final  101.26 input   59.86 | X-H torsion
[ 10167 10162 10161 10158 ] final   89.34 input  -65.29 | X-H torsion
[ 10718 10713 10712 10709 ] final -104.90 input   66.30 | X-H torsion
[ 10763 10752 10751 10750 ] final  161.66 input  -60.55 | X-H torsion
[ 11005 11000 10999 10996 ] final  -92.98 input  -57.11 | X-H torsion

> <Gold.Protein.ActiveResidues>
 VAL166  LYS551  ARG553  GLY616  TRP617  ASP618  TYR619  PRO620  LYS621  CYS622 
 ASP623  PHE694  ASN695  SER759  ASP760  ASP761  ALA762  ILE779  LEU786  VAL792 
 PHE793  MET794  SER795  GLU796  ALA797  LYS798  CYS799  TRP800  GLU811  SER814 

> <Gold.Protein.RotatedAtoms>
  152.0369  134.9734  160.0573 H   0  0  0  0  0  0  0  0  0  0  0  0  # atno 6907 bound_to 6896
  152.1189  133.4337  159.4674 H   0  0  0  0  0  0  0  0  0  0  0  0  # atno 6908 bound_to 6896
  150.6848  134.2478  159.4541 H   0  0  0  0  0  0  0  0  0  0  0  0  # atno 6909 bound_to 6896
  145.9039  140.7971  142.9729 H   0  0  0  0  0  0  0  0  0  0  0  0  # atno 7974 bound_to 7965
  156.1283  140.3200  155.8310 H   0  0  0  0  0  0  0  0  0  0  0  0  # atno 8008 bound_to 7997
  155.4379  140.0523  157.3030 H   0  0  0  0  0  0  0  0  0  0  0  0  # atno 8009 bound_to 7997
  154.4879  140.2080  155.9627 H   0  0  0  0  0  0  0  0  0  0  0  0  # atno 8010 bound_to 7997
  139.8583  144.6557  150.9088 H   0  0  0  0  0  0  0  0  0  0  0  0  # atno 10167 bound_to 10162
  156.0323  130.5538  150.7463 H   0  0  0  0  0  0  0  0  0  0  0  0  # atno 10718 bound_to 10713
  154.2663  135.2767  155.2757 H   0  0  0  0  0  0  0  0  0  0  0  0  # atno 10763 bound_to 10752
  154.5340  135.5721  153.6786 H   0  0  0  0  0  0  0  0  0  0  0  0  # atno 10764 bound_to 10752
  152.9953  135.6235  154.2816 H   0  0  0  0  0  0  0  0  0  0  0  0  # atno 10765 bound_to 10752
  141.1508  133.7857  157.0096 H   0  0  0  0  0  0  0  0  0  0  0  0  # atno 11005 bound_to 11000
  144.6738  140.1720  143.7413 LP  0  0  0  0  0  0  0  0  0  0  0  0  # atno 17320 bound_to 7965
  145.8756  139.2295  143.1635 LP  0  0  0  0  0  0  0  0  0  0  0  0  # atno 17321 bound_to 7965
  140.7778  143.3767  151.1551 LP  0  0  0  0  0  0  0  0  0  0  0  0  # atno 17342 bound_to 10162
  139.7398  143.8941  152.3046 LP  0  0  0  0  0  0  0  0  0  0  0  0  # atno 17343 bound_to 10162
  157.5019  131.0919  151.0304 LP  0  0  0  0  0  0  0  0  0  0  0  0  # atno 17370 bound_to 10713
  157.0683  130.5853  149.5398 LP  0  0  0  0  0  0  0  0  0  0  0  0  # atno 17371 bound_to 10713
  140.0886  134.9606  157.1740 LP  0  0  0  0  0  0  0  0  0  0  0  0  # atno 17394 bound_to 11000
  140.3477  134.2633  155.7203 LP  0  0  0  0  0  0  0  0  0  0  0  0  # atno 17395 bound_to 11000

$$$$
