AV-unprocessed.smi:72|AV-procd|sdf|709|dock4
  -GOLD-   2262017 33D 1   1.00000     0.00000
 Structure written by MMmdl.
 30 31  0  0  0  0  0  0  0  0  2 V2000
  144.6049  134.9428  150.8399 N   0  0  0  0  0  0  0  0  0  0  0  0
  145.2133  135.7325  151.7931 C   0  0  0  0  0  0  0  0  0  0  0  0
  145.1604  137.1041  151.6201 N   0  3  0  0  0  0  0  0  0  0  0  0
  145.6942  138.0074  152.4534 C   0  0  0  0  0  0  0  0  0  0  0  0
  146.3258  137.5883  153.5312 N   0  0  0  0  0  0  0  0  0  0  0  0
  146.9614  138.5525  154.5026 C   0  0  2  0  0  0  0  0  0  0  0  0
  146.2654  139.7625  154.4426 O   0  0  0  0  0  0  0  0  0  0  0  0
  147.0598  140.7574  153.8010 C   0  0  1  0  0  0  0  0  0  0  0  0
  146.6101  142.1545  154.2543 C   0  0  0  0  0  0  0  0  0  0  0  0
  147.5477  143.1206  153.8304 O   0  0  0  0  0  0  0  0  0  0  0  0
  148.4633  140.3773  154.2696 C   0  0  2  0  0  0  0  0  0  0  0  0
  149.4920  140.9758  153.5035 O   0  0  0  0  0  0  0  0  0  0  0  0
  148.4399  138.8562  154.1672 C   0  0  2  0  0  0  0  0  0  0  0  0
  148.8292  138.4078  152.8764 O   0  0  0  0  0  0  0  0  0  0  0  0
  146.4423  136.1981  153.7882 C   0  0  0  0  0  0  0  0  0  0  0  0
  147.0479  135.7971  154.7816 O   0  0  0  0  0  0  0  0  0  0  0  0
  145.8456  135.3312  152.8611 N   0  0  0  0  0  0  0  0  0  0  0  0
  146.8128  138.1279  155.4969 H   0  0  0  0  0  0  0  0  0  0  0  0
  146.9961  140.6547  152.7161 H   0  0  0  0  0  0  0  0  0  0  0  0
  148.5876  140.6662  155.3147 H   0  0  0  0  0  0  0  0  0  0  0  0
  149.0902  138.3919  154.9096 H   0  0  0  0  0  0  0  0  0  0  0  0
  144.5929  133.9334  150.8842 H   0  0  0  0  0  0  0  0  0  0  0  0
  144.1277  135.3060  150.0274 H   0  0  0  0  0  0  0  0  0  0  0  0
  145.5961  139.0598  152.2240 H   0  0  0  0  0  0  0  0  0  0  0  0
  145.6162  142.3961  153.8764 H   0  0  0  0  0  0  0  0  0  0  0  0
  146.5632  142.1999  155.3428 H   0  0  0  0  0  0  0  0  0  0  0  0
  147.9964  143.4577  154.5911 H   0  0  0  0  0  0  0  0  0  0  0  0
  149.9168  140.3041  152.9919 H   0  0  0  0  0  0  0  0  0  0  0  0
  149.2577  139.1216  152.4284 H   0  0  0  0  0  0  0  0  0  0  0  0
  144.6816  137.4487  150.8003 H   0  0  0  0  0  0  0  0  0  0  0  0
  1  2  1  0  0  0  0
  1 22  1  0  0  0  0
  1 23  1  0  0  0  0
  2 17  2  0  0  0  0
  2  3  1  0  0  0  0
  3  4  2  0  0  0  0
  3 30  1  0  0  0  0
  4  5  1  0  0  0  0
  4 24  1  0  0  0  0
  5  6  1  0  0  0  0
  5 15  1  0  0  0  0
  6 18  1  0  0  0  0
  6 13  1  0  0  0  0
  6  7  1  0  0  0  0
  7  8  1  0  0  0  0
  8 19  1  0  0  0  0
  8  9  1  0  0  0  0
  8 11  1  0  0  0  0
  9 10  1  0  0  0  0
  9 25  1  0  0  0  0
  9 26  1  0  0  0  0
 10 27  1  0  0  0  0
 11 20  1  0  0  0  0
 11 12  1  0  0  0  0
 11 13  1  0  0  0  0
 12 28  1  0  0  0  0
 13 21  1  0  0  0  0
 13 14  1  0  0  0  0
 14 29  1  0  0  0  0
 15 16  2  0  0  0  0
 15 17  1  0  0  0  0
M  CHG  1   3   1
M  END
> <s_m_source_file>
AV-unprocessed.smi

> <i_m_source_file_index>
72

> <i_lp_mmshare_version>
43012

> <i_f3d_flags>
0

> <s_epik_input>
W05IMl1jMW5bY0hdbihjKD1PKW4xKVtDQEBIXTJPW0NASF0oW0NIMl1bT0hdKVtDQEBIXShbT0hdKVtDQEhdMltPSF0=

> <s_epik_cmdline>
J2VwaWtfcHl0aG9uJywgJy1waCcsICc3LjAnLCAnLXRuJywgJzgnLCAnLW1hJywgJzIwMCcsICctbWV0YWxfYmluZGluZycsICctaW1hZScsICc8aW5maWxlLm1hZT4nLCAnLW9tYWUnLCAnPG91dGZpbGUubWFlPic=

> <r_lp_tautomer_probability>
4.77166e-05

> <r_epik_Ionization_Penalty>
0.104979

> <r_epik_Ionization_Penalty_Charging>
0.0999619

> <r_epik_Ionization_Penalty_Neutral>
0.00501745

> <r_epik_State_Penalty>
2.51541

> <r_epik_Charging_Adjusted_Penalty>
2.61537

> <i_epik_Tot_Q>
1

> <i_epik_Tot_abs_Q>
1

> <r_epik_Metal_State_Penalty>
3.53763

> <b_epik_Metal_Only>
0

> <s_epik_Chemistry_Notes>
This compound contains an acetal/aminal-like group ( X-CH(R)-Y where X, Y are N, S, or O) that may be acid/base labile, releasing an aldehyde.

> <s_lp_Force_Field>
OPLS_2005

> <r_lp_Energy>
36.649

> <b_lp_Chiralities_Consistent>
1

> <s_lp_Variant>
AV-unprocessed.smi:72-47

> <Gold.Version>
5.8.1

> <Gold.Id.Protein>
6NUR|6NUR_protein|mol2

> <Gold.PLP.Fitness>
36.2189

> <Gold.PLP.PLP>
-21.7643

> <Gold.PLP.part.hbond>
-8.3438

> <Gold.PLP.part.metal>
0.0000

> <Gold.PLP.part.buried>
0.7026

> <Gold.PLP.part.nonpolar>
-13.9068

> <Gold.PLP.part.repulsive>
0.3414

> <Gold.PLP.ligand.clash>
0.0000

> <Gold.PLP.ligand.torsion>
0.7757

> <Gold.PLP.Chemscore.Hbond>
4.3480

> <Gold.PLP.Chemscore.CHOScore>
0.9475

> <Gold.PLP.Chemscore.Metal>
0.0000

> <Gold.Chemscore.Hbonds>
donor molecule, donor type, donor heavy atom, donor atom, acceptor molecule, acceptor atom, score
      L1  H     3    30       P1 10171  1.00
      L1  H    10    27       P1  8028  1.00
      L1  H    12    28       P1  7957  0.48
      L1  H    14    29       P1  7957  1.00
      P1  H  8011  8017       L1    12  0.85
      L1  C     4    24       P1 10175  0.98

> <Gold.PLP.Chemscore.Internal.Correction>
0.1194

> <Gold.Rescore>
     Score         DG    S(hbond)    S(metal)    S(lipo)     H(rot)  DE(clash)    DE(int)     intcor
      8.97     -10.41       3.77        0.00      23.85       4.08       0.73       0.71       ----

> <Gold.Chemscore.Fitness>
8.9692

> <Gold.Chemscore.DG>
-10.4114

> <Gold.Chemscore.ZeroCoef>
-5.4800

> <Gold.Chemscore.Hbond>
3.7668

> <Gold.Chemscore.Metal>
0.0000

> <Gold.Chemscore.Lipo>
23.8509

> <Gold.Chemscore.Internal_Hbond>
0.0000

> <Gold.Chemscore.DEClash>
0.7302

> <Gold.Chemscore.DEInternal>
0.7120

> <Gold.Chemscore.Rot>
4.0783

> <Gold.Chemscore.Internal.Correction>
   9.000000E+99

> <Gold.Chemscore.Hbonds>
donor molecule, donor type, donor heavy atom, donor atom, acceptor molecule, acceptor atom, score
      L1  H     3    30       P1 10171  0.99
      L1  H    10    27       P1  8028  0.81
      L1  H    12    28       P1  7957  0.48
      L1  H    14    29       P1  7957  0.94
      P1  H  8011  8017       L1    12  0.14

> <Gold.Chemscore.Hbond.Weighted>
-12.5812

> <Gold.Chemscore.Metal.Weighted>
-0.0000

> <Gold.Chemscore.Lipo.Weighted>
-2.7906

> <Gold.Chemscore.Internal_Hbond.Weighted>
0.0000

> <Gold.Chemscore.DEClash.Weighted>
0.7302

> <Gold.Chemscore.DEInternal.Weighted>
0.7120

> <Gold.Chemscore.Rot.Weighted>
10.4404

> <Gold.Chemscore.Internal.Correction.Weighted>
   9.000000E+99

> <Gold.Protein.RotatedTorsions>
[ 6907 6896 6895 6894 ] final  -42.20 input  -60.11 | X-H torsion
[ 7974 7965 7964 7962 ] final  152.07 input  175.53 | X-H torsion
[ 8008 7997 7996 7995 ] final  133.24 input   59.86 | X-H torsion
[ 10167 10162 10161 10158 ] final  -14.74 input  -65.29 | X-H torsion
[ 10718 10713 10712 10709 ] final -124.24 input   66.30 | X-H torsion
[ 10763 10752 10751 10750 ] final  154.88 input  -60.55 | X-H torsion
[ 11005 11000 10999 10996 ] final  169.64 input  -57.11 | X-H torsion

> <Gold.Protein.ActiveResidues>
 VAL166  LYS551  ARG553  GLY616  TRP617  ASP618  TYR619  PRO620  LYS621  CYS622 
 ASP623  PHE694  ASN695  SER759  ASP760  ASP761  ALA762  ILE779  LEU786  VAL792 
 PHE793  MET794  SER795  GLU796  ALA797  LYS798  CYS799  TRP800  GLU811  SER814 

> <Gold.Protein.RotatedAtoms>
  150.9580  134.8971  159.7712 H   0  0  0  0  0  0  0  0  0  0  0  0  # atno 6907 bound_to 6896
  152.5145  134.3713  159.9329 H   0  0  0  0  0  0  0  0  0  0  0  0  # atno 6908 bound_to 6896
  151.3727  133.3809  159.2736 H   0  0  0  0  0  0  0  0  0  0  0  0  # atno 6909 bound_to 6896
  144.8248  139.6620  143.6085 H   0  0  0  0  0  0  0  0  0  0  0  0  # atno 7974 bound_to 7965
  156.2990  140.2526  156.3221 H   0  0  0  0  0  0  0  0  0  0  0  0  # atno 8008 bound_to 7997
  154.9225  140.0400  157.2024 H   0  0  0  0  0  0  0  0  0  0  0  0  # atno 8009 bound_to 7997
  154.8297  140.2873  155.5735 H   0  0  0  0  0  0  0  0  0  0  0  0  # atno 8010 bound_to 7997
  140.7206  143.5290  150.9542 H   0  0  0  0  0  0  0  0  0  0  0  0  # atno 10167 bound_to 10162
  156.1571  130.6575  150.9997 H   0  0  0  0  0  0  0  0  0  0  0  0  # atno 10718 bound_to 10713
  154.1594  135.2810  155.3113 H   0  0  0  0  0  0  0  0  0  0  0  0  # atno 10763 bound_to 10752
  154.6158  135.5484  153.7525 H   0  0  0  0  0  0  0  0  0  0  0  0  # atno 10764 bound_to 10752
  153.0197  135.6426  154.1737 H   0  0  0  0  0  0  0  0  0  0  0  0  # atno 10765 bound_to 10752
  140.2999  134.7603  157.3908 H   0  0  0  0  0  0  0  0  0  0  0  0  # atno 11005 bound_to 11000
  146.2553  139.6289  142.9399 LP  0  0  0  0  0  0  0  0  0  0  0  0  # atno 17320 bound_to 7965
  145.5025  141.0437  143.2533 LP  0  0  0  0  0  0  0  0  0  0  0  0  # atno 17321 bound_to 7965
  139.9010  143.6836  152.3131 LP  0  0  0  0  0  0  0  0  0  0  0  0  # atno 17342 bound_to 10162
  139.7185  144.7607  151.0993 LP  0  0  0  0  0  0  0  0  0  0  0  0  # atno 17343 bound_to 10162
  157.6703  131.0863  150.7628 LP  0  0  0  0  0  0  0  0  0  0  0  0  # atno 17370 bound_to 10713
  156.7692  130.4823  149.5421 LP  0  0  0  0  0  0  0  0  0  0  0  0  # atno 17371 bound_to 10713
  140.1118  134.5335  155.8259 LP  0  0  0  0  0  0  0  0  0  0  0  0  # atno 17394 bound_to 11000
  141.2130  133.6727  156.6704 LP  0  0  0  0  0  0  0  0  0  0  0  0  # atno 17395 bound_to 11000

$$$$
