AV-unprocessed.smi:2224|AV-procd|sdf|8993|dock4
  -GOLD-   2272012203D 1   1.00000     0.00000
 Structure written by MMmdl.
 44 46  0  0  0  0  0  0  0  0  1 V2000
  151.9749  145.7214  160.5253 C   0  0  0  0  0  0  0  0  0  0  0  0
  152.0024  144.3905  159.8035 C   0  0  0  0  0  0  0  0  0  0  0  0
  152.9125  143.3833  160.1773 C   0  0  0  0  0  0  0  0  0  0  0  0
  152.8865  142.1673  159.4664 C   0  0  0  0  0  0  0  0  0  0  0  0
  153.8367  141.0411  159.8150 C   0  0  0  0  0  0  0  0  0  0  0  0
  152.0311  141.9257  158.4501 N   0  0  0  0  0  0  0  0  0  0  0  0
  151.1499  142.8886  158.0819 C   0  0  0  0  0  0  0  0  0  0  0  0
  150.2131  142.7375  157.0256 N   0  0  0  0  0  0  0  0  0  0  0  0
  150.0215  141.6712  156.2295 C   0  0  0  0  0  0  0  0  0  0  0  0
  150.6368  140.6070  156.3006 O   0  0  0  0  0  0  0  0  0  0  0  0
  149.0497  141.9047  155.3377 N   0  0  0  0  0  0  0  0  0  0  0  0
  148.5641  140.9363  154.3530 C   0  0  2  0  0  0  0  0  0  0  0  0
  147.2490  141.3791  153.6729 C   0  0  2  0  0  0  0  0  0  0  0  0
  146.6816  142.7707  153.8124 C   0  0  0  0  0  0  0  0  0  0  0  0
  145.6502  142.6057  154.9324 C   0  0  0  0  0  0  0  0  0  0  0  0
  146.0482  141.4236  155.6241 O   0  0  0  0  0  0  0  0  0  0  0  0
  146.5109  140.4848  154.6555 C   0  0  2  0  0  0  0  0  0  0  0  0
  147.8172  139.7354  154.9936 C   0  0  0  0  0  0  0  0  0  0  0  0
  147.9953  138.4148  154.2387 C   0  0  0  0  0  0  0  0  0  0  0  0
  148.0558  139.4182  156.4763 C   0  0  0  0  0  0  0  0  0  0  0  0
  151.1112  144.1376  158.7414 C   0  0  0  0  0  0  0  0  0  0  0  0
  152.7856  145.7966  161.2508 H   0  0  0  0  0  0  0  0  0  0  0  0
  151.0299  145.8432  161.0551 H   0  0  0  0  0  0  0  0  0  0  0  0
  152.0785  146.5405  159.8134 H   0  0  0  0  0  0  0  0  0  0  0  0
  153.6112  143.5376  160.9867 H   0  0  0  0  0  0  0  0  0  0  0  0
  154.5849  141.3651  160.5388 H   0  0  0  0  0  0  0  0  0  0  0  0
  154.3576  140.6908  158.9234 H   0  0  0  0  0  0  0  0  0  0  0  0
  153.2867  140.2034  160.2440 H   0  0  0  0  0  0  0  0  0  0  0  0
  149.6161  143.5335  156.8585 H   0  0  0  0  0  0  0  0  0  0  0  0
  148.5902  142.8032  155.3540 H   0  0  0  0  0  0  0  0  0  0  0  0
  149.3182  140.6340  153.6239 H   0  0  0  0  0  0  0  0  0  0  0  0
  147.1853  140.9803  152.6594 H   0  0  0  0  0  0  0  0  0  0  0  0
  147.4447  143.5017  154.0791 H   0  0  0  0  0  0  0  0  0  0  0  0
  146.2090  143.1174  152.8931 H   0  0  0  0  0  0  0  0  0  0  0  0
  145.6129  143.4671  155.5997 H   0  0  0  0  0  0  0  0  0  0  0  0
  144.6539  142.4529  154.5150 H   0  0  0  0  0  0  0  0  0  0  0  0
  145.7141  139.8899  154.2065 H   0  0  0  0  0  0  0  0  0  0  0  0
  147.2862  137.6591  154.5780 H   0  0  0  0  0  0  0  0  0  0  0  0
  148.9989  138.0102  154.3731 H   0  0  0  0  0  0  0  0  0  0  0  0
  147.8412  138.5402  153.1666 H   0  0  0  0  0  0  0  0  0  0  0  0
  147.4005  138.6200  156.8259 H   0  0  0  0  0  0  0  0  0  0  0  0
  147.8686  140.2797  157.1178 H   0  0  0  0  0  0  0  0  0  0  0  0
  149.0838  139.1016  156.6546 H   0  0  0  0  0  0  0  0  0  0  0  0
  150.4039  144.8965  158.4390 H   0  0  0  0  0  0  0  0  0  0  0  0
  1  2  1  0  0  0  0
  1 22  1  0  0  0  0
  1 23  1  0  0  0  0
  1 24  1  0  0  0  0
  2 21  1  0  0  0  0
  2  3  2  0  0  0  0
  3  4  1  0  0  0  0
  3 25  1  0  0  0  0
  4  5  1  0  0  0  0
  4  6  2  0  0  0  0
  5 26  1  0  0  0  0
  5 27  1  0  0  0  0
  5 28  1  0  0  0  0
  6  7  1  0  0  0  0
  7  8  1  0  0  0  0
  7 21  2  0  0  0  0
  8  9  1  0  0  0  0
  8 29  1  0  0  0  0
  9 10  2  0  0  0  0
  9 11  1  0  0  0  0
 11 12  1  0  0  0  0
 11 30  1  0  0  0  0
 12 18  1  0  0  0  0
 12 13  1  0  0  0  0
 12 31  1  0  0  0  0
 13 17  1  0  0  0  0
 13 14  1  0  0  0  0
 13 32  1  0  0  0  0
 14 15  1  0  0  0  0
 14 33  1  0  0  0  0
 14 34  1  0  0  0  0
 15 16  1  0  0  0  0
 15 35  1  0  0  0  0
 15 36  1  0  0  0  0
 16 17  1  0  0  0  0
 17 18  1  0  0  0  0
 17 37  1  0  0  0  0
 18 19  1  0  0  0  0
 18 20  1  0  0  0  0
 19 38  1  0  0  0  0
 19 39  1  0  0  0  0
 19 40  1  0  0  0  0
 20 41  1  0  0  0  0
 20 42  1  0  0  0  0
 20 43  1  0  0  0  0
 21 44  1  0  0  0  0
M  END
> <s_m_source_file>
AV-unprocessed.smi

> <i_m_source_file_index>
2224

> <i_lp_mmshare_version>
43012

> <i_f3d_flags>
0

> <s_epik_input>
W0NIM11jMVtjSF1jKFtDSDNdKW5jKFtjSF0xKVtOSF1DKD1PKVtOSF1bQ0BIXTJDKFtDSDNdKShbQ0gzXSlbQ0BIXShbQ0BASF0yMylPW0NIMl1bQ0gyXTM=

> <s_epik_cmdline>
J2VwaWtfcHl0aG9uJywgJy1waCcsICc3LjAnLCAnLXRuJywgJzgnLCAnLW1hJywgJzIwMCcsICctbWV0YWxfYmluZGluZycsICctaW1hZScsICc8aW5maWxlLm1hZT4nLCAnLW9tYWUnLCAnPG91dGZpbGUubWFlPic=

> <r_lp_tautomer_probability>
1

> <r_epik_Ionization_Penalty>
0.000276544

> <r_epik_Ionization_Penalty_Charging>
0

> <r_epik_Ionization_Penalty_Neutral>
0.000276544

> <r_epik_State_Penalty>
-0

> <r_epik_Charging_Adjusted_Penalty>
0

> <i_epik_Tot_Q>
0

> <i_epik_Tot_abs_Q>
0

> <r_epik_Metal_State_Penalty>
-0

> <b_epik_Metal_Only>
0

> <s_lp_Force_Field>
OPLS_2005

> <r_lp_Energy>
39.8946

> <b_lp_Chiralities_Consistent>
1

> <s_lp_Variant>
AV-unprocessed.smi:2224-3

> <Gold.Version>
5.8.1

> <Gold.Id.Protein>
6NUR|6NUR_protein|mol2

> <Gold.PLP.Fitness>
48.0167

> <Gold.PLP.PLP>
-42.1905

> <Gold.PLP.part.hbond>
-2.0000

> <Gold.PLP.part.metal>
0.0000

> <Gold.PLP.part.buried>
-7.6997

> <Gold.PLP.part.nonpolar>
-32.1322

> <Gold.PLP.part.repulsive>
0.3045

> <Gold.PLP.ligand.clash>
0.0000

> <Gold.PLP.ligand.torsion>
0.0967

> <Gold.PLP.Chemscore.Hbond>
1.9440

> <Gold.PLP.Chemscore.CHOScore>
0.0000

> <Gold.PLP.Chemscore.Metal>
0.0000

> <Gold.Chemscore.Hbonds>
donor molecule, donor type, donor heavy atom, donor atom, acceptor molecule, acceptor atom, score
      L1  H     8    29       P1  8028  0.99
      L1  H    11    30       P1  8028  0.90

> <Gold.PLP.Chemscore.Internal.Correction>
0.1877

> <Gold.Rescore>
     Score         DG    S(hbond)    S(metal)    S(lipo)     H(rot)  DE(clash)    DE(int)     intcor
     17.59     -21.12       1.75        0.00     105.50       1.00       0.62       2.91       ----

> <Gold.Chemscore.Fitness>
17.5901

> <Gold.Chemscore.DG>
-21.1242

> <Gold.Chemscore.ZeroCoef>
-5.4800

> <Gold.Chemscore.Hbond>
1.7546

> <Gold.Chemscore.Metal>
0.0000

> <Gold.Chemscore.Lipo>
105.5038

> <Gold.Chemscore.Internal_Hbond>
0.0000

> <Gold.Chemscore.DEClash>
0.6198

> <Gold.Chemscore.DEInternal>
2.9143

> <Gold.Chemscore.Rot>
1.0000

> <Gold.Chemscore.Internal.Correction>
   9.000000E+99

> <Gold.Chemscore.Hbonds>
donor molecule, donor type, donor heavy atom, donor atom, acceptor molecule, acceptor atom, score
      L1  H     8    29       P1  8028  0.92
      L1  H    11    30       P1  8028  0.86

> <Gold.Chemscore.Hbond.Weighted>
-5.8603

> <Gold.Chemscore.Metal.Weighted>
-0.0000

> <Gold.Chemscore.Lipo.Weighted>
-12.3439

> <Gold.Chemscore.Internal_Hbond.Weighted>
0.0000

> <Gold.Chemscore.DEClash.Weighted>
0.6198

> <Gold.Chemscore.DEInternal.Weighted>
2.9143

> <Gold.Chemscore.Rot.Weighted>
2.5600

> <Gold.Chemscore.Internal.Correction.Weighted>
   9.000000E+99

> <Gold.Protein.RotatedTorsions>
[ 6907 6896 6895 6894 ] final  148.84 input  -60.11 | X-H torsion
[ 7974 7965 7964 7962 ] final  -38.03 input  175.53 | X-H torsion
[ 8008 7997 7996 7995 ] final   65.87 input   59.86 | X-H torsion
[ 10167 10162 10161 10158 ] final -174.13 input  -65.29 | X-H torsion
[ 10718 10713 10712 10709 ] final   73.08 input   66.30 | X-H torsion
[ 10763 10752 10751 10750 ] final   52.79 input  -60.55 | X-H torsion
[ 11005 11000 10999 10996 ] final  -19.02 input  -57.11 | X-H torsion

> <Gold.Protein.ActiveResidues>
 VAL166  LYS551  ARG553  GLY616  TRP617  ASP618  TYR619  PRO620  LYS621  CYS622 
 ASP623  PHE694  ASN695  SER759  ASP760  ASP761  ALA762  ILE779  LEU786  VAL792 
 PHE793  MET794  SER795  GLU796  ALA797  LYS798  CYS799  TRP800  GLU811  SER814 

> <Gold.Protein.RotatedAtoms>
  152.1360  133.4436  159.4743 H   0  0  0  0  0  0  0  0  0  0  0  0  # atno 6907 bound_to 6896
  150.6882  134.2363  159.4463 H   0  0  0  0  0  0  0  0  0  0  0  0  # atno 6908 bound_to 6896
  152.0250  134.9800  160.0622 H   0  0  0  0  0  0  0  0  0  0  0  0  # atno 6909 bound_to 6896
  146.0522  140.6465  142.9036 H   0  0  0  0  0  0  0  0  0  0  0  0  # atno 7974 bound_to 7965
  155.6685  140.3497  155.4809 H   0  0  0  0  0  0  0  0  0  0  0  0  # atno 8008 bound_to 7997
  155.9708  140.1155  157.0837 H   0  0  0  0  0  0  0  0  0  0  0  0  # atno 8009 bound_to 7997
  154.4166  140.1157  156.5290 H   0  0  0  0  0  0  0  0  0  0  0  0  # atno 8010 bound_to 7997
  139.5650  144.1777  152.1299 H   0  0  0  0  0  0  0  0  0  0  0  0  # atno 10167 bound_to 10162
  157.6531  130.9611  150.1019 H   0  0  0  0  0  0  0  0  0  0  0  0  # atno 10718 bound_to 10713
  152.9791  135.5801  154.4635 H   0  0  0  0  0  0  0  0  0  0  0  0  # atno 10763 bound_to 10752
  154.4208  135.2771  155.1979 H   0  0  0  0  0  0  0  0  0  0  0  0  # atno 10764 bound_to 10752
  154.3729  135.6164  153.5803 H   0  0  0  0  0  0  0  0  0  0  0  0  # atno 10765 bound_to 10752
  140.8325  133.7986  155.9774 H   0  0  0  0  0  0  0  0  0  0  0  0  # atno 11005 bound_to 11000
  144.7129  140.4104  143.7067 LP  0  0  0  0  0  0  0  0  0  0  0  0  # atno 17320 bound_to 7965
  145.6704  139.1598  143.2758 LP  0  0  0  0  0  0  0  0  0  0  0  0  # atno 17321 bound_to 7965
  140.1298  144.5299  150.6810 LP  0  0  0  0  0  0  0  0  0  0  0  0  # atno 17342 bound_to 10162
  140.6933  143.2389  151.5070 LP  0  0  0  0  0  0  0  0  0  0  0  0  # atno 17343 bound_to 10162
  156.1939  130.3656  149.8874 LP  0  0  0  0  0  0  0  0  0  0  0  0  # atno 17370 bound_to 10713
  156.6795  130.8852  151.3574 LP  0  0  0  0  0  0  0  0  0  0  0  0  # atno 17371 bound_to 10713
  140.8983  134.2410  157.5056 LP  0  0  0  0  0  0  0  0  0  0  0  0  # atno 17394 bound_to 11000
  139.8704  134.9694  156.4665 LP  0  0  0  0  0  0  0  0  0  0  0  0  # atno 17395 bound_to 11000

$$$$
