AV-unprocessed.smi:437|AV-procd|sdf|2560|dock5
  -GOLD-   2262022523D 1   1.00000     0.00000
 Structure written by MMmdl.
 48 49  0  0  0  0  0  0  0  0  1 V2000
  147.4778  131.2787  161.6318 C   0  0  0  0  0  0  0  0  0  0  0  0
  147.4490  132.4895  160.7384 C   0  0  0  0  0  0  0  0  0  0  0  0
  147.3637  132.2718  159.4672 N   0  0  0  0  0  0  0  0  0  0  0  0
  147.3325  133.3126  158.5595 N   0  0  0  0  0  0  0  0  0  0  0  0
  147.2509  132.8803  157.1559 C   0  0  0  0  0  0  0  0  0  0  0  0
  145.9971  132.0468  156.8462 C   0  0  0  0  0  0  0  0  0  0  0  0
  145.5634  131.2420  157.6749 O   0  0  0  0  0  0  0  0  0  0  0  0
  145.4446  132.2837  155.6391 N   0  0  0  0  0  0  0  0  0  0  0  0
  145.8652  133.1528  154.6999 C   0  0  0  0  0  0  0  0  0  0  0  0
  146.9039  133.8155  154.7457 O   0  0  0  0  0  0  0  0  0  0  0  0
  144.9990  133.2111  153.6778 N   0  0  0  0  0  0  0  0  0  0  0  0
  145.1425  134.0513  152.4876 C   0  0  1  0  0  0  0  0  0  0  0  0
  146.2800  133.5363  151.5781 C   0  0  0  0  0  0  0  0  0  0  0  0
  145.9221  132.2031  150.9001 C   0  0  0  0  0  0  0  0  0  0  0  0
  144.6031  132.3137  150.1213 C   0  0  0  0  0  0  0  0  0  0  0  0
  143.4601  132.8061  151.0233 C   0  0  0  0  0  0  0  0  0  0  0  0
  143.8089  134.1458  151.7052 C   0  0  1  0  0  0  0  0  0  0  0  0
  142.6446  134.6610  152.5689 C   0  0  0  0  0  0  0  0  0  0  0  0
  147.3700  134.6352  158.8926 C   0  0  0  0  0  0  0  0  0  0  0  0
  147.3255  135.5318  158.0489 O   0  0  0  0  0  0  0  0  0  0  0  0
  147.4717  134.8744  160.3339 C   0  0  0  0  0  0  0  0  0  0  0  0
  147.5277  136.2458  160.7253 C   0  0  0  0  0  0  0  0  0  0  0  0
  147.5668  137.3529  161.0615 N   0  0  0  0  0  0  0  0  0  0  0  0
  147.5114  133.8605  161.2344 C   0  0  0  0  0  0  0  0  0  0  0  0
  147.6149  134.0543  162.7409 C   0  0  0  0  0  0  0  0  0  0  0  0
  146.6330  131.2864  162.3207 H   0  0  0  0  0  0  0  0  0  0  0  0
  148.3951  131.2533  162.2204 H   0  0  0  0  0  0  0  0  0  0  0  0
  147.4273  130.3500  161.0610 H   0  0  0  0  0  0  0  0  0  0  0  0
  147.2499  133.7502  156.4963 H   0  0  0  0  0  0  0  0  0  0  0  0
  148.1411  132.3097  156.8848 H   0  0  0  0  0  0  0  0  0  0  0  0
  144.6226  131.7437  155.4126 H   0  0  0  0  0  0  0  0  0  0  0  0
  144.1756  132.6288  153.7193 H   0  0  0  0  0  0  0  0  0  0  0  0
  145.4028  135.0585  152.8185 H   0  0  0  0  0  0  0  0  0  0  0  0
  146.4836  134.2814  150.8081 H   0  0  0  0  0  0  0  0  0  0  0  0
  147.2066  133.4307  152.1435 H   0  0  0  0  0  0  0  0  0  0  0  0
  146.7254  131.9022  150.2273 H   0  0  0  0  0  0  0  0  0  0  0  0
  145.8403  131.4166  151.6513 H   0  0  0  0  0  0  0  0  0  0  0  0
  144.7303  133.0021  149.2850 H   0  0  0  0  0  0  0  0  0  0  0  0
  144.3450  131.3467  149.6886 H   0  0  0  0  0  0  0  0  0  0  0  0
  142.5530  132.9175  150.4284 H   0  0  0  0  0  0  0  0  0  0  0  0
  143.2397  132.0495  151.7775 H   0  0  0  0  0  0  0  0  0  0  0  0
  143.9573  134.8800  150.9117 H   0  0  0  0  0  0  0  0  0  0  0  0
  142.3877  133.9598  153.3632 H   0  0  0  0  0  0  0  0  0  0  0  0
  141.7501  134.8148  151.9650 H   0  0  0  0  0  0  0  0  0  0  0  0
  142.8947  135.6148  153.0340 H   0  0  0  0  0  0  0  0  0  0  0  0
  147.6427  135.1064  163.0216 H   0  0  0  0  0  0  0  0  0  0  0  0
  148.5233  133.5886  163.1241 H   0  0  0  0  0  0  0  0  0  0  0  0
  146.7589  133.6042  163.2443 H   0  0  0  0  0  0  0  0  0  0  0  0
  1  2  1  0  0  0  0
  1 26  1  0  0  0  0
  1 27  1  0  0  0  0
  1 28  1  0  0  0  0
  2 24  1  0  0  0  0
  2  3  2  0  0  0  0
  3  4  1  0  0  0  0
  4  5  1  0  0  0  0
  4 19  1  0  0  0  0
  5  6  1  0  0  0  0
  5 29  1  0  0  0  0
  5 30  1  0  0  0  0
  6  7  2  0  0  0  0
  6  8  1  0  0  0  0
  8  9  1  0  0  0  0
  8 31  1  0  0  0  0
  9 10  2  0  0  0  0
  9 11  1  0  0  0  0
 11 12  1  0  0  0  0
 11 32  1  0  0  0  0
 12 17  1  0  0  0  0
 12 13  1  0  0  0  0
 12 33  1  0  0  0  0
 13 14  1  0  0  0  0
 13 34  1  0  0  0  0
 13 35  1  0  0  0  0
 14 15  1  0  0  0  0
 14 36  1  0  0  0  0
 14 37  1  0  0  0  0
 15 16  1  0  0  0  0
 15 38  1  0  0  0  0
 15 39  1  0  0  0  0
 16 17  1  0  0  0  0
 16 40  1  0  0  0  0
 16 41  1  0  0  0  0
 17 18  1  0  0  0  0
 17 42  1  0  0  0  0
 18 43  1  0  0  0  0
 18 44  1  0  0  0  0
 18 45  1  0  0  0  0
 19 20  2  0  0  0  0
 19 21  1  0  0  0  0
 21 22  1  0  0  0  0
 21 24  2  0  0  0  0
 22 23  3  0  0  0  0
 24 25  1  0  0  0  0
 25 46  1  0  0  0  0
 25 47  1  0  0  0  0
 25 48  1  0  0  0  0
M  END
> <s_m_source_file>
AV-unprocessed.smi

> <i_m_source_file_index>
437

> <i_lp_mmshare_version>
43012

> <i_f3d_flags>
0

> <s_epik_input>
TiNDYyhjMVtDSDNdKWMoPU8pbihuYzFbQ0gzXSlbQ0gyXUMoPU8pW05IXUMoPU8pW05IXVtDQEBIXTJbQ0gyXVtDSDJdW0NIMl1bQ0gyXVtDQEhdMltDSDNd

> <s_epik_cmdline>
J2VwaWtfcHl0aG9uJywgJy1waCcsICc3LjAnLCAnLXRuJywgJzgnLCAnLW1hJywgJzIwMCcsICctbWV0YWxfYmluZGluZycsICctaW1hZScsICc8aW5maWxlLm1hZT4nLCAnLW9tYWUnLCAnPG91dGZpbGUubWFlPic=

> <r_lp_tautomer_probability>
1

> <r_epik_Ionization_Penalty>
3.27035e-05

> <r_epik_Ionization_Penalty_Charging>
1.6965e-11

> <r_epik_Ionization_Penalty_Neutral>
3.27035e-05

> <r_epik_State_Penalty>
-0

> <r_epik_Charging_Adjusted_Penalty>
1.6965e-11

> <i_epik_Tot_Q>
0

> <i_epik_Tot_abs_Q>
0

> <r_epik_Metal_State_Penalty>
-0

> <b_epik_Metal_Only>
0

> <s_lp_Force_Field>
OPLS_2005

> <r_lp_Energy>
26.066

> <b_lp_Chiralities_Consistent>
1

> <s_lp_Variant>
AV-unprocessed.smi:437-2

> <Gold.Version>
5.8.1

> <Gold.Id.Protein>
6NUR|6NUR_protein|mol2

> <Gold.PLP.Fitness>
39.8264

> <Gold.PLP.PLP>
-34.4538

> <Gold.PLP.part.hbond>
-4.0000

> <Gold.PLP.part.metal>
0.0000

> <Gold.PLP.part.buried>
-5.0059

> <Gold.PLP.part.nonpolar>
-25.5286

> <Gold.PLP.part.repulsive>
0.1489

> <Gold.PLP.ligand.clash>
5.0159

> <Gold.PLP.ligand.torsion>
0.4722

> <Gold.PLP.Chemscore.Hbond>
3.7680

> <Gold.PLP.Chemscore.CHOScore>
0.0000

> <Gold.PLP.Chemscore.Metal>
0.0000

> <Gold.Chemscore.Hbonds>
donor molecule, donor type, donor heavy atom, donor atom, acceptor molecule, acceptor atom, score
      L1  H     8    31       P1 10957  0.98
      L1  H    11    32       P1 10957  1.00
      P1  H  6931  6943       L1    23  0.80
      P1  H  6934  6947       L1    23  0.93

> <Gold.PLP.Chemscore.Internal.Correction>
0.0290

> <Gold.Rescore>
     Score         DG    S(hbond)    S(metal)    S(lipo)     H(rot)  DE(clash)    DE(int)     intcor
     17.70     -21.41       3.29        0.00      76.54       1.57       0.10       3.60       ----

> <Gold.Chemscore.Fitness>
17.6991

> <Gold.Chemscore.DG>
-21.4051

> <Gold.Chemscore.ZeroCoef>
-5.4800

> <Gold.Chemscore.Hbond>
3.2867

> <Gold.Chemscore.Metal>
0.0000

> <Gold.Chemscore.Lipo>
76.5417

> <Gold.Chemscore.Internal_Hbond>
0.0000

> <Gold.Chemscore.DEClash>
0.1041

> <Gold.Chemscore.DEInternal>
3.6020

> <Gold.Chemscore.Rot>
1.5656

> <Gold.Chemscore.Internal.Correction>
   9.000000E+99

> <Gold.Chemscore.Hbonds>
donor molecule, donor type, donor heavy atom, donor atom, acceptor molecule, acceptor atom, score
      L1  H     8    31       P1 10957  0.27
      L1  H    11    32       P1 10957  0.49
      P1  H  6931  6943       L1    23  0.79
      P1  H  6934  6947       L1    23  0.90

> <Gold.Chemscore.Hbond.Weighted>
-10.9776

> <Gold.Chemscore.Metal.Weighted>
-0.0000

> <Gold.Chemscore.Lipo.Weighted>
-8.9554

> <Gold.Chemscore.Internal_Hbond.Weighted>
0.0000

> <Gold.Chemscore.DEClash.Weighted>
0.1041

> <Gold.Chemscore.DEInternal.Weighted>
3.6020

> <Gold.Chemscore.Rot.Weighted>
4.0079

> <Gold.Chemscore.Internal.Correction.Weighted>
   9.000000E+99

> <Gold.Protein.RotatedTorsions>
[ 6907 6896 6895 6894 ] final   75.14 input  -60.11 | X-H torsion
[ 7974 7965 7964 7962 ] final   26.30 input  175.53 | X-H torsion
[ 8008 7997 7996 7995 ] final  -79.33 input   59.86 | X-H torsion
[ 10167 10162 10161 10158 ] final  -18.98 input  -65.29 | X-H torsion
[ 10718 10713 10712 10709 ] final -161.72 input   66.30 | X-H torsion
[ 10763 10752 10751 10750 ] final -157.82 input  -60.55 | X-H torsion
[ 11005 11000 10999 10996 ] final  -92.63 input  -57.11 | X-H torsion

> <Gold.Protein.ActiveResidues>
 VAL166  LYS551  ARG553  GLY616  TRP617  ASP618  TYR619  PRO620  LYS621  CYS622 
 ASP623  PHE694  ASN695  SER759  ASP760  ASP761  ALA762  ILE779  LEU786  VAL792 
 PHE793  MET794  SER795  GLU796  ALA797  LYS798  CYS799  TRP800  GLU811  SER814 

> <Gold.Protein.RotatedAtoms>
  152.5011  134.4165  159.9465 H   0  0  0  0  0  0  0  0  0  0  0  0  # atno 6907 bound_to 6896
  151.4136  133.3714  159.2755 H   0  0  0  0  0  0  0  0  0  0  0  0  # atno 6908 bound_to 6896
  150.9274  134.8712  159.7588 H   0  0  0  0  0  0  0  0  0  0  0  0  # atno 6909 bound_to 6896
  146.1844  139.7347  142.8877 H   0  0  0  0  0  0  0  0  0  0  0  0  # atno 7974 bound_to 7965
  154.5775  140.0680  156.9055 H   0  0  0  0  0  0  0  0  0  0  0  0  # atno 8008 bound_to 7997
  155.2523  140.3352  155.4263 H   0  0  0  0  0  0  0  0  0  0  0  0  # atno 8009 bound_to 7997
  156.2165  140.1780  156.7563 H   0  0  0  0  0  0  0  0  0  0  0  0  # atno 8010 bound_to 7997
  140.7264  143.4863  151.0050 H   0  0  0  0  0  0  0  0  0  0  0  0  # atno 10167 bound_to 10162
  156.6002  130.8807  151.2912 H   0  0  0  0  0  0  0  0  0  0  0  0  # atno 10718 bound_to 10713
  154.7606  135.3116  154.8386 H   0  0  0  0  0  0  0  0  0  0  0  0  # atno 10763 bound_to 10752
  153.9148  135.6802  153.4754 H   0  0  0  0  0  0  0  0  0  0  0  0  # atno 10764 bound_to 10752
  153.1206  135.4824  154.9120 H   0  0  0  0  0  0  0  0  0  0  0  0  # atno 10765 bound_to 10752
  141.1517  133.7834  157.0047 H   0  0  0  0  0  0  0  0  0  0  0  0  # atno 11005 bound_to 11000
  145.3981  141.0381  143.3086 LP  0  0  0  0  0  0  0  0  0  0  0  0  # atno 17320 bound_to 7965
  144.8372  139.5531  143.6917 LP  0  0  0  0  0  0  0  0  0  0  0  0  # atno 17321 bound_to 7965
  139.8565  143.7370  152.3175 LP  0  0  0  0  0  0  0  0  0  0  0  0  # atno 17342 bound_to 10162
  139.7570  144.7518  151.0420 LP  0  0  0  0  0  0  0  0  0  0  0  0  # atno 17343 bound_to 10162
  157.7281  130.9653  150.1729 LP  0  0  0  0  0  0  0  0  0  0  0  0  # atno 17370 bound_to 10713
  156.2475  130.3697  149.8268 LP  0  0  0  0  0  0  0  0  0  0  0  0  # atno 17371 bound_to 10713
  140.0917  134.9589  157.1786 LP  0  0  0  0  0  0  0  0  0  0  0  0  # atno 17394 bound_to 11000
  140.3437  134.2675  155.7208 LP  0  0  0  0  0  0  0  0  0  0  0  0  # atno 17395 bound_to 11000

$$$$
