AV-unprocessed.smi:1888|AV-procd|sdf|7657|dock5
  -GOLD-   22720 9393D 1   1.00000     0.00000
 Structure written by MMmdl.
 44 46  0  0  0  0  0  0  0  0  1 V2000
  153.5958  137.1897  161.3955 C   0  0  0  0  0  0  0  0  0  0  0  0
  153.7479  136.9793  159.8874 C   0  0  0  0  0  0  0  0  0  0  0  0
  152.4593  136.9354  159.2984 O   0  0  0  0  0  0  0  0  0  0  0  0
  152.5063  136.8910  157.8828 C   0  0  0  0  0  0  0  0  0  0  0  0
  153.0503  138.2286  157.3645 C   0  0  0  0  0  0  0  0  0  0  0  0
  151.9768  139.1346  156.9729 N   0  0  0  0  0  0  0  0  0  0  0  0
  151.6617  140.3443  157.5053 C   0  0  0  0  0  0  0  0  0  0  0  0
  152.3926  140.8899  158.5829 N   0  0  0  0  0  0  0  0  0  0  0  0
  153.0916  140.0804  159.4080 N   0  0  0  0  0  0  0  0  0  0  0  0
  153.6387  140.8904  160.2987 C   0  0  0  0  0  0  0  0  0  0  0  0
  154.5071  140.3180  161.3796 C   0  0  0  0  0  0  0  0  0  0  0  0
  153.2932  142.2518  160.0710 C   0  0  0  0  0  0  0  0  0  0  0  0
  152.4890  142.2155  158.9666 C   0  0  0  0  0  0  0  0  0  0  0  0
  151.8057  143.3239  158.2345 C   0  0  0  0  0  0  0  0  0  0  0  0
  150.6310  140.9648  156.9234 N   0  0  0  0  0  0  0  0  0  0  0  0
  150.2483  140.0627  155.9414 C   0  0  0  0  0  0  0  0  0  0  0  0
  151.0402  138.9607  155.9552 C   0  0  0  0  0  0  0  0  0  0  0  0
  150.8555  137.8449  155.0202 C   0  0  0  0  0  0  0  0  0  0  0  0
  151.5609  136.8385  155.0193 O   0  0  0  0  0  0  0  0  0  0  0  0
  149.8250  138.0393  154.1613 N   0  0  0  0  0  0  0  0  0  0  0  0
  148.9892  139.1211  154.0939 C   0  0  0  0  0  0  0  0  0  0  0  0
  148.0906  139.1453  153.2534 O   0  0  0  0  0  0  0  0  0  0  0  0
  149.1983  140.1446  154.9854 N   0  0  0  0  0  0  0  0  0  0  0  0
  148.3580  141.3436  154.9995 C   0  0  0  0  0  0  0  0  0  0  0  0
  149.6524  137.2999  153.4957 H   0  0  0  0  0  0  0  0  0  0  0  0
  154.5696  137.2337  161.8834 H   0  0  0  0  0  0  0  0  0  0  0  0
  153.0309  136.3747  161.8483 H   0  0  0  0  0  0  0  0  0  0  0  0
  153.0715  138.1213  161.6096 H   0  0  0  0  0  0  0  0  0  0  0  0
  154.3318  137.7933  159.4549 H   0  0  0  0  0  0  0  0  0  0  0  0
  154.2833  136.0485  159.6939 H   0  0  0  0  0  0  0  0  0  0  0  0
  153.1451  136.0691  157.5562 H   0  0  0  0  0  0  0  0  0  0  0  0
  151.5080  136.7077  157.4834 H   0  0  0  0  0  0  0  0  0  0  0  0
  153.6656  138.7055  158.1277 H   0  0  0  0  0  0  0  0  0  0  0  0
  153.7090  138.0693  156.5112 H   0  0  0  0  0  0  0  0  0  0  0  0
  154.8356  141.0921  162.0734 H   0  0  0  0  0  0  0  0  0  0  0  0
  155.3971  139.8492  160.9593 H   0  0  0  0  0  0  0  0  0  0  0  0
  153.9719  139.5624  161.9556 H   0  0  0  0  0  0  0  0  0  0  0  0
  153.5906  143.1238  160.6345 H   0  0  0  0  0  0  0  0  0  0  0  0
  152.1065  144.2950  158.6280 H   0  0  0  0  0  0  0  0  0  0  0  0
  150.7228  143.2431  158.3324 H   0  0  0  0  0  0  0  0  0  0  0  0
  152.0532  143.3000  157.1730 H   0  0  0  0  0  0  0  0  0  0  0  0
  147.6194  141.3791  154.1978 H   0  0  0  0  0  0  0  0  0  0  0  0
  148.9788  142.2355  154.9064 H   0  0  0  0  0  0  0  0  0  0  0  0
  147.8195  141.4073  155.9455 H   0  0  0  0  0  0  0  0  0  0  0  0
  1  2  1  0  0  0  0
  1 26  1  0  0  0  0
  1 27  1  0  0  0  0
  1 28  1  0  0  0  0
  2  3  1  0  0  0  0
  2 29  1  0  0  0  0
  2 30  1  0  0  0  0
  3  4  1  0  0  0  0
  4  5  1  0  0  0  0
  4 31  1  0  0  0  0
  4 32  1  0  0  0  0
  5  6  1  0  0  0  0
  5 33  1  0  0  0  0
  5 34  1  0  0  0  0
  6 17  1  0  0  0  0
  6  7  1  0  0  0  0
  7  8  1  0  0  0  0
  7 15  2  0  0  0  0
  8 13  1  0  0  0  0
  8  9  1  0  0  0  0
  9 10  2  0  0  0  0
 10 11  1  0  0  0  0
 10 12  1  0  0  0  0
 11 35  1  0  0  0  0
 11 36  1  0  0  0  0
 11 37  1  0  0  0  0
 12 13  2  0  0  0  0
 12 38  1  0  0  0  0
 13 14  1  0  0  0  0
 14 39  1  0  0  0  0
 14 40  1  0  0  0  0
 14 41  1  0  0  0  0
 15 16  1  0  0  0  0
 16 23  1  0  0  0  0
 16 17  2  0  0  0  0
 17 18  1  0  0  0  0
 18 19  2  0  0  0  0
 18 20  1  0  0  0  0
 20 25  1  0  0  0  0
 20 21  1  0  0  0  0
 21 22  2  0  0  0  0
 21 23  1  0  0  0  0
 23 24  1  0  0  0  0
 24 42  1  0  0  0  0
 24 43  1  0  0  0  0
 24 44  1  0  0  0  0
M  END
> <s_m_source_file>
AV-unprocessed.smi

> <i_m_source_file_index>
1888

> <i_lp_mmshare_version>
43012

> <i_f3d_flags>
0

> <s_epik_input>
W0NIM11uMWMoPU8pW25IXWMoPU8pYyhjMTIpbihbQ0gyXVtDSDJdT1tDSDJdW0NIM10pYyhuMiktbjNuYyhbQ0gzXSlbY0hdYzNbQ0gzXQ==

> <s_epik_cmdline>
J2VwaWtfcHl0aG9uJywgJy1waCcsICc3LjAnLCAnLXRuJywgJzgnLCAnLW1hJywgJzIwMCcsICctbWV0YWxfYmluZGluZycsICctaW1hZScsICc8aW5maWxlLm1hZT4nLCAnLW9tYWUnLCAnPG91dGZpbGUubWFlPic=

> <r_lp_tautomer_probability>
1

> <r_epik_Ionization_Penalty>
0.00155345

> <r_epik_Ionization_Penalty_Charging>
0.000715499

> <r_epik_Ionization_Penalty_Neutral>
0.000837951

> <r_epik_State_Penalty>
-0

> <r_epik_Charging_Adjusted_Penalty>
0.000715499

> <i_epik_Tot_Q>
0

> <i_epik_Tot_abs_Q>
0

> <r_epik_Metal_State_Penalty>
0.258535

> <b_epik_Metal_Only>
0

> <s_lp_Force_Field>
OPLS_2005

> <r_lp_Energy>
26.5558

> <b_lp_Chiralities_Consistent>
1

> <s_lp_Variant>
AV-unprocessed.smi:1888-1

> <Gold.Version>
5.8.1

> <Gold.Id.Protein>
6NUR|6NUR_protein|mol2

> <Gold.PLP.Fitness>
47.1732

> <Gold.PLP.PLP>
-39.0423

> <Gold.PLP.part.hbond>
-3.0000

> <Gold.PLP.part.metal>
0.0000

> <Gold.PLP.part.buried>
-6.3668

> <Gold.PLP.part.nonpolar>
-33.3482

> <Gold.PLP.part.repulsive>
3.0000

> <Gold.PLP.ligand.clash>
0.0000

> <Gold.PLP.ligand.torsion>
0.5020

> <Gold.PLP.Chemscore.Hbond>
2.9013

> <Gold.PLP.Chemscore.CHOScore>
0.0000

> <Gold.PLP.Chemscore.Metal>
0.0000

> <Gold.Chemscore.Hbonds>
donor molecule, donor type, donor heavy atom, donor atom, acceptor molecule, acceptor atom, score
      L1  H    20    25       P1  7948  0.98
      P1  H  6896  6908       L1     3  0.98
      P1  H 10752 10765       L1    19  1.00

> <Gold.PLP.Chemscore.Internal.Correction>
0.4312

> <Gold.Rescore>
     Score         DG    S(hbond)    S(metal)    S(lipo)     H(rot)  DE(clash)    DE(int)     intcor
     14.53     -17.73       2.32        0.00      75.49       1.70       0.02       3.18       ----

> <Gold.Chemscore.Fitness>
14.5334

> <Gold.Chemscore.DG>
-17.7297

> <Gold.Chemscore.ZeroCoef>
-5.4800

> <Gold.Chemscore.Hbond>
2.3225

> <Gold.Chemscore.Metal>
0.0000

> <Gold.Chemscore.Lipo>
75.4927

> <Gold.Chemscore.Internal_Hbond>
0.0000

> <Gold.Chemscore.DEClash>
0.0202

> <Gold.Chemscore.DEInternal>
3.1760

> <Gold.Chemscore.Rot>
1.6953

> <Gold.Chemscore.Internal.Correction>
   9.000000E+99

> <Gold.Chemscore.Hbonds>
donor molecule, donor type, donor heavy atom, donor atom, acceptor molecule, acceptor atom, score
      L1  H    20    25       P1  7948  0.71
      P1  H  6896  6908       L1     3  0.16
      P1  H 10752 10765       L1    19  0.99

> <Gold.Chemscore.Hbond.Weighted>
-7.7570

> <Gold.Chemscore.Metal.Weighted>
-0.0000

> <Gold.Chemscore.Lipo.Weighted>
-8.8326

> <Gold.Chemscore.Internal_Hbond.Weighted>
0.0000

> <Gold.Chemscore.DEClash.Weighted>
0.0202

> <Gold.Chemscore.DEInternal.Weighted>
3.1760

> <Gold.Chemscore.Rot.Weighted>
4.3399

> <Gold.Chemscore.Internal.Correction.Weighted>
   9.000000E+99

> <Gold.Protein.RotatedTorsions>
[ 6907 6896 6895 6894 ] final -107.29 input  -60.11 | X-H torsion
[ 7974 7965 7964 7962 ] final   12.61 input  175.53 | X-H torsion
[ 8008 7997 7996 7995 ] final   76.80 input   59.86 | X-H torsion
[ 10167 10162 10161 10158 ] final -175.18 input  -65.29 | X-H torsion
[ 10718 10713 10712 10709 ] final  -96.95 input   66.30 | X-H torsion
[ 10763 10752 10751 10750 ] final  168.82 input  -60.55 | X-H torsion
[ 11005 11000 10999 10996 ] final  -55.43 input  -57.11 | X-H torsion

> <Gold.Protein.ActiveResidues>
 VAL166  LYS551  ARG553  GLY616  TRP617  ASP618  TYR619  PRO620  LYS621  CYS622 
 ASP623  PHE694  ASN695  SER759  ASP760  ASP761  ALA762  ILE779  LEU786  VAL792 
 PHE793  MET794  SER795  GLU796  ALA797  LYS798  CYS799  TRP800  GLU811  SER814 

> <Gold.Protein.RotatedAtoms>
  150.7436  133.9848  159.3587 H   0  0  0  0  0  0  0  0  0  0  0  0  # atno 6907 bound_to 6896
  151.7792  135.0764  160.0380 H   0  0  0  0  0  0  0  0  0  0  0  0  # atno 6908 bound_to 6896
  152.3285  133.5895  159.5830 H   0  0  0  0  0  0  0  0  0  0  0  0  # atno 6909 bound_to 6896
  146.2347  139.9311  142.8496 H   0  0  0  0  0  0  0  0  0  0  0  0  # atno 7974 bound_to 7965
  155.8325  140.3465  155.5581 H   0  0  0  0  0  0  0  0  0  0  0  0  # atno 8008 bound_to 7997
  155.8227  140.0915  157.1859 H   0  0  0  0  0  0  0  0  0  0  0  0  # atno 8009 bound_to 7997
  154.4004  140.1427  156.3507 H   0  0  0  0  0  0  0  0  0  0  0  0  # atno 8010 bound_to 7997
  139.5594  144.1907  152.1214 H   0  0  0  0  0  0  0  0  0  0  0  0  # atno 10167 bound_to 10162
  156.0073  130.5173  150.6302 H   0  0  0  0  0  0  0  0  0  0  0  0  # atno 10718 bound_to 10713
  154.3742  135.2753  155.2249 H   0  0  0  0  0  0  0  0  0  0  0  0  # atno 10763 bound_to 10752
  154.4383  135.5960  153.6116 H   0  0  0  0  0  0  0  0  0  0  0  0  # atno 10764 bound_to 10752
  152.9837  135.6012  154.3977 H   0  0  0  0  0  0  0  0  0  0  0  0  # atno 10765 bound_to 10752
  141.1073  133.6612  156.4468 H   0  0  0  0  0  0  0  0  0  0  0  0  # atno 11005 bound_to 11000
  145.2043  140.9868  143.4137 LP  0  0  0  0  0  0  0  0  0  0  0  0  # atno 17320 bound_to 7965
  144.9746  139.3845  143.6292 LP  0  0  0  0  0  0  0  0  0  0  0  0  # atno 17321 bound_to 7965
  140.1418  144.5195  150.6740 LP  0  0  0  0  0  0  0  0  0  0  0  0  # atno 17342 bound_to 10162
  140.6872  143.2356  151.5229 LP  0  0  0  0  0  0  0  0  0  0  0  0  # atno 17343 bound_to 10162
  157.4101  131.0822  151.1229 LP  0  0  0  0  0  0  0  0  0  0  0  0  # atno 17370 bound_to 10713
  157.1863  130.6332  149.5689 LP  0  0  0  0  0  0  0  0  0  0  0  0  # atno 17371 bound_to 10713
  140.4868  134.6613  157.5194 LP  0  0  0  0  0  0  0  0  0  0  0  0  # atno 17394 bound_to 11000
  139.9949  134.6926  155.9626 LP  0  0  0  0  0  0  0  0  0  0  0  0  # atno 17395 bound_to 11000

$$$$
