AV-unprocessed.smi:1601|AV-procd|sdf|6436|dock3
  -GOLD-   22720 7 83D 1   1.00000     0.00000
 Structure written by MMmdl.
 42 43  0  0  0  0  0  0  0  0  2 V2000
  148.2903  140.0411  157.4527 C   0  0  0  0  0  0  0  0  0  0  0  0
  148.7412  141.4812  157.1004 C   0  0  1  0  0  0  0  0  0  0  0  0
  150.2026  141.4714  156.5769 C   0  0  0  0  0  0  0  0  0  0  0  0
  151.1534  141.9535  157.5715 N   0  0  0  0  0  0  0  0  0  0  0  0
  152.2098  141.2579  158.0181 C   0  0  0  0  0  0  0  0  0  0  0  0
  152.4969  140.1347  157.6021 O   0  0  0  0  0  0  0  0  0  0  0  0
  153.0592  141.9413  159.1015 C   0  0  2  0  0  0  0  0  0  0  0  0
  153.0799  141.1647  160.4318 C   0  0  0  0  0  0  0  0  0  0  0  0
  152.6103  143.3136  159.3010 N   0  0  0  0  0  0  0  0  0  0  0  0
  152.2208  143.9367  160.4710 C   0  0  0  0  0  0  0  0  0  0  0  0
  151.8700  145.2178  160.1553 C   0  0  0  0  0  0  0  0  0  0  0  0
  152.0760  145.2873  158.7495 C   0  0  0  0  0  0  0  0  0  0  0  0
  152.5139  144.1468  158.2412 N   0  0  0  0  0  0  0  0  0  0  0  0
  147.7965  142.1357  156.1332 N   0  3  0  0  0  0  0  0  0  0  0  0
  147.7146  141.4410  154.8171 C   0  0  0  0  0  0  0  0  0  0  0  0
  146.7491  142.1568  153.8579 C   0  0  0  0  0  0  0  0  0  0  0  0
  145.4645  142.2470  154.4520 O   0  0  0  0  0  0  0  0  0  0  0  0
  145.5037  143.0199  155.6403 C   0  0  0  0  0  0  0  0  0  0  0  0
  146.4226  142.3445  156.6725 C   0  0  0  0  0  0  0  0  0  0  0  0
  149.0034  139.5295  158.0988 H   0  0  0  0  0  0  0  0  0  0  0  0
  148.1715  139.4335  156.5552 H   0  0  0  0  0  0  0  0  0  0  0  0
  147.3502  140.0233  158.0020 H   0  0  0  0  0  0  0  0  0  0  0  0
  148.7254  142.0680  158.0205 H   0  0  0  0  0  0  0  0  0  0  0  0
  150.4741  140.4626  156.2600 H   0  0  0  0  0  0  0  0  0  0  0  0
  150.3228  142.1276  155.7160 H   0  0  0  0  0  0  0  0  0  0  0  0
  150.9867  142.8687  157.9654 H   0  0  0  0  0  0  0  0  0  0  0  0
  154.0852  141.9709  158.7289 H   0  0  0  0  0  0  0  0  0  0  0  0
  153.4431  140.1463  160.2894 H   0  0  0  0  0  0  0  0  0  0  0  0
  152.0887  141.1047  160.8832 H   0  0  0  0  0  0  0  0  0  0  0  0
  153.7411  141.6477  161.1519 H   0  0  0  0  0  0  0  0  0  0  0  0
  152.2253  143.4211  161.4203 H   0  0  0  0  0  0  0  0  0  0  0  0
  151.5188  145.9877  160.8260 H   0  0  0  0  0  0  0  0  0  0  0  0
  151.9186  146.1261  158.0874 H   0  0  0  0  0  0  0  0  0  0  0  0
  148.6861  141.4079  154.3277 H   0  0  0  0  0  0  0  0  0  0  0  0
  147.3922  140.4097  154.9684 H   0  0  0  0  0  0  0  0  0  0  0  0
  147.1187  143.1509  153.6000 H   0  0  0  0  0  0  0  0  0  0  0  0
  146.6656  141.5987  152.9253 H   0  0  0  0  0  0  0  0  0  0  0  0
  145.8417  144.0340  155.4209 H   0  0  0  0  0  0  0  0  0  0  0  0
  144.4921  143.1033  156.0384 H   0  0  0  0  0  0  0  0  0  0  0  0
  145.9999  141.3863  156.9789 H   0  0  0  0  0  0  0  0  0  0  0  0
  146.4377  142.9897  157.5487 H   0  0  0  0  0  0  0  0  0  0  0  0
  148.1704  143.0556  155.9474 H   0  0  0  0  0  0  0  0  0  0  0  0
  1  2  1  0  0  0  0
  1 20  1  0  0  0  0
  1 21  1  0  0  0  0
  1 22  1  0  0  0  0
  2  3  1  0  0  0  0
  2 14  1  0  0  0  0
  2 23  1  0  0  0  0
  3  4  1  0  0  0  0
  3 24  1  0  0  0  0
  3 25  1  0  0  0  0
  4  5  1  0  0  0  0
  4 26  1  0  0  0  0
  5  6  2  0  0  0  0
  5  7  1  0  0  0  0
  7  8  1  0  0  0  0
  7  9  1  0  0  0  0
  7 27  1  0  0  0  0
  8 28  1  0  0  0  0
  8 29  1  0  0  0  0
  8 30  1  0  0  0  0
  9 13  1  0  0  0  0
  9 10  1  0  0  0  0
 10 11  2  0  0  0  0
 10 31  1  0  0  0  0
 11 12  1  0  0  0  0
 11 32  1  0  0  0  0
 12 13  2  0  0  0  0
 12 33  1  0  0  0  0
 14 19  1  0  0  0  0
 14 15  1  0  0  0  0
 14 42  1  0  0  0  0
 15 16  1  0  0  0  0
 15 34  1  0  0  0  0
 15 35  1  0  0  0  0
 16 17  1  0  0  0  0
 16 36  1  0  0  0  0
 16 37  1  0  0  0  0
 17 18  1  0  0  0  0
 18 19  1  0  0  0  0
 18 38  1  0  0  0  0
 18 39  1  0  0  0  0
 19 40  1  0  0  0  0
 19 41  1  0  0  0  0
M  CHG  1  14   1
M  END
> <s_m_source_file>
AV-unprocessed.smi

> <i_m_source_file_index>
1601

> <i_lp_mmshare_version>
43012

> <i_f3d_flags>
0

> <s_epik_input>
W0NIMl0xW0NIMl1PW0NIMl1bQ0gyXU4xW0NASF0oW0NIM10pW0NIMl1bTkhdQyg9TylbQ0BIXShbQ0gzXSluMltjSF1bY0hdW2NIXW4y

> <s_epik_cmdline>
J2VwaWtfcHl0aG9uJywgJy1waCcsICc3LjAnLCAnLXRuJywgJzgnLCAnLW1hJywgJzIwMCcsICctbWV0YWxfYmluZGluZycsICctaW1hZScsICc8aW5maWxlLm1hZT4nLCAnLW9tYWUnLCAnPG91dGZpbGUubWFlPic=

> <r_lp_tautomer_probability>
1

> <r_epik_Ionization_Penalty>
0.732551

> <r_epik_Ionization_Penalty_Charging>
0.732531

> <r_epik_Ionization_Penalty_Neutral>
2.04647e-05

> <r_epik_State_Penalty>
0.757939

> <r_epik_Charging_Adjusted_Penalty>
1.49047

> <i_epik_Tot_Q>
1

> <i_epik_Tot_abs_Q>
1

> <r_epik_Metal_State_Penalty>
0.757952

> <b_epik_Metal_Only>
0

> <s_lp_Force_Field>
OPLS_2005

> <r_lp_Energy>
25.0975

> <b_lp_Chiralities_Consistent>
1

> <s_lp_Variant>
AV-unprocessed.smi:1601-6

> <Gold.Version>
5.8.1

> <Gold.Id.Protein>
6NUR|6NUR_protein|mol2

> <Gold.PLP.Fitness>
48.1800

> <Gold.PLP.PLP>
-40.5915

> <Gold.PLP.part.hbond>
-2.0000

> <Gold.PLP.part.metal>
0.0000

> <Gold.PLP.part.buried>
-7.5803

> <Gold.PLP.part.nonpolar>
-30.2083

> <Gold.PLP.part.repulsive>
0.2954

> <Gold.PLP.ligand.clash>
0.0000

> <Gold.PLP.ligand.torsion>
0.7760

> <Gold.PLP.Chemscore.Hbond>
2.9913

> <Gold.PLP.Chemscore.CHOScore>
0.0000

> <Gold.PLP.Chemscore.Metal>
0.0000

> <Gold.Chemscore.Hbonds>
donor molecule, donor type, donor heavy atom, donor atom, acceptor molecule, acceptor atom, score
      L1  H    14    42       P1  8028  2.00
      P1  H  7997  8008       L1     6  0.83

> <Gold.PLP.Chemscore.Internal.Correction>
0.1668

> <Gold.Rescore>
     Score         DG    S(hbond)    S(metal)    S(lipo)     H(rot)  DE(clash)    DE(int)     intcor
     15.16     -17.42       1.88        0.00      89.24       1.86       0.03       2.23       ----

> <Gold.Chemscore.Fitness>
15.1561

> <Gold.Chemscore.DG>
-17.4168

> <Gold.Chemscore.ZeroCoef>
-5.4800

> <Gold.Chemscore.Hbond>
1.8759

> <Gold.Chemscore.Metal>
0.0000

> <Gold.Chemscore.Lipo>
89.2402

> <Gold.Chemscore.Internal_Hbond>
0.0000

> <Gold.Chemscore.DEClash>
0.0347

> <Gold.Chemscore.DEInternal>
2.2260

> <Gold.Chemscore.Rot>
1.8631

> <Gold.Chemscore.Internal.Correction>
   9.000000E+99

> <Gold.Chemscore.Hbonds>
donor molecule, donor type, donor heavy atom, donor atom, acceptor molecule, acceptor atom, score
      L1  H    14    42       P1  8028  0.78
      P1  H  7997  8008       L1     6  0.65

> <Gold.Chemscore.Hbond.Weighted>
-6.2654

> <Gold.Chemscore.Metal.Weighted>
-0.0000

> <Gold.Chemscore.Lipo.Weighted>
-10.4411

> <Gold.Chemscore.Internal_Hbond.Weighted>
0.0000

> <Gold.Chemscore.DEClash.Weighted>
0.0347

> <Gold.Chemscore.DEInternal.Weighted>
2.2260

> <Gold.Chemscore.Rot.Weighted>
4.7697

> <Gold.Chemscore.Internal.Correction.Weighted>
   9.000000E+99

> <Gold.Protein.RotatedTorsions>
[ 6907 6896 6895 6894 ] final  169.63 input  -60.11 | X-H torsion
[ 7974 7965 7964 7962 ] final -122.87 input  175.53 | X-H torsion
[ 8008 7997 7996 7995 ] final  -65.35 input   59.86 | X-H torsion
[ 10167 10162 10161 10158 ] final   95.32 input  -65.29 | X-H torsion
[ 10718 10713 10712 10709 ] final  -96.36 input   66.30 | X-H torsion
[ 10763 10752 10751 10750 ] final  150.69 input  -60.55 | X-H torsion
[ 11005 11000 10999 10996 ] final -152.88 input  -57.11 | X-H torsion

> <Gold.Protein.ActiveResidues>
 VAL166  LYS551  ARG553  GLY616  TRP617  ASP618  TYR619  PRO620  LYS621  CYS622 
 ASP623  PHE694  ASN695  SER759  ASP760  ASP761  ALA762  ILE779  LEU786  VAL792 
 PHE793  MET794  SER795  GLU796  ALA797  LYS798  CYS799  TRP800  GLU811  SER814 

> <Gold.Protein.RotatedAtoms>
  151.8289  133.3405  159.3606 H   0  0  0  0  0  0  0  0  0  0  0  0  # atno 6907 bound_to 6896
  150.7270  134.5502  159.5800 H   0  0  0  0  0  0  0  0  0  0  0  0  # atno 6908 bound_to 6896
  152.2950  134.7678  160.0421 H   0  0  0  0  0  0  0  0  0  0  0  0  # atno 6909 bound_to 6896
  145.0248  140.8019  143.4359 H   0  0  0  0  0  0  0  0  0  0  0  0  # atno 7974 bound_to 7965
  154.4666  140.0935  156.7037 H   0  0  0  0  0  0  0  0  0  0  0  0  # atno 8008 bound_to 7997
  155.4840  140.3468  155.4326 H   0  0  0  0  0  0  0  0  0  0  0  0  # atno 8009 bound_to 7997
  156.0967  140.1411  156.9510 H   0  0  0  0  0  0  0  0  0  0  0  0  # atno 8010 bound_to 7997
  139.8000  144.6818  150.9778 H   0  0  0  0  0  0  0  0  0  0  0  0  # atno 10167 bound_to 10162
  156.0060  130.5148  150.6214 H   0  0  0  0  0  0  0  0  0  0  0  0  # atno 10718 bound_to 10713
  154.0916  135.2852  155.3270 H   0  0  0  0  0  0  0  0  0  0  0  0  # atno 10763 bound_to 10752
  154.6616  135.5332  153.8028 H   0  0  0  0  0  0  0  0  0  0  0  0  # atno 10764 bound_to 10752
  153.0411  135.6535  154.1085 H   0  0  0  0  0  0  0  0  0  0  0  0  # atno 10765 bound_to 10752
  140.7142  134.3799  157.5193 H   0  0  0  0  0  0  0  0  0  0  0  0  # atno 11005 bound_to 11000
  145.1847  139.2332  143.5274 LP  0  0  0  0  0  0  0  0  0  0  0  0  # atno 17320 bound_to 7965
  146.3490  140.1630  142.8590 LP  0  0  0  0  0  0  0  0  0  0  0  0  # atno 17321 bound_to 7965
  140.7820  143.4292  151.0721 LP  0  0  0  0  0  0  0  0  0  0  0  0  # atno 17342 bound_to 10162
  139.7964  143.8145  152.3158 LP  0  0  0  0  0  0  0  0  0  0  0  0  # atno 17343 bound_to 10162
  157.4028  131.0812  151.1292 LP  0  0  0  0  0  0  0  0  0  0  0  0  # atno 17370 bound_to 10713
  157.1948  130.6368  149.5717 LP  0  0  0  0  0  0  0  0  0  0  0  0  # atno 17371 bound_to 10713
  139.8864  134.8910  156.2587 LP  0  0  0  0  0  0  0  0  0  0  0  0  # atno 17394 bound_to 11000
  141.0059  133.7124  156.1034 LP  0  0  0  0  0  0  0  0  0  0  0  0  # atno 17395 bound_to 11000

$$$$
