AV-unprocessed.smi:83|AV-procd|sdf|807|dock2
  -GOLD-   2262017203D 1   1.00000     0.00000
 Structure written by MMmdl.
 56 59  0  0  0  0  0  0  0  0  1 V2000
  144.4483  143.4614  160.7421 C   0  0  0  0  0  0  0  0  0  0  0  0
  145.8432  143.0012  160.3152 C   0  0  0  0  0  0  0  0  0  0  0  0
  145.9944  141.8481  159.9117 O   0  0  0  0  0  0  0  0  0  0  0  0
  146.8623  143.8799  160.3999 N   0  0  0  0  0  0  0  0  0  0  0  0
  146.7603  145.2661  160.8532 C   0  0  0  0  0  0  0  0  0  0  0  0
  148.1311  145.8878  160.5789 C   0  0  0  0  0  0  0  0  0  0  0  0
  149.0897  144.7022  160.6105 C   0  0  2  0  0  0  0  0  0  0  0  0
  150.4204  144.9520  159.8728 C   0  0  0  0  0  0  0  0  0  0  0  0
  151.5201  144.1401  160.3976 N   0  0  0  0  0  0  0  0  0  0  0  0
  151.9568  144.3759  161.7676 C   0  0  0  0  0  0  0  0  0  0  0  0
  151.7961  142.9478  159.8016 C   0  0  0  0  0  0  0  0  0  0  0  0
  151.1868  142.6739  158.6174 N   0  0  0  0  0  0  0  0  0  0  0  0
  151.4032  141.5156  157.9892 C   0  0  0  0  0  0  0  0  0  0  0  0
  152.1792  140.4981  158.3623 N   0  0  0  0  0  0  0  0  0  0  0  0
  152.7945  140.7592  159.5502 C   0  0  0  0  0  0  0  0  0  0  0  0
  152.6674  141.9461  160.3294 C   0  0  0  0  0  0  0  0  0  0  0  0
  153.4427  141.8274  161.4794 N   0  0  0  0  0  0  0  0  0  0  0  0
  153.9968  140.6505  161.3811 C   0  0  0  0  0  0  0  0  0  0  0  0
  153.6591  139.9407  160.2534 N   0  0  0  0  0  0  0  0  0  0  0  0
  154.1148  138.6111  159.8904 C   0  0  0  0  0  0  0  0  0  0  0  0
  153.4081  137.5075  160.6997 C   0  0  1  0  0  0  0  0  0  0  0  0
  153.5821  136.2467  160.0795 O   0  0  0  0  0  0  0  0  0  0  0  0
  153.8695  137.4595  162.1701 C   0  0  1  0  0  0  0  0  0  0  0  0
  153.1483  136.4519  163.0815 C   0  0  0  0  0  0  0  0  0  0  0  0
  154.2794  135.7567  163.8243 C   0  0  0  0  0  0  0  0  0  0  0  0
  155.4784  136.6682  163.5869 C   0  0  0  0  0  0  0  0  0  0  0  0
  155.2548  137.1546  162.2745 O   0  0  0  0  0  0  0  0  0  0  0  0
  148.2408  143.5584  160.0434 C   0  0  0  0  0  0  0  0  0  0  0  0
  144.4594  143.8311  161.7678 H   0  0  0  0  0  0  0  0  0  0  0  0
  143.7385  142.6350  160.6916 H   0  0  0  0  0  0  0  0  0  0  0  0
  144.0876  144.2547  160.0870 H   0  0  0  0  0  0  0  0  0  0  0  0
  145.9707  145.8133  160.3366 H   0  0  0  0  0  0  0  0  0  0  0  0
  146.5433  145.2782  161.9223 H   0  0  0  0  0  0  0  0  0  0  0  0
  148.1330  146.3417  159.5867 H   0  0  0  0  0  0  0  0  0  0  0  0
  148.3933  146.6624  161.3003 H   0  0  0  0  0  0  0  0  0  0  0  0
  149.2979  144.4818  161.6589 H   0  0  0  0  0  0  0  0  0  0  0  0
  150.2908  144.8075  158.8001 H   0  0  0  0  0  0  0  0  0  0  0  0
  150.6974  146.0002  159.9890 H   0  0  0  0  0  0  0  0  0  0  0  0
  152.9848  144.0424  161.9134 H   0  0  0  0  0  0  0  0  0  0  0  0
  151.3126  143.8535  162.4753 H   0  0  0  0  0  0  0  0  0  0  0  0
  151.9195  145.4400  162.0018 H   0  0  0  0  0  0  0  0  0  0  0  0
  150.8774  141.3851  157.0549 H   0  0  0  0  0  0  0  0  0  0  0  0
  154.6700  140.2650  162.1332 H   0  0  0  0  0  0  0  0  0  0  0  0
  153.9534  138.4671  158.8210 H   0  0  0  0  0  0  0  0  0  0  0  0
  155.1925  138.5661  160.0520 H   0  0  0  0  0  0  0  0  0  0  0  0
  152.3363  137.7092  160.6961 H   0  0  0  0  0  0  0  0  0  0  0  0
  154.3824  136.2679  159.5777 H   0  0  0  0  0  0  0  0  0  0  0  0
  153.7416  138.4540  162.6016 H   0  0  0  0  0  0  0  0  0  0  0  0
  152.4865  136.9754  163.7727 H   0  0  0  0  0  0  0  0  0  0  0  0
  152.5427  135.7287  162.5349 H   0  0  0  0  0  0  0  0  0  0  0  0
  154.0664  135.6060  164.8831 H   0  0  0  0  0  0  0  0  0  0  0  0
  154.4676  134.7805  163.3758 H   0  0  0  0  0  0  0  0  0  0  0  0
  155.4818  137.5017  164.2913 H   0  0  0  0  0  0  0  0  0  0  0  0
  156.4307  136.1437  163.6666 H   0  0  0  0  0  0  0  0  0  0  0  0
  148.5556  142.5945  160.4473 H   0  0  0  0  0  0  0  0  0  0  0  0
  148.3172  143.5124  158.9560 H   0  0  0  0  0  0  0  0  0  0  0  0
  1  2  1  0  0  0  0
  1 29  1  0  0  0  0
  1 30  1  0  0  0  0
  1 31  1  0  0  0  0
  2  3  2  0  0  0  0
  2  4  1  0  0  0  0
  4 28  1  0  0  0  0
  4  5  1  0  0  0  0
  5  6  1  0  0  0  0
  5 32  1  0  0  0  0
  5 33  1  0  0  0  0
  6  7  1  0  0  0  0
  6 34  1  0  0  0  0
  6 35  1  0  0  0  0
  7  8  1  0  0  0  0
  7 28  1  0  0  0  0
  7 36  1  0  0  0  0
  8  9  1  0  0  0  0
  8 37  1  0  0  0  0
  8 38  1  0  0  0  0
  9 10  1  0  0  0  0
  9 11  1  0  0  0  0
 10 39  1  0  0  0  0
 10 40  1  0  0  0  0
 10 41  1  0  0  0  0
 11 16  1  0  0  0  0
 11 12  2  0  0  0  0
 12 13  1  0  0  0  0
 13 14  2  0  0  0  0
 13 42  1  0  0  0  0
 14 15  1  0  0  0  0
 15 19  1  0  0  0  0
 15 16  2  0  0  0  0
 16 17  1  0  0  0  0
 17 18  2  0  0  0  0
 18 19  1  0  0  0  0
 18 43  1  0  0  0  0
 19 20  1  0  0  0  0
 20 21  1  0  0  0  0
 20 44  1  0  0  0  0
 20 45  1  0  0  0  0
 21 22  1  0  0  0  0
 21 23  1  0  0  0  0
 21 46  1  0  0  0  0
 22 47  1  0  0  0  0
 23 27  1  0  0  0  0
 23 24  1  0  0  0  0
 23 48  1  0  0  0  0
 24 25  1  0  0  0  0
 24 49  1  0  0  0  0
 24 50  1  0  0  0  0
 25 26  1  0  0  0  0
 25 51  1  0  0  0  0
 25 52  1  0  0  0  0
 26 27  1  0  0  0  0
 26 53  1  0  0  0  0
 26 54  1  0  0  0  0
 28 55  1  0  0  0  0
 28 56  1  0  0  0  0
M  END
> <s_m_source_file>
AV-unprocessed.smi

> <i_m_source_file_index>
83

> <i_lp_mmshare_version>
43012

> <i_f3d_flags>
0

> <s_epik_input>
W0NIM11DKD1PKU4xW0NIMl1bQ0gyXVtDQEhdKFtDSDJdMSlbQ0gyXU4oW0NIM10pYyhuW2NIXW4yKWMoYzIzKW5bY0hdbjNbQ0gyXVtDQEhdKFtPSF0pW0NAQEhdNFtDSDJdW0NIMl1bQ0gyXU80

> <s_epik_cmdline>
J2VwaWtfcHl0aG9uJywgJy1waCcsICc3LjAnLCAnLXRuJywgJzgnLCAnLW1hJywgJzIwMCcsICctbWV0YWxfYmluZGluZycsICctaW1hZScsICc8aW5maWxlLm1hZT4nLCAnLW9tYWUnLCAnPG91dGZpbGUubWFlPic=

> <r_lp_tautomer_probability>
1

> <r_epik_Ionization_Penalty>
0.00109752

> <r_epik_Ionization_Penalty_Charging>
0

> <r_epik_Ionization_Penalty_Neutral>
0.00109752

> <r_epik_State_Penalty>
0.000634803

> <r_epik_Charging_Adjusted_Penalty>
0.000634803

> <i_epik_Tot_Q>
0

> <i_epik_Tot_abs_Q>
0

> <r_epik_Metal_State_Penalty>
-0

> <b_epik_Metal_Only>
0

> <s_lp_Force_Field>
OPLS_2005

> <r_lp_Energy>
54.4429

> <b_lp_Chiralities_Consistent>
1

> <s_lp_Variant>
AV-unprocessed.smi:83-8

> <Gold.Version>
5.8.1

> <Gold.Id.Protein>
6NUR|6NUR_protein|mol2

> <Gold.PLP.Fitness>
55.1210

> <Gold.PLP.PLP>
-50.3916

> <Gold.PLP.part.hbond>
-2.1863

> <Gold.PLP.part.metal>
0.0000

> <Gold.PLP.part.buried>
-1.6408

> <Gold.PLP.part.nonpolar>
-47.6604

> <Gold.PLP.part.repulsive>
0.0655

> <Gold.PLP.ligand.clash>
0.0000

> <Gold.PLP.ligand.torsion>
0.8860

> <Gold.PLP.Chemscore.Hbond>
2.0000

> <Gold.PLP.Chemscore.CHOScore>
0.0000

> <Gold.PLP.Chemscore.Metal>
0.0000

> <Gold.Chemscore.Hbonds>
donor molecule, donor type, donor heavy atom, donor atom, acceptor molecule, acceptor atom, score
      P1  H  6896  6907       L1    22  1.00
      P1  H  6934  6946       L1     3  1.00

> <Gold.PLP.Chemscore.Internal.Correction>
0.5013

> <Gold.Rescore>
     Score         DG    S(hbond)    S(metal)    S(lipo)     H(rot)  DE(clash)    DE(int)     intcor
     12.74     -17.10       1.97        0.00     100.25       2.62       2.23       2.13       ----

> <Gold.Chemscore.Fitness>
12.7351

> <Gold.Chemscore.DG>
-17.0969

> <Gold.Chemscore.ZeroCoef>
-5.4800

> <Gold.Chemscore.Hbond>
1.9708

> <Gold.Chemscore.Metal>
0.0000

> <Gold.Chemscore.Lipo>
100.2497

> <Gold.Chemscore.Internal_Hbond>
0.0000

> <Gold.Chemscore.DEClash>
2.2270

> <Gold.Chemscore.DEInternal>
2.1348

> <Gold.Chemscore.Rot>
2.6152

> <Gold.Chemscore.Internal.Correction>
   9.000000E+99

> <Gold.Chemscore.Hbonds>
donor molecule, donor type, donor heavy atom, donor atom, acceptor molecule, acceptor atom, score
      P1  H  6896  6907       L1    22  0.99
      P1  H  6934  6946       L1     3  0.95

> <Gold.Chemscore.Hbond.Weighted>
-6.5826

> <Gold.Chemscore.Metal.Weighted>
-0.0000

> <Gold.Chemscore.Lipo.Weighted>
-11.7292

> <Gold.Chemscore.Internal_Hbond.Weighted>
0.0000

> <Gold.Chemscore.DEClash.Weighted>
2.2270

> <Gold.Chemscore.DEInternal.Weighted>
2.1348

> <Gold.Chemscore.Rot.Weighted>
6.6949

> <Gold.Chemscore.Internal.Correction.Weighted>
   9.000000E+99

> <Gold.Protein.RotatedTorsions>
[ 6907 6896 6895 6894 ] final   39.63 input  -60.11 | X-H torsion
[ 7974 7965 7964 7962 ] final -153.56 input  175.53 | X-H torsion
[ 8008 7997 7996 7995 ] final  162.39 input   59.86 | X-H torsion
[ 10167 10162 10161 10158 ] final  -13.41 input  -65.29 | X-H torsion
[ 10718 10713 10712 10709 ] final  -16.57 input   66.30 | X-H torsion
[ 10763 10752 10751 10750 ] final   41.30 input  -60.55 | X-H torsion
[ 11005 11000 10999 10996 ] final -144.04 input  -57.11 | X-H torsion

> <Gold.Protein.ActiveResidues>
 VAL166  LYS551  ARG553  GLY616  TRP617  ASP618  TYR619  PRO620  LYS621  CYS622 
 ASP623  PHE694  ASN695  SER759  ASP760  ASP761  ALA762  ILE779  LEU786  VAL792 
 PHE793  MET794  SER795  GLU796  ALA797  LYS798  CYS799  TRP800  GLU811  SER814 

> <Gold.Protein.RotatedAtoms>
  152.1721  134.8826  160.0533 H   0  0  0  0  0  0  0  0  0  0  0  0  # atno 6907 bound_to 6896
  151.9782  133.3743  159.4105 H   0  0  0  0  0  0  0  0  0  0  0  0  # atno 6908 bound_to 6896
  150.6903  134.3990  159.5154 H   0  0  0  0  0  0  0  0  0  0  0  0  # atno 6909 bound_to 6896
  144.7734  140.4509  143.5890 H   0  0  0  0  0  0  0  0  0  0  0  0  # atno 7974 bound_to 7965
  156.2035  140.1751  156.7850 H   0  0  0  0  0  0  0  0  0  0  0  0  # atno 8008 bound_to 7997
  154.5623  140.0697  156.8868 H   0  0  0  0  0  0  0  0  0  0  0  0  # atno 8009 bound_to 7997
  155.2825  140.3350  155.4260 H   0  0  0  0  0  0  0  0  0  0  0  0  # atno 8010 bound_to 7997
  140.7181  143.5429  150.9388 H   0  0  0  0  0  0  0  0  0  0  0  0  # atno 10167 bound_to 10162
  156.5858  130.4786  149.6300 H   0  0  0  0  0  0  0  0  0  0  0  0  # atno 10718 bound_to 10713
  152.9912  135.6166  154.2766 H   0  0  0  0  0  0  0  0  0  0  0  0  # atno 10763 bound_to 10752
  154.2497  135.2786  155.2823 H   0  0  0  0  0  0  0  0  0  0  0  0  # atno 10764 bound_to 10752
  154.5299  135.5791  153.6807 H   0  0  0  0  0  0  0  0  0  0  0  0  # atno 10765 bound_to 10752
  140.8064  134.2796  157.4958 H   0  0  0  0  0  0  0  0  0  0  0  0  # atno 11005 bound_to 11000
  145.6256  139.1529  143.2998 LP  0  0  0  0  0  0  0  0  0  0  0  0  # atno 17320 bound_to 7965
  146.1897  140.6363  142.9151 LP  0  0  0  0  0  0  0  0  0  0  0  0  # atno 17321 bound_to 7965
  139.9152  143.6672  152.3107 LP  0  0  0  0  0  0  0  0  0  0  0  0  # atno 17342 bound_to 10162
  139.7069  144.7626  151.1177 LP  0  0  0  0  0  0  0  0  0  0  0  0  # atno 17343 bound_to 10162
  156.2592  130.6952  151.1715 LP  0  0  0  0  0  0  0  0  0  0  0  0  # atno 17370 bound_to 10713
  157.7316  131.0607  150.5672 LP  0  0  0  0  0  0  0  0  0  0  0  0  # atno 17371 bound_to 10713
  139.8717  134.9459  156.3922 LP  0  0  0  0  0  0  0  0  0  0  0  0  # atno 17394 bound_to 11000
  140.9242  133.7624  155.9944 LP  0  0  0  0  0  0  0  0  0  0  0  0  # atno 17395 bound_to 11000

$$$$
