AV-unprocessed.smi:2247|AV-procd|sdf|9089|dock2
  -GOLD-   2272012293D 1   1.00000     0.00000
 Structure written by MMmdl.
 34 35  0  0  0  0  0  0  0  0  1 V2000
  152.0853  143.6720  161.5971 C   0  0  0  0  0  0  0  0  0  0  0  0
  152.5492  143.7505  160.1332 C   0  0  0  0  0  0  0  0  0  0  0  0
  151.9018  144.9075  159.3573 C   0  0  0  0  0  0  0  0  0  0  0  0
  152.3625  142.4772  159.4246 N   0  0  0  0  0  0  0  0  0  0  0  0
  153.3979  141.4560  159.3909 C   0  0  0  0  0  0  0  0  0  0  0  0
  152.9117  140.4465  158.3466 C   0  0  0  0  0  0  0  0  0  0  0  0
  151.4002  140.6810  158.1972 C   0  0  2  0  0  0  0  0  0  0  0  0
  151.0234  140.6415  156.7849 N   0  0  0  0  0  0  0  0  0  0  0  0
  151.0905  139.5644  155.9877 C   0  0  0  0  0  0  0  0  0  0  0  0
  151.5265  138.4820  156.3922 O   0  0  0  0  0  0  0  0  0  0  0  0
  150.6430  139.8801  154.7148 N   0  0  0  0  0  0  0  0  0  0  0  0
  149.4288  140.3114  154.5697 C   0  0  0  0  0  0  0  0  0  0  0  0
  148.8037  140.7076  153.3982 N   0  0  0  0  0  0  0  0  0  0  0  0
  147.5237  141.0793  153.7042 C   0  0  0  0  0  0  0  0  0  0  0  0
  147.3480  140.9208  155.0129 C   0  0  0  0  0  0  0  0  0  0  0  0
  148.4971  140.4499  155.5730 O   0  0  0  0  0  0  0  0  0  0  0  0
  151.2580  142.0923  158.7693 C   0  0  0  0  0  0  0  0  0  0  0  0
  150.2272  142.7547  158.6489 O   0  0  0  0  0  0  0  0  0  0  0  0
  152.3713  144.5723  162.1414 H   0  0  0  0  0  0  0  0  0  0  0  0
  152.5371  142.8216  162.1088 H   0  0  0  0  0  0  0  0  0  0  0  0
  151.0022  143.5768  161.6749 H   0  0  0  0  0  0  0  0  0  0  0  0
  153.6187  143.9639  160.1724 H   0  0  0  0  0  0  0  0  0  0  0  0
  152.1047  145.8630  159.8415 H   0  0  0  0  0  0  0  0  0  0  0  0
  150.8194  144.7910  159.2959 H   0  0  0  0  0  0  0  0  0  0  0  0
  152.2901  144.9646  158.3400 H   0  0  0  0  0  0  0  0  0  0  0  0
  154.3763  141.8544  159.1236 H   0  0  0  0  0  0  0  0  0  0  0  0
  153.4746  140.9896  160.3740 H   0  0  0  0  0  0  0  0  0  0  0  0
  153.4290  140.6352  157.4038 H   0  0  0  0  0  0  0  0  0  0  0  0
  153.1381  139.4200  158.6367 H   0  0  0  0  0  0  0  0  0  0  0  0
  150.8309  139.9764  158.8060 H   0  0  0  0  0  0  0  0  0  0  0  0
  150.6644  141.4974  156.3874 H   0  0  0  0  0  0  0  0  0  0  0  0
  149.1878  140.7408  152.4648 H   0  0  0  0  0  0  0  0  0  0  0  0
  146.8564  141.4288  152.9302 H   0  0  0  0  0  0  0  0  0  0  0  0
  146.5055  141.0914  155.6665 H   0  0  0  0  0  0  0  0  0  0  0  0
  1  2  1  0  0  0  0
  1 19  1  0  0  0  0
  1 20  1  0  0  0  0
  1 21  1  0  0  0  0
  2  3  1  0  0  0  0
  2  4  1  0  0  0  0
  2 22  1  0  0  0  0
  3 23  1  0  0  0  0
  3 24  1  0  0  0  0
  3 25  1  0  0  0  0
  4 17  1  0  0  0  0
  4  5  1  0  0  0  0
  5  6  1  0  0  0  0
  5 26  1  0  0  0  0
  5 27  1  0  0  0  0
  6  7  1  0  0  0  0
  6 28  1  0  0  0  0
  6 29  1  0  0  0  0
  7  8  1  0  0  0  0
  7 17  1  0  0  0  0
  7 30  1  0  0  0  0
  8 31  1  0  0  0  0
  8  9  1  0  0  0  0
  9 11  1  0  0  0  0
  9 10  2  0  0  0  0
 11 12  2  0  0  0  0
 12 16  1  0  0  0  0
 12 13  1  0  0  0  0
 13 32  1  0  0  0  0
 13 14  1  0  0  0  0
 14 33  1  0  0  0  0
 14 15  2  0  0  0  0
 15 34  1  0  0  0  0
 15 16  1  0  0  0  0
 17 18  2  0  0  0  0
M  END
> <s_m_source_file>
AV-unprocessed.smi

> <i_m_source_file_index>
2247

> <i_lp_mmshare_version>
43012

> <i_f3d_flags>
0

> <s_epik_input>
W0NIM11bQ0hdKFtDSDNdKU4xW0NIMl1bQ0gyXVtDQEhdKEMxPU8pW05IXUMoPU8pW05IXWMybltjSF1bY0hdbzI=

> <s_epik_cmdline>
J2VwaWtfcHl0aG9uJywgJy1waCcsICc3LjAnLCAnLXRuJywgJzgnLCAnLW1hJywgJzIwMCcsICctbWV0YWxfYmluZGluZycsICctaW1hZScsICc8aW5maWxlLm1hZT4nLCAnLW9tYWUnLCAnPG91dGZpbGUubWFlPic=

> <r_lp_tautomer_probability>
0.107061

> <r_epik_Ionization_Penalty>
0.180736

> <r_epik_Ionization_Penalty_Charging>
0.180388

> <r_epik_Ionization_Penalty_Neutral>
0.000348501

> <r_epik_State_Penalty>
2.44396

> <r_epik_Charging_Adjusted_Penalty>
2.62435

> <i_epik_Tot_Q>
0

> <i_epik_Tot_abs_Q>
0

> <r_epik_Metal_State_Penalty>
4.38331

> <b_epik_Metal_Only>
0

> <s_lp_Force_Field>
OPLS_2005

> <r_lp_Energy>
45.2886

> <b_lp_Chiralities_Consistent>
1

> <s_lp_Variant>
AV-unprocessed.smi:2247-4

> <Gold.Version>
5.8.1

> <Gold.Id.Protein>
6NUR|6NUR_protein|mol2

> <Gold.PLP.Fitness>
40.2177

> <Gold.PLP.PLP>
-36.6787

> <Gold.PLP.part.hbond>
-1.8715

> <Gold.PLP.part.metal>
0.0000

> <Gold.PLP.part.buried>
-6.0327

> <Gold.PLP.part.nonpolar>
-29.4694

> <Gold.PLP.part.repulsive>
1.3648

> <Gold.PLP.ligand.clash>
0.0234

> <Gold.PLP.ligand.torsion>
1.2564

> <Gold.PLP.Chemscore.Hbond>
1.9920

> <Gold.PLP.Chemscore.CHOScore>
0.0000

> <Gold.PLP.Chemscore.Metal>
0.0000

> <Gold.Chemscore.Hbonds>
donor molecule, donor type, donor heavy atom, donor atom, acceptor molecule, acceptor atom, score
      L1  H    13    32       P1  7957  1.00
      P1  H  7989  7998       L1    11  1.00

> <Gold.PLP.Chemscore.Internal.Correction>
0.0991

> <Gold.Rescore>
     Score         DG    S(hbond)    S(metal)    S(lipo)     H(rot)  DE(clash)    DE(int)     intcor
     14.08     -16.47       1.81        0.00      71.47       1.33       0.04       2.35       ----

> <Gold.Chemscore.Fitness>
14.0792

> <Gold.Chemscore.DG>
-16.4678

> <Gold.Chemscore.ZeroCoef>
-5.4800

> <Gold.Chemscore.Hbond>
1.8085

> <Gold.Chemscore.Metal>
0.0000

> <Gold.Chemscore.Lipo>
71.4696

> <Gold.Chemscore.Internal_Hbond>
0.0000

> <Gold.Chemscore.DEClash>
0.0402

> <Gold.Chemscore.DEInternal>
2.3484

> <Gold.Chemscore.Rot>
1.3338

> <Gold.Chemscore.Internal.Correction>
   9.000000E+99

> <Gold.Chemscore.Hbonds>
donor molecule, donor type, donor heavy atom, donor atom, acceptor molecule, acceptor atom, score
      L1  H    13    32       P1  7957  0.90
      P1  H  7989  7998       L1    11  0.45

> <Gold.Chemscore.Hbond.Weighted>
-6.0403

> <Gold.Chemscore.Metal.Weighted>
-0.0000

> <Gold.Chemscore.Lipo.Weighted>
-8.3619

> <Gold.Chemscore.Internal_Hbond.Weighted>
0.0000

> <Gold.Chemscore.DEClash.Weighted>
0.0402

> <Gold.Chemscore.DEInternal.Weighted>
2.3484

> <Gold.Chemscore.Rot.Weighted>
3.4145

> <Gold.Chemscore.Internal.Correction.Weighted>
   9.000000E+99

> <Gold.Protein.RotatedTorsions>
[ 6907 6896 6895 6894 ] final  -22.40 input  -60.11 | X-H torsion
[ 7974 7965 7964 7962 ] final   56.73 input  175.53 | X-H torsion
[ 8008 7997 7996 7995 ] final  -61.51 input   59.86 | X-H torsion
[ 10167 10162 10161 10158 ] final  127.47 input  -65.29 | X-H torsion
[ 10718 10713 10712 10709 ] final  159.02 input   66.30 | X-H torsion
[ 10763 10752 10751 10750 ] final  -11.33 input  -60.55 | X-H torsion
[ 11005 11000 10999 10996 ] final   41.45 input  -57.11 | X-H torsion

> <Gold.Protein.ActiveResidues>
 VAL166  LYS551  ARG553  GLY616  TRP617  ASP618  TYR619  PRO620  LYS621  CYS622 
 ASP623  PHE694  ASN695  SER759  ASP760  ASP761  ALA762  ILE779  LEU786  VAL792 
 PHE793  MET794  SER795  GLU796  ALA797  LYS798  CYS799  TRP800  GLU811  SER814 

> <Gold.Protein.RotatedAtoms>
  151.2192  135.0512  159.8942 H   0  0  0  0  0  0  0  0  0  0  0  0  # atno 6907 bound_to 6896
  152.5417  134.0659  159.8183 H   0  0  0  0  0  0  0  0  0  0  0  0  # atno 6908 bound_to 6896
  151.0823  133.5332  159.2651 H   0  0  0  0  0  0  0  0  0  0  0  0  # atno 6909 bound_to 6896
  145.9367  139.3853  143.0388 H   0  0  0  0  0  0  0  0  0  0  0  0  # atno 7974 bound_to 7965
  154.4452  140.1016  156.6443 H   0  0  0  0  0  0  0  0  0  0  0  0  # atno 8008 bound_to 7997
  155.5468  140.3485  155.4440 H   0  0  0  0  0  0  0  0  0  0  0  0  # atno 8009 bound_to 7997
  156.0558  140.1314  156.9987 H   0  0  0  0  0  0  0  0  0  0  0  0  # atno 8010 bound_to 7997
  139.5577  144.6860  151.4135 H   0  0  0  0  0  0  0  0  0  0  0  0  # atno 10167 bound_to 10162
  157.1699  131.0607  151.2188 H   0  0  0  0  0  0  0  0  0  0  0  0  # atno 10718 bound_to 10713
  153.4822  135.7017  153.5931 H   0  0  0  0  0  0  0  0  0  0  0  0  # atno 10763 bound_to 10752
  153.4140  135.3841  155.2069 H   0  0  0  0  0  0  0  0  0  0  0  0  # atno 10764 bound_to 10752
  154.8721  135.3911  154.4273 H   0  0  0  0  0  0  0  0  0  0  0  0  # atno 10765 bound_to 10752
  140.1833  134.4077  155.8187 H   0  0  0  0  0  0  0  0  0  0  0  0  # atno 11005 bound_to 11000
  145.8354  140.9608  143.0827 LP  0  0  0  0  0  0  0  0  0  0  0  0  # atno 17320 bound_to 7965
  144.6773  140.0216  143.7483 LP  0  0  0  0  0  0  0  0  0  0  0  0  # atno 17321 bound_to 7965
  140.6852  143.7990  150.7176 LP  0  0  0  0  0  0  0  0  0  0  0  0  # atno 17342 bound_to 10162
  140.1456  143.4403  152.2165 LP  0  0  0  0  0  0  0  0  0  0  0  0  # atno 17343 bound_to 10162
  157.4053  130.7355  149.6797 LP  0  0  0  0  0  0  0  0  0  0  0  0  # atno 17370 bound_to 10713
  155.9740  130.4110  150.3958 LP  0  0  0  0  0  0  0  0  0  0  0  0  # atno 17371 bound_to 10713
  141.2224  133.7011  156.7968 LP  0  0  0  0  0  0  0  0  0  0  0  0  # atno 17394 bound_to 11000
  140.2242  134.8734  157.3409 LP  0  0  0  0  0  0  0  0  0  0  0  0  # atno 17395 bound_to 11000

$$$$
