AV-unprocessed.smi:2634|AV-procd|sdf|10254|dock2
  -GOLD-   2272014263D 1   1.00000     0.00000
 Structure written by MMmdl.
 27 28  0  0  0  0  0  0  0  0  2 V2000
  150.0606  142.3413  155.7690 N   0  0  0  0  0  0  0  0  0  0  0  0
  150.8649  142.1406  156.8924 C   0  0  0  0  0  0  0  0  0  0  0  0
  151.2446  143.0823  157.7889 N   0  3  0  0  0  0  0  0  0  0  0  0
  150.8854  144.4095  157.7296 N   0  0  0  0  0  0  0  0  0  0  0  0
  152.0516  142.5359  158.7837 C   0  0  0  0  0  0  0  0  0  0  0  0
  152.6739  143.0922  159.8978 C   0  0  0  0  0  0  0  0  0  0  0  0
  153.4317  142.2141  160.6994 C   0  0  0  0  0  0  0  0  0  0  0  0
  153.5497  140.8447  160.3832 C   0  0  0  0  0  0  0  0  0  0  0  0
  152.9156  140.2900  159.2515 C   0  0  0  0  0  0  0  0  0  0  0  0
  152.1649  141.1590  158.4599 C   0  0  0  0  0  0  0  0  0  0  0  0
  151.4143  140.9582  157.2827 N   0  0  0  0  0  0  0  0  0  0  0  0
  151.3416  139.6184  156.6874 C   0  0  0  0  0  0  0  0  0  0  0  0
  151.6531  139.6438  155.1847 C   0  0  0  0  0  0  0  0  0  0  0  0
  153.0422  139.5015  154.9875 O   0  0  0  0  0  0  0  0  0  0  0  0
  149.6839  143.2511  155.5442 H   0  0  0  0  0  0  0  0  0  0  0  0
  150.2111  144.5054  156.9835 H   0  0  0  0  0  0  0  0  0  0  0  0
  151.7084  144.9329  157.4662 H   0  0  0  0  0  0  0  0  0  0  0  0
  152.5854  144.1408  160.1419 H   0  0  0  0  0  0  0  0  0  0  0  0
  153.9336  142.5989  161.5755 H   0  0  0  0  0  0  0  0  0  0  0  0
  154.1406  140.2050  161.0228 H   0  0  0  0  0  0  0  0  0  0  0  0
  153.0163  139.2395  159.0211 H   0  0  0  0  0  0  0  0  0  0  0  0
  152.0252  138.9590  157.2237 H   0  0  0  0  0  0  0  0  0  0  0  0
  150.3366  139.2316  156.8600 H   0  0  0  0  0  0  0  0  0  0  0  0
  151.1358  138.8333  154.6703 H   0  0  0  0  0  0  0  0  0  0  0  0
  151.3252  140.5808  154.7335 H   0  0  0  0  0  0  0  0  0  0  0  0
  153.2581  138.5813  155.0061 H   0  0  0  0  0  0  0  0  0  0  0  0
  149.8177  141.5809  155.1500 H   0  0  0  0  0  0  0  0  0  0  0  0
  1  2  1  0  0  0  0
  1 15  1  0  0  0  0
  1 27  1  0  0  0  0
  2 11  1  0  0  0  0
  2  3  2  0  0  0  0
  3  4  1  0  0  0  0
  3  5  1  0  0  0  0
  4 16  1  0  0  0  0
  4 17  1  0  0  0  0
  5 10  2  0  0  0  0
  5  6  1  0  0  0  0
  6  7  2  0  0  0  0
  6 18  1  0  0  0  0
  7  8  1  0  0  0  0
  7 19  1  0  0  0  0
  8  9  2  0  0  0  0
  8 20  1  0  0  0  0
  9 10  1  0  0  0  0
  9 21  1  0  0  0  0
 10 11  1  0  0  0  0
 11 12  1  0  0  0  0
 12 13  1  0  0  0  0
 12 22  1  0  0  0  0
 12 23  1  0  0  0  0
 13 14  1  0  0  0  0
 13 24  1  0  0  0  0
 13 25  1  0  0  0  0
 14 26  1  0  0  0  0
M  CHG  1   3   1
M  END
> <s_m_source_file>
AV-unprocessed.smi

> <i_m_source_file_index>
2634

> <i_lp_mmshare_version>
43012

> <i_f3d_flags>
0

> <s_epik_input>
W05IMl1uMS9jKD1OXFtIXSluKFtDSDJdW0NIMl1bT0hdKWMoYzEyKVtjSF1bY0hdW2NIXVtjSF0y

> <s_epik_cmdline>
J2VwaWtfcHl0aG9uJywgJy1waCcsICc3LjAnLCAnLXRuJywgJzgnLCAnLW1hJywgJzIwMCcsICctbWV0YWxfYmluZGluZycsICctaW1hZScsICc8aW5maWxlLm1hZT4nLCAnLW9tYWUnLCAnPG91dGZpbGUubWFlPic=

> <r_lp_tautomer_probability>
1

> <r_epik_Ionization_Penalty>
1.24644e-06

> <r_epik_Ionization_Penalty_Charging>
0

> <r_epik_Ionization_Penalty_Neutral>
1.24644e-06

> <r_epik_State_Penalty>
-0

> <r_epik_Charging_Adjusted_Penalty>
0

> <i_epik_Tot_Q>
1

> <i_epik_Tot_abs_Q>
1

> <r_epik_Metal_State_Penalty>
-0

> <b_epik_Metal_Only>
0

> <s_lp_Force_Field>
OPLS_2005

> <r_lp_Energy>
25.9386

> <b_lp_Chiralities_Consistent>
1

> <s_lp_Variant>
AV-unprocessed.smi:2634-1

> <Gold.Version>
5.8.1

> <Gold.Id.Protein>
6NUR|6NUR_protein|mol2

> <Gold.PLP.Fitness>
45.3601

> <Gold.PLP.PLP>
-33.9126

> <Gold.PLP.part.hbond>
-3.8145

> <Gold.PLP.part.metal>
0.0000

> <Gold.PLP.part.buried>
-3.1538

> <Gold.PLP.part.nonpolar>
-27.2259

> <Gold.PLP.part.repulsive>
0.1588

> <Gold.PLP.ligand.clash>
0.0000

> <Gold.PLP.ligand.torsion>
0.2766

> <Gold.PLP.Chemscore.Hbond>
4.0000

> <Gold.PLP.Chemscore.CHOScore>
0.0000

> <Gold.PLP.Chemscore.Metal>
0.0000

> <Gold.Chemscore.Hbonds>
donor molecule, donor type, donor heavy atom, donor atom, acceptor molecule, acceptor atom, score
      L1  H     1    15       P1  8028  2.00
      L1  H     4    16       P1  8028  1.00
      P1  H  7997  8008       L1    14  1.00

> <Gold.PLP.Chemscore.Internal.Correction>
0.0008

> <Gold.Rescore>
     Score         DG    S(hbond)    S(metal)    S(lipo)     H(rot)  DE(clash)    DE(int)     intcor
     18.11     -18.37       2.93        0.00      69.47       1.96       0.02       0.24       ----

> <Gold.Chemscore.Fitness>
18.1135

> <Gold.Chemscore.DG>
-18.3743

> <Gold.Chemscore.ZeroCoef>
-5.4800

> <Gold.Chemscore.Hbond>
2.9324

> <Gold.Chemscore.Metal>
0.0000

> <Gold.Chemscore.Lipo>
69.4740

> <Gold.Chemscore.Internal_Hbond>
0.0000

> <Gold.Chemscore.DEClash>
0.0202

> <Gold.Chemscore.DEInternal>
0.2406

> <Gold.Chemscore.Rot>
1.9643

> <Gold.Chemscore.Internal.Correction>
   9.000000E+99

> <Gold.Chemscore.Hbonds>
donor molecule, donor type, donor heavy atom, donor atom, acceptor molecule, acceptor atom, score
      L1  H     1    15       P1  8028  1.00
      L1  H     4    16       P1  8028  0.74
      P1  H  7997  8008       L1    14  0.30

> <Gold.Chemscore.Hbond.Weighted>
-9.7943

> <Gold.Chemscore.Metal.Weighted>
-0.0000

> <Gold.Chemscore.Lipo.Weighted>
-8.1285

> <Gold.Chemscore.Internal_Hbond.Weighted>
0.0000

> <Gold.Chemscore.DEClash.Weighted>
0.0202

> <Gold.Chemscore.DEInternal.Weighted>
0.2406

> <Gold.Chemscore.Rot.Weighted>
5.0285

> <Gold.Chemscore.Internal.Correction.Weighted>
   9.000000E+99

> <Gold.Protein.RotatedTorsions>
[ 6907 6896 6895 6894 ] final -178.42 input  -60.11 | X-H torsion
[ 7974 7965 7964 7962 ] final    4.95 input  175.53 | X-H torsion
[ 8008 7997 7996 7995 ] final   -7.70 input   59.86 | X-H torsion
[ 10167 10162 10161 10158 ] final  -90.88 input  -65.29 | X-H torsion
[ 10718 10713 10712 10709 ] final -149.25 input   66.30 | X-H torsion
[ 10763 10752 10751 10750 ] final  -47.17 input  -60.55 | X-H torsion
[ 11005 11000 10999 10996 ] final  145.77 input  -57.11 | X-H torsion

> <Gold.Protein.ActiveResidues>
 VAL166  LYS551  ARG553  GLY616  TRP617  ASP618  TYR619  PRO620  LYS621  CYS622 
 ASP623  PHE694  ASN695  SER759  ASP760  ASP761  ALA762  ILE779  LEU786  VAL792 
 PHE793  MET794  SER795  GLU796  ALA797  LYS798  CYS799  TRP800  GLU811  SER814 

> <Gold.Protein.RotatedAtoms>
  151.6370  133.3328  159.3121 H   0  0  0  0  0  0  0  0  0  0  0  0  # atno 6907 bound_to 6896
  150.8027  134.7136  159.6627 H   0  0  0  0  0  0  0  0  0  0  0  0  # atno 6908 bound_to 6896
  152.4121  134.6111  160.0077 H   0  0  0  0  0  0  0  0  0  0  0  0  # atno 6909 bound_to 6896
  146.2442  140.0457  142.8379 H   0  0  0  0  0  0  0  0  0  0  0  0  # atno 7974 bound_to 7965
  154.5813  140.2400  155.8050 H   0  0  0  0  0  0  0  0  0  0  0  0  # atno 8008 bound_to 7997
  156.2181  140.3006  155.9843 H   0  0  0  0  0  0  0  0  0  0  0  0  # atno 8009 bound_to 7997
  155.2536  140.0411  157.2980 H   0  0  0  0  0  0  0  0  0  0  0  0  # atno 8010 bound_to 7997
  140.3505  143.2894  151.9732 H   0  0  0  0  0  0  0  0  0  0  0  0  # atno 10167 bound_to 10162
  156.4307  130.8074  151.2301 H   0  0  0  0  0  0  0  0  0  0  0  0  # atno 10718 bound_to 10713
  154.0571  135.6623  153.4807 H   0  0  0  0  0  0  0  0  0  0  0  0  # atno 10763 bound_to 10752
  153.0441  135.5126  154.7695 H   0  0  0  0  0  0  0  0  0  0  0  0  # atno 10764 bound_to 10752
  154.6720  135.3031  154.9696 H   0  0  0  0  0  0  0  0  0  0  0  0  # atno 10765 bound_to 10752
  140.0739  134.9136  157.1390 H   0  0  0  0  0  0  0  0  0  0  0  0  # atno 11005 bound_to 11000
  145.1029  140.9357  143.4702 LP  0  0  0  0  0  0  0  0  0  0  0  0  # atno 17320 bound_to 7965
  145.0654  139.3073  143.5859 LP  0  0  0  0  0  0  0  0  0  0  0  0  # atno 17321 bound_to 7965
  139.4827  144.6080  151.7486 LP  0  0  0  0  0  0  0  0  0  0  0  0  # atno 17342 bound_to 10162
  140.5224  144.0859  150.6026 LP  0  0  0  0  0  0  0  0  0  0  0  0  # atno 17343 bound_to 10162
  157.7508  131.0199  150.3687 LP  0  0  0  0  0  0  0  0  0  0  0  0  # atno 17370 bound_to 10713
  156.4023  130.3918  149.6950 LP  0  0  0  0  0  0  0  0  0  0  0  0  # atno 17371 bound_to 10713
  140.3587  134.2518  155.7189 LP  0  0  0  0  0  0  0  0  0  0  0  0  # atno 17394 bound_to 11000
  141.2022  133.7944  157.0403 LP  0  0  0  0  0  0  0  0  0  0  0  0  # atno 17395 bound_to 11000

$$$$
