AV-unprocessed.smi:1029|AV-procd|sdf|4477|dock3
  -GOLD-   22720 2453D 1   1.00000     0.00000
 Structure written by MMmdl.
 46 47  0  0  0  0  0  0  0  0  2 V2000
  152.2446  141.1416  159.1924 C   0  0  0  0  0  0  0  0  0  0  0  0
  151.9018  140.6690  157.8107 C   0  0  0  0  0  0  0  0  0  0  0  0
  150.7498  140.9739  157.0337 C   0  0  0  0  0  0  0  0  0  0  0  0
  150.9704  140.2738  155.8776 C   0  0  0  0  0  0  0  0  0  0  0  0
  150.1808  140.1934  154.7749 N   0  0  0  0  0  0  0  0  0  0  0  0
  148.8404  140.2585  154.6900 C   0  0  0  0  0  0  0  0  0  0  0  0
  148.0701  140.4245  155.6361 O   0  0  0  0  0  0  0  0  0  0  0  0
  148.4286  140.1224  153.4214 N   0  0  0  0  0  0  0  0  0  0  0  0
  147.0365  140.1487  152.9847 C   0  0  0  0  0  0  0  0  0  0  0  0
  146.6321  138.8458  152.2650 C   0  0  1  0  0  0  0  0  0  0  0  0
  147.7153  138.4201  151.4609 O   0  0  0  0  0  0  0  0  0  0  0  0
  146.3332  137.7140  153.2702 C   0  0  0  0  0  0  0  0  0  0  0  0
  146.2875  136.3739  152.6291 N   0  3  2  0  0  0  0  0  0  0  0  0
  145.4522  136.3352  151.3991 C   0  0  0  0  0  0  0  0  0  0  0  0
  145.5442  134.9639  150.7058 C   0  0  0  0  0  0  0  0  0  0  0  0
  145.1719  133.8062  151.6498 C   0  0  2  0  0  0  0  0  0  0  0  0
  143.6598  133.7214  151.9222 C   0  0  0  0  0  0  0  0  0  0  0  0
  146.0039  133.9122  152.9402 C   0  0  0  0  0  0  0  0  0  0  0  0
  145.9020  135.3055  153.5865 C   0  0  0  0  0  0  0  0  0  0  0  0
  152.1426  139.5960  155.9297 O   0  0  0  0  0  0  0  0  0  0  0  0
  152.7324  139.8582  157.1718 N   0  0  0  0  0  0  0  0  0  0  0  0
  151.4943  141.8378  159.5674 H   0  0  0  0  0  0  0  0  0  0  0  0
  153.2074  141.6530  159.2058 H   0  0  0  0  0  0  0  0  0  0  0  0
  152.2999  140.3060  159.8904 H   0  0  0  0  0  0  0  0  0  0  0  0
  149.9130  141.6016  157.3001 H   0  0  0  0  0  0  0  0  0  0  0  0
  150.6758  140.0711  153.9038 H   0  0  0  0  0  0  0  0  0  0  0  0
  149.1287  139.9947  152.7053 H   0  0  0  0  0  0  0  0  0  0  0  0
  146.3590  140.3803  153.8092 H   0  0  0  0  0  0  0  0  0  0  0  0
  146.9584  140.9848  152.2892 H   0  0  0  0  0  0  0  0  0  0  0  0
  145.7644  139.0318  151.6325 H   0  0  0  0  0  0  0  0  0  0  0  0
  148.4580  138.9799  151.6302 H   0  0  0  0  0  0  0  0  0  0  0  0
  147.1039  137.7280  154.0428 H   0  0  0  0  0  0  0  0  0  0  0  0
  145.3880  137.8953  153.7842 H   0  0  0  0  0  0  0  0  0  0  0  0
  144.4165  136.5661  151.6512 H   0  0  0  0  0  0  0  0  0  0  0  0
  145.7777  137.1008  150.6963 H   0  0  0  0  0  0  0  0  0  0  0  0
  144.9083  134.9487  149.8199 H   0  0  0  0  0  0  0  0  0  0  0  0
  146.5641  134.8178  150.3468 H   0  0  0  0  0  0  0  0  0  0  0  0
  145.4483  132.8747  151.1540 H   0  0  0  0  0  0  0  0  0  0  0  0
  143.2795  134.6118  152.4221 H   0  0  0  0  0  0  0  0  0  0  0  0
  143.4255  132.8643  152.5542 H   0  0  0  0  0  0  0  0  0  0  0  0
  143.1022  133.6026  150.9928 H   0  0  0  0  0  0  0  0  0  0  0  0
  145.6969  133.1450  153.6520 H   0  0  0  0  0  0  0  0  0  0  0  0
  147.0497  133.7060  152.7082 H   0  0  0  0  0  0  0  0  0  0  0  0
  146.5595  135.3384  154.4562 H   0  0  0  0  0  0  0  0  0  0  0  0
  144.8903  135.4871  153.9517 H   0  0  0  0  0  0  0  0  0  0  0  0
  147.2357  136.1675  152.3473 H   0  0  0  0  0  0  0  0  0  0  0  0
  1  2  1  0  0  0  0
  1 22  1  0  0  0  0
  1 23  1  0  0  0  0
  1 24  1  0  0  0  0
  2 21  2  0  0  0  0
  2  3  1  0  0  0  0
  3  4  2  0  0  0  0
  3 25  1  0  0  0  0
  4  5  1  0  0  0  0
  4 20  1  0  0  0  0
  5  6  1  0  0  0  0
  5 26  1  0  0  0  0
  6  7  2  0  0  0  0
  6  8  1  0  0  0  0
  8  9  1  0  0  0  0
  8 27  1  0  0  0  0
  9 10  1  0  0  0  0
  9 28  1  0  0  0  0
  9 29  1  0  0  0  0
 10 11  1  0  0  0  0
 10 12  1  0  0  0  0
 10 30  1  0  0  0  0
 11 31  1  0  0  0  0
 12 13  1  0  0  0  0
 12 32  1  0  0  0  0
 12 33  1  0  0  0  0
 13 19  1  0  0  0  0
 13 14  1  0  0  0  0
 13 46  1  0  0  0  0
 14 15  1  0  0  0  0
 14 34  1  0  0  0  0
 14 35  1  0  0  0  0
 15 16  1  0  0  0  0
 15 36  1  0  0  0  0
 15 37  1  0  0  0  0
 16 17  1  0  0  0  0
 16 18  1  0  0  0  0
 16 38  1  0  0  0  0
 17 39  1  0  0  0  0
 17 40  1  0  0  0  0
 17 41  1  0  0  0  0
 18 19  1  0  0  0  0
 18 42  1  0  0  0  0
 18 43  1  0  0  0  0
 19 44  1  0  0  0  0
 19 45  1  0  0  0  0
 20 21  1  0  0  0  0
M  CHG  1  13   1
M  END
> <s_m_source_file>
AV-unprocessed.smi

> <i_m_source_file_index>
1029

> <i_lp_mmshare_version>
43012

> <i_f3d_flags>
0

> <s_epik_input>
W0NIM11jMVtjSF1jKG9uMSlbTkhdQyg9TylbTkhdW0NIMl1bQ0BIXShbT0hdKVtDSDJdTjJbQ0gyXVtDSDJdW0NIXShbQ0gzXSlbQ0gyXVtDSDJdMg==

> <s_epik_cmdline>
J2VwaWtfcHl0aG9uJywgJy1waCcsICc3LjAnLCAnLXRuJywgJzgnLCAnLW1hJywgJzIwMCcsICctbWV0YWxfYmluZGluZycsICctaW1hZScsICc8aW5maWxlLm1hZT4nLCAnLW9tYWUnLCAnPG91dGZpbGUubWFlPic=

> <r_lp_tautomer_probability>
1

> <r_epik_Ionization_Penalty>
0.00211787

> <r_epik_Ionization_Penalty_Charging>
0.00153238

> <r_epik_Ionization_Penalty_Neutral>
0.000585488

> <r_epik_State_Penalty>
-0

> <r_epik_Charging_Adjusted_Penalty>
0.00153238

> <i_epik_Tot_Q>
1

> <i_epik_Tot_abs_Q>
1

> <r_epik_Metal_State_Penalty>
-0

> <b_epik_Metal_Only>
0

> <s_lp_Force_Field>
OPLS_2005

> <r_lp_Energy>
22.6481

> <b_lp_Chiralities_Consistent>
1

> <s_lp_Variant>
AV-unprocessed.smi:1029-4

> <Gold.Version>
5.8.1

> <Gold.Id.Protein>
6NUR|6NUR_protein|mol2

> <Gold.PLP.Fitness>
51.0451

> <Gold.PLP.PLP>
-34.3174

> <Gold.PLP.part.hbond>
-5.9933

> <Gold.PLP.part.metal>
0.0000

> <Gold.PLP.part.buried>
-2.6557

> <Gold.PLP.part.nonpolar>
-25.7838

> <Gold.PLP.part.repulsive>
1.1726

> <Gold.PLP.ligand.clash>
0.0000

> <Gold.PLP.ligand.torsion>
0.5337

> <Gold.PLP.Chemscore.Hbond>
5.9000

> <Gold.PLP.Chemscore.CHOScore>
0.0000

> <Gold.PLP.Chemscore.Metal>
0.0000

> <Gold.Chemscore.Hbonds>
donor molecule, donor type, donor heavy atom, donor atom, acceptor molecule, acceptor atom, score
      L1  H     8    27       P1  7957  1.00
      L1  H    11    31       P1  7957  1.00
      L1  H    13    46       P1  7948  2.00
      P1  H  7954  7966       L1    11  0.84
      P1  H  7997  8010       L1    21  1.00

> <Gold.PLP.Chemscore.Internal.Correction>
0.0952

> <Gold.Rescore>
     Score         DG    S(hbond)    S(metal)    S(lipo)     H(rot)  DE(clash)    DE(int)     intcor
     19.19     -19.95       3.88        0.00      66.87       2.46       0.20       0.55       ----

> <Gold.Chemscore.Fitness>
19.1868

> <Gold.Chemscore.DG>
-19.9452

> <Gold.Chemscore.ZeroCoef>
-5.4800

> <Gold.Chemscore.Hbond>
3.8756

> <Gold.Chemscore.Metal>
0.0000

> <Gold.Chemscore.Lipo>
66.8749

> <Gold.Chemscore.Internal_Hbond>
0.0000

> <Gold.Chemscore.DEClash>
0.2034

> <Gold.Chemscore.DEInternal>
0.5549

> <Gold.Chemscore.Rot>
2.4624

> <Gold.Chemscore.Internal.Correction>
   9.000000E+99

> <Gold.Chemscore.Hbonds>
donor molecule, donor type, donor heavy atom, donor atom, acceptor molecule, acceptor atom, score
      L1  H     8    27       P1  7957  0.95
      L1  H    11    31       P1  7957  0.69
      L1  H    13    46       P1  7948  1.00
      P1  H  7954  7966       L1    11  0.14
      P1  H  7997  8010       L1    21  0.39

> <Gold.Chemscore.Hbond.Weighted>
-12.9445

> <Gold.Chemscore.Metal.Weighted>
-0.0000

> <Gold.Chemscore.Lipo.Weighted>
-7.8244

> <Gold.Chemscore.Internal_Hbond.Weighted>
0.0000

> <Gold.Chemscore.DEClash.Weighted>
0.2034

> <Gold.Chemscore.DEInternal.Weighted>
0.5549

> <Gold.Chemscore.Rot.Weighted>
6.3037

> <Gold.Chemscore.Internal.Correction.Weighted>
   9.000000E+99

> <Gold.Protein.RotatedTorsions>
[ 6907 6896 6895 6894 ] final  145.59 input  -60.11 | X-H torsion
[ 7974 7965 7964 7962 ] final -167.68 input  175.53 | X-H torsion
[ 8008 7997 7996 7995 ] final   52.61 input   59.86 | X-H torsion
[ 10167 10162 10161 10158 ] final  -58.73 input  -65.29 | X-H torsion
[ 10718 10713 10712 10709 ] final    0.84 input   66.30 | X-H torsion
[ 10763 10752 10751 10750 ] final  136.86 input  -60.55 | X-H torsion
[ 11005 11000 10999 10996 ] final  179.42 input  -57.11 | X-H torsion

> <Gold.Protein.ActiveResidues>
 VAL166  LYS551  ARG553  GLY616  TRP617  ASP618  TYR619  PRO620  LYS621  CYS622 
 ASP623  PHE694  ASN695  SER759  ASP760  ASP761  ALA762  ILE779  LEU786  VAL792 
 PHE793  MET794  SER795  GLU796  ALA797  LYS798  CYS799  TRP800  GLU811  SER814 

> <Gold.Protein.RotatedAtoms>
  152.1789  133.4694  159.4947 H   0  0  0  0  0  0  0  0  0  0  0  0  # atno 6907 bound_to 6896
  150.6931  134.1858  159.4275 H   0  0  0  0  0  0  0  0  0  0  0  0  # atno 6908 bound_to 6896
  151.9769  135.0048  160.0606 H   0  0  0  0  0  0  0  0  0  0  0  0  # atno 6909 bound_to 6896
  144.7218  140.2483  143.6282 H   0  0  0  0  0  0  0  0  0  0  0  0  # atno 7974 bound_to 7965
  155.4546  140.3459  155.4305 H   0  0  0  0  0  0  0  0  0  0  0  0  # atno 8008 bound_to 7997
  156.1199  140.1484  156.9249 H   0  0  0  0  0  0  0  0  0  0  0  0  # atno 8009 bound_to 7997
  154.4816  140.0868  156.7369 H   0  0  0  0  0  0  0  0  0  0  0  0  # atno 8010 bound_to 7997
  140.6179  143.2409  151.5551 H   0  0  0  0  0  0  0  0  0  0  0  0  # atno 10167 bound_to 10162
  156.8394  130.5515  149.5679 H   0  0  0  0  0  0  0  0  0  0  0  0  # atno 10718 bound_to 10713
  153.8636  135.3064  155.3439 H   0  0  0  0  0  0  0  0  0  0  0  0  # atno 10763 bound_to 10752
  154.7838  135.4821  153.9904 H   0  0  0  0  0  0  0  0  0  0  0  0  # atno 10764 bound_to 10752
  153.1447  135.6831  153.9067 H   0  0  0  0  0  0  0  0  0  0  0  0  # atno 10765 bound_to 10752
  140.4060  134.6735  157.4588 H   0  0  0  0  0  0  0  0  0  0  0  0  # atno 11005 bound_to 11000
  145.8253  139.2061  143.1914 LP  0  0  0  0  0  0  0  0  0  0  0  0  # atno 17320 bound_to 7965
  146.0479  140.8100  142.9796 LP  0  0  0  0  0  0  0  0  0  0  0  0  # atno 17321 bound_to 7965
  139.5414  144.2637  152.1358 LP  0  0  0  0  0  0  0  0  0  0  0  0  # atno 17342 bound_to 10162
  140.1851  144.4807  150.6508 LP  0  0  0  0  0  0  0  0  0  0  0  0  # atno 17343 bound_to 10162
  156.0889  130.5880  150.9698 LP  0  0  0  0  0  0  0  0  0  0  0  0  # atno 17370 bound_to 10713
  157.6364  131.0915  150.8340 LP  0  0  0  0  0  0  0  0  0  0  0  0  # atno 17371 bound_to 10713
  140.0302  134.6418  155.9117 LP  0  0  0  0  0  0  0  0  0  0  0  0  # atno 17394 bound_to 11000
  141.1839  133.6552  156.5135 LP  0  0  0  0  0  0  0  0  0  0  0  0  # atno 17395 bound_to 11000

$$$$
