AV-unprocessed.smi:2572|AV-procd|sdf|10111|dock1
  -GOLD-   2272014133D 1   1.00000     0.00000
 Structure written by MMmdl.
 38 39  0  0  0  0  0  0  0  0  1 V2000
  146.0934  137.8002  152.2384 C   0  0  0  0  0  0  0  0  0  0  0  0
  146.7539  137.7613  153.5019 O   0  0  0  0  0  0  0  0  0  0  0  0
  147.5691  138.8352  153.8144 C   0  0  0  0  0  0  0  0  0  0  0  0
  146.9893  140.1614  153.8198 C   0  0  0  0  0  0  0  0  0  0  0  0
  147.7749  141.2185  154.1184 C   0  0  0  0  0  0  0  0  0  0  0  0
  149.1936  141.0595  154.4368 C   0  0  0  0  0  0  0  0  0  0  0  0
  149.9321  142.0062  154.7068 O   0  0  0  0  0  0  0  0  0  0  0  0
  149.6230  139.7629  154.4050 N   0  0  0  0  0  0  0  0  0  0  0  0
  151.0214  139.4156  154.6835 C   0  0  0  0  0  0  0  0  0  0  0  0
  151.3129  139.3768  156.2000 C   0  0  1  0  0  0  0  0  0  0  0  0
  152.6647  139.0072  156.3906 O   0  0  0  0  0  0  0  0  0  0  0  0
  151.1036  140.7540  156.8575 C   0  0  0  0  0  0  0  0  0  0  0  0
  151.7400  140.8710  158.2527 C   0  0  0  0  0  0  0  0  0  0  0  0
  151.8753  142.3141  158.7000 C   0  0  0  0  0  0  0  0  0  0  0  0
  152.3091  142.6144  160.0084 C   0  0  0  0  0  0  0  0  0  0  0  0
  152.4367  143.9553  160.4208 C   0  0  0  0  0  0  0  0  0  0  0  0
  152.1340  144.9999  159.5260 C   0  0  0  0  0  0  0  0  0  0  0  0
  151.7033  144.7035  158.2182 C   0  0  0  0  0  0  0  0  0  0  0  0
  151.5730  143.3629  157.8060 C   0  0  0  0  0  0  0  0  0  0  0  0
  148.8233  138.6745  154.0979 N   0  0  0  0  0  0  0  0  0  0  0  0
  145.4911  136.8990  152.1240 H   0  0  0  0  0  0  0  0  0  0  0  0
  146.8028  137.8253  151.4092 H   0  0  0  0  0  0  0  0  0  0  0  0
  145.4190  138.6549  152.1591 H   0  0  0  0  0  0  0  0  0  0  0  0
  145.9429  140.2919  153.5860 H   0  0  0  0  0  0  0  0  0  0  0  0
  147.3457  142.2096  154.1227 H   0  0  0  0  0  0  0  0  0  0  0  0
  151.3227  138.4838  154.2009 H   0  0  0  0  0  0  0  0  0  0  0  0
  151.6442  140.1803  154.2155 H   0  0  0  0  0  0  0  0  0  0  0  0
  150.6677  138.6460  156.6897 H   0  0  0  0  0  0  0  0  0  0  0  0
  152.8783  138.3193  155.7791 H   0  0  0  0  0  0  0  0  0  0  0  0
  151.4855  141.5412  156.2054 H   0  0  0  0  0  0  0  0  0  0  0  0
  150.0326  140.9362  156.9571 H   0  0  0  0  0  0  0  0  0  0  0  0
  151.1370  140.3316  158.9843 H   0  0  0  0  0  0  0  0  0  0  0  0
  152.7245  140.4019  158.2622 H   0  0  0  0  0  0  0  0  0  0  0  0
  152.5460  141.8181  160.6990 H   0  0  0  0  0  0  0  0  0  0  0  0
  152.7674  144.1826  161.4234 H   0  0  0  0  0  0  0  0  0  0  0  0
  152.2323  146.0279  159.8425 H   0  0  0  0  0  0  0  0  0  0  0  0
  151.4729  145.5045  157.5311 H   0  0  0  0  0  0  0  0  0  0  0  0
  151.2428  143.1416  156.8015 H   0  0  0  0  0  0  0  0  0  0  0  0
  1  2  1  0  0  0  0
  1 21  1  0  0  0  0
  1 22  1  0  0  0  0
  1 23  1  0  0  0  0
  2  3  1  0  0  0  0
  3 20  2  0  0  0  0
  3  4  1  0  0  0  0
  4  5  2  0  0  0  0
  4 24  1  0  0  0  0
  5  6  1  0  0  0  0
  5 25  1  0  0  0  0
  6  7  2  0  0  0  0
  6  8  1  0  0  0  0
  8  9  1  0  0  0  0
  8 20  1  0  0  0  0
  9 10  1  0  0  0  0
  9 26  1  0  0  0  0
  9 27  1  0  0  0  0
 10 11  1  0  0  0  0
 10 12  1  0  0  0  0
 10 28  1  0  0  0  0
 11 29  1  0  0  0  0
 12 13  1  0  0  0  0
 12 30  1  0  0  0  0
 12 31  1  0  0  0  0
 13 14  1  0  0  0  0
 13 32  1  0  0  0  0
 13 33  1  0  0  0  0
 14 19  1  0  0  0  0
 14 15  2  0  0  0  0
 15 16  1  0  0  0  0
 15 34  1  0  0  0  0
 16 17  2  0  0  0  0
 16 35  1  0  0  0  0
 17 18  1  0  0  0  0
 17 36  1  0  0  0  0
 18 19  2  0  0  0  0
 18 37  1  0  0  0  0
 19 38  1  0  0  0  0
M  END
> <s_m_source_file>
AV-unprocessed.smi

> <i_m_source_file_index>
2572

> <i_lp_mmshare_version>
43012

> <i_f3d_flags>
0

> <s_epik_input>
W0NIM11PYzFbY0hdW2NIXWMoPU8pbihuMSlbQ0gyXVtDQEhdKFtPSF0pW0NIMl1bQ0gyXWMyW2NIXVtjSF1bY0hdW2NIXVtjSF0y

> <s_epik_cmdline>
J2VwaWtfcHl0aG9uJywgJy1waCcsICc3LjAnLCAnLXRuJywgJzgnLCAnLW1hJywgJzIwMCcsICctbWV0YWxfYmluZGluZycsICctaW1hZScsICc8aW5maWxlLm1hZT4nLCAnLW9tYWUnLCAnPG91dGZpbGUubWFlPic=

> <r_lp_tautomer_probability>
1

> <r_epik_Ionization_Penalty>
8.48543e-06

> <r_epik_Ionization_Penalty_Charging>
6.90219e-06

> <r_epik_Ionization_Penalty_Neutral>
1.58323e-06

> <r_epik_State_Penalty>
-0

> <r_epik_Charging_Adjusted_Penalty>
6.90219e-06

> <i_epik_Tot_Q>
0

> <i_epik_Tot_abs_Q>
0

> <r_epik_Metal_State_Penalty>
-0

> <b_epik_Metal_Only>
0

> <s_lp_Force_Field>
OPLS_2005

> <r_lp_Energy>
30.5458

> <b_lp_Chiralities_Consistent>
1

> <s_lp_Variant>
AV-unprocessed.smi:2572-2

> <Gold.Version>
5.8.1

> <Gold.Id.Protein>
6NUR|6NUR_protein|mol2

> <Gold.PLP.Fitness>
45.0785

> <Gold.PLP.PLP>
-42.9897

> <Gold.PLP.part.hbond>
-3.0000

> <Gold.PLP.part.metal>
0.0000

> <Gold.PLP.part.buried>
-0.1075

> <Gold.PLP.part.nonpolar>
-40.0454

> <Gold.PLP.part.repulsive>
0.9730

> <Gold.PLP.ligand.clash>
0.0000

> <Gold.PLP.ligand.torsion>
0.5188

> <Gold.PLP.Chemscore.Hbond>
1.0292

> <Gold.PLP.Chemscore.CHOScore>
0.0000

> <Gold.PLP.Chemscore.Metal>
0.0000

> <Gold.Chemscore.Hbonds>
donor molecule, donor type, donor heavy atom, donor atom, acceptor molecule, acceptor atom, score
      P1  H  7989  7998       L1     7  0.02
      P1  H  7997  8009       L1    11  1.00

> <Gold.PLP.Chemscore.Internal.Correction>
0.0389

> <Gold.Rescore>
     Score         DG    S(hbond)    S(metal)    S(lipo)     H(rot)  DE(clash)    DE(int)     intcor
     12.12     -15.53       0.89        0.00     115.59       2.52       1.54       1.86       ----

> <Gold.Chemscore.Fitness>
12.1200

> <Gold.Chemscore.DG>
-15.5277

> <Gold.Chemscore.ZeroCoef>
-5.4800

> <Gold.Chemscore.Hbond>
0.8917

> <Gold.Chemscore.Metal>
0.0000

> <Gold.Chemscore.Lipo>
115.5874

> <Gold.Chemscore.Internal_Hbond>
0.0000

> <Gold.Chemscore.DEClash>
1.5449

> <Gold.Chemscore.DEInternal>
1.8628

> <Gold.Chemscore.Rot>
2.5212

> <Gold.Chemscore.Internal.Correction>
   9.000000E+99

> <Gold.Chemscore.Hbonds>
donor molecule, donor type, donor heavy atom, donor atom, acceptor molecule, acceptor atom, score
      P1  H  7997  8009       L1    11  0.33

> <Gold.Chemscore.Hbond.Weighted>
-2.9782

> <Gold.Chemscore.Metal.Weighted>
-0.0000

> <Gold.Chemscore.Lipo.Weighted>
-13.5237

> <Gold.Chemscore.Internal_Hbond.Weighted>
0.0000

> <Gold.Chemscore.DEClash.Weighted>
1.5449

> <Gold.Chemscore.DEInternal.Weighted>
1.8628

> <Gold.Chemscore.Rot.Weighted>
6.4543

> <Gold.Chemscore.Internal.Correction.Weighted>
   9.000000E+99

> <Gold.Protein.RotatedTorsions>
[ 6907 6896 6895 6894 ] final -130.98 input  -60.11 | X-H torsion
[ 7974 7965 7964 7962 ] final -114.78 input  175.53 | X-H torsion
[ 8008 7997 7996 7995 ] final -163.87 input   59.86 | X-H torsion
[ 10167 10162 10161 10158 ] final -165.40 input  -65.29 | X-H torsion
[ 10718 10713 10712 10709 ] final  138.16 input   66.30 | X-H torsion
[ 10763 10752 10751 10750 ] final   65.92 input  -60.55 | X-H torsion
[ 11005 11000 10999 10996 ] final  -86.64 input  -57.11 | X-H torsion

> <Gold.Protein.ActiveResidues>
 VAL166  LYS551  ARG553  GLY616  TRP617  ASP618  TYR619  PRO620  LYS621  CYS622 
 ASP623  PHE694  ASN695  SER759  ASP760  ASP761  ALA762  ILE779  LEU786  VAL792 
 PHE793  MET794  SER795  GLU796  ALA797  LYS798  CYS799  TRP800  GLU811  SER814 

> <Gold.Protein.RotatedAtoms>
  150.9458  133.6604  159.2781 H   0  0  0  0  0  0  0  0  0  0  0  0  # atno 6907 bound_to 6896
  151.3977  135.0965  159.9556 H   0  0  0  0  0  0  0  0  0  0  0  0  # atno 6908 bound_to 6896
  152.5089  133.8959  159.7472 H   0  0  0  0  0  0  0  0  0  0  0  0  # atno 6909 bound_to 6896
  145.1162  140.8641  143.3841 H   0  0  0  0  0  0  0  0  0  0  0  0  # atno 7974 bound_to 7965
  155.8276  140.0929  157.1812 H   0  0  0  0  0  0  0  0  0  0  0  0  # atno 8008 bound_to 7997
  154.3979  140.1425  156.3635 H   0  0  0  0  0  0  0  0  0  0  0  0  # atno 8009 bound_to 7997
  155.8201  140.3446  155.5511 H   0  0  0  0  0  0  0  0  0  0  0  0  # atno 8010 bound_to 7997
  139.6184  144.0673  152.1910 H   0  0  0  0  0  0  0  0  0  0  0  0  # atno 10167 bound_to 10162
  157.4283  131.1046  151.0279 H   0  0  0  0  0  0  0  0  0  0  0  0  # atno 10718 bound_to 10713
  153.0117  135.5339  154.6743 H   0  0  0  0  0  0  0  0  0  0  0  0  # atno 10763 bound_to 10752
  154.5919  135.2859  155.0628 H   0  0  0  0  0  0  0  0  0  0  0  0  # atno 10764 bound_to 10752
  154.1718  135.6531  153.5064 H   0  0  0  0  0  0  0  0  0  0  0  0  # atno 10765 bound_to 10752
  141.1627  133.7466  156.9190 H   0  0  0  0  0  0  0  0  0  0  0  0  # atno 11005 bound_to 11000
  145.0792  139.2973  143.5792 LP  0  0  0  0  0  0  0  0  0  0  0  0  # atno 17320 bound_to 7965
  146.3523  140.0292  142.8652 LP  0  0  0  0  0  0  0  0  0  0  0  0  # atno 17321 bound_to 7965
  140.0309  144.6082  150.7489 LP  0  0  0  0  0  0  0  0  0  0  0  0  # atno 17342 bound_to 10162
  140.7366  143.2755  151.3755 LP  0  0  0  0  0  0  0  0  0  0  0  0  # atno 17343 bound_to 10162
  157.1184  130.6051  149.5499 LP  0  0  0  0  0  0  0  0  0  0  0  0  # atno 17370 bound_to 10713
  155.9904  130.4955  150.7255 LP  0  0  0  0  0  0  0  0  0  0  0  0  # atno 17371 bound_to 10713
  140.1464  134.9259  157.2535 LP  0  0  0  0  0  0  0  0  0  0  0  0  # atno 17394 bound_to 11000
  140.2774  134.3389  155.7354 LP  0  0  0  0  0  0  0  0  0  0  0  0  # atno 17395 bound_to 11000

$$$$
