AV-unprocessed.smi:2434|AV-procd|sdf|9591|dock3
  -GOLD-   2272013223D 1   1.00000     0.00000
 Structure written by MMmdl.
 36 37  0  0  0  0  0  0  0  0  1 V2000
  148.0281  141.6937  154.4552 C   0  0  0  0  0  0  0  0  0  0  0  0
  147.4600  141.0178  153.1975 C   0  0  0  0  0  0  0  0  0  0  0  0
  147.1244  139.5221  153.3667 C   0  0  0  0  0  0  0  0  0  0  0  0
  146.6039  138.9466  152.0318 C   0  0  0  0  0  0  0  0  0  0  0  0
  146.8510  137.5116  151.9094 N   0  0  0  0  0  0  0  0  0  0  0  0
  145.9118  136.5689  151.7459 C   0  0  0  0  0  0  0  0  0  0  0  0
  144.7038  136.8028  151.6986 O   0  0  0  0  0  0  0  0  0  0  0  0
  146.4603  135.3506  151.6109 N   0  0  0  0  0  0  0  0  0  0  0  0
  145.7696  134.1330  151.3849 C   0  0  0  0  0  0  0  0  0  0  0  0
  144.5906  134.1642  150.6122 C   0  0  0  0  0  0  0  0  0  0  0  0
  143.9098  132.9544  150.3687 C   0  0  0  0  0  0  0  0  0  0  0  0
  144.3371  131.7574  150.8238 N   0  0  0  0  0  0  0  0  0  0  0  0
  145.4805  131.7281  151.5416 C   0  0  0  0  0  0  0  0  0  0  0  0
  146.2385  132.8777  151.8433 C   0  0  0  0  0  0  0  0  0  0  0  0
  147.3996  132.7578  152.5311 F   0  0  0  0  0  0  0  0  0  0  0  0
  148.2210  138.6754  154.0525 C   0  0  0  0  0  0  0  0  0  0  0  0
  147.1411  137.9634  154.8651 C   0  0  0  0  0  0  0  0  0  0  0  0
  146.2543  139.1774  154.5957 C   0  0  0  0  0  0  0  0  0  0  0  0
  148.3243  142.7197  154.2364 H   0  0  0  0  0  0  0  0  0  0  0  0
  148.9084  141.1690  154.8264 H   0  0  0  0  0  0  0  0  0  0  0  0
  147.2956  141.7354  155.2607 H   0  0  0  0  0  0  0  0  0  0  0  0
  146.5920  141.5776  152.8491 H   0  0  0  0  0  0  0  0  0  0  0  0
  148.1987  141.1333  152.4035 H   0  0  0  0  0  0  0  0  0  0  0  0
  145.5253  139.0846  151.9536 H   0  0  0  0  0  0  0  0  0  0  0  0
  147.0157  139.4989  151.1866 H   0  0  0  0  0  0  0  0  0  0  0  0
  147.8168  137.2185  151.9321 H   0  0  0  0  0  0  0  0  0  0  0  0
  147.4661  135.3115  151.5377 H   0  0  0  0  0  0  0  0  0  0  0  0
  144.2055  135.0952  150.2223 H   0  0  0  0  0  0  0  0  0  0  0  0
  142.9979  132.9484  149.7904 H   0  0  0  0  0  0  0  0  0  0  0  0
  145.8098  130.7551  151.8753 H   0  0  0  0  0  0  0  0  0  0  0  0
  148.7856  138.0228  153.3859 H   0  0  0  0  0  0  0  0  0  0  0  0
  148.8895  139.2645  154.6827 H   0  0  0  0  0  0  0  0  0  0  0  0
  146.7759  137.0526  154.3885 H   0  0  0  0  0  0  0  0  0  0  0  0
  147.3890  137.8029  155.9148 H   0  0  0  0  0  0  0  0  0  0  0  0
  146.3203  139.9221  155.3912 H   0  0  0  0  0  0  0  0  0  0  0  0
  145.2151  138.9364  154.3685 H   0  0  0  0  0  0  0  0  0  0  0  0
  1  2  1  0  0  0  0
  1 19  1  0  0  0  0
  1 20  1  0  0  0  0
  1 21  1  0  0  0  0
  2  3  1  0  0  0  0
  2 22  1  0  0  0  0
  2 23  1  0  0  0  0
  3 18  1  0  0  0  0
  3  4  1  0  0  0  0
  3 16  1  0  0  0  0
  4  5  1  0  0  0  0
  4 24  1  0  0  0  0
  4 25  1  0  0  0  0
  5  6  1  0  0  0  0
  5 26  1  0  0  0  0
  6  7  2  0  0  0  0
  6  8  1  0  0  0  0
  8  9  1  0  0  0  0
  8 27  1  0  0  0  0
  9 14  1  0  0  0  0
  9 10  2  0  0  0  0
 10 11  1  0  0  0  0
 10 28  1  0  0  0  0
 11 12  2  0  0  0  0
 11 29  1  0  0  0  0
 12 13  1  0  0  0  0
 13 14  2  0  0  0  0
 13 30  1  0  0  0  0
 14 15  1  0  0  0  0
 16 17  1  0  0  0  0
 16 31  1  0  0  0  0
 16 32  1  0  0  0  0
 17 18  1  0  0  0  0
 17 33  1  0  0  0  0
 17 34  1  0  0  0  0
 18 35  1  0  0  0  0
 18 36  1  0  0  0  0
M  END
> <s_m_source_file>
AV-unprocessed.smi

> <i_m_source_file_index>
2434

> <i_lp_mmshare_version>
43012

> <i_f3d_flags>
0

> <s_epik_input>
W0NIMl0xW0NIMl1bQ0gyXUMxKFtDSDJdW0NIM10pW0NIMl1bTkhdQyg9TylbTkhdYzJbY0hdW2NIXW5bY0hdYzJG

> <s_epik_cmdline>
J2VwaWtfcHl0aG9uJywgJy1waCcsICc3LjAnLCAnLXRuJywgJzgnLCAnLW1hJywgJzIwMCcsICctbWV0YWxfYmluZGluZycsICctaW1hZScsICc8aW5maWxlLm1hZT4nLCAnLW9tYWUnLCAnPG91dGZpbGUubWFlPic=

> <r_epik_Ionization_Penalty>
0.00332283

> <r_epik_Ionization_Penalty_Charging>
0

> <r_epik_Ionization_Penalty_Neutral>
0.00332283

> <r_epik_State_Penalty>
0.00231995

> <r_epik_Charging_Adjusted_Penalty>
0.00231995

> <i_epik_Tot_Q>
0

> <i_epik_Tot_abs_Q>
0

> <r_epik_Metal_State_Penalty>
-0

> <b_epik_Metal_Only>
0

> <s_lp_Force_Field>
OPLS_2005

> <r_lp_Energy>
27.2745

> <b_lp_Chiralities_Consistent>
1

> <s_lp_Variant>
AV-unprocessed.smi:2434-1

> <Gold.Version>
5.8.1

> <Gold.Id.Protein>
6NUR|6NUR_protein|mol2

> <Gold.PLP.Fitness>
38.1554

> <Gold.PLP.PLP>
-30.4870

> <Gold.PLP.part.hbond>
-1.9026

> <Gold.PLP.part.metal>
0.0000

> <Gold.PLP.part.buried>
-4.4889

> <Gold.PLP.part.nonpolar>
-26.4231

> <Gold.PLP.part.repulsive>
1.8628

> <Gold.PLP.ligand.clash>
0.0000

> <Gold.PLP.ligand.torsion>
0.7501

> <Gold.PLP.Chemscore.Hbond>
1.9120

> <Gold.PLP.Chemscore.CHOScore>
1.0000

> <Gold.PLP.Chemscore.Metal>
0.0000

> <Gold.Chemscore.Hbonds>
donor molecule, donor type, donor heavy atom, donor atom, acceptor molecule, acceptor atom, score
      L1  H     5    26       P1  7948  0.88
      L1  H     8    27       P1  7948  0.90
      L1  C    11    29       P1 10186  1.00

> <Gold.PLP.Chemscore.Internal.Correction>
0.4326

> <Gold.Rescore>
     Score         DG    S(hbond)    S(metal)    S(lipo)     H(rot)  DE(clash)    DE(int)     intcor
     12.21     -16.99       1.89        0.00      75.06       1.40       1.82       2.97       ----

> <Gold.Chemscore.Fitness>
12.2057

> <Gold.Chemscore.DG>
-16.9888

> <Gold.Chemscore.ZeroCoef>
-5.4800

> <Gold.Chemscore.Hbond>
1.8886

> <Gold.Chemscore.Metal>
0.0000

> <Gold.Chemscore.Lipo>
75.0618

> <Gold.Chemscore.Internal_Hbond>
0.0000

> <Gold.Chemscore.DEClash>
1.8164

> <Gold.Chemscore.DEInternal>
2.9666

> <Gold.Chemscore.Rot>
1.3990

> <Gold.Chemscore.Internal.Correction>
   9.000000E+99

> <Gold.Chemscore.Hbonds>
donor molecule, donor type, donor heavy atom, donor atom, acceptor molecule, acceptor atom, score
      L1  H     5    26       P1  7948  0.84
      L1  H     8    27       P1  7948  0.75

> <Gold.Chemscore.Hbond.Weighted>
-6.3079

> <Gold.Chemscore.Metal.Weighted>
-0.0000

> <Gold.Chemscore.Lipo.Weighted>
-8.7822

> <Gold.Chemscore.Internal_Hbond.Weighted>
0.0000

> <Gold.Chemscore.DEClash.Weighted>
1.8164

> <Gold.Chemscore.DEInternal.Weighted>
2.9666

> <Gold.Chemscore.Rot.Weighted>
3.5814

> <Gold.Chemscore.Internal.Correction.Weighted>
   9.000000E+99

> <Gold.Protein.RotatedTorsions>
[ 6907 6896 6895 6894 ] final   80.69 input  -60.11 | X-H torsion
[ 7974 7965 7964 7962 ] final   50.43 input  175.53 | X-H torsion
[ 8008 7997 7996 7995 ] final   47.71 input   59.86 | X-H torsion
[ 10167 10162 10161 10158 ] final  -39.61 input  -65.29 | X-H torsion
[ 10718 10713 10712 10709 ] final  -78.76 input   66.30 | X-H torsion
[ 10763 10752 10751 10750 ] final -150.22 input  -60.55 | X-H torsion
[ 11005 11000 10999 10996 ] final   68.79 input  -57.11 | X-H torsion

> <Gold.Protein.ActiveResidues>
 VAL166  LYS551  ARG553  GLY616  TRP617  ASP618  TYR619  PRO620  LYS621  CYS622 
 ASP623  PHE694  ASN695  SER759  ASP760  ASP761  ALA762  ILE779  LEU786  VAL792 
 PHE793  MET794  SER795  GLU796  ALA797  LYS798  CYS799  TRP800  GLU811  SER814 

> <Gold.Protein.RotatedAtoms>
  152.5243  134.3319  159.9185 H   0  0  0  0  0  0  0  0  0  0  0  0  # atno 6907 bound_to 6896
  151.3268  133.4011  159.2667 H   0  0  0  0  0  0  0  0  0  0  0  0  # atno 6908 bound_to 6896
  150.9914  134.9265  159.7959 H   0  0  0  0  0  0  0  0  0  0  0  0  # atno 6909 bound_to 6896
  146.0012  139.4441  143.0014 H   0  0  0  0  0  0  0  0  0  0  0  0  # atno 7974 bound_to 7965
  155.3735  140.3425  155.4244 H   0  0  0  0  0  0  0  0  0  0  0  0  # atno 8008 bound_to 7997
  156.1649  140.1613  156.8582 H   0  0  0  0  0  0  0  0  0  0  0  0  # atno 8009 bound_to 7997
  154.5176  140.0775  156.8092 H   0  0  0  0  0  0  0  0  0  0  0  0  # atno 8010 bound_to 7997
  140.7059  143.3203  151.2807 H   0  0  0  0  0  0  0  0  0  0  0  0  # atno 10167 bound_to 10162
  156.0109  130.4527  150.3545 H   0  0  0  0  0  0  0  0  0  0  0  0  # atno 10718 bound_to 10713
  154.8132  135.3290  154.7249 H   0  0  0  0  0  0  0  0  0  0  0  0  # atno 10763 bound_to 10752
  153.7894  135.6912  153.4878 H   0  0  0  0  0  0  0  0  0  0  0  0  # atno 10764 bound_to 10752
  153.1927  135.4545  155.0115 H   0  0  0  0  0  0  0  0  0  0  0  0  # atno 10765 bound_to 10752
  139.9691  134.6930  156.0484 H   0  0  0  0  0  0  0  0  0  0  0  0  # atno 11005 bound_to 11000
  145.7484  140.9982  143.1263 LP  0  0  0  0  0  0  0  0  0  0  0  0  # atno 17320 bound_to 7965
  144.6920  139.9185  143.7467 LP  0  0  0  0  0  0  0  0  0  0  0  0  # atno 17321 bound_to 7965
  139.6655  144.0112  152.2720 LP  0  0  0  0  0  0  0  0  0  0  0  0  # atno 17342 bound_to 10162
  139.9694  144.6504  150.8004 LP  0  0  0  0  0  0  0  0  0  0  0  0  # atno 17343 bound_to 10162
  157.1636  131.0351  151.2829 LP  0  0  0  0  0  0  0  0  0  0  0  0  # atno 17370 bound_to 10713
  157.4290  130.7480  149.6974 LP  0  0  0  0  0  0  0  0  0  0  0  0  # atno 17371 bound_to 10713
  141.1371  133.6573  156.3624 LP  0  0  0  0  0  0  0  0  0  0  0  0  # atno 17394 bound_to 11000
  140.5332  134.6192  157.5356 LP  0  0  0  0  0  0  0  0  0  0  0  0  # atno 17395 bound_to 11000

$$$$
