AV-unprocessed.smi:1496|AV-procd|sdf|6056|dock1
  -GOLD-   22720 6173D 1   1.00000     0.00000
 Structure written by MMmdl.
 43 44  0  0  0  0  0  0  0  0  2 V2000
  149.3503  133.1900  153.3496 C   0  0  0  0  0  0  0  0  0  0  0  0
  149.5213  133.5227  154.8475 C   0  0  0  0  0  0  0  0  0  0  0  0
  150.0729  132.2863  155.5758 C   0  0  0  0  0  0  0  0  0  0  0  0
  150.4656  134.7277  155.0715 C   0  0  0  0  0  0  0  0  0  0  0  0
  149.8464  136.0000  154.6272 N   0  3  2  0  0  0  0  0  0  0  0  0
  150.7702  137.1536  154.7654 C   0  0  0  0  0  0  0  0  0  0  0  0
  151.2486  137.3588  156.2158 C   0  0  0  0  0  0  0  0  0  0  0  0
  150.8003  138.6408  156.7473 N   0  0  0  0  0  0  0  0  0  0  0  0
  151.6116  139.6143  157.1846 C   0  0  0  0  0  0  0  0  0  0  0  0
  152.8386  139.5225  157.1726 O   0  0  0  0  0  0  0  0  0  0  0  0
  150.9077  140.6746  157.6177 N   0  0  0  0  0  0  0  0  0  0  0  0
  151.3719  141.8958  158.1809 C   0  0  0  0  0  0  0  0  0  0  0  0
  152.4748  142.0134  159.0625 C   0  0  0  0  0  0  0  0  0  0  0  0
  152.8189  143.2867  159.5557 C   0  0  0  0  0  0  0  0  0  0  0  0
  152.0478  144.3949  159.1560 C   0  0  0  0  0  0  0  0  0  0  0  0
  150.9898  144.2977  158.3241 N   0  0  0  0  0  0  0  0  0  0  0  0
  150.6661  143.0739  157.8550 C   0  0  0  0  0  0  0  0  0  0  0  0
  148.5422  136.1975  155.3030 C   0  0  0  0  0  0  0  0  0  0  0  0
  147.6225  134.9956  155.0450 C   0  0  0  0  0  0  0  0  0  0  0  0
  148.2592  133.7920  155.4631 O   0  0  0  0  0  0  0  0  0  0  0  0
  150.2953  132.8677  152.9114 H   0  0  0  0  0  0  0  0  0  0  0  0
  149.0072  134.0447  152.7676 H   0  0  0  0  0  0  0  0  0  0  0  0
  148.6309  132.3831  153.2068 H   0  0  0  0  0  0  0  0  0  0  0  0
  151.0547  132.0049  155.1934 H   0  0  0  0  0  0  0  0  0  0  0  0
  149.4119  131.4275  155.4532 H   0  0  0  0  0  0  0  0  0  0  0  0
  150.1752  132.4688  156.6460 H   0  0  0  0  0  0  0  0  0  0  0  0
  150.7171  134.8157  156.1300 H   0  0  0  0  0  0  0  0  0  0  0  0
  151.4042  134.5638  154.5398 H   0  0  0  0  0  0  0  0  0  0  0  0
  151.6196  137.0311  154.0914 H   0  0  0  0  0  0  0  0  0  0  0  0
  150.2497  138.0567  154.4435 H   0  0  0  0  0  0  0  0  0  0  0  0
  150.8975  136.5460  156.8542 H   0  0  0  0  0  0  0  0  0  0  0  0
  152.3364  137.3500  156.2713 H   0  0  0  0  0  0  0  0  0  0  0  0
  149.8033  138.7967  156.7879 H   0  0  0  0  0  0  0  0  0  0  0  0
  149.9059  140.6096  157.5103 H   0  0  0  0  0  0  0  0  0  0  0  0
  153.0585  141.1647  159.3804 H   0  0  0  0  0  0  0  0  0  0  0  0
  153.6545  143.4102  160.2285 H   0  0  0  0  0  0  0  0  0  0  0  0
  152.2849  145.3847  159.5174 H   0  0  0  0  0  0  0  0  0  0  0  0
  149.8123  143.0353  157.1943 H   0  0  0  0  0  0  0  0  0  0  0  0
  148.6997  136.3248  156.3752 H   0  0  0  0  0  0  0  0  0  0  0  0
  148.0531  137.1015  154.9427 H   0  0  0  0  0  0  0  0  0  0  0  0
  146.6963  135.1097  155.6084 H   0  0  0  0  0  0  0  0  0  0  0  0
  147.3374  134.9396  153.9944 H   0  0  0  0  0  0  0  0  0  0  0  0
  149.6597  135.8952  153.6400 H   0  0  0  0  0  0  0  0  0  0  0  0
  1  2  1  0  0  0  0
  1 21  1  0  0  0  0
  1 22  1  0  0  0  0
  1 23  1  0  0  0  0
  2 20  1  0  0  0  0
  2  3  1  0  0  0  0
  2  4  1  0  0  0  0
  3 24  1  0  0  0  0
  3 25  1  0  0  0  0
  3 26  1  0  0  0  0
  4  5  1  0  0  0  0
  4 27  1  0  0  0  0
  4 28  1  0  0  0  0
  5  6  1  0  0  0  0
  5 18  1  0  0  0  0
  5 43  1  0  0  0  0
  6  7  1  0  0  0  0
  6 29  1  0  0  0  0
  6 30  1  0  0  0  0
  7  8  1  0  0  0  0
  7 31  1  0  0  0  0
  7 32  1  0  0  0  0
  8  9  1  0  0  0  0
  8 33  1  0  0  0  0
  9 10  2  0  0  0  0
  9 11  1  0  0  0  0
 11 12  1  0  0  0  0
 11 34  1  0  0  0  0
 12 17  1  0  0  0  0
 12 13  2  0  0  0  0
 13 14  1  0  0  0  0
 13 35  1  0  0  0  0
 14 15  2  0  0  0  0
 14 36  1  0  0  0  0
 15 16  1  0  0  0  0
 15 37  1  0  0  0  0
 16 17  2  0  0  0  0
 17 38  1  0  0  0  0
 18 19  1  0  0  0  0
 18 39  1  0  0  0  0
 18 40  1  0  0  0  0
 19 20  1  0  0  0  0
 19 41  1  0  0  0  0
 19 42  1  0  0  0  0
M  CHG  1   5   1
M  END
> <s_m_source_file>
AV-unprocessed.smi

> <i_m_source_file_index>
1496

> <i_lp_mmshare_version>
43012

> <i_f3d_flags>
0

> <s_epik_input>
W0NIM11DMShbQ0gzXSlbQ0gyXU4oW0NIMl1bQ0gyXU8xKVtDSDJdW0NIMl1bTkhdQyg9TylbTkhdYzJbY0hdW2NIXVtjSF1uW2NIXTI=

> <s_epik_cmdline>
J2VwaWtfcHl0aG9uJywgJy1waCcsICc3LjAnLCAnLXRuJywgJzgnLCAnLW1hJywgJzIwMCcsICctbWV0YWxfYmluZGluZycsICctaW1hZScsICc8aW5maWxlLm1hZT4nLCAnLW9tYWUnLCAnPG91dGZpbGUubWFlPic=

> <r_epik_Ionization_Penalty>
0.606681

> <r_epik_Ionization_Penalty_Charging>
0.602531

> <r_epik_Ionization_Penalty_Neutral>
0.00415082

> <r_epik_State_Penalty>
0.607427

> <r_epik_Charging_Adjusted_Penalty>
1.20996

> <i_epik_Tot_Q>
1

> <i_epik_Tot_abs_Q>
1

> <r_epik_Metal_State_Penalty>
0.604583

> <b_epik_Metal_Only>
0

> <s_lp_Force_Field>
OPLS_2005

> <r_lp_Energy>
20.8776

> <b_lp_Chiralities_Consistent>
1

> <s_lp_Variant>
AV-unprocessed.smi:1496-2

> <Gold.Version>
5.8.1

> <Gold.Id.Protein>
6NUR|6NUR_protein|mol2

> <Gold.PLP.Fitness>
44.2989

> <Gold.PLP.PLP>
-33.5855

> <Gold.PLP.part.hbond>
-2.0000

> <Gold.PLP.part.metal>
0.0000

> <Gold.PLP.part.buried>
-4.8942

> <Gold.PLP.part.nonpolar>
-26.9392

> <Gold.PLP.part.repulsive>
0.2856

> <Gold.PLP.ligand.clash>
0.0000

> <Gold.PLP.ligand.torsion>
0.6566

> <Gold.PLP.Chemscore.Hbond>
3.0000

> <Gold.PLP.Chemscore.CHOScore>
1.0000

> <Gold.PLP.Chemscore.Metal>
0.0000

> <Gold.Chemscore.Hbonds>
donor molecule, donor type, donor heavy atom, donor atom, acceptor molecule, acceptor atom, score
      L1  H     5    43       P1  7948  1.90
      P1  H  7997  8008       L1    10  1.00
      L1  C    17    38       P1  8028  1.00

> <Gold.PLP.Chemscore.Internal.Correction>
0.0267

> <Gold.Rescore>
     Score         DG    S(hbond)    S(metal)    S(lipo)     H(rot)  DE(clash)    DE(int)     intcor
     17.64     -18.27       1.90        0.00      87.86       1.50       0.02       0.62       ----

> <Gold.Chemscore.Fitness>
17.6397

> <Gold.Chemscore.DG>
-18.2747

> <Gold.Chemscore.ZeroCoef>
-5.4800

> <Gold.Chemscore.Hbond>
1.9036

> <Gold.Chemscore.Metal>
0.0000

> <Gold.Chemscore.Lipo>
87.8574

> <Gold.Chemscore.Internal_Hbond>
0.0000

> <Gold.Chemscore.DEClash>
0.0162

> <Gold.Chemscore.DEInternal>
0.6189

> <Gold.Chemscore.Rot>
1.5010

> <Gold.Chemscore.Internal.Correction>
   9.000000E+99

> <Gold.Chemscore.Hbonds>
donor molecule, donor type, donor heavy atom, donor atom, acceptor molecule, acceptor atom, score
      L1  H     5    43       P1  7948  0.21
      P1  H  7997  8008       L1    10  0.99

> <Gold.Chemscore.Hbond.Weighted>
-6.3580

> <Gold.Chemscore.Metal.Weighted>
-0.0000

> <Gold.Chemscore.Lipo.Weighted>
-10.2793

> <Gold.Chemscore.Internal_Hbond.Weighted>
0.0000

> <Gold.Chemscore.DEClash.Weighted>
0.0162

> <Gold.Chemscore.DEInternal.Weighted>
0.6189

> <Gold.Chemscore.Rot.Weighted>
3.8426

> <Gold.Chemscore.Internal.Correction.Weighted>
   9.000000E+99

> <Gold.Protein.RotatedTorsions>
[ 6907 6896 6895 6894 ] final  176.09 input  -60.11 | X-H torsion
[ 7974 7965 7964 7962 ] final  -12.64 input  175.53 | X-H torsion
[ 8008 7997 7996 7995 ] final  -78.05 input   59.86 | X-H torsion
[ 10167 10162 10161 10158 ] final   44.99 input  -65.29 | X-H torsion
[ 10718 10713 10712 10709 ] final   65.16 input   66.30 | X-H torsion
[ 10763 10752 10751 10750 ] final -162.98 input  -60.55 | X-H torsion
[ 11005 11000 10999 10996 ] final   63.57 input  -57.11 | X-H torsion

> <Gold.Protein.ActiveResidues>
 VAL166  LYS551  ARG553  GLY616  TRP617  ASP618  TYR619  PRO620  LYS621  CYS622 
 ASP623  PHE694  ASN695  SER759  ASP760  ASP761  ALA762  ILE779  LEU786  VAL792 
 PHE793  MET794  SER795  GLU796  ALA797  LYS798  CYS799  TRP800  GLU811  SER814 

> <Gold.Protein.RotatedAtoms>
  151.7257  133.3316  159.3326 H   0  0  0  0  0  0  0  0  0  0  0  0  # atno 6907 bound_to 6896
  150.7634  134.6408  159.6245 H   0  0  0  0  0  0  0  0  0  0  0  0  # atno 6908 bound_to 6896
  152.3624  134.6855  160.0254 H   0  0  0  0  0  0  0  0  0  0  0  0  # atno 6909 bound_to 6896
  146.2144  140.3087  142.8381 H   0  0  0  0  0  0  0  0  0  0  0  0  # atno 7974 bound_to 7965
  154.5653  140.0700  156.8882 H   0  0  0  0  0  0  0  0  0  0  0  0  # atno 8008 bound_to 7997
  155.2735  140.3367  155.4245 H   0  0  0  0  0  0  0  0  0  0  0  0  # atno 8009 bound_to 7997
  156.2075  140.1746  156.7753 H   0  0  0  0  0  0  0  0  0  0  0  0  # atno 8010 bound_to 7997
  140.3287  144.2616  150.6171 H   0  0  0  0  0  0  0  0  0  0  0  0  # atno 10167 bound_to 10162
  157.6087  130.9199  149.9941 H   0  0  0  0  0  0  0  0  0  0  0  0  # atno 10718 bound_to 10713
  154.7165  135.3017  154.9116 H   0  0  0  0  0  0  0  0  0  0  0  0  # atno 10763 bound_to 10752
  154.0001  135.6708  153.4763 H   0  0  0  0  0  0  0  0  0  0  0  0  # atno 10764 bound_to 10752
  153.0798  135.5015  154.8394 H   0  0  0  0  0  0  0  0  0  0  0  0  # atno 10765 bound_to 10752
  140.0016  134.6434  155.9922 H   0  0  0  0  0  0  0  0  0  0  0  0  # atno 11005 bound_to 11000
  144.9004  140.7635  143.5870 LP  0  0  0  0  0  0  0  0  0  0  0  0  # atno 17320 bound_to 7965
  145.3013  139.1849  143.4688 LP  0  0  0  0  0  0  0  0  0  0  0  0  # atno 17321 bound_to 7965
  140.5417  143.2222  151.8073 LP  0  0  0  0  0  0  0  0  0  0  0  0  # atno 17342 bound_to 10162
  139.4860  144.4591  151.9562 LP  0  0  0  0  0  0  0  0  0  0  0  0  # atno 17343 bound_to 10162
  156.1183  130.3647  149.9931 LP  0  0  0  0  0  0  0  0  0  0  0  0  # atno 17370 bound_to 10713
  156.8016  130.9292  151.3646 LP  0  0  0  0  0  0  0  0  0  0  0  0  # atno 17371 bound_to 10713
  141.1646  133.6537  156.4434 LP  0  0  0  0  0  0  0  0  0  0  0  0  # atno 17394 bound_to 11000
  140.4718  134.6746  157.5132 LP  0  0  0  0  0  0  0  0  0  0  0  0  # atno 17395 bound_to 11000

$$$$
