AV-unprocessed.smi:910|AV-procd|sdf|4130|dock2
  -GOLD-   22720 2 33D 1   1.00000     0.00000
 Structure written by MMmdl.
 47 48  0  0  0  0  0  0  0  0  2 V2000
  143.9540  131.8977  150.5176 C   0  0  0  0  0  0  0  0  0  0  0  0
  145.2033  132.0644  151.3245 C   0  0  0  0  0  0  0  0  0  0  0  0
  145.8844  133.2210  151.6236 N   0  3  0  0  0  0  0  0  0  0  0  0
  146.9507  132.9301  152.3645 C   0  0  0  0  0  0  0  0  0  0  0  0
  147.8580  133.8920  152.8634 N   0  0  0  0  0  0  0  0  0  0  0  0
  148.4278  133.8614  154.0770 C   0  0  0  0  0  0  0  0  0  0  0  0
  148.3621  132.9076  154.8533 O   0  0  0  0  0  0  0  0  0  0  0  0
  149.0678  135.0072  154.3552 N   0  0  0  0  0  0  0  0  0  0  0  0
  149.6527  135.3397  155.6509 C   0  0  0  0  0  0  0  0  0  0  0  0
  150.8778  136.2530  155.4869 C   0  0  0  0  0  0  0  0  0  0  0  0
  150.4666  137.6030  155.6364 O   0  0  0  0  0  0  0  0  0  0  0  0
  151.3620  138.5718  155.1070 C   0  0  2  0  0  0  0  0  0  0  0  0
  152.7010  138.4111  155.8502 C   0  0  0  0  0  0  0  0  0  0  0  0
  152.5751  138.7656  157.3420 C   0  0  0  0  0  0  0  0  0  0  0  0
  152.0063  140.1793  157.5333 C   0  0  0  0  0  0  0  0  0  0  0  0
  150.6643  140.3450  156.8032 C   0  0  0  0  0  0  0  0  0  0  0  0
  150.7869  139.9961  155.3059 C   0  0  2  0  0  0  0  0  0  0  0  0
  149.4595  140.2164  154.5646 C   0  0  0  0  0  0  0  0  0  0  0  0
  147.0238  131.5914  152.5928 O   0  0  0  0  0  0  0  0  0  0  0  0
  145.9278  131.0660  151.9400 C   0  0  0  0  0  0  0  0  0  0  0  0
  145.7411  129.5887  152.0179 C   0  0  0  0  0  0  0  0  0  0  0  0
  144.1002  131.1816  149.7087 H   0  0  0  0  0  0  0  0  0  0  0  0
  143.6415  132.8411  150.0694 H   0  0  0  0  0  0  0  0  0  0  0  0
  143.1319  131.5367  151.1359 H   0  0  0  0  0  0  0  0  0  0  0  0
  145.5855  134.1350  151.3083 H   0  0  0  0  0  0  0  0  0  0  0  0
  149.0859  135.7315  153.6520 H   0  0  0  0  0  0  0  0  0  0  0  0
  148.9130  135.8002  156.3081 H   0  0  0  0  0  0  0  0  0  0  0  0
  149.9549  134.4084  156.1300 H   0  0  0  0  0  0  0  0  0  0  0  0
  151.6273  136.0203  156.2444 H   0  0  0  0  0  0  0  0  0  0  0  0
  151.3385  136.0869  154.5123 H   0  0  0  0  0  0  0  0  0  0  0  0
  151.5409  138.3938  154.0446 H   0  0  0  0  0  0  0  0  0  0  0  0
  153.0670  137.3899  155.7411 H   0  0  0  0  0  0  0  0  0  0  0  0
  153.4504  139.0559  155.3893 H   0  0  0  0  0  0  0  0  0  0  0  0
  151.9277  138.0418  157.8389 H   0  0  0  0  0  0  0  0  0  0  0  0
  153.5494  138.6885  157.8252 H   0  0  0  0  0  0  0  0  0  0  0  0
  151.8793  140.3879  158.5960 H   0  0  0  0  0  0  0  0  0  0  0  0
  152.7195  140.9136  157.1573 H   0  0  0  0  0  0  0  0  0  0  0  0
  149.9131  139.7102  157.2737 H   0  0  0  0  0  0  0  0  0  0  0  0
  150.3133  141.3708  156.9195 H   0  0  0  0  0  0  0  0  0  0  0  0
  151.5047  140.6926  154.8701 H   0  0  0  0  0  0  0  0  0  0  0  0
  148.6644  139.5926  154.9724 H   0  0  0  0  0  0  0  0  0  0  0  0
  149.5583  139.9849  153.5038 H   0  0  0  0  0  0  0  0  0  0  0  0
  149.1357  141.2545  154.6455 H   0  0  0  0  0  0  0  0  0  0  0  0
  144.7597  129.2958  151.6449 H   0  0  0  0  0  0  0  0  0  0  0  0
  145.8261  129.2420  153.0480 H   0  0  0  0  0  0  0  0  0  0  0  0
  146.4959  129.0736  151.4236 H   0  0  0  0  0  0  0  0  0  0  0  0
  148.0222  134.7029  152.2855 H   0  0  0  0  0  0  0  0  0  0  0  0
  1 22  1  0  0  0  0
  1 23  1  0  0  0  0
  1 24  1  0  0  0  0
  1  2  1  0  0  0  0
  2  3  1  0  0  0  0
  2 20  2  0  0  0  0
  3 25  1  0  0  0  0
  3  4  2  0  0  0  0
  4 19  1  0  0  0  0
  4  5  1  0  0  0  0
  5  6  1  0  0  0  0
  5 47  1  0  0  0  0
  6  8  1  0  0  0  0
  6  7  2  0  0  0  0
  8  9  1  0  0  0  0
  8 26  1  0  0  0  0
  9 10  1  0  0  0  0
  9 27  1  0  0  0  0
  9 28  1  0  0  0  0
 10 11  1  0  0  0  0
 10 29  1  0  0  0  0
 10 30  1  0  0  0  0
 11 12  1  0  0  0  0
 12 17  1  0  0  0  0
 12 13  1  0  0  0  0
 12 31  1  0  0  0  0
 13 14  1  0  0  0  0
 13 32  1  0  0  0  0
 13 33  1  0  0  0  0
 14 15  1  0  0  0  0
 14 34  1  0  0  0  0
 14 35  1  0  0  0  0
 15 16  1  0  0  0  0
 15 36  1  0  0  0  0
 15 37  1  0  0  0  0
 16 17  1  0  0  0  0
 16 38  1  0  0  0  0
 16 39  1  0  0  0  0
 17 18  1  0  0  0  0
 17 40  1  0  0  0  0
 18 41  1  0  0  0  0
 18 42  1  0  0  0  0
 18 43  1  0  0  0  0
 19 20  1  0  0  0  0
 20 21  1  0  0  0  0
 21 44  1  0  0  0  0
 21 45  1  0  0  0  0
 21 46  1  0  0  0  0
M  CHG  1   3   1
M  END
> <s_m_source_file>
AV-unprocessed.smi

> <i_m_source_file_index>
910

> <i_lp_mmshare_version>
43012

> <i_f3d_flags>
0

> <s_epik_input>
W0NIM11jMW5jKG9jMVtDSDNdKVtOSF1DKD1PKVtOSF1bQ0gyXVtDSDJdT1tDQEBIXTJbQ0gyXVtDSDJdW0NIMl1bQ0gyXVtDQEhdMltDSDNd

> <s_epik_cmdline>
J2VwaWtfcHl0aG9uJywgJy1waCcsICc3LjAnLCAnLXRuJywgJzgnLCAnLW1hJywgJzIwMCcsICctbWV0YWxfYmluZGluZycsICctaW1hZScsICc8aW5maWxlLm1hZT4nLCAnLW9tYWUnLCAnPG91dGZpbGUubWFlPic=

> <r_epik_Ionization_Penalty>
7.32931

> <r_epik_Ionization_Penalty_Charging>
7.12214

> <r_epik_Ionization_Penalty_Neutral>
0.207166

> <r_epik_State_Penalty>
2.61278

> <r_epik_Charging_Adjusted_Penalty>
9.73492

> <i_epik_Tot_Q>
1

> <i_epik_Tot_abs_Q>
1

> <r_epik_Metal_State_Penalty>
2.64585

> <b_epik_Metal_Only>
0

> <s_lp_Force_Field>
OPLS_2005

> <r_lp_Energy>
15.8254

> <b_lp_Chiralities_Consistent>
1

> <s_lp_Variant>
AV-unprocessed.smi:910-15

> <Gold.Version>
5.8.1

> <Gold.Id.Protein>
6NUR|6NUR_protein|mol2

> <Gold.PLP.Fitness>
40.0946

> <Gold.PLP.PLP>
-35.6455

> <Gold.PLP.part.hbond>
-2.0000

> <Gold.PLP.part.metal>
0.0000

> <Gold.PLP.part.buried>
-2.2991

> <Gold.PLP.part.nonpolar>
-30.9105

> <Gold.PLP.part.repulsive>
0.5002

> <Gold.PLP.ligand.clash>
0.0000

> <Gold.PLP.ligand.torsion>
0.7963

> <Gold.PLP.Chemscore.Hbond>
1.9920

> <Gold.PLP.Chemscore.CHOScore>
0.0000

> <Gold.PLP.Chemscore.Metal>
0.0000

> <Gold.Chemscore.Hbonds>
donor molecule, donor type, donor heavy atom, donor atom, acceptor molecule, acceptor atom, score
      L1  H     5    47       P1  7948  1.00
      L1  H     8    26       P1  7948  0.98

> <Gold.PLP.Chemscore.Internal.Correction>
0.0656

> <Gold.Rescore>
     Score         DG    S(hbond)    S(metal)    S(lipo)     H(rot)  DE(clash)    DE(int)     intcor
     14.48     -16.53       1.57        0.00      86.65       1.69       0.05       2.00       ----

> <Gold.Chemscore.Fitness>
14.4844

> <Gold.Chemscore.DG>
-16.5343

> <Gold.Chemscore.ZeroCoef>
-5.4800

> <Gold.Chemscore.Hbond>
1.5734

> <Gold.Chemscore.Metal>
0.0000

> <Gold.Chemscore.Lipo>
86.6518

> <Gold.Chemscore.Internal_Hbond>
0.0000

> <Gold.Chemscore.DEClash>
0.0519

> <Gold.Chemscore.DEInternal>
1.9980

> <Gold.Chemscore.Rot>
1.6949

> <Gold.Chemscore.Internal.Correction>
   9.000000E+99

> <Gold.Chemscore.Hbonds>
donor molecule, donor type, donor heavy atom, donor atom, acceptor molecule, acceptor atom, score
      L1  H     5    47       P1  7948  0.43
      L1  H     8    26       P1  7948  0.77

> <Gold.Chemscore.Hbond.Weighted>
-5.2551

> <Gold.Chemscore.Metal.Weighted>
-0.0000

> <Gold.Chemscore.Lipo.Weighted>
-10.1383

> <Gold.Chemscore.Internal_Hbond.Weighted>
0.0000

> <Gold.Chemscore.DEClash.Weighted>
0.0519

> <Gold.Chemscore.DEInternal.Weighted>
1.9980

> <Gold.Chemscore.Rot.Weighted>
4.3390

> <Gold.Chemscore.Internal.Correction.Weighted>
   9.000000E+99

> <Gold.Protein.RotatedTorsions>
[ 6907 6896 6895 6894 ] final  126.33 input  -60.11 | X-H torsion
[ 7974 7965 7964 7962 ] final  -89.92 input  175.53 | X-H torsion
[ 8008 7997 7996 7995 ] final  -10.35 input   59.86 | X-H torsion
[ 10167 10162 10161 10158 ] final -174.07 input  -65.29 | X-H torsion
[ 10718 10713 10712 10709 ] final  104.40 input   66.30 | X-H torsion
[ 10763 10752 10751 10750 ] final  120.47 input  -60.55 | X-H torsion
[ 11005 11000 10999 10996 ] final -115.58 input  -57.11 | X-H torsion

> <Gold.Protein.ActiveResidues>
 VAL166  LYS551  ARG553  GLY616  TRP617  ASP618  TYR619  PRO620  LYS621  CYS622 
 ASP623  PHE694  ASN695  SER759  ASP760  ASP761  ALA762  ILE779  LEU786  VAL792 
 PHE793  MET794  SER795  GLU796  ALA797  LYS798  CYS799  TRP800  GLU811  SER814 

> <Gold.Protein.RotatedAtoms>
  152.3913  133.6682  159.6239 H   0  0  0  0  0  0  0  0  0  0  0  0  # atno 6907 bound_to 6896
  150.7820  133.8950  159.3333 H   0  0  0  0  0  0  0  0  0  0  0  0  # atno 6908 bound_to 6896
  151.6736  135.0974  160.0254 H   0  0  0  0  0  0  0  0  0  0  0  0  # atno 6909 bound_to 6896
  145.4333  140.9556  143.2116 H   0  0  0  0  0  0  0  0  0  0  0  0  # atno 7974 bound_to 7965
  154.5562  140.2331  155.8406 H   0  0  0  0  0  0  0  0  0  0  0  0  # atno 8008 bound_to 7997
  156.1990  140.3057  155.9448 H   0  0  0  0  0  0  0  0  0  0  0  0  # atno 8009 bound_to 7997
  155.2975  140.0429  157.3018 H   0  0  0  0  0  0  0  0  0  0  0  0  # atno 8010 bound_to 7997
  139.5654  144.1769  152.1304 H   0  0  0  0  0  0  0  0  0  0  0  0  # atno 10167 bound_to 10162
  157.6741  131.0803  150.5700 H   0  0  0  0  0  0  0  0  0  0  0  0  # atno 10718 bound_to 10713
  153.5991  135.3451  155.2938 H   0  0  0  0  0  0  0  0  0  0  0  0  # atno 10763 bound_to 10752
  154.8639  135.4223  154.2433 H   0  0  0  0  0  0  0  0  0  0  0  0  # atno 10764 bound_to 10752
  153.3257  135.7041  153.7063 H   0  0  0  0  0  0  0  0  0  0  0  0  # atno 10765 bound_to 10752
  141.0478  133.9735  157.2888 H   0  0  0  0  0  0  0  0  0  0  0  0  # atno 11005 bound_to 11000
  144.8168  139.5862  143.7004 LP  0  0  0  0  0  0  0  0  0  0  0  0  # atno 17320 bound_to 7965
  146.2595  139.6378  142.9372 LP  0  0  0  0  0  0  0  0  0  0  0  0  # atno 17321 bound_to 7965
  140.1291  144.5305  150.6814 LP  0  0  0  0  0  0  0  0  0  0  0  0  # atno 17342 bound_to 10162
  140.6937  143.2391  151.5061 LP  0  0  0  0  0  0  0  0  0  0  0  0  # atno 17343 bound_to 10162
  156.6001  130.4352  149.5900 LP  0  0  0  0  0  0  0  0  0  0  0  0  # atno 17370 bound_to 10713
  156.2513  130.6909  151.1647 LP  0  0  0  0  0  0  0  0  0  0  0  0  # atno 17371 bound_to 10713
  139.9326  135.0199  156.8450 LP  0  0  0  0  0  0  0  0  0  0  0  0  # atno 17394 bound_to 11000
  140.6113  134.0080  155.7578 LP  0  0  0  0  0  0  0  0  0  0  0  0  # atno 17395 bound_to 11000

$$$$
