AV-unprocessed.smi:153|AV-procd|sdf|1260|dock2
  -GOLD-   2262018503D 1   1.00000     0.00000
 Structure written by MMmdl.
 59 62  0  0  0  0  0  0  0  0  1 V2000
  151.6306  145.3034  160.0879 C   0  0  0  0  0  0  0  0  0  0  0  0
  151.3131  143.7981  160.1832 C   0  0  2  0  0  0  0  0  0  0  0  0
  151.4740  143.4119  161.5439 O   0  0  0  0  0  0  0  0  0  0  0  0
  152.7912  142.9163  161.7682 C   0  0  0  0  0  0  0  0  0  0  0  0
  153.4294  142.7310  160.3890 C   0  0  0  0  0  0  0  0  0  0  0  0
  152.2672  142.8643  159.4089 C   0  0  2  0  0  0  0  0  0  0  0  0
  152.7268  143.4597  158.2096 O   0  0  0  0  0  0  0  0  0  0  0  0
  151.6243  141.5099  159.0002 C   0  0  0  0  0  0  0  0  0  0  0  0
  150.5039  141.6158  158.0779 N   0  0  0  0  0  0  0  0  0  0  0  0
  149.3215  142.2827  158.2930 C   0  0  0  0  0  0  0  0  0  0  0  0
  148.4654  142.2171  157.3131 N   0  0  0  0  0  0  0  0  0  0  0  0
  149.1012  141.4607  156.3330 C   0  0  0  0  0  0  0  0  0  0  0  0
  148.7487  140.9992  155.0242 C   0  0  0  0  0  0  0  0  0  0  0  0
  147.5483  141.2144  154.4046 N   0  0  0  0  0  0  0  0  0  0  0  0
  146.8066  142.4346  154.7183 C   0  0  0  0  0  0  0  0  0  0  0  0
  147.2511  140.5743  153.1238 C   0  0  0  0  0  0  0  0  0  0  0  0
  146.9248  139.0689  153.2631 C   0  0  2  0  0  0  0  0  0  0  0  0
  148.0480  138.3678  153.7565 O   0  0  0  0  0  0  0  0  0  0  0  0
  146.4437  138.4054  151.9532 C   0  0  0  0  0  0  0  0  0  0  0  0
  145.7864  137.1012  152.0730 N   0  0  0  0  0  0  0  0  0  0  0  0
  145.6953  136.4455  150.7727 C   0  0  0  0  0  0  0  0  0  0  0  0
  145.0173  135.0679  150.8669 C   0  0  0  0  0  0  0  0  0  0  0  0
  143.7263  135.2124  151.4493 O   0  0  0  0  0  0  0  0  0  0  0  0
  143.7719  135.8074  152.7418 C   0  0  0  0  0  0  0  0  0  0  0  0
  144.4485  137.1866  152.6543 C   0  0  0  0  0  0  0  0  0  0  0  0
  149.6969  140.2835  154.3590 N   0  0  0  0  0  0  0  0  0  0  0  0
  150.8804  140.0184  154.9157 C   0  0  0  0  0  0  0  0  0  0  0  0
  151.3292  140.3670  156.1201 N   0  0  0  0  0  0  0  0  0  0  0  0
  150.3987  141.0935  156.8001 C   0  0  0  0  0  0  0  0  0  0  0  0
  151.4867  145.6765  159.0738 H   0  0  0  0  0  0  0  0  0  0  0  0
  152.6570  145.5227  160.3826 H   0  0  0  0  0  0  0  0  0  0  0  0
  150.9716  145.8764  160.7401 H   0  0  0  0  0  0  0  0  0  0  0  0
  150.2782  143.6483  159.8757 H   0  0  0  0  0  0  0  0  0  0  0  0
  153.3625  143.6192  162.3749 H   0  0  0  0  0  0  0  0  0  0  0  0
  152.7319  141.9745  162.3140 H   0  0  0  0  0  0  0  0  0  0  0  0
  154.1527  143.5327  160.2314 H   0  0  0  0  0  0  0  0  0  0  0  0
  153.9722  141.7911  160.2924 H   0  0  0  0  0  0  0  0  0  0  0  0
  152.0819  144.0871  157.9198 H   0  0  0  0  0  0  0  0  0  0  0  0
  152.3757  140.8675  158.5386 H   0  0  0  0  0  0  0  0  0  0  0  0
  151.2803  140.9776  159.8880 H   0  0  0  0  0  0  0  0  0  0  0  0
  149.1062  142.8137  159.2086 H   0  0  0  0  0  0  0  0  0  0  0  0
  146.5852  142.4915  155.7846 H   0  0  0  0  0  0  0  0  0  0  0  0
  145.8565  142.4664  154.1852 H   0  0  0  0  0  0  0  0  0  0  0  0
  147.3789  143.3177  154.4316 H   0  0  0  0  0  0  0  0  0  0  0  0
  146.4408  141.1103  152.6355 H   0  0  0  0  0  0  0  0  0  0  0  0
  148.0953  140.7066  152.4462 H   0  0  0  0  0  0  0  0  0  0  0  0
  146.1291  138.9268  153.9953 H   0  0  0  0  0  0  0  0  0  0  0  0
  148.2539  137.6719  153.1516 H   0  0  0  0  0  0  0  0  0  0  0  0
  145.8129  139.0968  151.3921 H   0  0  0  0  0  0  0  0  0  0  0  0
  147.3347  138.2698  151.3381 H   0  0  0  0  0  0  0  0  0  0  0  0
  145.1351  137.0751  150.0794 H   0  0  0  0  0  0  0  0  0  0  0  0
  146.6926  136.3254  150.3478 H   0  0  0  0  0  0  0  0  0  0  0  0
  144.9137  134.6275  149.8752 H   0  0  0  0  0  0  0  0  0  0  0  0
  145.6193  134.3803  151.4628 H   0  0  0  0  0  0  0  0  0  0  0  0
  142.7564  135.9069  153.1252 H   0  0  0  0  0  0  0  0  0  0  0  0
  144.3124  135.1557  153.4303 H   0  0  0  0  0  0  0  0  0  0  0  0
  144.4976  137.6092  153.6568 H   0  0  0  0  0  0  0  0  0  0  0  0
  143.8276  137.8581  152.0593 H   0  0  0  0  0  0  0  0  0  0  0  0
  151.5630  139.4407  154.3102 H   0  0  0  0  0  0  0  0  0  0  0  0
  1  2  1  0  0  0  0
  1 30  1  0  0  0  0
  1 31  1  0  0  0  0
  1 32  1  0  0  0  0
  2  6  1  0  0  0  0
  2  3  1  0  0  0  0
  2 33  1  0  0  0  0
  3  4  1  0  0  0  0
  4  5  1  0  0  0  0
  4 34  1  0  0  0  0
  4 35  1  0  0  0  0
  5  6  1  0  0  0  0
  5 36  1  0  0  0  0
  5 37  1  0  0  0  0
  6  7  1  0  0  0  0
  6  8  1  0  0  0  0
  7 38  1  0  0  0  0
  8  9  1  0  0  0  0
  8 39  1  0  0  0  0
  8 40  1  0  0  0  0
  9 29  1  0  0  0  0
  9 10  1  0  0  0  0
 10 11  2  0  0  0  0
 10 41  1  0  0  0  0
 11 12  1  0  0  0  0
 12 29  2  0  0  0  0
 12 13  1  0  0  0  0
 13 14  1  0  0  0  0
 13 26  2  0  0  0  0
 14 15  1  0  0  0  0
 14 16  1  0  0  0  0
 15 42  1  0  0  0  0
 15 43  1  0  0  0  0
 15 44  1  0  0  0  0
 16 17  1  0  0  0  0
 16 45  1  0  0  0  0
 16 46  1  0  0  0  0
 17 18  1  0  0  0  0
 17 19  1  0  0  0  0
 17 47  1  0  0  0  0
 18 48  1  0  0  0  0
 19 20  1  0  0  0  0
 19 49  1  0  0  0  0
 19 50  1  0  0  0  0
 20 25  1  0  0  0  0
 20 21  1  0  0  0  0
 21 22  1  0  0  0  0
 21 51  1  0  0  0  0
 21 52  1  0  0  0  0
 22 23  1  0  0  0  0
 22 53  1  0  0  0  0
 22 54  1  0  0  0  0
 23 24  1  0  0  0  0
 24 25  1  0  0  0  0
 24 55  1  0  0  0  0
 24 56  1  0  0  0  0
 25 57  1  0  0  0  0
 25 58  1  0  0  0  0
 26 27  1  0  0  0  0
 27 28  2  0  0  0  0
 27 59  1  0  0  0  0
 28 29  1  0  0  0  0
M  END
> <s_m_source_file>
AV-unprocessed.smi

> <i_m_source_file_index>
153

> <i_lp_mmshare_version>
43012

> <i_f3d_flags>
0

> <s_epik_input>
W0NIMl0xW0NIMl1PW0NAQEhdKFtDSDNdKVtDQEBdMShbT0hdKVtDSDJdbihbY0hdbjIpYyhjMjMpbltjSF1uYzNOKFtDSDNdKVtDSDJdW0NASF0oW09IXSlbQ0gyXU40W0NIMl1bQ0gyXU9bQ0gyXVtDSDJdNA==

> <s_epik_cmdline>
J2VwaWtfcHl0aG9uJywgJy1waCcsICc3LjAnLCAnLXRuJywgJzgnLCAnLW1hJywgJzIwMCcsICctbWV0YWxfYmluZGluZycsICctaW1hZScsICc8aW5maWxlLm1hZT4nLCAnLW9tYWUnLCAnPG91dGZpbGUubWFlPic=

> <r_lp_tautomer_probability>
1

> <r_epik_Ionization_Penalty>
0.424123

> <r_epik_Ionization_Penalty_Charging>
0

> <r_epik_Ionization_Penalty_Neutral>
0.424123

> <r_epik_State_Penalty>
0.421495

> <r_epik_Charging_Adjusted_Penalty>
0.421495

> <i_epik_Tot_Q>
0

> <i_epik_Tot_abs_Q>
0

> <r_epik_Metal_State_Penalty>
0.421223

> <b_epik_Metal_Only>
0

> <s_lp_Force_Field>
OPLS_2005

> <r_lp_Energy>
59.2369

> <b_lp_Chiralities_Consistent>
1

> <s_lp_Variant>
AV-unprocessed.smi:153-11

> <Gold.Version>
5.8.1

> <Gold.Id.Protein>
6NUR|6NUR_protein|mol2

> <Gold.PLP.Fitness>
56.4755

> <Gold.PLP.PLP>
-53.3528

> <Gold.PLP.part.hbond>
-3.0000

> <Gold.PLP.part.metal>
0.0000

> <Gold.PLP.part.buried>
-2.2779

> <Gold.PLP.part.nonpolar>
-51.3536

> <Gold.PLP.part.repulsive>
1.7286

> <Gold.PLP.ligand.clash>
0.0000

> <Gold.PLP.ligand.torsion>
0.5229

> <Gold.PLP.Chemscore.Hbond>
1.2187

> <Gold.PLP.Chemscore.CHOScore>
0.0000

> <Gold.PLP.Chemscore.Metal>
0.0000

> <Gold.Chemscore.Hbonds>
donor molecule, donor type, donor heavy atom, donor atom, acceptor molecule, acceptor atom, score
      L1  H    18    48       P1  7948  0.96
      P1  H  6933  6945       L1     3  0.18

> <Gold.PLP.Chemscore.Internal.Correction>
0.5125

> <Gold.Rescore>
     Score         DG    S(hbond)    S(metal)    S(lipo)     H(rot)  DE(clash)    DE(int)     intcor
     10.20     -14.43       1.35        0.00     115.03       3.52       1.48       2.75       ----

> <Gold.Chemscore.Fitness>
10.2005

> <Gold.Chemscore.DG>
-14.4328

> <Gold.Chemscore.ZeroCoef>
-5.4800

> <Gold.Chemscore.Hbond>
1.3465

> <Gold.Chemscore.Metal>
0.0000

> <Gold.Chemscore.Lipo>
115.0337

> <Gold.Chemscore.Internal_Hbond>
0.0000

> <Gold.Chemscore.DEClash>
1.4797

> <Gold.Chemscore.DEInternal>
2.7526

> <Gold.Chemscore.Rot>
3.5170

> <Gold.Chemscore.Internal.Correction>
   9.000000E+99

> <Gold.Chemscore.Hbonds>
donor molecule, donor type, donor heavy atom, donor atom, acceptor molecule, acceptor atom, score
      L1  H    18    48       P1  7948  0.91
      P1  H  6933  6945       L1     3  0.10

> <Gold.Chemscore.Hbond.Weighted>
-4.4974

> <Gold.Chemscore.Metal.Weighted>
-0.0000

> <Gold.Chemscore.Lipo.Weighted>
-13.4589

> <Gold.Chemscore.Internal_Hbond.Weighted>
0.0000

> <Gold.Chemscore.DEClash.Weighted>
1.4797

> <Gold.Chemscore.DEInternal.Weighted>
2.7526

> <Gold.Chemscore.Rot.Weighted>
9.0036

> <Gold.Chemscore.Internal.Correction.Weighted>
   9.000000E+99

> <Gold.Protein.RotatedTorsions>
[ 6907 6896 6895 6894 ] final  149.06 input  -60.11 | X-H torsion
[ 7974 7965 7964 7962 ] final  -78.06 input  175.53 | X-H torsion
[ 8008 7997 7996 7995 ] final   81.66 input   59.86 | X-H torsion
[ 10167 10162 10161 10158 ] final  107.23 input  -65.29 | X-H torsion
[ 10718 10713 10712 10709 ] final  -19.89 input   66.30 | X-H torsion
[ 10763 10752 10751 10750 ] final -131.49 input  -60.55 | X-H torsion
[ 11005 11000 10999 10996 ] final   58.58 input  -57.11 | X-H torsion

> <Gold.Protein.ActiveResidues>
 VAL166  LYS551  ARG553  GLY616  TRP617  ASP618  TYR619  PRO620  LYS621  CYS622 
 ASP623  PHE694  ASN695  SER759  ASP760  ASP761  ALA762  ILE779  LEU786  VAL792 
 PHE793  MET794  SER795  GLU796  ALA797  LYS798  CYS799  TRP800  GLU811  SER814 

> <Gold.Protein.RotatedAtoms>
  152.1331  133.4419  159.4729 H   0  0  0  0  0  0  0  0  0  0  0  0  # atno 6907 bound_to 6896
  150.6880  134.2397  159.4476 H   0  0  0  0  0  0  0  0  0  0  0  0  # atno 6908 bound_to 6896
  152.0282  134.9783  160.0622 H   0  0  0  0  0  0  0  0  0  0  0  0  # atno 6909 bound_to 6896
  145.5914  140.9428  143.1290 H   0  0  0  0  0  0  0  0  0  0  0  0  # atno 7974 bound_to 7965
  155.9001  140.3434  155.6020 H   0  0  0  0  0  0  0  0  0  0  0  0  # atno 8008 bound_to 7997
  155.7510  140.0820  157.2220 H   0  0  0  0  0  0  0  0  0  0  0  0  # atno 8009 bound_to 7997
  154.4043  140.1553  156.2711 H   0  0  0  0  0  0  0  0  0  0  0  0  # atno 8010 bound_to 7997
  139.6944  144.7103  151.1292 H   0  0  0  0  0  0  0  0  0  0  0  0  # atno 10167 bound_to 10162
  156.5394  130.4674  149.6506 H   0  0  0  0  0  0  0  0  0  0  0  0  # atno 10718 bound_to 10713
  154.8750  135.3828  154.4254 H   0  0  0  0  0  0  0  0  0  0  0  0  # atno 10763 bound_to 10752
  153.4954  135.7030  153.5866 H   0  0  0  0  0  0  0  0  0  0  0  0  # atno 10764 bound_to 10752
  153.4221  135.3899  155.2085 H   0  0  0  0  0  0  0  0  0  0  0  0  # atno 10765 bound_to 10752
  140.0367  134.5933  155.9435 H   0  0  0  0  0  0  0  0  0  0  0  0  # atno 11005 bound_to 11000
  144.7349  139.7614  143.7333 LP  0  0  0  0  0  0  0  0  0  0  0  0  # atno 17320 bound_to 7965
  146.1644  139.4770  142.9968 LP  0  0  0  0  0  0  0  0  0  0  0  0  # atno 17321 bound_to 7965
  140.7692  143.5513  150.9202 LP  0  0  0  0  0  0  0  0  0  0  0  0  # atno 17342 bound_to 10162
  139.9191  143.6627  152.3100 LP  0  0  0  0  0  0  0  0  0  0  0  0  # atno 17343 bound_to 10162
  156.2986  130.7164  151.2030 LP  0  0  0  0  0  0  0  0  0  0  0  0  # atno 17370 bound_to 10713
  157.7408  131.0512  150.5141 LP  0  0  0  0  0  0  0  0  0  0  0  0  # atno 17371 bound_to 10713
  141.1861  133.6556  156.5226 LP  0  0  0  0  0  0  0  0  0  0  0  0  # atno 17394 bound_to 11000
  140.4136  134.7250  157.4850 LP  0  0  0  0  0  0  0  0  0  0  0  0  # atno 17395 bound_to 11000

$$$$
