AV-unprocessed.smi:2131|AV-procd|sdf|8689|dock10
  -GOLD-   2272011443D 1   1.00000     0.00000
 Structure written by MMmdl.
 41 43  0  0  0  0  0  0  0  0  2 V2000
  151.1951  129.6571  154.9695 N   0  0  0  0  0  0  0  0  0  0  0  0
  150.3019  130.3514  155.2124 C   0  0  0  0  0  0  0  0  0  0  0  0
  149.1661  131.2334  155.5213 C   0  0  0  0  0  0  0  0  0  0  0  0
  149.5677  132.6940  155.5330 C   0  0  0  0  0  0  0  0  0  0  0  0
  148.9791  133.5983  154.6279 C   0  0  0  0  0  0  0  0  0  0  0  0
  149.3563  134.9550  154.6392 C   0  0  0  0  0  0  0  0  0  0  0  0
  150.3230  135.4289  155.5502 C   0  0  0  0  0  0  0  0  0  0  0  0
  150.6336  136.7708  155.4914 O   0  0  0  0  0  0  0  0  0  0  0  0
  151.5746  137.2851  156.4247 C   0  0  0  0  0  0  0  0  0  0  0  0
  151.7112  138.8010  156.2174 C   0  0  2  0  0  0  0  0  0  0  0  0
  152.9969  139.0636  155.6910 O   0  0  0  0  0  0  0  0  0  0  0  0
  151.4990  139.5970  157.5205 C   0  0  0  0  0  0  0  0  0  0  0  0
  151.3331  141.0384  157.2847 N   0  0  0  0  0  0  0  0  0  0  0  0
  150.6167  141.6821  156.3236 C   0  0  0  0  0  0  0  0  0  0  0  0
  150.7763  143.0204  156.5178 N   0  3  0  0  0  0  0  0  0  0  0  0
  151.6078  143.2361  157.6186 C   0  0  0  0  0  0  0  0  0  0  0  0
  152.0595  144.4167  158.2001 C   0  0  0  0  0  0  0  0  0  0  0  0
  152.9059  144.2866  159.3208 C   0  0  0  0  0  0  0  0  0  0  0  0
  153.2725  143.0203  159.8211 C   0  0  0  0  0  0  0  0  0  0  0  0
  152.8082  141.8300  159.2235 C   0  0  0  0  0  0  0  0  0  0  0  0
  151.9704  141.9666  158.1169 C   0  0  0  0  0  0  0  0  0  0  0  0
  150.9113  134.5125  156.4587 C   0  0  0  0  0  0  0  0  0  0  0  0
  150.5344  133.1554  156.4477 C   0  0  0  0  0  0  0  0  0  0  0  0
  148.3855  131.0645  154.7791 H   0  0  0  0  0  0  0  0  0  0  0  0
  148.7616  130.9484  156.4928 H   0  0  0  0  0  0  0  0  0  0  0  0
  148.2383  133.2533  153.9216 H   0  0  0  0  0  0  0  0  0  0  0  0
  148.8993  135.6396  153.9397 H   0  0  0  0  0  0  0  0  0  0  0  0
  151.2603  137.0735  157.4484 H   0  0  0  0  0  0  0  0  0  0  0  0
  152.5421  136.8067  156.2618 H   0  0  0  0  0  0  0  0  0  0  0  0
  150.9825  139.1247  155.4732 H   0  0  0  0  0  0  0  0  0  0  0  0
  153.1724  138.4388  155.0037 H   0  0  0  0  0  0  0  0  0  0  0  0
  150.5953  139.2517  158.0243 H   0  0  0  0  0  0  0  0  0  0  0  0
  152.3175  139.4363  158.2224 H   0  0  0  0  0  0  0  0  0  0  0  0
  150.0291  141.2151  155.5462 H   0  0  0  0  0  0  0  0  0  0  0  0
  151.7814  145.3880  157.8181 H   0  0  0  0  0  0  0  0  0  0  0  0
  153.2824  145.1756  159.8058 H   0  0  0  0  0  0  0  0  0  0  0  0
  153.9249  142.9599  160.6802 H   0  0  0  0  0  0  0  0  0  0  0  0
  153.1010  140.8658  159.6115 H   0  0  0  0  0  0  0  0  0  0  0  0
  151.6562  134.8249  157.1744 H   0  0  0  0  0  0  0  0  0  0  0  0
  150.9919  132.4677  157.1436 H   0  0  0  0  0  0  0  0  0  0  0  0
  150.3496  143.7322  155.9387 H   0  0  0  0  0  0  0  0  0  0  0  0
  1  2  3  0  0  0  0
  2  3  1  0  0  0  0
  3  4  1  0  0  0  0
  3 24  1  0  0  0  0
  3 25  1  0  0  0  0
  4 23  1  0  0  0  0
  4  5  2  0  0  0  0
  5  6  1  0  0  0  0
  5 26  1  0  0  0  0
  6  7  2  0  0  0  0
  6 27  1  0  0  0  0
  7  8  1  0  0  0  0
  7 22  1  0  0  0  0
  8  9  1  0  0  0  0
  9 10  1  0  0  0  0
  9 28  1  0  0  0  0
  9 29  1  0  0  0  0
 10 11  1  0  0  0  0
 10 12  1  0  0  0  0
 10 30  1  0  0  0  0
 11 31  1  0  0  0  0
 12 13  1  0  0  0  0
 12 32  1  0  0  0  0
 12 33  1  0  0  0  0
 13 21  1  0  0  0  0
 13 14  1  0  0  0  0
 14 15  2  0  0  0  0
 14 34  1  0  0  0  0
 15 16  1  0  0  0  0
 15 41  1  0  0  0  0
 16 21  2  0  0  0  0
 16 17  1  0  0  0  0
 17 18  2  0  0  0  0
 17 35  1  0  0  0  0
 18 19  1  0  0  0  0
 18 36  1  0  0  0  0
 19 20  2  0  0  0  0
 19 37  1  0  0  0  0
 20 21  1  0  0  0  0
 20 38  1  0  0  0  0
 22 23  2  0  0  0  0
 22 39  1  0  0  0  0
 23 40  1  0  0  0  0
M  CHG  1  15   1
M  END
> <s_m_source_file>
AV-unprocessed.smi

> <i_m_source_file_index>
2131

> <i_lp_mmshare_version>
43012

> <i_f3d_flags>
0

> <s_epik_input>
TiNDW0NIMl1jMVtjSF1bY0hdYyhbY0hdW2NIXTEpT1tDSDJdW0NASF0oW09IXSlbQ0gyXW4oW2NIXW4yKWMoYzIzKVtjSF1bY0hdW2NIXVtjSF0z

> <s_epik_cmdline>
J2VwaWtfcHl0aG9uJywgJy1waCcsICc3LjAnLCAnLXRuJywgJzgnLCAnLW1hJywgJzIwMCcsICctbWV0YWxfYmluZGluZycsICctaW1hZScsICc8aW5maWxlLm1hZT4nLCAnLW9tYWUnLCAnPG91dGZpbGUubWFlPic=

> <r_lp_tautomer_probability>
1

> <r_epik_Ionization_Penalty>
1.3774

> <r_epik_Ionization_Penalty_Charging>
1.37739

> <r_epik_Ionization_Penalty_Neutral>
2.3994e-06

> <r_epik_State_Penalty>
1.45762

> <r_epik_Charging_Adjusted_Penalty>
2.83501

> <i_epik_Tot_Q>
1

> <i_epik_Tot_abs_Q>
1

> <r_epik_Metal_State_Penalty>
5.49752

> <b_epik_Metal_Only>
0

> <s_lp_Force_Field>
OPLS_2005

> <r_lp_Energy>
20.896

> <b_lp_Chiralities_Consistent>
1

> <s_lp_Variant>
AV-unprocessed.smi:2131-3

> <Gold.Version>
5.8.1

> <Gold.Id.Protein>
6NUR|6NUR_protein|mol2

> <Gold.PLP.Fitness>
54.4046

> <Gold.PLP.PLP>
-47.3584

> <Gold.PLP.part.hbond>
-2.0000

> <Gold.PLP.part.metal>
0.0000

> <Gold.PLP.part.buried>
-6.3243

> <Gold.PLP.part.nonpolar>
-40.4746

> <Gold.PLP.part.repulsive>
0.2368

> <Gold.PLP.ligand.clash>
0.0000

> <Gold.PLP.ligand.torsion>
1.0367

> <Gold.PLP.Chemscore.Hbond>
3.0000

> <Gold.PLP.Chemscore.CHOScore>
0.0000

> <Gold.PLP.Chemscore.Metal>
0.0000

> <Gold.Chemscore.Hbonds>
donor molecule, donor type, donor heavy atom, donor atom, acceptor molecule, acceptor atom, score
      L1  H    15    41       P1  8028  1.86
      P1  H  7997  8008       L1    11  1.00

> <Gold.PLP.Chemscore.Internal.Correction>
0.1195

> <Gold.Rescore>
     Score         DG    S(hbond)    S(metal)    S(lipo)     H(rot)  DE(clash)    DE(int)     intcor
     17.77     -18.77       1.92        0.00     120.36       2.81       0.13       0.87       ----

> <Gold.Chemscore.Fitness>
17.7722

> <Gold.Chemscore.DG>
-18.7721

> <Gold.Chemscore.ZeroCoef>
-5.4800

> <Gold.Chemscore.Hbond>
1.9203

> <Gold.Chemscore.Metal>
0.0000

> <Gold.Chemscore.Lipo>
120.3610

> <Gold.Chemscore.Internal_Hbond>
0.0000

> <Gold.Chemscore.DEClash>
0.1334

> <Gold.Chemscore.DEInternal>
0.8665

> <Gold.Chemscore.Rot>
2.8140

> <Gold.Chemscore.Internal.Correction>
   9.000000E+99

> <Gold.Chemscore.Hbonds>
donor molecule, donor type, donor heavy atom, donor atom, acceptor molecule, acceptor atom, score
      L1  H    15    41       P1  8028  0.90
      P1  H  7997  8008       L1    11  0.93

> <Gold.Chemscore.Hbond.Weighted>
-6.4138

> <Gold.Chemscore.Metal.Weighted>
-0.0000

> <Gold.Chemscore.Lipo.Weighted>
-14.0822

> <Gold.Chemscore.Internal_Hbond.Weighted>
0.0000

> <Gold.Chemscore.DEClash.Weighted>
0.1334

> <Gold.Chemscore.DEInternal.Weighted>
0.8665

> <Gold.Chemscore.Rot.Weighted>
7.2039

> <Gold.Chemscore.Internal.Correction.Weighted>
   9.000000E+99

> <Gold.Protein.RotatedTorsions>
[ 6907 6896 6895 6894 ] final -123.82 input  -60.11 | X-H torsion
[ 7974 7965 7964 7962 ] final -130.68 input  175.53 | X-H torsion
[ 8008 7997 7996 7995 ] final  -50.25 input   59.86 | X-H torsion
[ 10167 10162 10161 10158 ] final  163.63 input  -65.29 | X-H torsion
[ 10718 10713 10712 10709 ] final -149.38 input   66.30 | X-H torsion
[ 10763 10752 10751 10750 ] final   66.67 input  -60.55 | X-H torsion
[ 11005 11000 10999 10996 ] final  103.21 input  -57.11 | X-H torsion

> <Gold.Protein.ActiveResidues>
 VAL166  LYS551  ARG553  GLY616  TRP617  ASP618  TYR619  PRO620  LYS621  CYS622 
 ASP623  PHE694  ASN695  SER759  ASP760  ASP761  ALA762  ILE779  LEU786  VAL792 
 PHE793  MET794  SER795  GLU796  ALA797  LYS798  CYS799  TRP800  GLU811  SER814 

> <Gold.Protein.RotatedAtoms>
  150.8708  133.7509  159.2961 H   0  0  0  0  0  0  0  0  0  0  0  0  # atno 6907 bound_to 6896
  151.5121  135.1064  159.9866 H   0  0  0  0  0  0  0  0  0  0  0  0  # atno 6908 bound_to 6896
  152.4693  133.7949  159.6977 H   0  0  0  0  0  0  0  0  0  0  0  0  # atno 6909 bound_to 6896
  144.9451  140.7282  143.4822 H   0  0  0  0  0  0  0  0  0  0  0  0  # atno 7974 bound_to 7965
  154.4058  140.1277  156.4635 H   0  0  0  0  0  0  0  0  0  0  0  0  # atno 8008 bound_to 7997
  155.7250  140.3492  155.5013 H   0  0  0  0  0  0  0  0  0  0  0  0  # atno 8009 bound_to 7997
  155.9180  140.1047  157.1219 H   0  0  0  0  0  0  0  0  0  0  0  0  # atno 8010 bound_to 7997
  139.4876  144.4318  151.9061 H   0  0  0  0  0  0  0  0  0  0  0  0  # atno 10167 bound_to 10162
  156.4325  130.8082  151.2309 H   0  0  0  0  0  0  0  0  0  0  0  0  # atno 10718 bound_to 10713
  153.0151  135.5312  154.6860 H   0  0  0  0  0  0  0  0  0  0  0  0  # atno 10763 bound_to 10752
  154.6008  135.2868  155.0540 H   0  0  0  0  0  0  0  0  0  0  0  0  # atno 10764 bound_to 10752
  154.1598  135.6549  153.5035 H   0  0  0  0  0  0  0  0  0  0  0  0  # atno 10765 bound_to 10752
  139.8782  134.9254  156.5175 H   0  0  0  0  0  0  0  0  0  0  0  0  # atno 11005 bound_to 11000
  145.2930  139.1877  143.4730 LP  0  0  0  0  0  0  0  0  0  0  0  0  # atno 17320 bound_to 7965
  146.3300  140.2910  142.8615 LP  0  0  0  0  0  0  0  0  0  0  0  0  # atno 17321 bound_to 7965
  140.3766  144.2789  150.5913 LP  0  0  0  0  0  0  0  0  0  0  0  0  # atno 17342 bound_to 10162
  140.5271  143.2252  151.8297 LP  0  0  0  0  0  0  0  0  0  0  0  0  # atno 17343 bound_to 10162
  157.7508  131.0194  150.3665 LP  0  0  0  0  0  0  0  0  0  0  0  0  # atno 17370 bound_to 10713
  156.4005  130.3915  149.6963 LP  0  0  0  0  0  0  0  0  0  0  0  0  # atno 17371 bound_to 10713
  140.8475  133.8158  155.9135 LP  0  0  0  0  0  0  0  0  0  0  0  0  # atno 17394 bound_to 11000
  140.9177  134.2181  157.4946 LP  0  0  0  0  0  0  0  0  0  0  0  0  # atno 17395 bound_to 11000

$$$$
