AV-unprocessed.smi:3092|AV-procd|sdf|11784|dock5
  -GOLD-   2272017163D 1   1.00000     0.00000
 Structure written by MMmdl.
 26 27  0  0  0  0  0  0  0  0  3 V2000
  152.7188  141.4988  159.4826 C   0  0  0  0  0  0  0  0  0  0  0  0
  152.2303  142.6772  158.7634 N   0  0  0  0  0  0  0  0  0  0  0  0
  152.4993  143.9849  159.0771 C   0  0  0  0  0  0  0  0  0  0  0  0
  151.8498  144.7541  158.1486 C   0  0  0  0  0  0  0  0  0  0  0  0
  151.2107  143.8852  157.3071 N   0  3  0  0  0  0  0  0  0  0  0  0
  151.4375  142.6181  157.6784 C   0  0  0  0  0  0  0  0  0  0  0  0
  150.8992  141.3968  156.9851 C   0  0  2  0  0  0  0  0  0  0  0  0
  151.9510  140.4416  156.4261 C   0  0  0  0  0  0  0  0  0  0  0  0
  151.1615  139.6056  155.4081 C   0  0  0  0  0  0  0  0  0  0  0  0
  149.9691  140.3998  155.0389 N   0  3  0  0  0  0  0  0  0  0  0  0
  150.0397  141.6865  155.7548 C   0  0  0  0  0  0  0  0  0  0  0  0
  153.3451  141.8137  160.3179 H   0  0  0  0  0  0  0  0  0  0  0  0
  153.3082  140.8796  158.8055 H   0  0  0  0  0  0  0  0  0  0  0  0
  151.8700  140.9306  159.8644 H   0  0  0  0  0  0  0  0  0  0  0  0
  153.1189  144.2659  159.9169 H   0  0  0  0  0  0  0  0  0  0  0  0
  151.7966  145.8264  158.0264 H   0  0  0  0  0  0  0  0  0  0  0  0
  150.2903  140.8520  157.7068 H   0  0  0  0  0  0  0  0  0  0  0  0
  152.7290  140.9999  155.9034 H   0  0  0  0  0  0  0  0  0  0  0  0
  152.4333  139.8388  157.1963 H   0  0  0  0  0  0  0  0  0  0  0  0
  151.7615  139.3665  154.5295 H   0  0  0  0  0  0  0  0  0  0  0  0
  150.8287  138.6671  155.8527 H   0  0  0  0  0  0  0  0  0  0  0  0
  149.9255  140.5484  154.0404 H   0  0  0  0  0  0  0  0  0  0  0  0
  149.0503  142.0700  156.0057 H   0  0  0  0  0  0  0  0  0  0  0  0
  150.5294  142.4108  155.1021 H   0  0  0  0  0  0  0  0  0  0  0  0
  149.1461  139.8983  155.3421 H   0  0  0  0  0  0  0  0  0  0  0  0
  150.6476  144.1622  156.5128 H   0  0  0  0  0  0  0  0  0  0  0  0
  1  2  1  0  0  0  0
  1 12  1  0  0  0  0
  1 13  1  0  0  0  0
  1 14  1  0  0  0  0
  2  6  1  0  0  0  0
  2  3  1  0  0  0  0
  3  4  2  0  0  0  0
  3 15  1  0  0  0  0
  4  5  1  0  0  0  0
  4 16  1  0  0  0  0
  5  6  2  0  0  0  0
  5 26  1  0  0  0  0
  6  7  1  0  0  0  0
  7 11  1  0  0  0  0
  7  8  1  0  0  0  0
  7 17  1  0  0  0  0
  8  9  1  0  0  0  0
  8 18  1  0  0  0  0
  8 19  1  0  0  0  0
  9 10  1  0  0  0  0
  9 20  1  0  0  0  0
  9 21  1  0  0  0  0
 10 11  1  0  0  0  0
 10 22  1  0  0  0  0
 10 25  1  0  0  0  0
 11 23  1  0  0  0  0
 11 24  1  0  0  0  0
M  CHG  1   5   1
M  CHG  1  10   1
M  END
> <s_m_source_file>
AV-unprocessed.smi

> <i_m_source_file_index>
3092

> <i_lp_mmshare_version>
43012

> <i_f3d_flags>
0

> <s_epik_input>
W0NIM11uMVtjSF1bY0hdbmMxW0NAQEhdMltDSDJdW0NIMl1bTkhdW0NIMl0y

> <s_epik_cmdline>
J2VwaWtfcHl0aG9uJywgJy1waCcsICc3LjAnLCAnLXRuJywgJzgnLCAnLW1hJywgJzIwMCcsICctbWV0YWxfYmluZGluZycsICctaW1hZScsICc8aW5maWxlLm1hZT4nLCAnLW9tYWUnLCAnPG91dGZpbGUubWFlPic=

> <r_lp_tautomer_probability>
1

> <r_epik_Ionization_Penalty>
0.803493

> <r_epik_Ionization_Penalty_Charging>
0.000689375

> <r_epik_Ionization_Penalty_Neutral>
0.802804

> <r_epik_State_Penalty>
0.834355

> <r_epik_Charging_Adjusted_Penalty>
0.835044

> <i_epik_Tot_Q>
2

> <i_epik_Tot_abs_Q>
2

> <r_epik_Metal_State_Penalty>
4.76097

> <b_epik_Metal_Only>
0

> <s_lp_Force_Field>
OPLS_2005

> <r_lp_Energy>
35.9538

> <b_lp_Chiralities_Consistent>
1

> <s_lp_Variant>
AV-unprocessed.smi:3092-3

> <Gold.Version>
5.8.1

> <Gold.Id.Protein>
6NUR|6NUR_protein|mol2

> <Gold.PLP.Fitness>
33.8570

> <Gold.PLP.PLP>
-27.8571

> <Gold.PLP.part.hbond>
-1.0000

> <Gold.PLP.part.metal>
0.0000

> <Gold.PLP.part.buried>
-3.6838

> <Gold.PLP.part.nonpolar>
-23.1957

> <Gold.PLP.part.repulsive>
0.1467

> <Gold.PLP.ligand.clash>
0.0000

> <Gold.PLP.ligand.torsion>
0.0013

> <Gold.PLP.Chemscore.Hbond>
2.0000

> <Gold.PLP.Chemscore.CHOScore>
0.0000

> <Gold.PLP.Chemscore.Metal>
0.0000

> <Gold.Chemscore.Hbonds>
donor molecule, donor type, donor heavy atom, donor atom, acceptor molecule, acceptor atom, score
      L1  H     5    26       P1  8028  2.00

> <Gold.PLP.Chemscore.Internal.Correction>
0.0025

> <Gold.Rescore>
     Score         DG    S(hbond)    S(metal)    S(lipo)     H(rot)  DE(clash)    DE(int)     intcor
     13.64     -13.67       1.00        0.00      63.40       1.00       0.00       0.03       ----

> <Gold.Chemscore.Fitness>
13.6372

> <Gold.Chemscore.DG>
-13.6689

> <Gold.Chemscore.ZeroCoef>
-5.4800

> <Gold.Chemscore.Hbond>
0.9974

> <Gold.Chemscore.Metal>
0.0000

> <Gold.Chemscore.Lipo>
63.3973

> <Gold.Chemscore.Internal_Hbond>
0.0000

> <Gold.Chemscore.DEClash>
0.0048

> <Gold.Chemscore.DEInternal>
0.0269

> <Gold.Chemscore.Rot>
1.0000

> <Gold.Chemscore.Internal.Correction>
   9.000000E+99

> <Gold.Chemscore.Hbonds>
donor molecule, donor type, donor heavy atom, donor atom, acceptor molecule, acceptor atom, score
      L1  H     5    26       P1  8028  0.92

> <Gold.Chemscore.Hbond.Weighted>
-3.3314

> <Gold.Chemscore.Metal.Weighted>
-0.0000

> <Gold.Chemscore.Lipo.Weighted>
-7.4175

> <Gold.Chemscore.Internal_Hbond.Weighted>
0.0000

> <Gold.Chemscore.DEClash.Weighted>
0.0048

> <Gold.Chemscore.DEInternal.Weighted>
0.0269

> <Gold.Chemscore.Rot.Weighted>
2.5600

> <Gold.Chemscore.Internal.Correction.Weighted>
   9.000000E+99

> <Gold.Protein.RotatedTorsions>
[ 6907 6896 6895 6894 ] final   92.07 input  -60.11 | X-H torsion
[ 7974 7965 7964 7962 ] final -130.21 input  175.53 | X-H torsion
[ 8008 7997 7996 7995 ] final -132.44 input   59.86 | X-H torsion
[ 10167 10162 10161 10158 ] final -130.50 input  -65.29 | X-H torsion
[ 10718 10713 10712 10709 ] final  102.29 input   66.30 | X-H torsion
[ 10763 10752 10751 10750 ] final  -59.14 input  -60.55 | X-H torsion
[ 11005 11000 10999 10996 ] final   79.98 input  -57.11 | X-H torsion

> <Gold.Protein.ActiveResidues>
 VAL166  LYS551  ARG553  GLY616  TRP617  ASP618  TYR619  PRO620  LYS621  CYS622 
 ASP623  PHE694  ASN695  SER759  ASP760  ASP761  ALA762  ILE779  LEU786  VAL792 
 PHE793  MET794  SER795  GLU796  ALA797  LYS798  CYS799  TRP800  GLU811  SER814 

> <Gold.Protein.RotatedAtoms>
  152.5452  134.1559  159.8537 H   0  0  0  0  0  0  0  0  0  0  0  0  # atno 6907 bound_to 6896
  151.1581  133.4856  159.2602 H   0  0  0  0  0  0  0  0  0  0  0  0  # atno 6908 bound_to 6896
  151.1401  135.0186  159.8677 H   0  0  0  0  0  0  0  0  0  0  0  0  # atno 6909 bound_to 6896
  144.9497  140.7330  143.4795 H   0  0  0  0  0  0  0  0  0  0  0  0  # atno 7974 bound_to 7965
  155.3289  140.0466  157.3042 H   0  0  0  0  0  0  0  0  0  0  0  0  # atno 8008 bound_to 7997
  154.5339  140.2266  155.8722 H   0  0  0  0  0  0  0  0  0  0  0  0  # atno 8009 bound_to 7997
  156.1816  140.3072  155.9165 H   0  0  0  0  0  0  0  0  0  0  0  0  # atno 8010 bound_to 7997
  139.9286  143.6298  152.2535 H   0  0  0  0  0  0  0  0  0  0  0  0  # atno 10167 bound_to 10162
  157.6806  131.0749  150.5381 H   0  0  0  0  0  0  0  0  0  0  0  0  # atno 10718 bound_to 10713
  154.2491  135.6329  153.5234 H   0  0  0  0  0  0  0  0  0  0  0  0  # atno 10763 bound_to 10752
  152.9915  135.5560  154.5827 H   0  0  0  0  0  0  0  0  0  0  0  0  # atno 10764 bound_to 10752
  154.5350  135.2891  155.1121 H   0  0  0  0  0  0  0  0  0  0  0  0  # atno 10765 bound_to 10752
  139.9151  134.7885  156.1850 H   0  0  0  0  0  0  0  0  0  0  0  0  # atno 11005 bound_to 11000
  145.2863  139.1900  143.4764 LP  0  0  0  0  0  0  0  0  0  0  0  0  # atno 17320 bound_to 7965
  146.3316  140.2833  142.8611 LP  0  0  0  0  0  0  0  0  0  0  0  0  # atno 17321 bound_to 7965
  139.6801  144.7656  151.1625 LP  0  0  0  0  0  0  0  0  0  0  0  0  # atno 17342 bound_to 10162
  140.7643  143.5738  150.8968 LP  0  0  0  0  0  0  0  0  0  0  0  0  # atno 17343 bound_to 10162
  156.5689  130.4274  149.6028 LP  0  0  0  0  0  0  0  0  0  0  0  0  # atno 17370 bound_to 10713
  156.2757  130.7042  151.1853 LP  0  0  0  0  0  0  0  0  0  0  0  0  # atno 17371 bound_to 10713
  141.0619  133.6837  156.1969 LP  0  0  0  0  0  0  0  0  0  0  0  0  # atno 17394 bound_to 11000
  140.6647  134.4931  157.5585 LP  0  0  0  0  0  0  0  0  0  0  0  0  # atno 17395 bound_to 11000

$$$$
