AV-unprocessed.smi:290|AV-procd|sdf|2229|dock10
  -GOLD-   2262022 83D 1   1.00000     0.00000
 Structure written by MMmdl.
 59 62  0  0  0  0  0  0  0  0  2 V2000
  152.7017  138.8206  154.8112 C   0  0  0  0  0  0  0  0  0  0  0  0
  151.3519  139.2268  155.4283 C   0  0  2  0  0  0  0  0  0  0  0  0
  150.9134  140.4693  154.8804 O   0  0  0  0  0  0  0  0  0  0  0  0
  150.7554  141.4287  155.9142 C   0  0  0  0  0  0  0  0  0  0  0  0
  150.4123  140.5960  157.1420 C   0  0  0  0  0  0  0  0  0  0  0  0
  151.3017  139.3734  156.9708 C   0  0  2  0  0  0  0  0  0  0  0  0
  152.5827  139.6859  157.4955 O   0  0  0  0  0  0  0  0  0  0  0  0
  150.7555  138.1338  157.7194 C   0  0  0  0  0  0  0  0  0  0  0  0
  149.6853  137.4536  157.0067 N   0  0  0  0  0  0  0  0  0  0  0  0
  148.4043  137.9153  156.8056 C   0  0  0  0  0  0  0  0  0  0  0  0
  147.6210  137.1107  156.1410 N   0  0  0  0  0  0  0  0  0  0  0  0
  148.4224  136.0106  155.8574 C   0  0  0  0  0  0  0  0  0  0  0  0
  148.2120  134.7791  155.1724 C   0  0  0  0  0  0  0  0  0  0  0  0
  147.0156  134.4305  154.6289 N   0  0  0  0  0  0  0  0  0  0  0  0
  146.5208  133.0882  154.9271 C   0  0  0  0  0  0  0  0  0  0  0  0
  145.8069  132.5947  153.6644 C   0  0  0  0  0  0  0  0  0  0  0  0
  145.4604  133.8976  152.9361 C   0  0  2  0  0  0  0  0  0  0  0  0
  145.1557  133.7694  151.4821 N   0  3  2  0  0  0  0  0  0  0  0  0
  144.7567  135.0651  150.8831 C   0  0  0  0  0  0  0  0  0  0  0  0
  144.2358  132.6594  151.1114 C   0  0  0  0  0  0  0  0  0  0  0  0
  144.1663  132.4608  149.5890 C   0  0  0  0  0  0  0  0  0  0  0  0
  142.8569  132.0924  149.2093 O   0  0  0  0  0  0  0  0  0  0  0  0
  146.6559  134.8039  153.2611 C   0  0  1  0  0  0  0  0  0  0  0  0
  146.3275  136.3014  153.1226 C   0  0  0  0  0  0  0  0  0  0  0  0
  149.2708  133.9312  155.0794 N   0  0  0  0  0  0  0  0  0  0  0  0
  150.4492  134.2559  155.6187 C   0  0  0  0  0  0  0  0  0  0  0  0
  150.7838  135.3601  156.2872 N   0  0  0  0  0  0  0  0  0  0  0  0
  149.7290  136.2185  156.3837 C   0  0  0  0  0  0  0  0  0  0  0  0
  144.5867  134.3287  153.4293 H   0  0  0  0  0  0  0  0  0  0  0  0
  147.4970  134.5640  152.6120 H   0  0  0  0  0  0  0  0  0  0  0  0
  153.0566  137.8742  155.2182 H   0  0  0  0  0  0  0  0  0  0  0  0
  153.4684  139.5743  154.9915 H   0  0  0  0  0  0  0  0  0  0  0  0
  152.6105  138.7008  153.7317 H   0  0  0  0  0  0  0  0  0  0  0  0
  150.6016  138.4994  155.1179 H   0  0  0  0  0  0  0  0  0  0  0  0
  151.6973  141.9600  156.0573 H   0  0  0  0  0  0  0  0  0  0  0  0
  149.9840  142.1590  155.6694 H   0  0  0  0  0  0  0  0  0  0  0  0
  150.5713  141.1293  158.0803 H   0  0  0  0  0  0  0  0  0  0  0  0
  149.3606  140.3098  157.0955 H   0  0  0  0  0  0  0  0  0  0  0  0
  152.6572  139.3002  158.3548 H   0  0  0  0  0  0  0  0  0  0  0  0
  151.5567  137.4164  157.9022 H   0  0  0  0  0  0  0  0  0  0  0  0
  150.3790  138.4235  158.7012 H   0  0  0  0  0  0  0  0  0  0  0  0
  148.0642  138.8712  157.1765 H   0  0  0  0  0  0  0  0  0  0  0  0
  147.3193  132.4034  155.2170 H   0  0  0  0  0  0  0  0  0  0  0  0
  145.8176  133.1558  155.7579 H   0  0  0  0  0  0  0  0  0  0  0  0
  146.4989  131.9809  153.0882 H   0  0  0  0  0  0  0  0  0  0  0  0
  144.9304  131.9867  153.8900 H   0  0  0  0  0  0  0  0  0  0  0  0
  143.8172  135.4196  151.3085 H   0  0  0  0  0  0  0  0  0  0  0  0
  144.6297  134.9821  149.8044 H   0  0  0  0  0  0  0  0  0  0  0  0
  145.5185  135.8248  151.0606 H   0  0  0  0  0  0  0  0  0  0  0  0
  144.5406  131.7159  151.5623 H   0  0  0  0  0  0  0  0  0  0  0  0
  143.2404  132.8678  151.5068 H   0  0  0  0  0  0  0  0  0  0  0  0
  144.4220  133.3898  149.0791 H   0  0  0  0  0  0  0  0  0  0  0  0
  144.8728  131.7058  149.2452 H   0  0  0  0  0  0  0  0  0  0  0  0
  142.2796  132.8268  149.3552 H   0  0  0  0  0  0  0  0  0  0  0  0
  146.0304  136.5409  152.1014 H   0  0  0  0  0  0  0  0  0  0  0  0
  147.1849  136.9286  153.3657 H   0  0  0  0  0  0  0  0  0  0  0  0
  145.5097  136.5910  153.7833 H   0  0  0  0  0  0  0  0  0  0  0  0
  151.2360  133.5255  155.4986 H   0  0  0  0  0  0  0  0  0  0  0  0
  146.0409  133.5341  151.0558 H   0  0  0  0  0  0  0  0  0  0  0  0
  1  2  1  0  0  0  0
  1 31  1  0  0  0  0
  1 32  1  0  0  0  0
  1 33  1  0  0  0  0
  2  6  1  0  0  0  0
  2  3  1  0  0  0  0
  2 34  1  0  0  0  0
  3  4  1  0  0  0  0
  4  5  1  0  0  0  0
  4 35  1  0  0  0  0
  4 36  1  0  0  0  0
  5  6  1  0  0  0  0
  5 37  1  0  0  0  0
  5 38  1  0  0  0  0
  6  7  1  0  0  0  0
  6  8  1  0  0  0  0
  7 39  1  0  0  0  0
  8  9  1  0  0  0  0
  8 40  1  0  0  0  0
  8 41  1  0  0  0  0
  9 28  1  0  0  0  0
  9 10  1  0  0  0  0
 10 11  2  0  0  0  0
 10 42  1  0  0  0  0
 11 12  1  0  0  0  0
 12 28  2  0  0  0  0
 12 13  1  0  0  0  0
 13 14  1  0  0  0  0
 13 25  2  0  0  0  0
 14 23  1  0  0  0  0
 14 15  1  0  0  0  0
 15 16  1  0  0  0  0
 15 43  1  0  0  0  0
 15 44  1  0  0  0  0
 16 17  1  0  0  0  0
 16 45  1  0  0  0  0
 16 46  1  0  0  0  0
 17 29  1  0  0  0  0
 17 18  1  0  0  0  0
 17 23  1  0  0  0  0
 18 19  1  0  0  0  0
 18 20  1  0  0  0  0
 18 59  1  0  0  0  0
 19 47  1  0  0  0  0
 19 48  1  0  0  0  0
 19 49  1  0  0  0  0
 20 21  1  0  0  0  0
 20 50  1  0  0  0  0
 20 51  1  0  0  0  0
 21 22  1  0  0  0  0
 21 52  1  0  0  0  0
 21 53  1  0  0  0  0
 22 54  1  0  0  0  0
 23 30  1  0  0  0  0
 23 24  1  0  0  0  0
 24 55  1  0  0  0  0
 24 56  1  0  0  0  0
 24 57  1  0  0  0  0
 25 26  1  0  0  0  0
 26 27  2  0  0  0  0
 26 58  1  0  0  0  0
 27 28  1  0  0  0  0
M  CHG  1  18   1
M  END
> <s_m_source_file>
AV-unprocessed.smi

> <i_m_source_file_index>
290

> <i_lp_mmshare_version>
43012

> <i_f3d_flags>
0

> <s_epik_input>
W0NIMl0xW0NIMl1PW0NAQEhdKFtDSDNdKVtDQEBdMShbT0hdKVtDSDJdbihbY0hdbjIpYyhjMjMpbltjSF1uYzNONFtDSDJdW0NIMl1bQ0BIXShbQ0BIXTRbQ0gzXSlOKFtDSDNdKVtDSDJdW0NIMl1bT0hd

> <s_epik_cmdline>
J2VwaWtfcHl0aG9uJywgJy1waCcsICc3LjAnLCAnLXRuJywgJzgnLCAnLW1hJywgJzIwMCcsICctbWV0YWxfYmluZGluZycsICctaW1hZScsICc8aW5maWxlLm1hZT4nLCAnLW9tYWUnLCAnPG91dGZpbGUubWFlPic=

> <r_lp_tautomer_probability>
1

> <r_epik_Ionization_Penalty>
0.0036983

> <r_epik_Ionization_Penalty_Charging>
0.0032725

> <r_epik_Ionization_Penalty_Neutral>
0.000425798

> <r_epik_State_Penalty>
-0

> <r_epik_Charging_Adjusted_Penalty>
0.0032725

> <i_epik_Tot_Q>
1

> <i_epik_Tot_abs_Q>
1

> <r_epik_Metal_State_Penalty>
-0

> <b_epik_Metal_Only>
0

> <s_lp_Force_Field>
OPLS_2005

> <r_lp_Energy>
60.087

> <b_lp_Chiralities_Consistent>
1

> <s_lp_Variant>
AV-unprocessed.smi:290-15

> <Gold.Version>
5.8.1

> <Gold.Id.Protein>
6NUR|6NUR_protein|mol2

> <Gold.PLP.Fitness>
44.4952

> <Gold.PLP.PLP>
-34.6409

> <Gold.PLP.part.hbond>
-4.9849

> <Gold.PLP.part.metal>
0.0000

> <Gold.PLP.part.buried>
-2.8546

> <Gold.PLP.part.nonpolar>
-25.1080

> <Gold.PLP.part.repulsive>
0.2932

> <Gold.PLP.ligand.clash>
0.0000

> <Gold.PLP.ligand.torsion>
1.2813

> <Gold.PLP.Chemscore.Hbond>
3.9663

> <Gold.PLP.Chemscore.CHOScore>
0.0000

> <Gold.PLP.Chemscore.Metal>
0.0000

> <Gold.Chemscore.Hbonds>
donor molecule, donor type, donor heavy atom, donor atom, acceptor molecule, acceptor atom, score
      L1  H    22    54       P1 10186  0.98
      P1  H  7989  7998       L1     3  1.00
      P1  H  7997  8009       L1     7  1.00
      P1  H 10785 10796       L1    22  0.94

> <Gold.PLP.Chemscore.Internal.Correction>
0.5180

> <Gold.Rescore>
     Score         DG    S(hbond)    S(metal)    S(lipo)     H(rot)  DE(clash)    DE(int)     intcor
     12.46     -14.79       3.09        0.00      71.59       3.67       0.10       2.22       ----

> <Gold.Chemscore.Fitness>
12.4641

> <Gold.Chemscore.DG>
-14.7850

> <Gold.Chemscore.ZeroCoef>
-5.4800

> <Gold.Chemscore.Hbond>
3.0877

> <Gold.Chemscore.Metal>
0.0000

> <Gold.Chemscore.Lipo>
71.5935

> <Gold.Chemscore.Internal_Hbond>
0.0000

> <Gold.Chemscore.DEClash>
0.1019

> <Gold.Chemscore.DEInternal>
2.2190

> <Gold.Chemscore.Rot>
3.6658

> <Gold.Chemscore.Internal.Correction>
   9.000000E+99

> <Gold.Chemscore.Hbonds>
donor molecule, donor type, donor heavy atom, donor atom, acceptor molecule, acceptor atom, score
      L1  H    22    54       P1 10186  0.91
      P1  H  7989  7998       L1     3  0.85
      P1  H  7997  8009       L1     7  0.80
      P1  H 10785 10796       L1    22  0.20

> <Gold.Chemscore.Hbond.Weighted>
-10.3130

> <Gold.Chemscore.Metal.Weighted>
-0.0000

> <Gold.Chemscore.Lipo.Weighted>
-8.3764

> <Gold.Chemscore.Internal_Hbond.Weighted>
0.0000

> <Gold.Chemscore.DEClash.Weighted>
0.1019

> <Gold.Chemscore.DEInternal.Weighted>
2.2190

> <Gold.Chemscore.Rot.Weighted>
9.3844

> <Gold.Chemscore.Internal.Correction.Weighted>
   9.000000E+99

> <Gold.Protein.RotatedTorsions>
[ 6907 6896 6895 6894 ] final  -54.40 input  -60.11 | X-H torsion
[ 7974 7965 7964 7962 ] final    0.62 input  175.53 | X-H torsion
[ 8008 7997 7996 7995 ] final  179.65 input   59.86 | X-H torsion
[ 10167 10162 10161 10158 ] final   26.66 input  -65.29 | X-H torsion
[ 10718 10713 10712 10709 ] final -172.99 input   66.30 | X-H torsion
[ 10763 10752 10751 10750 ] final  -52.27 input  -60.55 | X-H torsion
[ 11005 11000 10999 10996 ] final  128.27 input  -57.11 | X-H torsion

> <Gold.Protein.ActiveResidues>
 VAL166  LYS551  ARG553  GLY616  TRP617  ASP618  TYR619  PRO620  LYS621  CYS622 
 ASP623  PHE694  ASN695  SER759  ASP760  ASP761  ALA762  ILE779  LEU786  VAL792 
 PHE793  MET794  SER795  GLU796  ALA797  LYS798  CYS799  TRP800  GLU811  SER814 

> <Gold.Protein.RotatedAtoms>
  150.8342  134.7608  159.6878 H   0  0  0  0  0  0  0  0  0  0  0  0  # atno 6907 bound_to 6896
  152.4441  134.5527  159.9881 H   0  0  0  0  0  0  0  0  0  0  0  0  # atno 6908 bound_to 6896
  151.5681  133.3356  159.3020 H   0  0  0  0  0  0  0  0  0  0  0  0  # atno 6909 bound_to 6896
  146.2435  140.1110  142.8344 H   0  0  0  0  0  0  0  0  0  0  0  0  # atno 7974 bound_to 7965
  156.0410  140.1303  157.0156 H   0  0  0  0  0  0  0  0  0  0  0  0  # atno 8008 bound_to 7997
  154.4391  140.1030  156.6307 H   0  0  0  0  0  0  0  0  0  0  0  0  # atno 8009 bound_to 7997
  155.5667  140.3466  155.4507 H   0  0  0  0  0  0  0  0  0  0  0  0  # atno 8010 bound_to 7997
  140.5004  144.0324  150.6330 H   0  0  0  0  0  0  0  0  0  0  0  0  # atno 10167 bound_to 10162
  156.7637  130.9423  151.3118 H   0  0  0  0  0  0  0  0  0  0  0  0  # atno 10718 bound_to 10713
  154.1400  135.6506  153.4940 H   0  0  0  0  0  0  0  0  0  0  0  0  # atno 10763 bound_to 10752
  153.0169  135.5313  154.6914 H   0  0  0  0  0  0  0  0  0  0  0  0  # atno 10764 bound_to 10752
  154.6173  135.2960  155.0336 H   0  0  0  0  0  0  0  0  0  0  0  0  # atno 10765 bound_to 10752
  139.9552  134.9614  156.8977 H   0  0  0  0  0  0  0  0  0  0  0  0  # atno 11005 bound_to 11000
  145.0487  140.9001  143.5008 LP  0  0  0  0  0  0  0  0  0  0  0  0  # atno 17320 bound_to 7965
  145.1204  139.2697  143.5591 LP  0  0  0  0  0  0  0  0  0  0  0  0  # atno 17321 bound_to 7965
  140.3619  143.2903  152.0375 LP  0  0  0  0  0  0  0  0  0  0  0  0  # atno 17342 bound_to 10162
  139.4871  144.6297  151.7095 LP  0  0  0  0  0  0  0  0  0  0  0  0  # atno 17343 bound_to 10162
  157.6723  130.9062  150.0068 LP  0  0  0  0  0  0  0  0  0  0  0  0  # atno 17370 bound_to 10713
  156.1322  130.3643  149.9713 LP  0  0  0  0  0  0  0  0  0  0  0  0  # atno 17371 bound_to 10713
  140.5627  134.0519  155.7404 LP  0  0  0  0  0  0  0  0  0  0  0  0  # atno 17394 bound_to 11000
  141.1222  133.9443  157.2707 LP  0  0  0  0  0  0  0  0  0  0  0  0  # atno 17395 bound_to 11000

$$$$
