AV-unprocessed.smi:93|AV-procd|sdf|849|dock9
  -GOLD-   2262017293D 1   1.00000     0.00000
 Structure written by MMmdl.
 50 52  0  0  0  0  0  0  0  0  1 V2000
  146.1826  132.7544  153.3246 C   0  0  0  0  0  0  0  0  0  0  0  0
  145.4143  133.8415  152.7277 N   0  0  0  0  0  0  0  0  0  0  0  0
  144.3993  133.5347  151.7115 C   0  0  0  0  0  0  0  0  0  0  0  0
  144.8383  132.5058  150.6255 C   0  0  0  0  0  0  0  0  0  0  0  0
  144.6928  131.0565  151.1443 C   0  0  0  0  0  0  0  0  0  0  0  0
  143.9318  132.7044  149.3810 C   0  0  0  0  0  0  0  0  0  0  0  0
  142.6958  132.0258  149.4946 O   0  0  0  0  0  0  0  0  0  0  0  0
  146.3134  132.7665  150.2187 C   0  0  0  0  0  0  0  0  0  0  0  0
  146.7729  131.8759  149.2207 O   0  0  0  0  0  0  0  0  0  0  0  0
  145.6914  135.1267  153.0847 C   0  0  0  0  0  0  0  0  0  0  0  0
  145.0190  136.1352  152.4689 N   0  0  0  0  0  0  0  0  0  0  0  0
  145.2511  137.4099  152.7912 C   0  0  0  0  0  0  0  0  0  0  0  0
  146.1000  137.8986  153.6953 N   0  0  0  0  0  0  0  0  0  0  0  0
  146.7775  136.8983  154.3266 C   0  0  0  0  0  0  0  0  0  0  0  0
  146.6428  135.5001  154.0825 C   0  0  0  0  0  0  0  0  0  0  0  0
  147.4982  134.7995  154.9271 N   0  0  0  0  0  0  0  0  0  0  0  0
  148.1026  135.7241  155.6204 C   0  0  0  0  0  0  0  0  0  0  0  0
  147.7198  137.0140  155.3342 N   0  0  0  0  0  0  0  0  0  0  0  0
  148.2175  138.2293  155.9614 C   0  0  0  0  0  0  0  0  0  0  0  0
  149.7613  138.3322  155.9662 C   0  0  1  0  0  0  0  0  0  0  0  0
  150.2682  137.5808  157.0563 O   0  0  0  0  0  0  0  0  0  0  0  0
  150.3972  137.8054  154.6864 C   0  0  0  0  0  0  0  0  0  0  0  0
  151.6891  138.6068  154.6009 C   0  0  0  0  0  0  0  0  0  0  0  0
  151.2922  139.8984  155.0298 O   0  0  0  0  0  0  0  0  0  0  0  0
  150.3178  139.7684  156.0615 C   0  0  0  0  0  0  0  0  0  0  0  0
  147.2413  133.0107  153.3760 H   0  0  0  0  0  0  0  0  0  0  0  0
  146.0940  131.8405  152.7371 H   0  0  0  0  0  0  0  0  0  0  0  0
  145.8287  132.5370  154.3321 H   0  0  0  0  0  0  0  0  0  0  0  0
  143.4747  133.2094  152.1881 H   0  0  0  0  0  0  0  0  0  0  0  0
  144.1319  134.4691  151.2173 H   0  0  0  0  0  0  0  0  0  0  0  0
  144.8760  130.3288  150.3536 H   0  0  0  0  0  0  0  0  0  0  0  0
  143.6911  130.8677  151.5313 H   0  0  0  0  0  0  0  0  0  0  0  0
  145.3993  130.8427  151.9463 H   0  0  0  0  0  0  0  0  0  0  0  0
  143.7273  133.7638  149.2237 H   0  0  0  0  0  0  0  0  0  0  0  0
  144.4225  132.3436  148.4765 H   0  0  0  0  0  0  0  0  0  0  0  0
  142.2952  132.2675  150.3157 H   0  0  0  0  0  0  0  0  0  0  0  0
  146.4362  133.7866  149.8531 H   0  0  0  0  0  0  0  0  0  0  0  0
  146.9769  132.6545  151.0760 H   0  0  0  0  0  0  0  0  0  0  0  0
  147.6434  131.5895  149.4516 H   0  0  0  0  0  0  0  0  0  0  0  0
  144.6721  138.1421  152.2481 H   0  0  0  0  0  0  0  0  0  0  0  0
  148.8418  135.4884  156.3724 H   0  0  0  0  0  0  0  0  0  0  0  0
  147.7827  139.0848  155.4428 H   0  0  0  0  0  0  0  0  0  0  0  0
  147.8362  138.2674  156.9826 H   0  0  0  0  0  0  0  0  0  0  0  0
  149.6048  137.5439  157.7282 H   0  0  0  0  0  0  0  0  0  0  0  0
  150.5592  136.7266  154.6864 H   0  0  0  0  0  0  0  0  0  0  0  0
  149.7721  138.0475  153.8257 H   0  0  0  0  0  0  0  0  0  0  0  0
  152.4429  138.2098  155.2826 H   0  0  0  0  0  0  0  0  0  0  0  0
  152.1088  138.6281  153.5953 H   0  0  0  0  0  0  0  0  0  0  0  0
  149.5497  140.5211  155.8879 H   0  0  0  0  0  0  0  0  0  0  0  0
  150.7648  139.9772  157.0346 H   0  0  0  0  0  0  0  0  0  0  0  0
  1  2  1  0  0  0  0
  1 26  1  0  0  0  0
  1 27  1  0  0  0  0
  1 28  1  0  0  0  0
  2  3  1  0  0  0  0
  2 10  1  0  0  0  0
  3  4  1  0  0  0  0
  3 29  1  0  0  0  0
  3 30  1  0  0  0  0
  4  5  1  0  0  0  0
  4  6  1  0  0  0  0
  4  8  1  0  0  0  0
  5 31  1  0  0  0  0
  5 32  1  0  0  0  0
  5 33  1  0  0  0  0
  6  7  1  0  0  0  0
  6 34  1  0  0  0  0
  6 35  1  0  0  0  0
  7 36  1  0  0  0  0
  8  9  1  0  0  0  0
  8 37  1  0  0  0  0
  8 38  1  0  0  0  0
  9 39  1  0  0  0  0
 10 15  1  0  0  0  0
 10 11  2  0  0  0  0
 11 12  1  0  0  0  0
 12 13  2  0  0  0  0
 12 40  1  0  0  0  0
 13 14  1  0  0  0  0
 14 18  1  0  0  0  0
 14 15  2  0  0  0  0
 15 16  1  0  0  0  0
 16 17  2  0  0  0  0
 17 18  1  0  0  0  0
 17 41  1  0  0  0  0
 18 19  1  0  0  0  0
 19 20  1  0  0  0  0
 19 42  1  0  0  0  0
 19 43  1  0  0  0  0
 20 25  1  0  0  0  0
 20 21  1  0  0  0  0
 20 22  1  0  0  0  0
 21 44  1  0  0  0  0
 22 23  1  0  0  0  0
 22 45  1  0  0  0  0
 22 46  1  0  0  0  0
 23 24  1  0  0  0  0
 23 47  1  0  0  0  0
 23 48  1  0  0  0  0
 24 25  1  0  0  0  0
 25 49  1  0  0  0  0
 25 50  1  0  0  0  0
M  END
> <s_m_source_file>
AV-unprocessed.smi

> <i_m_source_file_index>
93

> <i_lp_mmshare_version>
43012

> <i_f3d_flags>
0

> <s_epik_input>
W09IXVtDSDJdQyhbQ0gzXSkoW0NIMl1bT0hdKVtDSDJdTihbQ0gzXSljKG5bY0hdbjEpYyhjMTIpbltjSF1uMltDSDJdW0NAQF0zKFtPSF0pW0NIMl1bQ0gyXU9bQ0gyXTM=

> <s_epik_cmdline>
J2VwaWtfcHl0aG9uJywgJy1waCcsICc3LjAnLCAnLXRuJywgJzgnLCAnLW1hJywgJzIwMCcsICctbWV0YWxfYmluZGluZycsICctaW1hZScsICc8aW5maWxlLm1hZT4nLCAnLW9tYWUnLCAnPG91dGZpbGUubWFlPic=

> <r_lp_tautomer_probability>
1

> <r_epik_Ionization_Penalty>
0.00325397

> <r_epik_Ionization_Penalty_Charging>
0

> <r_epik_Ionization_Penalty_Neutral>
0.00325397

> <r_epik_State_Penalty>
0.00225047

> <r_epik_Charging_Adjusted_Penalty>
0.00225047

> <i_epik_Tot_Q>
0

> <i_epik_Tot_abs_Q>
0

> <r_epik_Metal_State_Penalty>
-0

> <b_epik_Metal_Only>
0

> <s_lp_Force_Field>
OPLS_2005

> <r_lp_Energy>
39.2325

> <b_lp_Chiralities_Consistent>
1

> <s_lp_Variant>
AV-unprocessed.smi:93-1

> <Gold.Version>
5.8.1

> <Gold.Id.Protein>
6NUR|6NUR_protein|mol2

> <Gold.PLP.Fitness>
46.7602

> <Gold.PLP.PLP>
-33.9441

> <Gold.PLP.part.hbond>
-4.7871

> <Gold.PLP.part.metal>
0.0000

> <Gold.PLP.part.buried>
-5.5823

> <Gold.PLP.part.nonpolar>
-24.0378

> <Gold.PLP.part.repulsive>
0.4991

> <Gold.PLP.ligand.clash>
0.0000

> <Gold.PLP.ligand.torsion>
1.2550

> <Gold.PLP.Chemscore.Hbond>
2.9750

> <Gold.PLP.Chemscore.CHOScore>
1.9958

> <Gold.PLP.Chemscore.Metal>
0.0000

> <Gold.Chemscore.Hbonds>
donor molecule, donor type, donor heavy atom, donor atom, acceptor molecule, acceptor atom, score
      L1  H     9    39       P1 10747  1.00
      P1  H  7989  7998       L1    24  1.00
      P1  H 10785 10796       L1     7  0.86
      L1  C    12    40       P1 10171  0.83
      L1  C    12    40       P1 10175  1.00

> <Gold.PLP.Chemscore.Internal.Correction>
0.4139

> <Gold.Rescore>
     Score         DG    S(hbond)    S(metal)    S(lipo)     H(rot)  DE(clash)    DE(int)     intcor
      9.05     -12.24       2.88        0.00      76.12       4.60       0.27       2.92       ----

> <Gold.Chemscore.Fitness>
9.0492

> <Gold.Chemscore.DG>
-12.2385

> <Gold.Chemscore.ZeroCoef>
-5.4800

> <Gold.Chemscore.Hbond>
2.8835

> <Gold.Chemscore.Metal>
0.0000

> <Gold.Chemscore.Lipo>
76.1214

> <Gold.Chemscore.Internal_Hbond>
0.0000

> <Gold.Chemscore.DEClash>
0.2726

> <Gold.Chemscore.DEInternal>
2.9167

> <Gold.Chemscore.Rot>
4.6010

> <Gold.Chemscore.Internal.Correction>
   9.000000E+99

> <Gold.Chemscore.Hbonds>
donor molecule, donor type, donor heavy atom, donor atom, acceptor molecule, acceptor atom, score
      L1  H     9    39       P1 10747  1.00
      P1  H  7989  7998       L1    24  0.26
      P1  H 10785 10796       L1     7  0.29

> <Gold.Chemscore.Hbond.Weighted>
-9.6310

> <Gold.Chemscore.Metal.Weighted>
-0.0000

> <Gold.Chemscore.Lipo.Weighted>
-8.9062

> <Gold.Chemscore.Internal_Hbond.Weighted>
0.0000

> <Gold.Chemscore.DEClash.Weighted>
0.2726

> <Gold.Chemscore.DEInternal.Weighted>
2.9167

> <Gold.Chemscore.Rot.Weighted>
11.7787

> <Gold.Chemscore.Internal.Correction.Weighted>
   9.000000E+99

> <Gold.Protein.RotatedTorsions>
[ 6907 6896 6895 6894 ] final  -86.15 input  -60.11 | X-H torsion
[ 7974 7965 7964 7962 ] final  -65.12 input  175.53 | X-H torsion
[ 8008 7997 7996 7995 ] final  123.05 input   59.86 | X-H torsion
[ 10167 10162 10161 10158 ] final  134.37 input  -65.29 | X-H torsion
[ 10718 10713 10712 10709 ] final   24.31 input   66.30 | X-H torsion
[ 10763 10752 10751 10750 ] final  -86.41 input  -60.55 | X-H torsion
[ 11005 11000 10999 10996 ] final   21.51 input  -57.11 | X-H torsion

> <Gold.Protein.ActiveResidues>
 VAL166  LYS551  ARG553  GLY616  TRP617  ASP618  TYR619  PRO620  LYS621  CYS622 
 ASP623  PHE694  ASN695  SER759  ASP760  ASP761  ALA762  ILE779  LEU786  VAL792 
 PHE793  MET794  SER795  GLU796  ALA797  LYS798  CYS799  TRP800  GLU811  SER814 

> <Gold.Protein.RotatedAtoms>
  150.6868  134.3095  159.4740 H   0  0  0  0  0  0  0  0  0  0  0  0  # atno 6907 bound_to 6896
  152.0983  134.9357  160.0579 H   0  0  0  0  0  0  0  0  0  0  0  0  # atno 6908 bound_to 6896
  152.0646  133.4043  159.4470 H   0  0  0  0  0  0  0  0  0  0  0  0  # atno 6909 bound_to 6896
  145.7582  140.8875  143.0444 H   0  0  0  0  0  0  0  0  0  0  0  0  # atno 7974 bound_to 7965
  156.2751  140.2772  156.1565 H   0  0  0  0  0  0  0  0  0  0  0  0  # atno 8008 bound_to 7997
  155.0798  140.0387  157.2653 H   0  0  0  0  0  0  0  0  0  0  0  0  # atno 8009 bound_to 7997
  154.6973  140.2642  155.6759 H   0  0  0  0  0  0  0  0  0  0  0  0  # atno 8010 bound_to 7997
  139.5259  144.6571  151.5130 H   0  0  0  0  0  0  0  0  0  0  0  0  # atno 10167 bound_to 10162
  157.1781  130.6790  149.6102 H   0  0  0  0  0  0  0  0  0  0  0  0  # atno 10718 bound_to 10713
  154.6221  135.5450  153.7587 H   0  0  0  0  0  0  0  0  0  0  0  0  # atno 10763 bound_to 10752
  153.0243  135.6415  154.1425 H   0  0  0  0  0  0  0  0  0  0  0  0  # atno 10764 bound_to 10752
  154.1359  135.2911  155.3153 H   0  0  0  0  0  0  0  0  0  0  0  0  # atno 10765 bound_to 10752
  140.3908  134.1822  155.7662 H   0  0  0  0  0  0  0  0  0  0  0  0  # atno 11005 bound_to 11000
  144.6836  139.9686  143.7481 LP  0  0  0  0  0  0  0  0  0  0  0  0  # atno 17320 bound_to 7965
  146.0290  139.3318  143.0767 LP  0  0  0  0  0  0  0  0  0  0  0  0  # atno 17321 bound_to 7965
  140.6401  143.8906  150.6684 LP  0  0  0  0  0  0  0  0  0  0  0  0  # atno 17342 bound_to 10162
  140.2238  143.3788  152.1621 LP  0  0  0  0  0  0  0  0  0  0  0  0  # atno 17343 bound_to 10162
  155.9728  130.4656  150.6260 LP  0  0  0  0  0  0  0  0  0  0  0  0  # atno 17370 bound_to 10713
  157.3979  131.0805  151.1335 LP  0  0  0  0  0  0  0  0  0  0  0  0  # atno 17371 bound_to 10713
  141.1891  133.8245  157.0968 LP  0  0  0  0  0  0  0  0  0  0  0  0  # atno 17394 bound_to 11000
  140.0408  134.9855  157.0958 LP  0  0  0  0  0  0  0  0  0  0  0  0  # atno 17395 bound_to 11000

$$$$
