AV-unprocessed.smi:1569|AV-procd|sdf|6311|dock7
  -GOLD-   22720 6513D 1   1.00000     0.00000
 Structure written by MMmdl.
 33 34  0  0  0  0  0  0  0  0  1 V2000
  153.3259  138.8170  155.0266 C   0  0  0  0  0  0  0  0  0  0  0  0
  151.8523  138.9050  154.8251 C   0  0  0  0  0  0  0  0  0  0  0  0
  151.1702  140.0528  154.8518 N   0  0  0  0  0  0  0  0  0  0  0  0
  149.7973  139.8671  154.6630 C   0  0  0  0  0  0  0  0  0  0  0  0
  148.8670  141.0453  154.7080 C   0  0  0  0  0  0  0  0  0  0  0  0
  148.6587  141.6186  156.1244 C   0  0  0  0  0  0  0  0  0  0  0  0
  149.6981  142.5787  156.4917 N   0  0  0  0  0  0  0  0  0  0  0  0
  150.8237  142.2862  157.1625 C   0  0  0  0  0  0  0  0  0  0  0  0
  151.1338  141.1408  157.4929 O   0  0  0  0  0  0  0  0  0  0  0  0
  151.7220  143.4773  157.5184 C   0  0  0  0  0  0  0  0  0  0  0  0
  152.0556  143.5250  158.9444 N   0  0  0  0  0  0  0  0  0  0  0  0
  151.7225  144.7302  159.6964 C   0  0  0  0  0  0  0  0  0  0  0  0
  151.8690  144.3085  161.4506 S   0  0  0  0  0  0  0  0  0  0  0  0
  152.8268  142.8235  161.1029 C   0  0  0  0  0  0  0  0  0  0  0  0
  152.6369  142.5224  159.6260 C   0  0  0  0  0  0  0  0  0  0  0  0
  152.9912  141.4489  159.1401 O   0  0  0  0  0  0  0  0  0  0  0  0
  149.4509  138.5528  154.4681 C   0  0  0  0  0  0  0  0  0  0  0  0
  150.8357  137.4986  154.5381 S   0  0  0  0  0  0  0  0  0  0  0  0
  153.7905  139.7947  154.8951 H   0  0  0  0  0  0  0  0  0  0  0  0
  153.7616  138.1240  154.3068 H   0  0  0  0  0  0  0  0  0  0  0  0
  153.5410  138.4588  156.0335 H   0  0  0  0  0  0  0  0  0  0  0  0
  149.2381  141.8358  154.0549 H   0  0  0  0  0  0  0  0  0  0  0  0
  147.8976  140.7596  154.2984 H   0  0  0  0  0  0  0  0  0  0  0  0
  147.6709  142.0768  156.1960 H   0  0  0  0  0  0  0  0  0  0  0  0
  148.6666  140.8074  156.8527 H   0  0  0  0  0  0  0  0  0  0  0  0
  149.5290  143.5449  156.2523 H   0  0  0  0  0  0  0  0  0  0  0  0
  152.6267  143.4330  156.9101 H   0  0  0  0  0  0  0  0  0  0  0  0
  151.2155  144.4042  157.2446 H   0  0  0  0  0  0  0  0  0  0  0  0
  152.4228  145.5278  159.4470 H   0  0  0  0  0  0  0  0  0  0  0  0
  150.7121  145.0736  159.4746 H   0  0  0  0  0  0  0  0  0  0  0  0
  153.8820  143.0035  161.3082 H   0  0  0  0  0  0  0  0  0  0  0  0
  152.4859  141.9937  161.7226 H   0  0  0  0  0  0  0  0  0  0  0  0
  148.4667  138.1411  154.3028 H   0  0  0  0  0  0  0  0  0  0  0  0
  1  2  1  0  0  0  0
  1 19  1  0  0  0  0
  1 20  1  0  0  0  0
  1 21  1  0  0  0  0
  2 18  1  0  0  0  0
  2  3  2  0  0  0  0
  3  4  1  0  0  0  0
  4  5  1  0  0  0  0
  4 17  2  0  0  0  0
  5  6  1  0  0  0  0
  5 22  1  0  0  0  0
  5 23  1  0  0  0  0
  6  7  1  0  0  0  0
  6 24  1  0  0  0  0
  6 25  1  0  0  0  0
  7  8  1  0  0  0  0
  7 26  1  0  0  0  0
  8  9  2  0  0  0  0
  8 10  1  0  0  0  0
 10 11  1  0  0  0  0
 10 27  1  0  0  0  0
 10 28  1  0  0  0  0
 11 15  1  0  0  0  0
 11 12  1  0  0  0  0
 12 13  1  0  0  0  0
 12 29  1  0  0  0  0
 12 30  1  0  0  0  0
 13 14  1  0  0  0  0
 14 15  1  0  0  0  0
 14 31  1  0  0  0  0
 14 32  1  0  0  0  0
 15 16  2  0  0  0  0
 17 18  1  0  0  0  0
 17 33  1  0  0  0  0
M  END
> <s_m_source_file>
AV-unprocessed.smi

> <i_m_source_file_index>
1569

> <i_lp_mmshare_version>
43012

> <i_f3d_flags>
0

> <s_epik_input>
W0NIM11jMW5jKFtjSF1zMSlbQ0gyXVtDSDJdW05IXUMoPU8pW0NIMl1OMltDSDJdU1tDSDJdQzI9Tw==

> <s_epik_cmdline>
J2VwaWtfcHl0aG9uJywgJy1waCcsICc3LjAnLCAnLXRuJywgJzgnLCAnLW1hJywgJzIwMCcsICctbWV0YWxfYmluZGluZycsICctaW1hZScsICc8aW5maWxlLm1hZT4nLCAnLW9tYWUnLCAnPG91dGZpbGUubWFlPic=

> <r_epik_Ionization_Penalty>
0.00098942

> <r_epik_Ionization_Penalty_Charging>
0

> <r_epik_Ionization_Penalty_Neutral>
0.00098942

> <r_epik_State_Penalty>
0.00064447

> <r_epik_Charging_Adjusted_Penalty>
0.00064447

> <i_epik_Tot_Q>
0

> <i_epik_Tot_abs_Q>
0

> <r_epik_Metal_State_Penalty>
-0

> <b_epik_Metal_Only>
0

> <s_epik_Chemistry_Notes>
This compound contains an acetal/aminal-like group ( X-CH(R)-Y where X, Y are N, S, or O) that may be acid/base labile, releasing an aldehyde.

> <s_lp_Force_Field>
OPLS_2005

> <r_lp_Energy>
2.37506

> <b_lp_Chiralities_Consistent>
1

> <s_lp_Variant>
AV-unprocessed.smi:1569-1

> <Gold.Version>
5.8.1

> <Gold.Id.Protein>
6NUR|6NUR_protein|mol2

> <Gold.PLP.Fitness>
49.3731

> <Gold.PLP.PLP>
-44.4258

> <Gold.PLP.part.hbond>
-1.8355

> <Gold.PLP.part.metal>
0.0000

> <Gold.PLP.part.buried>
-3.2279

> <Gold.PLP.part.nonpolar>
-38.6646

> <Gold.PLP.part.repulsive>
0.1482

> <Gold.PLP.ligand.clash>
0.0000

> <Gold.PLP.ligand.torsion>
0.5338

> <Gold.PLP.Chemscore.Hbond>
2.0000

> <Gold.PLP.Chemscore.CHOScore>
0.0000

> <Gold.PLP.Chemscore.Metal>
0.0000

> <Gold.Chemscore.Hbonds>
donor molecule, donor type, donor heavy atom, donor atom, acceptor molecule, acceptor atom, score
      L1  H     7    26       P1  8028  0.83
      P1  H  7989  7998       L1     3  1.00

> <Gold.PLP.Chemscore.Internal.Correction>
0.0150

> <Gold.Rescore>
     Score         DG    S(hbond)    S(metal)    S(lipo)     H(rot)  DE(clash)    DE(int)     intcor
     14.45     -17.86       1.72        0.00      98.74       1.92       1.43       1.99       ----

> <Gold.Chemscore.Fitness>
14.4477

> <Gold.Chemscore.DG>
-17.8650

> <Gold.Chemscore.ZeroCoef>
-5.4800

> <Gold.Chemscore.Hbond>
1.7219

> <Gold.Chemscore.Metal>
0.0000

> <Gold.Chemscore.Lipo>
98.7425

> <Gold.Chemscore.Internal_Hbond>
0.0000

> <Gold.Chemscore.DEClash>
1.4310

> <Gold.Chemscore.DEInternal>
1.9863

> <Gold.Chemscore.Rot>
1.9215

> <Gold.Chemscore.Internal.Correction>
   9.000000E+99

> <Gold.Chemscore.Hbonds>
donor molecule, donor type, donor heavy atom, donor atom, acceptor molecule, acceptor atom, score
      L1  H     7    26       P1  8028  0.82
      P1  H  7989  7998       L1     3  0.22

> <Gold.Chemscore.Hbond.Weighted>
-5.7511

> <Gold.Chemscore.Metal.Weighted>
-0.0000

> <Gold.Chemscore.Lipo.Weighted>
-11.5529

> <Gold.Chemscore.Internal_Hbond.Weighted>
0.0000

> <Gold.Chemscore.DEClash.Weighted>
1.4310

> <Gold.Chemscore.DEInternal.Weighted>
1.9863

> <Gold.Chemscore.Rot.Weighted>
4.9190

> <Gold.Chemscore.Internal.Correction.Weighted>
   9.000000E+99

> <Gold.Protein.RotatedTorsions>
[ 6907 6896 6895 6894 ] final -173.81 input  -60.11 | X-H torsion
[ 7974 7965 7964 7962 ] final  -22.49 input  175.53 | X-H torsion
[ 8008 7997 7996 7995 ] final  -54.21 input   59.86 | X-H torsion
[ 10167 10162 10161 10158 ] final  -29.19 input  -65.29 | X-H torsion
[ 10718 10713 10712 10709 ] final  149.06 input   66.30 | X-H torsion
[ 10763 10752 10751 10750 ] final  101.50 input  -60.55 | X-H torsion
[ 11005 11000 10999 10996 ] final  131.62 input  -57.11 | X-H torsion

> <Gold.Protein.ActiveResidues>
 VAL166  LYS551  ARG553  GLY616  TRP617  ASP618  TYR619  PRO620  LYS621  CYS622 
 ASP623  PHE694  ASN695  SER759  ASP760  ASP761  ALA762  ILE779  LEU786  VAL792 
 PHE793  MET794  SER795  GLU796  ALA797  LYS798  CYS799  TRP800  GLU811  SER814 

> <Gold.Protein.RotatedAtoms>
  151.5622  133.3401  159.2972 H   0  0  0  0  0  0  0  0  0  0  0  0  # atno 6907 bound_to 6896
  150.8416  134.7713  159.6948 H   0  0  0  0  0  0  0  0  0  0  0  0  # atno 6908 bound_to 6896
  152.4482  134.5456  159.9903 H   0  0  0  0  0  0  0  0  0  0  0  0  # atno 6909 bound_to 6896
  146.1672  140.4487  142.8547 H   0  0  0  0  0  0  0  0  0  0  0  0  # atno 7974 bound_to 7965
  154.4156  140.1181  156.5279 H   0  0  0  0  0  0  0  0  0  0  0  0  # atno 8008 bound_to 7997
  155.6635  140.3496  155.4772 H   0  0  0  0  0  0  0  0  0  0  0  0  # atno 8009 bound_to 7997
  155.9693  140.1138  157.0816 H   0  0  0  0  0  0  0  0  0  0  0  0  # atno 8010 bound_to 7997
  140.7263  143.3949  151.1365 H   0  0  0  0  0  0  0  0  0  0  0  0  # atno 10167 bound_to 10162
  157.3008  131.0870  151.1392 H   0  0  0  0  0  0  0  0  0  0  0  0  # atno 10718 bound_to 10713
  153.3274  135.4042  155.1467 H   0  0  0  0  0  0  0  0  0  0  0  0  # atno 10763 bound_to 10752
  154.8615  135.3602  154.5515 H   0  0  0  0  0  0  0  0  0  0  0  0  # atno 10764 bound_to 10752
  153.5952  135.7072  153.5466 H   0  0  0  0  0  0  0  0  0  0  0  0  # atno 10765 bound_to 10752
  139.9741  134.9569  156.9464 H   0  0  0  0  0  0  0  0  0  0  0  0  # atno 11005 bound_to 11000
  144.8110  140.6385  143.6415 LP  0  0  0  0  0  0  0  0  0  0  0  0  # atno 17320 bound_to 7965
  145.4436  139.1532  143.3957 LP  0  0  0  0  0  0  0  0  0  0  0  0  # atno 17321 bound_to 7965
  139.7560  143.8707  152.3089 LP  0  0  0  0  0  0  0  0  0  0  0  0  # atno 17342 bound_to 10162
  139.8577  144.7133  150.9137 LP  0  0  0  0  0  0  0  0  0  0  0  0  # atno 17343 bound_to 10162
  157.2751  130.6723  149.6038 LP  0  0  0  0  0  0  0  0  0  0  0  0  # atno 17370 bound_to 10713
  155.9671  130.4467  150.5551 LP  0  0  0  0  0  0  0  0  0  0  0  0  # atno 17371 bound_to 10713
  140.5232  134.0887  155.7297 LP  0  0  0  0  0  0  0  0  0  0  0  0  # atno 17394 bound_to 11000
  141.1419  133.9123  157.2306 LP  0  0  0  0  0  0  0  0  0  0  0  0  # atno 17395 bound_to 11000

$$$$
