AV-unprocessed.smi:1697|AV-procd|sdf|6803|dock3
  -GOLD-   22720 7573D 1   1.00000     0.00000
 Structure written by MMmdl.
 54 56  0  0  0  0  0  0  0  0  2 V2000
  144.3769  134.5978  150.4495 C   0  0  0  0  0  0  0  0  0  0  0  0
  145.3137  135.7369  150.8577 C   0  0  0  0  0  0  0  0  0  0  0  0
  144.7458  136.4165  151.9676 O   0  0  0  0  0  0  0  0  0  0  0  0
  145.6553  137.2356  152.6902 C   0  0  2  0  0  0  0  0  0  0  0  0
  144.9852  137.8591  153.9290 C   0  0  0  0  0  0  0  0  0  0  0  0
  145.9142  138.8789  154.6094 C   0  0  0  0  0  0  0  0  0  0  0  0
  146.3378  139.9384  153.6556 N   0  3  1  0  0  0  0  0  0  0  0  0
  147.1218  141.0280  154.2924 C   0  0  0  0  0  0  0  0  0  0  0  0
  148.3625  140.4980  155.0374 C   0  0  2  0  0  0  0  0  0  0  0  0
  148.0179  140.2699  156.3909 O   0  0  0  0  0  0  0  0  0  0  0  0
  149.5413  141.4884  154.9728 C   0  0  0  0  0  0  0  0  0  0  0  0
  150.6399  141.0933  155.8355 N   0  0  0  0  0  0  0  0  0  0  0  0
  151.4584  140.0341  155.6829 C   0  0  0  0  0  0  0  0  0  0  0  0
  152.4112  139.8651  156.5949 N   0  0  0  0  0  0  0  0  0  0  0  0
  152.1823  140.9375  157.4399 C   0  0  0  0  0  0  0  0  0  0  0  0
  152.8535  141.3389  158.6155 C   0  0  0  0  0  0  0  0  0  0  0  0
  152.4414  142.4867  159.3293 C   0  0  0  0  0  0  0  0  0  0  0  0
  153.1938  142.8837  160.5871 C   0  0  0  0  0  0  0  0  0  0  0  0
  151.3395  143.2520  158.8697 C   0  0  0  0  0  0  0  0  0  0  0  0
  150.8767  144.4866  159.6226 C   0  0  0  0  0  0  0  0  0  0  0  0
  150.6590  142.8665  157.6959 C   0  0  0  0  0  0  0  0  0  0  0  0
  151.0799  141.7234  156.9940 C   0  0  0  0  0  0  0  0  0  0  0  0
  147.0244  139.3605  152.4721 C   0  0  0  0  0  0  0  0  0  0  0  0
  146.1165  138.3550  151.7455 C   0  0  0  0  0  0  0  0  0  0  0  0
  144.7766  134.0521  149.5945 H   0  0  0  0  0  0  0  0  0  0  0  0
  143.3938  134.9795  150.1732 H   0  0  0  0  0  0  0  0  0  0  0  0
  144.2439  133.8881  151.2667 H   0  0  0  0  0  0  0  0  0  0  0  0
  146.2938  135.3320  151.1096 H   0  0  0  0  0  0  0  0  0  0  0  0
  145.4444  136.4244  150.0208 H   0  0  0  0  0  0  0  0  0  0  0  0
  146.5284  136.6528  152.9902 H   0  0  0  0  0  0  0  0  0  0  0  0
  144.0566  138.3512  153.6366 H   0  0  0  0  0  0  0  0  0  0  0  0
  144.7128  137.0869  154.6482 H   0  0  0  0  0  0  0  0  0  0  0  0
  145.3933  139.3178  155.4595 H   0  0  0  0  0  0  0  0  0  0  0  0
  146.7951  138.3731  155.0082 H   0  0  0  0  0  0  0  0  0  0  0  0
  147.4105  141.7552  153.5319 H   0  0  0  0  0  0  0  0  0  0  0  0
  146.4975  141.5692  155.0054 H   0  0  0  0  0  0  0  0  0  0  0  0
  148.6843  139.5501  154.6070 H   0  0  0  0  0  0  0  0  0  0  0  0
  148.4775  139.5023  156.6966 H   0  0  0  0  0  0  0  0  0  0  0  0
  149.9207  141.5567  153.9525 H   0  0  0  0  0  0  0  0  0  0  0  0
  149.2182  142.4922  155.2531 H   0  0  0  0  0  0  0  0  0  0  0  0
  151.3524  139.3514  154.8526 H   0  0  0  0  0  0  0  0  0  0  0  0
  153.6916  140.7546  158.9661 H   0  0  0  0  0  0  0  0  0  0  0  0
  152.5275  142.8732  161.4500 H   0  0  0  0  0  0  0  0  0  0  0  0
  153.6109  143.8856  160.4826 H   0  0  0  0  0  0  0  0  0  0  0  0
  154.0173  142.1989  160.7917 H   0  0  0  0  0  0  0  0  0  0  0  0
  150.0040  144.9375  159.1493 H   0  0  0  0  0  0  0  0  0  0  0  0
  151.6682  145.2359  159.6499 H   0  0  0  0  0  0  0  0  0  0  0  0
  150.6060  144.2309  160.6474 H   0  0  0  0  0  0  0  0  0  0  0  0
  149.8191  143.4408  157.3341 H   0  0  0  0  0  0  0  0  0  0  0  0
  147.2974  140.1570  151.7787 H   0  0  0  0  0  0  0  0  0  0  0  0
  147.9518  138.8776  152.7844 H   0  0  0  0  0  0  0  0  0  0  0  0
  146.6442  137.9274  150.8923 H   0  0  0  0  0  0  0  0  0  0  0  0
  145.2480  138.8771  151.3410 H   0  0  0  0  0  0  0  0  0  0  0  0
  145.4954  140.3720  153.3042 H   0  0  0  0  0  0  0  0  0  0  0  0
  1  2  1  0  0  0  0
  1 25  1  0  0  0  0
  1 26  1  0  0  0  0
  1 27  1  0  0  0  0
  2  3  1  0  0  0  0
  2 28  1  0  0  0  0
  2 29  1  0  0  0  0
  3  4  1  0  0  0  0
  4 24  1  0  0  0  0
  4  5  1  0  0  0  0
  4 30  1  0  0  0  0
  5  6  1  0  0  0  0
  5 31  1  0  0  0  0
  5 32  1  0  0  0  0
  6  7  1  0  0  0  0
  6 33  1  0  0  0  0
  6 34  1  0  0  0  0
  7  8  1  0  0  0  0
  7 23  1  0  0  0  0
  7 54  1  0  0  0  0
  8  9  1  0  0  0  0
  8 35  1  0  0  0  0
  8 36  1  0  0  0  0
  9 10  1  0  0  0  0
  9 11  1  0  0  0  0
  9 37  1  0  0  0  0
 10 38  1  0  0  0  0
 11 12  1  0  0  0  0
 11 39  1  0  0  0  0
 11 40  1  0  0  0  0
 12 22  1  0  0  0  0
 12 13  1  0  0  0  0
 13 14  2  0  0  0  0
 13 41  1  0  0  0  0
 14 15  1  0  0  0  0
 15 22  2  0  0  0  0
 15 16  1  0  0  0  0
 16 17  2  0  0  0  0
 16 42  1  0  0  0  0
 17 18  1  0  0  0  0
 17 19  1  0  0  0  0
 18 43  1  0  0  0  0
 18 44  1  0  0  0  0
 18 45  1  0  0  0  0
 19 20  1  0  0  0  0
 19 21  2  0  0  0  0
 20 46  1  0  0  0  0
 20 47  1  0  0  0  0
 20 48  1  0  0  0  0
 21 22  1  0  0  0  0
 21 49  1  0  0  0  0
 23 24  1  0  0  0  0
 23 50  1  0  0  0  0
 23 51  1  0  0  0  0
 24 52  1  0  0  0  0
 24 53  1  0  0  0  0
M  CHG  1   7   1
M  END
> <s_m_source_file>
AV-unprocessed.smi

> <i_m_source_file_index>
1697

> <i_lp_mmshare_version>
43012

> <i_f3d_flags>
0

> <s_epik_input>
W0NIM11bQ0gyXU9bQ0hdMVtDSDJdW0NIMl1OKFtDSDJdW0NIMl0xKVtDSDJdW0NASF0oW09IXSlbQ0gyXW4oW2NIXW4yKWMoYzIzKVtjSF1jKFtDSDNdKWMoW2NIXTMpW0NIM10=

> <s_epik_cmdline>
J2VwaWtfcHl0aG9uJywgJy1waCcsICc3LjAnLCAnLXRuJywgJzgnLCAnLW1hJywgJzIwMCcsICctbWV0YWxfYmluZGluZycsICctaW1hZScsICc8aW5maWxlLm1hZT4nLCAnLW9tYWUnLCAnPG91dGZpbGUubWFlPic=

> <r_epik_Ionization_Penalty>
0.112476

> <r_epik_Ionization_Penalty_Charging>
0.0244612

> <r_epik_Ionization_Penalty_Neutral>
0.0880147

> <r_epik_State_Penalty>
0.0961447

> <r_epik_Charging_Adjusted_Penalty>
0.120606

> <i_epik_Tot_Q>
1

> <i_epik_Tot_abs_Q>
1

> <r_epik_Metal_State_Penalty>
0.0206204

> <b_epik_Metal_Only>
0

> <s_lp_Force_Field>
OPLS_2005

> <r_lp_Energy>
22.6968

> <b_lp_Chiralities_Consistent>
1

> <s_lp_Variant>
AV-unprocessed.smi:1697-1

> <Gold.Version>
5.8.1

> <Gold.Id.Protein>
6NUR|6NUR_protein|mol2

> <Gold.PLP.Fitness>
53.4790

> <Gold.PLP.PLP>
-45.5051

> <Gold.PLP.part.hbond>
-2.0000

> <Gold.PLP.part.metal>
0.0000

> <Gold.PLP.part.buried>
-2.2694

> <Gold.PLP.part.nonpolar>
-41.8350

> <Gold.PLP.part.repulsive>
0.1895

> <Gold.PLP.ligand.clash>
0.0000

> <Gold.PLP.ligand.torsion>
0.6655

> <Gold.PLP.Chemscore.Hbond>
3.0000

> <Gold.PLP.Chemscore.CHOScore>
0.0000

> <Gold.PLP.Chemscore.Metal>
0.0000

> <Gold.Chemscore.Hbonds>
donor molecule, donor type, donor heavy atom, donor atom, acceptor molecule, acceptor atom, score
      L1  H     7    54       P1 10175  2.00
      P1  H  7997  8010       L1    14  0.90

> <Gold.PLP.Chemscore.Internal.Correction>
0.3049

> <Gold.Rescore>
     Score         DG    S(hbond)    S(metal)    S(lipo)     H(rot)  DE(clash)    DE(int)     intcor
     18.74     -20.17       1.71        0.00     126.32       2.27       0.71       0.71       ----

> <Gold.Chemscore.Fitness>
18.7446

> <Gold.Chemscore.DG>
-20.1696

> <Gold.Chemscore.ZeroCoef>
-5.4800

> <Gold.Chemscore.Hbond>
1.7138

> <Gold.Chemscore.Metal>
0.0000

> <Gold.Chemscore.Lipo>
126.3182

> <Gold.Chemscore.Internal_Hbond>
0.0000

> <Gold.Chemscore.DEClash>
0.7144

> <Gold.Chemscore.DEInternal>
0.7107

> <Gold.Chemscore.Rot>
2.2710

> <Gold.Chemscore.Internal.Correction>
   9.000000E+99

> <Gold.Chemscore.Hbonds>
donor molecule, donor type, donor heavy atom, donor atom, acceptor molecule, acceptor atom, score
      L1  H     7    54       P1 10175  0.94
      P1  H  7997  8010       L1    14  0.17

> <Gold.Chemscore.Hbond.Weighted>
-5.7241

> <Gold.Chemscore.Metal.Weighted>
-0.0000

> <Gold.Chemscore.Lipo.Weighted>
-14.7792

> <Gold.Chemscore.Internal_Hbond.Weighted>
0.0000

> <Gold.Chemscore.DEClash.Weighted>
0.7144

> <Gold.Chemscore.DEInternal.Weighted>
0.7107

> <Gold.Chemscore.Rot.Weighted>
5.8137

> <Gold.Chemscore.Internal.Correction.Weighted>
   9.000000E+99

> <Gold.Protein.RotatedTorsions>
[ 6907 6896 6895 6894 ] final    3.70 input  -60.11 | X-H torsion
[ 7974 7965 7964 7962 ] final  -48.60 input  175.53 | X-H torsion
[ 8008 7997 7996 7995 ] final   81.54 input   59.86 | X-H torsion
[ 10167 10162 10161 10158 ] final   35.45 input  -65.29 | X-H torsion
[ 10718 10713 10712 10709 ] final  102.98 input   66.30 | X-H torsion
[ 10763 10752 10751 10750 ] final   14.12 input  -60.55 | X-H torsion
[ 11005 11000 10999 10996 ] final -170.70 input  -57.11 | X-H torsion

> <Gold.Protein.ActiveResidues>
 VAL166  LYS551  ARG553  GLY616  TRP617  ASP618  TYR619  PRO620  LYS621  CYS622 
 ASP623  PHE694  ASN695  SER759  ASP760  ASP761  ALA762  ILE779  LEU786  VAL792 
 PHE793  MET794  SER795  GLU796  ALA797  LYS798  CYS799  TRP800  GLU811  SER814 

> <Gold.Protein.RotatedAtoms>
  151.6294  135.1024  160.0118 H   0  0  0  0  0  0  0  0  0  0  0  0  # atno 6907 bound_to 6896
  152.4115  133.6966  159.6410 H   0  0  0  0  0  0  0  0  0  0  0  0  # atno 6908 bound_to 6896
  150.8005  133.8533  159.3252 H   0  0  0  0  0  0  0  0  0  0  0  0  # atno 6909 bound_to 6896
  145.9494  140.7587  142.9512 H   0  0  0  0  0  0  0  0  0  0  0  0  # atno 7974 bound_to 7965
  155.8985  140.3434  155.6008 H   0  0  0  0  0  0  0  0  0  0  0  0  # atno 8008 bound_to 7997
  155.7528  140.0822  157.2212 H   0  0  0  0  0  0  0  0  0  0  0  0  # atno 8009 bound_to 7997
  154.4041  140.1550  156.2731 H   0  0  0  0  0  0  0  0  0  0  0  0  # atno 8010 bound_to 7997
  140.4220  144.1446  150.6149 H   0  0  0  0  0  0  0  0  0  0  0  0  # atno 10167 bound_to 10162
  157.6786  131.0767  150.5486 H   0  0  0  0  0  0  0  0  0  0  0  0  # atno 10718 bound_to 10713
  153.1653  135.6803  153.8684 H   0  0  0  0  0  0  0  0  0  0  0  0  # atno 10763 bound_to 10752
  153.8066  135.3148  155.3397 H   0  0  0  0  0  0  0  0  0  0  0  0  # atno 10764 bound_to 10752
  154.7961  135.4806  154.0254 H   0  0  0  0  0  0  0  0  0  0  0  0  # atno 10765 bound_to 10752
  140.5166  134.5750  157.5035 H   0  0  0  0  0  0  0  0  0  0  0  0  # atno 11005 bound_to 11000
  144.6793  140.2410  143.7344 LP  0  0  0  0  0  0  0  0  0  0  0  0  # atno 17320 bound_to 7965
  145.8192  139.2036  143.1948 LP  0  0  0  0  0  0  0  0  0  0  0  0  # atno 17321 bound_to 7965
  140.4523  143.2482  151.9331 LP  0  0  0  0  0  0  0  0  0  0  0  0  # atno 17342 bound_to 10162
  139.4783  144.5550  151.8327 LP  0  0  0  0  0  0  0  0  0  0  0  0  # atno 17343 bound_to 10162
  156.5791  130.4300  149.5985 LP  0  0  0  0  0  0  0  0  0  0  0  0  # atno 17370 bound_to 10713
  156.2676  130.6998  151.1786 LP  0  0  0  0  0  0  0  0  0  0  0  0  # atno 17371 bound_to 10713
  139.9629  134.7422  156.0199 LP  0  0  0  0  0  0  0  0  0  0  0  0  # atno 17394 bound_to 11000
  141.1357  133.6575  156.3587 LP  0  0  0  0  0  0  0  0  0  0  0  0  # atno 17395 bound_to 11000

$$$$
