AV-unprocessed.smi:1854|AV-procd|sdf|7529|dock4
  -GOLD-   22720 9243D 1   1.00000     0.00000
 Structure written by MMmdl.
 39 41  0  0  0  0  0  0  0  0  1 V2000
  150.7029  133.3772  156.9957 O   0  0  0  0  0  0  0  0  0  0  0  0
  150.4648  134.1493  156.0685 C   0  0  0  0  0  0  0  0  0  0  0  0
  149.8146  133.8114  154.9458 N   0  0  0  0  0  0  0  0  0  0  0  0
  149.2968  132.4806  154.6443 C   0  0  0  0  0  0  0  0  0  0  0  0
  148.2044  132.5966  153.6213 C   0  0  0  0  0  0  0  0  0  0  0  0
  147.8391  133.7721  153.1080 N   0  0  0  0  0  0  0  0  0  0  0  0
  146.8357  133.4210  152.2264 C   0  0  0  0  0  0  0  0  0  0  0  0
  146.0442  134.2197  151.3702 C   0  0  0  0  0  0  0  0  0  0  0  0
  145.0692  133.6271  150.5410 C   0  0  0  0  0  0  0  0  0  0  0  0
  144.8718  132.2311  150.5563 C   0  0  0  0  0  0  0  0  0  0  0  0
  145.6484  131.4175  151.4035 C   0  0  0  0  0  0  0  0  0  0  0  0
  146.6194  132.0140  152.2297 C   0  0  0  0  0  0  0  0  0  0  0  0
  147.5300  131.5152  153.1550 N   0  0  0  0  0  0  0  0  0  0  0  0
  147.7071  130.1175  153.5154 C   0  0  0  0  0  0  0  0  0  0  0  0
  149.1312  129.6365  153.2144 C   0  0  0  0  0  0  0  0  0  0  0  0
  149.2403  128.2760  153.6064 O   0  0  0  0  0  0  0  0  0  0  0  0
  148.9568  127.2995  152.6739 C   0  0  0  0  0  0  0  0  0  0  0  0
  148.6357  127.5702  151.3188 C   0  0  0  0  0  0  0  0  0  0  0  0
  148.3590  126.5175  150.4252 C   0  0  0  0  0  0  0  0  0  0  0  0
  148.3988  125.1839  150.8702 C   0  0  0  0  0  0  0  0  0  0  0  0
  148.7149  124.9040  152.2121 C   0  0  0  0  0  0  0  0  0  0  0  0
  148.9920  125.9552  153.1083 C   0  0  0  0  0  0  0  0  0  0  0  0
  149.3790  125.5825  154.7501 Cl  0  0  0  0  0  0  0  0  0  0  0  0
  150.7557  135.2109  156.0482 H   0  0  0  0  0  0  0  0  0  0  0  0
  149.6741  134.5254  154.2458 H   0  0  0  0  0  0  0  0  0  0  0  0
  150.0867  131.8257  154.2721 H   0  0  0  0  0  0  0  0  0  0  0  0
  148.9121  132.0216  155.5548 H   0  0  0  0  0  0  0  0  0  0  0  0
  146.1885  135.2898  151.3505 H   0  0  0  0  0  0  0  0  0  0  0  0
  144.4704  134.2466  149.8893 H   0  0  0  0  0  0  0  0  0  0  0  0
  144.1237  131.7851  149.9175 H   0  0  0  0  0  0  0  0  0  0  0  0
  145.5001  130.3479  151.4174 H   0  0  0  0  0  0  0  0  0  0  0  0
  147.4700  129.9798  154.5702 H   0  0  0  0  0  0  0  0  0  0  0  0
  146.9840  129.5201  152.9594 H   0  0  0  0  0  0  0  0  0  0  0  0
  149.3368  129.7405  152.1477 H   0  0  0  0  0  0  0  0  0  0  0  0
  149.8518  130.2455  153.7627 H   0  0  0  0  0  0  0  0  0  0  0  0
  148.5939  128.5791  150.9380 H   0  0  0  0  0  0  0  0  0  0  0  0
  148.1154  126.7348  149.3956 H   0  0  0  0  0  0  0  0  0  0  0  0
  148.1870  124.3772  150.1841 H   0  0  0  0  0  0  0  0  0  0  0  0
  148.7446  123.8798  152.5539 H   0  0  0  0  0  0  0  0  0  0  0  0
  1  2  2  0  0  0  0
  2  3  1  0  0  0  0
  2 24  1  0  0  0  0
  3  4  1  0  0  0  0
  3 25  1  0  0  0  0
  4  5  1  0  0  0  0
  4 26  1  0  0  0  0
  4 27  1  0  0  0  0
  5 13  1  0  0  0  0
  5  6  2  0  0  0  0
  6  7  1  0  0  0  0
  7 12  2  0  0  0  0
  7  8  1  0  0  0  0
  8  9  2  0  0  0  0
  8 28  1  0  0  0  0
  9 10  1  0  0  0  0
  9 29  1  0  0  0  0
 10 11  2  0  0  0  0
 10 30  1  0  0  0  0
 11 12  1  0  0  0  0
 11 31  1  0  0  0  0
 12 13  1  0  0  0  0
 13 14  1  0  0  0  0
 14 15  1  0  0  0  0
 14 32  1  0  0  0  0
 14 33  1  0  0  0  0
 15 16  1  0  0  0  0
 15 34  1  0  0  0  0
 15 35  1  0  0  0  0
 16 17  1  0  0  0  0
 17 22  1  0  0  0  0
 17 18  2  0  0  0  0
 18 19  1  0  0  0  0
 18 36  1  0  0  0  0
 19 20  2  0  0  0  0
 19 37  1  0  0  0  0
 20 21  1  0  0  0  0
 20 38  1  0  0  0  0
 21 22  2  0  0  0  0
 21 39  1  0  0  0  0
 22 23  1  0  0  0  0
M  END
> <s_m_source_file>
AV-unprocessed.smi

> <i_m_source_file_index>
1854

> <i_lp_mmshare_version>
43012

> <i_f3d_flags>
0

> <s_epik_input>
Tz1bQ0hdW05IXVtDSDJdYyhuMSluKGMoYzEyKVtjSF1bY0hdW2NIXVtjSF0yKVtDSDJdW0NIMl1PYzNbY0hdW2NIXVtjSF1bY0hdYzNDbA==

> <s_epik_cmdline>
J2VwaWtfcHl0aG9uJywgJy1waCcsICc3LjAnLCAnLXRuJywgJzgnLCAnLW1hJywgJzIwMCcsICctbWV0YWxfYmluZGluZycsICctaW1hZScsICc8aW5maWxlLm1hZT4nLCAnLW9tYWUnLCAnPG91dGZpbGUubWFlPic=

> <r_lp_tautomer_probability>
1

> <r_epik_Ionization_Penalty>
0.0546265

> <r_epik_Ionization_Penalty_Charging>
0

> <r_epik_Ionization_Penalty_Neutral>
0.0546265

> <r_epik_State_Penalty>
0.0470049

> <r_epik_Charging_Adjusted_Penalty>
0.0470049

> <i_epik_Tot_Q>
0

> <i_epik_Tot_abs_Q>
0

> <r_epik_Metal_State_Penalty>
0.0430103

> <b_epik_Metal_Only>
0

> <s_lp_Force_Field>
OPLS_2005

> <r_lp_Energy>
13.3616

> <b_lp_Chiralities_Consistent>
1

> <s_lp_Variant>
AV-unprocessed.smi:1854-1

> <Gold.Version>
5.8.1

> <Gold.Id.Protein>
6NUR|6NUR_protein|mol2

> <Gold.PLP.Fitness>
41.8144

> <Gold.PLP.PLP>
-39.5273

> <Gold.PLP.part.hbond>
-1.0000

> <Gold.PLP.part.metal>
0.0000

> <Gold.PLP.part.buried>
-7.3426

> <Gold.PLP.part.nonpolar>
-32.3161

> <Gold.PLP.part.repulsive>
0.8966

> <Gold.PLP.ligand.clash>
0.0000

> <Gold.PLP.ligand.torsion>
0.3678

> <Gold.PLP.Chemscore.Hbond>
0.9913

> <Gold.PLP.Chemscore.CHOScore>
0.0000

> <Gold.PLP.Chemscore.Metal>
0.0000

> <Gold.Chemscore.Hbonds>
donor molecule, donor type, donor heavy atom, donor atom, acceptor molecule, acceptor atom, score
      P1  H  6896  6907       L1     1  0.42

> <Gold.PLP.Chemscore.Internal.Correction>
0.0491

> <Gold.Rescore>
     Score         DG    S(hbond)    S(metal)    S(lipo)     H(rot)  DE(clash)    DE(int)     intcor
     13.45     -13.91       0.98        0.00      97.02       2.42       0.08       0.38       ----

> <Gold.Chemscore.Fitness>
13.4498

> <Gold.Chemscore.DG>
-13.9069

> <Gold.Chemscore.ZeroCoef>
-5.4800

> <Gold.Chemscore.Hbond>
0.9797

> <Gold.Chemscore.Metal>
0.0000

> <Gold.Chemscore.Lipo>
97.0185

> <Gold.Chemscore.Internal_Hbond>
0.0000

> <Gold.Chemscore.DEClash>
0.0797

> <Gold.Chemscore.DEInternal>
0.3774

> <Gold.Chemscore.Rot>
2.4205

> <Gold.Chemscore.Internal.Correction>
   9.000000E+99

> <Gold.Chemscore.Hbonds>
donor molecule, donor type, donor heavy atom, donor atom, acceptor molecule, acceptor atom, score
      P1  H  6896  6907       L1     1  0.42

> <Gold.Chemscore.Hbond.Weighted>
-3.2723

> <Gold.Chemscore.Metal.Weighted>
-0.0000

> <Gold.Chemscore.Lipo.Weighted>
-11.3512

> <Gold.Chemscore.Internal_Hbond.Weighted>
0.0000

> <Gold.Chemscore.DEClash.Weighted>
0.0797

> <Gold.Chemscore.DEInternal.Weighted>
0.3774

> <Gold.Chemscore.Rot.Weighted>
6.1965

> <Gold.Chemscore.Internal.Correction.Weighted>
   9.000000E+99

> <Gold.Protein.RotatedTorsions>
[ 6907 6896 6895 6894 ] final -141.00 input  -60.11 | X-H torsion
[ 7974 7965 7964 7962 ] final   94.61 input  175.53 | X-H torsion
[ 8008 7997 7996 7995 ] final   27.69 input   59.86 | X-H torsion
[ 10167 10162 10161 10158 ] final   99.00 input  -65.29 | X-H torsion
[ 10718 10713 10712 10709 ] final  -97.25 input   66.30 | X-H torsion
[ 10763 10752 10751 10750 ] final  -75.88 input  -60.55 | X-H torsion
[ 11005 11000 10999 10996 ] final  -47.56 input  -57.11 | X-H torsion

> <Gold.Protein.ActiveResidues>
 VAL166  LYS551  ARG553  GLY616  TRP617  ASP618  TYR619  PRO620  LYS621  CYS622 
 ASP623  PHE694  ASN695  SER759  ASP760  ASP761  ALA762  ILE779  LEU786  VAL792 
 PHE793  MET794  SER795  GLU796  ALA797  LYS798  CYS799  TRP800  GLU811  SER814 

> <Gold.Protein.RotatedAtoms>
  151.0681  133.5488  159.2628 H   0  0  0  0  0  0  0  0  0  0  0  0  # atno 6907 bound_to 6896
  151.2438  135.0597  159.9045 H   0  0  0  0  0  0  0  0  0  0  0  0  # atno 6908 bound_to 6896
  152.5407  134.0452  159.8139 H   0  0  0  0  0  0  0  0  0  0  0  0  # atno 6909 bound_to 6896
  145.4632  139.2286  143.2976 H   0  0  0  0  0  0  0  0  0  0  0  0  # atno 7974 bound_to 7965
  155.0469  140.3175  155.4705 H   0  0  0  0  0  0  0  0  0  0  0  0  # atno 8008 bound_to 7997
  156.2843  140.2153  156.5538 H   0  0  0  0  0  0  0  0  0  0  0  0  # atno 8009 bound_to 7997
  154.7243  140.0487  157.0656 H   0  0  0  0  0  0  0  0  0  0  0  0  # atno 8010 bound_to 7997
  139.7657  144.6939  151.0228 H   0  0  0  0  0  0  0  0  0  0  0  0  # atno 10167 bound_to 10162
  156.0079  130.5186  150.6346 H   0  0  0  0  0  0  0  0  0  0  0  0  # atno 10718 bound_to 10713
  154.4924  135.5816  153.6469 H   0  0  0  0  0  0  0  0  0  0  0  0  # atno 10763 bound_to 10752
  152.9864  135.6116  154.3107 H   0  0  0  0  0  0  0  0  0  0  0  0  # atno 10764 bound_to 10752
  154.3008  135.2847  155.2591 H   0  0  0  0  0  0  0  0  0  0  0  0  # atno 10765 bound_to 10752
  141.0648  133.6697  156.3315 H   0  0  0  0  0  0  0  0  0  0  0  0  # atno 11005 bound_to 11000
  146.2439  140.5403  142.8922 LP  0  0  0  0  0  0  0  0  0  0  0  0  # atno 17320 bound_to 7965
  144.7990  140.6177  143.6491 LP  0  0  0  0  0  0  0  0  0  0  0  0  # atno 17321 bound_to 7965
  140.7810  143.4646  151.0230 LP  0  0  0  0  0  0  0  0  0  0  0  0  # atno 17342 bound_to 10162
  139.8331  143.7664  152.3180 LP  0  0  0  0  0  0  0  0  0  0  0  0  # atno 17343 bound_to 10162
  157.4138  131.0827  151.1196 LP  0  0  0  0  0  0  0  0  0  0  0  0  # atno 17370 bound_to 10713
  157.1819  130.6313  149.5675 LP  0  0  0  0  0  0  0  0  0  0  0  0  # atno 17371 bound_to 10713
  140.5796  134.5759  157.5476 LP  0  0  0  0  0  0  0  0  0  0  0  0  # atno 17394 bound_to 11000
  139.9466  134.7691  156.0548 LP  0  0  0  0  0  0  0  0  0  0  0  0  # atno 17395 bound_to 11000

$$$$
