AV-unprocessed.smi:1176|AV-procd|sdf|4953|dock4
  -GOLD-   22720 3543D 1   1.00000     0.00000
 Structure written by MMmdl.
 50 51  0  0  0  0  0  0  0  0  2 V2000
  152.0518  144.8470  160.3003 C   0  0  0  0  0  0  0  0  0  0  0  0
  151.7633  143.6152  159.4289 C   0  0  0  0  0  0  0  0  0  0  0  0
  152.9621  142.6520  159.4474 C   0  0  0  0  0  0  0  0  0  0  0  0
  151.3907  144.0421  157.9925 C   0  0  0  0  0  0  0  0  0  0  0  0
  150.3937  143.1407  157.3585 N   0  3  2  0  0  0  0  0  0  0  0  0
  149.4794  142.5220  158.3531 C   0  0  0  0  0  0  0  0  0  0  0  0
  148.3703  141.7030  157.6644 C   0  0  0  0  0  0  0  0  0  0  0  0
  148.9459  140.6346  156.7192 C   0  0  2  0  0  0  0  0  0  0  0  0
  149.5818  139.5703  157.4938 N   0  0  0  0  0  0  0  0  0  0  0  0
  148.9443  138.5760  158.1299 C   0  0  0  0  0  0  0  0  0  0  0  0
  147.7193  138.4665  158.1627 O   0  0  0  0  0  0  0  0  0  0  0  0
  149.8314  137.5486  158.8382 C   0  0  0  0  0  0  0  0  0  0  0  0
  149.0595  136.3637  159.2297 N   0  0  0  0  0  0  0  0  0  0  0  0
  148.9357  135.3143  158.3371 C   0  0  0  0  0  0  0  0  0  0  0  0
  148.2218  134.1969  158.5931 C   0  0  0  0  0  0  0  0  0  0  0  0
  147.5257  134.0307  159.8623 C   0  0  0  0  0  0  0  0  0  0  0  0
  146.8445  133.0415  160.1348 O   0  0  0  0  0  0  0  0  0  0  0  0
  147.6814  135.1083  160.7643 N   0  0  0  0  0  0  0  0  0  0  0  0
  147.0009  134.9985  162.0384 C   0  0  0  0  0  0  0  0  0  0  0  0
  148.4178  136.2833  160.4855 C   0  0  0  0  0  0  0  0  0  0  0  0
  148.5010  137.2145  161.2891 O   0  0  0  0  0  0  0  0  0  0  0  0
  149.9281  141.3051  155.7359 C   0  0  0  0  0  0  0  0  0  0  0  0
  151.0076  142.1190  156.4695 C   0  0  0  0  0  0  0  0  0  0  0  0
  152.8987  145.4168  159.9163 H   0  0  0  0  0  0  0  0  0  0  0  0
  152.2839  144.5582  161.3258 H   0  0  0  0  0  0  0  0  0  0  0  0
  151.1904  145.5146  160.3360 H   0  0  0  0  0  0  0  0  0  0  0  0
  150.9157  143.1024  159.8827 H   0  0  0  0  0  0  0  0  0  0  0  0
  153.8456  143.1093  159.0007 H   0  0  0  0  0  0  0  0  0  0  0  0
  152.7472  141.7347  158.8986 H   0  0  0  0  0  0  0  0  0  0  0  0
  153.2181  142.3650  160.4678 H   0  0  0  0  0  0  0  0  0  0  0  0
  151.0086  145.0643  157.9803 H   0  0  0  0  0  0  0  0  0  0  0  0
  152.3043  144.0552  157.3962 H   0  0  0  0  0  0  0  0  0  0  0  0
  150.0538  141.8911  159.0331 H   0  0  0  0  0  0  0  0  0  0  0  0
  149.0173  143.3008  158.9611 H   0  0  0  0  0  0  0  0  0  0  0  0
  147.7270  141.2389  158.4133 H   0  0  0  0  0  0  0  0  0  0  0  0
  147.7311  142.3786  157.0945 H   0  0  0  0  0  0  0  0  0  0  0  0
  148.1232  140.1912  156.1553 H   0  0  0  0  0  0  0  0  0  0  0  0
  150.5902  139.5838  157.5431 H   0  0  0  0  0  0  0  0  0  0  0  0
  150.6571  137.2589  158.1859 H   0  0  0  0  0  0  0  0  0  0  0  0
  150.2984  138.0149  159.7072 H   0  0  0  0  0  0  0  0  0  0  0  0
  149.4308  135.3927  157.3801 H   0  0  0  0  0  0  0  0  0  0  0  0
  148.1621  133.4170  157.8482 H   0  0  0  0  0  0  0  0  0  0  0  0
  147.4169  135.7004  162.7609 H   0  0  0  0  0  0  0  0  0  0  0  0
  147.1498  133.9869  162.4205 H   0  0  0  0  0  0  0  0  0  0  0  0
  145.9457  135.2046  161.8537 H   0  0  0  0  0  0  0  0  0  0  0  0
  150.3971  140.5657  155.0863 H   0  0  0  0  0  0  0  0  0  0  0  0
  149.3716  141.9699  155.0739 H   0  0  0  0  0  0  0  0  0  0  0  0
  151.6489  142.5952  155.7292 H   0  0  0  0  0  0  0  0  0  0  0  0
  151.6469  141.4568  157.0560 H   0  0  0  0  0  0  0  0  0  0  0  0
  149.8137  143.7276  156.7758 H   0  0  0  0  0  0  0  0  0  0  0  0
  1  2  1  0  0  0  0
  1 24  1  0  0  0  0
  1 25  1  0  0  0  0
  1 26  1  0  0  0  0
  2  3  1  0  0  0  0
  2  4  1  0  0  0  0
  2 27  1  0  0  0  0
  3 28  1  0  0  0  0
  3 29  1  0  0  0  0
  3 30  1  0  0  0  0
  4  5  1  0  0  0  0
  4 31  1  0  0  0  0
  4 32  1  0  0  0  0
  5 23  1  0  0  0  0
  5  6  1  0  0  0  0
  5 50  1  0  0  0  0
  6  7  1  0  0  0  0
  6 33  1  0  0  0  0
  6 34  1  0  0  0  0
  7  8  1  0  0  0  0
  7 35  1  0  0  0  0
  7 36  1  0  0  0  0
  8  9  1  0  0  0  0
  8 22  1  0  0  0  0
  8 37  1  0  0  0  0
  9 10  1  0  0  0  0
  9 38  1  0  0  0  0
 10 11  2  0  0  0  0
 10 12  1  0  0  0  0
 12 13  1  0  0  0  0
 12 39  1  0  0  0  0
 12 40  1  0  0  0  0
 13 20  1  0  0  0  0
 13 14  1  0  0  0  0
 14 15  2  0  0  0  0
 14 41  1  0  0  0  0
 15 16  1  0  0  0  0
 15 42  1  0  0  0  0
 16 17  2  0  0  0  0
 16 18  1  0  0  0  0
 18 19  1  0  0  0  0
 18 20  1  0  0  0  0
 19 43  1  0  0  0  0
 19 44  1  0  0  0  0
 19 45  1  0  0  0  0
 20 21  2  0  0  0  0
 22 23  1  0  0  0  0
 22 46  1  0  0  0  0
 22 47  1  0  0  0  0
 23 48  1  0  0  0  0
 23 49  1  0  0  0  0
M  CHG  1   5   1
M  END
> <s_m_source_file>
AV-unprocessed.smi

> <i_m_source_file_index>
1176

> <i_lp_mmshare_version>
43012

> <i_f3d_flags>
0

> <s_epik_input>
W0NIM11bQ0hdKFtDSDNdKVtDSDJdTjFbQ0gyXVtDSDJdW0NIXShbQ0gyXVtDSDJdMSlbTkhdQyg9TylbQ0gyXW4yW2NIXVtjSF1jKD1PKW4oW0NIM10pYzI9Tw==

> <s_epik_cmdline>
J2VwaWtfcHl0aG9uJywgJy1waCcsICc3LjAnLCAnLXRuJywgJzgnLCAnLW1hJywgJzIwMCcsICctbWV0YWxfYmluZGluZycsICctaW1hZScsICc8aW5maWxlLm1hZT4nLCAnLW9tYWUnLCAnPG91dGZpbGUubWFlPic=

> <r_lp_tautomer_probability>
1

> <r_epik_Ionization_Penalty>
0.00401429

> <r_epik_Ionization_Penalty_Charging>
0.00401425

> <r_epik_Ionization_Penalty_Neutral>
4.29561e-08

> <r_epik_State_Penalty>
0.00287487

> <r_epik_Charging_Adjusted_Penalty>
0.00688912

> <i_epik_Tot_Q>
1

> <i_epik_Tot_abs_Q>
1

> <r_epik_Metal_State_Penalty>
-0

> <b_epik_Metal_Only>
0

> <s_lp_Force_Field>
OPLS_2005

> <r_lp_Energy>
29.2662

> <b_lp_Chiralities_Consistent>
1

> <s_lp_Variant>
AV-unprocessed.smi:1176-2

> <Gold.Version>
5.8.1

> <Gold.Id.Protein>
6NUR|6NUR_protein|mol2

> <Gold.PLP.Fitness>
46.6427

> <Gold.PLP.PLP>
-39.4043

> <Gold.PLP.part.hbond>
-2.7897

> <Gold.PLP.part.metal>
0.0000

> <Gold.PLP.part.buried>
-5.4766

> <Gold.PLP.part.nonpolar>
-31.1115

> <Gold.PLP.part.repulsive>
0.0818

> <Gold.PLP.ligand.clash>
0.0000

> <Gold.PLP.ligand.torsion>
1.6447

> <Gold.PLP.Chemscore.Hbond>
3.4841

> <Gold.PLP.Chemscore.CHOScore>
0.0000

> <Gold.PLP.Chemscore.Metal>
0.0000

> <Gold.Chemscore.Hbonds>
donor molecule, donor type, donor heavy atom, donor atom, acceptor molecule, acceptor atom, score
      L1  H     5    50       P1  8028  2.00
      P1  H  6931  6943       L1    21  0.46
      P1  H  6934  6947       L1    21  0.20

> <Gold.PLP.Chemscore.Internal.Correction>
0.0754

> <Gold.Rescore>
     Score         DG    S(hbond)    S(metal)    S(lipo)     H(rot)  DE(clash)    DE(int)     intcor
     17.91     -19.30       2.69        0.00      83.38       1.92       0.01       1.38       ----

> <Gold.Chemscore.Fitness>
17.9076

> <Gold.Chemscore.DG>
-19.2988

> <Gold.Chemscore.ZeroCoef>
-5.4800

> <Gold.Chemscore.Hbond>
2.6881

> <Gold.Chemscore.Metal>
0.0000

> <Gold.Chemscore.Lipo>
83.3791

> <Gold.Chemscore.Internal_Hbond>
0.0000

> <Gold.Chemscore.DEClash>
0.0082

> <Gold.Chemscore.DEInternal>
1.3830

> <Gold.Chemscore.Rot>
1.9198

> <Gold.Chemscore.Internal.Correction>
   9.000000E+99

> <Gold.Chemscore.Hbonds>
donor molecule, donor type, donor heavy atom, donor atom, acceptor molecule, acceptor atom, score
      L1  H     5    50       P1  8028  0.99
      P1  H  6931  6943       L1    21  0.45
      P1  H  6934  6947       L1    21  0.21

> <Gold.Chemscore.Hbond.Weighted>
-8.9781

> <Gold.Chemscore.Metal.Weighted>
-0.0000

> <Gold.Chemscore.Lipo.Weighted>
-9.7554

> <Gold.Chemscore.Internal_Hbond.Weighted>
0.0000

> <Gold.Chemscore.DEClash.Weighted>
0.0082

> <Gold.Chemscore.DEInternal.Weighted>
1.3830

> <Gold.Chemscore.Rot.Weighted>
4.9147

> <Gold.Chemscore.Internal.Correction.Weighted>
   9.000000E+99

> <Gold.Protein.RotatedTorsions>
[ 6907 6896 6895 6894 ] final -171.55 input  -60.11 | X-H torsion
[ 7974 7965 7964 7962 ] final  -71.57 input  175.53 | X-H torsion
[ 8008 7997 7996 7995 ] final  129.99 input   59.86 | X-H torsion
[ 10167 10162 10161 10158 ] final   83.84 input  -65.29 | X-H torsion
[ 10718 10713 10712 10709 ] final  -47.77 input   66.30 | X-H torsion
[ 10763 10752 10751 10750 ] final -104.14 input  -60.55 | X-H torsion
[ 11005 11000 10999 10996 ] final  160.36 input  -57.11 | X-H torsion

> <Gold.Protein.ActiveResidues>
 VAL166  LYS551  ARG553  GLY616  TRP617  ASP618  TYR619  PRO620  LYS621  CYS622 
 ASP623  PHE694  ASN695  SER759  ASP760  ASP761  ALA762  ILE779  LEU786  VAL792 
 PHE793  MET794  SER795  GLU796  ALA797  LYS798  CYS799  TRP800  GLU811  SER814 

> <Gold.Protein.RotatedAtoms>
  151.5256  133.3458  159.2908 H   0  0  0  0  0  0  0  0  0  0  0  0  # atno 6907 bound_to 6896
  150.8625  134.7983  159.7105 H   0  0  0  0  0  0  0  0  0  0  0  0  # atno 6908 bound_to 6896
  152.4640  134.5127  159.9810 H   0  0  0  0  0  0  0  0  0  0  0  0  # atno 6909 bound_to 6896
  145.6763  140.9203  143.0856 H   0  0  0  0  0  0  0  0  0  0  0  0  # atno 7974 bound_to 7965
  156.2946  140.2607  156.2688 H   0  0  0  0  0  0  0  0  0  0  0  0  # atno 8008 bound_to 7997
  154.9715  140.0391  157.2255 H   0  0  0  0  0  0  0  0  0  0  0  0  # atno 8009 bound_to 7997
  154.7854  140.2802  155.6036 H   0  0  0  0  0  0  0  0  0  0  0  0  # atno 8010 bound_to 7997
  139.9142  144.6253  150.8506 H   0  0  0  0  0  0  0  0  0  0  0  0  # atno 10167 bound_to 10162
  156.2052  130.4158  149.9188 H   0  0  0  0  0  0  0  0  0  0  0  0  # atno 10718 bound_to 10713
  154.7857  135.4797  153.9941 H   0  0  0  0  0  0  0  0  0  0  0  0  # atno 10763 bound_to 10752
  153.1557  135.6799  153.8823 H   0  0  0  0  0  0  0  0  0  0  0  0  # atno 10764 bound_to 10752
  153.8454  135.3174  155.3407 H   0  0  0  0  0  0  0  0  0  0  0  0  # atno 10765 bound_to 10752
  140.2052  134.8308  157.3061 H   0  0  0  0  0  0  0  0  0  0  0  0  # atno 11005 bound_to 11000
  144.7040  139.8638  143.7435 LP  0  0  0  0  0  0  0  0  0  0  0  0  # atno 17320 bound_to 7965
  146.1002  139.3997  143.0351 LP  0  0  0  0  0  0  0  0  0  0  0  0  # atno 17321 bound_to 7965
  140.7678  143.3343  151.2342 LP  0  0  0  0  0  0  0  0  0  0  0  0  # atno 17342 bound_to 10162
  139.6916  143.9682  152.2862 LP  0  0  0  0  0  0  0  0  0  0  0  0  # atno 17343 bound_to 10162
  156.6884  130.8886  151.3585 LP  0  0  0  0  0  0  0  0  0  0  0  0  # atno 17370 bound_to 10713
  157.7008  130.9331  150.0780 LP  0  0  0  0  0  0  0  0  0  0  0  0  # atno 17371 bound_to 10713
  140.2011  134.4254  155.7662 LP  0  0  0  0  0  0  0  0  0  0  0  0  # atno 17394 bound_to 11000
  141.2227  133.7072  156.8184 LP  0  0  0  0  0  0  0  0  0  0  0  0  # atno 17395 bound_to 11000

$$$$
