AV-unprocessed.smi:1737|AV-procd|sdf|6996|dock6
  -GOLD-   22720 8213D 1   1.00000     0.00000
 Structure written by MMmdl.
 43 44  0  0  0  0  0  0  0  0  2 V2000
  145.0928  135.6369  150.9524 C   0  0  0  0  0  0  0  0  0  0  0  0
  145.2728  134.1294  150.8730 C   0  0  0  0  0  0  0  0  0  0  0  0
  144.4421  133.3796  150.0131 C   0  0  0  0  0  0  0  0  0  0  0  0
  144.6095  131.9861  149.9414 C   0  0  0  0  0  0  0  0  0  0  0  0
  145.6066  131.3972  150.7378 C   0  0  0  0  0  0  0  0  0  0  0  0
  146.4048  132.1063  151.5618 N   0  0  0  0  0  0  0  0  0  0  0  0
  146.2556  133.4522  151.6439 C   0  0  0  0  0  0  0  0  0  0  0  0
  147.0648  134.2632  152.4889 N   0  0  0  0  0  0  0  0  0  0  0  0
  147.2555  134.1576  153.8158 C   0  0  0  0  0  0  0  0  0  0  0  0
  146.7129  133.3339  154.5521 O   0  0  0  0  0  0  0  0  0  0  0  0
  148.1286  135.0760  154.2538 N   0  0  0  0  0  0  0  0  0  0  0  0
  148.5599  135.2425  155.6414 C   0  0  0  0  0  0  0  0  0  0  0  0
  150.0516  135.6493  155.7819 C   0  0  1  0  0  0  0  0  0  0  0  0
  150.9615  134.4654  155.3872 C   0  0  0  0  0  0  0  0  0  0  0  0
  150.3777  136.9054  155.0310 N   0  3  0  0  0  0  0  0  0  0  0  0
  149.3690  137.9816  155.2307 C   0  0  0  0  0  0  0  0  0  0  0  0
  149.7159  139.2284  154.4011 C   0  0  0  0  0  0  0  0  0  0  0  0
  151.0110  139.6895  154.7552 O   0  0  0  0  0  0  0  0  0  0  0  0
  152.0043  138.7160  154.4706 C   0  0  0  0  0  0  0  0  0  0  0  0
  151.7409  137.4433  155.2935 C   0  0  0  0  0  0  0  0  0  0  0  0
  144.2909  135.9768  150.2960 H   0  0  0  0  0  0  0  0  0  0  0  0
  146.0090  136.1475  150.6539 H   0  0  0  0  0  0  0  0  0  0  0  0
  144.8422  135.9380  151.9700 H   0  0  0  0  0  0  0  0  0  0  0  0
  143.6849  133.8634  149.4138 H   0  0  0  0  0  0  0  0  0  0  0  0
  143.9901  131.3840  149.2931 H   0  0  0  0  0  0  0  0  0  0  0  0
  145.7686  130.3298  150.7131 H   0  0  0  0  0  0  0  0  0  0  0  0
  147.5636  135.0056  152.0219 H   0  0  0  0  0  0  0  0  0  0  0  0
  148.5114  135.7223  153.5795 H   0  0  0  0  0  0  0  0  0  0  0  0
  147.9246  136.0073  156.0873 H   0  0  0  0  0  0  0  0  0  0  0  0
  148.3500  134.3403  156.2187 H   0  0  0  0  0  0  0  0  0  0  0  0
  150.2364  135.8412  156.8402 H   0  0  0  0  0  0  0  0  0  0  0  0
  150.6180  133.5359  155.8420 H   0  0  0  0  0  0  0  0  0  0  0  0
  151.9868  134.6084  155.7278 H   0  0  0  0  0  0  0  0  0  0  0  0
  150.9823  134.3148  154.3076 H   0  0  0  0  0  0  0  0  0  0  0  0
  148.3756  137.6456  154.9373 H   0  0  0  0  0  0  0  0  0  0  0  0
  149.3181  138.2424  156.2890 H   0  0  0  0  0  0  0  0  0  0  0  0
  149.6685  139.0121  153.3325 H   0  0  0  0  0  0  0  0  0  0  0  0
  148.9944  140.0218  154.5972 H   0  0  0  0  0  0  0  0  0  0  0  0
  152.0186  138.4931  153.4023 H   0  0  0  0  0  0  0  0  0  0  0  0
  152.9820  139.1280  154.7212 H   0  0  0  0  0  0  0  0  0  0  0  0
  151.8518  137.6547  156.3581 H   0  0  0  0  0  0  0  0  0  0  0  0
  152.5065  136.7166  155.0250 H   0  0  0  0  0  0  0  0  0  0  0  0
  150.3553  136.6629  154.0506 H   0  0  0  0  0  0  0  0  0  0  0  0
  1  2  1  0  0  0  0
  1 21  1  0  0  0  0
  1 22  1  0  0  0  0
  1 23  1  0  0  0  0
  2  7  1  0  0  0  0
  2  3  2  0  0  0  0
  3  4  1  0  0  0  0
  3 24  1  0  0  0  0
  4  5  2  0  0  0  0
  4 25  1  0  0  0  0
  5  6  1  0  0  0  0
  5 26  1  0  0  0  0
  6  7  2  0  0  0  0
  7  8  1  0  0  0  0
  8  9  1  0  0  0  0
  8 27  1  0  0  0  0
  9 10  2  0  0  0  0
  9 11  1  0  0  0  0
 11 12  1  0  0  0  0
 11 28  1  0  0  0  0
 12 13  1  0  0  0  0
 12 29  1  0  0  0  0
 12 30  1  0  0  0  0
 13 14  1  0  0  0  0
 13 15  1  0  0  0  0
 13 31  1  0  0  0  0
 14 32  1  0  0  0  0
 14 33  1  0  0  0  0
 14 34  1  0  0  0  0
 15 20  1  0  0  0  0
 15 16  1  0  0  0  0
 15 43  1  0  0  0  0
 16 17  1  0  0  0  0
 16 35  1  0  0  0  0
 16 36  1  0  0  0  0
 17 18  1  0  0  0  0
 17 37  1  0  0  0  0
 17 38  1  0  0  0  0
 18 19  1  0  0  0  0
 19 20  1  0  0  0  0
 19 39  1  0  0  0  0
 19 40  1  0  0  0  0
 20 41  1  0  0  0  0
 20 42  1  0  0  0  0
M  CHG  1  15   1
M  END
> <s_m_source_file>
AV-unprocessed.smi

> <i_m_source_file_index>
1737

> <i_lp_mmshare_version>
43012

> <i_f3d_flags>
0

> <s_epik_input>
W0NIM11jMVtjSF1bY0hdW2NIXW5jMVtOSF1DKD1PKVtOSF1bQ0gyXVtDQEhdKFtDSDNdKU4yW0NIMl1bQ0gyXU9bQ0gyXVtDSDJdMg==

> <s_epik_cmdline>
J2VwaWtfcHl0aG9uJywgJy1waCcsICc3LjAnLCAnLXRuJywgJzgnLCAnLW1hJywgJzIwMCcsICctbWV0YWxfYmluZGluZycsICctaW1hZScsICc8aW5maWxlLm1hZT4nLCAnLW9tYWUnLCAnPG91dGZpbGUubWFlPic=

> <r_epik_Ionization_Penalty>
0.602573

> <r_epik_Ionization_Penalty_Charging>
0.602531

> <r_epik_Ionization_Penalty_Neutral>
4.25912e-05

> <r_epik_State_Penalty>
0.617039

> <r_epik_Charging_Adjusted_Penalty>
1.21957

> <i_epik_Tot_Q>
1

> <i_epik_Tot_abs_Q>
1

> <r_epik_Metal_State_Penalty>
0.617042

> <b_epik_Metal_Only>
0

> <s_lp_Force_Field>
OPLS_2005

> <r_lp_Energy>
29.9094

> <b_lp_Chiralities_Consistent>
1

> <s_lp_Variant>
AV-unprocessed.smi:1737-4

> <Gold.Version>
5.8.1

> <Gold.Id.Protein>
6NUR|6NUR_protein|mol2

> <Gold.PLP.Fitness>
40.7954

> <Gold.PLP.PLP>
-33.3696

> <Gold.PLP.part.hbond>
-3.0000

> <Gold.PLP.part.metal>
0.0000

> <Gold.PLP.part.buried>
-5.5726

> <Gold.PLP.part.nonpolar>
-25.3269

> <Gold.PLP.part.repulsive>
0.2985

> <Gold.PLP.ligand.clash>
0.0000

> <Gold.PLP.ligand.torsion>
0.8117

> <Gold.PLP.Chemscore.Hbond>
3.0000

> <Gold.PLP.Chemscore.CHOScore>
0.0000

> <Gold.PLP.Chemscore.Metal>
0.0000

> <Gold.Chemscore.Hbonds>
donor molecule, donor type, donor heavy atom, donor atom, acceptor molecule, acceptor atom, score
      L1  H     8    27       P1  7948  1.00
      L1  H    11    28       P1  7948  1.00
      P1  H  7989  7998       L1    18  0.65

> <Gold.PLP.Chemscore.Internal.Correction>
0.0493

> <Gold.Rescore>
     Score         DG    S(hbond)    S(metal)    S(lipo)     H(rot)  DE(clash)    DE(int)     intcor
     17.96     -19.31       2.41        0.00      82.44       1.51       0.31       1.04       ----

> <Gold.Chemscore.Fitness>
17.9569

> <Gold.Chemscore.DG>
-19.3095

> <Gold.Chemscore.ZeroCoef>
-5.4800

> <Gold.Chemscore.Hbond>
2.4122

> <Gold.Chemscore.Metal>
0.0000

> <Gold.Chemscore.Lipo>
82.4403

> <Gold.Chemscore.Internal_Hbond>
0.0000

> <Gold.Chemscore.DEClash>
0.3132

> <Gold.Chemscore.DEInternal>
1.0395

> <Gold.Chemscore.Rot>
1.5128

> <Gold.Chemscore.Internal.Correction>
   9.000000E+99

> <Gold.Chemscore.Hbonds>
donor molecule, donor type, donor heavy atom, donor atom, acceptor molecule, acceptor atom, score
      L1  H     8    27       P1  7948  0.86
      L1  H    11    28       P1  7948  0.96
      P1  H  7989  7998       L1    18  0.04

> <Gold.Chemscore.Hbond.Weighted>
-8.0567

> <Gold.Chemscore.Metal.Weighted>
-0.0000

> <Gold.Chemscore.Lipo.Weighted>
-9.6455

> <Gold.Chemscore.Internal_Hbond.Weighted>
0.0000

> <Gold.Chemscore.DEClash.Weighted>
0.3132

> <Gold.Chemscore.DEInternal.Weighted>
1.0395

> <Gold.Chemscore.Rot.Weighted>
3.8726

> <Gold.Chemscore.Internal.Correction.Weighted>
   9.000000E+99

> <Gold.Protein.RotatedTorsions>
[ 6907 6896 6895 6894 ] final -123.33 input  -60.11 | X-H torsion
[ 7974 7965 7964 7962 ] final -130.71 input  175.53 | X-H torsion
[ 8008 7997 7996 7995 ] final   -0.88 input   59.86 | X-H torsion
[ 10167 10162 10161 10158 ] final -108.57 input  -65.29 | X-H torsion
[ 10718 10713 10712 10709 ] final  -76.13 input   66.30 | X-H torsion
[ 10763 10752 10751 10750 ] final  157.97 input  -60.55 | X-H torsion
[ 11005 11000 10999 10996 ] final  151.92 input  -57.11 | X-H torsion

> <Gold.Protein.ActiveResidues>
 VAL166  LYS551  ARG553  GLY616  TRP617  ASP618  TYR619  PRO620  LYS621  CYS622 
 ASP623  PHE694  ASN695  SER759  ASP760  ASP761  ALA762  ILE779  LEU786  VAL792 
 PHE793  MET794  SER795  GLU796  ALA797  LYS798  CYS799  TRP800  GLU811  SER814 

> <Gold.Protein.RotatedAtoms>
  150.8660  133.7574  159.2976 H   0  0  0  0  0  0  0  0  0  0  0  0  # atno 6907 bound_to 6896
  151.5201  135.1065  159.9886 H   0  0  0  0  0  0  0  0  0  0  0  0  # atno 6908 bound_to 6896
  152.4661  133.7882  159.6943 H   0  0  0  0  0  0  0  0  0  0  0  0  # atno 6909 bound_to 6896
  144.9449  140.7280  143.4824 H   0  0  0  0  0  0  0  0  0  0  0  0  # atno 7974 bound_to 7965
  154.6531  140.2573  155.7191 H   0  0  0  0  0  0  0  0  0  0  0  0  # atno 8008 bound_to 7997
  156.2584  140.2864  156.0894 H   0  0  0  0  0  0  0  0  0  0  0  0  # atno 8009 bound_to 7997
  155.1421  140.0380  157.2791 H   0  0  0  0  0  0  0  0  0  0  0  0  # atno 8010 bound_to 7997
  140.1648  143.4091  152.1399 H   0  0  0  0  0  0  0  0  0  0  0  0  # atno 10167 bound_to 10162
  156.0185  130.4458  150.3147 H   0  0  0  0  0  0  0  0  0  0  0  0  # atno 10718 bound_to 10713
  154.2086  135.2787  155.2966 H   0  0  0  0  0  0  0  0  0  0  0  0  # atno 10763 bound_to 10752
  154.5796  135.5593  153.7176 H   0  0  0  0  0  0  0  0  0  0  0  0  # atno 10764 bound_to 10752
  153.0070  135.6341  154.2225 H   0  0  0  0  0  0  0  0  0  0  0  0  # atno 10765 bound_to 10752
  140.1261  134.8832  157.2140 H   0  0  0  0  0  0  0  0  0  0  0  0  # atno 11005 bound_to 11000
  145.2934  139.1875  143.4728 LP  0  0  0  0  0  0  0  0  0  0  0  0  # atno 17320 bound_to 7965
  146.3299  140.2914  142.8615 LP  0  0  0  0  0  0  0  0  0  0  0  0  # atno 17321 bound_to 7965
  139.5365  144.7214  151.4877 LP  0  0  0  0  0  0  0  0  0  0  0  0  # atno 17342 bound_to 10162
  140.6620  143.8478  150.6899 LP  0  0  0  0  0  0  0  0  0  0  0  0  # atno 17343 bound_to 10162
  157.1248  131.0256  151.2994 LP  0  0  0  0  0  0  0  0  0  0  0  0  # atno 17370 bound_to 10713
  157.4598  130.7647  149.7226 LP  0  0  0  0  0  0  0  0  0  0  0  0  # atno 17371 bound_to 10713
  140.2902  134.3249  155.7317 LP  0  0  0  0  0  0  0  0  0  0  0  0  # atno 17394 bound_to 11000
  141.2161  133.7530  156.9491 LP  0  0  0  0  0  0  0  0  0  0  0  0  # atno 17395 bound_to 11000

$$$$
