AV-unprocessed.smi:837|AV-procd|sdf|3899|dock9
  -GOLD-   22720 1353D 1   1.00000     0.00000
 Structure written by MMmdl.
 50 52  0  0  0  0  0  0  0  0  2 V2000
  151.8060  139.9444  159.2679 C   0  0  0  0  0  0  0  0  0  0  0  0
  151.6766  141.4815  159.1963 C   0  0  1  0  0  0  0  0  0  0  0  0
  153.0673  142.1391  159.3309 C   0  0  0  0  0  0  0  0  0  0  0  0
  152.9813  143.6735  159.3349 C   0  0  0  0  0  0  0  0  0  0  0  0
  152.2606  144.1980  158.0856 C   0  0  0  0  0  0  0  0  0  0  0  0
  150.8680  143.5624  157.9462 C   0  0  0  0  0  0  0  0  0  0  0  0
  150.9360  142.0164  157.9314 C   0  0  1  0  0  0  0  0  0  0  0  0
  151.5351  141.5357  156.6971 N   0  0  0  0  0  0  0  0  0  0  0  0
  150.6871  140.8172  155.9513 C   0  0  0  0  0  0  0  0  0  0  0  0
  150.9590  140.2982  154.8694 O   0  0  0  0  0  0  0  0  0  0  0  0
  149.5059  140.7558  156.5926 N   0  0  0  0  0  0  0  0  0  0  0  0
  148.3418  140.0061  156.1041 C   0  0  0  0  0  0  0  0  0  0  0  0
  147.5283  139.3672  157.2381 C   0  0  0  0  0  0  0  0  0  0  0  0
  146.4146  139.7993  157.5377 O   0  0  0  0  0  0  0  0  0  0  0  0
  148.1057  138.3315  157.8646 N   0  0  0  0  0  0  0  0  0  0  0  0
  147.5338  137.6067  158.9957 C   0  0  0  0  0  0  0  0  0  0  0  0
  148.5742  136.7614  159.7600 C   0  0  0  0  0  0  0  0  0  0  0  0
  147.9656  135.8591  160.8204 C   0  0  0  0  0  0  0  0  0  0  0  0
  147.7685  136.3291  162.1383 C   0  0  0  0  0  0  0  0  0  0  0  0
  147.2155  135.4649  163.1057 C   0  0  0  0  0  0  0  0  0  0  0  0
  146.8704  134.1497  162.7335 C   0  0  0  0  0  0  0  0  0  0  0  0
  147.0714  133.7357  161.4631 N   0  3  0  0  0  0  0  0  0  0  0  0
  147.5979  134.5328  160.5073 C   0  0  0  0  0  0  0  0  0  0  0  0
  149.5453  141.4182  157.7570 C   0  0  0  0  0  0  0  0  0  0  0  0
  148.6360  141.5339  158.5788 O   0  0  0  0  0  0  0  0  0  0  0  0
  152.3780  139.5475  158.4290 H   0  0  0  0  0  0  0  0  0  0  0  0
  150.8328  139.4537  159.2697 H   0  0  0  0  0  0  0  0  0  0  0  0
  152.3151  139.6407  160.1828 H   0  0  0  0  0  0  0  0  0  0  0  0
  151.0955  141.7873  160.0681 H   0  0  0  0  0  0  0  0  0  0  0  0
  153.5480  141.8055  160.2511 H   0  0  0  0  0  0  0  0  0  0  0  0
  153.7132  141.8133  158.5145 H   0  0  0  0  0  0  0  0  0  0  0  0
  152.4518  144.0063  160.2285 H   0  0  0  0  0  0  0  0  0  0  0  0
  153.9826  144.1013  159.3919 H   0  0  0  0  0  0  0  0  0  0  0  0
  152.1687  145.2831  158.1392 H   0  0  0  0  0  0  0  0  0  0  0  0
  152.8578  143.9839  157.1985 H   0  0  0  0  0  0  0  0  0  0  0  0
  150.2446  143.8947  158.7780 H   0  0  0  0  0  0  0  0  0  0  0  0
  150.3872  143.9350  157.0402 H   0  0  0  0  0  0  0  0  0  0  0  0
  152.4929  141.7312  156.4439 H   0  0  0  0  0  0  0  0  0  0  0  0
  147.6804  140.6546  155.5275 H   0  0  0  0  0  0  0  0  0  0  0  0
  148.6764  139.2313  155.4118 H   0  0  0  0  0  0  0  0  0  0  0  0
  149.0158  138.0331  157.5444 H   0  0  0  0  0  0  0  0  0  0  0  0
  147.0313  138.2986  159.6734 H   0  0  0  0  0  0  0  0  0  0  0  0
  146.7592  136.9511  158.5970 H   0  0  0  0  0  0  0  0  0  0  0  0
  149.1380  136.1482  159.0555 H   0  0  0  0  0  0  0  0  0  0  0  0
  149.3052  137.4180  160.2331 H   0  0  0  0  0  0  0  0  0  0  0  0
  148.0465  137.3374  162.4099 H   0  0  0  0  0  0  0  0  0  0  0  0
  147.0635  135.8067  164.1193 H   0  0  0  0  0  0  0  0  0  0  0  0
  146.4439  133.4220  163.4086 H   0  0  0  0  0  0  0  0  0  0  0  0
  147.7126  134.0867  159.5298 H   0  0  0  0  0  0  0  0  0  0  0  0
  146.8157  132.7795  161.2150 H   0  0  0  0  0  0  0  0  0  0  0  0
  1  2  1  0  0  0  0
  1 26  1  0  0  0  0
  1 27  1  0  0  0  0
  1 28  1  0  0  0  0
  2  7  1  0  0  0  0
  2  3  1  0  0  0  0
  2 29  1  0  0  0  0
  3  4  1  0  0  0  0
  3 30  1  0  0  0  0
  3 31  1  0  0  0  0
  4  5  1  0  0  0  0
  4 32  1  0  0  0  0
  4 33  1  0  0  0  0
  5  6  1  0  0  0  0
  5 34  1  0  0  0  0
  5 35  1  0  0  0  0
  6  7  1  0  0  0  0
  6 36  1  0  0  0  0
  6 37  1  0  0  0  0
  7 24  1  0  0  0  0
  7  8  1  0  0  0  0
  8  9  1  0  0  0  0
  8 38  1  0  0  0  0
  9 10  2  0  0  0  0
  9 11  1  0  0  0  0
 11 12  1  0  0  0  0
 11 24  1  0  0  0  0
 12 13  1  0  0  0  0
 12 39  1  0  0  0  0
 12 40  1  0  0  0  0
 13 14  2  0  0  0  0
 13 15  1  0  0  0  0
 15 16  1  0  0  0  0
 15 41  1  0  0  0  0
 16 17  1  0  0  0  0
 16 42  1  0  0  0  0
 16 43  1  0  0  0  0
 17 18  1  0  0  0  0
 17 44  1  0  0  0  0
 17 45  1  0  0  0  0
 18 23  1  0  0  0  0
 18 19  2  0  0  0  0
 19 20  1  0  0  0  0
 19 46  1  0  0  0  0
 20 21  2  0  0  0  0
 20 47  1  0  0  0  0
 21 22  1  0  0  0  0
 21 48  1  0  0  0  0
 22 23  2  0  0  0  0
 22 50  1  0  0  0  0
 23 49  1  0  0  0  0
 24 25  2  0  0  0  0
M  CHG  1  22   1
M  END
> <s_m_source_file>
AV-unprocessed.smi

> <i_m_source_file_index>
837

> <i_lp_mmshare_version>
43012

> <i_f3d_flags>
0

> <s_epik_input>
W0NIMl0xW0NIMl1bQ0gyXVtDSDJdW0NAQEhdKFtDSDNdKVtDQEBdMTJbTkhdQyg9TylOKEMyPU8pW0NIMl1DKD1PKVtOSF1bQ0gyXVtDSDJdYzNbY0hdW2NIXVtjSF1uW2NIXTM=

> <s_epik_cmdline>
J2VwaWtfcHl0aG9uJywgJy1waCcsICc3LjAnLCAnLXRuJywgJzgnLCAnLW1hJywgJzIwMCcsICctbWV0YWxfYmluZGluZycsICctaW1hZScsICc8aW5maWxlLm1hZT4nLCAnLW9tYWUnLCAnPG91dGZpbGUubWFlPic=

> <r_lp_tautomer_probability>
1

> <r_epik_Ionization_Penalty>
2.28139

> <r_epik_Ionization_Penalty_Charging>
2.28135

> <r_epik_Ionization_Penalty_Neutral>
4.65525e-05

> <r_epik_State_Penalty>
2.43066

> <r_epik_Charging_Adjusted_Penalty>
4.71201

> <i_epik_Tot_Q>
1

> <i_epik_Tot_abs_Q>
1

> <r_epik_Metal_State_Penalty>
2.4646

> <b_epik_Metal_Only>
0

> <s_lp_Force_Field>
OPLS_2005

> <r_lp_Energy>
30.2127

> <b_lp_Chiralities_Consistent>
1

> <s_lp_Variant>
AV-unprocessed.smi:837-8

> <Gold.Version>
5.8.1

> <Gold.Id.Protein>
6NUR|6NUR_protein|mol2

> <Gold.PLP.Fitness>
45.5591

> <Gold.PLP.PLP>
-44.4480

> <Gold.PLP.part.hbond>
-2.2622

> <Gold.PLP.part.metal>
0.0000

> <Gold.PLP.part.buried>
-3.2252

> <Gold.PLP.part.nonpolar>
-40.2040

> <Gold.PLP.part.repulsive>
0.3558

> <Gold.PLP.ligand.clash>
0.0000

> <Gold.PLP.ligand.torsion>
0.9648

> <Gold.PLP.Chemscore.Hbond>
1.0000

> <Gold.PLP.Chemscore.CHOScore>
0.0000

> <Gold.PLP.Chemscore.Metal>
0.0000

> <Gold.Chemscore.Hbonds>
donor molecule, donor type, donor heavy atom, donor atom, acceptor molecule, acceptor atom, score
      P1  H  7989  7998       L1    10  1.00

> <Gold.PLP.Chemscore.Internal.Correction>
0.0408

> <Gold.Rescore>
     Score         DG    S(hbond)    S(metal)    S(lipo)     H(rot)  DE(clash)    DE(int)     intcor
     14.40     -17.82       0.99        0.00     120.08       1.96       0.20       3.22       ----

> <Gold.Chemscore.Fitness>
14.3989

> <Gold.Chemscore.DG>
-17.8239

> <Gold.Chemscore.ZeroCoef>
-5.4800

> <Gold.Chemscore.Hbond>
0.9947

> <Gold.Chemscore.Metal>
0.0000

> <Gold.Chemscore.Lipo>
120.0767

> <Gold.Chemscore.Internal_Hbond>
0.0000

> <Gold.Chemscore.DEClash>
0.2007

> <Gold.Chemscore.DEInternal>
3.2243

> <Gold.Chemscore.Rot>
1.9638

> <Gold.Chemscore.Internal.Correction>
   9.000000E+99

> <Gold.Chemscore.Hbonds>
donor molecule, donor type, donor heavy atom, donor atom, acceptor molecule, acceptor atom, score
      P1  H  7989  7998       L1    10  0.99

> <Gold.Chemscore.Hbond.Weighted>
-3.3224

> <Gold.Chemscore.Metal.Weighted>
-0.0000

> <Gold.Chemscore.Lipo.Weighted>
-14.0490

> <Gold.Chemscore.Internal_Hbond.Weighted>
0.0000

> <Gold.Chemscore.DEClash.Weighted>
0.2007

> <Gold.Chemscore.DEInternal.Weighted>
3.2243

> <Gold.Chemscore.Rot.Weighted>
5.0274

> <Gold.Chemscore.Internal.Correction.Weighted>
   9.000000E+99

> <Gold.Protein.RotatedTorsions>
[ 6907 6896 6895 6894 ] final   24.77 input  -60.11 | X-H torsion
[ 7974 7965 7964 7962 ] final  -90.50 input  175.53 | X-H torsion
[ 8008 7997 7996 7995 ] final  -80.35 input   59.86 | X-H torsion
[ 10167 10162 10161 10158 ] final   90.43 input  -65.29 | X-H torsion
[ 10718 10713 10712 10709 ] final  -54.68 input   66.30 | X-H torsion
[ 10763 10752 10751 10750 ] final  110.05 input  -60.55 | X-H torsion
[ 11005 11000 10999 10996 ] final -158.69 input  -57.11 | X-H torsion

> <Gold.Protein.ActiveResidues>
 VAL166  LYS551  ARG553  GLY616  TRP617  ASP618  TYR619  PRO620  LYS621  CYS622 
 ASP623  PHE694  ASN695  SER759  ASP760  ASP761  ALA762  ILE779  LEU786  VAL792 
 PHE793  MET794  SER795  GLU796  ALA797  LYS798  CYS799  TRP800  GLU811  SER814 

> <Gold.Protein.RotatedAtoms>
  151.9625  135.0116  160.0548 H   0  0  0  0  0  0  0  0  0  0  0  0  # atno 6907 bound_to 6896
  152.1856  133.4732  159.4989 H   0  0  0  0  0  0  0  0  0  0  0  0  # atno 6908 bound_to 6896
  150.6925  134.1695  159.4250 H   0  0  0  0  0  0  0  0  0  0  0  0  # atno 6909 bound_to 6896
  145.4256  140.9553  143.2156 H   0  0  0  0  0  0  0  0  0  0  0  0  # atno 7974 bound_to 7965
  154.5874  140.0664  156.9190 H   0  0  0  0  0  0  0  0  0  0  0  0  # atno 8008 bound_to 7997
  155.2355  140.3340  155.4280 H   0  0  0  0  0  0  0  0  0  0  0  0  # atno 8009 bound_to 7997
  156.2232  140.1808  156.7411 H   0  0  0  0  0  0  0  0  0  0  0  0  # atno 8010 bound_to 7997
  139.8474  144.6611  150.9210 H   0  0  0  0  0  0  0  0  0  0  0  0  # atno 10167 bound_to 10162
  156.1430  130.4154  150.0070 H   0  0  0  0  0  0  0  0  0  0  0  0  # atno 10718 bound_to 10713
  153.4435  135.3760  155.2242 H   0  0  0  0  0  0  0  0  0  0  0  0  # atno 10763 bound_to 10752
  154.8754  135.3868  154.4124 H   0  0  0  0  0  0  0  0  0  0  0  0  # atno 10764 bound_to 10752
  153.4673  135.7087  153.6078 H   0  0  0  0  0  0  0  0  0  0  0  0  # atno 10765 bound_to 10752
  140.6509  134.4452  157.5235 H   0  0  0  0  0  0  0  0  0  0  0  0  # atno 11005 bound_to 11000
  144.8216  139.5782  143.6984 LP  0  0  0  0  0  0  0  0  0  0  0  0  # atno 17320 bound_to 7965
  146.2634  139.6462  142.9346 LP  0  0  0  0  0  0  0  0  0  0  0  0  # atno 17321 bound_to 7965
  140.7791  143.3858  151.1396 LP  0  0  0  0  0  0  0  0  0  0  0  0  # atno 17342 bound_to 10162
  139.7499  143.8795  152.3074 LP  0  0  0  0  0  0  0  0  0  0  0  0  # atno 17343 bound_to 10162
  156.7950  130.9270  151.3646 LP  0  0  0  0  0  0  0  0  0  0  0  0  # atno 17370 bound_to 10713
  157.6592  130.8951  149.9794 LP  0  0  0  0  0  0  0  0  0  0  0  0  # atno 17371 bound_to 10713
  139.9046  134.8477  156.1756 LP  0  0  0  0  0  0  0  0  0  0  0  0  # atno 17394 bound_to 11000
  141.0538  133.6875  156.1821 LP  0  0  0  0  0  0  0  0  0  0  0  0  # atno 17395 bound_to 11000

$$$$
