AV-unprocessed.smi:763|AV-procd|sdf|3640|dock2
  -GOLD-   22720 1 43D 1   1.00000     0.00000
 Structure written by MMmdl.
 43 44  0  0  0  0  0  0  0  0  2 V2000
  151.9865  145.4795  160.1080 C   0  0  0  0  0  0  0  0  0  0  0  0
  151.9675  144.1649  160.6418 O   0  0  0  0  0  0  0  0  0  0  0  0
  152.6498  143.2071  159.8437 C   0  0  0  0  0  0  0  0  0  0  0  0
  152.7649  141.8471  160.5472 C   0  0  0  0  0  0  0  0  0  0  0  0
  153.0546  140.8579  159.5648 O   0  0  0  0  0  0  0  0  0  0  0  0
  153.6363  139.6678  159.9629 C   0  0  0  0  0  0  0  0  0  0  0  0
  153.8975  139.4988  161.2844 N   0  0  0  0  0  0  0  0  0  0  0  0
  154.4616  138.3438  161.6864 C   0  0  0  0  0  0  0  0  0  0  0  0
  154.7906  137.3045  160.8012 C   0  0  0  0  0  0  0  0  0  0  0  0
  154.5173  137.4840  159.4333 C   0  0  0  0  0  0  0  0  0  0  0  0
  153.9263  138.6888  158.9786 C   0  0  0  0  0  0  0  0  0  0  0  0
  153.6397  138.9230  157.6863 N   0  5  0  0  0  0  0  0  0  0  0  0
  153.3626  137.8101  156.5446 S   0  0  0  0  0  0  0  0  0  0  0  0
  154.2036  138.0360  155.3591 O   0  0  0  0  0  0  0  0  0  0  0  0
  153.3757  136.4512  157.1059 O   0  0  0  0  0  0  0  0  0  0  0  0
  151.6001  138.2294  156.0693 C   0  0  2  0  0  0  0  0  0  0  0  0
  150.6686  138.3235  157.3032 C   0  0  0  0  0  0  0  0  0  0  0  0
  150.2539  136.9581  157.8932 C   0  0  0  0  0  0  0  0  0  0  0  0
  149.7315  135.9905  156.8179 C   0  0  0  0  0  0  0  0  0  0  0  0
  150.6989  135.8735  155.6282 C   0  0  0  0  0  0  0  0  0  0  0  0
  150.9740  137.2634  155.0321 C   0  0  2  0  0  0  0  0  0  0  0  0
  151.7375  137.1596  153.8486 O   0  0  0  0  0  0  0  0  0  0  0  0
  151.4943  146.1597  160.8029 H   0  0  0  0  0  0  0  0  0  0  0  0
  151.4564  145.5388  159.1576 H   0  0  0  0  0  0  0  0  0  0  0  0
  153.0084  145.8329  159.9630 H   0  0  0  0  0  0  0  0  0  0  0  0
  152.1806  143.1060  158.8638 H   0  0  0  0  0  0  0  0  0  0  0  0
  153.6529  143.5955  159.6665 H   0  0  0  0  0  0  0  0  0  0  0  0
  153.5655  141.8860  161.2874 H   0  0  0  0  0  0  0  0  0  0  0  0
  151.8349  141.6030  161.0620 H   0  0  0  0  0  0  0  0  0  0  0  0
  154.6559  138.2455  162.7441 H   0  0  0  0  0  0  0  0  0  0  0  0
  155.2416  136.3916  161.1604 H   0  0  0  0  0  0  0  0  0  0  0  0
  154.7683  136.6886  158.7475 H   0  0  0  0  0  0  0  0  0  0  0  0
  151.6552  139.2158  155.6072 H   0  0  0  0  0  0  0  0  0  0  0  0
  151.1279  138.9373  158.0782 H   0  0  0  0  0  0  0  0  0  0  0  0
  149.7633  138.8538  157.0059 H   0  0  0  0  0  0  0  0  0  0  0  0
  151.0835  136.4984  158.4258 H   0  0  0  0  0  0  0  0  0  0  0  0
  149.4818  137.1116  158.6476 H   0  0  0  0  0  0  0  0  0  0  0  0
  149.5579  135.0071  157.2558 H   0  0  0  0  0  0  0  0  0  0  0  0
  148.7635  136.3419  156.4591 H   0  0  0  0  0  0  0  0  0  0  0  0
  151.6286  135.3982  155.9418 H   0  0  0  0  0  0  0  0  0  0  0  0
  150.2609  135.2225  154.8706 H   0  0  0  0  0  0  0  0  0  0  0  0
  150.0171  137.6841  154.7201 H   0  0  0  0  0  0  0  0  0  0  0  0
  151.1783  136.8271  153.1613 H   0  0  0  0  0  0  0  0  0  0  0  0
  1  2  1  0  0  0  0
  1 23  1  0  0  0  0
  1 24  1  0  0  0  0
  1 25  1  0  0  0  0
  2  3  1  0  0  0  0
  3  4  1  0  0  0  0
  3 26  1  0  0  0  0
  3 27  1  0  0  0  0
  4  5  1  0  0  0  0
  4 28  1  0  0  0  0
  4 29  1  0  0  0  0
  5  6  1  0  0  0  0
  6 11  1  0  0  0  0
  6  7  2  0  0  0  0
  7  8  1  0  0  0  0
  8  9  2  0  0  0  0
  8 30  1  0  0  0  0
  9 10  1  0  0  0  0
  9 31  1  0  0  0  0
 10 11  2  0  0  0  0
 10 32  1  0  0  0  0
 11 12  1  0  0  0  0
 12 13  1  0  0  0  0
 13 14  2  0  0  0  0
 13 15  2  0  0  0  0
 13 16  1  0  0  0  0
 16 21  1  0  0  0  0
 16 17  1  0  0  0  0
 16 33  1  0  0  0  0
 17 18  1  0  0  0  0
 17 34  1  0  0  0  0
 17 35  1  0  0  0  0
 18 19  1  0  0  0  0
 18 36  1  0  0  0  0
 18 37  1  0  0  0  0
 19 20  1  0  0  0  0
 19 38  1  0  0  0  0
 19 39  1  0  0  0  0
 20 21  1  0  0  0  0
 20 40  1  0  0  0  0
 20 41  1  0  0  0  0
 21 22  1  0  0  0  0
 21 42  1  0  0  0  0
 22 43  1  0  0  0  0
M  CHG  1  12  -1
M  END
> <s_m_source_file>
AV-unprocessed.smi

> <i_m_source_file_index>
763

> <i_lp_mmshare_version>
43012

> <i_f3d_flags>
0

> <s_epik_input>
W0NIM11PW0NIMl1bQ0gyXU9jMW5bY0hdW2NIXVtjSF1jMVtOSF1TKD1PKSg9TylbQ0BASF0yW0NIMl1bQ0gyXVtDSDJdW0NIMl1bQ0BIXTJbT0hd

> <s_epik_cmdline>
J2VwaWtfcHl0aG9uJywgJy1waCcsICc3LjAnLCAnLXRuJywgJzgnLCAnLW1hJywgJzIwMCcsICctbWV0YWxfYmluZGluZycsICctaW1hZScsICc8aW5maWxlLm1hZT4nLCAnLW9tYWUnLCAnPG91dGZpbGUubWFlPic=

> <r_epik_Ionization_Penalty>
0.985866

> <r_epik_Ionization_Penalty_Charging>
0.984689

> <r_epik_Ionization_Penalty_Neutral>
0.00117669

> <r_epik_State_Penalty>
1.03185

> <r_epik_Charging_Adjusted_Penalty>
2.01654

> <i_epik_Tot_Q>
-1

> <i_epik_Tot_abs_Q>
1

> <r_epik_Metal_State_Penalty>
0.379327

> <b_epik_Metal_Only>
0

> <s_lp_Force_Field>
OPLS_2005

> <r_lp_Energy>
11.7701

> <b_lp_Chiralities_Consistent>
1

> <s_lp_Variant>
AV-unprocessed.smi:763-7

> <Gold.Version>
5.8.1

> <Gold.Id.Protein>
6NUR|6NUR_protein|mol2

> <Gold.PLP.Fitness>
47.7056

> <Gold.PLP.PLP>
-33.3407

> <Gold.PLP.part.hbond>
-5.8765

> <Gold.PLP.part.metal>
0.0000

> <Gold.PLP.part.buried>
-5.9337

> <Gold.PLP.part.nonpolar>
-21.5472

> <Gold.PLP.part.repulsive>
0.1001

> <Gold.PLP.ligand.clash>
0.0000

> <Gold.PLP.ligand.torsion>
1.0091

> <Gold.PLP.Chemscore.Hbond>
5.0454

> <Gold.PLP.Chemscore.CHOScore>
0.0000

> <Gold.PLP.Chemscore.Metal>
0.0000

> <Gold.Chemscore.Hbonds>
donor molecule, donor type, donor heavy atom, donor atom, acceptor molecule, acceptor atom, score
      L1  H    22    43       P1  7949  0.88
      P1  H  7997  8008       L1    12  2.00
      P1  H  7997  8009       L1    14  0.07
      P1  H 10752 10763       L1    15  0.88
      P1  H 10752 10765       L1    22  1.00

> <Gold.PLP.Chemscore.Internal.Correction>
1.2470

> <Gold.Rescore>
     Score         DG    S(hbond)    S(metal)    S(lipo)     H(rot)  DE(clash)    DE(int)     intcor
     13.50     -15.94       2.10        0.00      80.96       2.35       0.02       2.42       ----

> <Gold.Chemscore.Fitness>
13.5007

> <Gold.Chemscore.DG>
-15.9419

> <Gold.Chemscore.ZeroCoef>
-5.4800

> <Gold.Chemscore.Hbond>
2.0982

> <Gold.Chemscore.Metal>
0.0000

> <Gold.Chemscore.Lipo>
80.9592

> <Gold.Chemscore.Internal_Hbond>
0.0000

> <Gold.Chemscore.DEClash>
0.0186

> <Gold.Chemscore.DEInternal>
2.4226

> <Gold.Chemscore.Rot>
2.3509

> <Gold.Chemscore.Internal.Correction>
   9.000000E+99

> <Gold.Chemscore.Hbonds>
donor molecule, donor type, donor heavy atom, donor atom, acceptor molecule, acceptor atom, score
      L1  H    22    43       P1  7949  0.43
      P1  H  7997  8008       L1    12  0.39
      P1  H  7997  8009       L1    14  0.04
      P1  H 10752 10763       L1    15  0.21
      P1  H 10752 10765       L1    22  0.21

> <Gold.Chemscore.Hbond.Weighted>
-7.0079

> <Gold.Chemscore.Metal.Weighted>
-0.0000

> <Gold.Chemscore.Lipo.Weighted>
-9.4722

> <Gold.Chemscore.Internal_Hbond.Weighted>
0.0000

> <Gold.Chemscore.DEClash.Weighted>
0.0186

> <Gold.Chemscore.DEInternal.Weighted>
2.4226

> <Gold.Chemscore.Rot.Weighted>
6.0182

> <Gold.Chemscore.Internal.Correction.Weighted>
   9.000000E+99

> <Gold.Protein.RotatedTorsions>
[ 6907 6896 6895 6894 ] final   25.81 input  -60.11 | X-H torsion
[ 7974 7965 7964 7962 ] final   -1.59 input  175.53 | X-H torsion
[ 8008 7997 7996 7995 ] final -100.28 input   59.86 | X-H torsion
[ 10167 10162 10161 10158 ] final   47.63 input  -65.29 | X-H torsion
[ 10718 10713 10712 10709 ] final   79.10 input   66.30 | X-H torsion
[ 10763 10752 10751 10750 ] final  135.23 input  -60.55 | X-H torsion
[ 11005 11000 10999 10996 ] final -105.33 input  -57.11 | X-H torsion

> <Gold.Protein.ActiveResidues>
 VAL166  LYS551  ARG553  GLY616  TRP617  ASP618  TYR619  PRO620  LYS621  CYS622 
 ASP623  PHE694  ASN695  SER759  ASP760  ASP761  ALA762  ILE779  LEU786  VAL792 
 PHE793  MET794  SER795  GLU796  ALA797  LYS798  CYS799  TRP800  GLU811  SER814 

> <Gold.Protein.RotatedAtoms>
  151.9780  135.0043  160.0555 H   0  0  0  0  0  0  0  0  0  0  0  0  # atno 6907 bound_to 6896
  152.1722  133.4646  159.4923 H   0  0  0  0  0  0  0  0  0  0  0  0  # atno 6908 bound_to 6896
  150.6903  134.1856  159.4308 H   0  0  0  0  0  0  0  0  0  0  0  0  # atno 6909 bound_to 6896
  146.2415  140.1444  142.8335 H   0  0  0  0  0  0  0  0  0  0  0  0  # atno 7974 bound_to 7965
  154.8264  140.0442  157.1446 H   0  0  0  0  0  0  0  0  0  0  0  0  # atno 8008 bound_to 7997
  154.9202  140.3025  155.5200 H   0  0  0  0  0  0  0  0  0  0  0  0  # atno 8009 bound_to 7997
  156.2984  140.2342  156.4251 H   0  0  0  0  0  0  0  0  0  0  0  0  # atno 8010 bound_to 7997
  140.3016  144.2927  150.6218 H   0  0  0  0  0  0  0  0  0  0  0  0  # atno 10167 bound_to 10162
  157.6766  130.9898  150.1882 H   0  0  0  0  0  0  0  0  0  0  0  0  # atno 10718 bound_to 10713
  153.8366  135.3097  155.3423 H   0  0  0  0  0  0  0  0  0  0  0  0  # atno 10763 bound_to 10752
  154.7950  135.4760  154.0144 H   0  0  0  0  0  0  0  0  0  0  0  0  # atno 10764 bound_to 10752
  153.1601  135.6859  153.8846 H   0  0  0  0  0  0  0  0  0  0  0  0  # atno 10765 bound_to 10752
  141.1058  133.8799  157.1721 H   0  0  0  0  0  0  0  0  0  0  0  0  # atno 11005 bound_to 11000
  145.0220  140.8801  143.5161 LP  0  0  0  0  0  0  0  0  0  0  0  0  # atno 17320 bound_to 7965
  145.1494  139.2524  143.5449 LP  0  0  0  0  0  0  0  0  0  0  0  0  # atno 17321 bound_to 7965
  140.5646  143.2188  151.7706 LP  0  0  0  0  0  0  0  0  0  0  0  0  # atno 17342 bound_to 10162
  139.4914  144.4302  151.9881 LP  0  0  0  0  0  0  0  0  0  0  0  0  # atno 17343 bound_to 10162
  156.2600  130.3710  149.8141 LP  0  0  0  0  0  0  0  0  0  0  0  0  # atno 17370 bound_to 10713
  156.5889  130.8498  151.3403 LP  0  0  0  0  0  0  0  0  0  0  0  0  # atno 17371 bound_to 10713
  139.9928  135.0058  157.0015 LP  0  0  0  0  0  0  0  0  0  0  0  0  # atno 17394 bound_to 11000
  140.4905  134.1198  155.7232 LP  0  0  0  0  0  0  0  0  0  0  0  0  # atno 17395 bound_to 11000

$$$$
