AV-unprocessed.smi:1254|AV-procd|sdf|5277|dock6
  -GOLD-   22720 4393D 1   1.00000     0.00000
 Structure written by MMmdl.
 45 46  0  0  0  0  0  0  0  0  3 V2000
  150.8402  141.2973  155.8295 C   0  0  0  0  0  0  0  0  0  0  0  0
  151.1760  139.9151  155.3849 C   0  0  0  0  0  0  0  0  0  0  0  0
  150.4434  138.7661  155.2889 C   0  0  0  0  0  0  0  0  0  0  0  0
  151.3810  137.8246  154.7832 C   0  0  0  0  0  0  0  0  0  0  0  0
  151.1387  136.5299  154.5261 N   0  5  0  0  0  0  0  0  0  0  0  0
  150.1810  135.8671  155.2137 C   0  0  0  0  0  0  0  0  0  0  0  0
  150.3406  135.2026  156.2401 O   0  0  0  0  0  0  0  0  0  0  0  0
  148.9594  135.9819  154.6783 N   0  0  0  0  0  0  0  0  0  0  0  0
  147.7483  135.3779  155.2164 C   0  0  0  0  0  0  0  0  0  0  0  0
  147.1769  134.3477  154.2335 C   0  0  2  0  0  0  0  0  0  0  0  0
  145.7447  133.9209  154.6169 C   0  0  0  0  0  0  0  0  0  0  0  0
  145.2289  132.8763  153.6984 N   0  3  1  0  0  0  0  0  0  0  0  0
  144.7868  133.4064  152.3799 C   0  0  0  0  0  0  0  0  0  0  0  0
  144.5796  132.2981  151.3252 C   0  0  0  0  0  0  0  0  0  0  0  0
  145.9095  131.9503  150.6399 C   0  0  0  0  0  0  0  0  0  0  0  0
  143.5241  132.6925  150.2784 C   0  0  0  0  0  0  0  0  0  0  0  0
  146.1783  131.7364  153.6234 C   0  0  0  0  0  0  0  0  0  0  0  0
  147.6095  132.2124  153.3076 C   0  0  0  0  0  0  0  0  0  0  0  0
  148.0100  133.1922  154.2565 O   0  0  0  0  0  0  0  0  0  0  0  0
  152.5808  138.3516  154.6053 N   0  0  0  0  0  0  0  0  0  0  0  0
  152.4558  139.6942  154.9816 O   0  0  0  0  0  0  0  0  0  0  0  0
  149.9998  141.2879  156.5237 H   0  0  0  0  0  0  0  0  0  0  0  0
  150.5688  141.9202  154.9770 H   0  0  0  0  0  0  0  0  0  0  0  0
  151.6887  141.7618  156.3328 H   0  0  0  0  0  0  0  0  0  0  0  0
  149.4023  138.6216  155.5355 H   0  0  0  0  0  0  0  0  0  0  0  0
  148.8684  136.5296  153.8351 H   0  0  0  0  0  0  0  0  0  0  0  0
  147.9679  134.9101  156.1774 H   0  0  0  0  0  0  0  0  0  0  0  0
  147.0115  136.1619  155.3992 H   0  0  0  0  0  0  0  0  0  0  0  0
  147.1783  134.7816  153.2317 H   0  0  0  0  0  0  0  0  0  0  0  0
  145.7456  133.5152  155.6297 H   0  0  0  0  0  0  0  0  0  0  0  0
  145.0722  134.7795  154.6341 H   0  0  0  0  0  0  0  0  0  0  0  0
  143.8423  133.9391  152.5003 H   0  0  0  0  0  0  0  0  0  0  0  0
  145.5012  134.1462  152.0187 H   0  0  0  0  0  0  0  0  0  0  0  0
  144.2361  131.3907  151.8208 H   0  0  0  0  0  0  0  0  0  0  0  0
  146.3213  132.8105  150.1110 H   0  0  0  0  0  0  0  0  0  0  0  0
  145.7805  131.1455  149.9154 H   0  0  0  0  0  0  0  0  0  0  0  0
  146.6526  131.6193  151.3662 H   0  0  0  0  0  0  0  0  0  0  0  0
  143.8125  133.5993  149.7456 H   0  0  0  0  0  0  0  0  0  0  0  0
  142.5516  132.8706  150.7377 H   0  0  0  0  0  0  0  0  0  0  0  0
  143.3920  131.9024  149.5386 H   0  0  0  0  0  0  0  0  0  0  0  0
  146.1770  131.2328  154.5910 H   0  0  0  0  0  0  0  0  0  0  0  0
  145.8520  130.9945  152.8958 H   0  0  0  0  0  0  0  0  0  0  0  0
  148.3011  131.3714  153.3609 H   0  0  0  0  0  0  0  0  0  0  0  0
  147.6853  132.6148  152.2968 H   0  0  0  0  0  0  0  0  0  0  0  0
  144.3873  132.5239  154.1320 H   0  0  0  0  0  0  0  0  0  0  0  0
  1  2  1  0  0  0  0
  1 22  1  0  0  0  0
  1 23  1  0  0  0  0
  1 24  1  0  0  0  0
  2 21  1  0  0  0  0
  2  3  2  0  0  0  0
  3  4  1  0  0  0  0
  3 25  1  0  0  0  0
  4  5  1  0  0  0  0
  4 20  2  0  0  0  0
  5  6  1  0  0  0  0
  6  7  2  0  0  0  0
  6  8  1  0  0  0  0
  8  9  1  0  0  0  0
  8 26  1  0  0  0  0
  9 10  1  0  0  0  0
  9 27  1  0  0  0  0
  9 28  1  0  0  0  0
 10 19  1  0  0  0  0
 10 11  1  0  0  0  0
 10 29  1  0  0  0  0
 11 12  1  0  0  0  0
 11 30  1  0  0  0  0
 11 31  1  0  0  0  0
 12 13  1  0  0  0  0
 12 17  1  0  0  0  0
 12 45  1  0  0  0  0
 13 14  1  0  0  0  0
 13 32  1  0  0  0  0
 13 33  1  0  0  0  0
 14 15  1  0  0  0  0
 14 16  1  0  0  0  0
 14 34  1  0  0  0  0
 15 35  1  0  0  0  0
 15 36  1  0  0  0  0
 15 37  1  0  0  0  0
 16 38  1  0  0  0  0
 16 39  1  0  0  0  0
 16 40  1  0  0  0  0
 17 18  1  0  0  0  0
 17 41  1  0  0  0  0
 17 42  1  0  0  0  0
 18 19  1  0  0  0  0
 18 43  1  0  0  0  0
 18 44  1  0  0  0  0
 20 21  1  0  0  0  0
M  CHG  1   5  -1
M  CHG  1  12   1
M  END
> <s_m_source_file>
AV-unprocessed.smi

> <i_m_source_file_index>
1254

> <i_lp_mmshare_version>
43012

> <i_f3d_flags>
0

> <s_epik_input>
W0NIM11jMVtjSF1jKG5vMSlbTkhdQyg9TylbTkhdW0NIMl1bQ0BASF0yW0NIMl1OKFtDSDJdW0NIMl1PMilbQ0gyXVtDSF0oW0NIM10pW0NIM10=

> <s_epik_cmdline>
J2VwaWtfcHl0aG9uJywgJy1waCcsICc3LjAnLCAnLXRuJywgJzgnLCAnLW1hJywgJzIwMCcsICctbWV0YWxfYmluZGluZycsICctaW1hZScsICc8aW5maWxlLm1hZT4nLCAnLW9tYWUnLCAnPG91dGZpbGUubWFlPic=

> <r_epik_Ionization_Penalty>
6.33139

> <r_epik_Ionization_Penalty_Charging>
6.33128

> <r_epik_Ionization_Penalty_Neutral>
0.000104968

> <r_epik_State_Penalty>
6.32522

> <r_epik_Charging_Adjusted_Penalty>
12.6565

> <i_epik_Tot_Q>
0

> <i_epik_Tot_abs_Q>
2

> <r_epik_Metal_State_Penalty>
2.26285

> <b_epik_Metal_Only>
1

> <s_lp_Force_Field>
OPLS_2005

> <r_lp_Energy>
8.92976

> <b_lp_Chiralities_Consistent>
1

> <s_lp_Variant>
AV-unprocessed.smi:1254-9

> <Gold.Version>
5.8.1

> <Gold.Id.Protein>
6NUR|6NUR_protein|mol2

> <Gold.PLP.Fitness>
47.1247

> <Gold.PLP.PLP>
-32.7115

> <Gold.PLP.part.hbond>
-5.5428

> <Gold.PLP.part.metal>
0.0000

> <Gold.PLP.part.buried>
-4.8947

> <Gold.PLP.part.nonpolar>
-23.3865

> <Gold.PLP.part.repulsive>
0.8195

> <Gold.PLP.ligand.clash>
0.0000

> <Gold.PLP.ligand.torsion>
1.4791

> <Gold.PLP.Chemscore.Hbond>
5.7258

> <Gold.PLP.Chemscore.CHOScore>
0.0000

> <Gold.PLP.Chemscore.Metal>
0.0000

> <Gold.Chemscore.Hbonds>
donor molecule, donor type, donor heavy atom, donor atom, acceptor molecule, acceptor atom, score
      L1  H     8    26       P1  7948  0.75
      L1  H    12    45       P1 10957  2.00
      P1  H  7997  8009       L1    21  0.47
      P1  H 10752 10763       L1     5  2.00

> <Gold.PLP.Chemscore.Internal.Correction>
0.1942

> <Gold.Rescore>
     Score         DG    S(hbond)    S(metal)    S(lipo)     H(rot)  DE(clash)    DE(int)     intcor
     14.83     -17.25       2.48        0.00      66.82       1.69       0.07       2.35       ----

> <Gold.Chemscore.Fitness>
14.8284

> <Gold.Chemscore.DG>
-17.2504

> <Gold.Chemscore.ZeroCoef>
-5.4800

> <Gold.Chemscore.Hbond>
2.4809

> <Gold.Chemscore.Metal>
0.0000

> <Gold.Chemscore.Lipo>
66.8156

> <Gold.Chemscore.Internal_Hbond>
0.0000

> <Gold.Chemscore.DEClash>
0.0678

> <Gold.Chemscore.DEInternal>
2.3543

> <Gold.Chemscore.Rot>
1.6926

> <Gold.Chemscore.Internal.Correction>
   9.000000E+99

> <Gold.Chemscore.Hbonds>
donor molecule, donor type, donor heavy atom, donor atom, acceptor molecule, acceptor atom, score
      L1  H     8    26       P1  7948  0.72
      L1  H    12    45       P1 10957  0.64
      P1  H  7997  8009       L1    21  0.21
      P1  H 10752 10763       L1     5  0.55

> <Gold.Chemscore.Hbond.Weighted>
-8.2861

> <Gold.Chemscore.Metal.Weighted>
-0.0000

> <Gold.Chemscore.Lipo.Weighted>
-7.8174

> <Gold.Chemscore.Internal_Hbond.Weighted>
0.0000

> <Gold.Chemscore.DEClash.Weighted>
0.0678

> <Gold.Chemscore.DEInternal.Weighted>
2.3543

> <Gold.Chemscore.Rot.Weighted>
4.3330

> <Gold.Chemscore.Internal.Correction.Weighted>
   9.000000E+99

> <Gold.Protein.RotatedTorsions>
[ 6907 6896 6895 6894 ] final  167.88 input  -60.11 | X-H torsion
[ 7974 7965 7964 7962 ] final -110.30 input  175.53 | X-H torsion
[ 8008 7997 7996 7995 ] final -137.80 input   59.86 | X-H torsion
[ 10167 10162 10161 10158 ] final  -49.67 input  -65.29 | X-H torsion
[ 10718 10713 10712 10709 ] final   22.00 input   66.30 | X-H torsion
[ 10763 10752 10751 10750 ] final   42.61 input  -60.55 | X-H torsion
[ 11005 11000 10999 10996 ] final   32.02 input  -57.11 | X-H torsion

> <Gold.Protein.ActiveResidues>
 VAL166  LYS551  ARG553  GLY616  TRP617  ASP618  TYR619  PRO620  LYS621  CYS622 
 ASP623  PHE694  ASN695  SER759  ASP760  ASP761  ALA762  ILE779  LEU786  VAL792 
 PHE793  MET794  SER795  GLU796  ALA797  LYS798  CYS799  TRP800  GLU811  SER814 

> <Gold.Protein.RotatedAtoms>
  151.8564  133.3449  159.3689 H   0  0  0  0  0  0  0  0  0  0  0  0  # atno 6907 bound_to 6896
  150.7191  134.5249  159.5681 H   0  0  0  0  0  0  0  0  0  0  0  0  # atno 6908 bound_to 6896
  152.2753  134.7889  160.0458 H   0  0  0  0  0  0  0  0  0  0  0  0  # atno 6909 bound_to 6896
  145.1700  140.8921  143.3541 H   0  0  0  0  0  0  0  0  0  0  0  0  # atno 7974 bound_to 7965
  155.4178  140.0516  157.3027 H   0  0  0  0  0  0  0  0  0  0  0  0  # atno 8008 bound_to 7997
  154.4916  140.2122  155.9495 H   0  0  0  0  0  0  0  0  0  0  0  0  # atno 8009 bound_to 7997
  156.1350  140.3165  155.8412 H   0  0  0  0  0  0  0  0  0  0  0  0  # atno 8010 bound_to 7997
  140.6674  143.2688  151.4248 H   0  0  0  0  0  0  0  0  0  0  0  0  # atno 10167 bound_to 10162
  157.1463  130.6654  149.5997 H   0  0  0  0  0  0  0  0  0  0  0  0  # atno 10718 bound_to 10713
  152.9879  135.6126  154.2977 H   0  0  0  0  0  0  0  0  0  0  0  0  # atno 10763 bound_to 10752
  154.2699  135.2780  155.2744 H   0  0  0  0  0  0  0  0  0  0  0  0  # atno 10764 bound_to 10752
  154.5131  135.5835  153.6677 H   0  0  0  0  0  0  0  0  0  0  0  0  # atno 10765 bound_to 10752
  140.2778  134.3008  155.7809 H   0  0  0  0  0  0  0  0  0  0  0  0  # atno 11005 bound_to 11000
  145.0243  139.3396  143.6056 LP  0  0  0  0  0  0  0  0  0  0  0  0  # atno 17320 bound_to 7965
  146.3470  139.9556  142.8723 LP  0  0  0  0  0  0  0  0  0  0  0  0  # atno 17321 bound_to 7965
  139.5928  144.1461  152.2109 LP  0  0  0  0  0  0  0  0  0  0  0  0  # atno 17342 bound_to 10162
  140.0821  144.5692  150.7115 LP  0  0  0  0  0  0  0  0  0  0  0  0  # atno 17343 bound_to 10162
  155.9779  130.4760  150.6622 LP  0  0  0  0  0  0  0  0  0  0  0  0  # atno 17370 bound_to 10713
  157.4262  131.0843  151.1083 LP  0  0  0  0  0  0  0  0  0  0  0  0  # atno 17371 bound_to 10713
  141.2167  133.7506  156.9433 LP  0  0  0  0  0  0  0  0  0  0  0  0  # atno 17394 bound_to 11000
  140.1312  134.9354  157.2340 LP  0  0  0  0  0  0  0  0  0  0  0  0  # atno 17395 bound_to 11000

$$$$
