AV-unprocessed.smi:625|AV-procd|sdf|3106|dock1
  -GOLD-   22720 0 23D 1   1.00000     0.00000
 Structure written by MMmdl.
 49 51  0  0  0  0  0  0  0  0  1 V2000
  141.9336  141.9343  155.3965 C   0  0  0  0  0  0  0  0  0  0  0  0
  143.3580  141.7885  155.1372 N   0  0  0  0  0  0  0  0  0  0  0  0
  144.3286  142.3662  155.8662 C   0  0  0  0  0  0  0  0  0  0  0  0
  144.0684  143.0804  156.8355 O   0  0  0  0  0  0  0  0  0  0  0  0
  145.6878  142.0712  155.4029 C   0  0  0  0  0  0  0  0  0  0  0  0
  146.1979  142.7524  154.2285 C   0  0  0  0  0  0  0  0  0  0  0  0
  147.4356  142.4933  153.7633 C   0  0  0  0  0  0  0  0  0  0  0  0
  148.3157  141.5215  154.4171 C   0  0  0  0  0  0  0  0  0  0  0  0
  149.4394  141.2639  153.9850 O   0  0  0  0  0  0  0  0  0  0  0  0
  147.8050  140.9118  155.5302 N   0  0  0  0  0  0  0  0  0  0  0  0
  148.5900  139.9020  156.2651 C   0  0  0  0  0  0  0  0  0  0  0  0
  149.1573  140.3868  157.6107 C   0  0  0  0  0  0  0  0  0  0  0  0
  148.3801  140.7197  158.5044 O   0  0  0  0  0  0  0  0  0  0  0  0
  150.4930  140.4344  157.7492 N   0  0  0  0  0  0  0  0  0  0  0  0
  151.2230  140.9345  158.9094 C   0  0  1  0  0  0  0  0  0  0  0  0
  152.7068  140.5466  158.7810 C   0  0  0  0  0  0  0  0  0  0  0  0
  151.0228  142.4658  159.0185 C   0  0  2  0  0  0  0  0  0  0  0  0
  151.4560  143.2408  157.7506 C   0  0  0  0  0  0  0  0  0  0  0  0
  152.4314  144.2982  158.2975 C   0  0  1  0  0  0  0  0  0  0  0  0
  151.6558  145.3379  159.1270 C   0  0  0  0  0  0  0  0  0  0  0  0
  151.2947  144.5522  160.4012 C   0  0  0  0  0  0  0  0  0  0  0  0
  151.8779  143.1553  160.1148 C   0  0  2  0  0  0  0  0  0  0  0  0
  153.1634  143.5101  159.3753 C   0  0  0  0  0  0  0  0  0  0  0  0
  146.5074  141.1835  156.0082 C   0  0  0  0  0  0  0  0  0  0  0  0
  141.3616  141.3808  154.6519 H   0  0  0  0  0  0  0  0  0  0  0  0
  141.6346  142.9822  155.3461 H   0  0  0  0  0  0  0  0  0  0  0  0
  141.6768  141.5450  156.3827 H   0  0  0  0  0  0  0  0  0  0  0  0
  143.6276  141.2131  154.3523 H   0  0  0  0  0  0  0  0  0  0  0  0
  145.5885  143.4786  153.7096 H   0  0  0  0  0  0  0  0  0  0  0  0
  147.7895  143.0142  152.8858 H   0  0  0  0  0  0  0  0  0  0  0  0
  147.9874  139.0098  156.4446 H   0  0  0  0  0  0  0  0  0  0  0  0
  149.4245  139.5560  155.6536 H   0  0  0  0  0  0  0  0  0  0  0  0
  151.0533  140.1344  156.9646 H   0  0  0  0  0  0  0  0  0  0  0  0
  150.8191  140.4668  159.8089 H   0  0  0  0  0  0  0  0  0  0  0  0
  153.2833  140.8742  159.6458 H   0  0  0  0  0  0  0  0  0  0  0  0
  153.1578  140.9928  157.8939 H   0  0  0  0  0  0  0  0  0  0  0  0
  152.8259  139.4653  158.7058 H   0  0  0  0  0  0  0  0  0  0  0  0
  149.9662  142.6522  159.2195 H   0  0  0  0  0  0  0  0  0  0  0  0
  151.9757  142.5928  157.0435 H   0  0  0  0  0  0  0  0  0  0  0  0
  150.6093  143.6865  157.2276 H   0  0  0  0  0  0  0  0  0  0  0  0
  153.0724  144.7379  157.5326 H   0  0  0  0  0  0  0  0  0  0  0  0
  152.2876  146.1932  159.3704 H   0  0  0  0  0  0  0  0  0  0  0  0
  150.7745  145.7095  158.6030 H   0  0  0  0  0  0  0  0  0  0  0  0
  151.7737  144.9979  161.2740 H   0  0  0  0  0  0  0  0  0  0  0  0
  150.2205  144.5279  160.5886 H   0  0  0  0  0  0  0  0  0  0  0  0
  152.0236  142.5685  161.0218 H   0  0  0  0  0  0  0  0  0  0  0  0
  153.7002  142.6417  158.9902 H   0  0  0  0  0  0  0  0  0  0  0  0
  153.8494  144.1194  159.9666 H   0  0  0  0  0  0  0  0  0  0  0  0
  146.2392  140.6095  156.8836 H   0  0  0  0  0  0  0  0  0  0  0  0
  1  2  1  0  0  0  0
  1 25  1  0  0  0  0
  1 26  1  0  0  0  0
  1 27  1  0  0  0  0
  2  3  1  0  0  0  0
  2 28  1  0  0  0  0
  3  4  2  0  0  0  0
  3  5  1  0  0  0  0
  5 24  2  0  0  0  0
  5  6  1  0  0  0  0
  6  7  2  0  0  0  0
  6 29  1  0  0  0  0
  7  8  1  0  0  0  0
  7 30  1  0  0  0  0
  8  9  2  0  0  0  0
  8 10  1  0  0  0  0
 10 11  1  0  0  0  0
 10 24  1  0  0  0  0
 11 12  1  0  0  0  0
 11 31  1  0  0  0  0
 11 32  1  0  0  0  0
 12 13  2  0  0  0  0
 12 14  1  0  0  0  0
 14 15  1  0  0  0  0
 14 33  1  0  0  0  0
 15 16  1  0  0  0  0
 15 17  1  0  0  0  0
 15 34  1  0  0  0  0
 16 35  1  0  0  0  0
 16 36  1  0  0  0  0
 16 37  1  0  0  0  0
 17 22  1  0  0  0  0
 17 18  1  0  0  0  0
 17 38  1  0  0  0  0
 18 19  1  0  0  0  0
 18 39  1  0  0  0  0
 18 40  1  0  0  0  0
 19 23  1  0  0  0  0
 19 20  1  0  0  0  0
 19 41  1  0  0  0  0
 20 21  1  0  0  0  0
 20 42  1  0  0  0  0
 20 43  1  0  0  0  0
 21 22  1  0  0  0  0
 21 44  1  0  0  0  0
 21 45  1  0  0  0  0
 22 23  1  0  0  0  0
 22 46  1  0  0  0  0
 23 47  1  0  0  0  0
 23 48  1  0  0  0  0
 24 49  1  0  0  0  0
M  END
> <s_m_source_file>
AV-unprocessed.smi

> <i_m_source_file_index>
625

> <i_lp_mmshare_version>
43012

> <i_f3d_flags>
0

> <s_epik_input>
W0NIM11bTkhdQyg9TyljMVtjSF1bY0hdYyg9TyluKFtjSF0xKVtDSDJdQyg9TylbTkhdW0NASF0oW0NIM10pW0NASF0oW0NIMl1bQ0BIXTIzKVtDQEhdKFtDSDJdMylbQ0gyXVtDSDJdMg==

> <s_epik_cmdline>
J2VwaWtfcHl0aG9uJywgJy1waCcsICc3LjAnLCAnLXRuJywgJzgnLCAnLW1hJywgJzIwMCcsICctbWV0YWxfYmluZGluZycsICctaW1hZScsICc8aW5maWxlLm1hZT4nLCAnLW9tYWUnLCAnPG91dGZpbGUubWFlPic=

> <r_lp_tautomer_probability>
1

> <r_epik_Ionization_Penalty>
3.7129e-07

> <r_epik_Ionization_Penalty_Charging>
5.04114e-08

> <r_epik_Ionization_Penalty_Neutral>
3.20879e-07

> <r_epik_State_Penalty>
-0

> <r_epik_Charging_Adjusted_Penalty>
5.04114e-08

> <i_epik_Tot_Q>
0

> <i_epik_Tot_abs_Q>
0

> <r_epik_Metal_State_Penalty>
-0

> <b_epik_Metal_Only>
0

> <s_lp_Force_Field>
OPLS_2005

> <r_lp_Energy>
63.073

> <b_lp_Chiralities_Consistent>
1

> <s_lp_Variant>
AV-unprocessed.smi:625-6

> <Gold.Version>
5.8.1

> <Gold.Id.Protein>
6NUR|6NUR_protein|mol2

> <Gold.PLP.Fitness>
46.5628

> <Gold.PLP.PLP>
-44.1435

> <Gold.PLP.part.hbond>
-5.0000

> <Gold.PLP.part.metal>
0.0000

> <Gold.PLP.part.buried>
-3.8676

> <Gold.PLP.part.nonpolar>
-35.2355

> <Gold.PLP.part.repulsive>
1.4347

> <Gold.PLP.ligand.clash>
0.0000

> <Gold.PLP.ligand.torsion>
1.7369

> <Gold.PLP.Chemscore.Hbond>
1.9541

> <Gold.PLP.Chemscore.CHOScore>
0.0000

> <Gold.PLP.Chemscore.Metal>
0.0000

> <Gold.Chemscore.Hbonds>
donor molecule, donor type, donor heavy atom, donor atom, acceptor molecule, acceptor atom, score
      L1  H     2    28       P1 10175  1.00
      P1  H  7989  7998       L1     9  0.15
      P1  H  8011  8017       L1     9  0.76

> <Gold.PLP.Chemscore.Internal.Correction>
0.0308

> <Gold.Rescore>
     Score         DG    S(hbond)    S(metal)    S(lipo)     H(rot)  DE(clash)    DE(int)     intcor
     17.64     -20.05       1.65        0.00     113.94       1.67       0.74       1.67       ----

> <Gold.Chemscore.Fitness>
17.6372

> <Gold.Chemscore.DG>
-20.0478

> <Gold.Chemscore.ZeroCoef>
-5.4800

> <Gold.Chemscore.Hbond>
1.6511

> <Gold.Chemscore.Metal>
0.0000

> <Gold.Chemscore.Lipo>
113.9358

> <Gold.Chemscore.Internal_Hbond>
0.0000

> <Gold.Chemscore.DEClash>
0.7410

> <Gold.Chemscore.DEInternal>
1.6696

> <Gold.Chemscore.Rot>
1.6709

> <Gold.Chemscore.Internal.Correction>
   9.000000E+99

> <Gold.Chemscore.Hbonds>
donor molecule, donor type, donor heavy atom, donor atom, acceptor molecule, acceptor atom, score
      L1  H     2    28       P1 10175  0.54
      P1  H  7989  7998       L1     9  0.15
      P1  H  8011  8017       L1     9  0.51

> <Gold.Chemscore.Hbond.Weighted>
-5.5147

> <Gold.Chemscore.Metal.Weighted>
-0.0000

> <Gold.Chemscore.Lipo.Weighted>
-13.3305

> <Gold.Chemscore.Internal_Hbond.Weighted>
0.0000

> <Gold.Chemscore.DEClash.Weighted>
0.7410

> <Gold.Chemscore.DEInternal.Weighted>
1.6696

> <Gold.Chemscore.Rot.Weighted>
4.2774

> <Gold.Chemscore.Internal.Correction.Weighted>
   9.000000E+99

> <Gold.Protein.RotatedTorsions>
[ 6907 6896 6895 6894 ] final  141.88 input  -60.11 | X-H torsion
[ 7974 7965 7964 7962 ] final    1.00 input  175.53 | X-H torsion
[ 8008 7997 7996 7995 ] final   51.47 input   59.86 | X-H torsion
[ 10167 10162 10161 10158 ] final -150.73 input  -65.29 | X-H torsion
[ 10718 10713 10712 10709 ] final -100.52 input   66.30 | X-H torsion
[ 10763 10752 10751 10750 ] final  -91.71 input  -60.55 | X-H torsion
[ 11005 11000 10999 10996 ] final  -31.14 input  -57.11 | X-H torsion

> <Gold.Protein.ActiveResidues>
 VAL166  LYS551  ARG553  GLY616  TRP617  ASP618  TYR619  PRO620  LYS621  CYS622 
 ASP623  PHE694  ASN695  SER759  ASP760  ASP761  ALA762  ILE779  LEU786  VAL792 
 PHE793  MET794  SER795  GLU796  ALA797  LYS798  CYS799  TRP800  GLU811  SER814 

> <Gold.Protein.RotatedAtoms>
  152.2255  133.5017  159.5186 H   0  0  0  0  0  0  0  0  0  0  0  0  # atno 6907 bound_to 6896
  150.7024  134.1285  159.4070 H   0  0  0  0  0  0  0  0  0  0  0  0  # atno 6908 bound_to 6896
  151.9206  135.0300  160.0572 H   0  0  0  0  0  0  0  0  0  0  0  0  # atno 6909 bound_to 6896
  146.2438  140.1054  142.8346 H   0  0  0  0  0  0  0  0  0  0  0  0  # atno 7974 bound_to 7965
  155.4358  140.3452  155.4285 H   0  0  0  0  0  0  0  0  0  0  0  0  # atno 8008 bound_to 7997
  156.1309  140.1514  156.9098 H   0  0  0  0  0  0  0  0  0  0  0  0  # atno 8009 bound_to 7997
  154.4894  140.0846  156.7539 H   0  0  0  0  0  0  0  0  0  0  0  0  # atno 8010 bound_to 7997
  139.7329  143.8780  152.2540 H   0  0  0  0  0  0  0  0  0  0  0  0  # atno 10167 bound_to 10162
  156.0165  130.5331  150.6829 H   0  0  0  0  0  0  0  0  0  0  0  0  # atno 10718 bound_to 10713
  154.6788  135.5258  153.8235 H   0  0  0  0  0  0  0  0  0  0  0  0  # atno 10763 bound_to 10752
  153.0550  135.6547  154.0608 H   0  0  0  0  0  0  0  0  0  0  0  0  # atno 10764 bound_to 10752
  154.0498  135.2970  155.3322 H   0  0  0  0  0  0  0  0  0  0  0  0  # atno 10765 bound_to 10752
  140.9443  133.7259  156.1123 H   0  0  0  0  0  0  0  0  0  0  0  0  # atno 11005 bound_to 11000
  145.0533  140.9034  143.4982 LP  0  0  0  0  0  0  0  0  0  0  0  0  # atno 17320 bound_to 7965
  145.1155  139.2728  143.5615 LP  0  0  0  0  0  0  0  0  0  0  0  0  # atno 17321 bound_to 7965
  139.8709  144.7069  150.8989 LP  0  0  0  0  0  0  0  0  0  0  0  0  # atno 17342 bound_to 10162
  140.7774  143.3739  151.1598 LP  0  0  0  0  0  0  0  0  0  0  0  0  # atno 17343 bound_to 10162
  157.4527  131.0874  151.0829 LP  0  0  0  0  0  0  0  0  0  0  0  0  # atno 17370 bound_to 10713
  157.1340  130.6114  149.5537 LP  0  0  0  0  0  0  0  0  0  0  0  0  # atno 17371 bound_to 10713
  140.7691  134.3853  157.5511 LP  0  0  0  0  0  0  0  0  0  0  0  0  # atno 17394 bound_to 11000
  139.8829  134.9010  156.2802 LP  0  0  0  0  0  0  0  0  0  0  0  0  # atno 17395 bound_to 11000

$$$$
