AV-unprocessed.smi:1157|AV-procd|sdf|4910|dock8
  -GOLD-   22720 3483D 1   1.00000     0.00000
 Structure written by MMmdl.
 55 57  0  0  0  0  0  0  0  0  4 V2000
  148.5109  133.8196  154.9003 C   0  0  0  0  0  0  0  0  0  0  0  0
  147.5391  135.0285  154.7608 C   0  0  0  0  0  0  0  0  0  0  0  0
  146.4223  134.7898  155.8199 C   0  0  0  0  0  0  0  0  0  0  0  0
  148.2951  136.3856  155.0463 C   0  0  0  0  0  0  0  0  0  0  0  0
  147.3748  137.5261  155.1147 N   0  5  0  0  0  0  0  0  0  0  0  0
  147.7250  138.7946  155.4574 C   0  0  0  0  0  0  0  0  0  0  0  0
  147.1503  139.8445  155.1489 O   0  0  0  0  0  0  0  0  0  0  0  0
  148.8428  138.8239  156.2053 N   0  0  0  0  0  0  0  0  0  0  0  0
  149.5481  139.9454  156.7185 C   0  0  0  0  0  0  0  0  0  0  0  0
  150.4542  139.7245  157.7763 C   0  0  0  0  0  0  0  0  0  0  0  0
  151.1704  140.8086  158.3233 C   0  0  0  0  0  0  0  0  0  0  0  0
  150.9625  142.1125  157.8154 C   0  0  0  0  0  0  0  0  0  0  0  0
  151.6506  143.2396  158.3028 N   0  0  0  0  0  0  0  0  0  0  0  0
  151.3645  144.5810  157.8209 C   0  0  0  0  0  0  0  0  0  0  0  0
  152.2292  145.4927  158.6905 C   0  0  0  0  0  0  0  0  0  0  0  0
  152.2729  144.7555  160.0296 C   0  0  0  0  0  0  0  0  0  0  0  0
  152.2172  143.2722  159.6434 C   0  0  0  0  0  0  0  0  0  0  0  0
  150.0699  142.2810  156.8107 N   0  3  0  0  0  0  0  0  0  0  0  0
  149.3644  141.2705  156.2578 C   0  0  0  0  0  0  0  0  0  0  0  0
  146.9081  134.9781  153.3793 N   0  3  0  0  0  0  0  0  0  0  0  0
  146.5368  133.6351  152.8364 C   0  0  0  0  0  0  0  0  0  0  0  0
  146.1952  133.7344  151.3409 C   0  0  0  0  0  0  0  0  0  0  0  0
  145.1394  134.6654  151.1492 O   0  0  0  0  0  0  0  0  0  0  0  0
  145.5067  135.9707  151.5724 C   0  0  0  0  0  0  0  0  0  0  0  0
  145.8221  135.9610  153.0772 C   0  0  0  0  0  0  0  0  0  0  0  0
  148.8313  133.6626  155.9322 H   0  0  0  0  0  0  0  0  0  0  0  0
  149.4237  133.9189  154.3104 H   0  0  0  0  0  0  0  0  0  0  0  0
  148.0254  132.8940  154.5886 H   0  0  0  0  0  0  0  0  0  0  0  0
  146.8293  134.5878  156.8127 H   0  0  0  0  0  0  0  0  0  0  0  0
  145.8175  133.9212  155.5566 H   0  0  0  0  0  0  0  0  0  0  0  0
  145.7406  135.6339  155.9377 H   0  0  0  0  0  0  0  0  0  0  0  0
  148.8434  136.2894  155.9833 H   0  0  0  0  0  0  0  0  0  0  0  0
  149.0654  136.5211  154.2865 H   0  0  0  0  0  0  0  0  0  0  0  0
  149.2886  137.9286  156.3437 H   0  0  0  0  0  0  0  0  0  0  0  0
  150.6106  138.7273  158.1615 H   0  0  0  0  0  0  0  0  0  0  0  0
  151.8753  140.6240  159.1201 H   0  0  0  0  0  0  0  0  0  0  0  0
  151.6017  144.6902  156.7621 H   0  0  0  0  0  0  0  0  0  0  0  0
  150.3059  144.8016  157.9649 H   0  0  0  0  0  0  0  0  0  0  0  0
  153.2353  145.5565  158.2733 H   0  0  0  0  0  0  0  0  0  0  0  0
  151.8321  146.5049  158.7706 H   0  0  0  0  0  0  0  0  0  0  0  0
  153.1518  145.0055  160.6242 H   0  0  0  0  0  0  0  0  0  0  0  0
  151.3891  145.0140  160.6146 H   0  0  0  0  0  0  0  0  0  0  0  0
  151.6208  142.7045  160.3586 H   0  0  0  0  0  0  0  0  0  0  0  0
  153.2192  142.8428  159.6129 H   0  0  0  0  0  0  0  0  0  0  0  0
  148.6787  141.5666  155.4780 H   0  0  0  0  0  0  0  0  0  0  0  0
  147.3467  132.9166  152.9437 H   0  0  0  0  0  0  0  0  0  0  0  0
  145.6773  133.2304  153.3725 H   0  0  0  0  0  0  0  0  0  0  0  0
  147.0704  134.0307  150.7601 H   0  0  0  0  0  0  0  0  0  0  0  0
  145.8782  132.7619  150.9637 H   0  0  0  0  0  0  0  0  0  0  0  0
  146.3619  136.3279  150.9964 H   0  0  0  0  0  0  0  0  0  0  0  0
  144.6801  136.6511  151.3677 H   0  0  0  0  0  0  0  0  0  0  0  0
  144.9156  135.7106  153.6293 H   0  0  0  0  0  0  0  0  0  0  0  0
  146.1006  136.9728  153.3643 H   0  0  0  0  0  0  0  0  0  0  0  0
  147.6676  135.2733  152.7830 H   0  0  0  0  0  0  0  0  0  0  0  0
  149.9193  143.2230  156.4504 H   0  0  0  0  0  0  0  0  0  0  0  0
  1  2  1  0  0  0  0
  1 26  1  0  0  0  0
  1 27  1  0  0  0  0
  1 28  1  0  0  0  0
  2  3  1  0  0  0  0
  2  4  1  0  0  0  0
  2 20  1  0  0  0  0
  3 29  1  0  0  0  0
  3 30  1  0  0  0  0
  3 31  1  0  0  0  0
  4  5  1  0  0  0  0
  4 32  1  0  0  0  0
  4 33  1  0  0  0  0
  5  6  1  0  0  0  0
  6  7  2  0  0  0  0
  6  8  1  0  0  0  0
  8  9  1  0  0  0  0
  8 34  1  0  0  0  0
  9 19  1  0  0  0  0
  9 10  2  0  0  0  0
 10 11  1  0  0  0  0
 10 35  1  0  0  0  0
 11 12  2  0  0  0  0
 11 36  1  0  0  0  0
 12 13  1  0  0  0  0
 12 18  1  0  0  0  0
 13 17  1  0  0  0  0
 13 14  1  0  0  0  0
 14 15  1  0  0  0  0
 14 37  1  0  0  0  0
 14 38  1  0  0  0  0
 15 16  1  0  0  0  0
 15 39  1  0  0  0  0
 15 40  1  0  0  0  0
 16 17  1  0  0  0  0
 16 41  1  0  0  0  0
 16 42  1  0  0  0  0
 17 43  1  0  0  0  0
 17 44  1  0  0  0  0
 18 19  2  0  0  0  0
 18 55  1  0  0  0  0
 19 45  1  0  0  0  0
 20 25  1  0  0  0  0
 20 21  1  0  0  0  0
 20 54  1  0  0  0  0
 21 22  1  0  0  0  0
 21 46  1  0  0  0  0
 21 47  1  0  0  0  0
 22 23  1  0  0  0  0
 22 48  1  0  0  0  0
 22 49  1  0  0  0  0
 23 24  1  0  0  0  0
 24 25  1  0  0  0  0
 24 50  1  0  0  0  0
 24 51  1  0  0  0  0
 25 52  1  0  0  0  0
 25 53  1  0  0  0  0
M  CHG  1   5  -1
M  CHG  1  18   1
M  CHG  1  20   1
M  END
> <s_m_source_file>
AV-unprocessed.smi

> <i_m_source_file_index>
1157

> <i_lp_mmshare_version>
43012

> <i_f3d_flags>
0

> <s_epik_input>
W0NIMl0xW0NIMl1PW0NIMl1bQ0gyXU4xQyhbQ0gzXSkoW0NIM10pW0NIMl1bTkhdQyg9TylbTkhdYzJbY0hdW2NIXWMobltjSF0yKU4zW0NIMl1bQ0gyXVtDSDJdW0NIMl0z

> <s_epik_cmdline>
J2VwaWtfcHl0aG9uJywgJy1waCcsICc3LjAnLCAnLXRuJywgJzgnLCAnLW1hJywgJzIwMCcsICctbWV0YWxfYmluZGluZycsICctaW1hZScsICc8aW5maWxlLm1hZT4nLCAnLW9tYWUnLCAnPG91dGZpbGUubWFlPic=

> <r_lp_tautomer_probability>
0.999994

> <r_epik_Ionization_Penalty>
8.57565

> <r_epik_Ionization_Penalty_Charging>
8.57565

> <r_epik_Ionization_Penalty_Neutral>
3.57932e-06

> <r_epik_State_Penalty>
8.56988

> <r_epik_Charging_Adjusted_Penalty>
17.1455

> <i_epik_Tot_Q>
1

> <i_epik_Tot_abs_Q>
3

> <r_epik_Metal_State_Penalty>
4.56714

> <b_epik_Metal_Only>
1

> <s_lp_Force_Field>
OPLS_2005

> <r_lp_Energy>
57.9076

> <b_lp_Chiralities_Consistent>
1

> <s_lp_Variant>
AV-unprocessed.smi:1157-5

> <Gold.Version>
5.8.1

> <Gold.Id.Protein>
6NUR|6NUR_protein|mol2

> <Gold.PLP.Fitness>
48.4612

> <Gold.PLP.PLP>
-37.3034

> <Gold.PLP.part.hbond>
-2.0000

> <Gold.PLP.part.metal>
0.0000

> <Gold.PLP.part.buried>
-5.0322

> <Gold.PLP.part.nonpolar>
-29.9287

> <Gold.PLP.part.repulsive>
0.3363

> <Gold.PLP.ligand.clash>
0.0000

> <Gold.PLP.ligand.torsion>
0.6212

> <Gold.PLP.Chemscore.Hbond>
4.0000

> <Gold.PLP.Chemscore.CHOScore>
0.0000

> <Gold.PLP.Chemscore.Metal>
0.0000

> <Gold.Chemscore.Hbonds>
donor molecule, donor type, donor heavy atom, donor atom, acceptor molecule, acceptor atom, score
      L1  H    18    55       P1  8028  2.00
      L1  H    20    54       P1  7948  2.00

> <Gold.PLP.Chemscore.Internal.Correction>
0.4001

> <Gold.Rescore>
     Score         DG    S(hbond)    S(metal)    S(lipo)     H(rot)  DE(clash)    DE(int)     intcor
     17.67     -19.87       1.98        0.00      97.75       1.42       0.03       2.17       ----

> <Gold.Chemscore.Fitness>
17.6717

> <Gold.Chemscore.DG>
-19.8704

> <Gold.Chemscore.ZeroCoef>
-5.4800

> <Gold.Chemscore.Hbond>
1.9760

> <Gold.Chemscore.Metal>
0.0000

> <Gold.Chemscore.Lipo>
97.7488

> <Gold.Chemscore.Internal_Hbond>
0.0000

> <Gold.Chemscore.DEClash>
0.0326

> <Gold.Chemscore.DEInternal>
2.1660

> <Gold.Chemscore.Rot>
1.4243

> <Gold.Chemscore.Internal.Correction>
   9.000000E+99

> <Gold.Chemscore.Hbonds>
donor molecule, donor type, donor heavy atom, donor atom, acceptor molecule, acceptor atom, score
      L1  H    18    55       P1  8028  0.96
      L1  H    20    54       P1  7948  1.00

> <Gold.Chemscore.Hbond.Weighted>
-6.5999

> <Gold.Chemscore.Metal.Weighted>
-0.0000

> <Gold.Chemscore.Lipo.Weighted>
-11.4366

> <Gold.Chemscore.Internal_Hbond.Weighted>
0.0000

> <Gold.Chemscore.DEClash.Weighted>
0.0326

> <Gold.Chemscore.DEInternal.Weighted>
2.1660

> <Gold.Chemscore.Rot.Weighted>
3.6462

> <Gold.Chemscore.Internal.Correction.Weighted>
   9.000000E+99

> <Gold.Protein.RotatedTorsions>
[ 6907 6896 6895 6894 ] final  120.40 input  -60.11 | X-H torsion
[ 7974 7965 7964 7962 ] final  141.80 input  175.53 | X-H torsion
[ 8008 7997 7996 7995 ] final -117.84 input   59.86 | X-H torsion
[ 10167 10162 10161 10158 ] final  -77.00 input  -65.29 | X-H torsion
[ 10718 10713 10712 10709 ] final   82.99 input   66.30 | X-H torsion
[ 10763 10752 10751 10750 ] final  -90.72 input  -60.55 | X-H torsion
[ 11005 11000 10999 10996 ] final -178.84 input  -57.11 | X-H torsion

> <Gold.Protein.ActiveResidues>
 VAL166  LYS551  ARG553  GLY616  TRP617  ASP618  TYR619  PRO620  LYS621  CYS622 
 ASP623  PHE694  ASN695  SER759  ASP760  ASP761  ALA762  ILE779  LEU786  VAL792 
 PHE793  MET794  SER795  GLU796  ALA797  LYS798  CYS799  TRP800  GLU811  SER814 

> <Gold.Protein.RotatedAtoms>
  152.4401  133.7432  159.6652 H   0  0  0  0  0  0  0  0  0  0  0  0  # atno 6907 bound_to 6896
  150.8290  133.8112  159.3112 H   0  0  0  0  0  0  0  0  0  0  0  0  # atno 6908 bound_to 6896
  151.5771  135.1062  160.0060 H   0  0  0  0  0  0  0  0  0  0  0  0  # atno 6909 bound_to 6896
  144.9064  139.5352  143.5729 H   0  0  0  0  0  0  0  0  0  0  0  0  # atno 7974 bound_to 7965
  155.0901  140.0395  157.2666 H   0  0  0  0  0  0  0  0  0  0  0  0  # atno 8008 bound_to 7997
  154.6838  140.2639  155.6856 H   0  0  0  0  0  0  0  0  0  0  0  0  # atno 8009 bound_to 7997
  156.2704  140.2773  156.1392 H   0  0  0  0  0  0  0  0  0  0  0  0  # atno 8010 bound_to 7997
  140.4808  143.2403  151.8061 H   0  0  0  0  0  0  0  0  0  0  0  0  # atno 10167 bound_to 10162
  157.6869  131.0072  150.2457 H   0  0  0  0  0  0  0  0  0  0  0  0  # atno 10718 bound_to 10713
  154.6687  135.5294  153.8110 H   0  0  0  0  0  0  0  0  0  0  0  0  # atno 10763 bound_to 10752
  153.0487  135.6523  154.0758 H   0  0  0  0  0  0  0  0  0  0  0  0  # atno 10764 bound_to 10752
  154.0659  135.2958  155.3296 H   0  0  0  0  0  0  0  0  0  0  0  0  # atno 10765 bound_to 10752
  140.4253  134.6568  157.4685 H   0  0  0  0  0  0  0  0  0  0  0  0  # atno 11005 bound_to 11000
  146.3136  139.7835  142.9001 LP  0  0  0  0  0  0  0  0  0  0  0  0  # atno 17320 bound_to 7965
  145.3528  141.0311  143.3329 LP  0  0  0  0  0  0  0  0  0  0  0  0  # atno 17321 bound_to 7965
  139.4833  144.4775  151.9349 LP  0  0  0  0  0  0  0  0  0  0  0  0  # atno 17342 bound_to 10162
  140.3860  144.2676  150.5904 LP  0  0  0  0  0  0  0  0  0  0  0  0  # atno 17343 bound_to 10162
  156.3063  130.3765  149.7703 LP  0  0  0  0  0  0  0  0  0  0  0  0  # atno 17370 bound_to 10713
  156.5317  130.8260  151.3239 LP  0  0  0  0  0  0  0  0  0  0  0  0  # atno 17371 bound_to 10713
  140.0171  134.6602  155.9293 LP  0  0  0  0  0  0  0  0  0  0  0  0  # atno 17394 bound_to 11000
  141.1767  133.6541  156.4858 LP  0  0  0  0  0  0  0  0  0  0  0  0  # atno 17395 bound_to 11000

$$$$
