AV-unprocessed.smi:1381|AV-procd|sdf|5616|dock1
  -GOLD-   22720 5223D 1   1.00000     0.00000
 Structure written by MMmdl.
 42 43  0  0  0  0  0  0  0  0  3 V2000
  146.9781  135.9688  162.8656 C   0  0  0  0  0  0  0  0  0  0  0  0
  147.3663  135.9678  161.4268 C   0  0  0  0  0  0  0  0  0  0  0  0
  147.7426  134.9749  160.5667 C   0  0  0  0  0  0  0  0  0  0  0  0
  147.9741  135.6729  159.3516 C   0  0  0  0  0  0  0  0  0  0  0  0
  148.3942  134.9783  158.1864 N   0  0  0  0  0  0  0  0  0  0  0  0
  148.3707  135.3897  156.9054 C   0  0  0  0  0  0  0  0  0  0  0  0
  147.9269  136.5073  156.6157 O   0  0  0  0  0  0  0  0  0  0  0  0
  148.8663  134.4505  156.0527 N   0  5  0  0  0  0  0  0  0  0  0  0
  148.9458  134.6007  154.6003 C   0  0  0  0  0  0  0  0  0  0  0  0
  148.2259  133.4318  153.9024 C   0  0  0  0  0  0  0  0  0  0  0  0
  147.3863  133.9202  152.7786 N   0  3  1  0  0  0  0  0  0  0  0  0
  146.9698  132.8511  151.8397 C   0  0  0  0  0  0  0  0  0  0  0  0
  146.1930  133.4545  150.6549 C   0  0  1  0  0  0  0  0  0  0  0  0
  145.6761  132.3786  149.6938 C   0  0  0  0  0  0  0  0  0  0  0  0
  145.0744  134.1808  151.1540 O   0  0  0  0  0  0  0  0  0  0  0  0
  145.4543  135.2664  151.9939 C   0  0  1  0  0  0  0  0  0  0  0  0
  144.1857  136.0263  152.3962 C   0  0  0  0  0  0  0  0  0  0  0  0
  146.2133  134.7156  153.2153 C   0  0  0  0  0  0  0  0  0  0  0  0
  147.7572  136.9753  159.4614 N   0  0  0  0  0  0  0  0  0  0  0  0
  147.3676  137.1708  160.7916 O   0  0  0  0  0  0  0  0  0  0  0  0
  146.5828  134.9972  163.1618 H   0  0  0  0  0  0  0  0  0  0  0  0
  146.2114  136.7186  163.0623 H   0  0  0  0  0  0  0  0  0  0  0  0
  147.8391  136.1907  163.4960 H   0  0  0  0  0  0  0  0  0  0  0  0
  147.8374  133.9197  160.7753 H   0  0  0  0  0  0  0  0  0  0  0  0
  148.7644  134.0526  158.3416 H   0  0  0  0  0  0  0  0  0  0  0  0
  148.5160  135.5430  154.2574 H   0  0  0  0  0  0  0  0  0  0  0  0
  149.9836  134.6197  154.2665 H   0  0  0  0  0  0  0  0  0  0  0  0
  148.9647  132.7148  153.5403 H   0  0  0  0  0  0  0  0  0  0  0  0
  147.6121  132.8867  154.6217 H   0  0  0  0  0  0  0  0  0  0  0  0
  147.8514  132.3229  151.4739 H   0  0  0  0  0  0  0  0  0  0  0  0
  146.3527  132.1220  152.3675 H   0  0  0  0  0  0  0  0  0  0  0  0
  146.8413  134.1333  150.0979 H   0  0  0  0  0  0  0  0  0  0  0  0
  146.4991  131.8017  149.2709 H   0  0  0  0  0  0  0  0  0  0  0  0
  145.1267  132.8276  148.8661 H   0  0  0  0  0  0  0  0  0  0  0  0
  145.0060  131.6839  150.2008 H   0  0  0  0  0  0  0  0  0  0  0  0
  146.1011  135.9441  151.4338 H   0  0  0  0  0  0  0  0  0  0  0  0
  144.4243  136.8786  153.0330 H   0  0  0  0  0  0  0  0  0  0  0  0
  143.4960  135.3824  152.9428 H   0  0  0  0  0  0  0  0  0  0  0  0
  143.6626  136.4046  151.5176 H   0  0  0  0  0  0  0  0  0  0  0  0
  145.5544  134.0902  153.8200 H   0  0  0  0  0  0  0  0  0  0  0  0
  146.5461  135.5396  153.8486 H   0  0  0  0  0  0  0  0  0  0  0  0
  147.9777  134.5464  152.2508 H   0  0  0  0  0  0  0  0  0  0  0  0
  1  2  1  0  0  0  0
  1 21  1  0  0  0  0
  1 22  1  0  0  0  0
  1 23  1  0  0  0  0
  2 20  1  0  0  0  0
  2  3  2  0  0  0  0
  3  4  1  0  0  0  0
  3 24  1  0  0  0  0
  4  5  1  0  0  0  0
  4 19  2  0  0  0  0
  5  6  1  0  0  0  0
  5 25  1  0  0  0  0
  6  7  2  0  0  0  0
  6  8  1  0  0  0  0
  8  9  1  0  0  0  0
  9 10  1  0  0  0  0
  9 26  1  0  0  0  0
  9 27  1  0  0  0  0
 10 11  1  0  0  0  0
 10 28  1  0  0  0  0
 10 29  1  0  0  0  0
 11 18  1  0  0  0  0
 11 12  1  0  0  0  0
 11 42  1  0  0  0  0
 12 13  1  0  0  0  0
 12 30  1  0  0  0  0
 12 31  1  0  0  0  0
 13 14  1  0  0  0  0
 13 15  1  0  0  0  0
 13 32  1  0  0  0  0
 14 33  1  0  0  0  0
 14 34  1  0  0  0  0
 14 35  1  0  0  0  0
 15 16  1  0  0  0  0
 16 17  1  0  0  0  0
 16 18  1  0  0  0  0
 16 36  1  0  0  0  0
 17 37  1  0  0  0  0
 17 38  1  0  0  0  0
 17 39  1  0  0  0  0
 18 40  1  0  0  0  0
 18 41  1  0  0  0  0
 19 20  1  0  0  0  0
M  CHG  1   8  -1
M  CHG  1  11   1
M  END
> <s_m_source_file>
AV-unprocessed.smi

> <i_m_source_file_index>
1381

> <i_lp_mmshare_version>
43012

> <i_f3d_flags>
0

> <s_epik_input>
W0NIM11jMVtjSF1jKG5vMSlbTkhdQyg9TylbTkhdW0NIMl1bQ0gyXU4yW0NIMl1bQ0BASF0oW0NIM10pT1tDQEBIXShbQ0gzXSlbQ0gyXTI=

> <s_epik_cmdline>
J2VwaWtfcHl0aG9uJywgJy1waCcsICc3LjAnLCAnLXRuJywgJzgnLCAnLW1hJywgJzIwMCcsICctbWV0YWxfYmluZGluZycsICctaW1hZScsICc8aW5maWxlLm1hZT4nLCAnLW9tYWUnLCAnPG91dGZpbGUubWFlPic=

> <r_epik_Ionization_Penalty>
6.8073

> <r_epik_Ionization_Penalty_Charging>
6.80729

> <r_epik_Ionization_Penalty_Neutral>
5.65391e-06

> <r_epik_State_Penalty>
7.47323

> <r_epik_Charging_Adjusted_Penalty>
14.2805

> <i_epik_Tot_Q>
0

> <i_epik_Tot_abs_Q>
2

> <r_epik_Metal_State_Penalty>
3.40035

> <b_epik_Metal_Only>
1

> <s_lp_Force_Field>
OPLS_2005

> <r_lp_Energy>
11.4992

> <b_lp_Chiralities_Consistent>
1

> <s_lp_Variant>
AV-unprocessed.smi:1381-15

> <Gold.Version>
5.8.1

> <Gold.Id.Protein>
6NUR|6NUR_protein|mol2

> <Gold.PLP.Fitness>
40.8021

> <Gold.PLP.PLP>
-30.4519

> <Gold.PLP.part.hbond>
-3.0000

> <Gold.PLP.part.metal>
0.0000

> <Gold.PLP.part.buried>
-3.5419

> <Gold.PLP.part.nonpolar>
-24.5268

> <Gold.PLP.part.repulsive>
0.2486

> <Gold.PLP.ligand.clash>
0.0000

> <Gold.PLP.ligand.torsion>
0.4662

> <Gold.PLP.Chemscore.Hbond>
3.7280

> <Gold.PLP.Chemscore.CHOScore>
0.0000

> <Gold.PLP.Chemscore.Metal>
0.0000

> <Gold.Chemscore.Hbonds>
donor molecule, donor type, donor heavy atom, donor atom, acceptor molecule, acceptor atom, score
      L1  H    11    42       P1  7948  2.00
      P1  H  6931  6943       L1    20  0.31
      P1  H  6934  6947       L1    20  1.00

> <Gold.PLP.Chemscore.Internal.Correction>
0.0985

> <Gold.Rescore>
     Score         DG    S(hbond)    S(metal)    S(lipo)     H(rot)  DE(clash)    DE(int)     intcor
     13.66     -15.51       1.91        0.00      65.71       1.58       0.03       1.82       ----

> <Gold.Chemscore.Fitness>
13.6569

> <Gold.Chemscore.DG>
-15.5057

> <Gold.Chemscore.ZeroCoef>
-5.4800

> <Gold.Chemscore.Hbond>
1.9103

> <Gold.Chemscore.Metal>
0.0000

> <Gold.Chemscore.Lipo>
65.7101

> <Gold.Chemscore.Internal_Hbond>
0.0000

> <Gold.Chemscore.DEClash>
0.0291

> <Gold.Chemscore.DEInternal>
1.8196

> <Gold.Chemscore.Rot>
1.5792

> <Gold.Chemscore.Internal.Correction>
   9.000000E+99

> <Gold.Chemscore.Hbonds>
donor molecule, donor type, donor heavy atom, donor atom, acceptor molecule, acceptor atom, score
      L1  H    11    42       P1  7948  0.34
      P1  H  6931  6943       L1    20  0.08
      P1  H  6934  6947       L1    20  0.44

> <Gold.Chemscore.Hbond.Weighted>
-6.3805

> <Gold.Chemscore.Metal.Weighted>
-0.0000

> <Gold.Chemscore.Lipo.Weighted>
-7.6881

> <Gold.Chemscore.Internal_Hbond.Weighted>
0.0000

> <Gold.Chemscore.DEClash.Weighted>
0.0291

> <Gold.Chemscore.DEInternal.Weighted>
1.8196

> <Gold.Chemscore.Rot.Weighted>
4.0428

> <Gold.Chemscore.Internal.Correction.Weighted>
   9.000000E+99

> <Gold.Protein.RotatedTorsions>
[ 6907 6896 6895 6894 ] final  -76.09 input  -60.11 | X-H torsion
[ 7974 7965 7964 7962 ] final   10.10 input  175.53 | X-H torsion
[ 8008 7997 7996 7995 ] final   35.52 input   59.86 | X-H torsion
[ 10167 10162 10161 10158 ] final  175.18 input  -65.29 | X-H torsion
[ 10718 10713 10712 10709 ] final   79.29 input   66.30 | X-H torsion
[ 10763 10752 10751 10750 ] final  -31.18 input  -60.55 | X-H torsion
[ 11005 11000 10999 10996 ] final   44.53 input  -57.11 | X-H torsion

> <Gold.Protein.ActiveResidues>
 VAL166  LYS551  ARG553  GLY616  TRP617  ASP618  TYR619  PRO620  LYS621  CYS622 
 ASP623  PHE694  ASN695  SER759  ASP760  ASP761  ALA762  ILE779  LEU786  VAL792 
 PHE793  MET794  SER795  GLU796  ALA797  LYS798  CYS799  TRP800  GLU811  SER814 

> <Gold.Protein.RotatedAtoms>
  150.7038  134.4624  159.5386 H   0  0  0  0  0  0  0  0  0  0  0  0  # atno 6907 bound_to 6896
  152.2296  134.8332  160.0484 H   0  0  0  0  0  0  0  0  0  0  0  0  # atno 6908 bound_to 6896
  151.9153  133.3536  159.3914 H   0  0  0  0  0  0  0  0  0  0  0  0  # atno 6909 bound_to 6896
  146.2393  139.9685  142.8450 H   0  0  0  0  0  0  0  0  0  0  0  0  # atno 7974 bound_to 7965
  155.1724  140.3293  155.4390 H   0  0  0  0  0  0  0  0  0  0  0  0  # atno 8008 bound_to 7997
  156.2505  140.1941  156.6777 H   0  0  0  0  0  0  0  0  0  0  0  0  # atno 8009 bound_to 7997
  154.6328  140.0580  156.9739 H   0  0  0  0  0  0  0  0  0  0  0  0  # atno 8010 bound_to 7997
  139.5168  144.3061  152.0334 H   0  0  0  0  0  0  0  0  0  0  0  0  # atno 10167 bound_to 10162
  157.6772  130.9907  150.1911 H   0  0  0  0  0  0  0  0  0  0  0  0  # atno 10718 bound_to 10713
  153.7931  135.6896  153.4868 H   0  0  0  0  0  0  0  0  0  0  0  0  # atno 10763 bound_to 10752
  153.1737  135.4533  154.9935 H   0  0  0  0  0  0  0  0  0  0  0  0  # atno 10764 bound_to 10752
  154.8036  135.3348  154.7425 H   0  0  0  0  0  0  0  0  0  0  0  0  # atno 10765 bound_to 10752
  140.1543  134.4422  155.8360 H   0  0  0  0  0  0  0  0  0  0  0  0  # atno 11005 bound_to 11000
  145.1704  140.9718  143.4325 LP  0  0  0  0  0  0  0  0  0  0  0  0  # atno 17320 bound_to 7965
  145.0034  139.3577  143.6156 LP  0  0  0  0  0  0  0  0  0  0  0  0  # atno 17321 bound_to 7965
  140.2507  144.4171  150.6223 LP  0  0  0  0  0  0  0  0  0  0  0  0  # atno 17342 bound_to 10162
  140.6226  143.2178  151.6662 LP  0  0  0  0  0  0  0  0  0  0  0  0  # atno 17343 bound_to 10162
  156.2622  130.3712  149.8118 LP  0  0  0  0  0  0  0  0  0  0  0  0  # atno 17370 bound_to 10713
  156.5860  130.8486  151.3395 LP  0  0  0  0  0  0  0  0  0  0  0  0  # atno 17371 bound_to 10713
  141.2202  133.6885  156.7478 LP  0  0  0  0  0  0  0  0  0  0  0  0  # atno 17394 bound_to 11000
  140.2567  134.8499  157.3719 LP  0  0  0  0  0  0  0  0  0  0  0  0  # atno 17395 bound_to 11000

$$$$
