AV-unprocessed.smi:2954|AV-procd|sdf|11299|dock6
  -GOLD-   2272016193D 1   1.00000     0.00000
 Structure written by MMmdl.
 43 45  0  0  0  0  0  0  0  0  2 V2000
  152.8006  138.8357  154.6693 C   0  0  0  0  0  0  0  0  0  0  0  0
  151.4959  138.1792  155.1409 C   0  0  2  0  0  0  0  0  0  0  0  0
  151.4164  136.8167  154.6281 N   0  0  0  0  0  0  0  0  0  0  0  0
  150.4507  135.9483  154.9529 C   0  0  0  0  0  0  0  0  0  0  0  0
  149.5350  136.2207  155.7244 O   0  0  0  0  0  0  0  0  0  0  0  0
  150.3129  139.0061  154.7286 C   0  0  0  0  0  0  0  0  0  0  0  0
  149.3026  138.5974  153.9080 N   0  3  0  0  0  0  0  0  0  0  0  0
  148.3949  139.6385  153.7166 C   0  0  0  0  0  0  0  0  0  0  0  0
  147.2265  139.7001  152.9636 C   0  0  0  0  0  0  0  0  0  0  0  0
  146.5340  140.9284  152.9694 C   0  0  0  0  0  0  0  0  0  0  0  0
  147.0069  142.0338  153.7055 C   0  0  0  0  0  0  0  0  0  0  0  0
  148.1903  141.9571  154.4689 C   0  0  0  0  0  0  0  0  0  0  0  0
  148.8704  140.7388  154.4583 C   0  0  0  0  0  0  0  0  0  0  0  0
  150.0534  140.3024  155.0697 N   0  0  0  0  0  0  0  0  0  0  0  0
  150.8200  141.2395  155.9072 C   0  0  0  0  0  0  0  0  0  0  0  0
  150.0789  141.5809  157.2077 C   0  0  0  0  0  0  0  0  0  0  0  0
  150.7694  142.6327  157.8682 O   0  0  0  0  0  0  0  0  0  0  0  0
  151.6983  142.3109  158.8335 C   0  0  0  0  0  0  0  0  0  0  0  0
  152.1501  140.9907  159.0851 C   0  0  0  0  0  0  0  0  0  0  0  0
  153.1032  140.7427  160.0917 C   0  0  0  0  0  0  0  0  0  0  0  0
  153.6141  141.8058  160.8585 C   0  0  0  0  0  0  0  0  0  0  0  0
  153.1706  143.1189  160.6177 C   0  0  0  0  0  0  0  0  0  0  0  0
  152.2178  143.3700  159.6110 C   0  0  0  0  0  0  0  0  0  0  0  0
  151.6950  144.9923  159.3279 Cl  0  0  0  0  0  0  0  0  0  0  0  0
  152.9031  139.8414  155.0781 H   0  0  0  0  0  0  0  0  0  0  0  0
  152.8389  138.9142  153.5821 H   0  0  0  0  0  0  0  0  0  0  0  0
  153.6688  138.2604  154.9924 H   0  0  0  0  0  0  0  0  0  0  0  0
  151.5275  138.1245  156.2296 H   0  0  0  0  0  0  0  0  0  0  0  0
  152.1419  136.5132  153.9947 H   0  0  0  0  0  0  0  0  0  0  0  0
  150.5854  134.9771  154.4510 H   0  0  0  0  0  0  0  0  0  0  0  0
  146.8647  138.8560  152.3951 H   0  0  0  0  0  0  0  0  0  0  0  0
  145.6239  141.0257  152.3950 H   0  0  0  0  0  0  0  0  0  0  0  0
  146.4534  142.9614  153.6820 H   0  0  0  0  0  0  0  0  0  0  0  0
  148.5454  142.8153  155.0196 H   0  0  0  0  0  0  0  0  0  0  0  0
  151.8007  140.8148  156.1196 H   0  0  0  0  0  0  0  0  0  0  0  0
  151.0057  142.1428  155.3263 H   0  0  0  0  0  0  0  0  0  0  0  0
  149.0541  141.8801  156.9837 H   0  0  0  0  0  0  0  0  0  0  0  0
  150.0411  140.6951  157.8435 H   0  0  0  0  0  0  0  0  0  0  0  0
  151.7775  140.1494  158.5210 H   0  0  0  0  0  0  0  0  0  0  0  0
  153.4422  139.7340  160.2766 H   0  0  0  0  0  0  0  0  0  0  0  0
  154.3448  141.6144  161.6305 H   0  0  0  0  0  0  0  0  0  0  0  0
  153.5638  143.9351  161.2059 H   0  0  0  0  0  0  0  0  0  0  0  0
  149.2458  137.6715  153.5039 H   0  0  0  0  0  0  0  0  0  0  0  0
  1  2  1  0  0  0  0
  1 25  1  0  0  0  0
  1 26  1  0  0  0  0
  1 27  1  0  0  0  0
  2  3  1  0  0  0  0
  2  6  1  0  0  0  0
  2 28  1  0  0  0  0
  3  4  1  0  0  0  0
  3 29  1  0  0  0  0
  4  5  2  0  0  0  0
  4 30  1  0  0  0  0
  6 14  1  0  0  0  0
  6  7  2  0  0  0  0
  7  8  1  0  0  0  0
  7 43  1  0  0  0  0
  8 13  2  0  0  0  0
  8  9  1  0  0  0  0
  9 10  2  0  0  0  0
  9 31  1  0  0  0  0
 10 11  1  0  0  0  0
 10 32  1  0  0  0  0
 11 12  2  0  0  0  0
 11 33  1  0  0  0  0
 12 13  1  0  0  0  0
 12 34  1  0  0  0  0
 13 14  1  0  0  0  0
 14 15  1  0  0  0  0
 15 16  1  0  0  0  0
 15 35  1  0  0  0  0
 15 36  1  0  0  0  0
 16 17  1  0  0  0  0
 16 37  1  0  0  0  0
 16 38  1  0  0  0  0
 17 18  1  0  0  0  0
 18 23  1  0  0  0  0
 18 19  2  0  0  0  0
 19 20  1  0  0  0  0
 19 39  1  0  0  0  0
 20 21  2  0  0  0  0
 20 40  1  0  0  0  0
 21 22  1  0  0  0  0
 21 41  1  0  0  0  0
 22 23  2  0  0  0  0
 22 42  1  0  0  0  0
 23 24  1  0  0  0  0
M  CHG  1   7   1
M  END
> <s_m_source_file>
AV-unprocessed.smi

> <i_m_source_file_index>
2954

> <i_lp_mmshare_version>
43012

> <i_f3d_flags>
0

> <s_epik_input>
Tz1bQ0hdW05IXVtDQEBIXShbQ0gzXSljKG4xKW4oYyhjMTIpW2NIXVtjSF1bY0hdW2NIXTIpW0NIMl1bQ0gyXU9jM1tjSF1bY0hdW2NIXVtjSF1jM0Ns

> <s_epik_cmdline>
J2VwaWtfcHl0aG9uJywgJy1waCcsICc3LjAnLCAnLXRuJywgJzgnLCAnLW1hJywgJzIwMCcsICctbWV0YWxfYmluZGluZycsICctaW1hZScsICc8aW5maWxlLm1hZT4nLCAnLW9tYWUnLCAnPG91dGZpbGUubWFlPic=

> <r_lp_tautomer_probability>
1

> <r_epik_Ionization_Penalty>
1.18508

> <r_epik_Ionization_Penalty_Charging>
1.18508

> <r_epik_Ionization_Penalty_Neutral>
5.5802e-08

> <r_epik_State_Penalty>
1.24934

> <r_epik_Charging_Adjusted_Penalty>
2.43443

> <i_epik_Tot_Q>
1

> <i_epik_Tot_abs_Q>
1

> <r_epik_Metal_State_Penalty>
1.32564

> <b_epik_Metal_Only>
0

> <s_lp_Force_Field>
OPLS_2005

> <r_lp_Energy>
16.9753

> <b_lp_Chiralities_Consistent>
1

> <s_lp_Variant>
AV-unprocessed.smi:2954-3

> <Gold.Version>
5.8.1

> <Gold.Id.Protein>
6NUR|6NUR_protein|mol2

> <Gold.PLP.Fitness>
56.4992

> <Gold.PLP.PLP>
-51.2721

> <Gold.PLP.part.hbond>
-2.7726

> <Gold.PLP.part.metal>
0.0000

> <Gold.PLP.part.buried>
0.3030

> <Gold.PLP.part.nonpolar>
-51.0351

> <Gold.PLP.part.repulsive>
2.1958

> <Gold.PLP.ligand.clash>
0.0000

> <Gold.PLP.ligand.torsion>
0.4207

> <Gold.PLP.Chemscore.Hbond>
2.0000

> <Gold.PLP.Chemscore.CHOScore>
0.0000

> <Gold.PLP.Chemscore.Metal>
0.0000

> <Gold.Chemscore.Hbonds>
donor molecule, donor type, donor heavy atom, donor atom, acceptor molecule, acceptor atom, score
      L1  H     7    43       P1  7948  1.27

> <Gold.PLP.Chemscore.Internal.Correction>
0.0685

> <Gold.Rescore>
     Score         DG    S(hbond)    S(metal)    S(lipo)     H(rot)  DE(clash)    DE(int)     intcor
     16.92     -19.42       0.89        0.00     145.07       2.35       1.87       0.63       ----

> <Gold.Chemscore.Fitness>
16.9157

> <Gold.Chemscore.DG>
-19.4177

> <Gold.Chemscore.ZeroCoef>
-5.4800

> <Gold.Chemscore.Hbond>
0.8897

> <Gold.Chemscore.Metal>
0.0000

> <Gold.Chemscore.Lipo>
145.0744

> <Gold.Chemscore.Internal_Hbond>
0.0000

> <Gold.Chemscore.DEClash>
1.8688

> <Gold.Chemscore.DEInternal>
0.6332

> <Gold.Chemscore.Rot>
2.3467

> <Gold.Chemscore.Internal.Correction>
   9.000000E+99

> <Gold.Chemscore.Hbonds>
donor molecule, donor type, donor heavy atom, donor atom, acceptor molecule, acceptor atom, score
      L1  H     7    43       P1  7948  0.61

> <Gold.Chemscore.Hbond.Weighted>
-2.9716

> <Gold.Chemscore.Metal.Weighted>
-0.0000

> <Gold.Chemscore.Lipo.Weighted>
-16.9737

> <Gold.Chemscore.Internal_Hbond.Weighted>
0.0000

> <Gold.Chemscore.DEClash.Weighted>
1.8688

> <Gold.Chemscore.DEInternal.Weighted>
0.6332

> <Gold.Chemscore.Rot.Weighted>
6.0077

> <Gold.Chemscore.Internal.Correction.Weighted>
   9.000000E+99

> <Gold.Protein.RotatedTorsions>
[ 6907 6896 6895 6894 ] final  159.09 input  -60.11 | X-H torsion
[ 7974 7965 7964 7962 ] final  -88.22 input  175.53 | X-H torsion
[ 8008 7997 7996 7995 ] final   59.87 input   59.86 | X-H torsion
[ 10167 10162 10161 10158 ] final -163.37 input  -65.29 | X-H torsion
[ 10718 10713 10712 10709 ] final   40.81 input   66.30 | X-H torsion
[ 10763 10752 10751 10750 ] final -164.17 input  -60.55 | X-H torsion
[ 11005 11000 10999 10996 ] final -156.54 input  -57.11 | X-H torsion

> <Gold.Protein.ActiveResidues>
 VAL166  LYS551  ARG553  GLY616  TRP617  ASP618  TYR619  PRO620  LYS621  CYS622 
 ASP623  PHE694  ASN695  SER759  ASP760  ASP761  ALA762  ILE779  LEU786  VAL792 
 PHE793  MET794  SER795  GLU796  ALA797  LYS798  CYS799  TRP800  GLU811  SER814 

> <Gold.Protein.RotatedAtoms>
  151.9908  133.3790  159.4143 H   0  0  0  0  0  0  0  0  0  0  0  0  # atno 6907 bound_to 6896
  150.6922  134.3939  159.5098 H   0  0  0  0  0  0  0  0  0  0  0  0  # atno 6908 bound_to 6896
  152.1672  134.8864  160.0588 H   0  0  0  0  0  0  0  0  0  0  0  0  # atno 6909 bound_to 6896
  145.4561  140.9561  143.1995 H   0  0  0  0  0  0  0  0  0  0  0  0  # atno 7974 bound_to 7965
  155.5732  140.3490  155.4521 H   0  0  0  0  0  0  0  0  0  0  0  0  # atno 8008 bound_to 7997
  156.0428  140.1300  157.0162 H   0  0  0  0  0  0  0  0  0  0  0  0  # atno 8009 bound_to 7997
  154.4399  140.1020  156.6248 H   0  0  0  0  0  0  0  0  0  0  0  0  # atno 8010 bound_to 7997
  139.6326  144.0411  152.2028 H   0  0  0  0  0  0  0  0  0  0  0  0  # atno 10167 bound_to 10162
  157.3864  130.7782  149.7234 H   0  0  0  0  0  0  0  0  0  0  0  0  # atno 10718 bound_to 10713
  154.7053  135.2996  154.9279 H   0  0  0  0  0  0  0  0  0  0  0  0  # atno 10763 bound_to 10752
  154.0198  135.6684  153.4775 H   0  0  0  0  0  0  0  0  0  0  0  0  # atno 10764 bound_to 10752
  153.0712  135.5059  154.8220 H   0  0  0  0  0  0  0  0  0  0  0  0  # atno 10765 bound_to 10752
  140.6745  134.4212  157.5230 H   0  0  0  0  0  0  0  0  0  0  0  0  # atno 11005 bound_to 11000
  144.8031  139.6102  143.7063 LP  0  0  0  0  0  0  0  0  0  0  0  0  # atno 17320 bound_to 7965
  146.2477  139.6133  142.9448 LP  0  0  0  0  0  0  0  0  0  0  0  0  # atno 17321 bound_to 7965
  140.0080  144.6244  150.7672 LP  0  0  0  0  0  0  0  0  0  0  0  0  # atno 17342 bound_to 10162
  140.7447  143.2865  151.3449 LP  0  0  0  0  0  0  0  0  0  0  0  0  # atno 17343 bound_to 10162
  155.9787  130.4047  150.3629 LP  0  0  0  0  0  0  0  0  0  0  0  0  # atno 17370 bound_to 10713
  157.1739  131.0375  151.2782 LP  0  0  0  0  0  0  0  0  0  0  0  0  # atno 17371 bound_to 10713
  139.8971  134.8644  156.2058 LP  0  0  0  0  0  0  0  0  0  0  0  0  # atno 17394 bound_to 11000
  141.0366  133.6960  156.1524 LP  0  0  0  0  0  0  0  0  0  0  0  0  # atno 17395 bound_to 11000

$$$$
