AV-unprocessed.smi:3176|AV-procd|sdf|12127|dock10
  -GOLD-   2272017563D 1   1.00000     0.00000
 Structure written by MMmdl.
 33 34  0  0  0  0  0  0  0  0  2 V2000
  152.6002  139.9258  155.0869 O   0  0  0  0  0  0  0  0  0  0  0  0
  151.5450  139.3758  155.4027 C   0  0  0  0  0  0  0  0  0  0  0  0
  150.8492  139.7130  156.4997 N   0  0  0  0  0  0  0  0  0  0  0  0
  151.2648  140.6978  157.4937 C   0  0  0  0  0  0  0  0  0  0  0  0
  151.2923  142.1354  156.9346 C   0  0  0  0  0  0  0  0  0  0  0  0
  151.4863  143.1984  158.0027 C   0  0  0  0  0  0  0  0  0  0  0  0
  152.4440  143.0622  159.0316 C   0  0  0  0  0  0  0  0  0  0  0  0
  152.5592  144.0757  160.0051 C   0  0  0  0  0  0  0  0  0  0  0  0
  151.7174  145.2047  159.9281 C   0  0  0  0  0  0  0  0  0  0  0  0
  150.7809  145.2913  158.8776 C   0  0  0  0  0  0  0  0  0  0  0  0
  150.7001  144.2984  157.9646 N   0  3  0  0  0  0  0  0  0  0  0  0
  150.9549  138.2404  154.5487 C   0  0  1  0  0  0  0  0  0  0  0  0
  151.0070  136.8536  155.2102 C   0  0  0  0  0  0  0  0  0  0  0  0
  149.6801  136.7810  155.9333 C   0  0  0  0  0  0  0  0  0  0  0  0
  148.7633  137.4871  154.9431 C   0  0  0  0  0  0  0  0  0  0  0  0
  149.5630  138.5020  154.3428 O   0  0  0  0  0  0  0  0  0  0  0  0
  149.9860  139.2189  156.6767 H   0  0  0  0  0  0  0  0  0  0  0  0
  150.6242  140.6419  158.3751 H   0  0  0  0  0  0  0  0  0  0  0  0
  152.2659  140.4189  157.8228 H   0  0  0  0  0  0  0  0  0  0  0  0
  152.0947  142.2274  156.2014 H   0  0  0  0  0  0  0  0  0  0  0  0
  150.3679  142.3378  156.3923 H   0  0  0  0  0  0  0  0  0  0  0  0
  153.0766  142.1875  159.0804 H   0  0  0  0  0  0  0  0  0  0  0  0
  153.2825  143.9864  160.8023 H   0  0  0  0  0  0  0  0  0  0  0  0
  151.7888  145.9921  160.6642 H   0  0  0  0  0  0  0  0  0  0  0  0
  150.0977  146.1172  158.7423 H   0  0  0  0  0  0  0  0  0  0  0  0
  151.4751  138.2276  153.5903 H   0  0  0  0  0  0  0  0  0  0  0  0
  151.0511  136.0823  154.4403 H   0  0  0  0  0  0  0  0  0  0  0  0
  151.8578  136.6952  155.8739 H   0  0  0  0  0  0  0  0  0  0  0  0
  149.3656  135.7606  156.1531 H   0  0  0  0  0  0  0  0  0  0  0  0
  149.7287  137.3356  156.8710 H   0  0  0  0  0  0  0  0  0  0  0  0
  148.4388  136.7940  154.1659 H   0  0  0  0  0  0  0  0  0  0  0  0
  147.8757  137.9055  155.4176 H   0  0  0  0  0  0  0  0  0  0  0  0
  150.0128  144.3805  157.2151 H   0  0  0  0  0  0  0  0  0  0  0  0
  1  2  2  0  0  0  0
  2  3  1  0  0  0  0
  2 12  1  0  0  0  0
  3  4  1  0  0  0  0
  3 17  1  0  0  0  0
  4  5  1  0  0  0  0
  4 18  1  0  0  0  0
  4 19  1  0  0  0  0
  5  6  1  0  0  0  0
  5 20  1  0  0  0  0
  5 21  1  0  0  0  0
  6 11  1  0  0  0  0
  6  7  2  0  0  0  0
  7  8  1  0  0  0  0
  7 22  1  0  0  0  0
  8  9  2  0  0  0  0
  8 23  1  0  0  0  0
  9 10  1  0  0  0  0
  9 24  1  0  0  0  0
 10 11  2  0  0  0  0
 10 25  1  0  0  0  0
 11 33  1  0  0  0  0
 12 16  1  0  0  0  0
 12 13  1  0  0  0  0
 12 26  1  0  0  0  0
 13 14  1  0  0  0  0
 13 27  1  0  0  0  0
 13 28  1  0  0  0  0
 14 15  1  0  0  0  0
 14 29  1  0  0  0  0
 14 30  1  0  0  0  0
 15 16  1  0  0  0  0
 15 31  1  0  0  0  0
 15 32  1  0  0  0  0
M  CHG  1  11   1
M  END
> <s_m_source_file>
AV-unprocessed.smi

> <i_m_source_file_index>
3176

> <i_lp_mmshare_version>
43012

> <i_f3d_flags>
0

> <s_epik_input>
TzFbQ0gyXVtDSDJdW0NIMl1bQ0BIXTFDKD1PKVtOSF1bQ0gyXVtDSDJdYzJbY0hdW2NIXVtjSF1bY0hdbjI=

> <s_epik_cmdline>
J2VwaWtfcHl0aG9uJywgJy1waCcsICc3LjAnLCAnLXRuJywgJzgnLCAnLW1hJywgJzIwMCcsICctbWV0YWxfYmluZGluZycsICctaW1hZScsICc8aW5maWxlLm1hZT4nLCAnLW9tYWUnLCAnPG91dGZpbGUubWFlPic=

> <r_epik_Ionization_Penalty>
1.81664

> <r_epik_Ionization_Penalty_Charging>
1.81664

> <r_epik_Ionization_Penalty_Neutral>
5.71603e-08

> <r_epik_State_Penalty>
1.93152

> <r_epik_Charging_Adjusted_Penalty>
3.74817

> <i_epik_Tot_Q>
1

> <i_epik_Tot_abs_Q>
1

> <r_epik_Metal_State_Penalty>
1.95876

> <b_epik_Metal_Only>
0

> <s_lp_Force_Field>
OPLS_2005

> <r_lp_Energy>
22.6844

> <b_lp_Chiralities_Consistent>
1

> <s_lp_Variant>
AV-unprocessed.smi:3176-4

> <Gold.Version>
5.8.1

> <Gold.Id.Protein>
6NUR|6NUR_protein|mol2

> <Gold.PLP.Fitness>
42.5475

> <Gold.PLP.PLP>
-33.5020

> <Gold.PLP.part.hbond>
-3.0121

> <Gold.PLP.part.metal>
0.0000

> <Gold.PLP.part.buried>
-5.1227

> <Gold.PLP.part.nonpolar>
-25.5628

> <Gold.PLP.part.repulsive>
0.3398

> <Gold.PLP.ligand.clash>
0.0000

> <Gold.PLP.ligand.torsion>
0.4648

> <Gold.PLP.Chemscore.Hbond>
3.3181

> <Gold.PLP.Chemscore.CHOScore>
0.0000

> <Gold.PLP.Chemscore.Metal>
0.0000

> <Gold.Chemscore.Hbonds>
donor molecule, donor type, donor heavy atom, donor atom, acceptor molecule, acceptor atom, score
      L1  H    11    33       P1  8028  2.00
      P1  H  7989  7998       L1     1  0.29
      P1  H  7997  8010       L1     1  0.99

> <Gold.PLP.Chemscore.Internal.Correction>
0.0210

> <Gold.Rescore>
     Score         DG    S(hbond)    S(metal)    S(lipo)     H(rot)  DE(clash)    DE(int)     intcor
     17.97     -18.35       1.94        0.00      89.83       1.61       0.13       0.24       ----

> <Gold.Chemscore.Fitness>
17.9730

> <Gold.Chemscore.DG>
-18.3517

> <Gold.Chemscore.ZeroCoef>
-5.4800

> <Gold.Chemscore.Hbond>
1.9375

> <Gold.Chemscore.Metal>
0.0000

> <Gold.Chemscore.Lipo>
89.8317

> <Gold.Chemscore.Internal_Hbond>
0.0000

> <Gold.Chemscore.DEClash>
0.1338

> <Gold.Chemscore.DEInternal>
0.2449

> <Gold.Chemscore.Rot>
1.6054

> <Gold.Chemscore.Internal.Correction>
   9.000000E+99

> <Gold.Chemscore.Hbonds>
donor molecule, donor type, donor heavy atom, donor atom, acceptor molecule, acceptor atom, score
      L1  H    11    33       P1  8028  0.55
      P1  H  7989  7998       L1     1  0.02
      P1  H  7997  8010       L1     1  0.93

> <Gold.Chemscore.Hbond.Weighted>
-6.4711

> <Gold.Chemscore.Metal.Weighted>
-0.0000

> <Gold.Chemscore.Lipo.Weighted>
-10.5103

> <Gold.Chemscore.Internal_Hbond.Weighted>
0.0000

> <Gold.Chemscore.DEClash.Weighted>
0.1338

> <Gold.Chemscore.DEInternal.Weighted>
0.2449

> <Gold.Chemscore.Rot.Weighted>
4.1097

> <Gold.Chemscore.Internal.Correction.Weighted>
   9.000000E+99

> <Gold.Protein.RotatedTorsions>
[ 6907 6896 6895 6894 ] final  -18.68 input  -60.11 | X-H torsion
[ 7974 7965 7964 7962 ] final  119.72 input  175.53 | X-H torsion
[ 8008 7997 7996 7995 ] final   98.21 input   59.86 | X-H torsion
[ 10167 10162 10161 10158 ] final   38.88 input  -65.29 | X-H torsion
[ 10718 10713 10712 10709 ] final  -94.88 input   66.30 | X-H torsion
[ 10763 10752 10751 10750 ] final  157.83 input  -60.55 | X-H torsion
[ 11005 11000 10999 10996 ] final  131.53 input  -57.11 | X-H torsion

> <Gold.Protein.ActiveResidues>
 VAL166  LYS551  ARG553  GLY616  TRP617  ASP618  TYR619  PRO620  LYS621  CYS622 
 ASP623  PHE694  ASN695  SER759  ASP760  ASP761  ALA762  ILE779  LEU786  VAL792 
 PHE793  MET794  SER795  GLU796  ALA797  LYS798  CYS799  TRP800  GLU811  SER814 

> <Gold.Protein.RotatedAtoms>
  151.2745  135.0695  159.9146 H   0  0  0  0  0  0  0  0  0  0  0  0  # atno 6907 bound_to 6896
  152.5345  134.0095  159.7942 H   0  0  0  0  0  0  0  0  0  0  0  0  # atno 6908 bound_to 6896
  151.0339  133.5715  159.2689 H   0  0  0  0  0  0  0  0  0  0  0  0  # atno 6909 bound_to 6896
  145.1397  139.3276  143.4622 H   0  0  0  0  0  0  0  0  0  0  0  0  # atno 7974 bound_to 7965
  156.0981  140.3247  155.7904 H   0  0  0  0  0  0  0  0  0  0  0  0  # atno 8008 bound_to 7997
  155.4884  140.0559  157.2974 H   0  0  0  0  0  0  0  0  0  0  0  0  # atno 8009 bound_to 7997
  154.4679  140.1998  156.0086 H   0  0  0  0  0  0  0  0  0  0  0  0  # atno 8010 bound_to 7997
  140.3894  144.1873  150.6130 H   0  0  0  0  0  0  0  0  0  0  0  0  # atno 10167 bound_to 10162
  156.0034  130.5086  150.5992 H   0  0  0  0  0  0  0  0  0  0  0  0  # atno 10718 bound_to 10713
  154.2065  135.2788  155.2973 H   0  0  0  0  0  0  0  0  0  0  0  0  # atno 10763 bound_to 10752
  154.5812  135.5588  153.7191 H   0  0  0  0  0  0  0  0  0  0  0  0  # atno 10764 bound_to 10752
  153.0074  135.6345  154.2204 H   0  0  0  0  0  0  0  0  0  0  0  0  # atno 10765 bound_to 10752
  139.9735  134.9570  156.9451 H   0  0  0  0  0  0  0  0  0  0  0  0  # atno 11005 bound_to 11000
  146.3506  140.1429  142.8594 LP  0  0  0  0  0  0  0  0  0  0  0  0  # atno 17320 bound_to 7965
  145.0546  140.9043  143.4975 LP  0  0  0  0  0  0  0  0  0  0  0  0  # atno 17321 bound_to 7965
  140.4855  143.2364  151.8894 LP  0  0  0  0  0  0  0  0  0  0  0  0  # atno 17342 bound_to 10162
  139.4790  144.5223  151.8784 LP  0  0  0  0  0  0  0  0  0  0  0  0  # atno 17343 bound_to 10162
  157.3844  131.0786  151.1449 LP  0  0  0  0  0  0  0  0  0  0  0  0  # atno 17370 bound_to 10713
  157.2161  130.6460  149.5793 LP  0  0  0  0  0  0  0  0  0  0  0  0  # atno 17371 bound_to 10713
  140.5242  134.0877  155.7299 LP  0  0  0  0  0  0  0  0  0  0  0  0  # atno 17394 bound_to 11000
  141.1414  133.9132  157.2317 LP  0  0  0  0  0  0  0  0  0  0  0  0  # atno 17395 bound_to 11000

$$$$
