AV-unprocessed.smi:310|AV-procd|sdf|2295|dock10
  -GOLD-   2262022193D 1   1.00000     0.00000
 Structure written by MMmdl.
 41 43  0  0  0  0  0  0  0  0  1 V2000
  149.2687  129.9095  154.2762 C   0  0  0  0  0  0  0  0  0  0  0  0
  149.5214  131.3589  154.5141 C   0  0  0  0  0  0  0  0  0  0  0  0
  149.3350  132.4746  153.7473 C   0  0  0  0  0  0  0  0  0  0  0  0
  149.7859  133.5231  154.5927 C   0  0  0  0  0  0  0  0  0  0  0  0
  149.7562  134.8726  154.1574 N   0  0  0  0  0  0  0  0  0  0  0  0
  150.4158  135.9187  154.6840 C   0  0  0  0  0  0  0  0  0  0  0  0
  151.1775  135.8634  155.6498 O   0  0  0  0  0  0  0  0  0  0  0  0
  150.1410  137.0516  154.0208 N   0  0  0  0  0  0  0  0  0  0  0  0
  150.6817  138.3690  154.3430 C   0  0  0  0  0  0  0  0  0  0  0  0
  152.1765  138.2403  154.7083 C   0  0  0  0  0  0  0  0  0  0  0  0
  152.7327  139.5752  155.2331 C   0  0  0  0  0  0  0  0  0  0  0  0
  151.9295  139.9980  156.3885 N   0  0  0  0  0  0  0  0  0  0  0  0
  152.3382  140.0168  157.6820 C   0  0  0  0  0  0  0  0  0  0  0  0
  153.4480  139.6051  158.0237 O   0  0  0  0  0  0  0  0  0  0  0  0
  151.3891  140.5902  158.6915 C   0  0  0  0  0  0  0  0  0  0  0  0
  150.9058  142.0172  158.5016 C   0  0  0  0  0  0  0  0  0  0  0  0
  151.9169  141.7023  159.5732 C   0  0  0  0  0  0  0  0  0  0  0  0
  150.5534  140.3160  155.9878 C   0  0  0  0  0  0  0  0  0  0  0  0
  149.8740  139.0279  155.4859 C   0  0  0  0  0  0  0  0  0  0  0  0
  150.2099  133.0869  155.7689 N   0  0  0  0  0  0  0  0  0  0  0  0
  150.0429  131.6976  155.7244 O   0  0  0  0  0  0  0  0  0  0  0  0
  148.7840  129.7508  153.3127 H   0  0  0  0  0  0  0  0  0  0  0  0
  148.6223  129.4976  155.0515 H   0  0  0  0  0  0  0  0  0  0  0  0
  150.2035  129.3488  154.2810 H   0  0  0  0  0  0  0  0  0  0  0  0
  148.9388  132.5287  152.7442 H   0  0  0  0  0  0  0  0  0  0  0  0
  149.1642  135.0628  153.3627 H   0  0  0  0  0  0  0  0  0  0  0  0
  149.5058  137.0021  153.2378 H   0  0  0  0  0  0  0  0  0  0  0  0
  150.6135  139.0096  153.4614 H   0  0  0  0  0  0  0  0  0  0  0  0
  152.3101  137.4719  155.4716 H   0  0  0  0  0  0  0  0  0  0  0  0
  152.7473  137.9152  153.8379 H   0  0  0  0  0  0  0  0  0  0  0  0
  153.7977  139.4903  155.4442 H   0  0  0  0  0  0  0  0  0  0  0  0
  152.6617  140.3346  154.4530 H   0  0  0  0  0  0  0  0  0  0  0  0
  150.6600  139.9058  159.1213 H   0  0  0  0  0  0  0  0  0  0  0  0
  151.2554  142.5898  157.6446 H   0  0  0  0  0  0  0  0  0  0  0  0
  149.8863  142.2366  158.8120 H   0  0  0  0  0  0  0  0  0  0  0  0
  151.5853  141.7096  160.6094 H   0  0  0  0  0  0  0  0  0  0  0  0
  152.9383  142.0443  159.4134 H   0  0  0  0  0  0  0  0  0  0  0  0
  149.9638  140.7504  156.7961 H   0  0  0  0  0  0  0  0  0  0  0  0
  150.5683  141.0666  155.1962 H   0  0  0  0  0  0  0  0  0  0  0  0
  148.8603  139.2508  155.1508 H   0  0  0  0  0  0  0  0  0  0  0  0
  149.7766  138.3301  156.3191 H   0  0  0  0  0  0  0  0  0  0  0  0
  1  2  1  0  0  0  0
  1 22  1  0  0  0  0
  1 23  1  0  0  0  0
  1 24  1  0  0  0  0
  2 21  1  0  0  0  0
  2  3  2  0  0  0  0
  3  4  1  0  0  0  0
  3 25  1  0  0  0  0
  4  5  1  0  0  0  0
  4 20  2  0  0  0  0
  5  6  1  0  0  0  0
  5 26  1  0  0  0  0
  6  7  2  0  0  0  0
  6  8  1  0  0  0  0
  8  9  1  0  0  0  0
  8 27  1  0  0  0  0
  9 19  1  0  0  0  0
  9 10  1  0  0  0  0
  9 28  1  0  0  0  0
 10 11  1  0  0  0  0
 10 29  1  0  0  0  0
 10 30  1  0  0  0  0
 11 12  1  0  0  0  0
 11 31  1  0  0  0  0
 11 32  1  0  0  0  0
 12 13  1  0  0  0  0
 12 18  1  0  0  0  0
 13 14  2  0  0  0  0
 13 15  1  0  0  0  0
 15 17  1  0  0  0  0
 15 16  1  0  0  0  0
 15 33  1  0  0  0  0
 16 17  1  0  0  0  0
 16 34  1  0  0  0  0
 16 35  1  0  0  0  0
 17 36  1  0  0  0  0
 17 37  1  0  0  0  0
 18 19  1  0  0  0  0
 18 38  1  0  0  0  0
 18 39  1  0  0  0  0
 19 40  1  0  0  0  0
 19 41  1  0  0  0  0
 20 21  1  0  0  0  0
M  END
> <s_m_source_file>
AV-unprocessed.smi

> <i_m_source_file_index>
310

> <i_lp_mmshare_version>
43012

> <i_f3d_flags>
0

> <s_epik_input>
W0NIM11jMVtjSF1jKG5vMSlbTkhdQyg9TylbTkhdW0NIXTJbQ0gyXVtDSDJdTihbQ0gyXVtDSDJdMilDKD1PKVtDSF0zW0NIMl1bQ0gyXTM=

> <s_epik_cmdline>
J2VwaWtfcHl0aG9uJywgJy1waCcsICc3LjAnLCAnLXRuJywgJzgnLCAnLW1hJywgJzIwMCcsICctbWV0YWxfYmluZGluZycsICctaW1hZScsICc8aW5maWxlLm1hZT4nLCAnLW9tYWUnLCAnPG91dGZpbGUubWFlPic=

> <r_lp_tautomer_probability>
1

> <r_epik_Ionization_Penalty>
2.91812e-05

> <r_epik_Ionization_Penalty_Charging>
0

> <r_epik_Ionization_Penalty_Neutral>
2.91812e-05

> <r_epik_State_Penalty>
-0

> <r_epik_Charging_Adjusted_Penalty>
0

> <i_epik_Tot_Q>
0

> <i_epik_Tot_abs_Q>
0

> <r_epik_Metal_State_Penalty>
0.00922567

> <b_epik_Metal_Only>
0

> <s_lp_Force_Field>
OPLS_2005

> <r_lp_Energy>
27.9216

> <b_lp_Chiralities_Consistent>
1

> <s_lp_Variant>
AV-unprocessed.smi:310-1

> <Gold.Version>
5.8.1

> <Gold.Id.Protein>
6NUR|6NUR_protein|mol2

> <Gold.PLP.Fitness>
44.9017

> <Gold.PLP.PLP>
-34.5858

> <Gold.PLP.part.hbond>
-5.1533

> <Gold.PLP.part.metal>
0.0000

> <Gold.PLP.part.buried>
1.1224

> <Gold.PLP.part.nonpolar>
-30.2729

> <Gold.PLP.part.repulsive>
0.1587

> <Gold.PLP.ligand.clash>
0.1886

> <Gold.PLP.ligand.torsion>
0.4186

> <Gold.PLP.Chemscore.Hbond>
3.7401

> <Gold.PLP.Chemscore.CHOScore>
0.0000

> <Gold.PLP.Chemscore.Metal>
0.0000

> <Gold.Chemscore.Hbonds>
donor molecule, donor type, donor heavy atom, donor atom, acceptor molecule, acceptor atom, score
      L1  H     5    26       P1  7948  0.76
      L1  H     8    27       P1  7948  0.98
      P1  H  7997  8010       L1    14  1.00
      P1  H 10752 10763       L1     7  0.99

> <Gold.PLP.Chemscore.Internal.Correction>
0.1214

> <Gold.Rescore>
     Score         DG    S(hbond)    S(metal)    S(lipo)     H(rot)  DE(clash)    DE(int)     intcor
     15.62     -20.23       2.90        0.00      70.88       1.26       0.66       3.94       ----

> <Gold.Chemscore.Fitness>
15.6224

> <Gold.Chemscore.DG>
-20.2270

> <Gold.Chemscore.ZeroCoef>
-5.4800

> <Gold.Chemscore.Hbond>
2.8992

> <Gold.Chemscore.Metal>
0.0000

> <Gold.Chemscore.Lipo>
70.8832

> <Gold.Chemscore.Internal_Hbond>
0.0000

> <Gold.Chemscore.DEClash>
0.6648

> <Gold.Chemscore.DEInternal>
3.9399

> <Gold.Chemscore.Rot>
1.2615

> <Gold.Chemscore.Internal.Correction>
   9.000000E+99

> <Gold.Chemscore.Hbonds>
donor molecule, donor type, donor heavy atom, donor atom, acceptor molecule, acceptor atom, score
      L1  H     5    26       P1  7948  0.15
      L1  H     8    27       P1  7948  0.76
      P1  H  7997  8010       L1    14  0.48
      P1  H 10752 10763       L1     7  0.52

> <Gold.Chemscore.Hbond.Weighted>
-9.6832

> <Gold.Chemscore.Metal.Weighted>
-0.0000

> <Gold.Chemscore.Lipo.Weighted>
-8.2933

> <Gold.Chemscore.Internal_Hbond.Weighted>
0.0000

> <Gold.Chemscore.DEClash.Weighted>
0.6648

> <Gold.Chemscore.DEInternal.Weighted>
3.9399

> <Gold.Chemscore.Rot.Weighted>
3.2295

> <Gold.Chemscore.Internal.Correction.Weighted>
   9.000000E+99

> <Gold.Protein.RotatedTorsions>
[ 6907 6896 6895 6894 ] final  174.88 input  -60.11 | X-H torsion
[ 7974 7965 7964 7962 ] final   19.94 input  175.53 | X-H torsion
[ 8008 7997 7996 7995 ] final   50.56 input   59.86 | X-H torsion
[ 10167 10162 10161 10158 ] final  142.02 input  -65.29 | X-H torsion
[ 10718 10713 10712 10709 ] final   -3.65 input   66.30 | X-H torsion
[ 10763 10752 10751 10750 ] final   78.82 input  -60.55 | X-H torsion
[ 11005 11000 10999 10996 ] final  157.22 input  -57.11 | X-H torsion

> <Gold.Protein.ActiveResidues>
 VAL166  LYS551  ARG553  GLY616  TRP617  ASP618  TYR619  PRO620  LYS621  CYS622 
 ASP623  PHE694  ASN695  SER759  ASP760  ASP761  ALA762  ILE779  LEU786  VAL792 
 PHE793  MET794  SER795  GLU796  ALA797  LYS798  CYS799  TRP800  GLU811  SER814 

> <Gold.Protein.RotatedAtoms>
  151.7452  133.3324  159.3376 H   0  0  0  0  0  0  0  0  0  0  0  0  # atno 6907 bound_to 6896
  150.7557  134.6242  159.6161 H   0  0  0  0  0  0  0  0  0  0  0  0  # atno 6908 bound_to 6896
  152.3505  134.7015  160.0289 H   0  0  0  0  0  0  0  0  0  0  0  0  # atno 6909 bound_to 6896
  146.2130  139.8241  142.8673 H   0  0  0  0  0  0  0  0  0  0  0  0  # atno 7974 bound_to 7965
  155.4208  140.3446  155.4271 H   0  0  0  0  0  0  0  0  0  0  0  0  # atno 8008 bound_to 7997
  156.1394  140.1537  156.8975 H   0  0  0  0  0  0  0  0  0  0  0  0  # atno 8009 bound_to 7997
  154.4959  140.0828  156.7675 H   0  0  0  0  0  0  0  0  0  0  0  0  # atno 8010 bound_to 7997
  139.5005  144.6134  151.6219 H   0  0  0  0  0  0  0  0  0  0  0  0  # atno 10167 bound_to 10162
  156.7729  130.5305  149.5764 H   0  0  0  0  0  0  0  0  0  0  0  0  # atno 10718 bound_to 10713
  153.0904  135.4863  154.8678 H   0  0  0  0  0  0  0  0  0  0  0  0  # atno 10763 bound_to 10752
  154.7262  135.3050  154.8969 H   0  0  0  0  0  0  0  0  0  0  0  0  # atno 10764 bound_to 10752
  153.9619  135.6811  153.4798 H   0  0  0  0  0  0  0  0  0  0  0  0  # atno 10765 bound_to 10752
  140.1749  134.8517  157.2734 H   0  0  0  0  0  0  0  0  0  0  0  0  # atno 11005 bound_to 11000
  145.3065  141.0208  143.3579 LP  0  0  0  0  0  0  0  0  0  0  0  0  # atno 17320 bound_to 7965
  144.8967  139.4703  143.6652 LP  0  0  0  0  0  0  0  0  0  0  0  0  # atno 17321 bound_to 7965
  140.5815  143.9937  150.6271 LP  0  0  0  0  0  0  0  0  0  0  0  0  # atno 17342 bound_to 10162
  140.3088  143.3212  152.0899 LP  0  0  0  0  0  0  0  0  0  0  0  0  # atno 17343 bound_to 10162
  156.1267  130.6148  151.0273 LP  0  0  0  0  0  0  0  0  0  0  0  0  # atno 17370 bound_to 10713
  157.6683  131.0867  150.7675 LP  0  0  0  0  0  0  0  0  0  0  0  0  # atno 17371 bound_to 10713
  140.2334  134.3882  155.7512 LP  0  0  0  0  0  0  0  0  0  0  0  0  # atno 17394 bound_to 11000
  141.2220  133.7227  156.8676 LP  0  0  0  0  0  0  0  0  0  0  0  0  # atno 17395 bound_to 11000

$$$$
