AV-unprocessed.smi:1639|AV-procd|sdf|6550|dock8
  -GOLD-   22720 7233D 1   1.00000     0.00000
 Structure written by MMmdl.
 38 39  0  0  0  0  0  0  0  0  2 V2000
  145.7522  142.3648  154.6172 C   0  0  0  0  0  0  0  0  0  0  0  0
  147.1756  142.3367  154.0564 C   0  0  0  0  0  0  0  0  0  0  0  0
  147.6372  140.9958  154.0412 O   0  0  0  0  0  0  0  0  0  0  0  0
  149.0295  140.8639  154.2895 C   0  0  2  0  0  0  0  0  0  0  0  0
  149.3935  139.3698  154.3017 C   0  0  0  0  0  0  0  0  0  0  0  0
  150.8604  139.1852  154.7241 C   0  0  0  0  0  0  0  0  0  0  0  0
  151.1387  139.8800  156.0689 C   0  0  0  0  0  0  0  0  0  0  0  0
  150.7365  141.2838  156.0223 N   0  0  0  0  0  0  0  0  0  0  0  0
  151.1264  142.0057  157.1572 C   0  0  0  0  0  0  0  0  0  0  0  0
  152.0502  141.4673  158.0725 C   0  0  0  0  0  0  0  0  0  0  0  0
  152.3888  142.2671  159.1776 C   0  0  0  0  0  0  0  0  0  0  0  0
  153.3766  141.7971  160.2243 C   0  0  0  0  0  0  0  0  0  0  0  0
  151.8504  143.4912  159.3540 N   0  0  0  0  0  0  0  0  0  0  0  0
  150.9754  143.9461  158.4500 C   0  0  0  0  0  0  0  0  0  0  0  0
  150.4319  145.1944  158.6382 N   0  0  0  0  0  0  0  0  0  0  0  0
  150.6049  143.2428  157.3698 N   0  3  0  0  0  0  0  0  0  0  0  0
  149.3410  141.5050  155.6523 C   0  0  0  0  0  0  0  0  0  0  0  0
  145.3634  143.3830  154.6432 H   0  0  0  0  0  0  0  0  0  0  0  0
  145.7246  141.9708  155.6335 H   0  0  0  0  0  0  0  0  0  0  0  0
  145.0780  141.7645  154.0059 H   0  0  0  0  0  0  0  0  0  0  0  0
  147.1884  142.7486  153.0461 H   0  0  0  0  0  0  0  0  0  0  0  0
  147.8301  142.9516  154.6761 H   0  0  0  0  0  0  0  0  0  0  0  0
  149.6249  141.3652  153.5230 H   0  0  0  0  0  0  0  0  0  0  0  0
  148.7437  138.8375  154.9977 H   0  0  0  0  0  0  0  0  0  0  0  0
  149.2245  138.9315  153.3178 H   0  0  0  0  0  0  0  0  0  0  0  0
  151.0988  138.1235  154.7949 H   0  0  0  0  0  0  0  0  0  0  0  0
  151.5154  139.6002  153.9568 H   0  0  0  0  0  0  0  0  0  0  0  0
  150.5952  139.3719  156.8668 H   0  0  0  0  0  0  0  0  0  0  0  0
  152.2003  139.8084  156.3095 H   0  0  0  0  0  0  0  0  0  0  0  0
  152.4804  140.4869  157.9268 H   0  0  0  0  0  0  0  0  0  0  0  0
  153.7554  140.8020  159.9887 H   0  0  0  0  0  0  0  0  0  0  0  0
  152.9017  141.7570  161.2049 H   0  0  0  0  0  0  0  0  0  0  0  0
  154.2255  142.4791  160.2798 H   0  0  0  0  0  0  0  0  0  0  0  0
  150.6913  145.7488  159.4413 H   0  0  0  0  0  0  0  0  0  0  0  0
  149.7644  145.5696  157.9799 H   0  0  0  0  0  0  0  0  0  0  0  0
  149.1350  142.5756  155.6142 H   0  0  0  0  0  0  0  0  0  0  0  0
  148.6895  141.0799  156.4175 H   0  0  0  0  0  0  0  0  0  0  0  0
  149.9360  143.6244  156.7010 H   0  0  0  0  0  0  0  0  0  0  0  0
  1  2  1  0  0  0  0
  1 18  1  0  0  0  0
  1 19  1  0  0  0  0
  1 20  1  0  0  0  0
  2  3  1  0  0  0  0
  2 21  1  0  0  0  0
  2 22  1  0  0  0  0
  3  4  1  0  0  0  0
  4 17  1  0  0  0  0
  4  5  1  0  0  0  0
  4 23  1  0  0  0  0
  5  6  1  0  0  0  0
  5 24  1  0  0  0  0
  5 25  1  0  0  0  0
  6  7  1  0  0  0  0
  6 26  1  0  0  0  0
  6 27  1  0  0  0  0
  7  8  1  0  0  0  0
  7 28  1  0  0  0  0
  7 29  1  0  0  0  0
  8  9  1  0  0  0  0
  8 17  1  0  0  0  0
  9 16  1  0  0  0  0
  9 10  2  0  0  0  0
 10 11  1  0  0  0  0
 10 30  1  0  0  0  0
 11 12  1  0  0  0  0
 11 13  2  0  0  0  0
 12 31  1  0  0  0  0
 12 32  1  0  0  0  0
 12 33  1  0  0  0  0
 13 14  1  0  0  0  0
 14 15  1  0  0  0  0
 14 16  2  0  0  0  0
 15 34  1  0  0  0  0
 15 35  1  0  0  0  0
 16 38  1  0  0  0  0
 17 36  1  0  0  0  0
 17 37  1  0  0  0  0
M  CHG  1  16   1
M  END
> <s_m_source_file>
AV-unprocessed.smi

> <i_m_source_file_index>
1639

> <i_lp_mmshare_version>
43012

> <i_f3d_flags>
0

> <s_epik_input>
W0NIM11bQ0gyXU9bQ0BASF0xW0NIMl1bQ0gyXVtDSDJdTihbQ0gyXTEpYzJbY0hdYyhbQ0gzXSluYyhuMilbTkgyXQ==

> <s_epik_cmdline>
J2VwaWtfcHl0aG9uJywgJy1waCcsICc3LjAnLCAnLXRuJywgJzgnLCAnLW1hJywgJzIwMCcsICctbWV0YWxfYmluZGluZycsICctaW1hZScsICc8aW5maWxlLm1hZT4nLCAnLW9tYWUnLCAnPG91dGZpbGUubWFlPic=

> <r_lp_tautomer_probability>
0.424989

> <r_epik_Ionization_Penalty>
0.443088

> <r_epik_Ionization_Penalty_Charging>
0.443085

> <r_epik_Ionization_Penalty_Neutral>
3.21819e-06

> <r_epik_State_Penalty>
1.26241

> <r_epik_Charging_Adjusted_Penalty>
1.70549

> <i_epik_Tot_Q>
1

> <i_epik_Tot_abs_Q>
1

> <r_epik_Metal_State_Penalty>
1.59997

> <b_epik_Metal_Only>
0

> <s_lp_Force_Field>
OPLS_2005

> <r_lp_Energy>
14.3037

> <b_lp_Chiralities_Consistent>
1

> <s_lp_Variant>
AV-unprocessed.smi:1639-3

> <Gold.Version>
5.8.1

> <Gold.Id.Protein>
6NUR|6NUR_protein|mol2

> <Gold.PLP.Fitness>
45.2859

> <Gold.PLP.PLP>
-35.8738

> <Gold.PLP.part.hbond>
-2.0000

> <Gold.PLP.part.metal>
0.0000

> <Gold.PLP.part.buried>
-5.5363

> <Gold.PLP.part.nonpolar>
-29.8518

> <Gold.PLP.part.repulsive>
0.4260

> <Gold.PLP.ligand.clash>
1.3079

> <Gold.PLP.ligand.torsion>
0.7180

> <Gold.PLP.Chemscore.Hbond>
4.0000

> <Gold.PLP.Chemscore.CHOScore>
0.0000

> <Gold.PLP.Chemscore.Metal>
0.0000

> <Gold.Chemscore.Hbonds>
donor molecule, donor type, donor heavy atom, donor atom, acceptor molecule, acceptor atom, score
      L1  H    15    35       P1  8029  1.90
      L1  H    16    38       P1  8028  2.00

> <Gold.PLP.Chemscore.Internal.Correction>
0.1560

> <Gold.Rescore>
     Score         DG    S(hbond)    S(metal)    S(lipo)     H(rot)  DE(clash)    DE(int)     intcor
     15.93     -16.67       1.80        0.00      76.05       1.46       0.13       0.61       ----

> <Gold.Chemscore.Fitness>
15.9294

> <Gold.Chemscore.DG>
-16.6727

> <Gold.Chemscore.ZeroCoef>
-5.4800

> <Gold.Chemscore.Hbond>
1.8029

> <Gold.Chemscore.Metal>
0.0000

> <Gold.Chemscore.Lipo>
76.0547

> <Gold.Chemscore.Internal_Hbond>
0.0000

> <Gold.Chemscore.DEClash>
0.1337

> <Gold.Chemscore.DEInternal>
0.6096

> <Gold.Chemscore.Rot>
1.4560

> <Gold.Chemscore.Internal.Correction>
   9.000000E+99

> <Gold.Chemscore.Hbonds>
donor molecule, donor type, donor heavy atom, donor atom, acceptor molecule, acceptor atom, score
      L1  H    15    35       P1  8029  0.20
      L1  H    16    38       P1  8028  1.00

> <Gold.Chemscore.Hbond.Weighted>
-6.0216

> <Gold.Chemscore.Metal.Weighted>
-0.0000

> <Gold.Chemscore.Lipo.Weighted>
-8.8984

> <Gold.Chemscore.Internal_Hbond.Weighted>
0.0000

> <Gold.Chemscore.DEClash.Weighted>
0.1337

> <Gold.Chemscore.DEInternal.Weighted>
0.6096

> <Gold.Chemscore.Rot.Weighted>
3.7272

> <Gold.Chemscore.Internal.Correction.Weighted>
   9.000000E+99

> <Gold.Protein.RotatedTorsions>
[ 6907 6896 6895 6894 ] final  152.40 input  -60.11 | X-H torsion
[ 7974 7965 7964 7962 ] final  124.45 input  175.53 | X-H torsion
[ 8008 7997 7996 7995 ] final   84.63 input   59.86 | X-H torsion
[ 10167 10162 10161 10158 ] final  174.08 input  -65.29 | X-H torsion
[ 10718 10713 10712 10709 ] final   94.98 input   66.30 | X-H torsion
[ 10763 10752 10751 10750 ] final   35.33 input  -60.55 | X-H torsion
[ 11005 11000 10999 10996 ] final -162.18 input  -57.11 | X-H torsion

> <Gold.Protein.ActiveResidues>
 VAL166  LYS551  ARG553  GLY616  TRP617  ASP618  TYR619  PRO620  LYS621  CYS622 
 ASP623  PHE694  ASN695  SER759  ASP760  ASP761  ALA762  ILE779  LEU786  VAL792 
 PHE793  MET794  SER795  GLU796  ALA797  LYS798  CYS799  TRP800  GLU811  SER814 

> <Gold.Protein.RotatedAtoms>
  152.0873  133.4182  159.4527 H   0  0  0  0  0  0  0  0  0  0  0  0  # atno 6907 bound_to 6896
  150.6862  134.2913  159.4677 H   0  0  0  0  0  0  0  0  0  0  0  0  # atno 6908 bound_to 6896
  152.0761  134.9501  160.0624 H   0  0  0  0  0  0  0  0  0  0  0  0  # atno 6909 bound_to 6896
  145.0843  139.3634  143.4893 H   0  0  0  0  0  0  0  0  0  0  0  0  # atno 7974 bound_to 7965
  155.9396  140.3409  155.6316 H   0  0  0  0  0  0  0  0  0  0  0  0  # atno 8008 bound_to 7997
  155.7057  140.0765  157.2410 H   0  0  0  0  0  0  0  0  0  0  0  0  # atno 8009 bound_to 7997
  154.4100  140.1632  156.2227 H   0  0  0  0  0  0  0  0  0  0  0  0  # atno 8010 bound_to 7997
  139.5130  144.3187  152.0223 H   0  0  0  0  0  0  0  0  0  0  0  0  # atno 10167 bound_to 10162
  157.6943  131.0530  150.4269 H   0  0  0  0  0  0  0  0  0  0  0  0  # atno 10718 bound_to 10713
  153.0124  135.6336  154.1810 H   0  0  0  0  0  0  0  0  0  0  0  0  # atno 10763 bound_to 10752
  154.1551  135.2826  155.3126 H   0  0  0  0  0  0  0  0  0  0  0  0  # atno 10764 bound_to 10752
  154.6024  135.5583  153.7448 H   0  0  0  0  0  0  0  0  0  0  0  0  # atno 10765 bound_to 10752
  140.6121  134.4838  157.5216 H   0  0  0  0  0  0  0  0  0  0  0  0  # atno 11005 bound_to 11000
  146.3531  140.0648  142.8627 LP  0  0  0  0  0  0  0  0  0  0  0  0  # atno 17320 bound_to 7965
  145.1141  140.9423  143.4639 LP  0  0  0  0  0  0  0  0  0  0  0  0  # atno 17321 bound_to 7965
  140.2629  144.4047  150.6179 LP  0  0  0  0  0  0  0  0  0  0  0  0  # atno 17342 bound_to 10162
  140.6144  143.2171  151.6822 LP  0  0  0  0  0  0  0  0  0  0  0  0  # atno 17343 bound_to 10162
  156.4639  130.4038  149.6559 LP  0  0  0  0  0  0  0  0  0  0  0  0  # atno 17370 bound_to 10713
  156.3664  130.7508  151.2486 LP  0  0  0  0  0  0  0  0  0  0  0  0  # atno 17371 bound_to 10713
  139.9188  134.8192  156.1279 LP  0  0  0  0  0  0  0  0  0  0  0  0  # atno 17394 bound_to 11000
  141.0801  133.6758  156.2317 LP  0  0  0  0  0  0  0  0  0  0  0  0  # atno 17395 bound_to 11000

$$$$
