AV-unprocessed.smi:210|AV-procd|sdf|1614|dock5
  -GOLD-   2262019543D 1   1.00000     0.00000
 Structure written by MMmdl.
 57 61  0  0  0  0  0  0  0  0  1 V2000
  151.9914  140.2787  156.2325 C   0  0  0  0  0  0  0  0  0  0  0  0
  151.1580  140.9019  155.2712 O   0  0  0  0  0  0  0  0  0  0  0  0
  149.8157  140.4469  155.3384 C   0  0  1  0  0  0  0  0  0  0  0  0
  148.8709  141.0925  154.3164 C   0  0  0  0  0  0  0  0  0  0  0  0
  148.2275  139.7070  154.1045 C   0  0  2  0  0  0  0  0  0  0  0  0
  147.0751  139.4991  154.9942 N   0  0  0  0  0  0  0  0  0  0  0  0
  146.0621  140.5500  154.9986 C   0  0  0  0  0  0  0  0  0  0  0  0
  146.4757  138.2926  154.8826 C   0  0  0  0  0  0  0  0  0  0  0  0
  146.1782  137.5724  155.9968 N   0  0  0  0  0  0  0  0  0  0  0  0
  145.5818  136.3821  155.8797 C   0  0  0  0  0  0  0  0  0  0  0  0
  145.2036  135.7426  154.7703 N   0  0  0  0  0  0  0  0  0  0  0  0
  145.5058  136.4645  153.6525 C   0  0  0  0  0  0  0  0  0  0  0  0
  146.1475  137.7334  153.6204 C   0  0  0  0  0  0  0  0  0  0  0  0
  146.3071  138.1568  152.3078 N   0  0  0  0  0  0  0  0  0  0  0  0
  145.7901  137.1887  151.6007 C   0  0  0  0  0  0  0  0  0  0  0  0
  145.2573  136.1475  152.3285 N   0  0  0  0  0  0  0  0  0  0  0  0
  144.6596  134.9521  151.8101 C   0  0  0  0  0  0  0  0  0  0  0  0
  145.3326  133.5861  151.9829 C   0  0  0  0  0  0  0  0  0  0  0  0
  144.7618  133.1452  150.6150 C   0  0  0  0  0  0  0  0  0  0  0  0
  145.6901  132.2990  149.7212 C   0  0  0  0  0  0  0  0  0  0  0  0
  147.0112  132.8007  149.6795 O   0  0  0  0  0  0  0  0  0  0  0  0
  143.4142  132.4035  150.7040 C   0  0  0  0  0  0  0  0  0  0  0  0
  142.8772  132.1446  149.4225 O   0  0  0  0  0  0  0  0  0  0  0  0
  144.6663  134.6574  150.3071 C   0  0  0  0  0  0  0  0  0  0  0  0
  149.5702  139.1123  154.6117 C   0  0  0  0  0  0  0  0  0  0  0  0
  150.6029  138.5938  153.5940 C   0  0  0  0  0  0  0  0  0  0  0  0
  151.1116  137.6390  154.6777 C   0  0  0  0  0  0  0  0  0  0  0  0
  149.7379  137.7657  155.3412 C   0  0  0  0  0  0  0  0  0  0  0  0
  153.0078  140.6604  156.1381 H   0  0  0  0  0  0  0  0  0  0  0  0
  152.0224  139.1985  156.0845 H   0  0  0  0  0  0  0  0  0  0  0  0
  151.6486  140.4833  157.2474 H   0  0  0  0  0  0  0  0  0  0  0  0
  149.4070  140.4377  156.3512 H   0  0  0  0  0  0  0  0  0  0  0  0
  148.2329  141.8741  154.7275 H   0  0  0  0  0  0  0  0  0  0  0  0
  149.3954  141.4454  153.4269 H   0  0  0  0  0  0  0  0  0  0  0  0
  148.0225  139.4926  153.0548 H   0  0  0  0  0  0  0  0  0  0  0  0
  145.1300  140.2182  155.4594 H   0  0  0  0  0  0  0  0  0  0  0  0
  145.8405  140.8757  153.9817 H   0  0  0  0  0  0  0  0  0  0  0  0
  146.4090  141.4131  155.5655 H   0  0  0  0  0  0  0  0  0  0  0  0
  145.3749  135.8698  156.8076 H   0  0  0  0  0  0  0  0  0  0  0  0
  145.7761  137.2144  150.5207 H   0  0  0  0  0  0  0  0  0  0  0  0
  143.6408  134.9324  152.2008 H   0  0  0  0  0  0  0  0  0  0  0  0
  146.4209  133.6612  152.0017 H   0  0  0  0  0  0  0  0  0  0  0  0
  144.9710  133.0120  152.8366 H   0  0  0  0  0  0  0  0  0  0  0  0
  145.7357  131.2688  150.0755 H   0  0  0  0  0  0  0  0  0  0  0  0
  145.3221  132.2636  148.6954 H   0  0  0  0  0  0  0  0  0  0  0  0
  147.6104  132.0704  149.7003 H   0  0  0  0  0  0  0  0  0  0  0  0
  143.5216  131.4576  151.2358 H   0  0  0  0  0  0  0  0  0  0  0  0
  142.6785  132.9837  151.2612 H   0  0  0  0  0  0  0  0  0  0  0  0
  142.2194  132.7966  149.2345 H   0  0  0  0  0  0  0  0  0  0  0  0
  143.7597  134.9670  149.7861 H   0  0  0  0  0  0  0  0  0  0  0  0
  145.5518  135.0601  149.8125 H   0  0  0  0  0  0  0  0  0  0  0  0
  150.1394  138.0678  152.7579 H   0  0  0  0  0  0  0  0  0  0  0  0
  151.3330  139.3254  153.2474 H   0  0  0  0  0  0  0  0  0  0  0  0
  151.3600  136.6375  154.3258 H   0  0  0  0  0  0  0  0  0  0  0  0
  151.9138  138.0698  155.2790 H   0  0  0  0  0  0  0  0  0  0  0  0
  149.7579  137.8305  156.4295 H   0  0  0  0  0  0  0  0  0  0  0  0
  149.0591  136.9858  154.9959 H   0  0  0  0  0  0  0  0  0  0  0  0
  1  2  1  0  0  0  0
  1 29  1  0  0  0  0
  1 30  1  0  0  0  0
  1 31  1  0  0  0  0
  2  3  1  0  0  0  0
  3 25  1  0  0  0  0
  3  4  1  0  0  0  0
  3 32  1  0  0  0  0
  4  5  1  0  0  0  0
  4 33  1  0  0  0  0
  4 34  1  0  0  0  0
  5  6  1  0  0  0  0
  5 25  1  0  0  0  0
  5 35  1  0  0  0  0
  6  7  1  0  0  0  0
  6  8  1  0  0  0  0
  7 36  1  0  0  0  0
  7 37  1  0  0  0  0
  7 38  1  0  0  0  0
  8 13  1  0  0  0  0
  8  9  2  0  0  0  0
  9 10  1  0  0  0  0
 10 11  2  0  0  0  0
 10 39  1  0  0  0  0
 11 12  1  0  0  0  0
 12 16  1  0  0  0  0
 12 13  2  0  0  0  0
 13 14  1  0  0  0  0
 14 15  2  0  0  0  0
 15 16  1  0  0  0  0
 15 40  1  0  0  0  0
 16 17  1  0  0  0  0
 17 24  1  0  0  0  0
 17 18  1  0  0  0  0
 17 41  1  0  0  0  0
 18 19  1  0  0  0  0
 18 42  1  0  0  0  0
 18 43  1  0  0  0  0
 19 20  1  0  0  0  0
 19 22  1  0  0  0  0
 19 24  1  0  0  0  0
 20 21  1  0  0  0  0
 20 44  1  0  0  0  0
 20 45  1  0  0  0  0
 21 46  1  0  0  0  0
 22 23  1  0  0  0  0
 22 47  1  0  0  0  0
 22 48  1  0  0  0  0
 23 49  1  0  0  0  0
 24 50  1  0  0  0  0
 24 51  1  0  0  0  0
 25 28  1  0  0  0  0
 25 26  1  0  0  0  0
 26 27  1  0  0  0  0
 26 52  1  0  0  0  0
 26 53  1  0  0  0  0
 27 28  1  0  0  0  0
 27 54  1  0  0  0  0
 27 55  1  0  0  0  0
 28 56  1  0  0  0  0
 28 57  1  0  0  0  0
M  END
> <s_m_source_file>
AV-unprocessed.smi

> <i_m_source_file_index>
210

> <i_lp_mmshare_version>
43012

> <i_f3d_flags>
0

> <s_epik_input>
W0NIMl0xW0NIMl1bQ0gyXUMxMltDQEhdKE9bQ0gzXSlbQ0gyXVtDQEhdMk4oW0NIM10pYyhuW2NIXW4zKWMoYzM0KW5bY0hdbjRbQ0hdKFtDSDJdNSlbQ0gyXUM1KFtDSDJdW09IXSlbQ0gyXVtPSF0=

> <s_epik_cmdline>
J2VwaWtfcHl0aG9uJywgJy1waCcsICc3LjAnLCAnLXRuJywgJzgnLCAnLW1hJywgJzIwMCcsICctbWV0YWxfYmluZGluZycsICctaW1hZScsICc8aW5maWxlLm1hZT4nLCAnLW9tYWUnLCAnPG91dGZpbGUubWFlPic=

> <r_lp_tautomer_probability>
1

> <r_epik_Ionization_Penalty>
0.00313676

> <r_epik_Ionization_Penalty_Charging>
0

> <r_epik_Ionization_Penalty_Neutral>
0.00313676

> <r_epik_State_Penalty>
0.00199132

> <r_epik_Charging_Adjusted_Penalty>
0.00199132

> <i_epik_Tot_Q>
0

> <i_epik_Tot_abs_Q>
0

> <r_epik_Metal_State_Penalty>
-0

> <b_epik_Metal_Only>
0

> <s_lp_Force_Field>
OPLS_2005

> <r_lp_Energy>
61.1908

> <b_lp_Chiralities_Consistent>
1

> <s_lp_Variant>
AV-unprocessed.smi:210-4

> <Gold.Version>
5.8.1

> <Gold.Id.Protein>
6NUR|6NUR_protein|mol2

> <Gold.PLP.Fitness>
51.1383

> <Gold.PLP.PLP>
-41.0251

> <Gold.PLP.part.hbond>
-6.2199

> <Gold.PLP.part.metal>
0.0000

> <Gold.PLP.part.buried>
-2.8473

> <Gold.PLP.part.nonpolar>
-33.1651

> <Gold.PLP.part.repulsive>
0.4163

> <Gold.PLP.ligand.clash>
0.0000

> <Gold.PLP.ligand.torsion>
1.2231

> <Gold.PLP.Chemscore.Hbond>
3.4575

> <Gold.PLP.Chemscore.CHOScore>
0.3629

> <Gold.PLP.Chemscore.Metal>
0.0000

> <Gold.Chemscore.Hbonds>
donor molecule, donor type, donor heavy atom, donor atom, acceptor molecule, acceptor atom, score
      L1  H    21    46       P1 10747  1.00
      L1  H    23    49       P1 10186  0.98
      P1  H  7989  7998       L1     2  0.72
      P1  H 10785 10796       L1    23  0.73
      L1  C    15    40       P1 10171  0.58

> <Gold.PLP.Chemscore.Internal.Correction>
1.0982

> <Gold.Rescore>
     Score         DG    S(hbond)    S(metal)    S(lipo)     H(rot)  DE(clash)    DE(int)     intcor
     16.09     -18.64       3.25        0.00      97.92       3.57       0.34       2.21       ----

> <Gold.Chemscore.Fitness>
16.0914

> <Gold.Chemscore.DG>
-18.6401

> <Gold.Chemscore.ZeroCoef>
-5.4800

> <Gold.Chemscore.Hbond>
3.2473

> <Gold.Chemscore.Metal>
0.0000

> <Gold.Chemscore.Lipo>
97.9195

> <Gold.Chemscore.Internal_Hbond>
0.0000

> <Gold.Chemscore.DEClash>
0.3350

> <Gold.Chemscore.DEInternal>
2.2137

> <Gold.Chemscore.Rot>
3.5712

> <Gold.Chemscore.Internal.Correction>
   9.000000E+99

> <Gold.Chemscore.Hbonds>
donor molecule, donor type, donor heavy atom, donor atom, acceptor molecule, acceptor atom, score
      L1  H    21    46       P1 10747  1.00
      L1  H    23    49       P1 10186  0.91
      P1  H  7989  7998       L1     2  0.42
      P1  H 10785 10796       L1    23  0.64

> <Gold.Chemscore.Hbond.Weighted>
-10.8459

> <Gold.Chemscore.Metal.Weighted>
-0.0000

> <Gold.Chemscore.Lipo.Weighted>
-11.4566

> <Gold.Chemscore.Internal_Hbond.Weighted>
0.0000

> <Gold.Chemscore.DEClash.Weighted>
0.3350

> <Gold.Chemscore.DEInternal.Weighted>
2.2137

> <Gold.Chemscore.Rot.Weighted>
9.1423

> <Gold.Chemscore.Internal.Correction.Weighted>
   9.000000E+99

> <Gold.Protein.RotatedTorsions>
[ 6907 6896 6895 6894 ] final  -28.91 input  -60.11 | X-H torsion
[ 7974 7965 7964 7962 ] final  -82.03 input  175.53 | X-H torsion
[ 8008 7997 7996 7995 ] final -118.38 input   59.86 | X-H torsion
[ 10167 10162 10161 10158 ] final -143.89 input  -65.29 | X-H torsion
[ 10718 10713 10712 10709 ] final -167.68 input   66.30 | X-H torsion
[ 10763 10752 10751 10750 ] final  170.93 input  -60.55 | X-H torsion
[ 11005 11000 10999 10996 ] final  166.56 input  -57.11 | X-H torsion

> <Gold.Protein.ActiveResidues>
 VAL166  LYS551  ARG553  GLY616  TRP617  ASP618  TYR619  PRO620  LYS621  CYS622 
 ASP623  PHE694  ASN695  SER759  ASP760  ASP761  ALA762  ILE779  LEU786  VAL792 
 PHE793  MET794  SER795  GLU796  ALA797  LYS798  CYS799  TRP800  GLU811  SER814 

> <Gold.Protein.RotatedAtoms>
  151.1264  135.0107  159.8562 H   0  0  0  0  0  0  0  0  0  0  0  0  # atno 6907 bound_to 6896
  152.5449  134.1661  159.8588 H   0  0  0  0  0  0  0  0  0  0  0  0  # atno 6908 bound_to 6896
  151.1724  133.4731  159.2627 H   0  0  0  0  0  0  0  0  0  0  0  0  # atno 6909 bound_to 6896
  145.5387  140.9512  143.1563 H   0  0  0  0  0  0  0  0  0  0  0  0  # atno 7974 bound_to 7965
  155.0988  140.0396  157.2690 H   0  0  0  0  0  0  0  0  0  0  0  0  # atno 8008 bound_to 7997
  154.6774  140.2625  155.6918 H   0  0  0  0  0  0  0  0  0  0  0  0  # atno 8009 bound_to 7997
  156.2682  140.2785  156.1306 H   0  0  0  0  0  0  0  0  0  0  0  0  # atno 8010 bound_to 7997
  139.7950  143.7912  152.2653 H   0  0  0  0  0  0  0  0  0  0  0  0  # atno 10167 bound_to 10162
  156.6859  130.9140  151.3063 H   0  0  0  0  0  0  0  0  0  0  0  0  # atno 10718 bound_to 10713
  154.4046  135.2755  155.2075 H   0  0  0  0  0  0  0  0  0  0  0  0  # atno 10763 bound_to 10752
  154.4087  135.6027  153.5943 H   0  0  0  0  0  0  0  0  0  0  0  0  # atno 10764 bound_to 10752
  152.9831  135.5944  154.4319 H   0  0  0  0  0  0  0  0  0  0  0  0  # atno 10765 bound_to 10752
  140.2677  134.7851  157.3648 H   0  0  0  0  0  0  0  0  0  0  0  0  # atno 11005 bound_to 11000
  144.7588  139.7008  143.7243 LP  0  0  0  0  0  0  0  0  0  0  0  0  # atno 17320 bound_to 7965
  146.1995  139.5282  142.9752 LP  0  0  0  0  0  0  0  0  0  0  0  0  # atno 17321 bound_to 7965
  139.8015  144.7372  150.9818 LP  0  0  0  0  0  0  0  0  0  0  0  0  # atno 17342 bound_to 10162
  140.7820  143.4340  151.0651 LP  0  0  0  0  0  0  0  0  0  0  0  0  # atno 17343 bound_to 10162
  157.7027  130.9350  150.0834 LP  0  0  0  0  0  0  0  0  0  0  0  0  # atno 17370 bound_to 10713
  156.1833  130.3651  149.9006 LP  0  0  0  0  0  0  0  0  0  0  0  0  # atno 17371 bound_to 10713
  140.1403  134.4981  155.8037 LP  0  0  0  0  0  0  0  0  0  0  0  0  # atno 17394 bound_to 11000
  141.2182  133.6823  156.7198 LP  0  0  0  0  0  0  0  0  0  0  0  0  # atno 17395 bound_to 11000

$$$$
