AV-unprocessed.smi:691|AV-procd|sdf|3365|dock6
  -GOLD-   22720 0343D 1   1.00000     0.00000
 Structure written by MMmdl.
 37 38  0  0  0  0  0  0  0  0  1 V2000
  143.8469  133.6410  151.8260 C   0  0  0  0  0  0  0  0  0  0  0  0
  145.1678  134.4214  151.6193 C   0  0  2  0  0  0  0  0  0  0  0  0
  144.9112  135.6266  150.6751 C   0  0  0  0  0  0  0  0  0  0  0  0
  144.2056  135.2422  149.5118 O   0  0  0  0  0  0  0  0  0  0  0  0
  146.2571  133.4840  151.0689 C   0  0  0  0  0  0  0  0  0  0  0  0
  146.7871  132.7006  152.2724 C   0  0  0  0  0  0  0  0  0  0  0  0
  146.5281  133.5826  153.5007 C   0  0  0  0  0  0  0  0  0  0  0  0
  145.7422  134.8138  153.0098 C   0  0  1  0  0  0  0  0  0  0  0  0
  146.6470  135.9656  152.9575 N   0  0  0  0  0  0  0  0  0  0  0  0
  146.4623  137.1382  153.5815 C   0  0  0  0  0  0  0  0  0  0  0  0
  145.4853  137.3860  154.2872 O   0  0  0  0  0  0  0  0  0  0  0  0
  147.4796  137.9808  153.3329 N   0  0  0  0  0  0  0  0  0  0  0  0
  147.6757  139.3116  153.7948 C   0  0  0  0  0  0  0  0  0  0  0  0
  148.9386  139.8972  154.0576 C   0  0  0  0  0  0  0  0  0  0  0  0
  148.9889  141.2249  154.5249 C   0  0  0  0  0  0  0  0  0  0  0  0
  147.7779  141.9173  154.7175 C   0  0  0  0  0  0  0  0  0  0  0  0
  146.5675  141.3691  154.4823 N   0  0  0  0  0  0  0  0  0  0  0  0
  146.5273  140.0959  154.0350 C   0  0  0  0  0  0  0  0  0  0  0  0
  143.4766  133.2175  150.8921 H   0  0  0  0  0  0  0  0  0  0  0  0
  143.0664  134.2911  152.2225 H   0  0  0  0  0  0  0  0  0  0  0  0
  143.9635  132.8136  152.5262 H   0  0  0  0  0  0  0  0  0  0  0  0
  144.3408  136.3998  151.1908 H   0  0  0  0  0  0  0  0  0  0  0  0
  145.8447  136.0848  150.3482 H   0  0  0  0  0  0  0  0  0  0  0  0
  144.8315  135.0548  148.8290 H   0  0  0  0  0  0  0  0  0  0  0  0
  145.8937  132.8284  150.2767 H   0  0  0  0  0  0  0  0  0  0  0  0
  147.0712  134.0747  150.6465 H   0  0  0  0  0  0  0  0  0  0  0  0
  146.2440  131.7599  152.3733 H   0  0  0  0  0  0  0  0  0  0  0  0
  147.8433  132.4545  152.1581 H   0  0  0  0  0  0  0  0  0  0  0  0
  145.9368  133.0271  154.2297 H   0  0  0  0  0  0  0  0  0  0  0  0
  147.4593  133.8567  153.9990 H   0  0  0  0  0  0  0  0  0  0  0  0
  144.9324  135.0249  153.7109 H   0  0  0  0  0  0  0  0  0  0  0  0
  147.4820  135.8541  152.4015 H   0  0  0  0  0  0  0  0  0  0  0  0
  148.2332  137.6066  152.7748 H   0  0  0  0  0  0  0  0  0  0  0  0
  149.8648  139.3615  153.9249 H   0  0  0  0  0  0  0  0  0  0  0  0
  149.9358  141.7005  154.7340 H   0  0  0  0  0  0  0  0  0  0  0  0
  147.7819  142.9364  155.0753 H   0  0  0  0  0  0  0  0  0  0  0  0
  145.5414  139.6902  153.8603 H   0  0  0  0  0  0  0  0  0  0  0  0
  1  2  1  0  0  0  0
  1 19  1  0  0  0  0
  1 20  1  0  0  0  0
  1 21  1  0  0  0  0
  2  8  1  0  0  0  0
  2  3  1  0  0  0  0
  2  5  1  0  0  0  0
  3  4  1  0  0  0  0
  3 22  1  0  0  0  0
  3 23  1  0  0  0  0
  4 24  1  0  0  0  0
  5  6  1  0  0  0  0
  5 25  1  0  0  0  0
  5 26  1  0  0  0  0
  6  7  1  0  0  0  0
  6 27  1  0  0  0  0
  6 28  1  0  0  0  0
  7  8  1  0  0  0  0
  7 29  1  0  0  0  0
  7 30  1  0  0  0  0
  8  9  1  0  0  0  0
  8 31  1  0  0  0  0
  9 10  1  0  0  0  0
  9 32  1  0  0  0  0
 10 11  2  0  0  0  0
 10 12  1  0  0  0  0
 12 13  1  0  0  0  0
 12 33  1  0  0  0  0
 13 18  1  0  0  0  0
 13 14  2  0  0  0  0
 14 15  1  0  0  0  0
 14 34  1  0  0  0  0
 15 16  2  0  0  0  0
 15 35  1  0  0  0  0
 16 17  1  0  0  0  0
 16 36  1  0  0  0  0
 17 18  2  0  0  0  0
 18 37  1  0  0  0  0
M  END
> <s_m_source_file>
AV-unprocessed.smi

> <i_m_source_file_index>
691

> <i_lp_mmshare_version>
43012

> <i_f3d_flags>
0

> <s_epik_input>
W09IXVtDSDJdW0NAXTEoW0NIM10pW0NIMl1bQ0gyXVtDSDJdW0NASF0xW05IXUMoPU8pW05IXWMyW2NIXVtjSF1bY0hdbltjSF0y

> <s_epik_cmdline>
J2VwaWtfcHl0aG9uJywgJy1waCcsICc3LjAnLCAnLXRuJywgJzgnLCAnLW1hJywgJzIwMCcsICctbWV0YWxfYmluZGluZycsICctaW1hZScsICc8aW5maWxlLm1hZT4nLCAnLW9tYWUnLCAnPG91dGZpbGUubWFlPic=

> <r_epik_Ionization_Penalty>
0.00496828

> <r_epik_Ionization_Penalty_Charging>
0

> <r_epik_Ionization_Penalty_Neutral>
0.00496828

> <r_epik_State_Penalty>
0.00358054

> <r_epik_Charging_Adjusted_Penalty>
0.00358054

> <i_epik_Tot_Q>
0

> <i_epik_Tot_abs_Q>
0

> <r_epik_Metal_State_Penalty>
-0

> <b_epik_Metal_Only>
0

> <s_lp_Force_Field>
OPLS_2005

> <r_lp_Energy>
30.5868

> <b_lp_Chiralities_Consistent>
1

> <s_lp_Variant>
AV-unprocessed.smi:691-2

> <Gold.Version>
5.8.1

> <Gold.Id.Protein>
6NUR|6NUR_protein|mol2

> <Gold.PLP.Fitness>
41.6350

> <Gold.PLP.PLP>
-27.2425

> <Gold.PLP.part.hbond>
-3.0858

> <Gold.PLP.part.metal>
0.0000

> <Gold.PLP.part.buried>
-1.8019

> <Gold.PLP.part.nonpolar>
-23.4207

> <Gold.PLP.part.repulsive>
0.2529

> <Gold.PLP.ligand.clash>
0.0000

> <Gold.PLP.ligand.torsion>
0.3088

> <Gold.PLP.Chemscore.Hbond>
3.0000

> <Gold.PLP.Chemscore.CHOScore>
2.0000

> <Gold.PLP.Chemscore.Metal>
0.0000

> <Gold.Chemscore.Hbonds>
donor molecule, donor type, donor heavy atom, donor atom, acceptor molecule, acceptor atom, score
      L1  H     4    24       P1  7921  1.00
      L1  H     9    32       P1  7948  1.00
      L1  H    12    33       P1  7948  1.00
      L1  C    16    36       P1  8028  1.00
      L1  C    18    37       P1 10175  1.00

> <Gold.PLP.Chemscore.Internal.Correction>
0.0100

> <Gold.Rescore>
     Score         DG    S(hbond)    S(metal)    S(lipo)     H(rot)  DE(clash)    DE(int)     intcor
     16.83     -18.51       2.96        0.00      66.01       1.78       0.13       1.55       ----

> <Gold.Chemscore.Fitness>
16.8303

> <Gold.Chemscore.DG>
-18.5100

> <Gold.Chemscore.ZeroCoef>
-5.4800

> <Gold.Chemscore.Hbond>
2.9561

> <Gold.Chemscore.Metal>
0.0000

> <Gold.Chemscore.Lipo>
66.0090

> <Gold.Chemscore.Internal_Hbond>
0.0000

> <Gold.Chemscore.DEClash>
0.1252

> <Gold.Chemscore.DEInternal>
1.5544

> <Gold.Chemscore.Rot>
1.7838

> <Gold.Chemscore.Internal.Correction>
   9.000000E+99

> <Gold.Chemscore.Hbonds>
donor molecule, donor type, donor heavy atom, donor atom, acceptor molecule, acceptor atom, score
      L1  H     4    24       P1  7921  1.00
      L1  H     9    32       P1  7948  0.97
      L1  H    12    33       P1  7948  0.95

> <Gold.Chemscore.Hbond.Weighted>
-9.8735

> <Gold.Chemscore.Metal.Weighted>
-0.0000

> <Gold.Chemscore.Lipo.Weighted>
-7.7231

> <Gold.Chemscore.Internal_Hbond.Weighted>
0.0000

> <Gold.Chemscore.DEClash.Weighted>
0.1252

> <Gold.Chemscore.DEInternal.Weighted>
1.5544

> <Gold.Chemscore.Rot.Weighted>
4.5666

> <Gold.Chemscore.Internal.Correction.Weighted>
   9.000000E+99

> <Gold.Protein.RotatedTorsions>
[ 6907 6896 6895 6894 ] final  147.24 input  -60.11 | X-H torsion
[ 7974 7965 7964 7962 ] final  139.49 input  175.53 | X-H torsion
[ 8008 7997 7996 7995 ] final  135.91 input   59.86 | X-H torsion
[ 10167 10162 10161 10158 ] final   81.28 input  -65.29 | X-H torsion
[ 10718 10713 10712 10709 ] final  -14.61 input   66.30 | X-H torsion
[ 10763 10752 10751 10750 ] final  -47.41 input  -60.55 | X-H torsion
[ 11005 11000 10999 10996 ] final  172.42 input  -57.11 | X-H torsion

> <Gold.Protein.ActiveResidues>
 VAL166  LYS551  ARG553  GLY616  TRP617  ASP618  TYR619  PRO620  LYS621  CYS622 
 ASP623  PHE694  ASN695  SER759  ASP760  ASP761  ALA762  ILE779  LEU786  VAL792 
 PHE793  MET794  SER795  GLU796  ALA797  LYS798  CYS799  TRP800  GLU811  SER814 

> <Gold.Protein.RotatedAtoms>
  152.1574  133.4560  159.4843 H   0  0  0  0  0  0  0  0  0  0  0  0  # atno 6907 bound_to 6896
  150.6902  134.2114  159.4370 H   0  0  0  0  0  0  0  0  0  0  0  0  # atno 6908 bound_to 6896
  152.0014  134.9926  160.0616 H   0  0  0  0  0  0  0  0  0  0  0  0  # atno 6909 bound_to 6896
  144.9274  139.5090  143.5634 H   0  0  0  0  0  0  0  0  0  0  0  0  # atno 7974 bound_to 7965
  156.3004  140.2458  156.3659 H   0  0  0  0  0  0  0  0  0  0  0  0  # atno 8008 bound_to 7997
  154.8834  140.0412  157.1815 H   0  0  0  0  0  0  0  0  0  0  0  0  # atno 8009 bound_to 7997
  154.8672  140.2929  155.5507 H   0  0  0  0  0  0  0  0  0  0  0  0  # atno 8010 bound_to 7997
  139.9409  144.6090  150.8253 H   0  0  0  0  0  0  0  0  0  0  0  0  # atno 10167 bound_to 10162
  156.6136  130.4856  149.6192 H   0  0  0  0  0  0  0  0  0  0  0  0  # atno 10718 bound_to 10713
  154.0609  135.6618  153.4811 H   0  0  0  0  0  0  0  0  0  0  0  0  # atno 10763 bound_to 10752
  153.0427  135.5134  154.7660 H   0  0  0  0  0  0  0  0  0  0  0  0  # atno 10764 bound_to 10752
  154.6696  135.3027  154.9727 H   0  0  0  0  0  0  0  0  0  0  0  0  # atno 10765 bound_to 10752
  140.3296  134.7369  157.4124 H   0  0  0  0  0  0  0  0  0  0  0  0  # atno 11005 bound_to 11000
  146.3232  139.8199  142.8929 LP  0  0  0  0  0  0  0  0  0  0  0  0  # atno 17320 bound_to 7965
  145.3197  141.0241  143.3507 LP  0  0  0  0  0  0  0  0  0  0  0  0  # atno 17321 bound_to 7965
  140.7611  143.3167  151.2718 LP  0  0  0  0  0  0  0  0  0  0  0  0  # atno 17342 bound_to 10162
  139.6705  144.0028  152.2750 LP  0  0  0  0  0  0  0  0  0  0  0  0  # atno 17343 bound_to 10162
  156.2369  130.6828  151.1518 LP  0  0  0  0  0  0  0  0  0  0  0  0  # atno 17370 bound_to 10713
  157.7247  131.0658  150.5982 LP  0  0  0  0  0  0  0  0  0  0  0  0  # atno 17371 bound_to 10713
  140.0872  134.5650  155.8480 LP  0  0  0  0  0  0  0  0  0  0  0  0  # atno 17394 bound_to 11000
  141.2067  133.6657  156.6257 LP  0  0  0  0  0  0  0  0  0  0  0  0  # atno 17395 bound_to 11000

$$$$
