AV-unprocessed.smi:158|AV-procd|sdf|1330|dock8
  -GOLD-   2262019 23D 1   1.00000     0.00000
 Structure written by MMmdl.
 31 33  0  0  0  0  0  0  0  0  1 V2000
  152.7170  137.0357  157.3176 N   0  0  0  0  0  0  0  0  0  0  0  0
  152.1982  138.2427  157.0531 C   0  0  0  0  0  0  0  0  0  0  0  0
  152.6318  139.3038  157.7724 N   0  0  0  0  0  0  0  0  0  0  0  0
  152.1409  140.5272  157.5371 C   0  0  0  0  0  0  0  0  0  0  0  0
  152.7662  141.8042  158.5124 Cl  0  0  0  0  0  0  0  0  0  0  0  0
  151.2186  140.8709  156.6312 N   0  0  0  0  0  0  0  0  0  0  0  0
  150.7773  139.8018  155.9075 C   0  0  0  0  0  0  0  0  0  0  0  0
  151.2182  138.4604  156.0543 C   0  0  0  0  0  0  0  0  0  0  0  0
  150.5604  137.6448  155.1443 N   0  0  0  0  0  0  0  0  0  0  0  0
  149.7777  138.4656  154.4958 C   0  0  0  0  0  0  0  0  0  0  0  0
  149.8310  139.7826  154.9057 N   0  0  0  0  0  0  0  0  0  0  0  0
  149.0856  140.9751  154.3878 C   0  0  1  0  0  0  0  0  0  0  0  0
  148.6457  140.6823  153.0905 O   0  0  0  0  0  0  0  0  0  0  0  0
  147.2292  140.4707  153.0600 C   0  0  1  0  0  0  0  0  0  0  0  0
  146.8763  139.2669  152.1720 C   0  0  0  0  0  0  0  0  0  0  0  0
  145.5154  138.9306  152.3322 O   0  0  0  0  0  0  0  0  0  0  0  0
  146.8477  140.2788  154.5305 C   0  0  2  0  0  0  0  0  0  0  0  0
  145.5062  140.6174  154.8216 O   0  0  0  0  0  0  0  0  0  0  0  0
  147.8262  141.2063  155.2245 C   0  0  2  0  0  0  0  0  0  0  0  0
  147.4744  142.4871  155.0877 F   0  0  0  0  0  0  0  0  0  0  0  0
  149.8121  141.7882  154.4158 H   0  0  0  0  0  0  0  0  0  0  0  0
  146.7570  141.3805  152.6838 H   0  0  0  0  0  0  0  0  0  0  0  0
  147.0337  139.2492  154.8405 H   0  0  0  0  0  0  0  0  0  0  0  0
  147.9729  141.0005  156.2851 H   0  0  0  0  0  0  0  0  0  0  0  0
  152.4085  136.2303  156.7918 H   0  0  0  0  0  0  0  0  0  0  0  0
  153.4147  136.9331  158.0406 H   0  0  0  0  0  0  0  0  0  0  0  0
  149.1417  138.1221  153.6946 H   0  0  0  0  0  0  0  0  0  0  0  0
  147.0996  139.4572  151.1231 H   0  0  0  0  0  0  0  0  0  0  0  0
  147.4630  138.3981  152.4717 H   0  0  0  0  0  0  0  0  0  0  0  0
  145.0888  138.9911  151.4911 H   0  0  0  0  0  0  0  0  0  0  0  0
  145.0501  140.7698  154.0082 H   0  0  0  0  0  0  0  0  0  0  0  0
  1  2  1  0  0  0  0
  1 25  1  0  0  0  0
  1 26  1  0  0  0  0
  2  8  1  0  0  0  0
  2  3  2  0  0  0  0
  3  4  1  0  0  0  0
  4  5  1  0  0  0  0
  4  6  2  0  0  0  0
  6  7  1  0  0  0  0
  7 11  1  0  0  0  0
  7  8  2  0  0  0  0
  8  9  1  0  0  0  0
  9 10  2  0  0  0  0
 10 11  1  0  0  0  0
 10 27  1  0  0  0  0
 11 12  1  0  0  0  0
 12 21  1  0  0  0  0
 12 19  1  0  0  0  0
 12 13  1  0  0  0  0
 13 14  1  0  0  0  0
 14 22  1  0  0  0  0
 14 15  1  0  0  0  0
 14 17  1  0  0  0  0
 15 16  1  0  0  0  0
 15 28  1  0  0  0  0
 15 29  1  0  0  0  0
 16 30  1  0  0  0  0
 17 23  1  0  0  0  0
 17 18  1  0  0  0  0
 17 19  1  0  0  0  0
 18 31  1  0  0  0  0
 19 24  1  0  0  0  0
 19 20  1  0  0  0  0
M  END
> <s_m_source_file>
AV-unprocessed.smi

> <i_m_source_file_index>
158

> <i_lp_mmshare_version>
43012

> <i_f3d_flags>
0

> <s_epik_input>
Q2xjKG4xKW5jKFtOSDJdKWMoYzEyKW5bY0hdbjJbQ0BASF0zT1tDQEhdKFtDSDJdW09IXSlbQ0BASF0oW09IXSlbQ0BASF0zRg==

> <s_epik_cmdline>
J2VwaWtfcHl0aG9uJywgJy1waCcsICc3LjAnLCAnLXRuJywgJzgnLCAnLW1hJywgJzIwMCcsICctbWV0YWxfYmluZGluZycsICctaW1hZScsICc8aW5maWxlLm1hZT4nLCAnLW9tYWUnLCAnPG91dGZpbGUubWFlPic=

> <r_lp_tautomer_probability>
1

> <r_epik_Ionization_Penalty>
6.51543e-05

> <r_epik_Ionization_Penalty_Charging>
0

> <r_epik_Ionization_Penalty_Neutral>
6.51543e-05

> <r_epik_State_Penalty>
-0

> <r_epik_Charging_Adjusted_Penalty>
0

> <i_epik_Tot_Q>
0

> <i_epik_Tot_abs_Q>
0

> <r_epik_Metal_State_Penalty>
-0

> <b_epik_Metal_Only>
0

> <s_epik_Chemistry_Notes>
This compound contains an acetal/aminal-like group ( X-CH(R)-Y where X, Y are N, S, or O) that may be acid/base labile, releasing an aldehyde.

> <s_lp_Force_Field>
OPLS_2005

> <r_lp_Energy>
30.2805

> <b_lp_Chiralities_Consistent>
1

> <s_lp_Variant>
AV-unprocessed.smi:158-8

> <Gold.Version>
5.8.1

> <Gold.Id.Protein>
6NUR|6NUR_protein|mol2

> <Gold.PLP.Fitness>
41.4318

> <Gold.PLP.PLP>
-26.8479

> <Gold.PLP.part.hbond>
-5.0000

> <Gold.PLP.part.metal>
0.0000

> <Gold.PLP.part.buried>
1.5364

> <Gold.PLP.part.nonpolar>
-27.4101

> <Gold.PLP.part.repulsive>
4.8800

> <Gold.PLP.ligand.clash>
0.0000

> <Gold.PLP.ligand.torsion>
0.7107

> <Gold.PLP.Chemscore.Hbond>
3.9108

> <Gold.PLP.Chemscore.CHOScore>
1.4151

> <Gold.PLP.Chemscore.Metal>
0.0000

> <Gold.Chemscore.Hbonds>
donor molecule, donor type, donor heavy atom, donor atom, acceptor molecule, acceptor atom, score
      L1  H    16    30       P1 10171  0.83
      L1  H    18    31       P1 10175  0.91
      P1  H  7997  8008       L1     3  0.20
      P1  H  8011  8017       L1    13  0.28
      L1  C    10    27       P1  7948  0.79

> <Gold.PLP.Chemscore.Internal.Correction>
0.0276

> <Gold.Rescore>
     Score         DG    S(hbond)    S(metal)    S(lipo)     H(rot)  DE(clash)    DE(int)     intcor
      4.95      -9.33       2.07        0.00      42.21       3.12       3.84       0.54       ----

> <Gold.Chemscore.Fitness>
4.9532

> <Gold.Chemscore.DG>
-9.3312

> <Gold.Chemscore.ZeroCoef>
-5.4800

> <Gold.Chemscore.Hbond>
2.0683

> <Gold.Chemscore.Metal>
0.0000

> <Gold.Chemscore.Lipo>
42.2066

> <Gold.Chemscore.Internal_Hbond>
0.0000

> <Gold.Chemscore.DEClash>
3.8370

> <Gold.Chemscore.DEInternal>
0.5409

> <Gold.Chemscore.Rot>
3.1230

> <Gold.Chemscore.Internal.Correction>
   9.000000E+99

> <Gold.Chemscore.Hbonds>
donor molecule, donor type, donor heavy atom, donor atom, acceptor molecule, acceptor atom, score
      L1  H    16    30       P1 10171  0.82
      L1  H    18    31       P1 10175  0.85
      P1  H  8011  8017       L1    13  0.01

> <Gold.Chemscore.Hbond.Weighted>
-6.9080

> <Gold.Chemscore.Metal.Weighted>
-0.0000

> <Gold.Chemscore.Lipo.Weighted>
-4.9382

> <Gold.Chemscore.Internal_Hbond.Weighted>
0.0000

> <Gold.Chemscore.DEClash.Weighted>
3.8370

> <Gold.Chemscore.DEInternal.Weighted>
0.5409

> <Gold.Chemscore.Rot.Weighted>
7.9950

> <Gold.Chemscore.Internal.Correction.Weighted>
   9.000000E+99

> <Gold.Protein.RotatedTorsions>
[ 6907 6896 6895 6894 ] final  -82.72 input  -60.11 | X-H torsion
[ 7974 7965 7964 7962 ] final  -93.41 input  175.53 | X-H torsion
[ 8008 7997 7996 7995 ] final  -80.73 input   59.86 | X-H torsion
[ 10167 10162 10161 10158 ] final -162.56 input  -65.29 | X-H torsion
[ 10718 10713 10712 10709 ] final  -89.90 input   66.30 | X-H torsion
[ 10763 10752 10751 10750 ] final -100.93 input  -60.55 | X-H torsion
[ 11005 11000 10999 10996 ] final  -27.56 input  -57.11 | X-H torsion

> <Gold.Protein.ActiveResidues>
 VAL166  LYS551  ARG553  GLY616  TRP617  ASP618  TYR619  PRO620  LYS621  CYS622 
 ASP623  PHE694  ASN695  SER759  ASP760  ASP761  ALA762  ILE779  LEU786  VAL792 
 PHE793  MET794  SER795  GLU796  ALA797  LYS798  CYS799  TRP800  GLU811  SER814 

> <Gold.Protein.RotatedAtoms>
  150.6894  134.3621  159.4954 H   0  0  0  0  0  0  0  0  0  0  0  0  # atno 6907 bound_to 6896
  152.1449  134.9031  160.0561 H   0  0  0  0  0  0  0  0  0  0  0  0  # atno 6908 bound_to 6896
  152.0151  133.3841  159.4272 H   0  0  0  0  0  0  0  0  0  0  0  0  # atno 6909 bound_to 6896
  145.3869  140.9524  143.2362 H   0  0  0  0  0  0  0  0  0  0  0  0  # atno 7974 bound_to 7965
  154.5912  140.0658  156.9241 H   0  0  0  0  0  0  0  0  0  0  0  0  # atno 8008 bound_to 7997
  155.2292  140.3336  155.4287 H   0  0  0  0  0  0  0  0  0  0  0  0  # atno 8009 bound_to 7997
  156.2257  140.1818  156.7353 H   0  0  0  0  0  0  0  0  0  0  0  0  # atno 8010 bound_to 7997
  139.6383  144.0307  152.2072 H   0  0  0  0  0  0  0  0  0  0  0  0  # atno 10167 bound_to 10162
  155.9986  130.4889  150.5241 H   0  0  0  0  0  0  0  0  0  0  0  0  # atno 10718 bound_to 10713
  154.7618  135.4917  153.9478 H   0  0  0  0  0  0  0  0  0  0  0  0  # atno 10763 bound_to 10752
  153.1260  135.6742  153.9264 H   0  0  0  0  0  0  0  0  0  0  0  0  # atno 10764 bound_to 10752
  153.8982  135.3113  155.3427 H   0  0  0  0  0  0  0  0  0  0  0  0  # atno 10765 bound_to 10752
  140.9130  133.7448  156.0696 H   0  0  0  0  0  0  0  0  0  0  0  0  # atno 11005 bound_to 11000
  144.8468  139.5385  143.6875 LP  0  0  0  0  0  0  0  0  0  0  0  0  # atno 17320 bound_to 7965
  146.2816  139.6892  142.9225 LP  0  0  0  0  0  0  0  0  0  0  0  0  # atno 17321 bound_to 7965
  139.9990  144.6307  150.7746 LP  0  0  0  0  0  0  0  0  0  0  0  0  # atno 17342 bound_to 10162
  140.7477  143.2911  151.3328 LP  0  0  0  0  0  0  0  0  0  0  0  0  # atno 17343 bound_to 10162
  157.3199  131.0680  151.1939 LP  0  0  0  0  0  0  0  0  0  0  0  0  # atno 17370 bound_to 10713
  157.2856  130.6771  149.6088 LP  0  0  0  0  0  0  0  0  0  0  0  0  # atno 17371 bound_to 10713
  140.8086  134.3425  157.5418 LP  0  0  0  0  0  0  0  0  0  0  0  0  # atno 17394 bound_to 11000
  139.8761  134.9240  156.3340 LP  0  0  0  0  0  0  0  0  0  0  0  0  # atno 17395 bound_to 11000

$$$$
