AV-unprocessed.smi:2704|AV-procd|sdf|10442|dock4
  -GOLD-   2272014483D 1   1.00000     0.00000
 Structure written by MMmdl.
 43 44  0  0  0  0  0  0  0  0  1 V2000
  152.9665  138.8617  158.0271 C   0  0  0  0  0  0  0  0  0  0  0  0
  152.9065  137.3661  158.3717 C   0  0  0  0  0  0  0  0  0  0  0  0
  154.2646  136.6647  158.2272 C   0  0  0  0  0  0  0  0  0  0  0  0
  151.8290  136.6639  157.6023 C   0  0  0  0  0  0  0  0  0  0  0  0
  150.7587  136.1697  158.2138 N   0  0  0  0  0  0  0  0  0  0  0  0
  150.0040  135.6284  157.1636 O   0  0  0  0  0  0  0  0  0  0  0  0
  150.7099  135.8769  156.0349 C   0  0  0  0  0  0  0  0  0  0  0  0
  150.1776  135.3796  154.7296 C   0  0  0  0  0  0  0  0  0  0  0  0
  149.3532  134.0832  154.8364 C   0  0  0  0  0  0  0  0  0  0  0  0
  148.4766  133.8783  153.6865 N   0  0  0  0  0  0  0  0  0  0  0  0
  147.6589  132.8276  153.4967 C   0  0  0  0  0  0  0  0  0  0  0  0
  147.5720  131.9058  154.3093 O   0  0  0  0  0  0  0  0  0  0  0  0
  146.8167  132.7854  152.2006 C   0  0  0  0  0  0  0  0  0  0  0  0
  147.6638  132.7286  151.0613 O   0  0  0  0  0  0  0  0  0  0  0  0
  145.9232  131.5205  152.2032 C   0  0  0  0  0  0  0  0  0  0  0  0
  144.9292  131.4845  151.0283 C   0  0  0  0  0  0  0  0  0  0  0  0
  144.0729  132.7577  150.9823 C   0  0  0  0  0  0  0  0  0  0  0  0
  144.9551  134.0124  150.9144 C   0  0  0  0  0  0  0  0  0  0  0  0
  145.9464  134.0635  152.0913 C   0  0  0  0  0  0  0  0  0  0  0  0
  151.8638  136.5052  156.2490 N   0  0  0  0  0  0  0  0  0  0  0  0
  152.0076  139.3456  158.2160 H   0  0  0  0  0  0  0  0  0  0  0  0
  153.2183  139.0187  156.9777 H   0  0  0  0  0  0  0  0  0  0  0  0
  153.7182  139.3730  158.6287 H   0  0  0  0  0  0  0  0  0  0  0  0
  152.6418  137.3049  159.4287 H   0  0  0  0  0  0  0  0  0  0  0  0
  154.2045  135.6244  158.5480 H   0  0  0  0  0  0  0  0  0  0  0  0
  155.0255  137.1537  158.8360 H   0  0  0  0  0  0  0  0  0  0  0  0
  154.6096  136.6784  157.1932 H   0  0  0  0  0  0  0  0  0  0  0  0
  149.5641  136.1661  154.2893 H   0  0  0  0  0  0  0  0  0  0  0  0
  151.0162  135.2281  154.0489 H   0  0  0  0  0  0  0  0  0  0  0  0
  150.0156  133.2271  154.9744 H   0  0  0  0  0  0  0  0  0  0  0  0
  148.7271  134.1272  155.7276 H   0  0  0  0  0  0  0  0  0  0  0  0
  148.4901  134.5891  152.9690 H   0  0  0  0  0  0  0  0  0  0  0  0
  147.9788  131.8423  150.9700 H   0  0  0  0  0  0  0  0  0  0  0  0
  146.5445  130.6243  152.1826 H   0  0  0  0  0  0  0  0  0  0  0  0
  145.3532  131.4717  153.1324 H   0  0  0  0  0  0  0  0  0  0  0  0
  145.4693  131.3713  150.0876 H   0  0  0  0  0  0  0  0  0  0  0  0
  144.2852  130.6093  151.1180 H   0  0  0  0  0  0  0  0  0  0  0  0
  143.4041  132.7257  150.1216 H   0  0  0  0  0  0  0  0  0  0  0  0
  143.4372  132.8042  151.8674 H   0  0  0  0  0  0  0  0  0  0  0  0
  145.4991  134.0277  149.9694 H   0  0  0  0  0  0  0  0  0  0  0  0
  144.3293  134.9052  150.9207 H   0  0  0  0  0  0  0  0  0  0  0  0
  145.3746  134.2047  153.0102 H   0  0  0  0  0  0  0  0  0  0  0  0
  146.5818  134.9452  151.9949 H   0  0  0  0  0  0  0  0  0  0  0  0
  1  2  1  0  0  0  0
  1 21  1  0  0  0  0
  1 22  1  0  0  0  0
  1 23  1  0  0  0  0
  2  3  1  0  0  0  0
  2  4  1  0  0  0  0
  2 24  1  0  0  0  0
  3 25  1  0  0  0  0
  3 26  1  0  0  0  0
  3 27  1  0  0  0  0
  4 20  1  0  0  0  0
  4  5  2  0  0  0  0
  5  6  1  0  0  0  0
  6  7  1  0  0  0  0
  7  8  1  0  0  0  0
  7 20  2  0  0  0  0
  8  9  1  0  0  0  0
  8 28  1  0  0  0  0
  8 29  1  0  0  0  0
  9 10  1  0  0  0  0
  9 30  1  0  0  0  0
  9 31  1  0  0  0  0
 10 11  1  0  0  0  0
 10 32  1  0  0  0  0
 11 12  2  0  0  0  0
 11 13  1  0  0  0  0
 13 19  1  0  0  0  0
 13 14  1  0  0  0  0
 13 15  1  0  0  0  0
 14 33  1  0  0  0  0
 15 16  1  0  0  0  0
 15 34  1  0  0  0  0
 15 35  1  0  0  0  0
 16 17  1  0  0  0  0
 16 36  1  0  0  0  0
 16 37  1  0  0  0  0
 17 18  1  0  0  0  0
 17 38  1  0  0  0  0
 17 39  1  0  0  0  0
 18 19  1  0  0  0  0
 18 40  1  0  0  0  0
 18 41  1  0  0  0  0
 19 42  1  0  0  0  0
 19 43  1  0  0  0  0
M  END
> <s_m_source_file>
AV-unprocessed.smi

> <i_m_source_file_index>
2704

> <i_lp_mmshare_version>
43012

> <i_f3d_flags>
0

> <s_epik_input>
W0NIM11bQ0hdKFtDSDNdKWMxbm9jKG4xKVtDSDJdW0NIMl1bTkhdQyg9TylDMihbT0hdKVtDSDJdW0NIMl1bQ0gyXVtDSDJdW0NIMl0y

> <s_epik_cmdline>
J2VwaWtfcHl0aG9uJywgJy1waCcsICc3LjAnLCAnLXRuJywgJzgnLCAnLW1hJywgJzIwMCcsICctbWV0YWxfYmluZGluZycsICctaW1hZScsICc8aW5maWxlLm1hZT4nLCAnLW9tYWUnLCAnPG91dGZpbGUubWFlPic=

> <r_lp_tautomer_probability>
1

> <r_epik_Ionization_Penalty>
7.72761e-08

> <r_epik_Ionization_Penalty_Charging>
0

> <r_epik_Ionization_Penalty_Neutral>
7.72761e-08

> <r_epik_State_Penalty>
-0

> <r_epik_Charging_Adjusted_Penalty>
0

> <i_epik_Tot_Q>
0

> <i_epik_Tot_abs_Q>
0

> <r_epik_Metal_State_Penalty>
-0

> <b_epik_Metal_Only>
0

> <s_lp_Force_Field>
OPLS_2005

> <r_lp_Energy>
5.6077

> <b_lp_Chiralities_Consistent>
1

> <s_lp_Variant>
AV-unprocessed.smi:2704-1

> <Gold.Version>
5.8.1

> <Gold.Id.Protein>
6NUR|6NUR_protein|mol2

> <Gold.PLP.Fitness>
38.3036

> <Gold.PLP.PLP>
-28.3980

> <Gold.PLP.part.hbond>
-3.5485

> <Gold.PLP.part.metal>
0.0000

> <Gold.PLP.part.buried>
-3.4967

> <Gold.PLP.part.nonpolar>
-21.1069

> <Gold.PLP.part.repulsive>
0.0416

> <Gold.PLP.ligand.clash>
0.0000

> <Gold.PLP.ligand.torsion>
0.5347

> <Gold.PLP.Chemscore.Hbond>
3.6233

> <Gold.PLP.Chemscore.CHOScore>
0.0000

> <Gold.PLP.Chemscore.Metal>
0.0000

> <Gold.Chemscore.Hbonds>
donor molecule, donor type, donor heavy atom, donor atom, acceptor molecule, acceptor atom, score
      L1  H    10    32       P1  7948  1.00
      L1  H    14    33       P1 10747  0.94
      P1  H  6896  6909       L1     5  0.69
      P1  H 10752 10763       L1    20  0.84

> <Gold.PLP.Chemscore.Internal.Correction>
0.1052

> <Gold.Rescore>
     Score         DG    S(hbond)    S(metal)    S(lipo)     H(rot)  DE(clash)    DE(int)     intcor
     15.33     -15.97       3.04        0.00      57.63       2.50       0.07       0.57       ----

> <Gold.Chemscore.Fitness>
15.3290

> <Gold.Chemscore.DG>
-15.9723

> <Gold.Chemscore.ZeroCoef>
-5.4800

> <Gold.Chemscore.Hbond>
3.0388

> <Gold.Chemscore.Metal>
0.0000

> <Gold.Chemscore.Lipo>
57.6315

> <Gold.Chemscore.Internal_Hbond>
0.0000

> <Gold.Chemscore.DEClash>
0.0727

> <Gold.Chemscore.DEInternal>
0.5707

> <Gold.Chemscore.Rot>
2.5001

> <Gold.Chemscore.Internal.Correction>
   9.000000E+99

> <Gold.Chemscore.Hbonds>
donor molecule, donor type, donor heavy atom, donor atom, acceptor molecule, acceptor atom, score
      L1  H    10    32       P1  7948  0.29
      L1  H    14    33       P1 10747  0.87
      P1  H  6896  6909       L1     5  0.59
      P1  H 10752 10763       L1    20  0.48

> <Gold.Chemscore.Hbond.Weighted>
-10.1496

> <Gold.Chemscore.Metal.Weighted>
-0.0000

> <Gold.Chemscore.Lipo.Weighted>
-6.7429

> <Gold.Chemscore.Internal_Hbond.Weighted>
0.0000

> <Gold.Chemscore.DEClash.Weighted>
0.0727

> <Gold.Chemscore.DEInternal.Weighted>
0.5707

> <Gold.Chemscore.Rot.Weighted>
6.4002

> <Gold.Chemscore.Internal.Correction.Weighted>
   9.000000E+99

> <Gold.Protein.RotatedTorsions>
[ 6907 6896 6895 6894 ] final   81.50 input  -60.11 | X-H torsion
[ 7974 7965 7964 7962 ] final  -32.59 input  175.53 | X-H torsion
[ 8008 7997 7996 7995 ] final -145.19 input   59.86 | X-H torsion
[ 10167 10162 10161 10158 ] final  172.90 input  -65.29 | X-H torsion
[ 10718 10713 10712 10709 ] final -153.53 input   66.30 | X-H torsion
[ 10763 10752 10751 10750 ] final  105.28 input  -60.55 | X-H torsion
[ 11005 11000 10999 10996 ] final  143.86 input  -57.11 | X-H torsion

> <Gold.Protein.ActiveResidues>
 VAL166  LYS551  ARG553  GLY616  TRP617  ASP618  TYR619  PRO620  LYS621  CYS622 
 ASP623  PHE694  ASN695  SER759  ASP760  ASP761  ALA762  ILE779  LEU786  VAL792 
 PHE793  MET794  SER795  GLU796  ALA797  LYS798  CYS799  TRP800  GLU811  SER814 

> <Gold.Protein.RotatedAtoms>
  152.5270  134.3195  159.9142 H   0  0  0  0  0  0  0  0  0  0  0  0  # atno 6907 bound_to 6896
  151.3144  133.4060  159.2657 H   0  0  0  0  0  0  0  0  0  0  0  0  # atno 6908 bound_to 6896
  151.0011  134.9340  159.8012 H   0  0  0  0  0  0  0  0  0  0  0  0  # atno 6909 bound_to 6896
  146.0978  140.5812  142.8835 H   0  0  0  0  0  0  0  0  0  0  0  0  # atno 7974 bound_to 7965
  155.5391  140.0606  157.2873 H   0  0  0  0  0  0  0  0  0  0  0  0  # atno 8008 bound_to 7997
  154.4458  140.1922  156.0617 H   0  0  0  0  0  0  0  0  0  0  0  0  # atno 8009 bound_to 7997
  156.0597  140.3274  155.7451 H   0  0  0  0  0  0  0  0  0  0  0  0  # atno 8010 bound_to 7997
  139.5091  144.3322  152.0100 H   0  0  0  0  0  0  0  0  0  0  0  0  # atno 10167 bound_to 10162
  156.4870  130.8330  151.2554 H   0  0  0  0  0  0  0  0  0  0  0  0  # atno 10718 bound_to 10713
  153.3773  135.3915  155.1831 H   0  0  0  0  0  0  0  0  0  0  0  0  # atno 10763 bound_to 10752
  154.8703  135.3717  154.4902 H   0  0  0  0  0  0  0  0  0  0  0  0  # atno 10764 bound_to 10752
  153.5375  135.7085  153.5713 H   0  0  0  0  0  0  0  0  0  0  0  0  # atno 10765 bound_to 10752
  140.0587  134.9216  157.1146 H   0  0  0  0  0  0  0  0  0  0  0  0  # atno 11005 bound_to 11000
  144.7408  140.4938  143.6870 LP  0  0  0  0  0  0  0  0  0  0  0  0  # atno 17320 bound_to 7965
  145.5915  139.1496  143.3180 LP  0  0  0  0  0  0  0  0  0  0  0  0  # atno 17321 bound_to 7965
  140.2761  144.3910  150.6134 LP  0  0  0  0  0  0  0  0  0  0  0  0  # atno 17342 bound_to 10162
  140.6052  143.2167  151.6994 LP  0  0  0  0  0  0  0  0  0  0  0  0  # atno 17343 bound_to 10162
  157.7477  131.0026  150.3006 LP  0  0  0  0  0  0  0  0  0  0  0  0  # atno 17370 bound_to 10713
  156.3464  130.3823  149.7366 LP  0  0  0  0  0  0  0  0  0  0  0  0  # atno 17371 bound_to 10713
  140.3804  134.2293  155.7171 LP  0  0  0  0  0  0  0  0  0  0  0  0  # atno 17394 bound_to 11000
  141.1963  133.8084  157.0676 LP  0  0  0  0  0  0  0  0  0  0  0  0  # atno 17395 bound_to 11000

$$$$
