AV-unprocessed.smi:1413|AV-procd|sdf|5751|dock7
  -GOLD-   22720 5383D 1   1.00000     0.00000
 Structure written by MMmdl.
 53 55  0  0  0  0  0  0  0  0  1 V2000
  151.1315  144.9735  158.3254 C   0  0  0  0  0  0  0  0  0  0  0  0
  151.7455  143.6146  157.9735 C   0  0  2  0  0  0  0  0  0  0  0  0
  150.6950  142.6326  157.4205 C   0  0  0  0  0  0  0  0  0  0  0  0
  151.2869  141.3140  157.2143 N   0  0  0  0  0  0  0  0  0  0  0  0
  150.5073  140.4104  156.4607 C   0  0  0  0  0  0  0  0  0  0  0  0
  149.4072  139.7519  157.0586 C   0  0  0  0  0  0  0  0  0  0  0  0
  148.6392  138.8554  156.2906 C   0  0  0  0  0  0  0  0  0  0  0  0
  148.9862  138.6438  154.9365 C   0  0  0  0  0  0  0  0  0  0  0  0
  148.3021  137.7515  154.0684 N   0  0  0  0  0  0  0  0  0  0  0  0
  146.9935  137.4467  154.0540 C   0  0  0  0  0  0  0  0  0  0  0  0
  146.1469  137.9197  154.8119 O   0  0  0  0  0  0  0  0  0  0  0  0
  146.7154  136.5630  153.0846 N   0  0  0  0  0  0  0  0  0  0  0  0
  145.3910  136.0410  152.7468 C   0  0  1  0  0  0  0  0  0  0  0  0
  144.3999  137.2087  152.6382 C   0  0  0  0  0  0  0  0  0  0  0  0
  145.4354  135.2049  151.4505 C   0  0  2  0  0  0  0  0  0  0  0  0
  144.1143  134.5365  151.0411 C   0  0  0  0  0  0  0  0  0  0  0  0
  144.5352  133.1897  150.4682 C   0  0  0  0  0  0  0  0  0  0  0  0
  146.0612  133.2283  150.5032 C   0  0  0  0  0  0  0  0  0  0  0  0
  146.3497  134.1228  151.5642 O   0  0  0  0  0  0  0  0  0  0  0  0
  150.1062  139.3344  154.4331 C   0  0  0  0  0  0  0  0  0  0  0  0
  150.8417  140.1975  155.1643 N   0  0  0  0  0  0  0  0  0  0  0  0
  151.9799  140.8012  158.3941 C   0  0  0  0  0  0  0  0  0  0  0  0
  152.9975  141.8351  158.9111 C   0  0  2  0  0  0  0  0  0  0  0  0
  153.6659  141.3843  160.2139 C   0  0  0  0  0  0  0  0  0  0  0  0
  152.3259  143.0680  159.1550 O   0  0  0  0  0  0  0  0  0  0  0  0
  150.6812  145.4392  157.4485 H   0  0  0  0  0  0  0  0  0  0  0  0
  151.8892  145.6555  158.7120 H   0  0  0  0  0  0  0  0  0  0  0  0
  150.3566  144.8708  159.0857 H   0  0  0  0  0  0  0  0  0  0  0  0
  152.5289  143.7707  157.2297 H   0  0  0  0  0  0  0  0  0  0  0  0
  149.8648  142.5364  158.1216 H   0  0  0  0  0  0  0  0  0  0  0  0
  150.2827  143.0348  156.4960 H   0  0  0  0  0  0  0  0  0  0  0  0
  149.1382  139.9314  158.0889 H   0  0  0  0  0  0  0  0  0  0  0  0
  147.8113  138.3429  156.7553 H   0  0  0  0  0  0  0  0  0  0  0  0
  148.8598  137.3533  153.3270 H   0  0  0  0  0  0  0  0  0  0  0  0
  147.4827  136.2275  152.5210 H   0  0  0  0  0  0  0  0  0  0  0  0
  145.0300  135.3918  153.5463 H   0  0  0  0  0  0  0  0  0  0  0  0
  143.3941  136.8498  152.4185 H   0  0  0  0  0  0  0  0  0  0  0  0
  144.6858  137.9021  151.8464 H   0  0  0  0  0  0  0  0  0  0  0  0
  144.3510  137.7711  153.5712 H   0  0  0  0  0  0  0  0  0  0  0  0
  145.7700  135.8364  150.6250 H   0  0  0  0  0  0  0  0  0  0  0  0
  143.4465  134.3819  151.8882 H   0  0  0  0  0  0  0  0  0  0  0  0
  143.5780  135.1438  150.3114 H   0  0  0  0  0  0  0  0  0  0  0  0
  144.1662  132.3861  151.1067 H   0  0  0  0  0  0  0  0  0  0  0  0
  144.1523  133.0212  149.4613 H   0  0  0  0  0  0  0  0  0  0  0  0
  146.5042  132.2467  150.6722 H   0  0  0  0  0  0  0  0  0  0  0  0
  146.4611  133.6296  149.5706 H   0  0  0  0  0  0  0  0  0  0  0  0
  150.4200  139.1975  153.4086 H   0  0  0  0  0  0  0  0  0  0  0  0
  151.2484  140.5716  159.1703 H   0  0  0  0  0  0  0  0  0  0  0  0
  152.4984  139.8733  158.1490 H   0  0  0  0  0  0  0  0  0  0  0  0
  153.7743  141.9933  158.1606 H   0  0  0  0  0  0  0  0  0  0  0  0
  154.2029  140.4457  160.0741 H   0  0  0  0  0  0  0  0  0  0  0  0
  152.9301  141.2348  161.0045 H   0  0  0  0  0  0  0  0  0  0  0  0
  154.3827  142.1286  160.5618 H   0  0  0  0  0  0  0  0  0  0  0  0
  1  2  1  0  0  0  0
  1 26  1  0  0  0  0
  1 27  1  0  0  0  0
  1 28  1  0  0  0  0
  2 25  1  0  0  0  0
  2  3  1  0  0  0  0
  2 29  1  0  0  0  0
  3  4  1  0  0  0  0
  3 30  1  0  0  0  0
  3 31  1  0  0  0  0
  4  5  1  0  0  0  0
  4 22  1  0  0  0  0
  5 21  1  0  0  0  0
  5  6  2  0  0  0  0
  6  7  1  0  0  0  0
  6 32  1  0  0  0  0
  7  8  2  0  0  0  0
  7 33  1  0  0  0  0
  8  9  1  0  0  0  0
  8 20  1  0  0  0  0
  9 10  1  0  0  0  0
  9 34  1  0  0  0  0
 10 11  2  0  0  0  0
 10 12  1  0  0  0  0
 12 13  1  0  0  0  0
 12 35  1  0  0  0  0
 13 14  1  0  0  0  0
 13 15  1  0  0  0  0
 13 36  1  0  0  0  0
 14 37  1  0  0  0  0
 14 38  1  0  0  0  0
 14 39  1  0  0  0  0
 15 19  1  0  0  0  0
 15 16  1  0  0  0  0
 15 40  1  0  0  0  0
 16 17  1  0  0  0  0
 16 41  1  0  0  0  0
 16 42  1  0  0  0  0
 17 18  1  0  0  0  0
 17 43  1  0  0  0  0
 17 44  1  0  0  0  0
 18 19  1  0  0  0  0
 18 45  1  0  0  0  0
 18 46  1  0  0  0  0
 20 21  2  0  0  0  0
 20 47  1  0  0  0  0
 22 23  1  0  0  0  0
 22 48  1  0  0  0  0
 22 49  1  0  0  0  0
 23 24  1  0  0  0  0
 23 25  1  0  0  0  0
 23 50  1  0  0  0  0
 24 51  1  0  0  0  0
 24 52  1  0  0  0  0
 24 53  1  0  0  0  0
M  END
> <s_m_source_file>
AV-unprocessed.smi

> <i_m_source_file_index>
1413

> <i_lp_mmshare_version>
43012

> <i_f3d_flags>
0

> <s_epik_input>
W0NIM11bQ0BASF0xW0NIMl1OKFtDSDJdW0NASF0oTzEpW0NIM10pYzJbY0hdW2NIXWMoW2NIXW4yKVtOSF1DKD1PKVtOSF1bQ0BIXShbQ0gzXSlbQ0BASF0zW0NIMl1bQ0gyXVtDSDJdTzM=

> <s_epik_cmdline>
J2VwaWtfcHl0aG9uJywgJy1waCcsICc3LjAnLCAnLXRuJywgJzgnLCAnLW1hJywgJzIwMCcsICctbWV0YWxfYmluZGluZycsICctaW1hZScsICc8aW5maWxlLm1hZT4nLCAnLW9tYWUnLCAnPG91dGZpbGUubWFlPic=

> <r_lp_tautomer_probability>
1

> <r_epik_Ionization_Penalty>
0.00271172

> <r_epik_Ionization_Penalty_Charging>
0

> <r_epik_Ionization_Penalty_Neutral>
0.00271172

> <r_epik_State_Penalty>
0.00186503

> <r_epik_Charging_Adjusted_Penalty>
0.00186503

> <i_epik_Tot_Q>
0

> <i_epik_Tot_abs_Q>
0

> <r_epik_Metal_State_Penalty>
-0

> <b_epik_Metal_Only>
0

> <s_lp_Force_Field>
OPLS_2005

> <r_lp_Energy>
35.2684

> <b_lp_Chiralities_Consistent>
1

> <s_lp_Variant>
AV-unprocessed.smi:1413-4

> <Gold.Version>
5.8.1

> <Gold.Id.Protein>
6NUR|6NUR_protein|mol2

> <Gold.PLP.Fitness>
49.7193

> <Gold.PLP.PLP>
-40.0114

> <Gold.PLP.part.hbond>
-3.0000

> <Gold.PLP.part.metal>
0.0000

> <Gold.PLP.part.buried>
-6.6797

> <Gold.PLP.part.nonpolar>
-30.2126

> <Gold.PLP.part.repulsive>
0.3172

> <Gold.PLP.ligand.clash>
0.0000

> <Gold.PLP.ligand.torsion>
0.5545

> <Gold.PLP.Chemscore.Hbond>
2.4920

> <Gold.PLP.Chemscore.CHOScore>
1.0000

> <Gold.PLP.Chemscore.Metal>
0.0000

> <Gold.Chemscore.Hbonds>
donor molecule, donor type, donor heavy atom, donor atom, acceptor molecule, acceptor atom, score
      L1  H     9    34       P1  7948  0.99
      L1  H    12    35       P1  7948  1.00
      P1  H  7989  7998       L1    21  0.45
      L1  C    20    47       P1  7957  1.00

> <Gold.PLP.Chemscore.Internal.Correction>
0.3410

> <Gold.Rescore>
     Score         DG    S(hbond)    S(metal)    S(lipo)     H(rot)  DE(clash)    DE(int)     intcor
     18.50     -20.90       1.89        0.00     107.42       1.35       0.02       2.39       ----

> <Gold.Chemscore.Fitness>
18.4966

> <Gold.Chemscore.DG>
-20.9033

> <Gold.Chemscore.ZeroCoef>
-5.4800

> <Gold.Chemscore.Hbond>
1.8872

> <Gold.Chemscore.Metal>
0.0000

> <Gold.Chemscore.Lipo>
107.4236

> <Gold.Chemscore.Internal_Hbond>
0.0000

> <Gold.Chemscore.DEClash>
0.0212

> <Gold.Chemscore.DEInternal>
2.3854

> <Gold.Chemscore.Rot>
1.3471

> <Gold.Chemscore.Internal.Correction>
   9.000000E+99

> <Gold.Chemscore.Hbonds>
donor molecule, donor type, donor heavy atom, donor atom, acceptor molecule, acceptor atom, score
      L1  H     9    34       P1  7948  0.94
      L1  H    12    35       P1  7948  0.98
      P1  H  7989  7998       L1    21  0.02

> <Gold.Chemscore.Hbond.Weighted>
-6.3032

> <Gold.Chemscore.Metal.Weighted>
-0.0000

> <Gold.Chemscore.Lipo.Weighted>
-12.5686

> <Gold.Chemscore.Internal_Hbond.Weighted>
0.0000

> <Gold.Chemscore.DEClash.Weighted>
0.0212

> <Gold.Chemscore.DEInternal.Weighted>
2.3854

> <Gold.Chemscore.Rot.Weighted>
3.4485

> <Gold.Chemscore.Internal.Correction.Weighted>
   9.000000E+99

> <Gold.Protein.RotatedTorsions>
[ 6907 6896 6895 6894 ] final  155.83 input  -60.11 | X-H torsion
[ 7974 7965 7964 7962 ] final  -56.03 input  175.53 | X-H torsion
[ 8008 7997 7996 7995 ] final  128.37 input   59.86 | X-H torsion
[ 10167 10162 10161 10158 ] final  -68.80 input  -65.29 | X-H torsion
[ 10718 10713 10712 10709 ] final   37.06 input   66.30 | X-H torsion
[ 10763 10752 10751 10750 ] final  -50.15 input  -60.55 | X-H torsion
[ 11005 11000 10999 10996 ] final   14.51 input  -57.11 | X-H torsion

> <Gold.Protein.ActiveResidues>
 VAL166  LYS551  ARG553  GLY616  TRP617  ASP618  TYR619  PRO620  LYS621  CYS622 
 ASP623  PHE694  ASN695  SER759  ASP760  ASP761  ALA762  ILE779  LEU786  VAL792 
 PHE793  MET794  SER795  GLU796  ALA797  LYS798  CYS799  TRP800  GLU811  SER814 

> <Gold.Protein.RotatedAtoms>
  152.0385  133.3967  159.4326 H   0  0  0  0  0  0  0  0  0  0  0  0  # atno 6907 bound_to 6896
  150.6877  134.3441  159.4890 H   0  0  0  0  0  0  0  0  0  0  0  0  # atno 6908 bound_to 6896
  152.1237  134.9186  160.0612 H   0  0  0  0  0  0  0  0  0  0  0  0  # atno 6909 bound_to 6896
  145.8673  140.8242  142.9906 H   0  0  0  0  0  0  0  0  0  0  0  0  # atno 7974 bound_to 7965
  156.2913  140.2646  156.2425 H   0  0  0  0  0  0  0  0  0  0  0  0  # atno 8008 bound_to 7997
  154.9963  140.0388  157.2359 H   0  0  0  0  0  0  0  0  0  0  0  0  # atno 8009 bound_to 7997
  154.7641  140.2766  155.6195 H   0  0  0  0  0  0  0  0  0  0  0  0  # atno 8010 bound_to 7997
  140.5480  143.2312  151.6966 H   0  0  0  0  0  0  0  0  0  0  0  0  # atno 10167 bound_to 10162
  157.3424  130.7555  149.6921 H   0  0  0  0  0  0  0  0  0  0  0  0  # atno 10718 bound_to 10713
  154.1057  135.6556  153.4876 H   0  0  0  0  0  0  0  0  0  0  0  0  # atno 10763 bound_to 10752
  153.0273  135.5235  154.7242 H   0  0  0  0  0  0  0  0  0  0  0  0  # atno 10764 bound_to 10752
  154.6407  135.2988  155.0076 H   0  0  0  0  0  0  0  0  0  0  0  0  # atno 10765 bound_to 10752
  140.4687  134.1053  155.7729 H   0  0  0  0  0  0  0  0  0  0  0  0  # atno 11005 bound_to 11000
  144.6726  140.1186  143.7451 LP  0  0  0  0  0  0  0  0  0  0  0  0  # atno 17320 bound_to 7965
  145.9178  139.2527  143.1399 LP  0  0  0  0  0  0  0  0  0  0  0  0  # atno 17321 bound_to 7965
  139.5015  144.3864  152.0324 LP  0  0  0  0  0  0  0  0  0  0  0  0  # atno 17342 bound_to 10162
  140.2979  144.3680  150.6069 LP  0  0  0  0  0  0  0  0  0  0  0  0  # atno 17343 bound_to 10162
  155.9709  130.4164  150.4228 LP  0  0  0  0  0  0  0  0  0  0  0  0  # atno 17370 bound_to 10713
  157.2278  131.0497  151.2510 LP  0  0  0  0  0  0  0  0  0  0  0  0  # atno 17371 bound_to 10713
  141.1587  133.8833  157.1907 LP  0  0  0  0  0  0  0  0  0  0  0  0  # atno 17394 bound_to 11000
  139.9899  135.0068  156.9951 LP  0  0  0  0  0  0  0  0  0  0  0  0  # atno 17395 bound_to 11000

$$$$
