AV-unprocessed.smi:1163|AV-procd|sdf|4923|dock7
  -GOLD-   22720 3503D 1   1.00000     0.00000
 Structure written by MMmdl.
 40 41  0  0  0  0  0  0  0  0  2 V2000
  152.3116  138.4589  159.2040 C   0  0  0  0  0  0  0  0  0  0  0  0
  151.6746  137.1871  159.1548 O   0  0  0  0  0  0  0  0  0  0  0  0
  151.0196  136.8270  157.9950 C   0  0  0  0  0  0  0  0  0  0  0  0
  151.3279  137.5154  156.8049 C   0  0  0  0  0  0  0  0  0  0  0  0
  150.6633  137.1555  155.6168 C   0  0  0  0  0  0  0  0  0  0  0  0
  149.7012  136.1180  155.6584 C   0  0  0  0  0  0  0  0  0  0  0  0
  148.9743  135.6489  154.5305 N   0  0  0  0  0  0  0  0  0  0  0  0
  148.2069  134.5507  154.4224 C   0  0  0  0  0  0  0  0  0  0  0  0
  148.0111  133.7241  155.3130 O   0  0  0  0  0  0  0  0  0  0  0  0
  147.6807  134.4448  153.1940 N   0  0  0  0  0  0  0  0  0  0  0  0
  146.8015  133.3657  152.7563 C   0  0  1  0  0  0  0  0  0  0  0  0
  146.3188  133.5092  151.3199 C   0  0  0  0  0  0  0  0  0  0  0  0
  145.8564  132.0858  150.9925 C   0  0  0  0  0  0  0  0  0  0  0  0
  146.7108  131.1667  151.7879 N   0  3  2  0  0  0  0  0  0  0  0  0
  145.9887  130.0384  152.4285 C   0  0  0  0  0  0  0  0  0  0  0  0
  146.8511  128.7687  152.5465 C   0  0  0  0  0  0  0  0  0  0  0  0
  146.2343  127.8978  153.3438 F   0  0  0  0  0  0  0  0  0  0  0  0
  147.0365  128.1938  151.3587 F   0  0  0  0  0  0  0  0  0  0  0  0
  148.0358  129.0693  153.0783 F   0  0  0  0  0  0  0  0  0  0  0  0
  147.4936  131.9998  152.7307 C   0  0  0  0  0  0  0  0  0  0  0  0
  149.4765  135.4829  156.8975 C   0  0  0  0  0  0  0  0  0  0  0  0
  150.1091  135.8236  158.0397 N   0  0  0  0  0  0  0  0  0  0  0  0
  152.7791  138.5908  160.1796 H   0  0  0  0  0  0  0  0  0  0  0  0
  151.5947  139.2704  159.0687 H   0  0  0  0  0  0  0  0  0  0  0  0
  153.0940  138.5425  158.4483 H   0  0  0  0  0  0  0  0  0  0  0  0
  152.0652  138.3045  156.8021 H   0  0  0  0  0  0  0  0  0  0  0  0
  150.9155  137.6717  154.7040 H   0  0  0  0  0  0  0  0  0  0  0  0
  149.0949  136.1908  153.6873 H   0  0  0  0  0  0  0  0  0  0  0  0
  147.8942  135.1653  152.5195 H   0  0  0  0  0  0  0  0  0  0  0  0
  145.9310  133.3183  153.4144 H   0  0  0  0  0  0  0  0  0  0  0  0
  145.5247  134.2482  151.2080 H   0  0  0  0  0  0  0  0  0  0  0  0
  147.1442  133.7941  150.6654 H   0  0  0  0  0  0  0  0  0  0  0  0
  144.8111  131.9800  151.2873 H   0  0  0  0  0  0  0  0  0  0  0  0
  145.9234  131.8653  149.9269 H   0  0  0  0  0  0  0  0  0  0  0  0
  145.7024  130.3416  153.4367 H   0  0  0  0  0  0  0  0  0  0  0  0
  145.0607  129.8319  151.8929 H   0  0  0  0  0  0  0  0  0  0  0  0
  148.5051  132.0938  152.3325 H   0  0  0  0  0  0  0  0  0  0  0  0
  147.5752  131.5626  153.7270 H   0  0  0  0  0  0  0  0  0  0  0  0
  148.7622  134.6765  156.9779 H   0  0  0  0  0  0  0  0  0  0  0  0
  147.3831  130.7547  151.1562 H   0  0  0  0  0  0  0  0  0  0  0  0
  1  2  1  0  0  0  0
  1 23  1  0  0  0  0
  1 24  1  0  0  0  0
  1 25  1  0  0  0  0
  2  3  1  0  0  0  0
  3 22  1  0  0  0  0
  3  4  2  0  0  0  0
  4  5  1  0  0  0  0
  4 26  1  0  0  0  0
  5  6  2  0  0  0  0
  5 27  1  0  0  0  0
  6  7  1  0  0  0  0
  6 21  1  0  0  0  0
  7  8  1  0  0  0  0
  7 28  1  0  0  0  0
  8  9  2  0  0  0  0
  8 10  1  0  0  0  0
 10 11  1  0  0  0  0
 10 29  1  0  0  0  0
 11 20  1  0  0  0  0
 11 12  1  0  0  0  0
 11 30  1  0  0  0  0
 12 13  1  0  0  0  0
 12 31  1  0  0  0  0
 12 32  1  0  0  0  0
 13 14  1  0  0  0  0
 13 33  1  0  0  0  0
 13 34  1  0  0  0  0
 14 15  1  0  0  0  0
 14 20  1  0  0  0  0
 14 40  1  0  0  0  0
 15 16  1  0  0  0  0
 15 35  1  0  0  0  0
 15 36  1  0  0  0  0
 16 17  1  0  0  0  0
 16 18  1  0  0  0  0
 16 19  1  0  0  0  0
 20 37  1  0  0  0  0
 20 38  1  0  0  0  0
 21 22  2  0  0  0  0
 21 39  1  0  0  0  0
M  CHG  1  14   1
M  END
> <s_m_source_file>
AV-unprocessed.smi

> <i_m_source_file_index>
1163

> <i_lp_mmshare_version>
43012

> <i_f3d_flags>
0

> <s_epik_input>
W0NIM11PYzFbY0hdW2NIXWMoW2NIXW4xKVtOSF1DKD1PKVtOSF1bQ0BASF0yW0NIMl1bQ0gyXU4oW0NIMl0yKVtDSDJdQyhGKShGKUY=

> <s_epik_cmdline>
J2VwaWtfcHl0aG9uJywgJy1waCcsICc3LjAnLCAnLXRuJywgJzgnLCAnLW1hJywgJzIwMCcsICctbWV0YWxfYmluZGluZycsICctaW1hZScsICc8aW5maWxlLm1hZT4nLCAnLW9tYWUnLCAnPG91dGZpbGUubWFlPic=

> <r_lp_tautomer_probability>
1

> <r_epik_Ionization_Penalty>
1.12054

> <r_epik_Ionization_Penalty_Charging>
1.12047

> <r_epik_Ionization_Penalty_Neutral>
7.20346e-05

> <r_epik_State_Penalty>
1.17927

> <r_epik_Charging_Adjusted_Penalty>
2.29974

> <i_epik_Tot_Q>
1

> <i_epik_Tot_abs_Q>
1

> <r_epik_Metal_State_Penalty>
1.17928

> <b_epik_Metal_Only>
0

> <s_lp_Force_Field>
OPLS_2005

> <r_lp_Energy>
31.6131

> <b_lp_Chiralities_Consistent>
1

> <s_lp_Variant>
AV-unprocessed.smi:1163-4

> <Gold.Version>
5.8.1

> <Gold.Id.Protein>
6NUR|6NUR_protein|mol2

> <Gold.PLP.Fitness>
41.9907

> <Gold.PLP.PLP>
-31.5720

> <Gold.PLP.part.hbond>
-4.6165

> <Gold.PLP.part.metal>
0.0000

> <Gold.PLP.part.buried>
-3.3188

> <Gold.PLP.part.nonpolar>
-23.4411

> <Gold.PLP.part.repulsive>
0.0362

> <Gold.PLP.ligand.clash>
0.0000

> <Gold.PLP.ligand.torsion>
0.7622

> <Gold.PLP.Chemscore.Hbond>
3.8400

> <Gold.PLP.Chemscore.CHOScore>
0.0000

> <Gold.PLP.Chemscore.Metal>
0.0000

> <Gold.Chemscore.Hbonds>
donor molecule, donor type, donor heavy atom, donor atom, acceptor molecule, acceptor atom, score
      L1  H     7    28       P1  7948  0.93
      L1  H    10    29       P1  7948  1.00
      L1  H    14    40       P1 10747  1.00
      P1  H  6896  6908       L1    22  0.88

> <Gold.PLP.Chemscore.Internal.Correction>
0.4231

> <Gold.Rescore>
     Score         DG    S(hbond)    S(metal)    S(lipo)     H(rot)  DE(clash)    DE(int)     intcor
     17.04     -19.50       3.37        0.00      60.17       1.68       0.21       2.25       ----

> <Gold.Chemscore.Fitness>
17.0407

> <Gold.Chemscore.DG>
-19.4978

> <Gold.Chemscore.ZeroCoef>
-5.4800

> <Gold.Chemscore.Hbond>
3.3750

> <Gold.Chemscore.Metal>
0.0000

> <Gold.Chemscore.Lipo>
60.1747

> <Gold.Chemscore.Internal_Hbond>
0.0000

> <Gold.Chemscore.DEClash>
0.2076

> <Gold.Chemscore.DEInternal>
2.2495

> <Gold.Chemscore.Rot>
1.6778

> <Gold.Chemscore.Internal.Correction>
   9.000000E+99

> <Gold.Chemscore.Hbonds>
donor molecule, donor type, donor heavy atom, donor atom, acceptor molecule, acceptor atom, score
      L1  H     7    28       P1  7948  0.87
      L1  H    10    29       P1  7948  0.91
      L1  H    14    40       P1 10747  0.94
      P1  H  6896  6908       L1    22  0.33

> <Gold.Chemscore.Hbond.Weighted>
-11.2725

> <Gold.Chemscore.Metal.Weighted>
-0.0000

> <Gold.Chemscore.Lipo.Weighted>
-7.0404

> <Gold.Chemscore.Internal_Hbond.Weighted>
0.0000

> <Gold.Chemscore.DEClash.Weighted>
0.2076

> <Gold.Chemscore.DEInternal.Weighted>
2.2495

> <Gold.Chemscore.Rot.Weighted>
4.2951

> <Gold.Chemscore.Internal.Correction.Weighted>
   9.000000E+99

> <Gold.Protein.RotatedTorsions>
[ 6907 6896 6895 6894 ] final  178.06 input  -60.11 | X-H torsion
[ 7974 7965 7964 7962 ] final -129.30 input  175.53 | X-H torsion
[ 8008 7997 7996 7995 ] final    4.01 input   59.86 | X-H torsion
[ 10167 10162 10161 10158 ] final  -65.39 input  -65.29 | X-H torsion
[ 10718 10713 10712 10709 ] final   86.47 input   66.30 | X-H torsion
[ 10763 10752 10751 10750 ] final -107.30 input  -60.55 | X-H torsion
[ 11005 11000 10999 10996 ] final  130.33 input  -57.11 | X-H torsion

> <Gold.Protein.ActiveResidues>
 VAL166  LYS551  ARG553  GLY616  TRP617  ASP618  TYR619  PRO620  LYS621  CYS622 
 ASP623  PHE694  ASN695  SER759  ASP760  ASP761  ALA762  ILE779  LEU786  VAL792 
 PHE793  MET794  SER795  GLU796  ALA797  LYS798  CYS799  TRP800  GLU811  SER814 

> <Gold.Protein.RotatedAtoms>
  151.6940  133.3311  159.3249 H   0  0  0  0  0  0  0  0  0  0  0  0  # atno 6907 bound_to 6896
  150.7766  134.6674  159.6382 H   0  0  0  0  0  0  0  0  0  0  0  0  # atno 6908 bound_to 6896
  152.3810  134.6593  160.0195 H   0  0  0  0  0  0  0  0  0  0  0  0  # atno 6909 bound_to 6896
  144.9586  140.7422  143.4743 H   0  0  0  0  0  0  0  0  0  0  0  0  # atno 7974 bound_to 7965
  154.7107  140.2692  155.6632 H   0  0  0  0  0  0  0  0  0  0  0  0  # atno 8008 bound_to 7997
  156.2794  140.2754  156.1671 H   0  0  0  0  0  0  0  0  0  0  0  0  # atno 8009 bound_to 7997
  155.0639  140.0371  157.2576 H   0  0  0  0  0  0  0  0  0  0  0  0  # atno 8010 bound_to 7997
  140.5733  143.2319  151.6493 H   0  0  0  0  0  0  0  0  0  0  0  0  # atno 10167 bound_to 10162
  157.6929  131.0216  150.2977 H   0  0  0  0  0  0  0  0  0  0  0  0  # atno 10718 bound_to 10713
  154.8066  135.4680  154.0409 H   0  0  0  0  0  0  0  0  0  0  0  0  # atno 10763 bound_to 10752
  153.1873  135.6850  153.8405 H   0  0  0  0  0  0  0  0  0  0  0  0  # atno 10764 bound_to 10752
  153.7935  135.3240  155.3359 H   0  0  0  0  0  0  0  0  0  0  0  0  # atno 10765 bound_to 10752
  139.9666  134.9589  156.9278 H   0  0  0  0  0  0  0  0  0  0  0  0  # atno 11005 bound_to 11000
  145.2734  139.1945  143.4829 LP  0  0  0  0  0  0  0  0  0  0  0  0  # atno 17320 bound_to 7965
  146.3345  140.2685  142.8605 LP  0  0  0  0  0  0  0  0  0  0  0  0  # atno 17321 bound_to 7965
  139.5129  144.3460  152.0696 LP  0  0  0  0  0  0  0  0  0  0  0  0  # atno 17342 bound_to 10162
  140.2601  144.4077  150.6189 LP  0  0  0  0  0  0  0  0  0  0  0  0  # atno 17343 bound_to 10162
  156.3498  130.3829  149.7339 LP  0  0  0  0  0  0  0  0  0  0  0  0  # atno 17370 bound_to 10713
  156.4820  130.8045  151.3059 LP  0  0  0  0  0  0  0  0  0  0  0  0  # atno 17371 bound_to 10713
  140.5384  134.0745  155.7334 LP  0  0  0  0  0  0  0  0  0  0  0  0  # atno 17394 bound_to 11000
  141.1345  133.9244  157.2463 LP  0  0  0  0  0  0  0  0  0  0  0  0  # atno 17395 bound_to 11000

$$$$
