AV-unprocessed.smi:2177|AV-procd|sdf|8849|dock3
  -GOLD-   2272012 43D 1   1.00000     0.00000
 Structure written by MMmdl.
 42 43  0  0  0  0  0  0  0  0  1 V2000
  150.5727  141.2957  156.8985 C   0  0  0  0  0  0  0  0  0  0  0  0
  151.2901  141.8823  158.0806 C   0  0  0  0  0  0  0  0  0  0  0  0
  151.2663  143.1907  158.2730 N   0  0  0  0  0  0  0  0  0  0  0  0
  151.9960  143.3877  159.3890 N   0  0  0  0  0  0  0  0  0  0  0  0
  152.1772  144.7372  159.8877 C   0  0  0  0  0  0  0  0  0  0  0  0
  152.4759  142.2005  159.9075 C   0  0  0  0  0  0  0  0  0  0  0  0
  153.3165  142.1530  161.1429 C   0  0  0  0  0  0  0  0  0  0  0  0
  152.0393  141.1982  159.0823 C   0  0  0  0  0  0  0  0  0  0  0  0
  152.2852  139.7134  159.1822 C   0  0  0  0  0  0  0  0  0  0  0  0
  153.6941  139.4560  159.7170 C   0  0  0  0  0  0  0  0  0  0  0  0
  154.6652  139.9703  159.1629 O   0  0  0  0  0  0  0  0  0  0  0  0
  153.7864  138.6589  160.7936 N   0  0  0  0  0  0  0  0  0  0  0  0
  155.0190  138.2949  161.4863 C   0  0  1  0  0  0  0  0  0  0  0  0
  155.4449  139.4779  162.3692 C   0  0  0  0  0  0  0  0  0  0  0  0
  154.8005  137.0040  162.3016 C   0  0  2  0  0  0  0  0  0  0  0  0
  153.8757  137.1591  163.5101 C   0  0  0  0  0  0  0  0  0  0  0  0
  154.3139  136.0433  164.4458 C   0  0  0  0  0  0  0  0  0  0  0  0
  155.6733  135.6061  163.8944 C   0  0  0  0  0  0  0  0  0  0  0  0
  156.0076  136.5811  162.9174 O   0  0  0  0  0  0  0  0  0  0  0  0
  151.2398  140.6615  156.3143 H   0  0  0  0  0  0  0  0  0  0  0  0
  150.1862  142.0688  156.2336 H   0  0  0  0  0  0  0  0  0  0  0  0
  149.7305  140.6830  157.2200 H   0  0  0  0  0  0  0  0  0  0  0  0
  151.5293  144.8975  160.7495 H   0  0  0  0  0  0  0  0  0  0  0  0
  151.9300  145.4676  159.1162 H   0  0  0  0  0  0  0  0  0  0  0  0
  153.2147  144.8856  160.1879 H   0  0  0  0  0  0  0  0  0  0  0  0
  153.4595  141.1292  161.4869 H   0  0  0  0  0  0  0  0  0  0  0  0
  152.8503  142.7135  161.9533 H   0  0  0  0  0  0  0  0  0  0  0  0
  154.3007  142.5824  160.9553 H   0  0  0  0  0  0  0  0  0  0  0  0
  151.5623  139.2259  159.8367 H   0  0  0  0  0  0  0  0  0  0  0  0
  152.1796  139.2306  158.2100 H   0  0  0  0  0  0  0  0  0  0  0  0
  152.9288  138.2847  161.1722 H   0  0  0  0  0  0  0  0  0  0  0  0
  155.8137  138.1223  160.7583 H   0  0  0  0  0  0  0  0  0  0  0  0
  156.3946  139.2823  162.8671 H   0  0  0  0  0  0  0  0  0  0  0  0
  154.7017  139.6868  163.1394 H   0  0  0  0  0  0  0  0  0  0  0  0
  155.5715  140.3834  161.7749 H   0  0  0  0  0  0  0  0  0  0  0  0
  154.4353  136.2023  161.6563 H   0  0  0  0  0  0  0  0  0  0  0  0
  154.0444  138.1230  163.9918 H   0  0  0  0  0  0  0  0  0  0  0  0
  152.8204  137.0967  163.2439 H   0  0  0  0  0  0  0  0  0  0  0  0
  154.3904  136.4032  165.4721 H   0  0  0  0  0  0  0  0  0  0  0  0
  153.6097  135.2110  164.4332 H   0  0  0  0  0  0  0  0  0  0  0  0
  156.4403  135.5466  164.6668 H   0  0  0  0  0  0  0  0  0  0  0  0
  155.5964  134.6296  163.4146 H   0  0  0  0  0  0  0  0  0  0  0  0
  1  2  1  0  0  0  0
  1 20  1  0  0  0  0
  1 21  1  0  0  0  0
  1 22  1  0  0  0  0
  2  8  1  0  0  0  0
  2  3  2  0  0  0  0
  3  4  1  0  0  0  0
  4  5  1  0  0  0  0
  4  6  1  0  0  0  0
  5 23  1  0  0  0  0
  5 24  1  0  0  0  0
  5 25  1  0  0  0  0
  6  7  1  0  0  0  0
  6  8  2  0  0  0  0
  7 26  1  0  0  0  0
  7 27  1  0  0  0  0
  7 28  1  0  0  0  0
  8  9  1  0  0  0  0
  9 10  1  0  0  0  0
  9 29  1  0  0  0  0
  9 30  1  0  0  0  0
 10 11  2  0  0  0  0
 10 12  1  0  0  0  0
 12 13  1  0  0  0  0
 12 31  1  0  0  0  0
 13 14  1  0  0  0  0
 13 15  1  0  0  0  0
 13 32  1  0  0  0  0
 14 33  1  0  0  0  0
 14 34  1  0  0  0  0
 14 35  1  0  0  0  0
 15 19  1  0  0  0  0
 15 16  1  0  0  0  0
 15 36  1  0  0  0  0
 16 17  1  0  0  0  0
 16 37  1  0  0  0  0
 16 38  1  0  0  0  0
 17 18  1  0  0  0  0
 17 39  1  0  0  0  0
 17 40  1  0  0  0  0
 18 19  1  0  0  0  0
 18 41  1  0  0  0  0
 18 42  1  0  0  0  0
M  END
> <s_m_source_file>
AV-unprocessed.smi

> <i_m_source_file_index>
2177

> <i_lp_mmshare_version>
43012

> <i_f3d_flags>
0

> <s_epik_input>
W0NIM11jMW5uKFtDSDNdKWMoW0NIM10pYzFbQ0gyXUMoPU8pW05IXVtDQEhdKFtDSDNdKVtDQEBIXTJbQ0gyXVtDSDJdW0NIMl1PMg==

> <s_epik_cmdline>
J2VwaWtfcHl0aG9uJywgJy1waCcsICc3LjAnLCAnLXRuJywgJzgnLCAnLW1hJywgJzIwMCcsICctbWV0YWxfYmluZGluZycsICctaW1hZScsICc8aW5maWxlLm1hZT4nLCAnLW9tYWUnLCAnPG91dGZpbGUubWFlPic=

> <r_lp_tautomer_probability>
1

> <r_epik_Ionization_Penalty>
0.00310467

> <r_epik_Ionization_Penalty_Charging>
0

> <r_epik_Ionization_Penalty_Neutral>
0.00310467

> <r_epik_State_Penalty>
0.00218493

> <r_epik_Charging_Adjusted_Penalty>
0.00218493

> <i_epik_Tot_Q>
0

> <i_epik_Tot_abs_Q>
0

> <r_epik_Metal_State_Penalty>
-0

> <b_epik_Metal_Only>
0

> <s_lp_Force_Field>
OPLS_2005

> <r_lp_Energy>
13.1065

> <b_lp_Chiralities_Consistent>
1

> <s_lp_Variant>
AV-unprocessed.smi:2177-2

> <Gold.Version>
5.8.1

> <Gold.Id.Protein>
6NUR|6NUR_protein|mol2

> <Gold.PLP.Fitness>
42.1952

> <Gold.PLP.PLP>
-40.5402

> <Gold.PLP.part.hbond>
-1.0000

> <Gold.PLP.part.metal>
0.0000

> <Gold.PLP.part.buried>
-4.2119

> <Gold.PLP.part.nonpolar>
-34.7212

> <Gold.PLP.part.repulsive>
0.1078

> <Gold.PLP.ligand.clash>
0.0000

> <Gold.PLP.ligand.torsion>
0.6946

> <Gold.PLP.Chemscore.Hbond>
1.0000

> <Gold.PLP.Chemscore.CHOScore>
0.0000

> <Gold.PLP.Chemscore.Metal>
0.0000

> <Gold.Chemscore.Hbonds>
donor molecule, donor type, donor heavy atom, donor atom, acceptor molecule, acceptor atom, score
      P1  H  7997  8009       L1    11  1.00

> <Gold.PLP.Chemscore.Internal.Correction>
0.0442

> <Gold.Rescore>
     Score         DG    S(hbond)    S(metal)    S(lipo)     H(rot)  DE(clash)    DE(int)     intcor
     16.74     -17.37       0.93        0.00     107.00       1.46       0.06       0.57       ----

> <Gold.Chemscore.Fitness>
16.7406

> <Gold.Chemscore.DG>
-17.3696

> <Gold.Chemscore.ZeroCoef>
-5.4800

> <Gold.Chemscore.Hbond>
0.9327

> <Gold.Chemscore.Metal>
0.0000

> <Gold.Chemscore.Lipo>
106.9991

> <Gold.Chemscore.Internal_Hbond>
0.0000

> <Gold.Chemscore.DEClash>
0.0606

> <Gold.Chemscore.DEInternal>
0.5684

> <Gold.Chemscore.Rot>
1.4627

> <Gold.Chemscore.Internal.Correction>
   9.000000E+99

> <Gold.Chemscore.Hbonds>
donor molecule, donor type, donor heavy atom, donor atom, acceptor molecule, acceptor atom, score
      P1  H  7997  8009       L1    11  0.95

> <Gold.Chemscore.Hbond.Weighted>
-3.1152

> <Gold.Chemscore.Metal.Weighted>
-0.0000

> <Gold.Chemscore.Lipo.Weighted>
-12.5189

> <Gold.Chemscore.Internal_Hbond.Weighted>
0.0000

> <Gold.Chemscore.DEClash.Weighted>
0.0606

> <Gold.Chemscore.DEInternal.Weighted>
0.5684

> <Gold.Chemscore.Rot.Weighted>
3.7445

> <Gold.Chemscore.Internal.Correction.Weighted>
   9.000000E+99

> <Gold.Protein.RotatedTorsions>
[ 6907 6896 6895 6894 ] final -161.01 input  -60.11 | X-H torsion
[ 7974 7965 7964 7962 ] final  -38.69 input  175.53 | X-H torsion
[ 8008 7997 7996 7995 ] final  111.88 input   59.86 | X-H torsion
[ 10167 10162 10161 10158 ] final   96.40 input  -65.29 | X-H torsion
[ 10718 10713 10712 10709 ] final   75.90 input   66.30 | X-H torsion
[ 10763 10752 10751 10750 ] final  147.36 input  -60.55 | X-H torsion
[ 11005 11000 10999 10996 ] final  125.21 input  -57.11 | X-H torsion

> <Gold.Protein.ActiveResidues>
 VAL166  LYS551  ARG553  GLY616  TRP617  ASP618  TYR619  PRO620  LYS621  CYS622 
 ASP623  PHE694  ASN695  SER759  ASP760  ASP761  ALA762  ILE779  LEU786  VAL792 
 PHE793  MET794  SER795  GLU796  ALA797  LYS798  CYS799  TRP800  GLU811  SER814 

> <Gold.Protein.RotatedAtoms>
  151.3579  133.3900  159.2686 H   0  0  0  0  0  0  0  0  0  0  0  0  # atno 6907 bound_to 6896
  150.9749  134.9116  159.7820 H   0  0  0  0  0  0  0  0  0  0  0  0  # atno 6908 bound_to 6896
  152.5197  134.3542  159.9314 H   0  0  0  0  0  0  0  0  0  0  0  0  # atno 6909 bound_to 6896
  146.0464  140.6540  142.9063 H   0  0  0  0  0  0  0  0  0  0  0  0  # atno 7974 bound_to 7965
  156.2154  140.3010  155.9829 H   0  0  0  0  0  0  0  0  0  0  0  0  # atno 8008 bound_to 7997
  155.2617  140.0430  157.3015 H   0  0  0  0  0  0  0  0  0  0  0  0  # atno 8009 bound_to 7997
  154.5761  140.2362  155.8129 H   0  0  0  0  0  0  0  0  0  0  0  0  # atno 8010 bound_to 7997
  139.7897  144.6857  150.9909 H   0  0  0  0  0  0  0  0  0  0  0  0  # atno 10167 bound_to 10162
  157.6652  130.9748  150.1419 H   0  0  0  0  0  0  0  0  0  0  0  0  # atno 10718 bound_to 10713
  154.0371  135.2893  155.3360 H   0  0  0  0  0  0  0  0  0  0  0  0  # atno 10763 bound_to 10752
  154.6952  135.5210  153.8451 H   0  0  0  0  0  0  0  0  0  0  0  0  # atno 10764 bound_to 10752
  153.0615  135.6615  154.0579 H   0  0  0  0  0  0  0  0  0  0  0  0  # atno 10765 bound_to 10752
  139.9395  134.9637  156.8524 H   0  0  0  0  0  0  0  0  0  0  0  0  # atno 11005 bound_to 11000
  144.7100  140.4002  143.7088 LP  0  0  0  0  0  0  0  0  0  0  0  0  # atno 17320 bound_to 7965
  145.6799  139.1616  143.2707 LP  0  0  0  0  0  0  0  0  0  0  0  0  # atno 17321 bound_to 7965
  140.7820  143.4394  151.0575 LP  0  0  0  0  0  0  0  0  0  0  0  0  # atno 17342 bound_to 10162
  139.8071  143.8003  152.3168 LP  0  0  0  0  0  0  0  0  0  0  0  0  # atno 17343 bound_to 10162
  156.2240  130.3676  149.8522 LP  0  0  0  0  0  0  0  0  0  0  0  0  # atno 17370 bound_to 10713
  156.6368  130.8688  151.3506 LP  0  0  0  0  0  0  0  0  0  0  0  0  # atno 17371 bound_to 10713
  140.5988  134.0192  155.7528 LP  0  0  0  0  0  0  0  0  0  0  0  0  # atno 17394 bound_to 11000
  141.1024  133.9747  157.3056 LP  0  0  0  0  0  0  0  0  0  0  0  0  # atno 17395 bound_to 11000

$$$$
