AV-unprocessed.smi:2005|AV-procd|sdf|8128|dock6
  -GOLD-   2272010363D 1   1.00000     0.00000
 Structure written by MMmdl.
 38 39  0  0  0  0  0  0  0  0  2 V2000
  144.0269  133.2586  162.0492 C   0  0  0  0  0  0  0  0  0  0  0  0
  144.6666  134.5212  162.6453 C   0  0  0  0  0  0  0  0  0  0  0  0
  143.6474  135.6305  162.9439 C   0  0  0  0  0  0  0  0  0  0  0  0
  145.8136  135.0152  161.8200 C   0  0  0  0  0  0  0  0  0  0  0  0
  146.1947  134.4359  160.6771 N   0  0  0  0  0  0  0  0  0  0  0  0
  147.2813  135.0766  160.1008 N   0  0  0  0  0  0  0  0  0  0  0  0
  147.7157  136.1226  160.8177 C   0  0  0  0  0  0  0  0  0  0  0  0
  148.7579  136.8774  160.4325 N   0  5  0  0  0  0  0  0  0  0  0  0
  149.3771  136.6249  159.2566 C   0  0  0  0  0  0  0  0  0  0  0  0
  149.2640  135.6019  158.5771 O   0  0  0  0  0  0  0  0  0  0  0  0
  150.1764  137.6193  158.8429 N   0  0  0  0  0  0  0  0  0  0  0  0
  150.9714  137.6331  157.6177 C   0  0  2  0  0  0  0  0  0  0  0  0
  151.7826  138.9393  157.5431 C   0  0  0  0  0  0  0  0  0  0  0  0
  152.6056  139.0199  156.2452 C   0  0  0  0  0  0  0  0  0  0  0  0
  151.7341  138.8359  154.9883 C   0  0  2  0  0  0  0  0  0  0  0  0
  150.9055  139.9668  154.8028 O   0  0  0  0  0  0  0  0  0  0  0  0
  150.8768  137.5589  155.0739 C   0  0  0  0  0  0  0  0  0  0  0  0
  150.0651  137.4855  156.3791 C   0  0  0  0  0  0  0  0  0  0  0  0
  146.7742  136.4118  162.2800 S   0  0  0  0  0  0  0  0  0  0  0  0
  144.7648  132.4645  161.9315 H   0  0  0  0  0  0  0  0  0  0  0  0
  143.5931  133.4583  161.0686 H   0  0  0  0  0  0  0  0  0  0  0  0
  143.2330  132.8790  162.6929 H   0  0  0  0  0  0  0  0  0  0  0  0
  145.0866  134.2258  163.6077 H   0  0  0  0  0  0  0  0  0  0  0  0
  144.1233  136.4770  163.4403 H   0  0  0  0  0  0  0  0  0  0  0  0
  142.8532  135.2683  163.5970 H   0  0  0  0  0  0  0  0  0  0  0  0
  143.1828  135.9986  162.0284 H   0  0  0  0  0  0  0  0  0  0  0  0
  150.2353  138.4377  159.4311 H   0  0  0  0  0  0  0  0  0  0  0  0
  151.6765  136.7998  157.6422 H   0  0  0  0  0  0  0  0  0  0  0  0
  151.1103  139.7967  157.6019 H   0  0  0  0  0  0  0  0  0  0  0  0
  152.4496  139.0133  158.4029 H   0  0  0  0  0  0  0  0  0  0  0  0
  153.1414  139.9687  156.1990 H   0  0  0  0  0  0  0  0  0  0  0  0
  153.3690  138.2412  156.2641 H   0  0  0  0  0  0  0  0  0  0  0  0
  152.3816  138.7715  154.1132 H   0  0  0  0  0  0  0  0  0  0  0  0
  150.5405  140.2120  155.6394 H   0  0  0  0  0  0  0  0  0  0  0  0
  150.2104  137.4905  154.2134 H   0  0  0  0  0  0  0  0  0  0  0  0
  151.5317  136.6883  155.0196 H   0  0  0  0  0  0  0  0  0  0  0  0
  149.5265  136.5381  156.4177 H   0  0  0  0  0  0  0  0  0  0  0  0
  149.3060  138.2692  156.3820 H   0  0  0  0  0  0  0  0  0  0  0  0
  1  2  1  0  0  0  0
  1 20  1  0  0  0  0
  1 21  1  0  0  0  0
  1 22  1  0  0  0  0
  2  3  1  0  0  0  0
  2  4  1  0  0  0  0
  2 23  1  0  0  0  0
  3 24  1  0  0  0  0
  3 25  1  0  0  0  0
  3 26  1  0  0  0  0
  4 19  1  0  0  0  0
  4  5  2  0  0  0  0
  5  6  1  0  0  0  0
  6  7  2  0  0  0  0
  7  8  1  0  0  0  0
  7 19  1  0  0  0  0
  8  9  1  0  0  0  0
  9 10  2  0  0  0  0
  9 11  1  0  0  0  0
 11 12  1  0  0  0  0
 11 27  1  0  0  0  0
 12 18  1  0  0  0  0
 12 13  1  0  0  0  0
 12 28  1  0  0  0  0
 13 14  1  0  0  0  0
 13 29  1  0  0  0  0
 13 30  1  0  0  0  0
 14 15  1  0  0  0  0
 14 31  1  0  0  0  0
 14 32  1  0  0  0  0
 15 16  1  0  0  0  0
 15 17  1  0  0  0  0
 15 33  1  0  0  0  0
 16 34  1  0  0  0  0
 17 18  1  0  0  0  0
 17 35  1  0  0  0  0
 17 36  1  0  0  0  0
 18 37  1  0  0  0  0
 18 38  1  0  0  0  0
M  CHG  1   8  -1
M  END
> <s_m_source_file>
AV-unprocessed.smi

> <i_m_source_file_index>
2005

> <i_lp_mmshare_version>
43012

> <i_f3d_flags>
0

> <s_epik_input>
W0NIM11bQ0hdKFtDSDNdKWMxbm5jKHMxKVtOSF1DKD1PKVtOSF1bQ0BASF0yW0NIMl1bQ0gyXVtDQEBIXShbT0hdKVtDSDJdW0NIMl0y

> <s_epik_cmdline>
J2VwaWtfcHl0aG9uJywgJy1waCcsICc3LjAnLCAnLXRuJywgJzgnLCAnLW1hJywgJzIwMCcsICctbWV0YWxfYmluZGluZycsICctaW1hZScsICc8aW5maWxlLm1hZT4nLCAnLW9tYWUnLCAnPG91dGZpbGUubWFlPic=

> <r_lp_tautomer_probability>
1

> <r_epik_Ionization_Penalty>
4.58298

> <r_epik_Ionization_Penalty_Charging>
4.41114

> <r_epik_Ionization_Penalty_Neutral>
0.171842

> <r_epik_State_Penalty>
4.41079

> <r_epik_Charging_Adjusted_Penalty>
8.82193

> <i_epik_Tot_Q>
-1

> <i_epik_Tot_abs_Q>
1

> <r_epik_Metal_State_Penalty>
0.7766

> <b_epik_Metal_Only>
1

> <s_lp_Force_Field>
OPLS_2005

> <r_lp_Energy>
2.0831

> <b_lp_Chiralities_Consistent>
1

> <s_lp_Variant>
AV-unprocessed.smi:2005-4

> <Gold.Version>
5.8.1

> <Gold.Id.Protein>
6NUR|6NUR_protein|mol2

> <Gold.PLP.Fitness>
39.8636

> <Gold.PLP.PLP>
-29.8341

> <Gold.PLP.part.hbond>
-3.8989

> <Gold.PLP.part.metal>
0.0000

> <Gold.PLP.part.buried>
-3.8543

> <Gold.PLP.part.nonpolar>
-23.4338

> <Gold.PLP.part.repulsive>
0.1886

> <Gold.PLP.ligand.clash>
0.0000

> <Gold.PLP.ligand.torsion>
0.0997

> <Gold.PLP.Chemscore.Hbond>
3.3802

> <Gold.PLP.Chemscore.CHOScore>
0.0000

> <Gold.PLP.Chemscore.Metal>
0.0000

> <Gold.Chemscore.Hbonds>
donor molecule, donor type, donor heavy atom, donor atom, acceptor molecule, acceptor atom, score
      P1  H  6896  6908       L1    10  0.75
      P1  H  6931  6943       L1     8  1.57
      P1  H  7989  7998       L1    16  1.00

> <Gold.PLP.Chemscore.Internal.Correction>
0.0883

> <Gold.Rescore>
     Score         DG    S(hbond)    S(metal)    S(lipo)     H(rot)  DE(clash)    DE(int)     intcor
     14.52     -17.18       2.69        0.00      60.39       1.70       0.29       2.37       ----

> <Gold.Chemscore.Fitness>
14.5215

> <Gold.Chemscore.DG>
-17.1819

> <Gold.Chemscore.ZeroCoef>
-5.4800

> <Gold.Chemscore.Hbond>
2.6887

> <Gold.Chemscore.Metal>
0.0000

> <Gold.Chemscore.Lipo>
60.3900

> <Gold.Chemscore.Internal_Hbond>
0.0000

> <Gold.Chemscore.DEClash>
0.2899

> <Gold.Chemscore.DEInternal>
2.3705

> <Gold.Chemscore.Rot>
1.6968

> <Gold.Chemscore.Internal.Correction>
   9.000000E+99

> <Gold.Chemscore.Hbonds>
donor molecule, donor type, donor heavy atom, donor atom, acceptor molecule, acceptor atom, score
      P1  H  6896  6908       L1    10  0.09
      P1  H  6931  6943       L1     8  0.44
      P1  H  7989  7998       L1    16  0.50

> <Gold.Chemscore.Hbond.Weighted>
-8.9801

> <Gold.Chemscore.Metal.Weighted>
-0.0000

> <Gold.Chemscore.Lipo.Weighted>
-7.0656

> <Gold.Chemscore.Internal_Hbond.Weighted>
0.0000

> <Gold.Chemscore.DEClash.Weighted>
0.2899

> <Gold.Chemscore.DEInternal.Weighted>
2.3705

> <Gold.Chemscore.Rot.Weighted>
4.3439

> <Gold.Chemscore.Internal.Correction.Weighted>
   9.000000E+99

> <Gold.Protein.RotatedTorsions>
[ 6907 6896 6895 6894 ] final  169.49 input  -60.11 | X-H torsion
[ 7974 7965 7964 7962 ] final   57.45 input  175.53 | X-H torsion
[ 8008 7997 7996 7995 ] final -118.52 input   59.86 | X-H torsion
[ 10167 10162 10161 10158 ] final   49.49 input  -65.29 | X-H torsion
[ 10718 10713 10712 10709 ] final -132.65 input   66.30 | X-H torsion
[ 10763 10752 10751 10750 ] final  -66.70 input  -60.55 | X-H torsion
[ 11005 11000 10999 10996 ] final -173.12 input  -57.11 | X-H torsion

> <Gold.Protein.ActiveResidues>
 VAL166  LYS551  ARG553  GLY616  TRP617  ASP618  TYR619  PRO620  LYS621  CYS622 
 ASP623  PHE694  ASN695  SER759  ASP760  ASP761  ALA762  ILE779  LEU786  VAL792 
 PHE793  MET794  SER795  GLU796  ALA797  LYS798  CYS799  TRP800  GLU811  SER814 

> <Gold.Protein.RotatedAtoms>
  151.8311  133.3409  159.3613 H   0  0  0  0  0  0  0  0  0  0  0  0  # atno 6907 bound_to 6896
  150.7264  134.5482  159.5790 H   0  0  0  0  0  0  0  0  0  0  0  0  # atno 6908 bound_to 6896
  152.2935  134.7695  160.0424 H   0  0  0  0  0  0  0  0  0  0  0  0  # atno 6909 bound_to 6896
  145.9289  139.3791  143.0433 H   0  0  0  0  0  0  0  0  0  0  0  0  # atno 7974 bound_to 7965
  155.1011  140.0396  157.2697 H   0  0  0  0  0  0  0  0  0  0  0  0  # atno 8008 bound_to 7997
  154.6758  140.2622  155.6934 H   0  0  0  0  0  0  0  0  0  0  0  0  # atno 8009 bound_to 7997
  156.2676  140.2788  156.1283 H   0  0  0  0  0  0  0  0  0  0  0  0  # atno 8010 bound_to 7997
  140.2824  144.3141  150.6261 H   0  0  0  0  0  0  0  0  0  0  0  0  # atno 10167 bound_to 10162
  156.2368  130.7071  151.0916 H   0  0  0  0  0  0  0  0  0  0  0  0  # atno 10718 bound_to 10713
  154.3637  135.6110  153.5704 H   0  0  0  0  0  0  0  0  0  0  0  0  # atno 10763 bound_to 10752
  152.9792  135.5821  154.4603 H   0  0  0  0  0  0  0  0  0  0  0  0  # atno 10764 bound_to 10752
  154.4345  135.2848  155.1867 H   0  0  0  0  0  0  0  0  0  0  0  0  # atno 10765 bound_to 10752
  140.4893  134.6000  157.4949 H   0  0  0  0  0  0  0  0  0  0  0  0  # atno 11005 bound_to 11000
  145.8452  140.9559  143.0778 LP  0  0  0  0  0  0  0  0  0  0  0  0  # atno 17320 bound_to 7965
  144.6762  140.0335  143.7482 LP  0  0  0  0  0  0  0  0  0  0  0  0  # atno 17321 bound_to 7965
  140.5801  143.2173  151.7444 LP  0  0  0  0  0  0  0  0  0  0  0  0  # atno 17342 bound_to 10162
  139.4959  144.4093  152.0098 LP  0  0  0  0  0  0  0  0  0  0  0  0  # atno 17343 bound_to 10162
  157.7158  131.0710  150.6333 LP  0  0  0  0  0  0  0  0  0  0  0  0  # atno 17370 bound_to 10713
  156.6403  130.4456  149.5754 LP  0  0  0  0  0  0  0  0  0  0  0  0  # atno 17371 bound_to 10713
  139.9779  134.7186  155.9915 LP  0  0  0  0  0  0  0  0  0  0  0  0  # atno 17394 bound_to 11000
  141.1492  133.6551  156.3961 LP  0  0  0  0  0  0  0  0  0  0  0  0  # atno 17395 bound_to 11000

$$$$
