AV-unprocessed.smi:1768|AV-procd|sdf|7143|dock1
  -GOLD-   22720 8383D 1   1.00000     0.00000
 Structure written by MMmdl.
 33 34  0  0  0  0  0  0  0  0  1 V2000
  144.1187  143.7468  162.7001 C   0  0  0  0  0  0  0  0  0  0  0  0
  145.1390  143.5711  161.6278 C   0  0  0  0  0  0  0  0  0  0  0  0
  145.2264  142.4614  160.8842 N   0  0  0  0  0  0  0  0  0  0  0  0
  146.2531  142.5315  159.9527 N   0  0  0  0  0  0  0  0  0  0  0  0
  146.9127  143.6959  160.0228 C   0  0  0  0  0  0  0  0  0  0  0  0
  148.0100  144.0341  159.1873 N   0  0  0  0  0  0  0  0  0  0  0  0
  149.0682  143.2752  158.8521 C   0  0  0  0  0  0  0  0  0  0  0  0
  149.2572  142.1158  159.2205 O   0  0  0  0  0  0  0  0  0  0  0  0
  149.9046  143.9450  158.0452 N   0  0  0  0  0  0  0  0  0  0  0  0
  151.1520  143.4298  157.4822 C   0  0  2  0  0  0  0  0  0  0  0  0
  150.8730  142.0696  156.8263 C   0  0  0  0  0  0  0  0  0  0  0  0
  152.2337  143.3278  158.5772 C   0  0  2  0  0  0  0  0  0  0  0  0
  152.1636  142.0659  159.4403 C   0  0  0  0  0  0  0  0  0  0  0  0
  152.8684  142.5167  160.6985 C   0  0  0  0  0  0  0  0  0  0  0  0
  152.3726  143.9528  160.8325 C   0  0  0  0  0  0  0  0  0  0  0  0
  152.1119  144.4040  159.5056 O   0  0  0  0  0  0  0  0  0  0  0  0
  146.3273  144.8109  161.2460 S   0  0  0  0  0  0  0  0  0  0  0  0
  143.3483  142.9783  162.6277 H   0  0  0  0  0  0  0  0  0  0  0  0
  143.6447  144.7243  162.6082 H   0  0  0  0  0  0  0  0  0  0  0  0
  144.5925  143.6769  163.6793 H   0  0  0  0  0  0  0  0  0  0  0  0
  147.9861  144.9651  158.7987 H   0  0  0  0  0  0  0  0  0  0  0  0
  149.6602  144.8924  157.7969 H   0  0  0  0  0  0  0  0  0  0  0  0
  151.5153  144.1023  156.7030 H   0  0  0  0  0  0  0  0  0  0  0  0
  151.7709  141.6669  156.3570 H   0  0  0  0  0  0  0  0  0  0  0  0
  150.1108  142.1559  156.0509 H   0  0  0  0  0  0  0  0  0  0  0  0
  150.5241  141.3398  157.5574 H   0  0  0  0  0  0  0  0  0  0  0  0
  153.2271  143.3915  158.1291 H   0  0  0  0  0  0  0  0  0  0  0  0
  151.1271  141.8102  159.6661 H   0  0  0  0  0  0  0  0  0  0  0  0
  152.6359  141.2012  158.9733 H   0  0  0  0  0  0  0  0  0  0  0  0
  152.6356  141.9015  161.5678 H   0  0  0  0  0  0  0  0  0  0  0  0
  153.9486  142.5034  160.5471 H   0  0  0  0  0  0  0  0  0  0  0  0
  151.4395  143.9829  161.3963 H   0  0  0  0  0  0  0  0  0  0  0  0
  153.0942  144.5953  161.3374 H   0  0  0  0  0  0  0  0  0  0  0  0
  1  2  1  0  0  0  0
  1 18  1  0  0  0  0
  1 19  1  0  0  0  0
  1 20  1  0  0  0  0
  2 17  1  0  0  0  0
  2  3  2  0  0  0  0
  3  4  1  0  0  0  0
  4  5  2  0  0  0  0
  5  6  1  0  0  0  0
  5 17  1  0  0  0  0
  6  7  1  0  0  0  0
  6 21  1  0  0  0  0
  7  8  2  0  0  0  0
  7  9  1  0  0  0  0
  9 10  1  0  0  0  0
  9 22  1  0  0  0  0
 10 11  1  0  0  0  0
 10 12  1  0  0  0  0
 10 23  1  0  0  0  0
 11 24  1  0  0  0  0
 11 25  1  0  0  0  0
 11 26  1  0  0  0  0
 12 16  1  0  0  0  0
 12 13  1  0  0  0  0
 12 27  1  0  0  0  0
 13 14  1  0  0  0  0
 13 28  1  0  0  0  0
 13 29  1  0  0  0  0
 14 15  1  0  0  0  0
 14 30  1  0  0  0  0
 14 31  1  0  0  0  0
 15 16  1  0  0  0  0
 15 32  1  0  0  0  0
 15 33  1  0  0  0  0
M  END
> <s_m_source_file>
AV-unprocessed.smi

> <i_m_source_file_index>
1768

> <i_lp_mmshare_version>
43012

> <i_f3d_flags>
0

> <s_epik_input>
W0NIM11jMW5uYyhzMSlbTkhdQyg9TylbTkhdW0NASF0oW0NIM10pW0NAQEhdMltDSDJdW0NIMl1bQ0gyXU8y

> <s_epik_cmdline>
J2VwaWtfcHl0aG9uJywgJy1waCcsICc3LjAnLCAnLXRuJywgJzgnLCAnLW1hJywgJzIwMCcsICctbWV0YWxfYmluZGluZycsICctaW1hZScsICc8aW5maWxlLm1hZT4nLCAnLW9tYWUnLCAnPG91dGZpbGUubWFlPic=

> <r_lp_tautomer_probability>
1

> <r_epik_Ionization_Penalty>
0.000523083

> <r_epik_Ionization_Penalty_Charging>
0

> <r_epik_Ionization_Penalty_Neutral>
0.000523083

> <r_epik_State_Penalty>
-0

> <r_epik_Charging_Adjusted_Penalty>
0

> <i_epik_Tot_Q>
0

> <i_epik_Tot_abs_Q>
0

> <r_epik_Metal_State_Penalty>
0.223408

> <b_epik_Metal_Only>
0

> <s_lp_Force_Field>
OPLS_2005

> <r_lp_Energy>
16.8922

> <b_lp_Chiralities_Consistent>
1

> <s_lp_Variant>
AV-unprocessed.smi:1768-1

> <Gold.Version>
5.8.1

> <Gold.Id.Protein>
6NUR|6NUR_protein|mol2

> <Gold.PLP.Fitness>
38.3958

> <Gold.PLP.PLP>
-35.1439

> <Gold.PLP.part.hbond>
-5.6279

> <Gold.PLP.part.metal>
0.0000

> <Gold.PLP.part.buried>
-2.2480

> <Gold.PLP.part.nonpolar>
-29.0635

> <Gold.PLP.part.repulsive>
0.2401

> <Gold.PLP.ligand.clash>
0.0000

> <Gold.PLP.ligand.torsion>
0.9534

> <Gold.PLP.Chemscore.Hbond>
1.7138

> <Gold.PLP.Chemscore.CHOScore>
0.0000

> <Gold.PLP.Chemscore.Metal>
0.0000

> <Gold.Chemscore.Hbonds>
donor molecule, donor type, donor heavy atom, donor atom, acceptor molecule, acceptor atom, score
      L1  H     6    21       P1  8029  0.91
      L1  H     9    22       P1  8029  0.31
      P1  H  6934  6946       L1     4  0.35

> <Gold.PLP.Chemscore.Internal.Correction>
0.0175

> <Gold.Rescore>
     Score         DG    S(hbond)    S(metal)    S(lipo)     H(rot)  DE(clash)    DE(int)     intcor
     11.98     -15.48       0.97        0.00      85.96       1.29       0.07       3.43       ----

> <Gold.Chemscore.Fitness>
11.9776

> <Gold.Chemscore.DG>
-15.4790

> <Gold.Chemscore.ZeroCoef>
-5.4800

> <Gold.Chemscore.Hbond>
0.9728

> <Gold.Chemscore.Metal>
0.0000

> <Gold.Chemscore.Lipo>
85.9577

> <Gold.Chemscore.Internal_Hbond>
0.0000

> <Gold.Chemscore.DEClash>
0.0737

> <Gold.Chemscore.DEInternal>
3.4278

> <Gold.Chemscore.Rot>
1.2919

> <Gold.Chemscore.Internal.Correction>
   9.000000E+99

> <Gold.Chemscore.Hbonds>
donor molecule, donor type, donor heavy atom, donor atom, acceptor molecule, acceptor atom, score
      L1  H     6    21       P1  8029  0.90
      L1  H     9    22       P1  8029  0.01
      P1  H  6934  6946       L1     4  0.01

> <Gold.Chemscore.Hbond.Weighted>
-3.2491

> <Gold.Chemscore.Metal.Weighted>
-0.0000

> <Gold.Chemscore.Lipo.Weighted>
-10.0571

> <Gold.Chemscore.Internal_Hbond.Weighted>
0.0000

> <Gold.Chemscore.DEClash.Weighted>
0.0737

> <Gold.Chemscore.DEInternal.Weighted>
3.4278

> <Gold.Chemscore.Rot.Weighted>
3.3072

> <Gold.Chemscore.Internal.Correction.Weighted>
   9.000000E+99

> <Gold.Protein.RotatedTorsions>
[ 6907 6896 6895 6894 ] final    0.67 input  -60.11 | X-H torsion
[ 7974 7965 7964 7962 ] final -137.21 input  175.53 | X-H torsion
[ 8008 7997 7996 7995 ] final  150.66 input   59.86 | X-H torsion
[ 10167 10162 10161 10158 ] final -113.84 input  -65.29 | X-H torsion
[ 10718 10713 10712 10709 ] final  126.11 input   66.30 | X-H torsion
[ 10763 10752 10751 10750 ] final  -20.43 input  -60.55 | X-H torsion
[ 11005 11000 10999 10996 ] final  103.83 input  -57.11 | X-H torsion

> <Gold.Protein.ActiveResidues>
 VAL166  LYS551  ARG553  GLY616  TRP617  ASP618  TYR619  PRO620  LYS621  CYS622 
 ASP623  PHE694  ASN695  SER759  ASP760  ASP761  ALA762  ILE779  LEU786  VAL792 
 PHE793  MET794  SER795  GLU796  ALA797  LYS798  CYS799  TRP800  GLU811  SER814 

> <Gold.Protein.RotatedAtoms>
  151.5802  135.1059  160.0015 H   0  0  0  0  0  0  0  0  0  0  0  0  # atno 6907 bound_to 6896
  152.4358  133.7354  159.6621 H   0  0  0  0  0  0  0  0  0  0  0  0  # atno 6908 bound_to 6896
  150.8255  133.8108  159.3143 H   0  0  0  0  0  0  0  0  0  0  0  0  # atno 6909 bound_to 6896
  144.8861  140.6576  143.5175 H   0  0  0  0  0  0  0  0  0  0  0  0  # atno 7974 bound_to 7965
  156.2706  140.2068  156.6053 H   0  0  0  0  0  0  0  0  0  0  0  0  # atno 8008 bound_to 7997
  154.6874  140.0533  157.0352 H   0  0  0  0  0  0  0  0  0  0  0  0  # atno 8009 bound_to 7997
  155.0914  140.3197  155.4575 H   0  0  0  0  0  0  0  0  0  0  0  0  # atno 8010 bound_to 7997
  140.1074  143.4558  152.1774 H   0  0  0  0  0  0  0  0  0  0  0  0  # atno 10167 bound_to 10162
  157.5447  131.1096  150.8802 H   0  0  0  0  0  0  0  0  0  0  0  0  # atno 10718 bound_to 10713
  153.6202  135.6993  153.5313 H   0  0  0  0  0  0  0  0  0  0  0  0  # atno 10763 bound_to 10752
  153.2943  135.4147  155.1195 H   0  0  0  0  0  0  0  0  0  0  0  0  # atno 10764 bound_to 10752
  154.8545  135.3633  154.5743 H   0  0  0  0  0  0  0  0  0  0  0  0  # atno 10765 bound_to 10752
  139.8787  134.9278  156.5269 H   0  0  0  0  0  0  0  0  0  0  0  0  # atno 11005 bound_to 11000
  145.3866  139.1625  143.4251 LP  0  0  0  0  0  0  0  0  0  0  0  0  # atno 17320 bound_to 7965
  146.3025  140.3952  142.8699 LP  0  0  0  0  0  0  0  0  0  0  0  0  # atno 17321 bound_to 7965
  139.5638  144.7422  151.4081 LP  0  0  0  0  0  0  0  0  0  0  0  0  # atno 17342 bound_to 10162
  140.6944  143.7783  150.7304 LP  0  0  0  0  0  0  0  0  0  0  0  0  # atno 17343 bound_to 10162
  156.9344  130.5361  149.5279 LP  0  0  0  0  0  0  0  0  0  0  0  0  # atno 17370 bound_to 10713
  156.0525  130.5592  150.9021 LP  0  0  0  0  0  0  0  0  0  0  0  0  # atno 17371 bound_to 10713
  140.8409  133.8206  155.9074 LP  0  0  0  0  0  0  0  0  0  0  0  0  # atno 17394 bound_to 11000
  140.9238  134.2108  157.4909 LP  0  0  0  0  0  0  0  0  0  0  0  0  # atno 17395 bound_to 11000

$$$$
