AV-unprocessed.smi:2433|AV-procd|sdf|9590|dock3
  -GOLD-   2272013223D 1   1.00000     0.00000
 Structure written by MMmdl.
 38 40  0  0  0  0  0  0  0  0  1 V2000
  150.2898  140.3808  154.3803 O   0  0  0  0  0  0  0  0  0  0  0  0
  150.8470  140.4918  155.4728 C   0  0  0  0  0  0  0  0  0  0  0  0
  150.6496  141.6502  156.3445 C   0  0  0  0  0  0  0  0  0  0  0  0
  151.2770  141.7351  157.5414 C   0  0  0  0  0  0  0  0  0  0  0  0
  151.0748  142.9460  158.4489 C   0  0  0  0  0  0  0  0  0  0  0  0
  151.4625  144.3102  157.8521 C   0  0  0  0  0  0  0  0  0  0  0  0
  152.7673  144.2700  158.6555 C   0  0  0  0  0  0  0  0  0  0  0  0
  152.1756  143.1384  159.5037 C   0  0  0  0  0  0  0  0  0  0  0  0
  152.1494  140.7207  157.9578 N   0  0  0  0  0  0  0  0  0  0  0  0
  152.3426  139.6854  157.2047 C   0  0  0  0  0  0  0  0  0  0  0  0
  151.6942  139.5410  155.9638 N   0  0  0  0  0  0  0  0  0  0  0  0
  151.9780  138.3044  155.2167 C   0  0  0  0  0  0  0  0  0  0  0  0
  150.7210  137.4285  155.0216 C   0  0  1  0  0  0  0  0  0  0  0  0
  151.0660  136.3061  154.2332 O   0  0  0  0  0  0  0  0  0  0  0  0
  150.1422  137.0103  156.3652 C   0  0  0  0  0  0  0  0  0  0  0  0
  149.8173  137.9926  157.3256 C   0  0  0  0  0  0  0  0  0  0  0  0
  149.2941  137.6166  158.5781 C   0  0  0  0  0  0  0  0  0  0  0  0
  149.0959  136.2555  158.8793 C   0  0  0  0  0  0  0  0  0  0  0  0
  148.5940  135.8940  160.0837 F   0  0  0  0  0  0  0  0  0  0  0  0
  149.4224  135.2704  157.9280 C   0  0  0  0  0  0  0  0  0  0  0  0
  149.9458  135.6459  156.6755 C   0  0  0  0  0  0  0  0  0  0  0  0
  149.9864  142.4408  156.0244 H   0  0  0  0  0  0  0  0  0  0  0  0
  150.0758  142.9607  158.8875 H   0  0  0  0  0  0  0  0  0  0  0  0
  151.5967  144.3296  156.7700 H   0  0  0  0  0  0  0  0  0  0  0  0
  150.7989  145.1111  158.1808 H   0  0  0  0  0  0  0  0  0  0  0  0
  153.6221  143.9487  158.0589 H   0  0  0  0  0  0  0  0  0  0  0  0
  152.9841  145.1833  159.2102 H   0  0  0  0  0  0  0  0  0  0  0  0
  151.7834  143.4925  160.4581 H   0  0  0  0  0  0  0  0  0  0  0  0
  152.8400  142.2839  159.6383 H   0  0  0  0  0  0  0  0  0  0  0  0
  153.0145  138.8711  157.4813 H   0  0  0  0  0  0  0  0  0  0  0  0
  152.4595  138.5003  154.2563 H   0  0  0  0  0  0  0  0  0  0  0  0
  152.7226  137.7389  155.7807 H   0  0  0  0  0  0  0  0  0  0  0  0
  149.9536  137.9840  154.4808 H   0  0  0  0  0  0  0  0  0  0  0  0
  150.3624  136.1414  153.6240 H   0  0  0  0  0  0  0  0  0  0  0  0
  149.9717  139.0391  157.1065 H   0  0  0  0  0  0  0  0  0  0  0  0
  149.0470  138.3728  159.3086 H   0  0  0  0  0  0  0  0  0  0  0  0
  149.2739  134.2261  158.1594 H   0  0  0  0  0  0  0  0  0  0  0  0
  150.1988  134.8813  155.9557 H   0  0  0  0  0  0  0  0  0  0  0  0
  1  2  2  0  0  0  0
  2 11  1  0  0  0  0
  2  3  1  0  0  0  0
  3  4  2  0  0  0  0
  3 22  1  0  0  0  0
  4  5  1  0  0  0  0
  4  9  1  0  0  0  0
  5  8  1  0  0  0  0
  5  6  1  0  0  0  0
  5 23  1  0  0  0  0
  6  7  1  0  0  0  0
  6 24  1  0  0  0  0
  6 25  1  0  0  0  0
  7  8  1  0  0  0  0
  7 26  1  0  0  0  0
  7 27  1  0  0  0  0
  8 28  1  0  0  0  0
  8 29  1  0  0  0  0
  9 10  2  0  0  0  0
 10 11  1  0  0  0  0
 10 30  1  0  0  0  0
 11 12  1  0  0  0  0
 12 13  1  0  0  0  0
 12 31  1  0  0  0  0
 12 32  1  0  0  0  0
 13 14  1  0  0  0  0
 13 15  1  0  0  0  0
 13 33  1  0  0  0  0
 14 34  1  0  0  0  0
 15 21  1  0  0  0  0
 15 16  2  0  0  0  0
 16 17  1  0  0  0  0
 16 35  1  0  0  0  0
 17 18  2  0  0  0  0
 17 36  1  0  0  0  0
 18 19  1  0  0  0  0
 18 20  1  0  0  0  0
 20 21  2  0  0  0  0
 20 37  1  0  0  0  0
 21 38  1  0  0  0  0
M  END
> <s_m_source_file>
AV-unprocessed.smi

> <i_m_source_file_index>
2433

> <i_lp_mmshare_version>
43012

> <i_f3d_flags>
0

> <s_epik_input>
W0NIMl0xW0NIMl1bQ0gyXVtDSF0xYyhbY0hdYzI9TyluW2NIXW4yW0NIMl1bQ0BIXShbT0hdKWMzW2NIXVtjSF1jKEYpW2NIXVtjSF0z

> <s_epik_cmdline>
J2VwaWtfcHl0aG9uJywgJy1waCcsICc3LjAnLCAnLXRuJywgJzgnLCAnLW1hJywgJzIwMCcsICctbWV0YWxfYmluZGluZycsICctaW1hZScsICc8aW5maWxlLm1hZT4nLCAnLW9tYWUnLCAnPG91dGZpbGUubWFlPic=

> <r_lp_tautomer_probability>
1

> <r_epik_Ionization_Penalty>
2.57762e-05

> <r_epik_Ionization_Penalty_Charging>
5.39435e-08

> <r_epik_Ionization_Penalty_Neutral>
2.57223e-05

> <r_epik_State_Penalty>
-0

> <r_epik_Charging_Adjusted_Penalty>
5.39435e-08

> <i_epik_Tot_Q>
0

> <i_epik_Tot_abs_Q>
0

> <r_epik_Metal_State_Penalty>
-0

> <b_epik_Metal_Only>
0

> <s_lp_Force_Field>
OPLS_2005

> <r_lp_Energy>
28.3662

> <b_lp_Chiralities_Consistent>
1

> <s_lp_Variant>
AV-unprocessed.smi:2433-2

> <Gold.Version>
5.8.1

> <Gold.Id.Protein>
6NUR|6NUR_protein|mol2

> <Gold.PLP.Fitness>
46.0295

> <Gold.PLP.PLP>
-39.5515

> <Gold.PLP.part.hbond>
-3.7341

> <Gold.PLP.part.metal>
0.0000

> <Gold.PLP.part.buried>
-3.5261

> <Gold.PLP.part.nonpolar>
-33.7714

> <Gold.PLP.part.repulsive>
0.1150

> <Gold.PLP.ligand.clash>
0.0000

> <Gold.PLP.ligand.torsion>
0.3194

> <Gold.PLP.Chemscore.Hbond>
2.2470

> <Gold.PLP.Chemscore.CHOScore>
0.0000

> <Gold.PLP.Chemscore.Metal>
0.0000

> <Gold.Chemscore.Hbonds>
donor molecule, donor type, donor heavy atom, donor atom, acceptor molecule, acceptor atom, score
      L1  H    14    34       P1  7948  0.17
      P1  H  7989  7998       L1     1  0.73
      P1  H 10752 10764       L1    14  1.00

> <Gold.PLP.Chemscore.Internal.Correction>
0.3758

> <Gold.Rescore>
     Score         DG    S(hbond)    S(metal)    S(lipo)     H(rot)  DE(clash)    DE(int)     intcor
     14.52     -17.07       1.96        0.00      89.88       2.14       0.01       2.54       ----

> <Gold.Chemscore.Fitness>
14.5228

> <Gold.Chemscore.DG>
-17.0651

> <Gold.Chemscore.ZeroCoef>
-5.4800

> <Gold.Chemscore.Hbond>
1.9579

> <Gold.Chemscore.Metal>
0.0000

> <Gold.Chemscore.Lipo>
89.8843

> <Gold.Chemscore.Internal_Hbond>
0.0000

> <Gold.Chemscore.DEClash>
0.0060

> <Gold.Chemscore.DEInternal>
2.5363

> <Gold.Chemscore.Rot>
2.1370

> <Gold.Chemscore.Internal.Correction>
   9.000000E+99

> <Gold.Chemscore.Hbonds>
donor molecule, donor type, donor heavy atom, donor atom, acceptor molecule, acceptor atom, score
      P1  H  7989  7998       L1     1  0.09
      P1  H 10752 10764       L1    14  0.95

> <Gold.Chemscore.Hbond.Weighted>
-6.5393

> <Gold.Chemscore.Metal.Weighted>
-0.0000

> <Gold.Chemscore.Lipo.Weighted>
-10.5165

> <Gold.Chemscore.Internal_Hbond.Weighted>
0.0000

> <Gold.Chemscore.DEClash.Weighted>
0.0060

> <Gold.Chemscore.DEInternal.Weighted>
2.5363

> <Gold.Chemscore.Rot.Weighted>
5.4707

> <Gold.Chemscore.Internal.Correction.Weighted>
   9.000000E+99

> <Gold.Protein.RotatedTorsions>
[ 6907 6896 6895 6894 ] final  -46.14 input  -60.11 | X-H torsion
[ 7974 7965 7964 7962 ] final  118.89 input  175.53 | X-H torsion
[ 8008 7997 7996 7995 ] final -176.99 input   59.86 | X-H torsion
[ 10167 10162 10161 10158 ] final  -41.11 input  -65.29 | X-H torsion
[ 10718 10713 10712 10709 ] final -114.80 input   66.30 | X-H torsion
[ 10763 10752 10751 10750 ] final  -77.63 input  -60.55 | X-H torsion
[ 11005 11000 10999 10996 ] final  120.17 input  -57.11 | X-H torsion

> <Gold.Protein.ActiveResidues>
 VAL166  LYS551  ARG553  GLY616  TRP617  ASP618  TYR619  PRO620  LYS621  CYS622 
 ASP623  PHE694  ASN695  SER759  ASP760  ASP761  ALA762  ILE779  LEU786  VAL792 
 PHE793  MET794  SER795  GLU796  ALA797  LYS798  CYS799  TRP800  GLU811  SER814 

> <Gold.Protein.RotatedAtoms>
  150.9144  134.8561  159.7446 H   0  0  0  0  0  0  0  0  0  0  0  0  # atno 6907 bound_to 6896
  152.4961  134.4311  159.9522 H   0  0  0  0  0  0  0  0  0  0  0  0  # atno 6908 bound_to 6896
  151.4351  133.3620  159.2809 H   0  0  0  0  0  0  0  0  0  0  0  0  # atno 6909 bound_to 6896
  145.1498  139.3217  143.4572 H   0  0  0  0  0  0  0  0  0  0  0  0  # atno 7974 bound_to 7965
  156.0016  140.1221  157.0542 H   0  0  0  0  0  0  0  0  0  0  0  0  # atno 8008 bound_to 7997
  154.4244  140.1105  156.5773 H   0  0  0  0  0  0  0  0  0  0  0  0  # atno 8009 bound_to 7997
  155.6205  140.3472  155.4653 H   0  0  0  0  0  0  0  0  0  0  0  0  # atno 8010 bound_to 7997
  140.7013  143.3114  151.3019 H   0  0  0  0  0  0  0  0  0  0  0  0  # atno 10167 bound_to 10162
  156.0853  130.6046  150.8822 H   0  0  0  0  0  0  0  0  0  0  0  0  # atno 10718 bound_to 10713
  154.5155  135.5757  153.6639 H   0  0  0  0  0  0  0  0  0  0  0  0  # atno 10763 bound_to 10752
  152.9906  135.6169  154.2823 H   0  0  0  0  0  0  0  0  0  0  0  0  # atno 10764 bound_to 10752
  154.2740  135.2852  155.2705 H   0  0  0  0  0  0  0  0  0  0  0  0  # atno 10765 bound_to 10752
  139.9175  134.9633  156.7766 H   0  0  0  0  0  0  0  0  0  0  0  0  # atno 11005 bound_to 11000
  146.3496  140.1568  142.8591 LP  0  0  0  0  0  0  0  0  0  0  0  0  # atno 17320 bound_to 7965
  145.0443  140.8969  143.5033 LP  0  0  0  0  0  0  0  0  0  0  0  0  # atno 17321 bound_to 7965
  139.6538  144.0314  152.2645 LP  0  0  0  0  0  0  0  0  0  0  0  0  # atno 17342 bound_to 10162
  139.9859  144.6396  150.7858 LP  0  0  0  0  0  0  0  0  0  0  0  0  # atno 17343 bound_to 10162
  157.5986  131.0942  150.8999 LP  0  0  0  0  0  0  0  0  0  0  0  0  # atno 17370 bound_to 10713
  156.9161  130.5298  149.5279 LP  0  0  0  0  0  0  0  0  0  0  0  0  # atno 17371 bound_to 10713
  140.6577  133.9673  155.7788 LP  0  0  0  0  0  0  0  0  0  0  0  0  # atno 17394 bound_to 11000
  141.0664  134.0270  157.3587 LP  0  0  0  0  0  0  0  0  0  0  0  0  # atno 17395 bound_to 11000

$$$$
