AV-unprocessed.smi:1489|AV-procd|sdf|6026|dock10
  -GOLD-   22720 6123D 1   1.00000     0.00000
 Structure written by MMmdl.
 46 48  0  0  0  0  0  0  0  0  1 V2000
  146.4817  138.7569  154.5889 O   0  0  0  0  0  0  0  0  0  0  0  0
  147.2464  138.2194  153.7890 C   0  0  0  0  0  0  0  0  0  0  0  0
  148.5801  138.3842  153.7451 N   0  0  0  0  0  0  0  0  0  0  0  0
  149.4225  139.1902  154.5604 C   0  0  0  0  0  0  0  0  0  0  0  0
  150.8150  139.0030  154.7289 C   0  0  0  0  0  0  0  0  0  0  0  0
  151.5240  139.8769  155.5752 C   0  0  0  0  0  0  0  0  0  0  0  0
  150.8276  140.9143  156.2386 C   0  0  0  0  0  0  0  0  0  0  0  0
  151.5017  141.8121  157.0903 N   0  0  0  0  0  0  0  0  0  0  0  0
  151.1332  143.2173  157.1691 C   0  0  0  0  0  0  0  0  0  0  0  0
  151.9985  143.7811  158.2948 C   0  0  0  0  0  0  0  0  0  0  0  0
  152.1442  142.5943  159.2470 C   0  0  0  0  0  0  0  0  0  0  0  0
  152.1371  141.3700  158.3242 C   0  0  0  0  0  0  0  0  0  0  0  0
  149.4959  141.0941  156.0736 N   0  0  0  0  0  0  0  0  0  0  0  0
  148.8210  140.2541  155.2621 C   0  0  0  0  0  0  0  0  0  0  0  0
  146.8367  137.3735  152.8328 N   0  0  0  0  0  0  0  0  0  0  0  0
  145.4533  136.9706  152.5968 C   0  0  2  0  0  0  0  0  0  0  0  0
  144.8544  136.3993  153.8949 C   0  0  0  0  0  0  0  0  0  0  0  0
  143.4093  135.9134  153.6848 C   0  0  0  0  0  0  0  0  0  0  0  0
  143.2966  134.9004  152.5302 C   0  0  2  0  0  0  0  0  0  0  0  0
  143.9066  133.6786  152.8969 O   0  0  0  0  0  0  0  0  0  0  0  0
  143.9347  135.4425  151.2372 C   0  0  0  0  0  0  0  0  0  0  0  0
  145.3762  135.9336  151.4580 C   0  0  0  0  0  0  0  0  0  0  0  0
  149.0611  137.8513  153.0354 H   0  0  0  0  0  0  0  0  0  0  0  0
  151.3607  138.2145  154.2369 H   0  0  0  0  0  0  0  0  0  0  0  0
  152.5883  139.7422  155.6980 H   0  0  0  0  0  0  0  0  0  0  0  0
  151.3109  143.7349  156.2259 H   0  0  0  0  0  0  0  0  0  0  0  0
  150.0745  143.3030  157.4174 H   0  0  0  0  0  0  0  0  0  0  0  0
  152.9775  144.0618  157.9040 H   0  0  0  0  0  0  0  0  0  0  0  0
  151.5590  144.6591  158.7689 H   0  0  0  0  0  0  0  0  0  0  0  0
  153.0399  142.6524  159.8659 H   0  0  0  0  0  0  0  0  0  0  0  0
  151.2801  142.5545  159.9116 H   0  0  0  0  0  0  0  0  0  0  0  0
  151.6072  140.5372  158.7876 H   0  0  0  0  0  0  0  0  0  0  0  0
  153.1547  141.0484  158.1004 H   0  0  0  0  0  0  0  0  0  0  0  0
  147.7610  140.4410  155.1702 H   0  0  0  0  0  0  0  0  0  0  0  0
  147.5339  136.9766  152.2200 H   0  0  0  0  0  0  0  0  0  0  0  0
  144.8704  137.8495  152.3141 H   0  0  0  0  0  0  0  0  0  0  0  0
  145.4677  135.5711  154.2532 H   0  0  0  0  0  0  0  0  0  0  0  0
  144.8733  137.1568  154.6795 H   0  0  0  0  0  0  0  0  0  0  0  0
  143.0210  135.4799  154.6075 H   0  0  0  0  0  0  0  0  0  0  0  0
  142.7765  136.7740  153.4649 H   0  0  0  0  0  0  0  0  0  0  0  0
  142.2433  134.6865  152.3455 H   0  0  0  0  0  0  0  0  0  0  0  0
  143.3456  133.2365  153.5158 H   0  0  0  0  0  0  0  0  0  0  0  0
  143.9133  134.6817  150.4559 H   0  0  0  0  0  0  0  0  0  0  0  0
  143.3333  136.2736  150.8667 H   0  0  0  0  0  0  0  0  0  0  0  0
  145.7578  136.3637  150.5311 H   0  0  0  0  0  0  0  0  0  0  0  0
  146.0198  135.0833  151.6883 H   0  0  0  0  0  0  0  0  0  0  0  0
  1  2  2  0  0  0  0
  2  3  1  0  0  0  0
  2 15  1  0  0  0  0
  3  4  1  0  0  0  0
  3 23  1  0  0  0  0
  4 14  1  0  0  0  0
  4  5  2  0  0  0  0
  5  6  1  0  0  0  0
  5 24  1  0  0  0  0
  6  7  2  0  0  0  0
  6 25  1  0  0  0  0
  7  8  1  0  0  0  0
  7 13  1  0  0  0  0
  8 12  1  0  0  0  0
  8  9  1  0  0  0  0
  9 10  1  0  0  0  0
  9 26  1  0  0  0  0
  9 27  1  0  0  0  0
 10 11  1  0  0  0  0
 10 28  1  0  0  0  0
 10 29  1  0  0  0  0
 11 12  1  0  0  0  0
 11 30  1  0  0  0  0
 11 31  1  0  0  0  0
 12 32  1  0  0  0  0
 12 33  1  0  0  0  0
 13 14  2  0  0  0  0
 14 34  1  0  0  0  0
 15 16  1  0  0  0  0
 15 35  1  0  0  0  0
 16 22  1  0  0  0  0
 16 17  1  0  0  0  0
 16 36  1  0  0  0  0
 17 18  1  0  0  0  0
 17 37  1  0  0  0  0
 17 38  1  0  0  0  0
 18 19  1  0  0  0  0
 18 39  1  0  0  0  0
 18 40  1  0  0  0  0
 19 20  1  0  0  0  0
 19 21  1  0  0  0  0
 19 41  1  0  0  0  0
 20 42  1  0  0  0  0
 21 22  1  0  0  0  0
 21 43  1  0  0  0  0
 21 44  1  0  0  0  0
 22 45  1  0  0  0  0
 22 46  1  0  0  0  0
M  END
> <s_m_source_file>
AV-unprocessed.smi

> <i_m_source_file_index>
1489

> <i_lp_mmshare_version>
43012

> <i_f3d_flags>
0

> <s_epik_input>
W0NIMl0xW0NIMl1bQ0BIXShbT0hdKVtDSDJdW0NIMl1bQ0BIXTFbTkhdQyg9TylbTkhdYzJbY0hdW2NIXWMobltjSF0yKU4zW0NIMl1bQ0gyXVtDSDJdW0NIMl0z

> <s_epik_cmdline>
J2VwaWtfcHl0aG9uJywgJy1waCcsICc3LjAnLCAnLXRuJywgJzgnLCAnLW1hJywgJzIwMCcsICctbWV0YWxfYmluZGluZycsICctaW1hZScsICc8aW5maWxlLm1hZT4nLCAnLW9tYWUnLCAnPG91dGZpbGUubWFlPic=

> <r_lp_tautomer_probability>
1

> <r_epik_Ionization_Penalty>
0.104121

> <r_epik_Ionization_Penalty_Charging>
0

> <r_epik_Ionization_Penalty_Neutral>
0.104121

> <r_epik_State_Penalty>
0.0934704

> <r_epik_Charging_Adjusted_Penalty>
0.0934704

> <i_epik_Tot_Q>
0

> <i_epik_Tot_abs_Q>
0

> <r_epik_Metal_State_Penalty>
0.0794432

> <b_epik_Metal_Only>
0

> <s_lp_Force_Field>
OPLS_2005

> <r_lp_Energy>
35.391

> <b_lp_Chiralities_Consistent>
1

> <s_lp_Variant>
AV-unprocessed.smi:1489-2

> <Gold.Version>
5.8.1

> <Gold.Id.Protein>
6NUR|6NUR_protein|mol2

> <Gold.PLP.Fitness>
44.1904

> <Gold.PLP.PLP>
-37.2096

> <Gold.PLP.part.hbond>
-3.3181

> <Gold.PLP.part.metal>
0.0000

> <Gold.PLP.part.buried>
-5.0850

> <Gold.PLP.part.nonpolar>
-30.5921

> <Gold.PLP.part.repulsive>
0.2175

> <Gold.PLP.ligand.clash>
0.0000

> <Gold.PLP.ligand.torsion>
0.9805

> <Gold.PLP.Chemscore.Hbond>
2.9193

> <Gold.PLP.Chemscore.CHOScore>
0.0000

> <Gold.PLP.Chemscore.Metal>
0.0000

> <Gold.Chemscore.Hbonds>
donor molecule, donor type, donor heavy atom, donor atom, acceptor molecule, acceptor atom, score
      L1  H     3    23       P1  7948  0.91
      L1  H    15    35       P1  7948  1.00
      L1  H    20    42       P1 10957  0.94

> <Gold.PLP.Chemscore.Internal.Correction>
0.1840

> <Gold.Rescore>
     Score         DG    S(hbond)    S(metal)    S(lipo)     H(rot)  DE(clash)    DE(int)     intcor
     18.54     -22.07       2.91        0.00      89.61       1.41       0.04       3.49       ----

> <Gold.Chemscore.Fitness>
18.5367

> <Gold.Chemscore.DG>
-22.0663

> <Gold.Chemscore.ZeroCoef>
-5.4800

> <Gold.Chemscore.Hbond>
2.9072

> <Gold.Chemscore.Metal>
0.0000

> <Gold.Chemscore.Lipo>
89.6070

> <Gold.Chemscore.Internal_Hbond>
0.0000

> <Gold.Chemscore.DEClash>
0.0442

> <Gold.Chemscore.DEInternal>
3.4854

> <Gold.Chemscore.Rot>
1.4093

> <Gold.Chemscore.Internal.Correction>
   9.000000E+99

> <Gold.Chemscore.Hbonds>
donor molecule, donor type, donor heavy atom, donor atom, acceptor molecule, acceptor atom, score
      L1  H     3    23       P1  7948  0.87
      L1  H    15    35       P1  7948  0.98
      L1  H    20    42       P1 10957  0.87

> <Gold.Chemscore.Hbond.Weighted>
-9.7100

> <Gold.Chemscore.Metal.Weighted>
-0.0000

> <Gold.Chemscore.Lipo.Weighted>
-10.4840

> <Gold.Chemscore.Internal_Hbond.Weighted>
0.0000

> <Gold.Chemscore.DEClash.Weighted>
0.0442

> <Gold.Chemscore.DEInternal.Weighted>
3.4854

> <Gold.Chemscore.Rot.Weighted>
3.6077

> <Gold.Chemscore.Internal.Correction.Weighted>
   9.000000E+99

> <Gold.Protein.RotatedTorsions>
[ 6907 6896 6895 6894 ] final   48.51 input  -60.11 | X-H torsion
[ 7974 7965 7964 7962 ] final   17.19 input  175.53 | X-H torsion
[ 8008 7997 7996 7995 ] final  -17.83 input   59.86 | X-H torsion
[ 10167 10162 10161 10158 ] final  132.75 input  -65.29 | X-H torsion
[ 10718 10713 10712 10709 ] final -144.38 input   66.30 | X-H torsion
[ 10763 10752 10751 10750 ] final  -33.44 input  -60.55 | X-H torsion
[ 11005 11000 10999 10996 ] final  109.27 input  -57.11 | X-H torsion

> <Gold.Protein.ActiveResidues>
 VAL166  LYS551  ARG553  GLY616  TRP617  ASP618  TYR619  PRO620  LYS621  CYS622 
 ASP623  PHE694  ASN695  SER759  ASP760  ASP761  ALA762  ILE779  LEU786  VAL792 
 PHE793  MET794  SER795  GLU796  ALA797  LYS798  CYS799  TRP800  GLU811  SER814 

> <Gold.Protein.RotatedAtoms>
  152.2803  134.7835  160.0397 H   0  0  0  0  0  0  0  0  0  0  0  0  # atno 6907 bound_to 6896
  151.8417  133.3419  159.3653 H   0  0  0  0  0  0  0  0  0  0  0  0  # atno 6908 bound_to 6896
  150.7187  134.5313  159.5746 H   0  0  0  0  0  0  0  0  0  0  0  0  # atno 6909 bound_to 6896
  146.2226  139.8638  142.8600 H   0  0  0  0  0  0  0  0  0  0  0  0  # atno 7974 bound_to 7965
  154.4950  140.2132  155.9467 H   0  0  0  0  0  0  0  0  0  0  0  0  # atno 8008 bound_to 7997
  156.1358  140.3189  155.8386 H   0  0  0  0  0  0  0  0  0  0  0  0  # atno 8009 bound_to 7997
  155.4213  140.0497  157.3016 H   0  0  0  0  0  0  0  0  0  0  0  0  # atno 8010 bound_to 7997
  139.5326  144.6648  151.4896 H   0  0  0  0  0  0  0  0  0  0  0  0  # atno 10167 bound_to 10162
  156.3694  130.7780  151.1959 H   0  0  0  0  0  0  0  0  0  0  0  0  # atno 10718 bound_to 10713
  153.8303  135.6866  153.4815 H   0  0  0  0  0  0  0  0  0  0  0  0  # atno 10763 bound_to 10752
  153.1515  135.4616  154.9641 H   0  0  0  0  0  0  0  0  0  0  0  0  # atno 10764 bound_to 10752
  154.7889  135.3295  154.7767 H   0  0  0  0  0  0  0  0  0  0  0  0  # atno 10765 bound_to 10752
  139.8859  134.9453  156.6100 H   0  0  0  0  0  0  0  0  0  0  0  0  # atno 11005 bound_to 11000
  145.2677  141.0098  143.3789 LP  0  0  0  0  0  0  0  0  0  0  0  0  # atno 17320 bound_to 7965
  144.9248  139.4369  143.6524 LP  0  0  0  0  0  0  0  0  0  0  0  0  # atno 17321 bound_to 7965
  140.6514  143.8689  150.6789 LP  0  0  0  0  0  0  0  0  0  0  0  0  # atno 17342 bound_to 10162
  140.2055  143.3925  152.1759 LP  0  0  0  0  0  0  0  0  0  0  0  0  # atno 17343 bound_to 10162
  157.7482  131.0376  150.4466 LP  0  0  0  0  0  0  0  0  0  0  0  0  # atno 17370 bound_to 10713
  156.4691  130.4048  149.6529 LP  0  0  0  0  0  0  0  0  0  0  0  0  # atno 17371 bound_to 10713
  140.7819  133.8653  155.8574 LP  0  0  0  0  0  0  0  0  0  0  0  0  # atno 17394 bound_to 11000
  140.9753  134.1477  157.4541 LP  0  0  0  0  0  0  0  0  0  0  0  0  # atno 17395 bound_to 11000

$$$$
