AV-unprocessed.smi:1824|AV-procd|sdf|7402|dock4
  -GOLD-   22720 9 73D 1   1.00000     0.00000
 Structure written by MMmdl.
 45 47  0  0  0  0  0  0  0  0  2 V2000
  144.1291  139.6810  156.7476 C   0  0  0  0  0  0  0  0  0  0  0  0
  145.2568  140.5415  156.1681 C   0  0  1  0  0  0  0  0  0  0  0  0
  146.3022  139.6921  155.4133 C   0  0  0  0  0  0  0  0  0  0  0  0
  147.3197  140.5409  154.7418 N   0  3  2  0  0  0  0  0  0  0  0  0
  148.3798  141.0773  155.6382 C   0  0  0  0  0  0  0  0  0  0  0  0
  149.7982  140.7981  155.1027 C   0  0  1  0  0  0  0  0  0  0  0  0
  149.7407  140.6869  153.6930 O   0  0  0  0  0  0  0  0  0  0  0  0
  150.7892  141.9146  155.4843 C   0  0  0  0  0  0  0  0  0  0  0  0
  151.3290  141.7404  156.8209 N   0  0  0  0  0  0  0  0  0  0  0  0
  151.6955  140.5848  157.4084 C   0  0  0  0  0  0  0  0  0  0  0  0
  152.1622  140.6545  158.6517 N   0  0  0  0  0  0  0  0  0  0  0  0
  152.0948  142.0146  158.9002 C   0  0  0  0  0  0  0  0  0  0  0  0
  152.4461  142.7559  160.0508 C   0  0  0  0  0  0  0  0  0  0  0  0
  152.2902  144.1575  160.0738 C   0  0  0  0  0  0  0  0  0  0  0  0
  152.6343  144.8527  161.1836 F   0  0  0  0  0  0  0  0  0  0  0  0
  151.7794  144.8380  158.9482 C   0  0  0  0  0  0  0  0  0  0  0  0
  151.6332  146.1838  158.9780 F   0  0  0  0  0  0  0  0  0  0  0  0
  151.4199  144.1205  157.7912 C   0  0  0  0  0  0  0  0  0  0  0  0
  151.5788  142.7226  157.7729 C   0  0  0  0  0  0  0  0  0  0  0  0
  146.6636  141.5750  153.9050 C   0  0  0  0  0  0  0  0  0  0  0  0
  145.6308  142.3816  154.7178 C   0  0  1  0  0  0  0  0  0  0  0  0
  144.8794  143.3971  153.8498 C   0  0  0  0  0  0  0  0  0  0  0  0
  144.6767  141.4812  155.2696 O   0  0  0  0  0  0  0  0  0  0  0  0
  144.5180  138.9459  157.4525 H   0  0  0  0  0  0  0  0  0  0  0  0
  143.5980  139.1435  155.9614 H   0  0  0  0  0  0  0  0  0  0  0  0
  143.4024  140.2974  157.2776 H   0  0  0  0  0  0  0  0  0  0  0  0
  145.7290  141.0792  156.9911 H   0  0  0  0  0  0  0  0  0  0  0  0
  146.7700  138.9735  156.0849 H   0  0  0  0  0  0  0  0  0  0  0  0
  145.7999  139.1035  154.6441 H   0  0  0  0  0  0  0  0  0  0  0  0
  148.2599  142.1566  155.7443 H   0  0  0  0  0  0  0  0  0  0  0  0
  148.2660  140.6643  156.6406 H   0  0  0  0  0  0  0  0  0  0  0  0
  150.1720  139.8550  155.5004 H   0  0  0  0  0  0  0  0  0  0  0  0
  149.5531  139.7887  153.4658 H   0  0  0  0  0  0  0  0  0  0  0  0
  151.6171  141.9546  154.7747 H   0  0  0  0  0  0  0  0  0  0  0  0
  150.2965  142.8868  155.4427 H   0  0  0  0  0  0  0  0  0  0  0  0
  151.6102  139.6377  156.8959 H   0  0  0  0  0  0  0  0  0  0  0  0
  152.8375  142.2457  160.9185 H   0  0  0  0  0  0  0  0  0  0  0  0
  151.0286  144.6393  156.9290 H   0  0  0  0  0  0  0  0  0  0  0  0
  147.4080  142.2327  153.4549 H   0  0  0  0  0  0  0  0  0  0  0  0
  146.1621  141.0727  153.0765 H   0  0  0  0  0  0  0  0  0  0  0  0
  146.1282  142.9210  155.5256 H   0  0  0  0  0  0  0  0  0  0  0  0
  145.5659  144.1192  153.4072 H   0  0  0  0  0  0  0  0  0  0  0  0
  144.1507  143.9519  154.4414 H   0  0  0  0  0  0  0  0  0  0  0  0
  144.3423  142.9046  153.0386 H   0  0  0  0  0  0  0  0  0  0  0  0
  147.8131  139.9404  154.0958 H   0  0  0  0  0  0  0  0  0  0  0  0
  1  2  1  0  0  0  0
  1 24  1  0  0  0  0
  1 25  1  0  0  0  0
  1 26  1  0  0  0  0
  2 23  1  0  0  0  0
  2  3  1  0  0  0  0
  2 27  1  0  0  0  0
  3  4  1  0  0  0  0
  3 28  1  0  0  0  0
  3 29  1  0  0  0  0
  4  5  1  0  0  0  0
  4 20  1  0  0  0  0
  4 45  1  0  0  0  0
  5  6  1  0  0  0  0
  5 30  1  0  0  0  0
  5 31  1  0  0  0  0
  6  7  1  0  0  0  0
  6  8  1  0  0  0  0
  6 32  1  0  0  0  0
  7 33  1  0  0  0  0
  8  9  1  0  0  0  0
  8 34  1  0  0  0  0
  8 35  1  0  0  0  0
  9 19  1  0  0  0  0
  9 10  1  0  0  0  0
 10 11  2  0  0  0  0
 10 36  1  0  0  0  0
 11 12  1  0  0  0  0
 12 19  2  0  0  0  0
 12 13  1  0  0  0  0
 13 14  2  0  0  0  0
 13 37  1  0  0  0  0
 14 15  1  0  0  0  0
 14 16  1  0  0  0  0
 16 17  1  0  0  0  0
 16 18  2  0  0  0  0
 18 19  1  0  0  0  0
 18 38  1  0  0  0  0
 20 21  1  0  0  0  0
 20 39  1  0  0  0  0
 20 40  1  0  0  0  0
 21 22  1  0  0  0  0
 21 23  1  0  0  0  0
 21 41  1  0  0  0  0
 22 42  1  0  0  0  0
 22 43  1  0  0  0  0
 22 44  1  0  0  0  0
M  CHG  1   4   1
M  END
> <s_m_source_file>
AV-unprocessed.smi

> <i_m_source_file_index>
1824

> <i_lp_mmshare_version>
43012

> <i_f3d_flags>
0

> <s_epik_input>
W0NIM11bQ0BASF0xW0NIMl1OKFtDSDJdW0NASF0oTzEpW0NIM10pW0NIMl1bQ0BIXShbT0hdKVtDSDJdbihbY0hdbjIpYyhjMjMpW2NIXWMoRiljKEYpW2NIXTM=

> <s_epik_cmdline>
J2VwaWtfcHl0aG9uJywgJy1waCcsICc3LjAnLCAnLXRuJywgJzgnLCAnLW1hJywgJzIwMCcsICctbWV0YWxfYmluZGluZycsICctaW1hZScsICc8aW5maWxlLm1hZT4nLCAnLW9tYWUnLCAnPG91dGZpbGUubWFlPic=

> <r_epik_Ionization_Penalty>
0.61967

> <r_epik_Ionization_Penalty_Charging>
0.608065

> <r_epik_Ionization_Penalty_Neutral>
0.0116057

> <r_epik_State_Penalty>
0.664205

> <r_epik_Charging_Adjusted_Penalty>
1.27227

> <i_epik_Tot_Q>
1

> <i_epik_Tot_abs_Q>
1

> <r_epik_Metal_State_Penalty>
0.654947

> <b_epik_Metal_Only>
0

> <s_lp_Force_Field>
OPLS_2005

> <r_lp_Energy>
21.9473

> <b_lp_Chiralities_Consistent>
1

> <s_lp_Variant>
AV-unprocessed.smi:1824-10

> <Gold.Version>
5.8.1

> <Gold.Id.Protein>
6NUR|6NUR_protein|mol2

> <Gold.PLP.Fitness>
49.1705

> <Gold.PLP.PLP>
-47.8498

> <Gold.PLP.part.hbond>
-2.7770

> <Gold.PLP.part.metal>
0.0000

> <Gold.PLP.part.buried>
-5.4908

> <Gold.PLP.part.nonpolar>
-38.2726

> <Gold.PLP.part.repulsive>
0.2087

> <Gold.PLP.ligand.clash>
0.0000

> <Gold.PLP.ligand.torsion>
1.6294

> <Gold.PLP.Chemscore.Hbond>
1.4852

> <Gold.PLP.Chemscore.CHOScore>
0.0000

> <Gold.PLP.Chemscore.Metal>
0.0000

> <Gold.Chemscore.Hbonds>
donor molecule, donor type, donor heavy atom, donor atom, acceptor molecule, acceptor atom, score
      P1  H  7989  7998       L1     7  0.34
      P1  H  8011  8017       L1     7  0.59

> <Gold.PLP.Chemscore.Internal.Correction>
0.1237

> <Gold.Rescore>
     Score         DG    S(hbond)    S(metal)    S(lipo)     H(rot)  DE(clash)    DE(int)     intcor
     11.94     -14.93       1.20        0.00      97.39       2.33       1.17       1.83       ----

> <Gold.Chemscore.Fitness>
11.9368

> <Gold.Chemscore.DG>
-14.9310

> <Gold.Chemscore.ZeroCoef>
-5.4800

> <Gold.Chemscore.Hbond>
1.2001

> <Gold.Chemscore.Metal>
0.0000

> <Gold.Chemscore.Lipo>
97.3926

> <Gold.Chemscore.Internal_Hbond>
0.0000

> <Gold.Chemscore.DEClash>
1.1689

> <Gold.Chemscore.DEInternal>
1.8253

> <Gold.Chemscore.Rot>
2.3251

> <Gold.Chemscore.Internal.Correction>
   9.000000E+99

> <Gold.Chemscore.Hbonds>
donor molecule, donor type, donor heavy atom, donor atom, acceptor molecule, acceptor atom, score
      L1  H     7    33       P1  7957  0.01
      P1  H  7989  7998       L1     7  0.02
      P1  H  8011  8017       L1     7  0.56

> <Gold.Chemscore.Hbond.Weighted>
-4.0084

> <Gold.Chemscore.Metal.Weighted>
-0.0000

> <Gold.Chemscore.Lipo.Weighted>
-11.3949

> <Gold.Chemscore.Internal_Hbond.Weighted>
0.0000

> <Gold.Chemscore.DEClash.Weighted>
1.1689

> <Gold.Chemscore.DEInternal.Weighted>
1.8253

> <Gold.Chemscore.Rot.Weighted>
5.9523

> <Gold.Chemscore.Internal.Correction.Weighted>
   9.000000E+99

> <Gold.Protein.RotatedTorsions>
[ 6907 6896 6895 6894 ] final  113.88 input  -60.11 | X-H torsion
[ 7974 7965 7964 7962 ] final  -91.20 input  175.53 | X-H torsion
[ 8008 7997 7996 7995 ] final  -58.79 input   59.86 | X-H torsion
[ 10167 10162 10161 10158 ] final  -81.55 input  -65.29 | X-H torsion
[ 10718 10713 10712 10709 ] final  -73.91 input   66.30 | X-H torsion
[ 10763 10752 10751 10750 ] final   11.57 input  -60.55 | X-H torsion
[ 11005 11000 10999 10996 ] final  -57.61 input  -57.11 | X-H torsion

> <Gold.Protein.ActiveResidues>
 VAL166  LYS551  ARG553  GLY616  TRP617  ASP618  TYR619  PRO620  LYS621  CYS622 
 ASP623  PHE694  ASN695  SER759  ASP760  ASP761  ALA762  ILE779  LEU786  VAL792 
 PHE793  MET794  SER795  GLU796  ALA797  LYS798  CYS799  TRP800  GLU811  SER814 

> <Gold.Protein.RotatedAtoms>
  152.4835  133.8313  159.7104 H   0  0  0  0  0  0  0  0  0  0  0  0  # atno 6907 bound_to 6896
  150.8903  133.7243  159.2913 H   0  0  0  0  0  0  0  0  0  0  0  0  # atno 6908 bound_to 6896
  151.4718  135.1050  159.9806 H   0  0  0  0  0  0  0  0  0  0  0  0  # atno 6909 bound_to 6896
  145.4162  140.9548  143.2206 H   0  0  0  0  0  0  0  0  0  0  0  0  # atno 7974 bound_to 7965
  154.4324  140.1076  156.6013 H   0  0  0  0  0  0  0  0  0  0  0  0  # atno 8008 bound_to 7997
  155.5908  140.3492  155.4547 H   0  0  0  0  0  0  0  0  0  0  0  0  # atno 8009 bound_to 7997
  156.0248  140.1247  157.0309 H   0  0  0  0  0  0  0  0  0  0  0  0  # atno 8010 bound_to 7997
  140.4401  143.2517  151.8637 H   0  0  0  0  0  0  0  0  0  0  0  0  # atno 10167 bound_to 10162
  156.0262  130.4405  150.2813 H   0  0  0  0  0  0  0  0  0  0  0  0  # atno 10718 bound_to 10713
  153.1912  135.6842  153.8350 H   0  0  0  0  0  0  0  0  0  0  0  0  # atno 10763 bound_to 10752
  153.7648  135.3204  155.3344 H   0  0  0  0  0  0  0  0  0  0  0  0  # atno 10764 bound_to 10752
  154.8118  135.4712  154.0636 H   0  0  0  0  0  0  0  0  0  0  0  0  # atno 10765 bound_to 10752
  141.1172  133.6610  156.4795 H   0  0  0  0  0  0  0  0  0  0  0  0  # atno 11005 bound_to 11000
  144.8275  139.5684  143.6959 LP  0  0  0  0  0  0  0  0  0  0  0  0  # atno 17320 bound_to 7965
  146.2679  139.6565  142.9316 LP  0  0  0  0  0  0  0  0  0  0  0  0  # atno 17321 bound_to 7965
  139.4789  144.5238  151.8764 LP  0  0  0  0  0  0  0  0  0  0  0  0  # atno 17342 bound_to 10162
  140.4328  144.2093  150.5888 LP  0  0  0  0  0  0  0  0  0  0  0  0  # atno 17343 bound_to 10162
  157.0917  131.0171  151.3119 LP  0  0  0  0  0  0  0  0  0  0  0  0  # atno 17370 bound_to 10713
  157.4849  130.7787  149.7450 LP  0  0  0  0  0  0  0  0  0  0  0  0  # atno 17371 bound_to 10713
  140.4612  134.6839  157.5086 LP  0  0  0  0  0  0  0  0  0  0  0  0  # atno 17394 bound_to 11000
  140.0102  134.6702  155.9392 LP  0  0  0  0  0  0  0  0  0  0  0  0  # atno 17395 bound_to 11000

$$$$
