AV-unprocessed.smi:710|AV-procd|sdf|3463|dock2
  -GOLD-   22720 0453D 1   1.00000     0.00000
 Structure written by MMmdl.
 40 41  0  0  0  0  0  0  0  0  1 V2000
  149.3213  135.5215  156.2974 C   0  0  0  0  0  0  0  0  0  0  0  0
  149.6842  134.0637  156.3014 C   0  0  0  0  0  0  0  0  0  0  0  0
  150.0576  133.5010  157.4379 N   0  0  0  0  0  0  0  0  0  0  0  0
  150.3101  132.2158  157.1223 N   0  0  0  0  0  0  0  0  0  0  0  0
  150.7430  131.3169  158.1754 C   0  0  0  0  0  0  0  0  0  0  0  0
  150.0966  131.9648  155.7790 C   0  0  0  0  0  0  0  0  0  0  0  0
  150.3005  130.6135  155.1716 C   0  0  0  0  0  0  0  0  0  0  0  0
  149.6895  133.1436  155.2114 C   0  0  0  0  0  0  0  0  0  0  0  0
  149.3241  133.4220  153.7749 C   0  0  0  0  0  0  0  0  0  0  0  0
  147.8094  133.3139  153.6000 C   0  0  0  0  0  0  0  0  0  0  0  0
  147.2045  132.3478  154.0635 O   0  0  0  0  0  0  0  0  0  0  0  0
  147.2137  134.3083  152.9248 N   0  0  0  0  0  0  0  0  0  0  0  0
  145.7852  134.3957  152.6349 C   0  0  0  0  0  0  0  0  0  0  0  0
  145.4298  133.9825  151.1856 C   0  0  2  0  0  0  0  0  0  0  0  0
  145.5113  135.1362  150.3676 O   0  0  0  0  0  0  0  0  0  0  0  0
  143.9858  133.4636  151.0757 C   0  0  0  0  0  0  0  0  0  0  0  0
  143.8196  132.8187  149.6954 C   0  0  0  0  0  0  0  0  0  0  0  0
  145.4074  132.0749  149.2436 S   0  0  0  0  0  0  0  0  0  0  0  0
  146.3158  132.8693  150.5968 C   0  0  0  0  0  0  0  0  0  0  0  0
  148.7462  135.7878  155.4108 H   0  0  0  0  0  0  0  0  0  0  0  0
  150.2146  136.1458  156.3130 H   0  0  0  0  0  0  0  0  0  0  0  0
  148.7178  135.7814  157.1674 H   0  0  0  0  0  0  0  0  0  0  0  0
  151.0089  130.3414  157.7698 H   0  0  0  0  0  0  0  0  0  0  0  0
  149.9393  131.1891  158.9009 H   0  0  0  0  0  0  0  0  0  0  0  0
  151.6149  131.7342  158.6803 H   0  0  0  0  0  0  0  0  0  0  0  0
  150.0778  130.6190  154.1052 H   0  0  0  0  0  0  0  0  0  0  0  0
  149.6504  129.8758  155.6424 H   0  0  0  0  0  0  0  0  0  0  0  0
  151.3327  130.2852  155.2938 H   0  0  0  0  0  0  0  0  0  0  0  0
  149.6441  134.4191  153.4706 H   0  0  0  0  0  0  0  0  0  0  0  0
  149.8187  132.7316  153.0909 H   0  0  0  0  0  0  0  0  0  0  0  0
  147.7949  135.0574  152.5785 H   0  0  0  0  0  0  0  0  0  0  0  0
  145.3018  133.7112  153.3325 H   0  0  0  0  0  0  0  0  0  0  0  0
  145.3922  135.3860  152.8729 H   0  0  0  0  0  0  0  0  0  0  0  0
  145.5432  134.8616  149.4639 H   0  0  0  0  0  0  0  0  0  0  0  0
  143.8173  132.6995  151.8360 H   0  0  0  0  0  0  0  0  0  0  0  0
  143.2471  134.2477  151.2483 H   0  0  0  0  0  0  0  0  0  0  0  0
  143.0210  132.0768  149.6835 H   0  0  0  0  0  0  0  0  0  0  0  0
  143.5760  133.5781  148.9519 H   0  0  0  0  0  0  0  0  0  0  0  0
  147.2845  133.2368  150.2558 H   0  0  0  0  0  0  0  0  0  0  0  0
  146.5035  132.1051  151.3519 H   0  0  0  0  0  0  0  0  0  0  0  0
  1  2  1  0  0  0  0
  1 20  1  0  0  0  0
  1 21  1  0  0  0  0
  1 22  1  0  0  0  0
  2  8  1  0  0  0  0
  2  3  2  0  0  0  0
  3  4  1  0  0  0  0
  4  5  1  0  0  0  0
  4  6  1  0  0  0  0
  5 23  1  0  0  0  0
  5 24  1  0  0  0  0
  5 25  1  0  0  0  0
  6  7  1  0  0  0  0
  6  8  2  0  0  0  0
  7 26  1  0  0  0  0
  7 27  1  0  0  0  0
  7 28  1  0  0  0  0
  8  9  1  0  0  0  0
  9 10  1  0  0  0  0
  9 29  1  0  0  0  0
  9 30  1  0  0  0  0
 10 11  2  0  0  0  0
 10 12  1  0  0  0  0
 12 13  1  0  0  0  0
 12 31  1  0  0  0  0
 13 14  1  0  0  0  0
 13 32  1  0  0  0  0
 13 33  1  0  0  0  0
 14 19  1  0  0  0  0
 14 15  1  0  0  0  0
 14 16  1  0  0  0  0
 15 34  1  0  0  0  0
 16 17  1  0  0  0  0
 16 35  1  0  0  0  0
 16 36  1  0  0  0  0
 17 18  1  0  0  0  0
 17 37  1  0  0  0  0
 17 38  1  0  0  0  0
 18 19  1  0  0  0  0
 19 39  1  0  0  0  0
 19 40  1  0  0  0  0
M  END
> <s_m_source_file>
AV-unprocessed.smi

> <i_m_source_file_index>
710

> <i_lp_mmshare_version>
43012

> <i_f3d_flags>
0

> <s_epik_input>
W0NIM11jMW5uKFtDSDNdKWMoW0NIM10pYzFbQ0gyXUMoPU8pW05IXVtDSDJdW0NAQF0yKFtPSF0pW0NIMl1bQ0gyXVNbQ0gyXTI=

> <s_epik_cmdline>
J2VwaWtfcHl0aG9uJywgJy1waCcsICc3LjAnLCAnLXRuJywgJzgnLCAnLW1hJywgJzIwMCcsICctbWV0YWxfYmluZGluZycsICctaW1hZScsICc8aW5maWxlLm1hZT4nLCAnLW9tYWUnLCAnPG91dGZpbGUubWFlPic=

> <r_lp_tautomer_probability>
1

> <r_epik_Ionization_Penalty>
0.00343686

> <r_epik_Ionization_Penalty_Charging>
0

> <r_epik_Ionization_Penalty_Neutral>
0.00343686

> <r_epik_State_Penalty>
0.00243544

> <r_epik_Charging_Adjusted_Penalty>
0.00243544

> <i_epik_Tot_Q>
0

> <i_epik_Tot_abs_Q>
0

> <r_epik_Metal_State_Penalty>
-0

> <b_epik_Metal_Only>
0

> <s_lp_Force_Field>
OPLS_2005

> <r_lp_Energy>
11.3483

> <b_lp_Chiralities_Consistent>
1

> <s_lp_Variant>
AV-unprocessed.smi:710-2

> <Gold.Version>
5.8.1

> <Gold.Id.Protein>
6NUR|6NUR_protein|mol2

> <Gold.PLP.Fitness>
41.6697

> <Gold.PLP.PLP>
-34.8521

> <Gold.PLP.part.hbond>
-3.0000

> <Gold.PLP.part.metal>
0.0000

> <Gold.PLP.part.buried>
-4.6040

> <Gold.PLP.part.nonpolar>
-27.3554

> <Gold.PLP.part.repulsive>
0.0576

> <Gold.PLP.ligand.clash>
0.0000

> <Gold.PLP.ligand.torsion>
1.0989

> <Gold.PLP.Chemscore.Hbond>
3.0000

> <Gold.PLP.Chemscore.CHOScore>
0.0000

> <Gold.PLP.Chemscore.Metal>
0.0000

> <Gold.Chemscore.Hbonds>
donor molecule, donor type, donor heavy atom, donor atom, acceptor molecule, acceptor atom, score
      L1  H    12    31       P1  7948  1.00
      L1  H    15    34       P1  7921  1.00
      P1  H  6896  6907       L1     3  0.95

> <Gold.PLP.Chemscore.Internal.Correction>
0.0155

> <Gold.Rescore>
     Score         DG    S(hbond)    S(metal)    S(lipo)     H(rot)  DE(clash)    DE(int)     intcor
     18.03     -19.00       2.85        0.00      79.64       2.07       0.00       0.97       ----

> <Gold.Chemscore.Fitness>
18.0283

> <Gold.Chemscore.DG>
-19.0018

> <Gold.Chemscore.ZeroCoef>
-5.4800

> <Gold.Chemscore.Hbond>
2.8492

> <Gold.Chemscore.Metal>
0.0000

> <Gold.Chemscore.Lipo>
79.6369

> <Gold.Chemscore.Internal_Hbond>
0.0000

> <Gold.Chemscore.DEClash>
0.0021

> <Gold.Chemscore.DEInternal>
0.9713

> <Gold.Chemscore.Rot>
2.0750

> <Gold.Chemscore.Internal.Correction>
   9.000000E+99

> <Gold.Chemscore.Hbonds>
donor molecule, donor type, donor heavy atom, donor atom, acceptor molecule, acceptor atom, score
      L1  H    12    31       P1  7948  0.98
      L1  H    15    34       P1  7921  0.97
      P1  H  6896  6907       L1     3  0.20

> <Gold.Chemscore.Hbond.Weighted>
-9.5163

> <Gold.Chemscore.Metal.Weighted>
-0.0000

> <Gold.Chemscore.Lipo.Weighted>
-9.3175

> <Gold.Chemscore.Internal_Hbond.Weighted>
0.0000

> <Gold.Chemscore.DEClash.Weighted>
0.0021

> <Gold.Chemscore.DEInternal.Weighted>
0.9713

> <Gold.Chemscore.Rot.Weighted>
5.3120

> <Gold.Chemscore.Internal.Correction.Weighted>
   9.000000E+99

> <Gold.Protein.RotatedTorsions>
[ 6907 6896 6895 6894 ] final -137.60 input  -60.11 | X-H torsion
[ 7974 7965 7964 7962 ] final  -52.37 input  175.53 | X-H torsion
[ 8008 7997 7996 7995 ] final -164.47 input   59.86 | X-H torsion
[ 10167 10162 10161 10158 ] final   29.93 input  -65.29 | X-H torsion
[ 10718 10713 10712 10709 ] final   28.67 input   66.30 | X-H torsion
[ 10763 10752 10751 10750 ] final -109.98 input  -60.55 | X-H torsion
[ 11005 11000 10999 10996 ] final    5.43 input  -57.11 | X-H torsion

> <Gold.Protein.ActiveResidues>
 VAL166  LYS551  ARG553  GLY616  TRP617  ASP618  TYR619  PRO620  LYS621  CYS622 
 ASP623  PHE694  ASN695  SER759  ASP760  ASP761  ALA762  ILE779  LEU786  VAL792 
 PHE793  MET794  SER795  GLU796  ALA797  LYS798  CYS799  TRP800  GLU811  SER814 

> <Gold.Protein.RotatedAtoms>
  151.0245  133.5846  159.2667 H   0  0  0  0  0  0  0  0  0  0  0  0  # atno 6907 bound_to 6896
  151.2950  135.0752  159.9228 H   0  0  0  0  0  0  0  0  0  0  0  0  # atno 6908 bound_to 6896
  152.5331  133.9937  159.7917 H   0  0  0  0  0  0  0  0  0  0  0  0  # atno 6909 bound_to 6896
  145.9087  140.7934  142.9706 H   0  0  0  0  0  0  0  0  0  0  0  0  # atno 7974 bound_to 7965
  155.8361  140.0941  157.1763 H   0  0  0  0  0  0  0  0  0  0  0  0  # atno 8008 bound_to 7997
  154.3981  140.1410  156.3733 H   0  0  0  0  0  0  0  0  0  0  0  0  # atno 8009 bound_to 7997
  155.8115  140.3449  155.5463 H   0  0  0  0  0  0  0  0  0  0  0  0  # atno 8010 bound_to 7997
  140.4723  144.0744  150.6241 H   0  0  0  0  0  0  0  0  0  0  0  0  # atno 10167 bound_to 10162
  157.2365  130.7048  149.6338 H   0  0  0  0  0  0  0  0  0  0  0  0  # atno 10718 bound_to 10713
  154.8223  135.4581  154.0816 H   0  0  0  0  0  0  0  0  0  0  0  0  # atno 10763 bound_to 10752
  153.2159  135.6888  153.8065 H   0  0  0  0  0  0  0  0  0  0  0  0  # atno 10764 bound_to 10752
  153.7499  135.3299  155.3296 H   0  0  0  0  0  0  0  0  0  0  0  0  # atno 10765 bound_to 10752
  140.5707  134.0105  155.8008 H   0  0  0  0  0  0  0  0  0  0  0  0  # atno 11005 bound_to 11000
  144.6741  140.1791  143.7407 LP  0  0  0  0  0  0  0  0  0  0  0  0  # atno 17320 bound_to 7965
  145.8700  139.2267  143.1667 LP  0  0  0  0  0  0  0  0  0  0  0  0  # atno 17321 bound_to 7965
  140.3962  143.2727  152.0002 LP  0  0  0  0  0  0  0  0  0  0  0  0  # atno 17342 bound_to 10162
  139.4820  144.6036  151.7561 LP  0  0  0  0  0  0  0  0  0  0  0  0  # atno 17343 bound_to 10162
  155.9672  130.4472  150.5570 LP  0  0  0  0  0  0  0  0  0  0  0  0  # atno 17370 bound_to 10713
  157.3424  131.0719  151.1778 LP  0  0  0  0  0  0  0  0  0  0  0  0  # atno 17371 bound_to 10713
  141.1057  133.9697  157.3000 LP  0  0  0  0  0  0  0  0  0  0  0  0  # atno 17394 bound_to 11000
  139.9363  135.0196  156.8566 LP  0  0  0  0  0  0  0  0  0  0  0  0  # atno 17395 bound_to 11000

$$$$
