AV-unprocessed.smi:2171|AV-procd|sdf|8829|dock7
  -GOLD-   2272012 23D 1   1.00000     0.00000
 Structure written by MMmdl.
 39 41  0  0  0  0  0  0  0  0  2 V2000
  151.1252  140.6748  157.0127 O   0  0  0  0  0  0  0  0  0  0  0  0
  150.4036  141.5166  156.4791 C   0  0  0  0  0  0  0  0  0  0  0  0
  149.7329  141.2114  155.1376 C   0  0  0  0  0  0  0  0  0  0  0  0
  149.7656  139.7884  154.8402 N   0  0  0  0  0  0  0  0  0  0  0  0
  148.8309  138.8248  155.1590 C   0  0  0  0  0  0  0  0  0  0  0  0
  149.3002  137.6316  154.6892 C   0  0  0  0  0  0  0  0  0  0  0  0
  150.5432  137.9709  154.0848 C   0  0  0  0  0  0  0  0  0  0  0  0
  150.8189  139.2617  154.1765 N   0  0  0  0  0  0  0  0  0  0  0  0
  150.1378  142.7146  157.0247 N   0  0  0  0  0  0  0  0  0  0  0  0
  150.5707  143.1554  158.3482 C   0  0  1  0  0  0  0  0  0  0  0  0
  151.4611  144.4120  158.3013 C   0  0  0  0  0  0  0  0  0  0  0  0
  150.9736  145.2775  159.4679 C   0  0  0  0  0  0  0  0  0  0  0  0
  149.5392  144.9738  159.5245 N   0  3  2  0  0  0  0  0  0  0  0  0
  148.7630  145.4418  160.6905 C   0  0  0  0  0  0  0  0  0  0  0  0
  147.2675  145.1659  160.4232 C   0  0  0  0  0  0  0  0  0  0  0  0
  147.0047  143.6945  160.0296 C   0  0  0  0  0  0  0  0  0  0  0  0
  147.9395  143.2285  158.8928 C   0  0  0  0  0  0  0  0  0  0  0  0
  149.3980  143.5267  159.2882 C   0  0  1  0  0  0  0  0  0  0  0  0
  148.6960  141.5484  155.1609 H   0  0  0  0  0  0  0  0  0  0  0  0
  150.2317  141.7535  154.3325 H   0  0  0  0  0  0  0  0  0  0  0  0
  147.9216  139.0650  155.6902 H   0  0  0  0  0  0  0  0  0  0  0  0
  148.8264  136.6639  154.7631 H   0  0  0  0  0  0  0  0  0  0  0  0
  151.2487  137.3224  153.5863 H   0  0  0  0  0  0  0  0  0  0  0  0
  149.5422  143.3439  156.5063 H   0  0  0  0  0  0  0  0  0  0  0  0
  151.1467  142.3555  158.8180 H   0  0  0  0  0  0  0  0  0  0  0  0
  152.5236  144.1771  158.3732 H   0  0  0  0  0  0  0  0  0  0  0  0
  151.3067  144.9519  157.3656 H   0  0  0  0  0  0  0  0  0  0  0  0
  151.4526  144.9725  160.3998 H   0  0  0  0  0  0  0  0  0  0  0  0
  151.1606  146.3403  159.3118 H   0  0  0  0  0  0  0  0  0  0  0  0
  149.0981  144.9325  161.5952 H   0  0  0  0  0  0  0  0  0  0  0  0
  148.9278  146.5095  160.8387 H   0  0  0  0  0  0  0  0  0  0  0  0
  146.6759  145.4296  161.3003 H   0  0  0  0  0  0  0  0  0  0  0  0
  146.9237  145.8149  159.6165 H   0  0  0  0  0  0  0  0  0  0  0  0
  147.1566  143.0583  160.9026 H   0  0  0  0  0  0  0  0  0  0  0  0
  145.9630  143.5653  159.7344 H   0  0  0  0  0  0  0  0  0  0  0  0
  147.7988  142.1618  158.7168 H   0  0  0  0  0  0  0  0  0  0  0  0
  147.6828  143.7406  157.9641 H   0  0  0  0  0  0  0  0  0  0  0  0
  149.5960  143.0202  160.2354 H   0  0  0  0  0  0  0  0  0  0  0  0
  149.1383  145.4270  158.7157 H   0  0  0  0  0  0  0  0  0  0  0  0
  1  2  2  0  0  0  0
  2  3  1  0  0  0  0
  2  9  1  0  0  0  0
  3  4  1  0  0  0  0
  3 19  1  0  0  0  0
  3 20  1  0  0  0  0
  4  8  1  0  0  0  0
  4  5  1  0  0  0  0
  5  6  2  0  0  0  0
  5 21  1  0  0  0  0
  6  7  1  0  0  0  0
  6 22  1  0  0  0  0
  7  8  2  0  0  0  0
  7 23  1  0  0  0  0
  9 10  1  0  0  0  0
  9 24  1  0  0  0  0
 10 18  1  0  0  0  0
 10 11  1  0  0  0  0
 10 25  1  0  0  0  0
 11 12  1  0  0  0  0
 11 26  1  0  0  0  0
 11 27  1  0  0  0  0
 12 13  1  0  0  0  0
 12 28  1  0  0  0  0
 12 29  1  0  0  0  0
 13 18  1  0  0  0  0
 13 14  1  0  0  0  0
 13 39  1  0  0  0  0
 14 15  1  0  0  0  0
 14 30  1  0  0  0  0
 14 31  1  0  0  0  0
 15 16  1  0  0  0  0
 15 32  1  0  0  0  0
 15 33  1  0  0  0  0
 16 17  1  0  0  0  0
 16 34  1  0  0  0  0
 16 35  1  0  0  0  0
 17 18  1  0  0  0  0
 17 36  1  0  0  0  0
 17 37  1  0  0  0  0
 18 38  1  0  0  0  0
M  CHG  1  13   1
M  END
> <s_m_source_file>
AV-unprocessed.smi

> <i_m_source_file_index>
2171

> <i_lp_mmshare_version>
43012

> <i_f3d_flags>
0

> <s_epik_input>
bjFbY0hdW2NIXVtjSF1uMVtDSDJdQyg9TylbTkhdW0NASF0oW0NIMl1bQ0gyXTIpW0NAQEhdKE4yMylbQ0gyXVtDSDJdW0NIMl1bQ0gyXTM=

> <s_epik_cmdline>
J2VwaWtfcHl0aG9uJywgJy1waCcsICc3LjAnLCAnLXRuJywgJzgnLCAnLW1hJywgJzIwMCcsICctbWV0YWxfYmluZGluZycsICctaW1hZScsICc8aW5maWxlLm1hZT4nLCAnLW9tYWUnLCAnPG91dGZpbGUubWFlPic=

> <r_lp_tautomer_probability>
1

> <r_epik_Ionization_Penalty>
0.00204179

> <r_epik_Ionization_Penalty_Charging>
0.00203239

> <r_epik_Ionization_Penalty_Neutral>
9.40205e-06

> <r_epik_State_Penalty>
0.00138983

> <r_epik_Charging_Adjusted_Penalty>
0.00342221

> <i_epik_Tot_Q>
1

> <i_epik_Tot_abs_Q>
1

> <r_epik_Metal_State_Penalty>
-0

> <b_epik_Metal_Only>
0

> <s_lp_Force_Field>
OPLS_2005

> <r_lp_Energy>
40.8782

> <b_lp_Chiralities_Consistent>
1

> <s_lp_Variant>
AV-unprocessed.smi:2171-4

> <Gold.Version>
5.8.1

> <Gold.Id.Protein>
6NUR|6NUR_protein|mol2

> <Gold.PLP.Fitness>
44.5690

> <Gold.PLP.PLP>
-30.7459

> <Gold.PLP.part.hbond>
-3.0000

> <Gold.PLP.part.metal>
0.0000

> <Gold.PLP.part.buried>
-1.4542

> <Gold.PLP.part.nonpolar>
-26.8309

> <Gold.PLP.part.repulsive>
0.4175

> <Gold.PLP.ligand.clash>
0.0000

> <Gold.PLP.ligand.torsion>
0.5829

> <Gold.PLP.Chemscore.Hbond>
4.0000

> <Gold.PLP.Chemscore.CHOScore>
0.9949

> <Gold.PLP.Chemscore.Metal>
0.0000

> <Gold.Chemscore.Hbonds>
donor molecule, donor type, donor heavy atom, donor atom, acceptor molecule, acceptor atom, score
      L1  H     9    24       P1  8028  1.00
      L1  H    13    39       P1  8029  2.00
      P1  H  7989  7998       L1     8  1.00
      L1  C     7    23       P1  7949  1.00

> <Gold.PLP.Chemscore.Internal.Correction>
0.0043

> <Gold.Rescore>
     Score         DG    S(hbond)    S(metal)    S(lipo)     H(rot)  DE(clash)    DE(int)     intcor
     18.05     -18.78       2.42        0.00      76.05       1.44       0.15       0.59       ----

> <Gold.Chemscore.Fitness>
18.0468

> <Gold.Chemscore.DG>
-18.7843

> <Gold.Chemscore.ZeroCoef>
-5.4800

> <Gold.Chemscore.Hbond>
2.4237

> <Gold.Chemscore.Metal>
0.0000

> <Gold.Chemscore.Lipo>
76.0520

> <Gold.Chemscore.Internal_Hbond>
0.0000

> <Gold.Chemscore.DEClash>
0.1474

> <Gold.Chemscore.DEInternal>
0.5902

> <Gold.Chemscore.Rot>
1.4410

> <Gold.Chemscore.Internal.Correction>
   9.000000E+99

> <Gold.Chemscore.Hbonds>
donor molecule, donor type, donor heavy atom, donor atom, acceptor molecule, acceptor atom, score
      L1  H     9    24       P1  8028  1.00
      L1  H    13    39       P1  8029  0.97
      P1  H  7989  7998       L1     8  0.30

> <Gold.Chemscore.Hbond.Weighted>
-8.0952

> <Gold.Chemscore.Metal.Weighted>
-0.0000

> <Gold.Chemscore.Lipo.Weighted>
-8.8981

> <Gold.Chemscore.Internal_Hbond.Weighted>
0.0000

> <Gold.Chemscore.DEClash.Weighted>
0.1474

> <Gold.Chemscore.DEInternal.Weighted>
0.5902

> <Gold.Chemscore.Rot.Weighted>
3.6889

> <Gold.Chemscore.Internal.Correction.Weighted>
   9.000000E+99

> <Gold.Protein.RotatedTorsions>
[ 6907 6896 6895 6894 ] final  -96.41 input  -60.11 | X-H torsion
[ 7974 7965 7964 7962 ] final  144.35 input  175.53 | X-H torsion
[ 8008 7997 7996 7995 ] final -120.83 input   59.86 | X-H torsion
[ 10167 10162 10161 10158 ] final   48.54 input  -65.29 | X-H torsion
[ 10718 10713 10712 10709 ] final  -72.66 input   66.30 | X-H torsion
[ 10763 10752 10751 10750 ] final  -58.08 input  -60.55 | X-H torsion
[ 11005 11000 10999 10996 ] final   92.04 input  -57.11 | X-H torsion

> <Gold.Protein.ActiveResidues>
 VAL166  LYS551  ARG553  GLY616  TRP617  ASP618  TYR619  PRO620  LYS621  CYS622 
 ASP623  PHE694  ASN695  SER759  ASP760  ASP761  ALA762  ILE779  LEU786  VAL792 
 PHE793  MET794  SER795  GLU796  ALA797  LYS798  CYS799  TRP800  GLU811  SER814 

> <Gold.Protein.RotatedAtoms>
  150.6988  134.1508  159.4139 H   0  0  0  0  0  0  0  0  0  0  0  0  # atno 6907 bound_to 6896
  151.9490  135.0175  160.0550 H   0  0  0  0  0  0  0  0  0  0  0  0  # atno 6908 bound_to 6896
  152.2027  133.4818  159.5104 H   0  0  0  0  0  0  0  0  0  0  0  0  # atno 6909 bound_to 6896
  144.8843  139.5652  143.5828 H   0  0  0  0  0  0  0  0  0  0  0  0  # atno 7974 bound_to 7965
  155.1381  140.0401  157.2792 H   0  0  0  0  0  0  0  0  0  0  0  0  # atno 8008 bound_to 7997
  154.6493  140.2565  155.7206 H   0  0  0  0  0  0  0  0  0  0  0  0  # atno 8009 bound_to 7997
  156.2569  140.2839  156.0920 H   0  0  0  0  0  0  0  0  0  0  0  0  # atno 8010 bound_to 7997
  140.2923  144.3032  150.6238 H   0  0  0  0  0  0  0  0  0  0  0  0  # atno 10167 bound_to 10162
  156.0311  130.4377  150.2626 H   0  0  0  0  0  0  0  0  0  0  0  0  # atno 10718 bound_to 10713
  154.2324  135.6358  153.5180 H   0  0  0  0  0  0  0  0  0  0  0  0  # atno 10763 bound_to 10752
  152.9946  135.5522  154.5998 H   0  0  0  0  0  0  0  0  0  0  0  0  # atno 10764 bound_to 10752
  154.5484  135.2900  155.1005 H   0  0  0  0  0  0  0  0  0  0  0  0  # atno 10765 bound_to 10752
  139.8829  134.8709  156.3515 H   0  0  0  0  0  0  0  0  0  0  0  0  # atno 11005 bound_to 11000
  146.3014  139.7440  142.9088 LP  0  0  0  0  0  0  0  0  0  0  0  0  # atno 17320 bound_to 7965
  145.3897  141.0370  143.3131 LP  0  0  0  0  0  0  0  0  0  0  0  0  # atno 17321 bound_to 7965
  140.5722  143.2180  151.7579 LP  0  0  0  0  0  0  0  0  0  0  0  0  # atno 17342 bound_to 10162
  139.4935  144.4200  151.9987 LP  0  0  0  0  0  0  0  0  0  0  0  0  # atno 17343 bound_to 10162
  157.0728  131.0121  151.3184 LP  0  0  0  0  0  0  0  0  0  0  0  0  # atno 17370 bound_to 10713
  157.4986  130.7866  149.7581 LP  0  0  0  0  0  0  0  0  0  0  0  0  # atno 17371 bound_to 10713
  140.9591  133.7400  156.0376 LP  0  0  0  0  0  0  0  0  0  0  0  0  # atno 17394 bound_to 11000
  140.8012  134.3507  157.5439 LP  0  0  0  0  0  0  0  0  0  0  0  0  # atno 17395 bound_to 11000

$$$$
