AV-unprocessed.smi:101|AV-procd|sdf|913|dock7
  -GOLD-   2262017413D 1   1.00000     0.00000
 Structure written by MMmdl.
 44 46  0  0  0  0  0  0  0  0  1 V2000
  146.4746  136.4375  157.6208 C   0  0  0  0  0  0  0  0  0  0  0  0
  147.8712  136.4343  157.0200 C   0  0  0  0  0  0  0  0  0  0  0  0
  148.2431  137.2958  156.0389 C   0  0  0  0  0  0  0  0  0  0  0  0
  149.5115  137.3169  155.4653 N   0  0  0  0  0  0  0  0  0  0  0  0
  149.9121  138.3163  154.3899 C   0  0  2  0  0  0  0  0  0  0  0  0
  150.7378  139.2903  154.9532 O   0  0  0  0  0  0  0  0  0  0  0  0
  149.9420  140.4009  155.3478 C   0  0  1  0  0  0  0  0  0  0  0  0
  150.8172  141.6126  155.6899 C   0  0  0  0  0  0  0  0  0  0  0  0
  150.8211  141.7456  157.1010 O   0  0  0  0  0  0  0  0  0  0  0  0
  151.8034  141.2001  157.8383 C   0  0  0  0  0  0  0  0  0  0  0  0
  152.4489  140.2092  157.4913 O   0  0  0  0  0  0  0  0  0  0  0  0
  152.0253  141.9255  159.1226 C   0  0  0  0  0  0  0  0  0  0  0  0
  151.4595  143.2089  159.3024 C   0  0  0  0  0  0  0  0  0  0  0  0
  151.6549  143.9168  160.5045 C   0  0  0  0  0  0  0  0  0  0  0  0
  152.4190  143.3496  161.5412 C   0  0  0  0  0  0  0  0  0  0  0  0
  152.9877  142.0735  161.3747 C   0  0  0  0  0  0  0  0  0  0  0  0
  152.7930  141.3642  160.1738 C   0  0  0  0  0  0  0  0  0  0  0  0
  148.9959  140.5420  154.1559 C   0  0  1  0  0  0  0  0  0  0  0  0
  149.6428  141.2227  153.0922 O   0  0  0  0  0  0  0  0  0  0  0  0
  148.6818  139.0778  153.8348 C   0  0  1  0  0  0  0  0  0  0  0  0
  148.4548  138.8534  152.4559 O   0  0  0  0  0  0  0  0  0  0  0  0
  150.4990  136.4404  155.9628 C   0  0  0  0  0  0  0  0  0  0  0  0
  151.6581  136.4405  155.5501 O   0  0  0  0  0  0  0  0  0  0  0  0
  150.1153  135.5499  156.9633 N   0  0  0  0  0  0  0  0  0  0  0  0
  148.8445  135.4690  157.5363 C   0  0  0  0  0  0  0  0  0  0  0  0
  148.6239  134.6323  158.4102 O   0  0  0  0  0  0  0  0  0  0  0  0
  150.8178  134.9126  157.3088 H   0  0  0  0  0  0  0  0  0  0  0  0
  145.8397  137.2017  157.1715 H   0  0  0  0  0  0  0  0  0  0  0  0
  146.5217  136.6319  158.6927 H   0  0  0  0  0  0  0  0  0  0  0  0
  145.9919  135.4715  157.4687 H   0  0  0  0  0  0  0  0  0  0  0  0
  147.4948  137.9984  155.7050 H   0  0  0  0  0  0  0  0  0  0  0  0
  150.4669  137.7356  153.6504 H   0  0  0  0  0  0  0  0  0  0  0  0
  149.3488  140.1294  156.2235 H   0  0  0  0  0  0  0  0  0  0  0  0
  151.8303  141.4837  155.3064 H   0  0  0  0  0  0  0  0  0  0  0  0
  150.4007  142.5178  155.2461 H   0  0  0  0  0  0  0  0  0  0  0  0
  150.8696  143.6651  158.5202 H   0  0  0  0  0  0  0  0  0  0  0  0
  151.2181  144.8964  160.6307 H   0  0  0  0  0  0  0  0  0  0  0  0
  152.5686  143.8928  162.4626 H   0  0  0  0  0  0  0  0  0  0  0  0
  153.5748  141.6368  162.1692 H   0  0  0  0  0  0  0  0  0  0  0  0
  153.2442  140.3872  160.0797 H   0  0  0  0  0  0  0  0  0  0  0  0
  148.0950  141.0979  154.4179 H   0  0  0  0  0  0  0  0  0  0  0  0
  149.7692  140.6172  152.3780 H   0  0  0  0  0  0  0  0  0  0  0  0
  147.7902  138.7821  154.3899 H   0  0  0  0  0  0  0  0  0  0  0  0
  149.2047  139.1698  151.9752 H   0  0  0  0  0  0  0  0  0  0  0  0
  1  2  1  0  0  0  0
  1 28  1  0  0  0  0
  1 29  1  0  0  0  0
  1 30  1  0  0  0  0
  2 25  1  0  0  0  0
  2  3  2  0  0  0  0
  3  4  1  0  0  0  0
  3 31  1  0  0  0  0
  4  5  1  0  0  0  0
  4 22  1  0  0  0  0
  5 20  1  0  0  0  0
  5  6  1  0  0  0  0
  5 32  1  0  0  0  0
  6  7  1  0  0  0  0
  7  8  1  0  0  0  0
  7 18  1  0  0  0  0
  7 33  1  0  0  0  0
  8  9  1  0  0  0  0
  8 34  1  0  0  0  0
  8 35  1  0  0  0  0
  9 10  1  0  0  0  0
 10 11  2  0  0  0  0
 10 12  1  0  0  0  0
 12 17  1  0  0  0  0
 12 13  2  0  0  0  0
 13 14  1  0  0  0  0
 13 36  1  0  0  0  0
 14 15  2  0  0  0  0
 14 37  1  0  0  0  0
 15 16  1  0  0  0  0
 15 38  1  0  0  0  0
 16 17  2  0  0  0  0
 16 39  1  0  0  0  0
 17 40  1  0  0  0  0
 18 19  1  0  0  0  0
 18 20  1  0  0  0  0
 18 41  1  0  0  0  0
 19 42  1  0  0  0  0
 20 21  1  0  0  0  0
 20 43  1  0  0  0  0
 21 44  1  0  0  0  0
 22 23  2  0  0  0  0
 22 24  1  0  0  0  0
 24 27  1  0  0  0  0
 24 25  1  0  0  0  0
 25 26  2  0  0  0  0
M  END
> <s_m_source_file>
AV-unprocessed.smi

> <i_m_source_file_index>
101

> <i_lp_mmshare_version>
43012

> <i_f3d_flags>
0

> <s_epik_input>
Tz1jMVtuSF1jKD1PKW4oW2NIXWMxW0NIM10pW0NAQEhdMk9bQ0BIXShbQ0BASF0oW09IXSlbQ0BIXTJbT0hdKVtDSDJdT0MoPU8pYzNbY0hdW2NIXVtjSF1bY0hdW2NIXTM=

> <s_epik_cmdline>
J2VwaWtfcHl0aG9uJywgJy1waCcsICc3LjAnLCAnLXRuJywgJzgnLCAnLW1hJywgJzIwMCcsICctbWV0YWxfYmluZGluZycsICctaW1hZScsICc8aW5maWxlLm1hZT4nLCAnLW9tYWUnLCAnPG91dGZpbGUubWFlPic=

> <r_lp_tautomer_probability>
0.999537

> <r_epik_Ionization_Penalty>
0.00263537

> <r_epik_Ionization_Penalty_Charging>
0.00263428

> <r_epik_Ionization_Penalty_Neutral>
1.09111e-06

> <r_epik_State_Penalty>
0.00183335

> <r_epik_Charging_Adjusted_Penalty>
0.00446763

> <i_epik_Tot_Q>
0

> <i_epik_Tot_abs_Q>
0

> <r_epik_Metal_State_Penalty>
1.00528

> <b_epik_Metal_Only>
0

> <s_epik_Chemistry_Notes>
This compound has an ester and may undergo hydrolysis at high or low pH. This compound contains an acetal/aminal-like group ( X-CH(R)-Y where X, Y are N, S, or O) that may be acid/base labile, releasing an aldehyde.

> <s_lp_Force_Field>
OPLS_2005

> <r_lp_Energy>
35.8118

> <b_lp_Chiralities_Consistent>
1

> <s_lp_Variant>
AV-unprocessed.smi:101-1

> <Gold.Version>
5.8.1

> <Gold.Id.Protein>
6NUR|6NUR_protein|mol2

> <Gold.PLP.Fitness>
57.1502

> <Gold.PLP.PLP>
-43.7141

> <Gold.PLP.part.hbond>
-7.5106

> <Gold.PLP.part.metal>
0.0000

> <Gold.PLP.part.buried>
-7.6125

> <Gold.PLP.part.nonpolar>
-29.2006

> <Gold.PLP.part.repulsive>
0.3091

> <Gold.PLP.ligand.clash>
0.0000

> <Gold.PLP.ligand.torsion>
1.5365

> <Gold.PLP.Chemscore.Hbond>
5.4848

> <Gold.PLP.Chemscore.CHOScore>
0.0000

> <Gold.PLP.Chemscore.Metal>
0.0000

> <Gold.Chemscore.Hbonds>
donor molecule, donor type, donor heavy atom, donor atom, acceptor molecule, acceptor atom, score
      L1  H    19    42       P1  7957  0.54
      L1  H    21    44       P1  7957  0.25
      P1  H  6896  6909       L1    26  0.21
      P1  H  7989  7998       L1     6  0.03
      P1  H  7997  8010       L1    11  0.81
      P1  H  8011  8017       L1    19  0.57
      P1  H 10752 10763       L1    23  1.00

> <Gold.PLP.Chemscore.Internal.Correction>
0.0547

> <Gold.Rescore>
     Score         DG    S(hbond)    S(metal)    S(lipo)     H(rot)  DE(clash)    DE(int)     intcor
     22.44     -24.16       4.90        0.00      92.22       3.32       0.04       1.67       ----

> <Gold.Chemscore.Fitness>
22.4382

> <Gold.Chemscore.DG>
-24.1571

> <Gold.Chemscore.ZeroCoef>
-5.4800

> <Gold.Chemscore.Hbond>
4.9038

> <Gold.Chemscore.Metal>
0.0000

> <Gold.Chemscore.Lipo>
92.2248

> <Gold.Chemscore.Internal_Hbond>
0.0000

> <Gold.Chemscore.DEClash>
0.0446

> <Gold.Chemscore.DEInternal>
1.6742

> <Gold.Chemscore.Rot>
3.3172

> <Gold.Chemscore.Internal.Correction>
   9.000000E+99

> <Gold.Chemscore.Hbonds>
donor molecule, donor type, donor heavy atom, donor atom, acceptor molecule, acceptor atom, score
      L1  H    19    42       P1  7957  0.54
      L1  H    21    44       P1  7957  0.22
      P1  H  6896  6909       L1    26  0.13
      P1  H  7997  8010       L1    11  0.77
      P1  H  8011  8017       L1    19  0.08
      P1  H 10752 10763       L1    23  1.00

> <Gold.Chemscore.Hbond.Weighted>
-16.3788

> <Gold.Chemscore.Metal.Weighted>
-0.0000

> <Gold.Chemscore.Lipo.Weighted>
-10.7903

> <Gold.Chemscore.Internal_Hbond.Weighted>
0.0000

> <Gold.Chemscore.DEClash.Weighted>
0.0446

> <Gold.Chemscore.DEInternal.Weighted>
1.6742

> <Gold.Chemscore.Rot.Weighted>
8.4920

> <Gold.Chemscore.Internal.Correction.Weighted>
   9.000000E+99

> <Gold.Protein.RotatedTorsions>
[ 6907 6896 6895 6894 ] final   11.49 input  -60.11 | X-H torsion
[ 7974 7965 7964 7962 ] final -116.97 input  175.53 | X-H torsion
[ 8008 7997 7996 7995 ] final   58.87 input   59.86 | X-H torsion
[ 10167 10162 10161 10158 ] final  138.29 input  -65.29 | X-H torsion
[ 10718 10713 10712 10709 ] final   40.52 input   66.30 | X-H torsion
[ 10763 10752 10751 10750 ] final   60.15 input  -60.55 | X-H torsion
[ 11005 11000 10999 10996 ] final  162.46 input  -57.11 | X-H torsion

> <Gold.Protein.ActiveResidues>
 VAL166  LYS551  ARG553  GLY616  TRP617  ASP618  TYR619  PRO620  LYS621  CYS622 
 ASP623  PHE694  ASN695  SER759  ASP760  ASP761  ALA762  ILE779  LEU786  VAL792 
 PHE793  MET794  SER795  GLU796  ALA797  LYS798  CYS799  TRP800  GLU811  SER814 

> <Gold.Protein.RotatedAtoms>
  151.7552  135.0823  160.0336 H   0  0  0  0  0  0  0  0  0  0  0  0  # atno 6907 bound_to 6896
  152.3390  133.6040  159.5871 H   0  0  0  0  0  0  0  0  0  0  0  0  # atno 6908 bound_to 6896
  150.7467  133.9668  159.3574 H   0  0  0  0  0  0  0  0  0  0  0  0  # atno 6909 bound_to 6896
  145.0906  140.8487  143.3984 H   0  0  0  0  0  0  0  0  0  0  0  0  # atno 7974 bound_to 7965
  155.5571  140.3487  155.4482 H   0  0  0  0  0  0  0  0  0  0  0  0  # atno 8008 bound_to 7997
  156.0541  140.1324  157.0042 H   0  0  0  0  0  0  0  0  0  0  0  0  # atno 8009 bound_to 7997
  154.4448  140.0998  156.6405 H   0  0  0  0  0  0  0  0  0  0  0  0  # atno 8010 bound_to 7997
  139.5115  144.6361  151.5691 H   0  0  0  0  0  0  0  0  0  0  0  0  # atno 10167 bound_to 10162
  157.3831  130.7764  149.7209 H   0  0  0  0  0  0  0  0  0  0  0  0  # atno 10718 bound_to 10713
  152.9913  135.5546  154.5827 H   0  0  0  0  0  0  0  0  0  0  0  0  # atno 10763 bound_to 10752
  154.5205  135.2807  155.1268 H   0  0  0  0  0  0  0  0  0  0  0  0  # atno 10764 bound_to 10752
  154.2623  135.6378  153.5332 H   0  0  0  0  0  0  0  0  0  0  0  0  # atno 10765 bound_to 10752
  140.2260  134.8160  157.3268 H   0  0  0  0  0  0  0  0  0  0  0  0  # atno 11005 bound_to 11000
  145.1070  139.2783  143.5657 LP  0  0  0  0  0  0  0  0  0  0  0  0  # atno 17320 bound_to 7965
  146.3531  140.0654  142.8626 LP  0  0  0  0  0  0  0  0  0  0  0  0  # atno 17321 bound_to 7965
  140.6111  143.9434  150.6454 LP  0  0  0  0  0  0  0  0  0  0  0  0  # atno 17342 bound_to 10162
  140.2677  143.3478  152.1266 LP  0  0  0  0  0  0  0  0  0  0  0  0  # atno 17343 bound_to 10162
  155.9780  130.4056  150.3674 LP  0  0  0  0  0  0  0  0  0  0  0  0  # atno 17370 bound_to 10713
  157.1781  131.0385  151.2762 LP  0  0  0  0  0  0  0  0  0  0  0  0  # atno 17371 bound_to 10713
  140.1800  134.4501  155.7778 LP  0  0  0  0  0  0  0  0  0  0  0  0  # atno 17394 bound_to 11000
  141.2220  133.6979  156.7853 LP  0  0  0  0  0  0  0  0  0  0  0  0  # atno 17395 bound_to 11000

$$$$
