AV-unprocessed.smi:3232|AV-procd|sdf|12345|dock6
  -GOLD-   2272018203D 1   1.00000     0.00000
 Structure written by MMmdl.
 40 41  0  0  0  0  0  0  0  0  2 V2000
  146.9534  140.5140  152.9775 C   0  0  0  0  0  0  0  0  0  0  0  0
  147.9582  141.1954  153.9169 C   0  0  0  0  0  0  0  0  0  0  0  0
  149.2215  140.4267  154.0436 N   0  3  2  0  0  0  0  0  0  0  0  0
  149.0430  138.9882  154.3458 C   0  0  0  0  0  0  0  0  0  0  0  0
  150.3055  138.5378  155.0947 C   0  0  0  0  0  0  0  0  0  0  0  0
  151.2327  139.7520  155.0648 C   0  0  0  0  0  0  0  0  0  0  0  0
  150.2737  140.9448  154.9545 C   0  0  2  0  0  0  0  0  0  0  0  0
  149.7206  141.4237  156.3232 C   0  0  0  0  0  0  0  0  0  0  0  0
  150.6457  142.3292  156.9968 N   0  0  0  0  0  0  0  0  0  0  0  0
  151.1832  142.1301  158.2116 C   0  0  0  0  0  0  0  0  0  0  0  0
  150.8977  141.1654  158.9221 O   0  0  0  0  0  0  0  0  0  0  0  0
  152.2180  143.1694  158.6729 C   0  0  1  0  0  0  0  0  0  0  0  0
  151.7026  144.6191  158.5751 C   0  0  0  0  0  0  0  0  0  0  0  0
  152.6840  142.8522  160.0176 N   0  0  0  0  0  0  0  0  0  0  0  0
  153.3590  141.7914  160.4654 C   0  0  0  0  0  0  0  0  0  0  0  0
  153.5830  141.8082  161.7718 N   0  0  0  0  0  0  0  0  0  0  0  0
  152.9765  142.9894  162.0926 C   0  0  0  0  0  0  0  0  0  0  0  0
  152.4148  143.6506  161.0810 N   0  0  0  0  0  0  0  0  0  0  0  0
  146.0148  141.0681  152.9510 H   0  0  0  0  0  0  0  0  0  0  0  0
  146.7290  139.5000  153.3101 H   0  0  0  0  0  0  0  0  0  0  0  0
  147.3272  140.4566  151.9553 H   0  0  0  0  0  0  0  0  0  0  0  0
  148.1534  142.2205  153.6016 H   0  0  0  0  0  0  0  0  0  0  0  0
  147.5068  141.2670  154.9073 H   0  0  0  0  0  0  0  0  0  0  0  0
  148.1628  138.8290  154.9707 H   0  0  0  0  0  0  0  0  0  0  0  0
  148.9000  138.4316  153.4191 H   0  0  0  0  0  0  0  0  0  0  0  0
  150.0548  138.2875  156.1263 H   0  0  0  0  0  0  0  0  0  0  0  0
  150.7672  137.6585  154.6447 H   0  0  0  0  0  0  0  0  0  0  0  0
  151.9119  139.7888  155.9158 H   0  0  0  0  0  0  0  0  0  0  0  0
  151.8521  139.7066  154.1680 H   0  0  0  0  0  0  0  0  0  0  0  0
  150.7827  141.7810  154.4732 H   0  0  0  0  0  0  0  0  0  0  0  0
  148.7963  141.9839  156.1848 H   0  0  0  0  0  0  0  0  0  0  0  0
  149.4659  140.5728  156.9574 H   0  0  0  0  0  0  0  0  0  0  0  0
  150.9316  143.1510  156.4845 H   0  0  0  0  0  0  0  0  0  0  0  0
  153.0766  143.0840  158.0049 H   0  0  0  0  0  0  0  0  0  0  0  0
  151.4064  144.8640  157.5543 H   0  0  0  0  0  0  0  0  0  0  0  0
  152.4791  145.3268  158.8670 H   0  0  0  0  0  0  0  0  0  0  0  0
  150.8405  144.7918  159.2207 H   0  0  0  0  0  0  0  0  0  0  0  0
  153.6888  140.9875  159.8236 H   0  0  0  0  0  0  0  0  0  0  0  0
  152.9417  143.3700  163.1027 H   0  0  0  0  0  0  0  0  0  0  0  0
  149.6465  140.4422  153.1273 H   0  0  0  0  0  0  0  0  0  0  0  0
  1  2  1  0  0  0  0
  1 19  1  0  0  0  0
  1 20  1  0  0  0  0
  1 21  1  0  0  0  0
  2  3  1  0  0  0  0
  2 22  1  0  0  0  0
  2 23  1  0  0  0  0
  3  7  1  0  0  0  0
  3  4  1  0  0  0  0
  3 40  1  0  0  0  0
  4  5  1  0  0  0  0
  4 24  1  0  0  0  0
  4 25  1  0  0  0  0
  5  6  1  0  0  0  0
  5 26  1  0  0  0  0
  5 27  1  0  0  0  0
  6  7  1  0  0  0  0
  6 28  1  0  0  0  0
  6 29  1  0  0  0  0
  7  8  1  0  0  0  0
  7 30  1  0  0  0  0
  8  9  1  0  0  0  0
  8 31  1  0  0  0  0
  8 32  1  0  0  0  0
  9 10  1  0  0  0  0
  9 33  1  0  0  0  0
 10 11  2  0  0  0  0
 10 12  1  0  0  0  0
 12 13  1  0  0  0  0
 12 14  1  0  0  0  0
 12 34  1  0  0  0  0
 13 35  1  0  0  0  0
 13 36  1  0  0  0  0
 13 37  1  0  0  0  0
 14 18  1  0  0  0  0
 14 15  1  0  0  0  0
 15 16  2  0  0  0  0
 15 38  1  0  0  0  0
 16 17  1  0  0  0  0
 17 18  2  0  0  0  0
 17 39  1  0  0  0  0
M  CHG  1   3   1
M  END
> <s_m_source_file>
AV-unprocessed.smi

> <i_m_source_file_index>
3232

> <i_lp_mmshare_version>
43012

> <i_f3d_flags>
0

> <s_epik_input>
W0NIM11bQ0gyXU4xW0NIMl1bQ0gyXVtDSDJdW0NASF0xW0NIMl1bTkhdQyg9TylbQ0BIXShbQ0gzXSluMltjSF1uW2NIXW4y

> <s_epik_cmdline>
J2VwaWtfcHl0aG9uJywgJy1waCcsICc3LjAnLCAnLXRuJywgJzgnLCAnLW1hJywgJzIwMCcsICctbWV0YWxfYmluZGluZycsICctaW1hZScsICc8aW5maWxlLm1hZT4nLCAnLW9tYWUnLCAnPG91dGZpbGUubWFlPic=

> <r_lp_tautomer_probability>
1

> <r_epik_Ionization_Penalty>
0.00177695

> <r_epik_Ionization_Penalty_Charging>
0.00176881

> <r_epik_Ionization_Penalty_Neutral>
8.13528e-06

> <r_epik_State_Penalty>
0.00119827

> <r_epik_Charging_Adjusted_Penalty>
0.00296709

> <i_epik_Tot_Q>
1

> <i_epik_Tot_abs_Q>
1

> <r_epik_Metal_State_Penalty>
-0

> <b_epik_Metal_Only>
0

> <s_lp_Force_Field>
OPLS_2005

> <r_lp_Energy>
36.5981

> <b_lp_Chiralities_Consistent>
1

> <s_lp_Variant>
AV-unprocessed.smi:3232-7

> <Gold.Version>
5.8.1

> <Gold.Id.Protein>
6NUR|6NUR_protein|mol2

> <Gold.PLP.Fitness>
42.7657

> <Gold.PLP.PLP>
-40.5997

> <Gold.PLP.part.hbond>
-1.6069

> <Gold.PLP.part.metal>
0.0000

> <Gold.PLP.part.buried>
-2.4652

> <Gold.PLP.part.nonpolar>
-36.1271

> <Gold.PLP.part.repulsive>
0.3325

> <Gold.PLP.ligand.clash>
0.0000

> <Gold.PLP.ligand.torsion>
0.4693

> <Gold.PLP.Chemscore.Hbond>
0.9920

> <Gold.PLP.Chemscore.CHOScore>
0.0000

> <Gold.PLP.Chemscore.Metal>
0.0000

> <Gold.Chemscore.Hbonds>
donor molecule, donor type, donor heavy atom, donor atom, acceptor molecule, acceptor atom, score
      L1  H     3    40       P1  7957  1.00

> <Gold.PLP.Chemscore.Internal.Correction>
0.1287

> <Gold.Rescore>
     Score         DG    S(hbond)    S(metal)    S(lipo)     H(rot)  DE(clash)    DE(int)     intcor
      9.17     -10.73       0.96        0.00      72.04       2.49       0.86       0.70       ----

> <Gold.Chemscore.Fitness>
9.1724

> <Gold.Chemscore.DG>
-10.7322

> <Gold.Chemscore.ZeroCoef>
-5.4800

> <Gold.Chemscore.Hbond>
0.9560

> <Gold.Chemscore.Metal>
0.0000

> <Gold.Chemscore.Lipo>
72.0413

> <Gold.Chemscore.Internal_Hbond>
0.0000

> <Gold.Chemscore.DEClash>
0.8589

> <Gold.Chemscore.DEInternal>
0.7009

> <Gold.Chemscore.Rot>
2.4882

> <Gold.Chemscore.Internal.Correction>
   9.000000E+99

> <Gold.Chemscore.Hbonds>
donor molecule, donor type, donor heavy atom, donor atom, acceptor molecule, acceptor atom, score
      L1  H     3    40       P1  7957  0.92

> <Gold.Chemscore.Hbond.Weighted>
-3.1931

> <Gold.Chemscore.Metal.Weighted>
-0.0000

> <Gold.Chemscore.Lipo.Weighted>
-8.4288

> <Gold.Chemscore.Internal_Hbond.Weighted>
0.0000

> <Gold.Chemscore.DEClash.Weighted>
0.8589

> <Gold.Chemscore.DEInternal.Weighted>
0.7009

> <Gold.Chemscore.Rot.Weighted>
6.3697

> <Gold.Chemscore.Internal.Correction.Weighted>
   9.000000E+99

> <Gold.Protein.RotatedTorsions>
[ 6907 6896 6895 6894 ] final  106.48 input  -60.11 | X-H torsion
[ 7974 7965 7964 7962 ] final  117.83 input  175.53 | X-H torsion
[ 8008 7997 7996 7995 ] final -122.08 input   59.86 | X-H torsion
[ 10167 10162 10161 10158 ] final  105.01 input  -65.29 | X-H torsion
[ 10718 10713 10712 10709 ] final -146.71 input   66.30 | X-H torsion
[ 10763 10752 10751 10750 ] final  -96.26 input  -60.55 | X-H torsion
[ 11005 11000 10999 10996 ] final   89.40 input  -57.11 | X-H torsion

> <Gold.Protein.ActiveResidues>
 VAL166  LYS551  ARG553  GLY616  TRP617  ASP618  TYR619  PRO620  LYS621  CYS622 
 ASP623  PHE694  ASN695  SER759  ASP760  ASP761  ALA762  ILE779  LEU786  VAL792 
 PHE793  MET794  SER795  GLU796  ALA797  LYS798  CYS799  TRP800  GLU811  SER814 

> <Gold.Protein.RotatedAtoms>
  152.5192  133.9375  159.7609 H   0  0  0  0  0  0  0  0  0  0  0  0  # atno 6907 bound_to 6896
  150.9712  133.6334  159.2744 H   0  0  0  0  0  0  0  0  0  0  0  0  # atno 6908 bound_to 6896
  151.3545  135.0897  159.9467 H   0  0  0  0  0  0  0  0  0  0  0  0  # atno 6909 bound_to 6896
  145.1626  139.3146  143.4509 H   0  0  0  0  0  0  0  0  0  0  0  0  # atno 7974 bound_to 7965
  155.1584  140.0405  157.2837 H   0  0  0  0  0  0  0  0  0  0  0  0  # atno 8008 bound_to 7997
  154.6354  140.2534  155.7358 H   0  0  0  0  0  0  0  0  0  0  0  0  # atno 8009 bound_to 7997
  156.2506  140.2867  156.0724 H   0  0  0  0  0  0  0  0  0  0  0  0  # atno 8010 bound_to 7997
  139.7128  144.7074  151.0999 H   0  0  0  0  0  0  0  0  0  0  0  0  # atno 10167 bound_to 10162
  156.3983  130.7921  151.2129 H   0  0  0  0  0  0  0  0  0  0  0  0  # atno 10718 bound_to 10713
  154.7223  135.5090  153.8832 H   0  0  0  0  0  0  0  0  0  0  0  0  # atno 10763 bound_to 10752
  153.0874  135.6649  153.9931 H   0  0  0  0  0  0  0  0  0  0  0  0  # atno 10764 bound_to 10752
  153.9751  135.3034  155.3404 H   0  0  0  0  0  0  0  0  0  0  0  0  # atno 10765 bound_to 10752
  139.8876  134.8549  156.3136 H   0  0  0  0  0  0  0  0  0  0  0  0  # atno 11005 bound_to 11000
  146.3480  140.1742  142.8589 LP  0  0  0  0  0  0  0  0  0  0  0  0  # atno 17320 bound_to 7965
  145.0315  140.8875  143.5106 LP  0  0  0  0  0  0  0  0  0  0  0  0  # atno 17321 bound_to 7965
  140.7737  143.5270  150.9469 LP  0  0  0  0  0  0  0  0  0  0  0  0  # atno 17342 bound_to 10162
  139.8955  143.6900  152.3139 LP  0  0  0  0  0  0  0  0  0  0  0  0  # atno 17343 bound_to 10162
  157.7502  131.0294  150.4093 LP  0  0  0  0  0  0  0  0  0  0  0  0  # atno 17370 bound_to 10713
  156.4368  130.3983  149.6724 LP  0  0  0  0  0  0  0  0  0  0  0  0  # atno 17371 bound_to 10713
  140.9833  133.7253  156.0705 LP  0  0  0  0  0  0  0  0  0  0  0  0  # atno 17394 bound_to 11000
  140.7720  134.3822  157.5505 LP  0  0  0  0  0  0  0  0  0  0  0  0  # atno 17395 bound_to 11000

$$$$
