AV-unprocessed.smi:2160|AV-procd|sdf|8800|dock3
  -GOLD-   2272011583D 1   1.00000     0.00000
 Structure written by MMmdl.
 44 46  0  0  0  0  0  0  0  0  2 V2000
  154.0072  138.4547  154.4587 C   0  0  0  0  0  0  0  0  0  0  0  0
  153.2632  139.2468  155.3730 O   0  0  0  0  0  0  0  0  0  0  0  0
  151.9052  139.3679  155.1697 C   0  0  0  0  0  0  0  0  0  0  0  0
  151.1417  138.4978  154.3518 C   0  0  0  0  0  0  0  0  0  0  0  0
  149.7555  138.6949  154.2002 C   0  0  0  0  0  0  0  0  0  0  0  0
  149.1076  139.7568  154.8622 C   0  0  0  0  0  0  0  0  0  0  0  0
  147.6154  139.9589  154.6676 C   0  0  0  0  0  0  0  0  0  0  0  0
  146.9929  138.8708  154.0020 O   0  0  0  0  0  0  0  0  0  0  0  0
  147.0149  139.0070  152.5906 C   0  0  0  0  0  0  0  0  0  0  0  0
  145.9566  138.0774  151.9759 C   0  0  1  0  0  0  0  0  0  0  0  0
  146.3105  137.8242  150.6300 O   0  0  0  0  0  0  0  0  0  0  0  0
  145.8557  136.7394  152.7355 C   0  0  0  0  0  0  0  0  0  0  0  0
  145.1031  135.7184  151.9916 N   0  0  0  0  0  0  0  0  0  0  0  0
  143.9184  135.8273  151.3314 C   0  0  0  0  0  0  0  0  0  0  0  0
  143.6323  134.6095  150.7938 N   0  3  0  0  0  0  0  0  0  0  0  0
  144.6494  133.7079  151.1135 C   0  0  0  0  0  0  0  0  0  0  0  0
  144.8065  132.3629  150.7934 C   0  0  0  0  0  0  0  0  0  0  0  0
  145.9697  131.7291  151.2767 C   0  0  0  0  0  0  0  0  0  0  0  0
  146.9222  132.4295  152.0448 C   0  0  0  0  0  0  0  0  0  0  0  0
  146.7525  133.7929  152.3637 C   0  0  0  0  0  0  0  0  0  0  0  0
  145.5990  134.4131  151.8835 C   0  0  0  0  0  0  0  0  0  0  0  0
  149.8645  140.6306  155.6706 C   0  0  0  0  0  0  0  0  0  0  0  0
  151.2502  140.4319  155.8230 C   0  0  0  0  0  0  0  0  0  0  0  0
  155.0572  138.4577  154.7508 H   0  0  0  0  0  0  0  0  0  0  0  0
  153.9463  138.8530  153.4450 H   0  0  0  0  0  0  0  0  0  0  0  0
  153.6680  137.4180  154.4612 H   0  0  0  0  0  0  0  0  0  0  0  0
  151.5959  137.6710  153.8273 H   0  0  0  0  0  0  0  0  0  0  0  0
  149.1884  138.0253  153.5703 H   0  0  0  0  0  0  0  0  0  0  0  0
  147.1597  140.1011  155.6486 H   0  0  0  0  0  0  0  0  0  0  0  0
  147.4568  140.8759  154.0977 H   0  0  0  0  0  0  0  0  0  0  0  0
  146.8528  140.0422  152.2845 H   0  0  0  0  0  0  0  0  0  0  0  0
  148.0069  138.7192  152.2389 H   0  0  0  0  0  0  0  0  0  0  0  0
  144.9819  138.5672  151.9964 H   0  0  0  0  0  0  0  0  0  0  0  0
  145.5523  137.9735  150.0866 H   0  0  0  0  0  0  0  0  0  0  0  0
  146.8423  136.3524  152.9906 H   0  0  0  0  0  0  0  0  0  0  0  0
  145.3352  136.8898  153.6821 H   0  0  0  0  0  0  0  0  0  0  0  0
  143.3157  136.7201  151.2463 H   0  0  0  0  0  0  0  0  0  0  0  0
  144.0792  131.8249  150.2032 H   0  0  0  0  0  0  0  0  0  0  0  0
  146.1355  130.6851  151.0529 H   0  0  0  0  0  0  0  0  0  0  0  0
  147.8025  131.9109  152.3961 H   0  0  0  0  0  0  0  0  0  0  0  0
  147.4922  134.3173  152.9494 H   0  0  0  0  0  0  0  0  0  0  0  0
  149.3916  141.4585  156.1783 H   0  0  0  0  0  0  0  0  0  0  0  0
  151.8177  141.1066  156.4472 H   0  0  0  0  0  0  0  0  0  0  0  0
  142.8039  134.4117  150.2472 H   0  0  0  0  0  0  0  0  0  0  0  0
  1  2  1  0  0  0  0
  1 24  1  0  0  0  0
  1 25  1  0  0  0  0
  1 26  1  0  0  0  0
  2  3  1  0  0  0  0
  3 23  1  0  0  0  0
  3  4  2  0  0  0  0
  4  5  1  0  0  0  0
  4 27  1  0  0  0  0
  5  6  2  0  0  0  0
  5 28  1  0  0  0  0
  6  7  1  0  0  0  0
  6 22  1  0  0  0  0
  7  8  1  0  0  0  0
  7 29  1  0  0  0  0
  7 30  1  0  0  0  0
  8  9  1  0  0  0  0
  9 10  1  0  0  0  0
  9 31  1  0  0  0  0
  9 32  1  0  0  0  0
 10 11  1  0  0  0  0
 10 12  1  0  0  0  0
 10 33  1  0  0  0  0
 11 34  1  0  0  0  0
 12 13  1  0  0  0  0
 12 35  1  0  0  0  0
 12 36  1  0  0  0  0
 13 21  1  0  0  0  0
 13 14  1  0  0  0  0
 14 15  2  0  0  0  0
 14 37  1  0  0  0  0
 15 16  1  0  0  0  0
 15 44  1  0  0  0  0
 16 21  2  0  0  0  0
 16 17  1  0  0  0  0
 17 18  2  0  0  0  0
 17 38  1  0  0  0  0
 18 19  1  0  0  0  0
 18 39  1  0  0  0  0
 19 20  2  0  0  0  0
 19 40  1  0  0  0  0
 20 21  1  0  0  0  0
 20 41  1  0  0  0  0
 22 23  2  0  0  0  0
 22 42  1  0  0  0  0
 23 43  1  0  0  0  0
M  CHG  1  15   1
M  END
> <s_m_source_file>
AV-unprocessed.smi

> <i_m_source_file_index>
2160

> <i_lp_mmshare_version>
43012

> <i_f3d_flags>
0

> <s_epik_input>
W0NIM11PYzFbY0hdW2NIXWMoW2NIXVtjSF0xKVtDSDJdT1tDSDJdW0NASF0oW09IXSlbQ0gyXW4oW2NIXW4yKWMoYzIzKVtjSF1bY0hdW2NIXVtjSF0z

> <s_epik_cmdline>
J2VwaWtfcHl0aG9uJywgJy1waCcsICc3LjAnLCAnLXRuJywgJzgnLCAnLW1hJywgJzIwMCcsICctbWV0YWxfYmluZGluZycsICctaW1hZScsICc8aW5maWxlLm1hZT4nLCAnLW9tYWUnLCAnPG91dGZpbGUubWFlPic=

> <r_lp_tautomer_probability>
1

> <r_epik_Ionization_Penalty>
1.28975

> <r_epik_Ionization_Penalty_Charging>
1.28975

> <r_epik_Ionization_Penalty_Neutral>
9.74819e-07

> <r_epik_State_Penalty>
1.36276

> <r_epik_Charging_Adjusted_Penalty>
2.65251

> <i_epik_Tot_Q>
1

> <i_epik_Tot_abs_Q>
1

> <r_epik_Metal_State_Penalty>
5.39298

> <b_epik_Metal_Only>
0

> <s_lp_Force_Field>
OPLS_2005

> <r_lp_Energy>
25.2455

> <b_lp_Chiralities_Consistent>
1

> <s_lp_Variant>
AV-unprocessed.smi:2160-4

> <Gold.Version>
5.8.1

> <Gold.Id.Protein>
6NUR|6NUR_protein|mol2

> <Gold.PLP.Fitness>
59.2977

> <Gold.PLP.PLP>
-43.5301

> <Gold.PLP.part.hbond>
-4.6051

> <Gold.PLP.part.metal>
0.0000

> <Gold.PLP.part.buried>
1.0705

> <Gold.PLP.part.nonpolar>
-40.5911

> <Gold.PLP.part.repulsive>
0.1760

> <Gold.PLP.ligand.clash>
0.0000

> <Gold.PLP.ligand.torsion>
1.0838

> <Gold.PLP.Chemscore.Hbond>
4.9200

> <Gold.PLP.Chemscore.CHOScore>
1.0000

> <Gold.PLP.Chemscore.Metal>
0.0000

> <Gold.Chemscore.Hbonds>
donor molecule, donor type, donor heavy atom, donor atom, acceptor molecule, acceptor atom, score
      L1  H    11    34       P1 10171  1.00
      L1  H    15    44       P1 10186  2.00
      P1  H  7954  7966       L1    11  0.98
      P1  H  7997  8010       L1     2  1.00
      L1  C    14    37       P1 10171  0.89

> <Gold.PLP.Chemscore.Internal.Correction>
0.1753

> <Gold.Rescore>
     Score         DG    S(hbond)    S(metal)    S(lipo)     H(rot)  DE(clash)    DE(int)     intcor
     20.38     -22.86       3.57        0.00     106.72       2.74       1.69       0.79       ----

> <Gold.Chemscore.Fitness>
20.3817

> <Gold.Chemscore.DG>
-22.8627

> <Gold.Chemscore.ZeroCoef>
-5.4800

> <Gold.Chemscore.Hbond>
3.5654

> <Gold.Chemscore.Metal>
0.0000

> <Gold.Chemscore.Lipo>
106.7188

> <Gold.Chemscore.Internal_Hbond>
0.0000

> <Gold.Chemscore.DEClash>
1.6873

> <Gold.Chemscore.DEInternal>
0.7936

> <Gold.Chemscore.Rot>
2.7390

> <Gold.Chemscore.Internal.Correction>
   9.000000E+99

> <Gold.Chemscore.Hbonds>
donor molecule, donor type, donor heavy atom, donor atom, acceptor molecule, acceptor atom, score
      L1  H    11    34       P1 10171  0.97
      L1  H    15    44       P1 10186  0.78
      P1  H  7954  7966       L1    11  0.89
      P1  H  7997  8010       L1     2  0.57

> <Gold.Chemscore.Hbond.Weighted>
-11.9084

> <Gold.Chemscore.Metal.Weighted>
-0.0000

> <Gold.Chemscore.Lipo.Weighted>
-12.4861

> <Gold.Chemscore.Internal_Hbond.Weighted>
0.0000

> <Gold.Chemscore.DEClash.Weighted>
1.6873

> <Gold.Chemscore.DEInternal.Weighted>
0.7936

> <Gold.Chemscore.Rot.Weighted>
7.0118

> <Gold.Chemscore.Internal.Correction.Weighted>
   9.000000E+99

> <Gold.Protein.RotatedTorsions>
[ 6907 6896 6895 6894 ] final  -96.44 input  -60.11 | X-H torsion
[ 7974 7965 7964 7962 ] final   -1.97 input  175.53 | X-H torsion
[ 8008 7997 7996 7995 ] final   80.69 input   59.86 | X-H torsion
[ 10167 10162 10161 10158 ] final -139.61 input  -65.29 | X-H torsion
[ 10718 10713 10712 10709 ] final  -95.87 input   66.30 | X-H torsion
[ 10763 10752 10751 10750 ] final  151.61 input  -60.55 | X-H torsion
[ 11005 11000 10999 10996 ] final -134.20 input  -57.11 | X-H torsion

> <Gold.Protein.ActiveResidues>
 VAL166  LYS551  ARG553  GLY616  TRP617  ASP618  TYR619  PRO620  LYS621  CYS622 
 ASP623  PHE694  ASN695  SER759  ASP760  ASP761  ALA762  ILE779  LEU786  VAL792 
 PHE793  MET794  SER795  GLU796  ALA797  LYS798  CYS799  TRP800  GLU811  SER814 

> <Gold.Protein.RotatedAtoms>
  150.6989  134.1503  159.4137 H   0  0  0  0  0  0  0  0  0  0  0  0  # atno 6907 bound_to 6896
  151.9486  135.0177  160.0550 H   0  0  0  0  0  0  0  0  0  0  0  0  # atno 6908 bound_to 6896
  152.2031  133.4820  159.5106 H   0  0  0  0  0  0  0  0  0  0  0  0  # atno 6909 bound_to 6896
  146.2410  140.1500  142.8334 H   0  0  0  0  0  0  0  0  0  0  0  0  # atno 7974 bound_to 7965
  155.8870  140.3441  155.5928 H   0  0  0  0  0  0  0  0  0  0  0  0  # atno 8008 bound_to 7997
  155.7655  140.0838  157.2153 H   0  0  0  0  0  0  0  0  0  0  0  0  # atno 8009 bound_to 7997
  154.4029  140.1528  156.2869 H   0  0  0  0  0  0  0  0  0  0  0  0  # atno 8010 bound_to 7997
  139.8362  143.7382  152.2665 H   0  0  0  0  0  0  0  0  0  0  0  0  # atno 10167 bound_to 10162
  156.0051  130.5127  150.6141 H   0  0  0  0  0  0  0  0  0  0  0  0  # atno 10718 bound_to 10713
  154.1065  135.2842  155.3240 H   0  0  0  0  0  0  0  0  0  0  0  0  # atno 10763 bound_to 10752
  154.6519  135.5366  153.7915 H   0  0  0  0  0  0  0  0  0  0  0  0  # atno 10764 bound_to 10752
  153.0360  135.6512  154.1226 H   0  0  0  0  0  0  0  0  0  0  0  0  # atno 10765 bound_to 10752
  140.9011  134.1689  157.4459 H   0  0  0  0  0  0  0  0  0  0  0  0  # atno 11005 bound_to 11000
  145.0175  140.8766  143.5186 LP  0  0  0  0  0  0  0  0  0  0  0  0  # atno 17320 bound_to 7965
  145.1543  139.2495  143.5424 LP  0  0  0  0  0  0  0  0  0  0  0  0  # atno 17321 bound_to 7965
  139.7604  144.7508  151.0372 LP  0  0  0  0  0  0  0  0  0  0  0  0  # atno 17342 bound_to 10162
  140.7802  143.4757  151.0086 LP  0  0  0  0  0  0  0  0  0  0  0  0  # atno 17343 bound_to 10162
  157.3969  131.0804  151.1344 LP  0  0  0  0  0  0  0  0  0  0  0  0  # atno 17370 bound_to 10713
  157.2018  130.6398  149.5741 LP  0  0  0  0  0  0  0  0  0  0  0  0  # atno 17371 bound_to 10713
  139.8742  134.9898  156.5475 LP  0  0  0  0  0  0  0  0  0  0  0  0  # atno 17394 bound_to 11000
  140.8228  133.8340  155.8911 LP  0  0  0  0  0  0  0  0  0  0  0  0  # atno 17395 bound_to 11000

$$$$
