AV-unprocessed.smi:1381|AV-procd|sdf|5617|dock7
  -GOLD-   22720 5233D 1   1.00000     0.00000
 Structure written by MMmdl.
 42 43  0  0  0  0  0  0  0  0  3 V2000
  153.2558  142.4752  160.0727 C   0  0  0  0  0  0  0  0  0  0  0  0
  152.3332  142.5301  158.9040 C   0  0  0  0  0  0  0  0  0  0  0  0
  151.4753  141.6205  158.3536 C   0  0  0  0  0  0  0  0  0  0  0  0
  150.9103  142.3316  157.2614 C   0  0  0  0  0  0  0  0  0  0  0  0
  149.9459  141.7160  156.4206 N   0  0  0  0  0  0  0  0  0  0  0  0
  150.1109  140.7111  155.5412 C   0  0  0  0  0  0  0  0  0  0  0  0
  151.2221  140.1894  155.3898 O   0  0  0  0  0  0  0  0  0  0  0  0
  148.9515  140.3932  154.9027 N   0  5  0  0  0  0  0  0  0  0  0  0
  148.8043  139.2989  153.9464 C   0  0  0  0  0  0  0  0  0  0  0  0
  147.3305  139.1897  153.5104 C   0  0  0  0  0  0  0  0  0  0  0  0
  146.8716  137.7769  153.4395 N   0  3  1  0  0  0  0  0  0  0  0  0
  146.3414  137.2779  154.7313 C   0  0  0  0  0  0  0  0  0  0  0  0
  145.9564  135.7882  154.6376 C   0  0  2  0  0  0  0  0  0  0  0  0
  147.1688  134.8409  154.6036 C   0  0  0  0  0  0  0  0  0  0  0  0
  145.0719  135.5730  153.5376 O   0  0  0  0  0  0  0  0  0  0  0  0
  145.5679  136.0134  152.2759 C   0  0  1  0  0  0  0  0  0  0  0  0
  144.5017  135.7100  151.2180 C   0  0  0  0  0  0  0  0  0  0  0  0
  145.8943  137.5150  152.3519 C   0  0  0  0  0  0  0  0  0  0  0  0
  151.3826  143.5649  157.1554 N   0  0  0  0  0  0  0  0  0  0  0  0
  152.2964  143.6985  158.2075 O   0  0  0  0  0  0  0  0  0  0  0  0
  153.1906  141.5098  160.5751 H   0  0  0  0  0  0  0  0  0  0  0  0
  153.0078  143.2509  160.7974 H   0  0  0  0  0  0  0  0  0  0  0  0
  154.2885  142.6229  159.7566 H   0  0  0  0  0  0  0  0  0  0  0  0
  151.2831  140.6096  158.6808 H   0  0  0  0  0  0  0  0  0  0  0  0
  149.0095  142.0852  156.4908 H   0  0  0  0  0  0  0  0  0  0  0  0
  149.4236  139.4460  153.0607 H   0  0  0  0  0  0  0  0  0  0  0  0
  149.1177  138.3462  154.3751 H   0  0  0  0  0  0  0  0  0  0  0  0
  146.7248  139.7338  154.2372 H   0  0  0  0  0  0  0  0  0  0  0  0
  147.1665  139.6852  152.5519 H   0  0  0  0  0  0  0  0  0  0  0  0
  147.0800  137.4198  155.5214 H   0  0  0  0  0  0  0  0  0  0  0  0
  145.4663  137.8689  155.0063 H   0  0  0  0  0  0  0  0  0  0  0  0
  145.3880  135.5368  155.5337 H   0  0  0  0  0  0  0  0  0  0  0  0
  147.7548  134.9322  155.5184 H   0  0  0  0  0  0  0  0  0  0  0  0
  147.8375  135.0526  153.7697 H   0  0  0  0  0  0  0  0  0  0  0  0
  146.8482  133.8022  154.5210 H   0  0  0  0  0  0  0  0  0  0  0  0
  146.4673  135.4547  152.0168 H   0  0  0  0  0  0  0  0  0  0  0  0
  144.8372  136.0113  150.2254 H   0  0  0  0  0  0  0  0  0  0  0  0
  143.5713  136.2372  151.4310 H   0  0  0  0  0  0  0  0  0  0  0  0
  144.2798  134.6431  151.1839 H   0  0  0  0  0  0  0  0  0  0  0  0
  144.9852  138.0908  152.5334 H   0  0  0  0  0  0  0  0  0  0  0  0
  146.2955  137.8491  151.3945 H   0  0  0  0  0  0  0  0  0  0  0  0
  147.6959  137.2278  153.2410 H   0  0  0  0  0  0  0  0  0  0  0  0
  1  2  1  0  0  0  0
  1 21  1  0  0  0  0
  1 22  1  0  0  0  0
  1 23  1  0  0  0  0
  2 20  1  0  0  0  0
  2  3  2  0  0  0  0
  3  4  1  0  0  0  0
  3 24  1  0  0  0  0
  4  5  1  0  0  0  0
  4 19  2  0  0  0  0
  5  6  1  0  0  0  0
  5 25  1  0  0  0  0
  6  7  2  0  0  0  0
  6  8  1  0  0  0  0
  8  9  1  0  0  0  0
  9 10  1  0  0  0  0
  9 26  1  0  0  0  0
  9 27  1  0  0  0  0
 10 11  1  0  0  0  0
 10 28  1  0  0  0  0
 10 29  1  0  0  0  0
 11 18  1  0  0  0  0
 11 12  1  0  0  0  0
 11 42  1  0  0  0  0
 12 13  1  0  0  0  0
 12 30  1  0  0  0  0
 12 31  1  0  0  0  0
 13 14  1  0  0  0  0
 13 15  1  0  0  0  0
 13 32  1  0  0  0  0
 14 33  1  0  0  0  0
 14 34  1  0  0  0  0
 14 35  1  0  0  0  0
 15 16  1  0  0  0  0
 16 17  1  0  0  0  0
 16 18  1  0  0  0  0
 16 36  1  0  0  0  0
 17 37  1  0  0  0  0
 17 38  1  0  0  0  0
 17 39  1  0  0  0  0
 18 40  1  0  0  0  0
 18 41  1  0  0  0  0
 19 20  1  0  0  0  0
M  CHG  1   8  -1
M  CHG  1  11   1
M  END
> <s_m_source_file>
AV-unprocessed.smi

> <i_m_source_file_index>
1381

> <i_lp_mmshare_version>
43012

> <i_f3d_flags>
0

> <s_epik_input>
W0NIM11jMVtjSF1jKG5vMSlbTkhdQyg9TylbTkhdW0NIMl1bQ0gyXU4yW0NIMl1bQ0BASF0oW0NIM10pT1tDQEBIXShbQ0gzXSlbQ0gyXTI=

> <s_epik_cmdline>
J2VwaWtfcHl0aG9uJywgJy1waCcsICc3LjAnLCAnLXRuJywgJzgnLCAnLW1hJywgJzIwMCcsICctbWV0YWxfYmluZGluZycsICctaW1hZScsICc8aW5maWxlLm1hZT4nLCAnLW9tYWUnLCAnPG91dGZpbGUubWFlPic=

> <r_epik_Ionization_Penalty>
6.8073

> <r_epik_Ionization_Penalty_Charging>
6.80729

> <r_epik_Ionization_Penalty_Neutral>
5.65391e-06

> <r_epik_State_Penalty>
7.47323

> <r_epik_Charging_Adjusted_Penalty>
14.2805

> <i_epik_Tot_Q>
0

> <i_epik_Tot_abs_Q>
2

> <r_epik_Metal_State_Penalty>
3.40035

> <b_epik_Metal_Only>
1

> <s_lp_Force_Field>
OPLS_2005

> <r_lp_Energy>
15.0618

> <b_lp_Chiralities_Consistent>
1

> <s_lp_Variant>
AV-unprocessed.smi:1381-16

> <Gold.Version>
5.8.1

> <Gold.Id.Protein>
6NUR|6NUR_protein|mol2

> <Gold.PLP.Fitness>
34.0883

> <Gold.PLP.PLP>
-27.7620

> <Gold.PLP.part.hbond>
-2.0000

> <Gold.PLP.part.metal>
0.0000

> <Gold.PLP.part.buried>
-2.9420

> <Gold.PLP.part.nonpolar>
-23.8135

> <Gold.PLP.part.repulsive>
0.4154

> <Gold.PLP.ligand.clash>
0.0000

> <Gold.PLP.ligand.torsion>
1.3647

> <Gold.PLP.Chemscore.Hbond>
3.0000

> <Gold.PLP.Chemscore.CHOScore>
0.0000

> <Gold.PLP.Chemscore.Metal>
0.0000

> <Gold.Chemscore.Hbonds>
donor molecule, donor type, donor heavy atom, donor atom, acceptor molecule, acceptor atom, score
      L1  H    11    42       P1  7948  1.59
      P1  H  7989  7998       L1     7  0.91

> <Gold.PLP.Chemscore.Internal.Correction>
0.0557

> <Gold.Rescore>
     Score         DG    S(hbond)    S(metal)    S(lipo)     H(rot)  DE(clash)    DE(int)     intcor
     13.28     -14.84       1.91        0.00      60.10       1.58       0.17       1.38       ----

> <Gold.Chemscore.Fitness>
13.2837

> <Gold.Chemscore.DG>
-14.8362

> <Gold.Chemscore.ZeroCoef>
-5.4800

> <Gold.Chemscore.Hbond>
1.9065

> <Gold.Chemscore.Metal>
0.0000

> <Gold.Chemscore.Lipo>
60.0971

> <Gold.Chemscore.Internal_Hbond>
0.0000

> <Gold.Chemscore.DEClash>
0.1695

> <Gold.Chemscore.DEInternal>
1.3830

> <Gold.Chemscore.Rot>
1.5792

> <Gold.Chemscore.Internal.Correction>
   9.000000E+99

> <Gold.Chemscore.Hbonds>
donor molecule, donor type, donor heavy atom, donor atom, acceptor molecule, acceptor atom, score
      L1  H    11    42       P1  7948  0.74
      P1  H  7989  7998       L1     7  0.19

> <Gold.Chemscore.Hbond.Weighted>
-6.3677

> <Gold.Chemscore.Metal.Weighted>
-0.0000

> <Gold.Chemscore.Lipo.Weighted>
-7.0314

> <Gold.Chemscore.Internal_Hbond.Weighted>
0.0000

> <Gold.Chemscore.DEClash.Weighted>
0.1695

> <Gold.Chemscore.DEInternal.Weighted>
1.3830

> <Gold.Chemscore.Rot.Weighted>
4.0428

> <Gold.Chemscore.Internal.Correction.Weighted>
   9.000000E+99

> <Gold.Protein.RotatedTorsions>
[ 6907 6896 6895 6894 ] final -108.05 input  -60.11 | X-H torsion
[ 7974 7965 7964 7962 ] final  -71.31 input  175.53 | X-H torsion
[ 8008 7997 7996 7995 ] final  150.21 input   59.86 | X-H torsion
[ 10167 10162 10161 10158 ] final   24.48 input  -65.29 | X-H torsion
[ 10718 10713 10712 10709 ] final -105.38 input   66.30 | X-H torsion
[ 10763 10752 10751 10750 ] final -106.67 input  -60.55 | X-H torsion
[ 11005 11000 10999 10996 ] final  -40.02 input  -57.11 | X-H torsion

> <Gold.Protein.ActiveResidues>
 VAL166  LYS551  ARG553  GLY616  TRP617  ASP618  TYR619  PRO620  LYS621  CYS622 
 ASP623  PHE694  ASN695  SER759  ASP760  ASP761  ALA762  ILE779  LEU786  VAL792 
 PHE793  MET794  SER795  GLU796  ALA797  LYS798  CYS799  TRP800  GLU811  SER814 

> <Gold.Protein.RotatedAtoms>
  150.7479  133.9734  159.3552 H   0  0  0  0  0  0  0  0  0  0  0  0  # atno 6907 bound_to 6896
  151.7670  135.0794  160.0363 H   0  0  0  0  0  0  0  0  0  0  0  0  # atno 6908 bound_to 6896
  152.3365  133.5980  159.5882 H   0  0  0  0  0  0  0  0  0  0  0  0  # atno 6909 bound_to 6896
  145.6798  140.9192  143.0838 H   0  0  0  0  0  0  0  0  0  0  0  0  # atno 7974 bound_to 7965
  156.2725  140.2081  156.5981 H   0  0  0  0  0  0  0  0  0  0  0  0  # atno 8008 bound_to 7997
  154.6928  140.0528  157.0404 H   0  0  0  0  0  0  0  0  0  0  0  0  # atno 8009 bound_to 7997
  155.0842  140.3190  155.4595 H   0  0  0  0  0  0  0  0  0  0  0  0  # atno 8010 bound_to 7997
  140.5184  144.0043  150.6405 H   0  0  0  0  0  0  0  0  0  0  0  0  # atno 10167 bound_to 10162
  156.0344  130.5561  150.7531 H   0  0  0  0  0  0  0  0  0  0  0  0  # atno 10718 bound_to 10713
  154.8027  135.4703  154.0315 H   0  0  0  0  0  0  0  0  0  0  0  0  # atno 10763 bound_to 10752
  153.1808  135.6840  153.8487 H   0  0  0  0  0  0  0  0  0  0  0  0  # atno 10764 bound_to 10752
  153.8038  135.3226  155.3371 H   0  0  0  0  0  0  0  0  0  0  0  0  # atno 10765 bound_to 10752
  141.0144  133.6892  156.2265 H   0  0  0  0  0  0  0  0  0  0  0  0  # atno 11005 bound_to 11000
  144.7030  139.8681  143.7438 LP  0  0  0  0  0  0  0  0  0  0  0  0  # atno 17320 bound_to 7965
  146.0974  139.3967  143.0368 LP  0  0  0  0  0  0  0  0  0  0  0  0  # atno 17321 bound_to 7965
  140.3385  143.3034  152.0613 LP  0  0  0  0  0  0  0  0  0  0  0  0  # atno 17342 bound_to 10162
  139.4916  144.6459  151.6779 LP  0  0  0  0  0  0  0  0  0  0  0  0  # atno 17343 bound_to 10162
  157.5070  131.0923  151.0245 LP  0  0  0  0  0  0  0  0  0  0  0  0  # atno 17370 bound_to 10713
  157.0610  130.5825  149.5386 LP  0  0  0  0  0  0  0  0  0  0  0  0  # atno 17371 bound_to 10713
  140.6679  134.4899  157.5586 LP  0  0  0  0  0  0  0  0  0  0  0  0  # atno 17394 bound_to 11000
  139.9108  134.8348  156.1534 LP  0  0  0  0  0  0  0  0  0  0  0  0  # atno 17395 bound_to 11000

$$$$
