AV-unprocessed.smi:1570|AV-procd|sdf|6320|dock5
  -GOLD-   22720 6523D 1   1.00000     0.00000
 Structure written by MMmdl.
 52 54  0  0  0  0  0  0  0  0  2 V2000
  154.8476  139.4724  159.8217 C   0  0  0  0  0  0  0  0  0  0  0  0
  153.4967  139.9756  160.3467 C   0  0  0  0  0  0  0  0  0  0  0  0
  152.6450  140.4375  159.2537 N   0  0  0  0  0  0  0  0  0  0  0  0
  152.1363  139.6795  158.2541 C   0  0  0  0  0  0  0  0  0  0  0  0
  152.2991  138.4681  158.1095 O   0  0  0  0  0  0  0  0  0  0  0  0
  151.4494  140.4924  157.4165 N   0  0  0  0  0  0  0  0  0  0  0  0
  150.7753  140.1041  156.1781 C   0  0  0  0  0  0  0  0  0  0  0  0
  151.5862  139.0649  155.3771 C   0  0  2  0  0  0  0  0  0  0  0  0
  152.7693  139.6933  154.9273 O   0  0  0  0  0  0  0  0  0  0  0  0
  150.8261  138.5108  154.1524 C   0  0  0  0  0  0  0  0  0  0  0  0
  149.9889  137.3315  154.4854 N   0  3  1  0  0  0  0  0  0  0  0  0
  150.7229  136.2731  155.2223 C   0  0  0  0  0  0  0  0  0  0  0  0
  149.8179  135.0544  155.4885 C   0  0  2  0  0  0  0  0  0  0  0  0
  149.5474  134.2055  154.2337 C   0  0  0  0  0  0  0  0  0  0  0  0
  148.6132  135.4663  156.1348 O   0  0  0  0  0  0  0  0  0  0  0  0
  147.8695  136.4621  155.4369 C   0  0  1  0  0  0  0  0  0  0  0  0
  146.6221  136.7876  156.2659 C   0  0  0  0  0  0  0  0  0  0  0  0
  148.7546  137.7012  155.2151 C   0  0  0  0  0  0  0  0  0  0  0  0
  151.5334  141.8104  157.8874 C   0  0  0  0  0  0  0  0  0  0  0  0
  151.0104  143.0098  157.3738 C   0  0  0  0  0  0  0  0  0  0  0  0
  151.2905  144.1965  158.0910 C   0  0  0  0  0  0  0  0  0  0  0  0
  152.0690  144.1625  159.2770 C   0  0  0  0  0  0  0  0  0  0  0  0
  152.5832  142.9410  159.7720 C   0  0  0  0  0  0  0  0  0  0  0  0
  152.2876  141.7767  159.0415 C   0  0  0  0  0  0  0  0  0  0  0  0
  155.4790  139.1292  160.6414 H   0  0  0  0  0  0  0  0  0  0  0  0
  155.3856  140.2620  159.2960 H   0  0  0  0  0  0  0  0  0  0  0  0
  154.7168  138.6380  159.1317 H   0  0  0  0  0  0  0  0  0  0  0  0
  152.9935  139.1791  160.8974 H   0  0  0  0  0  0  0  0  0  0  0  0
  153.6502  140.7852  161.0605 H   0  0  0  0  0  0  0  0  0  0  0  0
  149.7758  139.7222  156.3935 H   0  0  0  0  0  0  0  0  0  0  0  0
  150.6267  141.0038  155.5794 H   0  0  0  0  0  0  0  0  0  0  0  0
  151.8779  138.2577  156.0481 H   0  0  0  0  0  0  0  0  0  0  0  0
  152.6041  140.0765  154.0788 H   0  0  0  0  0  0  0  0  0  0  0  0
  150.1855  139.2727  153.7083 H   0  0  0  0  0  0  0  0  0  0  0  0
  151.5551  138.2440  153.3853 H   0  0  0  0  0  0  0  0  0  0  0  0
  151.6095  135.9574  154.6733 H   0  0  0  0  0  0  0  0  0  0  0  0
  151.0737  136.6793  156.1725 H   0  0  0  0  0  0  0  0  0  0  0  0
  150.3344  134.4082  156.1990 H   0  0  0  0  0  0  0  0  0  0  0  0
  150.4768  133.7950  153.8382 H   0  0  0  0  0  0  0  0  0  0  0  0
  149.0838  134.7823  153.4338 H   0  0  0  0  0  0  0  0  0  0  0  0
  148.8906  133.3669  154.4660 H   0  0  0  0  0  0  0  0  0  0  0  0
  147.5409  136.0698  154.4744 H   0  0  0  0  0  0  0  0  0  0  0  0
  146.0090  137.5428  155.7729 H   0  0  0  0  0  0  0  0  0  0  0  0
  146.8903  137.1662  157.2527 H   0  0  0  0  0  0  0  0  0  0  0  0
  146.0050  135.8997  156.4064 H   0  0  0  0  0  0  0  0  0  0  0  0
  149.0191  138.1583  156.1702 H   0  0  0  0  0  0  0  0  0  0  0  0
  148.1992  138.4471  154.6452 H   0  0  0  0  0  0  0  0  0  0  0  0
  150.4208  143.0296  156.4693 H   0  0  0  0  0  0  0  0  0  0  0  0
  150.9079  145.1401  157.7306 H   0  0  0  0  0  0  0  0  0  0  0  0
  152.2723  145.0809  159.8081 H   0  0  0  0  0  0  0  0  0  0  0  0
  153.1789  142.9099  160.6721 H   0  0  0  0  0  0  0  0  0  0  0  0
  149.6913  136.9358  153.6048 H   0  0  0  0  0  0  0  0  0  0  0  0
  1  2  1  0  0  0  0
  1 25  1  0  0  0  0
  1 26  1  0  0  0  0
  1 27  1  0  0  0  0
  2  3  1  0  0  0  0
  2 28  1  0  0  0  0
  2 29  1  0  0  0  0
  3 24  1  0  0  0  0
  3  4  1  0  0  0  0
  4  5  2  0  0  0  0
  4  6  1  0  0  0  0
  6  7  1  0  0  0  0
  6 19  1  0  0  0  0
  7  8  1  0  0  0  0
  7 30  1  0  0  0  0
  7 31  1  0  0  0  0
  8  9  1  0  0  0  0
  8 10  1  0  0  0  0
  8 32  1  0  0  0  0
  9 33  1  0  0  0  0
 10 11  1  0  0  0  0
 10 34  1  0  0  0  0
 10 35  1  0  0  0  0
 11 18  1  0  0  0  0
 11 12  1  0  0  0  0
 11 52  1  0  0  0  0
 12 13  1  0  0  0  0
 12 36  1  0  0  0  0
 12 37  1  0  0  0  0
 13 14  1  0  0  0  0
 13 15  1  0  0  0  0
 13 38  1  0  0  0  0
 14 39  1  0  0  0  0
 14 40  1  0  0  0  0
 14 41  1  0  0  0  0
 15 16  1  0  0  0  0
 16 17  1  0  0  0  0
 16 18  1  0  0  0  0
 16 42  1  0  0  0  0
 17 43  1  0  0  0  0
 17 44  1  0  0  0  0
 17 45  1  0  0  0  0
 18 46  1  0  0  0  0
 18 47  1  0  0  0  0
 19 24  2  0  0  0  0
 19 20  1  0  0  0  0
 20 21  2  0  0  0  0
 20 48  1  0  0  0  0
 21 22  1  0  0  0  0
 21 49  1  0  0  0  0
 22 23  2  0  0  0  0
 22 50  1  0  0  0  0
 23 24  1  0  0  0  0
 23 51  1  0  0  0  0
M  CHG  1  11   1
M  END
> <s_m_source_file>
AV-unprocessed.smi

> <i_m_source_file_index>
1570

> <i_lp_mmshare_version>
43012

> <i_f3d_flags>
0

> <s_epik_input>
W2NIXTFbY0hdW2NIXVtjSF1jKGMxMiluKFtDSDJdW0NIM10pYyg9TyluMltDSDJdW0NASF0oW09IXSlbQ0gyXU4zW0NIMl1bQ0BASF0oW0NIM10pT1tDQEBIXShbQ0gzXSlbQ0gyXTM=

> <s_epik_cmdline>
J2VwaWtfcHl0aG9uJywgJy1waCcsICc3LjAnLCAnLXRuJywgJzgnLCAnLW1hJywgJzIwMCcsICctbWV0YWxfYmluZGluZycsICctaW1hZScsICc8aW5maWxlLm1hZT4nLCAnLW9tYWUnLCAnPG91dGZpbGUubWFlPic=

> <r_epik_Ionization_Penalty>
0.706332

> <r_epik_Ionization_Penalty_Charging>
0.706318

> <r_epik_Ionization_Penalty_Neutral>
1.42224e-05

> <r_epik_State_Penalty>
0.729493

> <r_epik_Charging_Adjusted_Penalty>
1.43581

> <i_epik_Tot_Q>
1

> <i_epik_Tot_abs_Q>
1

> <r_epik_Metal_State_Penalty>
0.729493

> <b_epik_Metal_Only>
0

> <s_lp_Force_Field>
OPLS_2005

> <r_lp_Energy>
53.5828

> <b_lp_Chiralities_Consistent>
1

> <s_lp_Variant>
AV-unprocessed.smi:1570-9

> <Gold.Version>
5.8.1

> <Gold.Id.Protein>
6NUR|6NUR_protein|mol2

> <Gold.PLP.Fitness>
53.5878

> <Gold.PLP.PLP>
-46.0048

> <Gold.PLP.part.hbond>
-2.9959

> <Gold.PLP.part.metal>
0.0000

> <Gold.PLP.part.buried>
-5.6761

> <Gold.PLP.part.nonpolar>
-37.1496

> <Gold.PLP.part.repulsive>
0.0683

> <Gold.PLP.ligand.clash>
0.0000

> <Gold.PLP.ligand.torsion>
0.7467

> <Gold.PLP.Chemscore.Hbond>
3.0000

> <Gold.PLP.Chemscore.CHOScore>
0.0000

> <Gold.PLP.Chemscore.Metal>
0.0000

> <Gold.Chemscore.Hbonds>
donor molecule, donor type, donor heavy atom, donor atom, acceptor molecule, acceptor atom, score
      L1  H    11    52       P1  7948  2.00
      P1  H  7997  8008       L1     9  1.00

> <Gold.PLP.Chemscore.Internal.Correction>
0.0764

> <Gold.Rescore>
     Score         DG    S(hbond)    S(metal)    S(lipo)     H(rot)  DE(clash)    DE(int)     intcor
     17.91     -19.89       1.78        0.00     119.05       2.13       0.01       1.97       ----

> <Gold.Chemscore.Fitness>
17.9067

> <Gold.Chemscore.DG>
-19.8868

> <Gold.Chemscore.ZeroCoef>
-5.4800

> <Gold.Chemscore.Hbond>
1.7758

> <Gold.Chemscore.Metal>
0.0000

> <Gold.Chemscore.Lipo>
119.0519

> <Gold.Chemscore.Internal_Hbond>
0.0000

> <Gold.Chemscore.DEClash>
0.0095

> <Gold.Chemscore.DEInternal>
1.9706

> <Gold.Chemscore.Rot>
2.1303

> <Gold.Chemscore.Internal.Correction>
   9.000000E+99

> <Gold.Chemscore.Hbonds>
donor molecule, donor type, donor heavy atom, donor atom, acceptor molecule, acceptor atom, score
      L1  H    11    52       P1  7948  0.68
      P1  H  7997  8008       L1     9  0.88

> <Gold.Chemscore.Hbond.Weighted>
-5.9313

> <Gold.Chemscore.Metal.Weighted>
-0.0000

> <Gold.Chemscore.Lipo.Weighted>
-13.9291

> <Gold.Chemscore.Internal_Hbond.Weighted>
0.0000

> <Gold.Chemscore.DEClash.Weighted>
0.0095

> <Gold.Chemscore.DEInternal.Weighted>
1.9706

> <Gold.Chemscore.Rot.Weighted>
5.4535

> <Gold.Chemscore.Internal.Correction.Weighted>
   9.000000E+99

> <Gold.Protein.RotatedTorsions>
[ 6907 6896 6895 6894 ] final    8.41 input  -60.11 | X-H torsion
[ 7974 7965 7964 7962 ] final  123.28 input  175.53 | X-H torsion
[ 8008 7997 7996 7995 ] final  -10.03 input   59.86 | X-H torsion
[ 10167 10162 10161 10158 ] final   34.00 input  -65.29 | X-H torsion
[ 10718 10713 10712 10709 ] final   -1.66 input   66.30 | X-H torsion
[ 10763 10752 10751 10750 ] final -128.06 input  -60.55 | X-H torsion
[ 11005 11000 10999 10996 ] final   24.24 input  -57.11 | X-H torsion

> <Gold.Protein.ActiveResidues>
 VAL166  LYS551  ARG553  GLY616  TRP617  ASP618  TYR619  PRO620  LYS621  CYS622 
 ASP623  PHE694  ASN695  SER759  ASP760  ASP761  ALA762  ILE779  LEU786  VAL792 
 PHE793  MET794  SER795  GLU796  ALA797  LYS798  CYS799  TRP800  GLU811  SER814 

> <Gold.Protein.RotatedAtoms>
  151.7057  135.0922  160.0258 H   0  0  0  0  0  0  0  0  0  0  0  0  # atno 6907 bound_to 6896
  152.3693  133.6394  159.6083 H   0  0  0  0  0  0  0  0  0  0  0  0  # atno 6908 bound_to 6896
  150.7661  133.9212  159.3440 H   0  0  0  0  0  0  0  0  0  0  0  0  # atno 6909 bound_to 6896
  145.0977  139.3541  143.4828 H   0  0  0  0  0  0  0  0  0  0  0  0  # atno 7974 bound_to 7965
  154.5591  140.2339  155.8363 H   0  0  0  0  0  0  0  0  0  0  0  0  # atno 8008 bound_to 7997
  156.2014  140.3051  155.9495 H   0  0  0  0  0  0  0  0  0  0  0  0  # atno 8009 bound_to 7997
  155.2922  140.0427  157.3014 H   0  0  0  0  0  0  0  0  0  0  0  0  # atno 8010 bound_to 7997
  140.4356  144.1262  150.6166 H   0  0  0  0  0  0  0  0  0  0  0  0  # atno 10167 bound_to 10162
  156.8023  130.5397  149.5720 H   0  0  0  0  0  0  0  0  0  0  0  0  # atno 10718 bound_to 10713
  154.8755  135.3941  154.3695 H   0  0  0  0  0  0  0  0  0  0  0  0  # atno 10763 bound_to 10752
  153.4456  135.7027  153.6146 H   0  0  0  0  0  0  0  0  0  0  0  0  # atno 10764 bound_to 10752
  153.4708  135.3791  155.2359 H   0  0  0  0  0  0  0  0  0  0  0  0  # atno 10765 bound_to 10752
  140.3608  134.2127  155.7672 H   0  0  0  0  0  0  0  0  0  0  0  0  # atno 11005 bound_to 11000
  146.3530  140.0841  142.8616 LP  0  0  0  0  0  0  0  0  0  0  0  0  # atno 17320 bound_to 7965
  145.0991  140.9334  143.4723 LP  0  0  0  0  0  0  0  0  0  0  0  0  # atno 17321 bound_to 7965
  140.4378  143.2540  151.9513 LP  0  0  0  0  0  0  0  0  0  0  0  0  # atno 17342 bound_to 10162
  139.4787  144.5683  151.8129 LP  0  0  0  0  0  0  0  0  0  0  0  0  # atno 17343 bound_to 10162
  156.1094  130.6029  151.0023 LP  0  0  0  0  0  0  0  0  0  0  0  0  # atno 17370 bound_to 10713
  157.6548  131.0891  150.7972 LP  0  0  0  0  0  0  0  0  0  0  0  0  # atno 17371 bound_to 10713
  141.1984  133.8035  157.0582 LP  0  0  0  0  0  0  0  0  0  0  0  0  # atno 17394 bound_to 11000
  140.0628  134.9745  157.1334 LP  0  0  0  0  0  0  0  0  0  0  0  0  # atno 17395 bound_to 11000

$$$$
