AV-unprocessed.smi:1995|AV-procd|sdf|8081|dock2
  -GOLD-   2272010293D 1   1.00000     0.00000
 Structure written by MMmdl.
 41 42  0  0  0  0  0  0  0  0  2 V2000
  149.7208  141.4099  156.0418 C   0  0  0  0  0  0  0  0  0  0  0  0
  149.4470  140.2104  156.9672 C   0  0  0  0  0  0  0  0  0  0  0  0
  150.6945  139.3499  157.3470 C   0  0  2  0  0  0  0  0  0  0  0  0
  151.5432  139.2174  156.0539 C   0  0  0  0  0  0  0  0  0  0  0  0
  150.1982  137.9278  157.7687 C   0  0  0  0  0  0  0  0  0  0  0  0
  149.2339  137.9367  158.8701 N   0  0  0  0  0  0  0  0  0  0  0  0
  148.7980  136.8742  159.5626 C   0  0  0  0  0  0  0  0  0  0  0  0
  149.2219  135.7469  159.2977 O   0  0  0  0  0  0  0  0  0  0  0  0
  147.8883  137.1836  160.5145 N   0  5  0  0  0  0  0  0  0  0  0  0
  147.2760  136.2048  161.2005 C   0  0  0  0  0  0  0  0  0  0  0  0
  147.7479  134.9546  161.2685 N   0  0  0  0  0  0  0  0  0  0  0  0
  146.9545  134.1029  162.0396 C   0  0  0  0  0  0  0  0  0  0  0  0
  145.8573  134.7214  162.5779 C   0  0  0  0  0  0  0  0  0  0  0  0
  145.7879  136.4022  162.1310 S   0  0  0  0  0  0  0  0  0  0  0  0
  151.4917  140.0055  158.4232 N   0  0  0  0  0  0  0  0  0  0  0  0
  151.8588  141.4034  158.1650 C   0  0  0  0  0  0  0  0  0  0  0  0
  152.5501  142.0512  159.3769 C   0  0  0  0  0  0  0  0  0  0  0  0
  153.6964  141.2910  159.7407 O   0  0  0  0  0  0  0  0  0  0  0  0
  153.3759  139.9405  160.0518 C   0  0  0  0  0  0  0  0  0  0  0  0
  152.6953  139.2773  158.8422 C   0  0  0  0  0  0  0  0  0  0  0  0
  148.7978  141.9544  155.8430 H   0  0  0  0  0  0  0  0  0  0  0  0
  150.1231  141.0945  155.0796 H   0  0  0  0  0  0  0  0  0  0  0  0
  150.4238  142.1146  156.4859 H   0  0  0  0  0  0  0  0  0  0  0  0
  148.9468  140.5681  157.8670 H   0  0  0  0  0  0  0  0  0  0  0  0
  148.7012  139.5861  156.4737 H   0  0  0  0  0  0  0  0  0  0  0  0
  150.9316  138.9707  155.1855 H   0  0  0  0  0  0  0  0  0  0  0  0
  152.2908  138.4283  156.1356 H   0  0  0  0  0  0  0  0  0  0  0  0
  152.0710  140.1422  155.8207 H   0  0  0  0  0  0  0  0  0  0  0  0
  149.7785  137.3889  156.9194 H   0  0  0  0  0  0  0  0  0  0  0  0
  151.0352  137.3217  158.1133 H   0  0  0  0  0  0  0  0  0  0  0  0
  148.8530  138.8356  159.1267 H   0  0  0  0  0  0  0  0  0  0  0  0
  147.2473  133.0696  162.1523 H   0  0  0  0  0  0  0  0  0  0  0  0
  145.0908  134.2949  163.2071 H   0  0  0  0  0  0  0  0  0  0  0  0
  152.5288  141.4678  157.3077 H   0  0  0  0  0  0  0  0  0  0  0  0
  150.9807  142.0003  157.9255 H   0  0  0  0  0  0  0  0  0  0  0  0
  152.8596  143.0685  159.1366 H   0  0  0  0  0  0  0  0  0  0  0  0
  151.8638  142.1164  160.2228 H   0  0  0  0  0  0  0  0  0  0  0  0
  154.2912  139.4080  160.3100 H   0  0  0  0  0  0  0  0  0  0  0  0
  152.7259  139.9055  160.9276 H   0  0  0  0  0  0  0  0  0  0  0  0
  152.4567  138.2514  159.1161 H   0  0  0  0  0  0  0  0  0  0  0  0
  153.4123  139.2280  158.0230 H   0  0  0  0  0  0  0  0  0  0  0  0
  1  2  1  0  0  0  0
  1 21  1  0  0  0  0
  1 22  1  0  0  0  0
  1 23  1  0  0  0  0
  2  3  1  0  0  0  0
  2 24  1  0  0  0  0
  2 25  1  0  0  0  0
  3  4  1  0  0  0  0
  3  5  1  0  0  0  0
  3 15  1  0  0  0  0
  4 26  1  0  0  0  0
  4 27  1  0  0  0  0
  4 28  1  0  0  0  0
  5  6  1  0  0  0  0
  5 29  1  0  0  0  0
  5 30  1  0  0  0  0
  6  7  1  0  0  0  0
  6 31  1  0  0  0  0
  7  8  2  0  0  0  0
  7  9  1  0  0  0  0
  9 10  1  0  0  0  0
 10 14  1  0  0  0  0
 10 11  2  0  0  0  0
 11 12  1  0  0  0  0
 12 13  2  0  0  0  0
 12 32  1  0  0  0  0
 13 14  1  0  0  0  0
 13 33  1  0  0  0  0
 15 20  1  0  0  0  0
 15 16  1  0  0  0  0
 16 17  1  0  0  0  0
 16 34  1  0  0  0  0
 16 35  1  0  0  0  0
 17 18  1  0  0  0  0
 17 36  1  0  0  0  0
 17 37  1  0  0  0  0
 18 19  1  0  0  0  0
 19 20  1  0  0  0  0
 19 38  1  0  0  0  0
 19 39  1  0  0  0  0
 20 40  1  0  0  0  0
 20 41  1  0  0  0  0
M  CHG  1   9  -1
M  END
> <s_m_source_file>
AV-unprocessed.smi

> <i_m_source_file_index>
1995

> <i_lp_mmshare_version>
43012

> <i_f3d_flags>
0

> <s_epik_input>
W0NIMl0xW0NIMl1PW0NIMl1bQ0gyXU4xW0NAQF0oW0NIM10pKFtDSDJdW0NIM10pW0NIMl1bTkhdQyg9TylbTkhdYzJuW2NIXVtjSF1zMg==

> <s_epik_cmdline>
J2VwaWtfcHl0aG9uJywgJy1waCcsICc3LjAnLCAnLXRuJywgJzgnLCAnLW1hJywgJzIwMCcsICctbWV0YWxfYmluZGluZycsICctaW1hZScsICc8aW5maWxlLm1hZT4nLCAnLW9tYWUnLCAnPG91dGZpbGUubWFlPic=

> <r_lp_tautomer_probability>
0.999

> <r_epik_Ionization_Penalty>
8.86479

> <r_epik_Ionization_Penalty_Charging>
6.76546

> <r_epik_Ionization_Penalty_Neutral>
2.09933

> <r_epik_State_Penalty>
7.05418

> <r_epik_Charging_Adjusted_Penalty>
13.8196

> <i_epik_Tot_Q>
-1

> <i_epik_Tot_abs_Q>
1

> <r_epik_Metal_State_Penalty>
2.97744

> <b_epik_Metal_Only>
1

> <s_lp_Force_Field>
OPLS_2005

> <r_lp_Energy>
37.8837

> <b_lp_Chiralities_Consistent>
1

> <s_lp_Variant>
AV-unprocessed.smi:1995-6

> <Gold.Version>
5.8.1

> <Gold.Id.Protein>
6NUR|6NUR_protein|mol2

> <Gold.PLP.Fitness>
44.0380

> <Gold.PLP.PLP>
-32.2550

> <Gold.PLP.part.hbond>
-3.0000

> <Gold.PLP.part.metal>
0.0000

> <Gold.PLP.part.buried>
-6.0027

> <Gold.PLP.part.nonpolar>
-24.7929

> <Gold.PLP.part.repulsive>
0.2184

> <Gold.PLP.ligand.clash>
0.0000

> <Gold.PLP.ligand.torsion>
0.4831

> <Gold.PLP.Chemscore.Hbond>
4.1680

> <Gold.PLP.Chemscore.CHOScore>
0.0000

> <Gold.PLP.Chemscore.Metal>
0.0000

> <Gold.Chemscore.Hbonds>
donor molecule, donor type, donor heavy atom, donor atom, acceptor molecule, acceptor atom, score
      P1  H  6896  6907       L1     8  1.00
      P1  H  6931  6943       L1     9  1.32
      P1  H  6934  6947       L1     9  1.63

> <Gold.PLP.Chemscore.Internal.Correction>
0.2452

> <Gold.Rescore>
     Score         DG    S(hbond)    S(metal)    S(lipo)     H(rot)  DE(clash)    DE(int)     intcor
     14.70     -16.98       2.11        0.00      75.35       1.70       0.05       2.24       ----

> <Gold.Chemscore.Fitness>
14.6957

> <Gold.Chemscore.DG>
-16.9829

> <Gold.Chemscore.ZeroCoef>
-5.4800

> <Gold.Chemscore.Hbond>
2.1063

> <Gold.Chemscore.Metal>
0.0000

> <Gold.Chemscore.Lipo>
75.3508

> <Gold.Chemscore.Internal_Hbond>
0.0000

> <Gold.Chemscore.DEClash>
0.0488

> <Gold.Chemscore.DEInternal>
2.2383

> <Gold.Chemscore.Rot>
1.6985

> <Gold.Chemscore.Internal.Correction>
   9.000000E+99

> <Gold.Chemscore.Hbonds>
donor molecule, donor type, donor heavy atom, donor atom, acceptor molecule, acceptor atom, score
      P1  H  6896  6907       L1     8  0.98
      P1  H  6931  6943       L1     9  0.13
      P1  H  6934  6947       L1     9  0.68

> <Gold.Chemscore.Hbond.Weighted>
-7.0350

> <Gold.Chemscore.Metal.Weighted>
-0.0000

> <Gold.Chemscore.Lipo.Weighted>
-8.8160

> <Gold.Chemscore.Internal_Hbond.Weighted>
0.0000

> <Gold.Chemscore.DEClash.Weighted>
0.0488

> <Gold.Chemscore.DEInternal.Weighted>
2.2383

> <Gold.Chemscore.Rot.Weighted>
4.3482

> <Gold.Chemscore.Internal.Correction.Weighted>
   9.000000E+99

> <Gold.Protein.RotatedTorsions>
[ 6907 6896 6895 6894 ] final  -75.61 input  -60.11 | X-H torsion
[ 7974 7965 7964 7962 ] final   96.40 input  175.53 | X-H torsion
[ 8008 7997 7996 7995 ] final  156.79 input   59.86 | X-H torsion
[ 10167 10162 10161 10158 ] final   73.75 input  -65.29 | X-H torsion
[ 10718 10713 10712 10709 ] final  151.92 input   66.30 | X-H torsion
[ 10763 10752 10751 10750 ] final  108.00 input  -60.55 | X-H torsion
[ 11005 11000 10999 10996 ] final  -96.49 input  -57.11 | X-H torsion

> <Gold.Protein.ActiveResidues>
 VAL166  LYS551  ARG553  GLY616  TRP617  ASP618  TYR619  PRO620  LYS621  CYS622 
 ASP623  PHE694  ASN695  SER759  ASP760  ASP761  ALA762  ILE779  LEU786  VAL792 
 PHE793  MET794  SER795  GLU796  ALA797  LYS798  CYS799  TRP800  GLU811  SER814 

> <Gold.Protein.RotatedAtoms>
  150.7053  134.4696  159.5418 H   0  0  0  0  0  0  0  0  0  0  0  0  # atno 6907 bound_to 6896
  152.2355  134.8278  160.0477 H   0  0  0  0  0  0  0  0  0  0  0  0  # atno 6908 bound_to 6896
  151.9078  133.3518  159.3890 H   0  0  0  0  0  0  0  0  0  0  0  0  # atno 6909 bound_to 6896
  145.4393  139.2303  143.3101 H   0  0  0  0  0  0  0  0  0  0  0  0  # atno 7974 bound_to 7965
  156.2402  140.1903  156.7009 H   0  0  0  0  0  0  0  0  0  0  0  0  # atno 8008 bound_to 7997
  154.6182  140.0612  156.9608 H   0  0  0  0  0  0  0  0  0  0  0  0  # atno 8009 bound_to 7997
  155.1904  140.3284  155.4362 H   0  0  0  0  0  0  0  0  0  0  0  0  # atno 8010 bound_to 7997
  140.0211  144.5540  150.7581 H   0  0  0  0  0  0  0  0  0  0  0  0  # atno 10167 bound_to 10162
  157.2645  131.0804  151.1643 H   0  0  0  0  0  0  0  0  0  0  0  0  # atno 10718 bound_to 10713
  153.4145  135.3826  155.2071 H   0  0  0  0  0  0  0  0  0  0  0  0  # atno 10763 bound_to 10752
  154.8740  135.3802  154.4460 H   0  0  0  0  0  0  0  0  0  0  0  0  # atno 10764 bound_to 10752
  153.4972  135.7088  153.5914 H   0  0  0  0  0  0  0  0  0  0  0  0  # atno 10765 bound_to 10752
  141.1409  133.8101  157.0578 H   0  0  0  0  0  0  0  0  0  0  0  0  # atno 11005 bound_to 11000
  146.2565  140.5139  142.8871 LP  0  0  0  0  0  0  0  0  0  0  0  0  # atno 17320 bound_to 7965
  144.8132  140.6422  143.6401 LP  0  0  0  0  0  0  0  0  0  0  0  0  # atno 17321 bound_to 7965
  140.7342  143.2726  151.3840 LP  0  0  0  0  0  0  0  0  0  0  0  0  # atno 17342 bound_to 10162
  139.6139  144.1042  152.2326 LP  0  0  0  0  0  0  0  0  0  0  0  0  # atno 17343 bound_to 10162
  157.3139  130.6903  149.6231 LP  0  0  0  0  0  0  0  0  0  0  0  0  # atno 17370 bound_to 10713
  155.9663  130.4355  150.5095 LP  0  0  0  0  0  0  0  0  0  0  0  0  # atno 17371 bound_to 10713
  140.0590  134.9765  157.1272 LP  0  0  0  0  0  0  0  0  0  0  0  0  # atno 17394 bound_to 11000
  140.3876  134.2219  155.7167 LP  0  0  0  0  0  0  0  0  0  0  0  0  # atno 17395 bound_to 11000

$$$$
