AV-unprocessed.smi:2054|AV-procd|sdf|8333|dock9
  -GOLD-   2272011 03D 1   1.00000     0.00000
 Structure written by MMmdl.
 43 44  0  0  0  0  0  0  0  0  2 V2000
  150.1326  132.7135  155.0646 C   0  0  0  0  0  0  0  0  0  0  0  0
  150.8052  133.4201  156.6253 S   0  0  0  0  0  0  0  0  0  0  0  0
  149.8048  133.1974  157.6807 O   0  0  0  0  0  0  0  0  0  0  0  0
  152.1865  132.9503  156.8119 O   0  0  0  0  0  0  0  0  0  0  0  0
  150.8644  135.1227  156.2963 N   0  0  0  0  0  0  0  0  0  0  0  0
  150.3969  135.5744  154.9702 C   0  0  0  0  0  0  0  0  0  0  0  0
  150.1216  137.0869  154.9510 C   0  0  0  0  0  0  0  0  0  0  0  0
  151.3561  137.8825  155.4054 C   0  0  0  0  0  0  0  0  0  0  0  0
  151.0835  139.3925  155.3977 C   0  0  0  0  0  0  0  0  0  0  0  0
  151.8860  140.1679  154.8764 O   0  0  0  0  0  0  0  0  0  0  0  0
  149.9446  139.7993  155.9797 N   0  0  0  0  0  0  0  0  0  0  0  0
  149.4992  141.1852  156.0638 C   0  0  0  0  0  0  0  0  0  0  0  0
  149.4449  141.6774  157.5199 C   0  0  0  0  0  0  0  0  0  0  0  0
  150.6707  142.4856  157.8976 C   0  0  0  0  0  0  0  0  0  0  0  0
  151.6429  142.0008  158.7992 C   0  0  0  0  0  0  0  0  0  0  0  0
  152.7552  142.8096  159.1127 C   0  0  0  0  0  0  0  0  0  0  0  0
  152.8715  144.0838  158.5195 C   0  0  0  0  0  0  0  0  0  0  0  0
  151.8707  144.5182  157.6265 C   0  0  0  0  0  0  0  0  0  0  0  0
  150.8197  143.7146  157.3520 N   0  3  0  0  0  0  0  0  0  0  0  0
  151.7502  137.3967  156.8090 C   0  0  0  0  0  0  0  0  0  0  0  0
  152.0155  135.8822  156.8251 C   0  0  0  0  0  0  0  0  0  0  0  0
  149.9794  131.6425  155.1934 H   0  0  0  0  0  0  0  0  0  0  0  0
  150.8319  132.8761  154.2461 H   0  0  0  0  0  0  0  0  0  0  0  0
  149.1797  133.1882  154.8316 H   0  0  0  0  0  0  0  0  0  0  0  0
  151.1505  135.3182  154.2244 H   0  0  0  0  0  0  0  0  0  0  0  0
  149.4899  135.0383  154.6950 H   0  0  0  0  0  0  0  0  0  0  0  0
  149.8284  137.3890  153.9448 H   0  0  0  0  0  0  0  0  0  0  0  0
  149.2702  137.3040  155.5984 H   0  0  0  0  0  0  0  0  0  0  0  0
  152.1784  137.6718  154.7192 H   0  0  0  0  0  0  0  0  0  0  0  0
  149.3398  139.0976  156.3820 H   0  0  0  0  0  0  0  0  0  0  0  0
  150.1541  141.8214  155.4661 H   0  0  0  0  0  0  0  0  0  0  0  0
  148.5085  141.2498  155.6131 H   0  0  0  0  0  0  0  0  0  0  0  0
  148.5529  142.2861  157.6751 H   0  0  0  0  0  0  0  0  0  0  0  0
  149.3625  140.8318  158.2043 H   0  0  0  0  0  0  0  0  0  0  0  0
  151.5389  141.0234  159.2475 H   0  0  0  0  0  0  0  0  0  0  0  0
  153.5098  142.4569  159.8006 H   0  0  0  0  0  0  0  0  0  0  0  0
  153.7157  144.7187  158.7467 H   0  0  0  0  0  0  0  0  0  0  0  0
  151.8788  145.4763  157.1276 H   0  0  0  0  0  0  0  0  0  0  0  0
  152.6406  137.9241  157.1531 H   0  0  0  0  0  0  0  0  0  0  0  0
  150.9598  137.6284  157.5249 H   0  0  0  0  0  0  0  0  0  0  0  0
  152.2272  135.5716  157.8479 H   0  0  0  0  0  0  0  0  0  0  0  0
  152.8992  135.6433  156.2320 H   0  0  0  0  0  0  0  0  0  0  0  0
  150.1068  144.0494  156.7031 H   0  0  0  0  0  0  0  0  0  0  0  0
  1  2  1  0  0  0  0
  1 22  1  0  0  0  0
  1 23  1  0  0  0  0
  1 24  1  0  0  0  0
  2  3  2  0  0  0  0
  2  4  2  0  0  0  0
  2  5  1  0  0  0  0
  5 21  1  0  0  0  0
  5  6  1  0  0  0  0
  6  7  1  0  0  0  0
  6 25  1  0  0  0  0
  6 26  1  0  0  0  0
  7  8  1  0  0  0  0
  7 27  1  0  0  0  0
  7 28  1  0  0  0  0
  8  9  1  0  0  0  0
  8 20  1  0  0  0  0
  8 29  1  0  0  0  0
  9 10  2  0  0  0  0
  9 11  1  0  0  0  0
 11 12  1  0  0  0  0
 11 30  1  0  0  0  0
 12 13  1  0  0  0  0
 12 31  1  0  0  0  0
 12 32  1  0  0  0  0
 13 14  1  0  0  0  0
 13 33  1  0  0  0  0
 13 34  1  0  0  0  0
 14 19  1  0  0  0  0
 14 15  2  0  0  0  0
 15 16  1  0  0  0  0
 15 35  1  0  0  0  0
 16 17  2  0  0  0  0
 16 36  1  0  0  0  0
 17 18  1  0  0  0  0
 17 37  1  0  0  0  0
 18 19  2  0  0  0  0
 18 38  1  0  0  0  0
 19 43  1  0  0  0  0
 20 21  1  0  0  0  0
 20 39  1  0  0  0  0
 20 40  1  0  0  0  0
 21 41  1  0  0  0  0
 21 42  1  0  0  0  0
M  CHG  1  19   1
M  END
> <s_m_source_file>
AV-unprocessed.smi

> <i_m_source_file_index>
2054

> <i_lp_mmshare_version>
43012

> <i_f3d_flags>
0

> <s_epik_input>
W0NIM11TKD1PKSg9TylOMVtDSDJdW0NIMl1bQ0hdKFtDSDJdW0NIMl0xKUMoPU8pW05IXVtDSDJdW0NIMl1jMltjSF1bY0hdW2NIXVtjSF1uMg==

> <s_epik_cmdline>
J2VwaWtfcHl0aG9uJywgJy1waCcsICc3LjAnLCAnLXRuJywgJzgnLCAnLW1hJywgJzIwMCcsICctbWV0YWxfYmluZGluZycsICctaW1hZScsICc8aW5maWxlLm1hZT4nLCAnLW9tYWUnLCAnPG91dGZpbGUubWFlPic=

> <r_epik_Ionization_Penalty>
1.82741

> <r_epik_Ionization_Penalty_Charging>
1.82741

> <r_epik_Ionization_Penalty_Neutral>
1.85342e-08

> <r_epik_State_Penalty>
1.94311

> <r_epik_Charging_Adjusted_Penalty>
3.77052

> <i_epik_Tot_Q>
1

> <i_epik_Tot_abs_Q>
1

> <r_epik_Metal_State_Penalty>
1.96983

> <b_epik_Metal_Only>
0

> <s_lp_Force_Field>
OPLS_2005

> <r_lp_Energy>
8.70127

> <b_lp_Chiralities_Consistent>
1

> <s_lp_Variant>
AV-unprocessed.smi:2054-2

> <Gold.Version>
5.8.1

> <Gold.Id.Protein>
6NUR|6NUR_protein|mol2

> <Gold.PLP.Fitness>
45.7638

> <Gold.PLP.PLP>
-36.0320

> <Gold.PLP.part.hbond>
-2.8304

> <Gold.PLP.part.metal>
0.0000

> <Gold.PLP.part.buried>
-4.2783

> <Gold.PLP.part.nonpolar>
-28.4643

> <Gold.PLP.part.repulsive>
0.0973

> <Gold.PLP.ligand.clash>
0.0000

> <Gold.PLP.ligand.torsion>
1.1311

> <Gold.PLP.Chemscore.Hbond>
3.7480

> <Gold.PLP.Chemscore.CHOScore>
0.0000

> <Gold.PLP.Chemscore.Metal>
0.0000

> <Gold.Chemscore.Hbonds>
donor molecule, donor type, donor heavy atom, donor atom, acceptor molecule, acceptor atom, score
      L1  H    19    43       P1  8028  2.00
      P1  H  6896  6908       L1     3  0.95
      P1  H  7989  7998       L1    10  0.86

> <Gold.PLP.Chemscore.Internal.Correction>
0.7500

> <Gold.Rescore>
     Score         DG    S(hbond)    S(metal)    S(lipo)     H(rot)  DE(clash)    DE(int)     intcor
     18.34     -19.97       2.46        0.00      96.13       1.95       0.36       1.26       ----

> <Gold.Chemscore.Fitness>
18.3448

> <Gold.Chemscore.DG>
-19.9681

> <Gold.Chemscore.ZeroCoef>
-5.4800

> <Gold.Chemscore.Hbond>
2.4622

> <Gold.Chemscore.Metal>
0.0000

> <Gold.Chemscore.Lipo>
96.1336

> <Gold.Chemscore.Internal_Hbond>
0.0000

> <Gold.Chemscore.DEClash>
0.3598

> <Gold.Chemscore.DEInternal>
1.2636

> <Gold.Chemscore.Rot>
1.9466

> <Gold.Chemscore.Internal.Correction>
   9.000000E+99

> <Gold.Chemscore.Hbonds>
donor molecule, donor type, donor heavy atom, donor atom, acceptor molecule, acceptor atom, score
      L1  H    19    43       P1  8028  0.99
      P1  H  6896  6908       L1     3  0.21
      P1  H  7989  7998       L1    10  0.81

> <Gold.Chemscore.Hbond.Weighted>
-8.2237

> <Gold.Chemscore.Metal.Weighted>
-0.0000

> <Gold.Chemscore.Lipo.Weighted>
-11.2476

> <Gold.Chemscore.Internal_Hbond.Weighted>
0.0000

> <Gold.Chemscore.DEClash.Weighted>
0.3598

> <Gold.Chemscore.DEInternal.Weighted>
1.2636

> <Gold.Chemscore.Rot.Weighted>
4.9832

> <Gold.Chemscore.Internal.Correction.Weighted>
   9.000000E+99

> <Gold.Protein.RotatedTorsions>
[ 6907 6896 6895 6894 ] final  108.43 input  -60.11 | X-H torsion
[ 7974 7965 7964 7962 ] final -165.69 input  175.53 | X-H torsion
[ 8008 7997 7996 7995 ] final -162.12 input   59.86 | X-H torsion
[ 10167 10162 10161 10158 ] final   88.01 input  -65.29 | X-H torsion
[ 10718 10713 10712 10709 ] final   56.57 input   66.30 | X-H torsion
[ 10763 10752 10751 10750 ] final  166.06 input  -60.55 | X-H torsion
[ 11005 11000 10999 10996 ] final  150.85 input  -57.11 | X-H torsion

> <Gold.Protein.ActiveResidues>
 VAL166  LYS551  ARG553  GLY616  TRP617  ASP618  TYR619  PRO620  LYS621  CYS622 
 ASP623  PHE694  ASN695  SER759  ASP760  ASP761  ALA762  ILE779  LEU786  VAL792 
 PHE793  MET794  SER795  GLU796  ALA797  LYS798  CYS799  TRP800  GLU811  SER814 

> <Gold.Protein.RotatedAtoms>
  152.5112  133.9090  159.7478 H   0  0  0  0  0  0  0  0  0  0  0  0  # atno 6907 bound_to 6896
  150.9488  133.6564  159.2783 H   0  0  0  0  0  0  0  0  0  0  0  0  # atno 6908 bound_to 6896
  151.3850  135.0951  159.9561 H   0  0  0  0  0  0  0  0  0  0  0  0  # atno 6909 bound_to 6896
  144.7264  140.2777  143.6241 H   0  0  0  0  0  0  0  0  0  0  0  0  # atno 7974 bound_to 7965
  155.8022  140.0893  157.1951 H   0  0  0  0  0  0  0  0  0  0  0  0  # atno 8008 bound_to 7997
  154.3981  140.1470  156.3346 H   0  0  0  0  0  0  0  0  0  0  0  0  # atno 8009 bound_to 7997
  155.8451  140.3437  155.5659 H   0  0  0  0  0  0  0  0  0  0  0  0  # atno 8010 bound_to 7997
  139.8716  144.6490  150.8943 H   0  0  0  0  0  0  0  0  0  0  0  0  # atno 10167 bound_to 10162
  157.5442  130.8719  149.8866 H   0  0  0  0  0  0  0  0  0  0  0  0  # atno 10718 bound_to 10713
  154.3333  135.2754  155.2460 H   0  0  0  0  0  0  0  0  0  0  0  0  # atno 10763 bound_to 10752
  154.4762  135.5870  153.6360 H   0  0  0  0  0  0  0  0  0  0  0  0  # atno 10764 bound_to 10752
  152.9864  135.6100  154.3528 H   0  0  0  0  0  0  0  0  0  0  0  0  # atno 10765 bound_to 10752
  140.1167  134.8890  157.2014 H   0  0  0  0  0  0  0  0  0  0  0  0  # atno 11005 bound_to 11000
  145.7980  139.1953  143.2064 LP  0  0  0  0  0  0  0  0  0  0  0  0  # atno 17320 bound_to 7965
  146.0700  140.7879  142.9692 LP  0  0  0  0  0  0  0  0  0  0  0  0  # atno 17321 bound_to 7965
  140.7760  143.3659  151.1739 LP  0  0  0  0  0  0  0  0  0  0  0  0  # atno 17342 bound_to 10162
  139.7279  143.9119  152.3009 LP  0  0  0  0  0  0  0  0  0  0  0  0  # atno 17343 bound_to 10162
  156.0521  130.3715  150.1176 LP  0  0  0  0  0  0  0  0  0  0  0  0  # atno 17370 bound_to 10713
  156.9353  130.9727  151.3526 LP  0  0  0  0  0  0  0  0  0  0  0  0  # atno 17371 bound_to 10713
  140.3019  134.3122  155.7288 LP  0  0  0  0  0  0  0  0  0  0  0  0  # atno 17394 bound_to 11000
  141.2143  133.7597  156.9653 LP  0  0  0  0  0  0  0  0  0  0  0  0  # atno 17395 bound_to 11000

$$$$
