AV-unprocessed.smi:249|AV-procd|sdf|1904|dock6
  -GOLD-   2262020583D 1   1.00000     0.00000
 Structure written by MMmdl.
 64 67  0  0  0  0  0  0  0  0  2 V2000
  147.3710  127.8108  151.8718 C   0  0  0  0  0  0  0  0  0  0  0  0
  146.4573  128.9804  152.2736 C   0  0  0  0  0  0  0  0  0  0  0  0
  147.1505  130.3014  152.2926 N   0  3  2  0  0  0  0  0  0  0  0  0
  148.1154  130.4040  153.4253 C   0  0  0  0  0  0  0  0  0  0  0  0
  148.8929  131.7298  153.4103 C   0  0  0  0  0  0  0  0  0  0  0  0
  147.9430  132.9439  153.4576 C   0  0  2  0  0  0  0  0  0  0  0  0
  147.2094  133.0728  154.7275 N   0  0  0  0  0  0  0  0  0  0  0  0
  145.9081  133.7325  154.6869 C   0  0  0  0  0  0  0  0  0  0  0  0
  147.9325  133.5257  155.7761 C   0  0  0  0  0  0  0  0  0  0  0  0
  147.5590  133.1126  157.0121 N   0  0  0  0  0  0  0  0  0  0  0  0
  148.2436  133.5199  158.0857 C   0  0  0  0  0  0  0  0  0  0  0  0
  149.3088  134.3228  158.1420 N   0  0  0  0  0  0  0  0  0  0  0  0
  149.6789  134.7446  156.8987 C   0  0  0  0  0  0  0  0  0  0  0  0
  149.0499  134.4003  155.6703 C   0  0  0  0  0  0  0  0  0  0  0  0
  149.7013  135.0214  154.6115 N   0  0  0  0  0  0  0  0  0  0  0  0
  150.6652  135.6923  155.1817 C   0  0  0  0  0  0  0  0  0  0  0  0
  150.7287  135.5754  156.5520 N   0  0  0  0  0  0  0  0  0  0  0  0
  151.6948  136.2017  157.4363 C   0  0  0  0  0  0  0  0  0  0  0  0
  151.2529  137.6023  157.9281 C   0  0  1  0  0  0  0  0  0  0  0  0
  149.8891  137.5773  158.6605 C   0  0  0  0  0  0  0  0  0  0  0  0
  149.8972  136.6634  159.7383 O   0  0  0  0  0  0  0  0  0  0  0  0
  152.3628  138.2854  158.7661 C   0  0  2  0  0  0  0  0  0  0  0  0
  152.1803  139.7784  158.9751 C   0  0  0  0  0  0  0  0  0  0  0  0
  153.5830  140.2200  159.3771 C   0  0  0  0  0  0  0  0  0  0  0  0
  154.4709  139.3650  158.6667 O   0  0  0  0  0  0  0  0  0  0  0  0
  153.7530  138.2630  158.1202 C   0  0  0  0  0  0  0  0  0  0  0  0
  147.0009  132.8057  152.2477 C   0  0  0  0  0  0  0  0  0  0  0  0
  146.2154  131.4735  152.2487 C   0  0  1  0  0  0  0  0  0  0  0  0
  145.2790  131.4553  151.0225 C   0  0  0  0  0  0  0  0  0  0  0  0
  146.7817  126.9076  151.7108 H   0  0  0  0  0  0  0  0  0  0  0  0
  148.1040  127.5732  152.6421 H   0  0  0  0  0  0  0  0  0  0  0  0
  147.9042  128.0242  150.9450 H   0  0  0  0  0  0  0  0  0  0  0  0
  145.6501  128.9886  151.5450 H   0  0  0  0  0  0  0  0  0  0  0  0
  145.9986  128.7874  153.2445 H   0  0  0  0  0  0  0  0  0  0  0  0
  147.5818  130.2873  154.3697 H   0  0  0  0  0  0  0  0  0  0  0  0
  148.8460  129.5985  153.3781 H   0  0  0  0  0  0  0  0  0  0  0  0
  149.6135  131.7515  154.2280 H   0  0  0  0  0  0  0  0  0  0  0  0
  149.4919  131.7791  152.5000 H   0  0  0  0  0  0  0  0  0  0  0  0
  148.5321  133.8514  153.3230 H   0  0  0  0  0  0  0  0  0  0  0  0
  145.5678  134.0314  155.6801 H   0  0  0  0  0  0  0  0  0  0  0  0
  145.1565  133.0573  154.2779 H   0  0  0  0  0  0  0  0  0  0  0  0
  145.9463  134.6240  154.0596 H   0  0  0  0  0  0  0  0  0  0  0  0
  147.8884  133.1484  159.0357 H   0  0  0  0  0  0  0  0  0  0  0  0
  151.3662  136.2879  154.6147 H   0  0  0  0  0  0  0  0  0  0  0  0
  151.8654  135.5395  158.2860 H   0  0  0  0  0  0  0  0  0  0  0  0
  152.6414  136.2629  156.8988 H   0  0  0  0  0  0  0  0  0  0  0  0
  151.1057  138.2156  157.0379 H   0  0  0  0  0  0  0  0  0  0  0  0
  149.6343  138.5657  159.0416 H   0  0  0  0  0  0  0  0  0  0  0  0
  149.0833  137.3062  157.9782 H   0  0  0  0  0  0  0  0  0  0  0  0
  149.0549  136.2363  159.7765 H   0  0  0  0  0  0  0  0  0  0  0  0
  152.4304  137.8062  159.7444 H   0  0  0  0  0  0  0  0  0  0  0  0
  151.8887  140.2630  158.0419 H   0  0  0  0  0  0  0  0  0  0  0  0
  151.4359  140.0206  159.7340 H   0  0  0  0  0  0  0  0  0  0  0  0
  153.7720  141.2695  159.1514 H   0  0  0  0  0  0  0  0  0  0  0  0
  153.7373  140.0691  160.4462 H   0  0  0  0  0  0  0  0  0  0  0  0
  154.2805  137.3261  158.3007 H   0  0  0  0  0  0  0  0  0  0  0  0
  153.6814  138.4060  157.0412 H   0  0  0  0  0  0  0  0  0  0  0  0
  146.3160  133.6523  152.2009 H   0  0  0  0  0  0  0  0  0  0  0  0
  147.5925  132.8679  151.3329 H   0  0  0  0  0  0  0  0  0  0  0  0
  145.5931  131.4406  153.1446 H   0  0  0  0  0  0  0  0  0  0  0  0
  144.7304  132.3940  150.9381 H   0  0  0  0  0  0  0  0  0  0  0  0
  144.5235  130.6732  151.0867 H   0  0  0  0  0  0  0  0  0  0  0  0
  145.8376  131.3187  150.0959 H   0  0  0  0  0  0  0  0  0  0  0  0
  147.6970  130.3487  151.4446 H   0  0  0  0  0  0  0  0  0  0  0  0
  1  2  1  0  0  0  0
  1 30  1  0  0  0  0
  1 31  1  0  0  0  0
  1 32  1  0  0  0  0
  2  3  1  0  0  0  0
  2 33  1  0  0  0  0
  2 34  1  0  0  0  0
  3 28  1  0  0  0  0
  3  4  1  0  0  0  0
  3 64  1  0  0  0  0
  4  5  1  0  0  0  0
  4 35  1  0  0  0  0
  4 36  1  0  0  0  0
  5  6  1  0  0  0  0
  5 37  1  0  0  0  0
  5 38  1  0  0  0  0
  6  7  1  0  0  0  0
  6 27  1  0  0  0  0
  6 39  1  0  0  0  0
  7  8  1  0  0  0  0
  7  9  1  0  0  0  0
  8 40  1  0  0  0  0
  8 41  1  0  0  0  0
  8 42  1  0  0  0  0
  9 14  1  0  0  0  0
  9 10  2  0  0  0  0
 10 11  1  0  0  0  0
 11 12  2  0  0  0  0
 11 43  1  0  0  0  0
 12 13  1  0  0  0  0
 13 17  1  0  0  0  0
 13 14  2  0  0  0  0
 14 15  1  0  0  0  0
 15 16  2  0  0  0  0
 16 17  1  0  0  0  0
 16 44  1  0  0  0  0
 17 18  1  0  0  0  0
 18 19  1  0  0  0  0
 18 45  1  0  0  0  0
 18 46  1  0  0  0  0
 19 20  1  0  0  0  0
 19 22  1  0  0  0  0
 19 47  1  0  0  0  0
 20 21  1  0  0  0  0
 20 48  1  0  0  0  0
 20 49  1  0  0  0  0
 21 50  1  0  0  0  0
 22 26  1  0  0  0  0
 22 23  1  0  0  0  0
 22 51  1  0  0  0  0
 23 24  1  0  0  0  0
 23 52  1  0  0  0  0
 23 53  1  0  0  0  0
 24 25  1  0  0  0  0
 24 54  1  0  0  0  0
 24 55  1  0  0  0  0
 25 26  1  0  0  0  0
 26 56  1  0  0  0  0
 26 57  1  0  0  0  0
 27 28  1  0  0  0  0
 27 58  1  0  0  0  0
 27 59  1  0  0  0  0
 28 29  1  0  0  0  0
 28 60  1  0  0  0  0
 29 61  1  0  0  0  0
 29 62  1  0  0  0  0
 29 63  1  0  0  0  0
M  CHG  1   3   1
M  END
> <s_m_source_file>
AV-unprocessed.smi

> <i_m_source_file_index>
249

> <i_lp_mmshare_version>
43012

> <i_f3d_flags>
0

> <s_epik_input>
W0NIM11bQ0gyXU4xW0NIMl1bQ0gyXVtDQEhdKFtDSDJdW0NASF0xW0NIM10pTihbQ0gzXSljKG5bY0hdbjIpYyhjMjMpbltjSF1uM1tDSDJdW0NASF0oW0NIMl1bT0hdKVtDQEBIXTRbQ0gyXVtDSDJdT1tDSDJdNA==

> <s_epik_cmdline>
J2VwaWtfcHl0aG9uJywgJy1waCcsICc3LjAnLCAnLXRuJywgJzgnLCAnLW1hJywgJzIwMCcsICctbWV0YWxfYmluZGluZycsICctaW1hZScsICc8aW5maWxlLm1hZT4nLCAnLW9tYWUnLCAnPG91dGZpbGUubWFlPic=

> <r_lp_tautomer_probability>
1

> <r_epik_Ionization_Penalty>
0.00294688

> <r_epik_Ionization_Penalty_Charging>
0.00169971

> <r_epik_Ionization_Penalty_Neutral>
0.00124717

> <r_epik_State_Penalty>
-0

> <r_epik_Charging_Adjusted_Penalty>
0.00169971

> <i_epik_Tot_Q>
1

> <i_epik_Tot_abs_Q>
1

> <r_epik_Metal_State_Penalty>
-0

> <b_epik_Metal_Only>
0

> <s_lp_Force_Field>
OPLS_2005

> <r_lp_Energy>
56.7452

> <b_lp_Chiralities_Consistent>
1

> <s_lp_Variant>
AV-unprocessed.smi:249-7

> <Gold.Version>
5.8.1

> <Gold.Id.Protein>
6NUR|6NUR_protein|mol2

> <Gold.PLP.Fitness>
44.8964

> <Gold.PLP.PLP>
-36.8027

> <Gold.PLP.part.hbond>
-4.0000

> <Gold.PLP.part.metal>
0.0000

> <Gold.PLP.part.buried>
-4.4580

> <Gold.PLP.part.nonpolar>
-29.4829

> <Gold.PLP.part.repulsive>
0.2261

> <Gold.PLP.ligand.clash>
0.0000

> <Gold.PLP.ligand.torsion>
1.6257

> <Gold.PLP.Chemscore.Hbond>
3.5234

> <Gold.PLP.Chemscore.CHOScore>
0.0000

> <Gold.PLP.Chemscore.Metal>
0.0000

> <Gold.Chemscore.Hbonds>
donor molecule, donor type, donor heavy atom, donor atom, acceptor molecule, acceptor atom, score
      L1  H     3    64       P1 10747  1.00
      P1  H  6896  6907       L1    12  0.40
      P1  H  6896  6908       L1    21  0.96
      P1  H  7997  8008       L1    25  1.00

> <Gold.PLP.Chemscore.Internal.Correction>
0.7750

> <Gold.Rescore>
     Score         DG    S(hbond)    S(metal)    S(lipo)     H(rot)  DE(clash)    DE(int)     intcor
     16.36     -19.39       3.03        0.00      95.86       2.90       0.15       2.88       ----

> <Gold.Chemscore.Fitness>
16.3629

> <Gold.Chemscore.DG>
-19.3895

> <Gold.Chemscore.ZeroCoef>
-5.4800

> <Gold.Chemscore.Hbond>
3.0297

> <Gold.Chemscore.Metal>
0.0000

> <Gold.Chemscore.Lipo>
95.8620

> <Gold.Chemscore.Internal_Hbond>
0.0000

> <Gold.Chemscore.DEClash>
0.1465

> <Gold.Chemscore.DEInternal>
2.8801

> <Gold.Chemscore.Rot>
2.9006

> <Gold.Chemscore.Internal.Correction>
   9.000000E+99

> <Gold.Chemscore.Hbonds>
donor molecule, donor type, donor heavy atom, donor atom, acceptor molecule, acceptor atom, score
      L1  H     3    64       P1 10747  1.00
      P1  H  6896  6907       L1    12  0.28
      P1  H  6896  6908       L1    21  0.39
      P1  H  7997  8008       L1    25  0.22

> <Gold.Chemscore.Hbond.Weighted>
-10.1193

> <Gold.Chemscore.Metal.Weighted>
-0.0000

> <Gold.Chemscore.Lipo.Weighted>
-11.2159

> <Gold.Chemscore.Internal_Hbond.Weighted>
0.0000

> <Gold.Chemscore.DEClash.Weighted>
0.1465

> <Gold.Chemscore.DEInternal.Weighted>
2.8801

> <Gold.Chemscore.Rot.Weighted>
7.4256

> <Gold.Chemscore.Internal.Correction.Weighted>
   9.000000E+99

> <Gold.Protein.RotatedTorsions>
[ 6907 6896 6895 6894 ] final -138.17 input  -60.11 | X-H torsion
[ 7974 7965 7964 7962 ] final -146.05 input  175.53 | X-H torsion
[ 8008 7997 7996 7995 ] final -116.63 input   59.86 | X-H torsion
[ 10167 10162 10161 10158 ] final   77.94 input  -65.29 | X-H torsion
[ 10718 10713 10712 10709 ] final -106.86 input   66.30 | X-H torsion
[ 10763 10752 10751 10750 ] final  166.91 input  -60.55 | X-H torsion
[ 11005 11000 10999 10996 ] final  -66.60 input  -57.11 | X-H torsion

> <Gold.Protein.ActiveResidues>
 VAL166  LYS551  ARG553  GLY616  TRP617  ASP618  TYR619  PRO620  LYS621  CYS622 
 ASP623  PHE694  ASN695  SER759  ASP760  ASP761  ALA762  ILE779  LEU786  VAL792 
 PHE793  MET794  SER795  GLU796  ALA797  LYS798  CYS799  TRP800  GLU811  SER814 

> <Gold.Protein.RotatedAtoms>
  151.0316  133.5785  159.2659 H   0  0  0  0  0  0  0  0  0  0  0  0  # atno 6907 bound_to 6896
  151.2865  135.0728  159.9198 H   0  0  0  0  0  0  0  0  0  0  0  0  # atno 6908 bound_to 6896
  152.5346  134.0022  159.7954 H   0  0  0  0  0  0  0  0  0  0  0  0  # atno 6909 bound_to 6896
  144.8185  140.5505  143.5594 H   0  0  0  0  0  0  0  0  0  0  0  0  # atno 7974 bound_to 7965
  155.0709  140.0393  157.2608 H   0  0  0  0  0  0  0  0  0  0  0  0  # atno 8008 bound_to 7997
  154.6983  140.2668  155.6720 H   0  0  0  0  0  0  0  0  0  0  0  0  # atno 8009 bound_to 7997
  156.2752  140.2745  156.1585 H   0  0  0  0  0  0  0  0  0  0  0  0  # atno 8010 bound_to 7997
  139.9763  144.5859  150.7941 H   0  0  0  0  0  0  0  0  0  0  0  0  # atno 10167 bound_to 10162
  156.0409  130.5634  150.7740 H   0  0  0  0  0  0  0  0  0  0  0  0  # atno 10718 bound_to 10713
  154.3460  135.2753  155.2397 H   0  0  0  0  0  0  0  0  0  0  0  0  # atno 10763 bound_to 10752
  154.4648  135.5898  153.6284 H   0  0  0  0  0  0  0  0  0  0  0  0  # atno 10764 bound_to 10752
  152.9853  135.6073  154.3665 H   0  0  0  0  0  0  0  0  0  0  0  0  # atno 10765 bound_to 10752
  141.1486  133.6702  156.6165 H   0  0  0  0  0  0  0  0  0  0  0  0  # atno 11005 bound_to 11000
  145.5158  139.1478  143.3579 LP  0  0  0  0  0  0  0  0  0  0  0  0  # atno 17320 bound_to 7965
  146.2490  140.5299  142.8901 LP  0  0  0  0  0  0  0  0  0  0  0  0  # atno 17321 bound_to 7965
  140.7505  143.2956  151.3214 LP  0  0  0  0  0  0  0  0  0  0  0  0  # atno 17342 bound_to 10162
  139.6443  144.0480  152.2579 LP  0  0  0  0  0  0  0  0  0  0  0  0  # atno 17343 bound_to 10162
  157.5226  131.0932  151.0059 LP  0  0  0  0  0  0  0  0  0  0  0  0  # atno 17370 bound_to 10713
  157.0386  130.5740  149.5353 LP  0  0  0  0  0  0  0  0  0  0  0  0  # atno 17371 bound_to 10713
  140.3574  134.7717  157.4510 LP  0  0  0  0  0  0  0  0  0  0  0  0  # atno 17394 bound_to 11000
  140.0812  134.5728  155.8538 LP  0  0  0  0  0  0  0  0  0  0  0  0  # atno 17395 bound_to 11000

$$$$
