AV-unprocessed.smi:2365|AV-procd|sdf|9419|dock1
  -GOLD-   2272013 53D 1   1.00000     0.00000
 Structure written by MMmdl.
 29 30  0  0  0  0  0  0  0  0  1 V2000
  154.5160  138.6280  163.7148 C   0  0  0  0  0  0  0  0  0  0  0  0
  153.7820  138.4847  162.3777 C   0  0  2  0  0  0  0  0  0  0  0  0
  152.9486  137.2151  162.2501 C   0  0  0  0  0  0  0  0  0  0  0  0
  152.8215  137.0432  160.7456 C   0  0  0  0  0  0  0  0  0  0  0  0
  154.0280  137.8133  160.1709 C   0  0  1  0  0  0  0  0  0  0  0  0
  153.6251  138.9458  159.2085 C   0  0  0  0  0  0  0  0  0  0  0  0
  153.9260  138.8613  158.0180 O   0  0  0  0  0  0  0  0  0  0  0  0
  152.9530  139.9811  159.7453 N   0  0  0  0  0  0  0  0  0  0  0  0
  152.4293  141.1278  159.0896 C   0  0  0  0  0  0  0  0  0  0  0  0
  152.0766  141.1423  157.7181 C   0  0  0  0  0  0  0  0  0  0  0  0
  151.6006  142.2342  157.0833 N   0  0  0  0  0  0  0  0  0  0  0  0
  151.4604  143.3704  157.7968 C   0  0  0  0  0  0  0  0  0  0  0  0
  151.7939  143.4744  159.1614 C   0  0  0  0  0  0  0  0  0  0  0  0
  151.5874  144.9768  159.9890 Cl  0  0  0  0  0  0  0  0  0  0  0  0
  152.2940  142.3305  159.8206 C   0  0  0  0  0  0  0  0  0  0  0  0
  152.7235  142.3986  161.4970 Cl  0  0  0  0  0  0  0  0  0  0  0  0
  154.7080  138.3441  161.3112 O   0  0  0  0  0  0  0  0  0  0  0  0
  153.8099  138.7010  164.5419 H   0  0  0  0  0  0  0  0  0  0  0  0
  155.1338  139.5261  163.7235 H   0  0  0  0  0  0  0  0  0  0  0  0
  155.1670  137.7740  163.9029 H   0  0  0  0  0  0  0  0  0  0  0  0
  153.1583  139.3619  162.1963 H   0  0  0  0  0  0  0  0  0  0  0  0
  153.4880  136.3657  162.6716 H   0  0  0  0  0  0  0  0  0  0  0  0
  151.9845  137.2878  162.7540 H   0  0  0  0  0  0  0  0  0  0  0  0
  152.8366  135.9904  160.4623 H   0  0  0  0  0  0  0  0  0  0  0  0
  151.8702  137.4575  160.4076 H   0  0  0  0  0  0  0  0  0  0  0  0
  154.7053  137.1389  159.6462 H   0  0  0  0  0  0  0  0  0  0  0  0
  152.6996  139.8800  160.7181 H   0  0  0  0  0  0  0  0  0  0  0  0
  152.1937  140.2698  157.0939 H   0  0  0  0  0  0  0  0  0  0  0  0
  151.0750  144.2249  157.2603 H   0  0  0  0  0  0  0  0  0  0  0  0
  1  2  1  0  0  0  0
  1 18  1  0  0  0  0
  1 19  1  0  0  0  0
  1 20  1  0  0  0  0
  2 17  1  0  0  0  0
  2  3  1  0  0  0  0
  2 21  1  0  0  0  0
  3  4  1  0  0  0  0
  3 22  1  0  0  0  0
  3 23  1  0  0  0  0
  4  5  1  0  0  0  0
  4 24  1  0  0  0  0
  4 25  1  0  0  0  0
  5  6  1  0  0  0  0
  5 17  1  0  0  0  0
  5 26  1  0  0  0  0
  6  7  2  0  0  0  0
  6  8  1  0  0  0  0
  8  9  1  0  0  0  0
  8 27  1  0  0  0  0
  9 15  1  0  0  0  0
  9 10  2  0  0  0  0
 10 11  1  0  0  0  0
 10 28  1  0  0  0  0
 11 12  2  0  0  0  0
 12 13  1  0  0  0  0
 12 29  1  0  0  0  0
 13 14  1  0  0  0  0
 13 15  2  0  0  0  0
 15 16  1  0  0  0  0
M  END
> <s_m_source_file>
AV-unprocessed.smi

> <i_m_source_file_index>
2365

> <i_lp_mmshare_version>
43012

> <i_f3d_flags>
0

> <s_epik_input>
W0NIM11bQ0BASF0xW0NIMl1bQ0gyXVtDQEhdKE8xKUMoPU8pW05IXWMyW2NIXW5bY0hdYyhDbCljMkNs

> <s_epik_cmdline>
J2VwaWtfcHl0aG9uJywgJy1waCcsICc3LjAnLCAnLXRuJywgJzgnLCAnLW1hJywgJzIwMCcsICctbWV0YWxfYmluZGluZycsICctaW1hZScsICc8aW5maWxlLm1hZT4nLCAnLW9tYWUnLCAnPG91dGZpbGUubWFlPic=

> <r_lp_tautomer_probability>
1

> <r_epik_Ionization_Penalty>
7.32461e-06

> <r_epik_Ionization_Penalty_Charging>
0

> <r_epik_Ionization_Penalty_Neutral>
7.32461e-06

> <r_epik_State_Penalty>
-0

> <r_epik_Charging_Adjusted_Penalty>
0

> <i_epik_Tot_Q>
0

> <i_epik_Tot_abs_Q>
0

> <r_epik_Metal_State_Penalty>
-0

> <b_epik_Metal_Only>
0

> <s_lp_Force_Field>
OPLS_2005

> <r_lp_Energy>
23.4255

> <b_lp_Chiralities_Consistent>
1

> <s_lp_Variant>
AV-unprocessed.smi:2365-1

> <Gold.Version>
5.8.1

> <Gold.Id.Protein>
6NUR|6NUR_protein|mol2

> <Gold.PLP.Fitness>
39.1601

> <Gold.PLP.PLP>
-33.6648

> <Gold.PLP.part.hbond>
-1.0000

> <Gold.PLP.part.metal>
0.0000

> <Gold.PLP.part.buried>
-3.8011

> <Gold.PLP.part.nonpolar>
-28.0704

> <Gold.PLP.part.repulsive>
0.1618

> <Gold.PLP.ligand.clash>
0.0000

> <Gold.PLP.ligand.torsion>
0.2561

> <Gold.PLP.Chemscore.Hbond>
1.0000

> <Gold.PLP.Chemscore.CHOScore>
1.0000

> <Gold.PLP.Chemscore.Metal>
0.0000

> <Gold.Chemscore.Hbonds>
donor molecule, donor type, donor heavy atom, donor atom, acceptor molecule, acceptor atom, score
      P1  H  7997  8008       L1     7  1.00
      L1  C    12    29       P1  8028  0.51

> <Gold.PLP.Chemscore.Internal.Correction>
0.0075

> <Gold.Rescore>
     Score         DG    S(hbond)    S(metal)    S(lipo)     H(rot)  DE(clash)    DE(int)     intcor
     17.14     -18.71       1.00        0.00     106.57       1.00       0.00       1.57       ----

> <Gold.Chemscore.Fitness>
17.1436

> <Gold.Chemscore.DG>
-18.7133

> <Gold.Chemscore.ZeroCoef>
-5.4800

> <Gold.Chemscore.Hbond>
0.9953

> <Gold.Chemscore.Metal>
0.0000

> <Gold.Chemscore.Lipo>
106.5729

> <Gold.Chemscore.Internal_Hbond>
0.0000

> <Gold.Chemscore.DEClash>
0.0009

> <Gold.Chemscore.DEInternal>
1.5688

> <Gold.Chemscore.Rot>
1.0000

> <Gold.Chemscore.Internal.Correction>
   9.000000E+99

> <Gold.Chemscore.Hbonds>
donor molecule, donor type, donor heavy atom, donor atom, acceptor molecule, acceptor atom, score
      P1  H  7997  8008       L1     7  0.99

> <Gold.Chemscore.Hbond.Weighted>
-3.3242

> <Gold.Chemscore.Metal.Weighted>
-0.0000

> <Gold.Chemscore.Lipo.Weighted>
-12.4690

> <Gold.Chemscore.Internal_Hbond.Weighted>
0.0000

> <Gold.Chemscore.DEClash.Weighted>
0.0009

> <Gold.Chemscore.DEInternal.Weighted>
1.5688

> <Gold.Chemscore.Rot.Weighted>
2.5600

> <Gold.Chemscore.Internal.Correction.Weighted>
   9.000000E+99

> <Gold.Protein.RotatedTorsions>
[ 6907 6896 6895 6894 ] final  108.00 input  -60.11 | X-H torsion
[ 7974 7965 7964 7962 ] final  -30.81 input  175.53 | X-H torsion
[ 8008 7997 7996 7995 ] final -101.77 input   59.86 | X-H torsion
[ 10167 10162 10161 10158 ] final -111.30 input  -65.29 | X-H torsion
[ 10718 10713 10712 10709 ] final   32.63 input   66.30 | X-H torsion
[ 10763 10752 10751 10750 ] final   -6.01 input  -60.55 | X-H torsion
[ 11005 11000 10999 10996 ] final  -85.09 input  -57.11 | X-H torsion

> <Gold.Protein.ActiveResidues>
 VAL166  LYS551  ARG553  GLY616  TRP617  ASP618  TYR619  PRO620  LYS621  CYS622 
 ASP623  PHE694  ASN695  SER759  ASP760  ASP761  ALA762  ILE779  LEU786  VAL792 
 PHE793  MET794  SER795  GLU796  ALA797  LYS798  CYS799  TRP800  GLU811  SER814 

> <Gold.Protein.RotatedAtoms>
  152.5131  133.9153  159.7507 H   0  0  0  0  0  0  0  0  0  0  0  0  # atno 6907 bound_to 6896
  150.9537  133.6512  159.2774 H   0  0  0  0  0  0  0  0  0  0  0  0  # atno 6908 bound_to 6896
  151.3782  135.0940  159.9540 H   0  0  0  0  0  0  0  0  0  0  0  0  # atno 6909 bound_to 6896
  146.1115  140.5588  142.8776 H   0  0  0  0  0  0  0  0  0  0  0  0  # atno 7974 bound_to 7965
  154.8473  140.0432  157.1581 H   0  0  0  0  0  0  0  0  0  0  0  0  # atno 8008 bound_to 7997
  154.8981  140.2996  155.5312 H   0  0  0  0  0  0  0  0  0  0  0  0  # atno 8009 bound_to 7997
  156.2995  140.2381  156.4005 H   0  0  0  0  0  0  0  0  0  0  0  0  # atno 8010 bound_to 7997
  140.1351  143.4327  152.1600 H   0  0  0  0  0  0  0  0  0  0  0  0  # atno 10167 bound_to 10162
  157.2877  130.7287  149.6593 H   0  0  0  0  0  0  0  0  0  0  0  0  # atno 10718 bound_to 10713
  153.4064  135.7006  153.6390 H   0  0  0  0  0  0  0  0  0  0  0  0  # atno 10763 bound_to 10752
  153.4902  135.3674  155.2488 H   0  0  0  0  0  0  0  0  0  0  0  0  # atno 10764 bound_to 10752
  154.8714  135.4087  154.3408 H   0  0  0  0  0  0  0  0  0  0  0  0  # atno 10765 bound_to 10752
  141.1644  133.7380  156.8963 H   0  0  0  0  0  0  0  0  0  0  0  0  # atno 11005 bound_to 11000
  144.7515  140.5203  143.6798 LP  0  0  0  0  0  0  0  0  0  0  0  0  # atno 17320 bound_to 7965
  145.5655  139.1481  143.3318 LP  0  0  0  0  0  0  0  0  0  0  0  0  # atno 17321 bound_to 7965
  139.5500  144.7330  151.4465 LP  0  0  0  0  0  0  0  0  0  0  0  0  # atno 17342 bound_to 10162
  140.6794  143.8117  150.7101 LP  0  0  0  0  0  0  0  0  0  0  0  0  # atno 17343 bound_to 10162
  155.9666  130.4318  150.4937 LP  0  0  0  0  0  0  0  0  0  0  0  0  # atno 17370 bound_to 10713
  157.2894  131.0623  151.2144 LP  0  0  0  0  0  0  0  0  0  0  0  0  # atno 17371 bound_to 10713
  140.1613  134.9163  157.2718 LP  0  0  0  0  0  0  0  0  0  0  0  0  # atno 17394 bound_to 11000
  140.2608  134.3574  155.7407 LP  0  0  0  0  0  0  0  0  0  0  0  0  # atno 17395 bound_to 11000

$$$$
