AV-unprocessed.smi:2229|AV-procd|sdf|9034|dock7
  -GOLD-   2272012243D 1   1.00000     0.00000
 Structure written by MMmdl.
 43 44  0  0  0  0  0  0  0  0  2 V2000
  152.7134  143.1580  160.9392 C   0  0  0  0  0  0  0  0  0  0  0  0
  152.5084  143.2241  159.4161 C   0  0  0  0  0  0  0  0  0  0  0  0
  152.1909  144.6637  158.9832 C   0  0  0  0  0  0  0  0  0  0  0  0
  151.4156  142.2534  158.9228 C   0  0  0  0  0  0  0  0  0  0  0  0
  151.2860  142.1791  157.3903 C   0  0  0  0  0  0  0  0  0  0  0  0
  150.0468  141.3948  156.9193 C   0  0  1  0  0  0  0  0  0  0  0  0
  148.7193  142.1279  157.1593 C   0  0  0  0  0  0  0  0  0  0  0  0
  147.7756  141.5676  156.1014 C   0  0  0  0  0  0  0  0  0  0  0  0
  148.6638  141.4066  154.8701 C   0  0  0  0  0  0  0  0  0  0  0  0
  150.0664  141.0679  155.4055 C   0  0  2  0  0  0  0  0  0  0  0  0
  150.3575  139.6564  155.1757 N   0  0  0  0  0  0  0  0  0  0  0  0
  151.5805  139.1111  155.0665 C   0  0  0  0  0  0  0  0  0  0  0  0
  152.6146  139.7758  155.1176 O   0  0  0  0  0  0  0  0  0  0  0  0
  151.6813  137.5886  154.8707 C   0  0  0  0  0  0  0  0  0  0  0  0
  151.0199  136.7865  155.9065 N   0  0  0  0  0  0  0  0  0  0  0  0
  149.6714  136.8516  156.1538 C   0  0  0  0  0  0  0  0  0  0  0  0
  149.3465  136.0648  157.1159 N   0  0  0  0  0  0  0  0  0  0  0  0
  150.5547  135.4266  157.5431 N   0  5  0  0  0  0  0  0  0  0  0  0
  151.5463  135.9078  156.7617 C   0  0  0  0  0  0  0  0  0  0  0  0
  152.7446  135.6314  156.7904 O   0  0  0  0  0  0  0  0  0  0  0  0
  151.7895  143.3807  161.4736 H   0  0  0  0  0  0  0  0  0  0  0  0
  153.4650  143.8780  161.2641 H   0  0  0  0  0  0  0  0  0  0  0  0
  153.0564  142.1745  161.2592 H   0  0  0  0  0  0  0  0  0  0  0  0
  153.4489  142.9445  158.9395 H   0  0  0  0  0  0  0  0  0  0  0  0
  151.2574  145.0133  159.4256 H   0  0  0  0  0  0  0  0  0  0  0  0
  152.0941  144.7384  157.8998 H   0  0  0  0  0  0  0  0  0  0  0  0
  152.9810  145.3504  159.2885 H   0  0  0  0  0  0  0  0  0  0  0  0
  151.6018  141.2562  159.3239 H   0  0  0  0  0  0  0  0  0  0  0  0
  150.4576  142.5695  159.3367 H   0  0  0  0  0  0  0  0  0  0  0  0
  151.2662  143.1856  156.9704 H   0  0  0  0  0  0  0  0  0  0  0  0
  152.1719  141.6965  156.9799 H   0  0  0  0  0  0  0  0  0  0  0  0
  150.0019  140.4569  157.4770 H   0  0  0  0  0  0  0  0  0  0  0  0
  148.3388  141.9844  158.1710 H   0  0  0  0  0  0  0  0  0  0  0  0
  148.8443  143.2000  157.0007 H   0  0  0  0  0  0  0  0  0  0  0  0
  147.4029  140.5924  156.4180 H   0  0  0  0  0  0  0  0  0  0  0  0
  146.9161  142.2129  155.9187 H   0  0  0  0  0  0  0  0  0  0  0  0
  148.2720  140.6631  154.1743 H   0  0  0  0  0  0  0  0  0  0  0  0
  148.7051  142.3552  154.3333 H   0  0  0  0  0  0  0  0  0  0  0  0
  150.7958  141.6856  154.8778 H   0  0  0  0  0  0  0  0  0  0  0  0
  149.5643  139.0326  155.1273 H   0  0  0  0  0  0  0  0  0  0  0  0
  151.2779  137.3403  153.8874 H   0  0  0  0  0  0  0  0  0  0  0  0
  152.7375  137.3172  154.8391 H   0  0  0  0  0  0  0  0  0  0  0  0
  149.0351  137.5138  155.5643 H   0  0  0  0  0  0  0  0  0  0  0  0
  1  2  1  0  0  0  0
  1 21  1  0  0  0  0
  1 22  1  0  0  0  0
  1 23  1  0  0  0  0
  2  3  1  0  0  0  0
  2  4  1  0  0  0  0
  2 24  1  0  0  0  0
  3 25  1  0  0  0  0
  3 26  1  0  0  0  0
  3 27  1  0  0  0  0
  4  5  1  0  0  0  0
  4 28  1  0  0  0  0
  4 29  1  0  0  0  0
  5  6  1  0  0  0  0
  5 30  1  0  0  0  0
  5 31  1  0  0  0  0
  6 10  1  0  0  0  0
  6  7  1  0  0  0  0
  6 32  1  0  0  0  0
  7  8  1  0  0  0  0
  7 33  1  0  0  0  0
  7 34  1  0  0  0  0
  8  9  1  0  0  0  0
  8 35  1  0  0  0  0
  8 36  1  0  0  0  0
  9 10  1  0  0  0  0
  9 37  1  0  0  0  0
  9 38  1  0  0  0  0
 10 11  1  0  0  0  0
 10 39  1  0  0  0  0
 11 12  1  0  0  0  0
 11 40  1  0  0  0  0
 12 13  2  0  0  0  0
 12 14  1  0  0  0  0
 14 15  1  0  0  0  0
 14 41  1  0  0  0  0
 14 42  1  0  0  0  0
 15 19  1  0  0  0  0
 15 16  1  0  0  0  0
 16 17  2  0  0  0  0
 16 43  1  0  0  0  0
 17 18  1  0  0  0  0
 18 19  1  0  0  0  0
 19 20  2  0  0  0  0
M  CHG  1  18  -1
M  END
> <s_m_source_file>
AV-unprocessed.smi

> <i_m_source_file_index>
2229

> <i_lp_mmshare_version>
43012

> <i_f3d_flags>
0

> <s_epik_input>
W0NIM11bQ0hdKFtDSDNdKVtDSDJdW0NIMl1bQ0BASF0xW0NIMl1bQ0gyXVtDSDJdW0NASF0xW05IXUMoPU8pW0NIMl1uMltjSF1uW25IXWMyPU8=

> <s_epik_cmdline>
J2VwaWtfcHl0aG9uJywgJy1waCcsICc3LjAnLCAnLXRuJywgJzgnLCAnLW1hJywgJzIwMCcsICctbWV0YWxfYmluZGluZycsICctaW1hZScsICc8aW5maWxlLm1hZT4nLCAnLW9tYWUnLCAnPG91dGZpbGUubWFlPic=

> <r_lp_tautomer_probability>
1

> <r_epik_Ionization_Penalty>
13.6733

> <r_epik_Ionization_Penalty_Charging>
13.6725

> <r_epik_Ionization_Penalty_Neutral>
0.000837689

> <r_epik_State_Penalty>
5.67062

> <r_epik_Charging_Adjusted_Penalty>
19.3431

> <i_epik_Tot_Q>
-1

> <i_epik_Tot_abs_Q>
1

> <r_epik_Metal_State_Penalty>
1.61781

> <b_epik_Metal_Only>
1

> <s_lp_Force_Field>
OPLS_2005

> <r_lp_Energy>
24.9867

> <b_lp_Chiralities_Consistent>
1

> <s_lp_Variant>
AV-unprocessed.smi:2229-8

> <Gold.Version>
5.8.1

> <Gold.Id.Protein>
6NUR|6NUR_protein|mol2

> <Gold.PLP.Fitness>
45.4151

> <Gold.PLP.PLP>
-36.6055

> <Gold.PLP.part.hbond>
-3.9836

> <Gold.PLP.part.metal>
0.0000

> <Gold.PLP.part.buried>
-3.7590

> <Gold.PLP.part.nonpolar>
-30.3708

> <Gold.PLP.part.repulsive>
0.0862

> <Gold.PLP.ligand.clash>
0.0000

> <Gold.PLP.ligand.torsion>
0.4791

> <Gold.PLP.Chemscore.Hbond>
3.2469

> <Gold.PLP.Chemscore.CHOScore>
0.0000

> <Gold.PLP.Chemscore.Metal>
0.0000

> <Gold.Chemscore.Hbonds>
donor molecule, donor type, donor heavy atom, donor atom, acceptor molecule, acceptor atom, score
      P1  H  6896  6908       L1    18  0.74
      P1  H  7989  7998       L1    13  0.06
      P1  H  7997  8008       L1    13  0.98
      P1  H 10752 10763       L1    20  1.00

> <Gold.PLP.Chemscore.Internal.Correction>
0.0271

> <Gold.Rescore>
     Score         DG    S(hbond)    S(metal)    S(lipo)     H(rot)  DE(clash)    DE(int)     intcor
     15.98     -17.52       2.43        0.00      90.20       2.59       1.01       0.53       ----

> <Gold.Chemscore.Fitness>
15.9845

> <Gold.Chemscore.DG>
-17.5243

> <Gold.Chemscore.ZeroCoef>
-5.4800

> <Gold.Chemscore.Hbond>
2.4346

> <Gold.Chemscore.Metal>
0.0000

> <Gold.Chemscore.Lipo>
90.1992

> <Gold.Chemscore.Internal_Hbond>
0.0000

> <Gold.Chemscore.DEClash>
1.0051

> <Gold.Chemscore.DEInternal>
0.5346

> <Gold.Chemscore.Rot>
2.5939

> <Gold.Chemscore.Internal.Correction>
   9.000000E+99

> <Gold.Chemscore.Hbonds>
donor molecule, donor type, donor heavy atom, donor atom, acceptor molecule, acceptor atom, score
      P1  H  6896  6908       L1    18  0.35
      P1  H  7997  8008       L1    13  0.91
      P1  H 10752 10763       L1    20  0.94

> <Gold.Chemscore.Hbond.Weighted>
-8.1314

> <Gold.Chemscore.Metal.Weighted>
-0.0000

> <Gold.Chemscore.Lipo.Weighted>
-10.5533

> <Gold.Chemscore.Internal_Hbond.Weighted>
0.0000

> <Gold.Chemscore.DEClash.Weighted>
1.0051

> <Gold.Chemscore.DEInternal.Weighted>
0.5346

> <Gold.Chemscore.Rot.Weighted>
6.6405

> <Gold.Chemscore.Internal.Correction.Weighted>
   9.000000E+99

> <Gold.Protein.RotatedTorsions>
[ 6907 6896 6895 6894 ] final  166.36 input  -60.11 | X-H torsion
[ 7974 7965 7964 7962 ] final  139.22 input  175.53 | X-H torsion
[ 8008 7997 7996 7995 ] final  -28.55 input   59.86 | X-H torsion
[ 10167 10162 10161 10158 ] final   35.44 input  -65.29 | X-H torsion
[ 10718 10713 10712 10709 ] final   43.43 input   66.30 | X-H torsion
[ 10763 10752 10751 10750 ] final  115.59 input  -60.55 | X-H torsion
[ 11005 11000 10999 10996 ] final -124.84 input  -57.11 | X-H torsion

> <Gold.Protein.ActiveResidues>
 VAL166  LYS551  ARG553  GLY616  TRP617  ASP618  TYR619  PRO620  LYS621  CYS622 
 ASP623  PHE694  ASN695  SER759  ASP760  ASP761  ALA762  ILE779  LEU786  VAL792 
 PHE793  MET794  SER795  GLU796  ALA797  LYS798  CYS799  TRP800  GLU811  SER814 

> <Gold.Protein.RotatedAtoms>
  151.8801  133.3493  159.3763 H   0  0  0  0  0  0  0  0  0  0  0  0  # atno 6907 bound_to 6896
  150.7130  134.5027  159.5578 H   0  0  0  0  0  0  0  0  0  0  0  0  # atno 6908 bound_to 6896
  152.2577  134.8067  160.0487 H   0  0  0  0  0  0  0  0  0  0  0  0  # atno 6909 bound_to 6896
  144.9299  139.5060  143.5623 H   0  0  0  0  0  0  0  0  0  0  0  0  # atno 7974 bound_to 7965
  154.4327  140.1842  156.1107 H   0  0  0  0  0  0  0  0  0  0  0  0  # atno 8008 bound_to 7997
  156.0220  140.3340  155.7023 H   0  0  0  0  0  0  0  0  0  0  0  0  # atno 8009 bound_to 7997
  155.5963  140.0636  157.2736 H   0  0  0  0  0  0  0  0  0  0  0  0  # atno 8010 bound_to 7997
  140.4222  144.1444  150.6149 H   0  0  0  0  0  0  0  0  0  0  0  0  # atno 10167 bound_to 10162
  157.4158  130.7940  149.7471 H   0  0  0  0  0  0  0  0  0  0  0  0  # atno 10718 bound_to 10713
  153.5245  135.3591  155.2647 H   0  0  0  0  0  0  0  0  0  0  0  0  # atno 10763 bound_to 10752
  154.8732  135.4053  154.3222 H   0  0  0  0  0  0  0  0  0  0  0  0  # atno 10764 bound_to 10752
  153.3899  135.7071  153.6570 H   0  0  0  0  0  0  0  0  0  0  0  0  # atno 10765 bound_to 10752
  140.9809  134.0674  157.3766 H   0  0  0  0  0  0  0  0  0  0  0  0  # atno 11005 bound_to 11000
  146.3242  139.8241  142.8921 LP  0  0  0  0  0  0  0  0  0  0  0  0  # atno 17320 bound_to 7965
  145.3159  141.0231  143.3528 LP  0  0  0  0  0  0  0  0  0  0  0  0  # atno 17321 bound_to 7965
  140.4521  143.2482  151.9334 LP  0  0  0  0  0  0  0  0  0  0  0  0  # atno 17342 bound_to 10162
  139.4783  144.5552  151.8325 LP  0  0  0  0  0  0  0  0  0  0  0  0  # atno 17343 bound_to 10162
  155.9865  130.3974  150.3211 LP  0  0  0  0  0  0  0  0  0  0  0  0  # atno 17370 bound_to 10713
  157.1354  131.0282  151.2951 LP  0  0  0  0  0  0  0  0  0  0  0  0  # atno 17371 bound_to 10713
  139.8950  135.0138  156.6978 LP  0  0  0  0  0  0  0  0  0  0  0  0  # atno 17394 bound_to 11000
  140.7188  133.9159  155.8133 LP  0  0  0  0  0  0  0  0  0  0  0  0  # atno 17395 bound_to 11000

$$$$
