AV-unprocessed.smi:1997|AV-procd|sdf|8087|dock5
  -GOLD-   2272010303D 1   1.00000     0.00000
 Structure written by MMmdl.
 37 39  0  0  0  0  0  0  0  0  1 V2000
  150.1817  139.6981  157.4194 O   0  0  0  0  0  0  0  0  0  0  0  0
  151.3543  139.4954  157.7353 C   0  0  0  0  0  0  0  0  0  0  0  0
  152.0274  138.3485  157.5364 N   0  0  0  0  0  0  0  0  0  0  0  0
  151.5559  137.1394  156.9604 C   0  0  0  0  0  0  0  0  0  0  0  0
  152.3232  136.0585  156.7635 N   0  0  0  0  0  0  0  0  0  0  0  0
  151.6135  135.0196  156.1775 N   0  0  0  0  0  0  0  0  0  0  0  0
  150.3354  135.3436  155.9474 C   0  0  0  0  0  0  0  0  0  0  0  0
  149.3740  134.3930  155.3155 C   0  0  0  0  0  0  0  0  0  0  0  0
  149.8064  132.9948  154.9373 C   0  0  0  0  0  0  0  0  0  0  0  0
  149.4905  133.9993  153.8589 C   0  0  0  0  0  0  0  0  0  0  0  0
  149.8865  136.9713  156.4464 S   0  0  0  0  0  0  0  0  0  0  0  0
  152.1290  140.4140  158.3328 N   0  0  0  0  0  0  0  0  0  0  0  0
  151.7147  141.7732  158.6886 C   0  0  1  0  0  0  0  0  0  0  0  0
  152.9744  142.5365  159.1586 C   0  0  0  0  0  0  0  0  0  0  0  0
  152.6680  143.7502  160.0534 C   0  0  0  0  0  0  0  0  0  0  0  0
  151.8990  144.8874  159.3639 C   0  0  0  0  0  0  0  0  0  0  0  0
  150.4991  144.4792  158.8741 C   0  0  0  0  0  0  0  0  0  0  0  0
  150.5534  143.7096  157.6382 N   0  0  0  0  0  0  0  0  0  0  0  0
  151.1075  142.4999  157.4655 C   0  0  0  0  0  0  0  0  0  0  0  0
  151.1357  141.9826  156.3490 O   0  0  0  0  0  0  0  0  0  0  0  0
  152.9882  138.3344  157.8447 H   0  0  0  0  0  0  0  0  0  0  0  0
  148.3758  134.5239  155.7287 H   0  0  0  0  0  0  0  0  0  0  0  0
  150.8517  132.7308  155.0859 H   0  0  0  0  0  0  0  0  0  0  0  0
  149.0940  132.1886  155.0988 H   0  0  0  0  0  0  0  0  0  0  0  0
  148.5667  133.8629  153.3007 H   0  0  0  0  0  0  0  0  0  0  0  0
  150.3280  134.3893  153.2841 H   0  0  0  0  0  0  0  0  0  0  0  0
  153.0827  140.1631  158.5469 H   0  0  0  0  0  0  0  0  0  0  0  0
  150.9822  141.7217  159.4961 H   0  0  0  0  0  0  0  0  0  0  0  0
  153.6011  141.8614  159.7439 H   0  0  0  0  0  0  0  0  0  0  0  0
  153.5888  142.8393  158.3087 H   0  0  0  0  0  0  0  0  0  0  0  0
  152.1145  143.4198  160.9333 H   0  0  0  0  0  0  0  0  0  0  0  0
  153.6103  144.1497  160.4298 H   0  0  0  0  0  0  0  0  0  0  0  0
  151.7897  145.7033  160.0789 H   0  0  0  0  0  0  0  0  0  0  0  0
  152.4843  145.2921  158.5370 H   0  0  0  0  0  0  0  0  0  0  0  0
  149.9545  143.9307  159.6441 H   0  0  0  0  0  0  0  0  0  0  0  0
  149.9163  145.3770  158.6672 H   0  0  0  0  0  0  0  0  0  0  0  0
  150.1558  144.1512  156.8217 H   0  0  0  0  0  0  0  0  0  0  0  0
  1  2  2  0  0  0  0
  2  3  1  0  0  0  0
  2 12  1  0  0  0  0
  3  4  1  0  0  0  0
  3 21  1  0  0  0  0
  4 11  1  0  0  0  0
  4  5  2  0  0  0  0
  5  6  1  0  0  0  0
  6  7  2  0  0  0  0
  7  8  1  0  0  0  0
  7 11  1  0  0  0  0
  8 10  1  0  0  0  0
  8  9  1  0  0  0  0
  8 22  1  0  0  0  0
  9 10  1  0  0  0  0
  9 23  1  0  0  0  0
  9 24  1  0  0  0  0
 10 25  1  0  0  0  0
 10 26  1  0  0  0  0
 12 13  1  0  0  0  0
 12 27  1  0  0  0  0
 13 19  1  0  0  0  0
 13 14  1  0  0  0  0
 13 28  1  0  0  0  0
 14 15  1  0  0  0  0
 14 29  1  0  0  0  0
 14 30  1  0  0  0  0
 15 16  1  0  0  0  0
 15 31  1  0  0  0  0
 15 32  1  0  0  0  0
 16 17  1  0  0  0  0
 16 33  1  0  0  0  0
 16 34  1  0  0  0  0
 17 18  1  0  0  0  0
 17 35  1  0  0  0  0
 17 36  1  0  0  0  0
 18 19  1  0  0  0  0
 18 37  1  0  0  0  0
 19 20  2  0  0  0  0
M  END
> <s_m_source_file>
AV-unprocessed.smi

> <i_m_source_file_index>
1997

> <i_lp_mmshare_version>
43012

> <i_f3d_flags>
0

> <s_epik_input>
W0NIMl0xW0NIMl1bQ0hdMWMoczIpbm5jMltOSF1DKD1PKVtOSF1bQ0BASF0zW0NIMl1bQ0gyXVtDSDJdW0NIMl1bTkhdQzM9Tw==

> <s_epik_cmdline>
J2VwaWtfcHl0aG9uJywgJy1waCcsICc3LjAnLCAnLXRuJywgJzgnLCAnLW1hJywgJzIwMCcsICctbWV0YWxfYmluZGluZycsICctaW1hZScsICc8aW5maWxlLm1hZT4nLCAnLW9tYWUnLCAnPG91dGZpbGUubWFlPic=

> <r_lp_tautomer_probability>
1

> <r_epik_Ionization_Penalty>
0.000421558

> <r_epik_Ionization_Penalty_Charging>
0

> <r_epik_Ionization_Penalty_Neutral>
0.000421558

> <r_epik_State_Penalty>
-0

> <r_epik_Charging_Adjusted_Penalty>
0

> <i_epik_Tot_Q>
0

> <i_epik_Tot_abs_Q>
0

> <r_epik_Metal_State_Penalty>
0.200761

> <b_epik_Metal_Only>
0

> <s_lp_Force_Field>
OPLS_2005

> <r_lp_Energy>
8.5849

> <b_lp_Chiralities_Consistent>
1

> <s_lp_Variant>
AV-unprocessed.smi:1997-2

> <Gold.Version>
5.8.1

> <Gold.Id.Protein>
6NUR|6NUR_protein|mol2

> <Gold.PLP.Fitness>
35.4101

> <Gold.PLP.PLP>
-32.5875

> <Gold.PLP.part.hbond>
-3.0000

> <Gold.PLP.part.metal>
0.0000

> <Gold.PLP.part.buried>
-4.5892

> <Gold.PLP.part.nonpolar>
-24.6866

> <Gold.PLP.part.repulsive>
0.2543

> <Gold.PLP.ligand.clash>
0.0000

> <Gold.PLP.ligand.torsion>
0.1516

> <Gold.PLP.Chemscore.Hbond>
1.0000

> <Gold.PLP.Chemscore.CHOScore>
0.0000

> <Gold.PLP.Chemscore.Metal>
0.0000

> <Gold.Chemscore.Hbonds>
donor molecule, donor type, donor heavy atom, donor atom, acceptor molecule, acceptor atom, score
      L1  H    18    37       P1  8028  1.00

> <Gold.PLP.Chemscore.Internal.Correction>
0.1258

> <Gold.Rescore>
     Score         DG    S(hbond)    S(metal)    S(lipo)     H(rot)  DE(clash)    DE(int)     intcor
     11.98     -15.02       1.36        0.00      70.78       1.29       0.01       3.04       ----

> <Gold.Chemscore.Fitness>
11.9765

> <Gold.Chemscore.DG>
-15.0205

> <Gold.Chemscore.ZeroCoef>
-5.4800

> <Gold.Chemscore.Hbond>
1.3628

> <Gold.Chemscore.Metal>
0.0000

> <Gold.Chemscore.Lipo>
70.7789

> <Gold.Chemscore.Internal_Hbond>
0.0000

> <Gold.Chemscore.DEClash>
0.0089

> <Gold.Chemscore.DEInternal>
3.0351

> <Gold.Chemscore.Rot>
1.2860

> <Gold.Chemscore.Internal.Correction>
   9.000000E+99

> <Gold.Chemscore.Hbonds>
donor molecule, donor type, donor heavy atom, donor atom, acceptor molecule, acceptor atom, score
      L1  H    18    37       P1  8028  0.96

> <Gold.Chemscore.Hbond.Weighted>
-4.5516

> <Gold.Chemscore.Metal.Weighted>
-0.0000

> <Gold.Chemscore.Lipo.Weighted>
-8.2811

> <Gold.Chemscore.Internal_Hbond.Weighted>
0.0000

> <Gold.Chemscore.DEClash.Weighted>
0.0089

> <Gold.Chemscore.DEInternal.Weighted>
3.0351

> <Gold.Chemscore.Rot.Weighted>
3.2923

> <Gold.Chemscore.Internal.Correction.Weighted>
   9.000000E+99

> <Gold.Protein.RotatedTorsions>
[ 6907 6896 6895 6894 ] final  134.21 input  -60.11 | X-H torsion
[ 7974 7965 7964 7962 ] final  112.30 input  175.53 | X-H torsion
[ 8008 7997 7996 7995 ] final   51.19 input   59.86 | X-H torsion
[ 10167 10162 10161 10158 ] final -172.35 input  -65.29 | X-H torsion
[ 10718 10713 10712 10709 ] final -103.06 input   66.30 | X-H torsion
[ 10763 10752 10751 10750 ] final -132.25 input  -60.55 | X-H torsion
[ 11005 11000 10999 10996 ] final  -81.27 input  -57.11 | X-H torsion

> <Gold.Protein.ActiveResidues>
 VAL166  LYS551  ARG553  GLY616  TRP617  ASP618  TYR619  PRO620  LYS621  CYS622 
 ASP623  PHE694  ASN695  SER759  ASP760  ASP761  ALA762  ILE779  LEU786  VAL792 
 PHE793  MET794  SER795  GLU796  ALA797  LYS798  CYS799  TRP800  GLU811  SER814 

> <Gold.Protein.RotatedAtoms>
  152.3138  133.5780  159.5698 H   0  0  0  0  0  0  0  0  0  0  0  0  # atno 6907 bound_to 6896
  150.7336  134.0113  159.3679 H   0  0  0  0  0  0  0  0  0  0  0  0  # atno 6908 bound_to 6896
  151.8004  135.0711  160.0450 H   0  0  0  0  0  0  0  0  0  0  0  0  # atno 6909 bound_to 6896
  145.2313  139.2818  143.4166 H   0  0  0  0  0  0  0  0  0  0  0  0  # atno 7974 bound_to 7965
  155.4312  140.3450  155.4280 H   0  0  0  0  0  0  0  0  0  0  0  0  # atno 8008 bound_to 7997
  156.1335  140.1521  156.9060 H   0  0  0  0  0  0  0  0  0  0  0  0  # atno 8009 bound_to 7997
  154.4913  140.0840  156.7581 H   0  0  0  0  0  0  0  0  0  0  0  0  # atno 8010 bound_to 7997
  139.5749  144.1555  152.1437 H   0  0  0  0  0  0  0  0  0  0  0  0  # atno 10167 bound_to 10162
  156.0251  130.5449  150.7199 H   0  0  0  0  0  0  0  0  0  0  0  0  # atno 10718 bound_to 10713
  154.8744  135.3804  154.4379 H   0  0  0  0  0  0  0  0  0  0  0  0  # atno 10763 bound_to 10752
  153.5067  135.7030  153.5808 H   0  0  0  0  0  0  0  0  0  0  0  0  # atno 10764 bound_to 10752
  153.4115  135.3923  155.2020 H   0  0  0  0  0  0  0  0  0  0  0  0  # atno 10765 bound_to 10752
  141.1667  133.7188  156.8397 H   0  0  0  0  0  0  0  0  0  0  0  0  # atno 11005 bound_to 11000
  146.3352  140.2649  142.8603 LP  0  0  0  0  0  0  0  0  0  0  0  0  # atno 17320 bound_to 7965
  144.9674  140.8335  143.5476 LP  0  0  0  0  0  0  0  0  0  0  0  0  # atno 17321 bound_to 7965
  140.1095  144.5469  150.6934 LP  0  0  0  0  0  0  0  0  0  0  0  0  # atno 17342 bound_to 10162
  140.7032  143.2449  151.4802 LP  0  0  0  0  0  0  0  0  0  0  0  0  # atno 17343 bound_to 10162
  157.4817  131.0903  151.0529 LP  0  0  0  0  0  0  0  0  0  0  0  0  # atno 17370 bound_to 10713
  157.0960  130.5962  149.5450 LP  0  0  0  0  0  0  0  0  0  0  0  0  # atno 17371 bound_to 10713
  140.1992  134.8909  157.3149 LP  0  0  0  0  0  0  0  0  0  0  0  0  # atno 17394 bound_to 11000
  140.2206  134.4028  155.7568 LP  0  0  0  0  0  0  0  0  0  0  0  0  # atno 17395 bound_to 11000

$$$$
