AV-unprocessed.smi:2275|AV-procd|sdf|9170|dock8
  -GOLD-   2272012383D 1   1.00000     0.00000
 Structure written by MMmdl.
 38 39  0  0  0  0  0  0  0  0  1 V2000
  152.3267  144.0785  160.9272 C   0  0  0  0  0  0  0  0  0  0  0  0
  152.1346  143.1637  159.7305 C   0  0  0  0  0  0  0  0  0  0  0  0
  151.2343  143.6178  158.7622 N   0  0  0  0  0  0  0  0  0  0  0  0
  151.0019  142.9012  157.7114 C   0  0  0  0  0  0  0  0  0  0  0  0
  151.6347  141.6642  157.5074 N   0  0  0  0  0  0  0  0  0  0  0  0
  151.2787  140.9458  156.2725 C   0  0  0  0  0  0  0  0  0  0  0  0
  150.1763  139.8888  156.5066 C   0  0  2  0  0  0  0  0  0  0  0  0
  150.1193  138.9836  155.4222 O   0  0  0  0  0  0  0  0  0  0  0  0
  148.7773  140.5058  156.6769 C   0  0  0  0  0  0  0  0  0  0  0  0
  148.2932  140.9696  155.4219 O   0  0  0  0  0  0  0  0  0  0  0  0
  147.2281  141.8445  155.4145 C   0  0  0  0  0  0  0  0  0  0  0  0
  146.8344  142.3611  154.1626 C   0  0  0  0  0  0  0  0  0  0  0  0
  145.7560  143.2607  154.0600 C   0  0  0  0  0  0  0  0  0  0  0  0
  145.0565  143.6544  155.2156 C   0  0  0  0  0  0  0  0  0  0  0  0
  145.4389  143.1480  156.4716 C   0  0  0  0  0  0  0  0  0  0  0  0
  146.5182  142.2486  156.5739 C   0  0  0  0  0  0  0  0  0  0  0  0
  152.5383  141.1548  158.3940 C   0  0  0  0  0  0  0  0  0  0  0  0
  153.1041  140.0783  158.1938 O   0  0  0  0  0  0  0  0  0  0  0  0
  152.7855  141.9767  159.5898 C   0  0  0  0  0  0  0  0  0  0  0  0
  153.7744  141.4306  160.6120 C   0  0  0  0  0  0  0  0  0  0  0  0
  152.0283  143.5726  161.8458 H   0  0  0  0  0  0  0  0  0  0  0  0
  151.7273  144.9852  160.8346 H   0  0  0  0  0  0  0  0  0  0  0  0
  153.3714  144.3776  161.0163 H   0  0  0  0  0  0  0  0  0  0  0  0
  150.3111  143.2114  156.9254 H   0  0  0  0  0  0  0  0  0  0  0  0
  150.9264  141.6753  155.5407 H   0  0  0  0  0  0  0  0  0  0  0  0
  152.1500  140.4901  155.7971 H   0  0  0  0  0  0  0  0  0  0  0  0
  150.3929  139.3069  157.4033 H   0  0  0  0  0  0  0  0  0  0  0  0
  150.5490  138.1814  155.6761 H   0  0  0  0  0  0  0  0  0  0  0  0
  148.0929  139.7802  157.1204 H   0  0  0  0  0  0  0  0  0  0  0  0
  148.8511  141.3520  157.3617 H   0  0  0  0  0  0  0  0  0  0  0  0
  147.3652  142.0633  153.2703 H   0  0  0  0  0  0  0  0  0  0  0  0
  145.4658  143.6480  153.0945 H   0  0  0  0  0  0  0  0  0  0  0  0
  144.2287  144.3439  155.1383 H   0  0  0  0  0  0  0  0  0  0  0  0
  144.9033  143.4495  157.3599 H   0  0  0  0  0  0  0  0  0  0  0  0
  146.7820  141.8830  157.5547 H   0  0  0  0  0  0  0  0  0  0  0  0
  154.7570  141.3064  160.1559 H   0  0  0  0  0  0  0  0  0  0  0  0
  153.4433  140.4563  160.9732 H   0  0  0  0  0  0  0  0  0  0  0  0
  153.8951  142.0760  161.4803 H   0  0  0  0  0  0  0  0  0  0  0  0
  1  2  1  0  0  0  0
  1 21  1  0  0  0  0
  1 22  1  0  0  0  0
  1 23  1  0  0  0  0
  2 19  2  0  0  0  0
  2  3  1  0  0  0  0
  3  4  2  0  0  0  0
  4  5  1  0  0  0  0
  4 24  1  0  0  0  0
  5  6  1  0  0  0  0
  5 17  1  0  0  0  0
  6  7  1  0  0  0  0
  6 25  1  0  0  0  0
  6 26  1  0  0  0  0
  7  8  1  0  0  0  0
  7  9  1  0  0  0  0
  7 27  1  0  0  0  0
  8 28  1  0  0  0  0
  9 10  1  0  0  0  0
  9 29  1  0  0  0  0
  9 30  1  0  0  0  0
 10 11  1  0  0  0  0
 11 16  1  0  0  0  0
 11 12  2  0  0  0  0
 12 13  1  0  0  0  0
 12 31  1  0  0  0  0
 13 14  2  0  0  0  0
 13 32  1  0  0  0  0
 14 15  1  0  0  0  0
 14 33  1  0  0  0  0
 15 16  2  0  0  0  0
 15 34  1  0  0  0  0
 16 35  1  0  0  0  0
 17 18  2  0  0  0  0
 17 19  1  0  0  0  0
 19 20  1  0  0  0  0
 20 36  1  0  0  0  0
 20 37  1  0  0  0  0
 20 38  1  0  0  0  0
M  END
> <s_m_source_file>
AV-unprocessed.smi

> <i_m_source_file_index>
2275

> <i_lp_mmshare_version>
43012

> <i_f3d_flags>
0

> <s_epik_input>
W0NIM11jMW5bY0hdbihjKD1PKWMxW0NIM10pW0NIMl1bQ0BIXShbT0hdKVtDSDJdT2MyW2NIXVtjSF1bY0hdW2NIXVtjSF0y

> <s_epik_cmdline>
J2VwaWtfcHl0aG9uJywgJy1waCcsICc3LjAnLCAnLXRuJywgJzgnLCAnLW1hJywgJzIwMCcsICctbWV0YWxfYmluZGluZycsICctaW1hZScsICc8aW5maWxlLm1hZT4nLCAnLW9tYWUnLCAnPG91dGZpbGUubWFlPic=

> <r_lp_tautomer_probability>
1

> <r_epik_Ionization_Penalty>
4.18311e-05

> <r_epik_Ionization_Penalty_Charging>
1.04093e-07

> <r_epik_Ionization_Penalty_Neutral>
4.1727e-05

> <r_epik_State_Penalty>
-0

> <r_epik_Charging_Adjusted_Penalty>
1.04093e-07

> <i_epik_Tot_Q>
0

> <i_epik_Tot_abs_Q>
0

> <r_epik_Metal_State_Penalty>
-0

> <b_epik_Metal_Only>
0

> <s_lp_Force_Field>
OPLS_2005

> <r_lp_Energy>
24.2901

> <b_lp_Chiralities_Consistent>
1

> <s_lp_Variant>
AV-unprocessed.smi:2275-1

> <Gold.Version>
5.8.1

> <Gold.Id.Protein>
6NUR|6NUR_protein|mol2

> <Gold.PLP.Fitness>
44.7849

> <Gold.PLP.PLP>
-39.9397

> <Gold.PLP.part.hbond>
-1.0000

> <Gold.PLP.part.metal>
0.0000

> <Gold.PLP.part.buried>
-6.3992

> <Gold.PLP.part.nonpolar>
-32.0370

> <Gold.PLP.part.repulsive>
0.1845

> <Gold.PLP.ligand.clash>
0.0000

> <Gold.PLP.ligand.torsion>
0.6157

> <Gold.PLP.Chemscore.Hbond>
1.0000

> <Gold.PLP.Chemscore.CHOScore>
1.0000

> <Gold.PLP.Chemscore.Metal>
0.0000

> <Gold.Chemscore.Hbonds>
donor molecule, donor type, donor heavy atom, donor atom, acceptor molecule, acceptor atom, score
      P1  H  7997  8008       L1    18  1.00
      L1  C     4    24       P1  8028  1.00

> <Gold.PLP.Chemscore.Internal.Correction>
0.0767

> <Gold.Rescore>
     Score         DG    S(hbond)    S(metal)    S(lipo)     H(rot)  DE(clash)    DE(int)     intcor
     12.20     -12.90       0.94        0.00      88.73       2.38       0.05       0.65       ----

> <Gold.Chemscore.Fitness>
12.1960

> <Gold.Chemscore.DG>
-12.8964

> <Gold.Chemscore.ZeroCoef>
-5.4800

> <Gold.Chemscore.Hbond>
0.9386

> <Gold.Chemscore.Metal>
0.0000

> <Gold.Chemscore.Lipo>
88.7282

> <Gold.Chemscore.Internal_Hbond>
0.0000

> <Gold.Chemscore.DEClash>
0.0537

> <Gold.Chemscore.DEInternal>
0.6467

> <Gold.Chemscore.Rot>
2.3826

> <Gold.Chemscore.Internal.Correction>
   9.000000E+99

> <Gold.Chemscore.Hbonds>
donor molecule, donor type, donor heavy atom, donor atom, acceptor molecule, acceptor atom, score
      P1  H  7997  8008       L1    18  0.92

> <Gold.Chemscore.Hbond.Weighted>
-3.1348

> <Gold.Chemscore.Metal.Weighted>
-0.0000

> <Gold.Chemscore.Lipo.Weighted>
-10.3812

> <Gold.Chemscore.Internal_Hbond.Weighted>
0.0000

> <Gold.Chemscore.DEClash.Weighted>
0.0537

> <Gold.Chemscore.DEInternal.Weighted>
0.6467

> <Gold.Chemscore.Rot.Weighted>
6.0996

> <Gold.Chemscore.Internal.Correction.Weighted>
   9.000000E+99

> <Gold.Protein.RotatedTorsions>
[ 6907 6896 6895 6894 ] final   96.23 input  -60.11 | X-H torsion
[ 7974 7965 7964 7962 ] final  168.77 input  175.53 | X-H torsion
[ 8008 7997 7996 7995 ] final  -84.53 input   59.86 | X-H torsion
[ 10167 10162 10161 10158 ] final -141.82 input  -65.29 | X-H torsion
[ 10718 10713 10712 10709 ] final -177.82 input   66.30 | X-H torsion
[ 10763 10752 10751 10750 ] final  137.16 input  -60.55 | X-H torsion
[ 11005 11000 10999 10996 ] final   10.23 input  -57.11 | X-H torsion

> <Gold.Protein.ActiveResidues>
 VAL166  LYS551  ARG553  GLY616  TRP617  ASP618  TYR619  PRO620  LYS621  CYS622 
 ASP623  PHE694  ASN695  SER759  ASP760  ASP761  ALA762  ILE779  LEU786  VAL792 
 PHE793  MET794  SER795  GLU796  ALA797  LYS798  CYS799  TRP800  GLU811  SER814 

> <Gold.Protein.RotatedAtoms>
  152.5437  134.0918  159.8279 H   0  0  0  0  0  0  0  0  0  0  0  0  # atno 6907 bound_to 6896
  151.1007  133.5239  159.2617 H   0  0  0  0  0  0  0  0  0  0  0  0  # atno 6908 bound_to 6896
  151.1995  135.0445  159.8920 H   0  0  0  0  0  0  0  0  0  0  0  0  # atno 6909 bound_to 6896
  144.7377  139.8957  143.6406 H   0  0  0  0  0  0  0  0  0  0  0  0  # atno 7974 bound_to 7965
  154.6308  140.0604  156.9730 H   0  0  0  0  0  0  0  0  0  0  0  0  # atno 8008 bound_to 7997
  155.1668  140.3287  155.4382 H   0  0  0  0  0  0  0  0  0  0  0  0  # atno 8009 bound_to 7997
  156.2482  140.1921  156.6772 H   0  0  0  0  0  0  0  0  0  0  0  0  # atno 8010 bound_to 7997
  139.8147  143.7654  152.2664 H   0  0  0  0  0  0  0  0  0  0  0  0  # atno 10167 bound_to 10162
  156.8351  130.9667  151.3104 H   0  0  0  0  0  0  0  0  0  0  0  0  # atno 10718 bound_to 10713
  153.8684  135.3059  155.3441 H   0  0  0  0  0  0  0  0  0  0  0  0  # atno 10763 bound_to 10752
  154.7817  135.4832  153.9861 H   0  0  0  0  0  0  0  0  0  0  0  0  # atno 10764 bound_to 10752
  153.1420  135.6826  153.9108 H   0  0  0  0  0  0  0  0  0  0  0  0  # atno 10765 bound_to 10752
  140.5168  134.0598  155.7833 H   0  0  0  0  0  0  0  0  0  0  0  0  # atno 11005 bound_to 11000
  146.1109  139.4114  143.0288 LP  0  0  0  0  0  0  0  0  0  0  0  0  # atno 17320 bound_to 7965
  145.7444  140.9996  143.1284 LP  0  0  0  0  0  0  0  0  0  0  0  0  # atno 17321 bound_to 7965
  139.7814  144.7443  151.0083 LP  0  0  0  0  0  0  0  0  0  0  0  0  # atno 17342 bound_to 10162
  140.7816  143.4538  151.0375 LP  0  0  0  0  0  0  0  0  0  0  0  0  # atno 17343 bound_to 10162
  157.6386  130.8787  149.9405 LP  0  0  0  0  0  0  0  0  0  0  0  0  # atno 17370 bound_to 10713
  156.0912  130.3663  150.0391 LP  0  0  0  0  0  0  0  0  0  0  0  0  # atno 17371 bound_to 10713
  141.1356  133.9228  157.2442 LP  0  0  0  0  0  0  0  0  0  0  0  0  # atno 17394 bound_to 11000
  139.9628  135.0150  156.9306 LP  0  0  0  0  0  0  0  0  0  0  0  0  # atno 17395 bound_to 11000

$$$$
