AV-unprocessed.smi:2855|AV-procd|sdf|10986|dock9
  -GOLD-   2272015443D 1   1.00000     0.00000
 Structure written by MMmdl.
 46 47  0  0  0  0  0  0  0  0  2 V2000
  152.7007  139.0036  154.7051 C   0  0  0  0  0  0  0  0  0  0  0  0
  151.2804  138.9481  155.2854 C   0  0  1  0  0  0  0  0  0  0  0  0
  150.8021  140.3407  155.7431 C   0  0  0  0  0  0  0  0  0  0  0  0
  149.3527  140.3025  156.2629 C   0  0  0  0  0  0  0  0  0  0  0  0
  148.3660  139.7614  155.1975 C   0  0  1  0  0  0  0  0  0  0  0  0
  148.1658  140.7379  153.9845 C   0  0  0  0  0  0  0  0  0  0  0  0
  147.7584  142.1589  154.4258 C   0  0  0  0  0  0  0  0  0  0  0  0
  147.1256  140.2496  152.9573 C   0  0  0  0  0  0  0  0  0  0  0  0
  148.8531  138.3184  154.8582 C   0  0  1  0  0  0  0  0  0  0  0  0
  147.9531  137.5568  153.9973 N   0  0  0  0  0  0  0  0  0  0  0  0
  146.6221  137.4654  154.1425 C   0  0  0  0  0  0  0  0  0  0  0  0
  146.0020  138.0183  155.0519 O   0  0  0  0  0  0  0  0  0  0  0  0
  145.8914  136.5913  153.1144 C   0  0  0  0  0  0  0  0  0  0  0  0
  144.4807  136.3571  153.4615 N   0  0  0  0  0  0  0  0  0  0  0  0
  143.5165  137.2056  152.8890 C   0  0  0  0  0  0  0  0  0  0  0  0
  142.2021  137.0627  153.1448 C   0  0  0  0  0  0  0  0  0  0  0  0
  141.7862  135.9918  154.0419 C   0  0  0  0  0  0  0  0  0  0  0  0
  140.5904  135.8473  154.2883 O   0  0  0  0  0  0  0  0  0  0  0  0
  142.7591  135.1932  154.5706 N   0  5  0  0  0  0  0  0  0  0  0  0
  144.0924  135.3510  154.3020 C   0  0  0  0  0  0  0  0  0  0  0  0
  144.9535  134.6209  154.7936 O   0  0  0  0  0  0  0  0  0  0  0  0
  150.2854  138.3190  154.2887 C   0  0  0  0  0  0  0  0  0  0  0  0
  152.7412  139.6318  153.8147 H   0  0  0  0  0  0  0  0  0  0  0  0
  153.0504  138.0090  154.4271 H   0  0  0  0  0  0  0  0  0  0  0  0
  153.4057  139.4097  155.4311 H   0  0  0  0  0  0  0  0  0  0  0  0
  151.3137  138.3066  156.1673 H   0  0  0  0  0  0  0  0  0  0  0  0
  151.4584  140.7143  156.5298 H   0  0  0  0  0  0  0  0  0  0  0  0
  150.8822  141.0519  154.9207 H   0  0  0  0  0  0  0  0  0  0  0  0
  149.3156  139.6585  157.1428 H   0  0  0  0  0  0  0  0  0  0  0  0
  149.0531  141.2821  156.6316 H   0  0  0  0  0  0  0  0  0  0  0  0
  147.3975  139.6753  155.6922 H   0  0  0  0  0  0  0  0  0  0  0  0
  149.1109  140.8425  153.4537 H   0  0  0  0  0  0  0  0  0  0  0  0
  146.8702  142.1391  155.0580 H   0  0  0  0  0  0  0  0  0  0  0  0
  147.5367  142.7927  153.5668 H   0  0  0  0  0  0  0  0  0  0  0  0
  148.5554  142.6622  154.9718 H   0  0  0  0  0  0  0  0  0  0  0  0
  146.1892  139.9732  153.4430 H   0  0  0  0  0  0  0  0  0  0  0  0
  147.4791  139.3964  152.3822 H   0  0  0  0  0  0  0  0  0  0  0  0
  146.8968  141.0233  152.2240 H   0  0  0  0  0  0  0  0  0  0  0  0
  148.9010  137.7605  155.7959 H   0  0  0  0  0  0  0  0  0  0  0  0
  148.3738  137.0685  153.2202 H   0  0  0  0  0  0  0  0  0  0  0  0
  145.9663  137.0429  152.1231 H   0  0  0  0  0  0  0  0  0  0  0  0
  146.4248  135.6432  153.0363 H   0  0  0  0  0  0  0  0  0  0  0  0
  143.9078  137.9680  152.2316 H   0  0  0  0  0  0  0  0  0  0  0  0
  141.4741  137.7216  152.6950 H   0  0  0  0  0  0  0  0  0  0  0  0
  150.3158  138.8483  153.3362 H   0  0  0  0  0  0  0  0  0  0  0  0
  150.5942  137.2949  154.0743 H   0  0  0  0  0  0  0  0  0  0  0  0
  1  2  1  0  0  0  0
  1 23  1  0  0  0  0
  1 24  1  0  0  0  0
  1 25  1  0  0  0  0
  2 22  1  0  0  0  0
  2  3  1  0  0  0  0
  2 26  1  0  0  0  0
  3  4  1  0  0  0  0
  3 27  1  0  0  0  0
  3 28  1  0  0  0  0
  4  5  1  0  0  0  0
  4 29  1  0  0  0  0
  4 30  1  0  0  0  0
  5  6  1  0  0  0  0
  5  9  1  0  0  0  0
  5 31  1  0  0  0  0
  6  7  1  0  0  0  0
  6  8  1  0  0  0  0
  6 32  1  0  0  0  0
  7 33  1  0  0  0  0
  7 34  1  0  0  0  0
  7 35  1  0  0  0  0
  8 36  1  0  0  0  0
  8 37  1  0  0  0  0
  8 38  1  0  0  0  0
  9 10  1  0  0  0  0
  9 22  1  0  0  0  0
  9 39  1  0  0  0  0
 10 11  1  0  0  0  0
 10 40  1  0  0  0  0
 11 12  2  0  0  0  0
 11 13  1  0  0  0  0
 13 14  1  0  0  0  0
 13 41  1  0  0  0  0
 13 42  1  0  0  0  0
 14 20  1  0  0  0  0
 14 15  1  0  0  0  0
 15 16  2  0  0  0  0
 15 43  1  0  0  0  0
 16 17  1  0  0  0  0
 16 44  1  0  0  0  0
 17 18  2  0  0  0  0
 17 19  1  0  0  0  0
 19 20  1  0  0  0  0
 20 21  2  0  0  0  0
 22 45  1  0  0  0  0
 22 46  1  0  0  0  0
M  CHG  1  19  -1
M  END
> <s_m_source_file>
AV-unprocessed.smi

> <i_m_source_file_index>
2855

> <i_lp_mmshare_version>
43012

> <i_f3d_flags>
0

> <s_epik_input>
W0NIM11bQ0BASF0xW0NIMl1bQ0gyXVtDQEBIXShbQ0hdKFtDSDNdKVtDSDNdKVtDQEhdKFtDSDJdMSlbTkhdQyg9TylbQ0gyXW4yW2NIXVtjSF1jKD1PKVtuSF1jMj1P

> <s_epik_cmdline>
J2VwaWtfcHl0aG9uJywgJy1waCcsICc3LjAnLCAnLXRuJywgJzgnLCAnLW1hJywgJzIwMCcsICctbWV0YWxfYmluZGluZycsICctaW1hZScsICc8aW5maWxlLm1hZT4nLCAnLW9tYWUnLCAnPG91dGZpbGUubWFlPic=

> <r_lp_tautomer_probability>
0.999537

> <r_epik_Ionization_Penalty>
3.12102

> <r_epik_Ionization_Penalty_Charging>
2.9581e-08

> <r_epik_Ionization_Penalty_Neutral>
3.12102

> <r_epik_State_Penalty>
3.12011

> <r_epik_Charging_Adjusted_Penalty>
3.12011

> <i_epik_Tot_Q>
-1

> <i_epik_Tot_abs_Q>
1

> <r_epik_Metal_State_Penalty>
0.463583

> <b_epik_Metal_Only>
1

> <s_lp_Force_Field>
OPLS_2005

> <r_lp_Energy>
27.3846

> <b_lp_Chiralities_Consistent>
1

> <s_lp_Variant>
AV-unprocessed.smi:2855-10

> <Gold.Version>
5.8.1

> <Gold.Id.Protein>
6NUR|6NUR_protein|mol2

> <Gold.PLP.Fitness>
42.5454

> <Gold.PLP.PLP>
-31.7076

> <Gold.PLP.part.hbond>
-2.1138

> <Gold.PLP.part.metal>
0.0000

> <Gold.PLP.part.buried>
-2.4733

> <Gold.PLP.part.nonpolar>
-27.0007

> <Gold.PLP.part.repulsive>
0.2936

> <Gold.PLP.ligand.clash>
0.0000

> <Gold.PLP.ligand.torsion>
0.5459

> <Gold.PLP.Chemscore.Hbond>
2.0000

> <Gold.PLP.Chemscore.CHOScore>
1.9545

> <Gold.PLP.Chemscore.Metal>
0.0000

> <Gold.Chemscore.Hbonds>
donor molecule, donor type, donor heavy atom, donor atom, acceptor molecule, acceptor atom, score
      L1  H    10    40       P1  7948  1.00
      P1  H 11000 11005       L1    18  0.91
      L1  C    15    43       P1 10171  1.00
      L1  C    15    43       P1 10175  0.95

> <Gold.PLP.Chemscore.Internal.Correction>
0.0663

> <Gold.Rescore>
     Score         DG    S(hbond)    S(metal)    S(lipo)     H(rot)  DE(clash)    DE(int)     intcor
     14.37     -15.91       1.93        0.00      73.80       1.81       0.06       1.48       ----

> <Gold.Chemscore.Fitness>
14.3736

> <Gold.Chemscore.DG>
-15.9108

> <Gold.Chemscore.ZeroCoef>
-5.4800

> <Gold.Chemscore.Hbond>
1.9252

> <Gold.Chemscore.Metal>
0.0000

> <Gold.Chemscore.Lipo>
73.7958

> <Gold.Chemscore.Internal_Hbond>
0.0000

> <Gold.Chemscore.DEClash>
0.0580

> <Gold.Chemscore.DEInternal>
1.4791

> <Gold.Chemscore.Rot>
1.8100

> <Gold.Chemscore.Internal.Correction>
   9.000000E+99

> <Gold.Chemscore.Hbonds>
donor molecule, donor type, donor heavy atom, donor atom, acceptor molecule, acceptor atom, score
      L1  H    10    40       P1  7948  1.00
      P1  H 11000 11005       L1    18  0.78

> <Gold.Chemscore.Hbond.Weighted>
-6.4302

> <Gold.Chemscore.Metal.Weighted>
-0.0000

> <Gold.Chemscore.Lipo.Weighted>
-8.6341

> <Gold.Chemscore.Internal_Hbond.Weighted>
0.0000

> <Gold.Chemscore.DEClash.Weighted>
0.0580

> <Gold.Chemscore.DEInternal.Weighted>
1.4791

> <Gold.Chemscore.Rot.Weighted>
4.6335

> <Gold.Chemscore.Internal.Correction.Weighted>
   9.000000E+99

> <Gold.Protein.RotatedTorsions>
[ 6907 6896 6895 6894 ] final   29.24 input  -60.11 | X-H torsion
[ 7974 7965 7964 7962 ] final  109.70 input  175.53 | X-H torsion
[ 8008 7997 7996 7995 ] final   42.09 input   59.86 | X-H torsion
[ 10167 10162 10161 10158 ] final    7.85 input  -65.29 | X-H torsion
[ 10718 10713 10712 10709 ] final   82.58 input   66.30 | X-H torsion
[ 10763 10752 10751 10750 ] final -174.26 input  -60.55 | X-H torsion
[ 11005 11000 10999 10996 ] final   49.62 input  -57.11 | X-H torsion

> <Gold.Protein.ActiveResidues>
 VAL166  LYS551  ARG553  GLY616  TRP617  ASP618  TYR619  PRO620  LYS621  CYS622 
 ASP623  PHE694  ASN695  SER759  ASP760  ASP761  ALA762  ILE779  LEU786  VAL792 
 PHE793  MET794  SER795  GLU796  ALA797  LYS798  CYS799  TRP800  GLU811  SER814 

> <Gold.Protein.RotatedAtoms>
  152.0286  134.9781  160.0571 H   0  0  0  0  0  0  0  0  0  0  0  0  # atno 6907 bound_to 6896
  152.1266  133.4379  159.4709 H   0  0  0  0  0  0  0  0  0  0  0  0  # atno 6908 bound_to 6896
  150.6853  134.2389  159.4508 H   0  0  0  0  0  0  0  0  0  0  0  0  # atno 6909 bound_to 6896
  145.2645  139.2690  143.3999 H   0  0  0  0  0  0  0  0  0  0  0  0  # atno 7974 bound_to 7965
  155.2805  140.3372  155.4258 H   0  0  0  0  0  0  0  0  0  0  0  0  # atno 8008 bound_to 7997
  156.2092  140.1763  156.7773 H   0  0  0  0  0  0  0  0  0  0  0  0  # atno 8009 bound_to 7997
  154.5663  140.0678  156.8880 H   0  0  0  0  0  0  0  0  0  0  0  0  # atno 8010 bound_to 7997
  140.6348  143.7912  150.7344 H   0  0  0  0  0  0  0  0  0  0  0  0  # atno 10167 bound_to 10162
  157.6860  131.0054  150.2396 H   0  0  0  0  0  0  0  0  0  0  0  0  # atno 10718 bound_to 10713
  154.5983  135.2852  155.0563 H   0  0  0  0  0  0  0  0  0  0  0  0  # atno 10763 bound_to 10752
  154.1837  135.6452  153.5045 H   0  0  0  0  0  0  0  0  0  0  0  0  # atno 10764 bound_to 10752
  153.0147  135.5429  154.6693 H   0  0  0  0  0  0  0  0  0  0  0  0  # atno 10765 bound_to 10752
  140.1088  134.4983  155.8696 H   0  0  0  0  0  0  0  0  0  0  0  0  # atno 11005 bound_to 11000
  146.3265  140.3071  142.8624 LP  0  0  0  0  0  0  0  0  0  0  0  0  # atno 17320 bound_to 7965
  144.9389  140.8057  143.5643 LP  0  0  0  0  0  0  0  0  0  0  0  0  # atno 17321 bound_to 7965
  140.1530  143.4341  152.2118 LP  0  0  0  0  0  0  0  0  0  0  0  0  # atno 17342 bound_to 10162
  139.5559  144.7372  151.4296 LP  0  0  0  0  0  0  0  0  0  0  0  0  # atno 17343 bound_to 10162
  156.3013  130.3759  149.7748 LP  0  0  0  0  0  0  0  0  0  0  0  0  # atno 17370 bound_to 10713
  156.5377  130.8286  151.3258 LP  0  0  0  0  0  0  0  0  0  0  0  0  # atno 17371 bound_to 10713
  141.2125  133.6720  156.6663 LP  0  0  0  0  0  0  0  0  0  0  0  0  # atno 17394 bound_to 11000
  140.3120  134.8078  157.4183 LP  0  0  0  0  0  0  0  0  0  0  0  0  # atno 17395 bound_to 11000

$$$$
