AV-unprocessed.smi:1132|AV-procd|sdf|4854|dock4
  -GOLD-   22720 3423D 1   1.00000     0.00000
 Structure written by MMmdl.
 50 51  0  0  0  0  0  0  0  0  2 V2000
  153.0758  142.1763  160.9731 C   0  0  0  0  0  0  0  0  0  0  0  0
  152.2876  142.4019  159.7795 N   0  0  0  0  0  0  0  0  0  0  0  0
  152.0083  143.7303  159.3770 C   0  0  0  0  0  0  0  0  0  0  0  0
  152.4032  144.7125  160.0054 O   0  0  0  0  0  0  0  0  0  0  0  0
  151.2282  143.8363  158.1498 C   0  0  0  0  0  0  0  0  0  0  0  0
  150.8403  142.7320  157.4756 C   0  0  0  0  0  0  0  0  0  0  0  0
  151.1399  141.4447  157.8830 N   0  0  0  0  0  0  0  0  0  0  0  0
  150.7212  140.3054  157.0503 C   0  0  0  0  0  0  0  0  0  0  0  0
  150.0854  140.6975  155.7043 C   0  0  0  0  0  0  0  0  0  0  0  0
  150.6936  140.4686  154.6601 O   0  0  0  0  0  0  0  0  0  0  0  0
  148.8697  141.2683  155.7290 N   0  0  0  0  0  0  0  0  0  0  0  0
  148.0864  141.7027  154.5793 C   0  0  0  0  0  0  0  0  0  0  0  0
  146.7187  142.2574  155.0066 C   0  0  0  0  0  0  0  0  0  0  0  0
  145.6702  141.1884  155.4111 C   0  0  0  0  0  0  0  0  0  0  0  0
  145.8847  140.6598  156.8478 C   0  0  0  0  0  0  0  0  0  0  0  0
  144.2827  141.8585  155.3957 C   0  0  0  0  0  0  0  0  0  0  0  0
  145.6211  140.0769  154.4193 N   0  3  0  0  0  0  0  0  0  0  0  0
  146.8858  139.4937  153.8871 C   0  0  0  0  0  0  0  0  0  0  0  0
  147.4760  138.4412  154.8521 C   0  0  0  0  0  0  0  0  0  0  0  0
  146.5172  138.7434  152.5924 C   0  0  0  0  0  0  0  0  0  0  0  0
  147.9087  140.6001  153.5209 C   0  0  0  0  0  0  0  0  0  0  0  0
  151.8757  141.2515  159.0726 C   0  0  0  0  0  0  0  0  0  0  0  0
  152.1647  140.1156  159.4562 O   0  0  0  0  0  0  0  0  0  0  0  0
  153.2625  143.1074  161.5072 H   0  0  0  0  0  0  0  0  0  0  0  0
  154.0177  141.7272  160.6532 H   0  0  0  0  0  0  0  0  0  0  0  0
  152.5101  141.5004  161.6174 H   0  0  0  0  0  0  0  0  0  0  0  0
  150.9645  144.8133  157.7718 H   0  0  0  0  0  0  0  0  0  0  0  0
  150.2738  142.8652  156.5651 H   0  0  0  0  0  0  0  0  0  0  0  0
  151.5699  139.6477  156.8563 H   0  0  0  0  0  0  0  0  0  0  0  0
  150.0032  139.6955  157.6007 H   0  0  0  0  0  0  0  0  0  0  0  0
  148.4565  141.4229  156.6373 H   0  0  0  0  0  0  0  0  0  0  0  0
  148.6348  142.5260  154.1174 H   0  0  0  0  0  0  0  0  0  0  0  0
  146.8429  142.9890  155.8067 H   0  0  0  0  0  0  0  0  0  0  0  0
  146.3286  142.8228  154.1587 H   0  0  0  0  0  0  0  0  0  0  0  0
  145.7791  141.4633  157.5778 H   0  0  0  0  0  0  0  0  0  0  0  0
  146.8652  140.2293  157.0164 H   0  0  0  0  0  0  0  0  0  0  0  0
  145.1502  139.8951  157.1028 H   0  0  0  0  0  0  0  0  0  0  0  0
  144.2396  142.7019  156.0863 H   0  0  0  0  0  0  0  0  0  0  0  0
  143.4970  141.1589  155.6847 H   0  0  0  0  0  0  0  0  0  0  0  0
  144.0301  142.2372  154.4043 H   0  0  0  0  0  0  0  0  0  0  0  0
  145.0447  139.3333  154.7867 H   0  0  0  0  0  0  0  0  0  0  0  0
  148.3048  137.9086  154.3842 H   0  0  0  0  0  0  0  0  0  0  0  0
  146.7298  137.6960  155.1303 H   0  0  0  0  0  0  0  0  0  0  0  0
  147.8716  138.8604  155.7705 H   0  0  0  0  0  0  0  0  0  0  0  0
  147.3976  138.3018  152.1233 H   0  0  0  0  0  0  0  0  0  0  0  0
  146.0579  139.4082  151.8598 H   0  0  0  0  0  0  0  0  0  0  0  0
  145.8098  137.9355  152.7852 H   0  0  0  0  0  0  0  0  0  0  0  0
  147.5729  141.0936  152.6073 H   0  0  0  0  0  0  0  0  0  0  0  0
  148.8728  140.1571  153.2670 H   0  0  0  0  0  0  0  0  0  0  0  0
  145.1464  140.4602  153.6144 H   0  0  0  0  0  0  0  0  0  0  0  0
  1  2  1  0  0  0  0
  1 24  1  0  0  0  0
  1 25  1  0  0  0  0
  1 26  1  0  0  0  0
  2 22  1  0  0  0  0
  2  3  1  0  0  0  0
  3  4  2  0  0  0  0
  3  5  1  0  0  0  0
  5  6  2  0  0  0  0
  5 27  1  0  0  0  0
  6  7  1  0  0  0  0
  6 28  1  0  0  0  0
  7  8  1  0  0  0  0
  7 22  1  0  0  0  0
  8  9  1  0  0  0  0
  8 29  1  0  0  0  0
  8 30  1  0  0  0  0
  9 10  2  0  0  0  0
  9 11  1  0  0  0  0
 11 12  1  0  0  0  0
 11 31  1  0  0  0  0
 12 21  1  0  0  0  0
 12 13  1  0  0  0  0
 12 32  1  0  0  0  0
 13 14  1  0  0  0  0
 13 33  1  0  0  0  0
 13 34  1  0  0  0  0
 14 15  1  0  0  0  0
 14 16  1  0  0  0  0
 14 17  1  0  0  0  0
 15 35  1  0  0  0  0
 15 36  1  0  0  0  0
 15 37  1  0  0  0  0
 16 38  1  0  0  0  0
 16 39  1  0  0  0  0
 16 40  1  0  0  0  0
 17 18  1  0  0  0  0
 17 41  1  0  0  0  0
 17 50  1  0  0  0  0
 18 19  1  0  0  0  0
 18 20  1  0  0  0  0
 18 21  1  0  0  0  0
 19 42  1  0  0  0  0
 19 43  1  0  0  0  0
 19 44  1  0  0  0  0
 20 45  1  0  0  0  0
 20 46  1  0  0  0  0
 20 47  1  0  0  0  0
 21 48  1  0  0  0  0
 21 49  1  0  0  0  0
 22 23  2  0  0  0  0
M  CHG  1  17   1
M  END
> <s_m_source_file>
AV-unprocessed.smi

> <i_m_source_file_index>
1132

> <i_lp_mmshare_version>
43012

> <i_f3d_flags>
0

> <s_epik_input>
W0NIM11uMWMoPU8pW2NIXVtjSF1uKGMxPU8pW0NIMl1DKD1PKVtOSF1bQ0hdKFtDSDJdQzIoW0NIM10pW0NIM10pW0NIMl1DKFtOSF0yKShbQ0gzXSlbQ0gzXQ==

> <s_epik_cmdline>
J2VwaWtfcHl0aG9uJywgJy1waCcsICc3LjAnLCAnLXRuJywgJzgnLCAnLW1hJywgJzIwMCcsICctbWV0YWxfYmluZGluZycsICctaW1hZScsICc8aW5maWxlLm1hZT4nLCAnLW9tYWUnLCAnPG91dGZpbGUubWFlPic=

> <r_lp_tautomer_probability>
1

> <r_epik_Ionization_Penalty>
0.000184799

> <r_epik_Ionization_Penalty_Charging>
0.00018476

> <r_epik_Ionization_Penalty_Neutral>
3.8997e-08

> <r_epik_State_Penalty>
-0

> <r_epik_Charging_Adjusted_Penalty>
0.00018476

> <i_epik_Tot_Q>
1

> <i_epik_Tot_abs_Q>
1

> <r_epik_Metal_State_Penalty>
-0

> <b_epik_Metal_Only>
0

> <s_lp_Force_Field>
OPLS_2005

> <r_lp_Energy>
31.5781

> <b_lp_Chiralities_Consistent>
1

> <s_lp_Variant>
AV-unprocessed.smi:1132-1

> <Gold.Version>
5.8.1

> <Gold.Id.Protein>
6NUR|6NUR_protein|mol2

> <Gold.PLP.Fitness>
50.1802

> <Gold.PLP.PLP>
-38.6023

> <Gold.PLP.part.hbond>
-1.7886

> <Gold.PLP.part.metal>
0.0000

> <Gold.PLP.part.buried>
-2.1693

> <Gold.PLP.part.nonpolar>
-36.1982

> <Gold.PLP.part.repulsive>
0.2203

> <Gold.PLP.ligand.clash>
0.0000

> <Gold.PLP.ligand.torsion>
0.1569

> <Gold.PLP.Chemscore.Hbond>
2.9588

> <Gold.PLP.Chemscore.CHOScore>
1.0000

> <Gold.PLP.Chemscore.Metal>
0.0000

> <Gold.Chemscore.Hbonds>
donor molecule, donor type, donor heavy atom, donor atom, acceptor molecule, acceptor atom, score
      L1  H    17    50       P1 10175  2.00
      P1  H  7989  7998       L1    10  1.00
      L1  C     6    28       P1  8028  1.00

> <Gold.PLP.Chemscore.Internal.Correction>
0.0155

> <Gold.Rescore>
     Score         DG    S(hbond)    S(metal)    S(lipo)     H(rot)  DE(clash)    DE(int)     intcor
     15.74     -16.07       1.96        0.00      69.42       1.59       0.14       0.18       ----

> <Gold.Chemscore.Fitness>
15.7377

> <Gold.Chemscore.DG>
-16.0655

> <Gold.Chemscore.ZeroCoef>
-5.4800

> <Gold.Chemscore.Hbond>
1.9557

> <Gold.Chemscore.Metal>
0.0000

> <Gold.Chemscore.Lipo>
69.4183

> <Gold.Chemscore.Internal_Hbond>
0.0000

> <Gold.Chemscore.DEClash>
0.1444

> <Gold.Chemscore.DEInternal>
0.1833

> <Gold.Chemscore.Rot>
1.5892

> <Gold.Chemscore.Internal.Correction>
   9.000000E+99

> <Gold.Chemscore.Hbonds>
donor molecule, donor type, donor heavy atom, donor atom, acceptor molecule, acceptor atom, score
      L1  H    17    50       P1 10175  0.94
      P1  H  7989  7998       L1    10  0.92

> <Gold.Chemscore.Hbond.Weighted>
-6.5320

> <Gold.Chemscore.Metal.Weighted>
-0.0000

> <Gold.Chemscore.Lipo.Weighted>
-8.1219

> <Gold.Chemscore.Internal_Hbond.Weighted>
0.0000

> <Gold.Chemscore.DEClash.Weighted>
0.1444

> <Gold.Chemscore.DEInternal.Weighted>
0.1833

> <Gold.Chemscore.Rot.Weighted>
4.0685

> <Gold.Chemscore.Internal.Correction.Weighted>
   9.000000E+99

> <Gold.Protein.RotatedTorsions>
[ 6907 6896 6895 6894 ] final  110.95 input  -60.11 | X-H torsion
[ 7974 7965 7964 7962 ] final  175.67 input  175.53 | X-H torsion
[ 8008 7997 7996 7995 ] final -102.69 input   59.86 | X-H torsion
[ 10167 10162 10161 10158 ] final  -65.73 input  -65.29 | X-H torsion
[ 10718 10713 10712 10709 ] final -126.78 input   66.30 | X-H torsion
[ 10763 10752 10751 10750 ] final  -52.69 input  -60.55 | X-H torsion
[ 11005 11000 10999 10996 ] final  119.84 input  -57.11 | X-H torsion

> <Gold.Protein.ActiveResidues>
 VAL166  LYS551  ARG553  GLY616  TRP617  ASP618  TYR619  PRO620  LYS621  CYS622 
 ASP623  PHE694  ASN695  SER759  ASP760  ASP761  ALA762  ILE779  LEU786  VAL792 
 PHE793  MET794  SER795  GLU796  ALA797  LYS798  CYS799  TRP800  GLU811  SER814 

> <Gold.Protein.RotatedAtoms>
  152.4994  133.8727  159.7306 H   0  0  0  0  0  0  0  0  0  0  0  0  # atno 6907 bound_to 6896
  150.9210  133.6872  159.2839 H   0  0  0  0  0  0  0  0  0  0  0  0  # atno 6908 bound_to 6896
  151.4249  135.1007  159.9677 H   0  0  0  0  0  0  0  0  0  0  0  0  # atno 6909 bound_to 6896
  144.7197  139.9981  143.6440 H   0  0  0  0  0  0  0  0  0  0  0  0  # atno 7974 bound_to 7965
  154.8603  140.0427  157.1660 H   0  0  0  0  0  0  0  0  0  0  0  0  # atno 8008 bound_to 7997
  154.8848  140.2978  155.5384 H   0  0  0  0  0  0  0  0  0  0  0  0  # atno 8009 bound_to 7997
  156.2998  140.2404  156.3855 H   0  0  0  0  0  0  0  0  0  0  0  0  # atno 8010 bound_to 7997
  140.5708  143.2318  151.6541 H   0  0  0  0  0  0  0  0  0  0  0  0  # atno 10167 bound_to 10162
  156.1796  130.6723  151.0287 H   0  0  0  0  0  0  0  0  0  0  0  0  # atno 10718 bound_to 10713
  154.1468  135.6496  153.4954 H   0  0  0  0  0  0  0  0  0  0  0  0  # atno 10763 bound_to 10752
  153.0149  135.5328  154.6849 H   0  0  0  0  0  0  0  0  0  0  0  0  # atno 10764 bound_to 10752
  154.6126  135.2955  155.0387 H   0  0  0  0  0  0  0  0  0  0  0  0  # atno 10765 bound_to 10752
  139.9162  134.9631  156.7716 H   0  0  0  0  0  0  0  0  0  0  0  0  # atno 11005 bound_to 11000
  146.0358  139.3376  143.0728 LP  0  0  0  0  0  0  0  0  0  0  0  0  # atno 17320 bound_to 7965
  145.8397  140.9587  143.0806 LP  0  0  0  0  0  0  0  0  0  0  0  0  # atno 17321 bound_to 7965
  139.5117  144.3502  152.0659 LP  0  0  0  0  0  0  0  0  0  0  0  0  # atno 17342 bound_to 10162
  140.2639  144.4037  150.6175 LP  0  0  0  0  0  0  0  0  0  0  0  0  # atno 17343 bound_to 10162
  157.6859  131.0825  150.7243 LP  0  0  0  0  0  0  0  0  0  0  0  0  # atno 17370 bound_to 10713
  156.7301  130.4707  149.5502 LP  0  0  0  0  0  0  0  0  0  0  0  0  # atno 17371 bound_to 10713
  140.6616  133.9640  155.7808 LP  0  0  0  0  0  0  0  0  0  0  0  0  # atno 17394 bound_to 11000
  141.0639  134.0305  157.3620 LP  0  0  0  0  0  0  0  0  0  0  0  0  # atno 17395 bound_to 11000

$$$$
