AV-unprocessed.smi:2032|AV-procd|sdf|8244|dock9
  -GOLD-   2272010513D 1   1.00000     0.00000
 Structure written by MMmdl.
 43 44  0  0  0  0  0  0  0  0  2 V2000
  148.6071  133.8694  153.9502 C   0  0  0  0  0  0  0  0  0  0  0  0
  147.0838  133.6608  154.0357 C   0  0  1  0  0  0  0  0  0  0  0  0
  146.2664  134.8347  153.4625 C   0  0  0  0  0  0  0  0  0  0  0  0
  146.2993  134.8750  151.9728 N   0  3  2  0  0  0  0  0  0  0  0  0
  145.5334  136.0273  151.3847 C   0  0  1  0  0  0  0  0  0  0  0  0
  144.0544  135.6518  151.1169 C   0  0  0  0  0  0  0  0  0  0  0  0
  145.6248  137.3028  152.2697 C   0  0  0  0  0  0  0  0  0  0  0  0
  146.9953  137.6728  152.6175 N   0  0  0  0  0  0  0  0  0  0  0  0
  147.3499  138.7374  153.3530 C   0  0  0  0  0  0  0  0  0  0  0  0
  146.5419  139.5503  153.8029 O   0  0  0  0  0  0  0  0  0  0  0  0
  148.6830  138.7927  153.5182 N   0  0  0  0  0  0  0  0  0  0  0  0
  149.4406  139.7673  154.2194 C   0  0  0  0  0  0  0  0  0  0  0  0
  150.6632  139.5560  154.7208 N   0  0  0  0  0  0  0  0  0  0  0  0
  151.1713  140.6904  155.3586 C   0  0  0  0  0  0  0  0  0  0  0  0
  150.3152  141.7632  155.3351 C   0  0  0  0  0  0  0  0  0  0  0  0
  148.8286  141.3898  154.5044 S   0  0  0  0  0  0  0  0  0  0  0  0
  145.9010  133.5443  151.4347 C   0  0  0  0  0  0  0  0  0  0  0  0
  146.7561  132.4100  152.0279 C   0  0  2  0  0  0  0  0  0  0  0  0
  146.2854  131.0306  151.5526 C   0  0  0  0  0  0  0  0  0  0  0  0
  146.6667  132.4340  153.4461 O   0  0  0  0  0  0  0  0  0  0  0  0
  148.9120  134.7349  154.5389 H   0  0  0  0  0  0  0  0  0  0  0  0
  148.9470  134.0392  152.9291 H   0  0  0  0  0  0  0  0  0  0  0  0
  149.1402  133.0024  154.3414 H   0  0  0  0  0  0  0  0  0  0  0  0
  146.8406  133.5783  155.0955 H   0  0  0  0  0  0  0  0  0  0  0  0
  145.2290  134.7517  153.7900 H   0  0  0  0  0  0  0  0  0  0  0  0
  146.6651  135.7483  153.8984 H   0  0  0  0  0  0  0  0  0  0  0  0
  145.9902  136.2641  150.4222 H   0  0  0  0  0  0  0  0  0  0  0  0
  143.4777  136.4937  150.7373 H   0  0  0  0  0  0  0  0  0  0  0  0
  143.5636  135.3019  152.0257 H   0  0  0  0  0  0  0  0  0  0  0  0
  143.9495  134.8828  150.3535 H   0  0  0  0  0  0  0  0  0  0  0  0
  145.1002  138.1319  151.7916 H   0  0  0  0  0  0  0  0  0  0  0  0
  145.1402  137.1447  153.2312 H   0  0  0  0  0  0  0  0  0  0  0  0
  147.7280  137.0619  152.2863 H   0  0  0  0  0  0  0  0  0  0  0  0
  149.2208  138.0528  153.0915 H   0  0  0  0  0  0  0  0  0  0  0  0
  152.1543  140.6464  155.8041 H   0  0  0  0  0  0  0  0  0  0  0  0
  150.4686  142.7465  155.7541 H   0  0  0  0  0  0  0  0  0  0  0  0
  144.8431  133.3718  151.6399 H   0  0  0  0  0  0  0  0  0  0  0  0
  146.0342  133.5011  150.3557 H   0  0  0  0  0  0  0  0  0  0  0  0
  147.7943  132.5331  151.7193 H   0  0  0  0  0  0  0  0  0  0  0  0
  146.3465  130.9468  150.4673 H   0  0  0  0  0  0  0  0  0  0  0  0
  145.2518  130.8426  151.8448 H   0  0  0  0  0  0  0  0  0  0  0  0
  146.9011  130.2394  151.9810 H   0  0  0  0  0  0  0  0  0  0  0  0
  147.2656  135.0112  151.7110 H   0  0  0  0  0  0  0  0  0  0  0  0
  1  2  1  0  0  0  0
  1 21  1  0  0  0  0
  1 22  1  0  0  0  0
  1 23  1  0  0  0  0
  2 20  1  0  0  0  0
  2  3  1  0  0  0  0
  2 24  1  0  0  0  0
  3  4  1  0  0  0  0
  3 25  1  0  0  0  0
  3 26  1  0  0  0  0
  4  5  1  0  0  0  0
  4 17  1  0  0  0  0
  4 43  1  0  0  0  0
  5  6  1  0  0  0  0
  5  7  1  0  0  0  0
  5 27  1  0  0  0  0
  6 28  1  0  0  0  0
  6 29  1  0  0  0  0
  6 30  1  0  0  0  0
  7  8  1  0  0  0  0
  7 31  1  0  0  0  0
  7 32  1  0  0  0  0
  8  9  1  0  0  0  0
  8 33  1  0  0  0  0
  9 10  2  0  0  0  0
  9 11  1  0  0  0  0
 11 12  1  0  0  0  0
 11 34  1  0  0  0  0
 12 16  1  0  0  0  0
 12 13  2  0  0  0  0
 13 14  1  0  0  0  0
 14 15  2  0  0  0  0
 14 35  1  0  0  0  0
 15 16  1  0  0  0  0
 15 36  1  0  0  0  0
 17 18  1  0  0  0  0
 17 37  1  0  0  0  0
 17 38  1  0  0  0  0
 18 19  1  0  0  0  0
 18 20  1  0  0  0  0
 18 39  1  0  0  0  0
 19 40  1  0  0  0  0
 19 41  1  0  0  0  0
 19 42  1  0  0  0  0
M  CHG  1   4   1
M  END
> <s_m_source_file>
AV-unprocessed.smi

> <i_m_source_file_index>
2032

> <i_lp_mmshare_version>
43012

> <i_f3d_flags>
0

> <s_epik_input>
W0NIM11bQ0BASF0xW0NIMl1OKFtDSDJdW0NASF0oTzEpW0NIM10pW0NASF0oW0NIM10pW0NIMl1bTkhdQyg9TylbTkhdYzJuW2NIXVtjSF1zMg==

> <s_epik_cmdline>
J2VwaWtfcHl0aG9uJywgJy1waCcsICc3LjAnLCAnLXRuJywgJzgnLCAnLW1hJywgJzIwMCcsICctbWV0YWxfYmluZGluZycsICctaW1hZScsICc8aW5maWxlLm1hZT4nLCAnLW9tYWUnLCAnPG91dGZpbGUubWFlPic=

> <r_lp_tautomer_probability>
0.999

> <r_epik_Ionization_Penalty>
0.695838

> <r_epik_Ionization_Penalty_Charging>
0.695697

> <r_epik_Ionization_Penalty_Neutral>
0.000141198

> <r_epik_State_Penalty>
0.717972

> <r_epik_Charging_Adjusted_Penalty>
1.41367

> <i_epik_Tot_Q>
1

> <i_epik_Tot_abs_Q>
1

> <r_epik_Metal_State_Penalty>
0.756405

> <b_epik_Metal_Only>
0

> <s_lp_Force_Field>
OPLS_2005

> <r_lp_Energy>
22.0252

> <b_lp_Chiralities_Consistent>
1

> <s_lp_Variant>
AV-unprocessed.smi:2032-14

> <Gold.Version>
5.8.1

> <Gold.Id.Protein>
6NUR|6NUR_protein|mol2

> <Gold.PLP.Fitness>
43.3205

> <Gold.PLP.PLP>
-31.7734

> <Gold.PLP.part.hbond>
-4.0179

> <Gold.PLP.part.metal>
0.0000

> <Gold.PLP.part.buried>
-0.0795

> <Gold.PLP.part.nonpolar>
-27.2715

> <Gold.PLP.part.repulsive>
0.4544

> <Gold.PLP.ligand.clash>
0.0000

> <Gold.PLP.ligand.torsion>
0.6731

> <Gold.PLP.Chemscore.Hbond>
3.3685

> <Gold.PLP.Chemscore.CHOScore>
0.9142

> <Gold.PLP.Chemscore.Metal>
0.0000

> <Gold.Chemscore.Hbonds>
donor molecule, donor type, donor heavy atom, donor atom, acceptor molecule, acceptor atom, score
      L1  H     4    43       P1  7948  1.87
      L1  H     8    33       P1  7948  0.99
      L1  H    11    34       P1  7948  0.51
      L1  C    15    36       P1  8028  0.95

> <Gold.PLP.Chemscore.Internal.Correction>
0.0452

> <Gold.Rescore>
     Score         DG    S(hbond)    S(metal)    S(lipo)     H(rot)  DE(clash)    DE(int)     intcor
     14.86     -16.75       2.30        0.00      65.99       1.61       0.29       1.60       ----

> <Gold.Chemscore.Fitness>
14.8621

> <Gold.Chemscore.DG>
-16.7502

> <Gold.Chemscore.ZeroCoef>
-5.4800

> <Gold.Chemscore.Hbond>
2.2974

> <Gold.Chemscore.Metal>
0.0000

> <Gold.Chemscore.Lipo>
65.9920

> <Gold.Chemscore.Internal_Hbond>
0.0000

> <Gold.Chemscore.DEClash>
0.2901

> <Gold.Chemscore.DEInternal>
1.5980

> <Gold.Chemscore.Rot>
1.6110

> <Gold.Chemscore.Internal.Correction>
   9.000000E+99

> <Gold.Chemscore.Hbonds>
donor molecule, donor type, donor heavy atom, donor atom, acceptor molecule, acceptor atom, score
      L1  H     4    43       P1  7948  0.74
      L1  H     8    33       P1  7948  0.92
      L1  H    11    34       P1  7948  0.51

> <Gold.Chemscore.Hbond.Weighted>
-7.6733

> <Gold.Chemscore.Metal.Weighted>
-0.0000

> <Gold.Chemscore.Lipo.Weighted>
-7.7211

> <Gold.Chemscore.Internal_Hbond.Weighted>
0.0000

> <Gold.Chemscore.DEClash.Weighted>
0.2901

> <Gold.Chemscore.DEInternal.Weighted>
1.5980

> <Gold.Chemscore.Rot.Weighted>
4.1242

> <Gold.Chemscore.Internal.Correction.Weighted>
   9.000000E+99

> <Gold.Protein.RotatedTorsions>
[ 6907 6896 6895 6894 ] final  166.83 input  -60.11 | X-H torsion
[ 7974 7965 7964 7962 ] final -119.25 input  175.53 | X-H torsion
[ 8008 7997 7996 7995 ] final   46.09 input   59.86 | X-H torsion
[ 10167 10162 10161 10158 ] final   76.74 input  -65.29 | X-H torsion
[ 10718 10713 10712 10709 ] final  -37.62 input   66.30 | X-H torsion
[ 10763 10752 10751 10750 ] final  159.14 input  -60.55 | X-H torsion
[ 11005 11000 10999 10996 ] final   16.94 input  -57.11 | X-H torsion

> <Gold.Protein.ActiveResidues>
 VAL166  LYS551  ARG553  GLY616  TRP617  ASP618  TYR619  PRO620  LYS621  CYS622 
 ASP623  PHE694  ASN695  SER759  ASP760  ASP761  ALA762  ILE779  LEU786  VAL792 
 PHE793  MET794  SER795  GLU796  ALA797  LYS798  CYS799  TRP800  GLU811  SER814 

> <Gold.Protein.RotatedAtoms>
  151.8727  133.3479  159.3739 H   0  0  0  0  0  0  0  0  0  0  0  0  # atno 6907 bound_to 6896
  150.7148  134.5097  159.5610 H   0  0  0  0  0  0  0  0  0  0  0  0  # atno 6908 bound_to 6896
  152.2632  134.8012  160.0478 H   0  0  0  0  0  0  0  0  0  0  0  0  # atno 6909 bound_to 6896
  145.0647  140.8315  143.4131 H   0  0  0  0  0  0  0  0  0  0  0  0  # atno 7974 bound_to 7965
  155.3467  140.3411  155.4239 H   0  0  0  0  0  0  0  0  0  0  0  0  # atno 8008 bound_to 7997
  156.1785  140.1656  156.8353 H   0  0  0  0  0  0  0  0  0  0  0  0  # atno 8009 bound_to 7997
  154.5308  140.0746  156.8324 H   0  0  0  0  0  0  0  0  0  0  0  0  # atno 8010 bound_to 7997
  139.9891  144.5770  150.7834 H   0  0  0  0  0  0  0  0  0  0  0  0  # atno 10167 bound_to 10162
  156.3131  130.4255  149.8031 H   0  0  0  0  0  0  0  0  0  0  0  0  # atno 10718 bound_to 10713
  154.2271  135.2779  155.2903 H   0  0  0  0  0  0  0  0  0  0  0  0  # atno 10763 bound_to 10752
  154.5654  135.5634  153.7049 H   0  0  0  0  0  0  0  0  0  0  0  0  # atno 10764 bound_to 10752
  153.0028  135.6308  154.2413 H   0  0  0  0  0  0  0  0  0  0  0  0  # atno 10765 bound_to 10752
  140.4415  134.1317  155.7691 H   0  0  0  0  0  0  0  0  0  0  0  0  # atno 11005 bound_to 11000
  145.1366  139.2598  143.5512 LP  0  0  0  0  0  0  0  0  0  0  0  0  # atno 17320 bound_to 7965
  146.3526  140.1031  142.8607 LP  0  0  0  0  0  0  0  0  0  0  0  0  # atno 17321 bound_to 7965
  140.7461  143.2886  151.3393 LP  0  0  0  0  0  0  0  0  0  0  0  0  # atno 17342 bound_to 10162
  139.6353  144.0641  152.2511 LP  0  0  0  0  0  0  0  0  0  0  0  0  # atno 17343 bound_to 10162
  156.5367  130.8281  151.3255 LP  0  0  0  0  0  0  0  0  0  0  0  0  # atno 17370 bound_to 10713
  157.7395  130.9833  150.2321 LP  0  0  0  0  0  0  0  0  0  0  0  0  # atno 17371 bound_to 10713
  141.1703  133.8621  157.1589 LP  0  0  0  0  0  0  0  0  0  0  0  0  # atno 17394 bound_to 11000
  140.0067  135.0005  157.0307 LP  0  0  0  0  0  0  0  0  0  0  0  0  # atno 17395 bound_to 11000

$$$$
