AV-unprocessed.smi:40|AV-procd|sdf|377|dock2
  -GOLD-   2262016223D 1   1.00000     0.00000
 Structure written by MMmdl.
 47 48  0  0  0  0  0  0  0  0  1 V2000
  151.7649  143.9049  159.8411 C   0  0  0  0  0  0  0  0  0  0  0  0
  152.9273  143.0180  160.3003 C   0  0  0  0  0  0  0  0  0  0  0  0
  152.6602  141.5253  160.0595 C   0  0  0  0  0  0  0  0  0  0  0  0
  153.9421  140.6828  160.0979 C   0  0  0  0  0  0  0  0  0  0  0  0
  153.6546  139.1794  159.9616 C   0  0  0  0  0  0  0  0  0  0  0  0
  153.0248  138.8943  158.7200 O   0  0  0  0  0  0  0  0  0  0  0  0
  152.2901  137.7723  158.5560 C   0  0  0  0  0  0  0  0  0  0  0  0
  151.9339  137.0396  159.4788 O   0  0  0  0  0  0  0  0  0  0  0  0
  152.0152  137.5134  157.1532 N   0  0  0  0  0  0  0  0  0  0  0  0
  151.3162  136.4936  156.6000 C   0  0  0  0  0  0  0  0  0  0  0  0
  151.2612  135.2906  157.1507 N   0  0  0  0  0  0  0  0  0  0  0  0
  150.5783  134.2331  156.6115 C   0  0  0  0  0  0  0  0  0  0  0  0
  150.5468  133.1466  157.1872 O   0  0  0  0  0  0  0  0  0  0  0  0
  149.9105  134.4519  155.3836 N   0  0  0  0  0  0  0  0  0  0  0  0
  149.1368  133.3234  154.7379 C   0  0  2  0  0  0  0  0  0  0  0  0
  148.8551  133.6954  153.4211 O   0  0  0  0  0  0  0  0  0  0  0  0
  147.5186  133.3401  153.0928 C   0  0  1  0  0  0  0  0  0  0  0  0
  147.5275  131.9248  152.4834 C   0  0  0  0  0  0  0  0  0  0  0  0
  146.7737  133.4815  154.4276 C   0  0  1  0  0  0  0  0  0  0  0  0
  145.5950  132.7011  154.4709 O   0  0  0  0  0  0  0  0  0  0  0  0
  147.7996  133.0190  155.4539 C   0  0  2  0  0  0  0  0  0  0  0  0
  147.6241  133.6937  156.6877 O   0  0  0  0  0  0  0  0  0  0  0  0
  149.9686  135.6997  154.7824 C   0  0  0  0  0  0  0  0  0  0  0  0
  150.6477  136.7257  155.3377 C   0  0  0  0  0  0  0  0  0  0  0  0
  150.6919  137.9264  154.7348 F   0  0  0  0  0  0  0  0  0  0  0  0
  149.7979  132.4567  154.7071 H   0  0  0  0  0  0  0  0  0  0  0  0
  147.1255  134.0408  152.3556 H   0  0  0  0  0  0  0  0  0  0  0  0
  146.5246  134.5320  154.5867 H   0  0  0  0  0  0  0  0  0  0  0  0
  147.7396  131.9408  155.6090 H   0  0  0  0  0  0  0  0  0  0  0  0
  151.9819  144.9569  160.0283 H   0  0  0  0  0  0  0  0  0  0  0  0
  150.8459  143.6551  160.3721 H   0  0  0  0  0  0  0  0  0  0  0  0
  151.5784  143.7884  158.7731 H   0  0  0  0  0  0  0  0  0  0  0  0
  153.8363  143.3172  159.7772 H   0  0  0  0  0  0  0  0  0  0  0  0
  153.1111  143.1906  161.3613 H   0  0  0  0  0  0  0  0  0  0  0  0
  151.9629  141.1562  160.8126 H   0  0  0  0  0  0  0  0  0  0  0  0
  152.1701  141.3944  159.0939 H   0  0  0  0  0  0  0  0  0  0  0  0
  154.6094  140.9975  159.2948 H   0  0  0  0  0  0  0  0  0  0  0  0
  154.4712  140.8731  161.0324 H   0  0  0  0  0  0  0  0  0  0  0  0
  154.5696  138.5959  160.0758 H   0  0  0  0  0  0  0  0  0  0  0  0
  152.9830  138.8624  160.7596 H   0  0  0  0  0  0  0  0  0  0  0  0
  152.3676  138.2214  156.5254 H   0  0  0  0  0  0  0  0  0  0  0  0
  146.5262  131.6158  152.1832 H   0  0  0  0  0  0  0  0  0  0  0  0
  147.9095  131.1825  153.1847 H   0  0  0  0  0  0  0  0  0  0  0  0
  148.1568  131.8932  151.5937 H   0  0  0  0  0  0  0  0  0  0  0  0
  144.8700  133.2359  154.1853 H   0  0  0  0  0  0  0  0  0  0  0  0
  147.0465  134.4279  156.5478 H   0  0  0  0  0  0  0  0  0  0  0  0
  149.4584  135.8690  153.8453 H   0  0  0  0  0  0  0  0  0  0  0  0
  1  2  1  0  0  0  0
  1 30  1  0  0  0  0
  1 31  1  0  0  0  0
  1 32  1  0  0  0  0
  2  3  1  0  0  0  0
  2 33  1  0  0  0  0
  2 34  1  0  0  0  0
  3  4  1  0  0  0  0
  3 35  1  0  0  0  0
  3 36  1  0  0  0  0
  4  5  1  0  0  0  0
  4 37  1  0  0  0  0
  4 38  1  0  0  0  0
  5  6  1  0  0  0  0
  5 39  1  0  0  0  0
  5 40  1  0  0  0  0
  6  7  1  0  0  0  0
  7  8  2  0  0  0  0
  7  9  1  0  0  0  0
  9 10  1  0  0  0  0
  9 41  1  0  0  0  0
 10 24  1  0  0  0  0
 10 11  2  0  0  0  0
 11 12  1  0  0  0  0
 12 13  2  0  0  0  0
 12 14  1  0  0  0  0
 14 15  1  0  0  0  0
 14 23  1  0  0  0  0
 15 26  1  0  0  0  0
 15 21  1  0  0  0  0
 15 16  1  0  0  0  0
 16 17  1  0  0  0  0
 17 27  1  0  0  0  0
 17 18  1  0  0  0  0
 17 19  1  0  0  0  0
 18 42  1  0  0  0  0
 18 43  1  0  0  0  0
 18 44  1  0  0  0  0
 19 28  1  0  0  0  0
 19 20  1  0  0  0  0
 19 21  1  0  0  0  0
 20 45  1  0  0  0  0
 21 29  1  0  0  0  0
 21 22  1  0  0  0  0
 22 46  1  0  0  0  0
 23 24  2  0  0  0  0
 23 47  1  0  0  0  0
 24 25  1  0  0  0  0
M  END
> <s_m_source_file>
AV-unprocessed.smi

> <i_m_source_file_index>
40

> <i_lp_mmshare_version>
43012

> <i_f3d_flags>
0

> <s_epik_input>
W0NIM11bQ0gyXVtDSDJdW0NIMl1bQ0gyXU9DKD1PKVtOSF1jMW5jKD1PKW4oW2NIXWMxRilbQ0BASF0yT1tDQEhdKFtDSDNdKVtDQEBIXShbT0hdKVtDQEhdMltPSF0=

> <s_epik_cmdline>
J2VwaWtfcHl0aG9uJywgJy1waCcsICc3LjAnLCAnLXRuJywgJzgnLCAnLW1hJywgJzIwMCcsICctbWV0YWxfYmluZGluZycsICctaW1hZScsICc8aW5maWxlLm1hZT4nLCAnLW9tYWUnLCAnPG91dGZpbGUubWFlPic=

> <r_lp_tautomer_probability>
1

> <r_epik_Ionization_Penalty>
2.29506e-06

> <r_epik_Ionization_Penalty_Charging>
8.26867e-09

> <r_epik_Ionization_Penalty_Neutral>
2.2868e-06

> <r_epik_State_Penalty>
-0

> <r_epik_Charging_Adjusted_Penalty>
8.26867e-09

> <i_epik_Tot_Q>
0

> <i_epik_Tot_abs_Q>
0

> <r_epik_Metal_State_Penalty>
-0

> <b_epik_Metal_Only>
0

> <s_epik_Chemistry_Notes>
This compound has an ester and may undergo hydrolysis at high or low pH. This compound contains an acetal/aminal-like group ( X-CH(R)-Y where X, Y are N, S, or O) that may be acid/base labile, releasing an aldehyde.

> <s_lp_Force_Field>
OPLS_2005

> <r_lp_Energy>
38.4453

> <b_lp_Chiralities_Consistent>
1

> <s_lp_Variant>
AV-unprocessed.smi:40-11

> <Gold.Version>
5.8.1

> <Gold.Id.Protein>
6NUR|6NUR_protein|mol2

> <Gold.PLP.Fitness>
43.8487

> <Gold.PLP.PLP>
-36.1017

> <Gold.PLP.part.hbond>
-3.9610

> <Gold.PLP.part.metal>
0.0000

> <Gold.PLP.part.buried>
-3.0261

> <Gold.PLP.part.nonpolar>
-30.4340

> <Gold.PLP.part.repulsive>
0.7086

> <Gold.PLP.ligand.clash>
0.0000

> <Gold.PLP.ligand.torsion>
0.8585

> <Gold.PLP.Chemscore.Hbond>
2.0000

> <Gold.PLP.Chemscore.CHOScore>
1.0000

> <Gold.PLP.Chemscore.Metal>
0.0000

> <Gold.Chemscore.Hbonds>
donor molecule, donor type, donor heavy atom, donor atom, acceptor molecule, acceptor atom, score
      P1  H  6896  6907       L1     8  1.00
      P1  H  6896  6909       L1    13  0.65
      L1  C    23    47       P1  7948  1.00

> <Gold.PLP.Chemscore.Internal.Correction>
0.4640

> <Gold.Rescore>
     Score         DG    S(hbond)    S(metal)    S(lipo)     H(rot)  DE(clash)    DE(int)     intcor
      6.96      -9.30       1.36        0.00      74.76       3.70       0.05       2.29       ----

> <Gold.Chemscore.Fitness>
6.9636

> <Gold.Chemscore.DG>
-9.3039

> <Gold.Chemscore.ZeroCoef>
-5.4800

> <Gold.Chemscore.Hbond>
1.3587

> <Gold.Chemscore.Metal>
0.0000

> <Gold.Chemscore.Lipo>
74.7588

> <Gold.Chemscore.Internal_Hbond>
0.0000

> <Gold.Chemscore.DEClash>
0.0513

> <Gold.Chemscore.DEInternal>
2.2890

> <Gold.Chemscore.Rot>
3.6957

> <Gold.Chemscore.Internal.Correction>
   9.000000E+99

> <Gold.Chemscore.Hbonds>
donor molecule, donor type, donor heavy atom, donor atom, acceptor molecule, acceptor atom, score
      P1  H  6896  6907       L1     8  0.97
      P1  H  6896  6909       L1    13  0.22

> <Gold.Chemscore.Hbond.Weighted>
-4.5381

> <Gold.Chemscore.Metal.Weighted>
-0.0000

> <Gold.Chemscore.Lipo.Weighted>
-8.7468

> <Gold.Chemscore.Internal_Hbond.Weighted>
0.0000

> <Gold.Chemscore.DEClash.Weighted>
0.0513

> <Gold.Chemscore.DEInternal.Weighted>
2.2890

> <Gold.Chemscore.Rot.Weighted>
9.4610

> <Gold.Chemscore.Internal.Correction.Weighted>
   9.000000E+99

> <Gold.Protein.RotatedTorsions>
[ 6907 6896 6895 6894 ] final   -5.60 input  -60.11 | X-H torsion
[ 7974 7965 7964 7962 ] final -105.84 input  175.53 | X-H torsion
[ 8008 7997 7996 7995 ] final  120.84 input   59.86 | X-H torsion
[ 10167 10162 10161 10158 ] final    1.57 input  -65.29 | X-H torsion
[ 10718 10713 10712 10709 ] final -177.10 input   66.30 | X-H torsion
[ 10763 10752 10751 10750 ] final -168.25 input  -60.55 | X-H torsion
[ 11005 11000 10999 10996 ] final  -77.80 input  -57.11 | X-H torsion

> <Gold.Protein.ActiveResidues>
 VAL166  LYS551  ARG553  GLY616  TRP617  ASP618  TYR619  PRO620  LYS621  CYS622 
 ASP623  PHE694  ASN695  SER759  ASP760  ASP761  ALA762  ILE779  LEU786  VAL792 
 PHE793  MET794  SER795  GLU796  ALA797  LYS798  CYS799  TRP800  GLU811  SER814 

> <Gold.Protein.RotatedAtoms>
  151.4790  135.1051  159.9772 H   0  0  0  0  0  0  0  0  0  0  0  0  # atno 6907 bound_to 6896
  152.4786  133.8196  159.7057 H   0  0  0  0  0  0  0  0  0  0  0  0  # atno 6908 bound_to 6896
  150.8842  133.7269  159.2949 H   0  0  0  0  0  0  0  0  0  0  0  0  # atno 6909 bound_to 6896
  145.2254  140.9150  143.3235 H   0  0  0  0  0  0  0  0  0  0  0  0  # atno 7974 bound_to 7965
  156.2660  140.2822  156.1213 H   0  0  0  0  0  0  0  0  0  0  0  0  # atno 8008 bound_to 7997
  155.1152  140.0391  157.2752 H   0  0  0  0  0  0  0  0  0  0  0  0  # atno 8009 bound_to 7997
  154.6712  140.2588  155.7011 H   0  0  0  0  0  0  0  0  0  0  0  0  # atno 8010 bound_to 7997
  140.6676  143.7136  150.7858 H   0  0  0  0  0  0  0  0  0  0  0  0  # atno 10167 bound_to 10162
  156.8245  130.9631  151.3110 H   0  0  0  0  0  0  0  0  0  0  0  0  # atno 10718 bound_to 10713
  154.6647  135.2930  154.9820 H   0  0  0  0  0  0  0  0  0  0  0  0  # atno 10763 bound_to 10752
  154.0868  135.6596  153.4850 H   0  0  0  0  0  0  0  0  0  0  0  0  # atno 10764 bound_to 10752
  153.0451  135.5210  154.7615 H   0  0  0  0  0  0  0  0  0  0  0  0  # atno 10765 bound_to 10752
  141.1662  133.7037  156.7875 H   0  0  0  0  0  0  0  0  0  0  0  0  # atno 11005 bound_to 11000
  144.9726  139.3865  143.6301 LP  0  0  0  0  0  0  0  0  0  0  0  0  # atno 17320 bound_to 7965
  146.3366  139.8830  142.8821 LP  0  0  0  0  0  0  0  0  0  0  0  0  # atno 17321 bound_to 7965
  140.0816  143.4963  152.2527 LP  0  0  0  0  0  0  0  0  0  0  0  0  # atno 17342 bound_to 10162
  139.5931  144.7557  151.3351 LP  0  0  0  0  0  0  0  0  0  0  0  0  # atno 17343 bound_to 10162
  157.6439  130.8828  149.9502 LP  0  0  0  0  0  0  0  0  0  0  0  0  # atno 17370 bound_to 10713
  156.0970  130.3658  150.0288 LP  0  0  0  0  0  0  0  0  0  0  0  0  # atno 17371 bound_to 10713
  140.2350  134.8657  157.3515 LP  0  0  0  0  0  0  0  0  0  0  0  0  # atno 17394 bound_to 11000
  140.1853  134.4439  155.7747 LP  0  0  0  0  0  0  0  0  0  0  0  0  # atno 17395 bound_to 11000

$$$$
