AV-unprocessed.smi:3183|AV-procd|sdf|12155|dock6
  -GOLD-   2272017593D 1   1.00000     0.00000
 Structure written by MMmdl.
 43 44  0  0  0  0  0  0  0  0  2 V2000
  152.2819  143.6127  162.3698 C   0  0  0  0  0  0  0  0  0  0  0  0
  152.5130  143.8695  160.8700 C   0  0  2  0  0  0  0  0  0  0  0  0
  151.4547  144.8587  160.3414 C   0  0  0  0  0  0  0  0  0  0  0  0
  151.6441  145.1676  158.8482 C   0  0  0  0  0  0  0  0  0  0  0  0
  151.6523  143.8906  157.9919 C   0  0  2  0  0  0  0  0  0  0  0  0
  150.3028  143.2842  157.9329 N   0  3  0  0  0  0  0  0  0  0  0  0
  150.2695  141.8796  157.4798 C   0  0  0  0  0  0  0  0  0  0  0  0
  150.6659  141.7686  156.0002 C   0  0  0  0  0  0  0  0  0  0  0  0
  150.5587  140.3841  155.4357 C   0  0  0  0  0  0  0  0  0  0  0  0
  149.7984  139.8919  154.4096 C   0  0  0  0  0  0  0  0  0  0  0  0
  150.1349  138.5118  154.3550 C   0  0  0  0  0  0  0  0  0  0  0  0
  151.0277  138.1726  155.2674 N   0  0  0  0  0  0  0  0  0  0  0  0
  151.2901  139.3173  155.9320 N   0  0  0  0  0  0  0  0  0  0  0  0
  152.2508  139.2780  157.0183 C   0  0  0  0  0  0  0  0  0  0  0  0
  152.6859  142.8815  158.5242 C   0  0  0  0  0  0  0  0  0  0  0  0
  152.5154  142.5661  160.0274 C   0  0  1  0  0  0  0  0  0  0  0  0
  153.5993  141.5686  160.4743 C   0  0  0  0  0  0  0  0  0  0  0  0
  151.3510  143.0710  162.5413 H   0  0  0  0  0  0  0  0  0  0  0  0
  152.2252  144.5502  162.9236 H   0  0  0  0  0  0  0  0  0  0  0  0
  153.0932  143.0354  162.8123 H   0  0  0  0  0  0  0  0  0  0  0  0
  153.4902  144.3435  160.7656 H   0  0  0  0  0  0  0  0  0  0  0  0
  150.4554  144.4547  160.5096 H   0  0  0  0  0  0  0  0  0  0  0  0
  151.5035  145.7900  160.9072 H   0  0  0  0  0  0  0  0  0  0  0  0
  150.8663  145.8505  158.5040 H   0  0  0  0  0  0  0  0  0  0  0  0
  152.5898  145.6944  158.7139 H   0  0  0  0  0  0  0  0  0  0  0  0
  151.9512  144.1713  156.9806 H   0  0  0  0  0  0  0  0  0  0  0  0
  149.8943  143.3325  158.8553 H   0  0  0  0  0  0  0  0  0  0  0  0
  150.9516  141.2910  158.0952 H   0  0  0  0  0  0  0  0  0  0  0  0
  149.2652  141.4808  157.6295 H   0  0  0  0  0  0  0  0  0  0  0  0
  150.0384  142.4402  155.4125 H   0  0  0  0  0  0  0  0  0  0  0  0
  151.6905  142.1223  155.8783 H   0  0  0  0  0  0  0  0  0  0  0  0
  149.1023  140.4335  153.7864 H   0  0  0  0  0  0  0  0  0  0  0  0
  149.7600  137.7522  153.6849 H   0  0  0  0  0  0  0  0  0  0  0  0
  152.3736  140.2630  157.4671 H   0  0  0  0  0  0  0  0  0  0  0  0
  153.2173  138.9420  156.6415 H   0  0  0  0  0  0  0  0  0  0  0  0
  151.9084  138.5835  157.7860 H   0  0  0  0  0  0  0  0  0  0  0  0
  152.6346  141.9619  157.9394 H   0  0  0  0  0  0  0  0  0  0  0  0
  153.6861  143.2850  158.3585 H   0  0  0  0  0  0  0  0  0  0  0  0
  151.5498  142.0758  160.1598 H   0  0  0  0  0  0  0  0  0  0  0  0
  154.5911  142.0211  160.4476 H   0  0  0  0  0  0  0  0  0  0  0  0
  153.6183  140.6932  159.8248 H   0  0  0  0  0  0  0  0  0  0  0  0
  153.4236  141.2055  161.4867 H   0  0  0  0  0  0  0  0  0  0  0  0
  149.7363  143.8358  157.3043 H   0  0  0  0  0  0  0  0  0  0  0  0
  1  2  1  0  0  0  0
  1 18  1  0  0  0  0
  1 19  1  0  0  0  0
  1 20  1  0  0  0  0
  2 16  1  0  0  0  0
  2  3  1  0  0  0  0
  2 21  1  0  0  0  0
  3  4  1  0  0  0  0
  3 22  1  0  0  0  0
  3 23  1  0  0  0  0
  4  5  1  0  0  0  0
  4 24  1  0  0  0  0
  4 25  1  0  0  0  0
  5  6  1  0  0  0  0
  5 15  1  0  0  0  0
  5 26  1  0  0  0  0
  6  7  1  0  0  0  0
  6 27  1  0  0  0  0
  6 43  1  0  0  0  0
  7  8  1  0  0  0  0
  7 28  1  0  0  0  0
  7 29  1  0  0  0  0
  8  9  1  0  0  0  0
  8 30  1  0  0  0  0
  8 31  1  0  0  0  0
  9 13  1  0  0  0  0
  9 10  2  0  0  0  0
 10 11  1  0  0  0  0
 10 32  1  0  0  0  0
 11 12  2  0  0  0  0
 11 33  1  0  0  0  0
 12 13  1  0  0  0  0
 13 14  1  0  0  0  0
 14 34  1  0  0  0  0
 14 35  1  0  0  0  0
 14 36  1  0  0  0  0
 15 16  1  0  0  0  0
 15 37  1  0  0  0  0
 15 38  1  0  0  0  0
 16 17  1  0  0  0  0
 16 39  1  0  0  0  0
 17 40  1  0  0  0  0
 17 41  1  0  0  0  0
 17 42  1  0  0  0  0
M  CHG  1   6   1
M  END
> <s_m_source_file>
AV-unprocessed.smi

> <i_m_source_file_index>
3183

> <i_lp_mmshare_version>
43012

> <i_f3d_flags>
0

> <s_epik_input>
W0NIM11bQ0BASF0xW0NIMl1bQ0gyXVtDQEhdKFtDSDJdW0NASF0xW0NIM10pW05IXVtDSDJdW0NIMl1jMltjSF1bY0hdbm4yW0NIM10=

> <s_epik_cmdline>
J2VwaWtfcHl0aG9uJywgJy1waCcsICc3LjAnLCAnLXRuJywgJzgnLCAnLW1hJywgJzIwMCcsICctbWV0YWxfYmluZGluZycsICctaW1hZScsICc8aW5maWxlLm1hZT4nLCAnLW9tYWUnLCAnPG91dGZpbGUubWFlPic=

> <r_lp_tautomer_probability>
1

> <r_epik_Ionization_Penalty>
0.000327718

> <r_epik_Ionization_Penalty_Charging>
0.000294043

> <r_epik_Ionization_Penalty_Neutral>
3.36755e-05

> <r_epik_State_Penalty>
-0

> <r_epik_Charging_Adjusted_Penalty>
0.000294043

> <i_epik_Tot_Q>
1

> <i_epik_Tot_abs_Q>
1

> <r_epik_Metal_State_Penalty>
-0

> <b_epik_Metal_Only>
0

> <s_lp_Force_Field>
OPLS_2005

> <r_lp_Energy>
17.888

> <b_lp_Chiralities_Consistent>
1

> <s_lp_Variant>
AV-unprocessed.smi:3183-3

> <Gold.Version>
5.8.1

> <Gold.Id.Protein>
6NUR|6NUR_protein|mol2

> <Gold.PLP.Fitness>
52.8568

> <Gold.PLP.PLP>
-44.2199

> <Gold.PLP.part.hbond>
-1.0000

> <Gold.PLP.part.metal>
0.0000

> <Gold.PLP.part.buried>
-1.7343

> <Gold.PLP.part.nonpolar>
-41.5946

> <Gold.PLP.part.repulsive>
0.1072

> <Gold.PLP.ligand.clash>
0.0000

> <Gold.PLP.ligand.torsion>
0.1881

> <Gold.PLP.Chemscore.Hbond>
2.0000

> <Gold.PLP.Chemscore.CHOScore>
1.0000

> <Gold.PLP.Chemscore.Metal>
0.0000

> <Gold.Chemscore.Hbonds>
donor molecule, donor type, donor heavy atom, donor atom, acceptor molecule, acceptor atom, score
      L1  H     6    43       P1  8028  1.98
      L1  C    11    33       P1  7948  1.00

> <Gold.PLP.Chemscore.Internal.Correction>
0.0132

> <Gold.Rescore>
     Score         DG    S(hbond)    S(metal)    S(lipo)     H(rot)  DE(clash)    DE(int)     intcor
     20.37     -20.95       0.93        0.00     135.95       1.38       0.38       0.20       ----

> <Gold.Chemscore.Fitness>
20.3696

> <Gold.Chemscore.DG>
-20.9531

> <Gold.Chemscore.ZeroCoef>
-5.4800

> <Gold.Chemscore.Hbond>
0.9257

> <Gold.Chemscore.Metal>
0.0000

> <Gold.Chemscore.Lipo>
135.9484

> <Gold.Chemscore.Internal_Hbond>
0.0000

> <Gold.Chemscore.DEClash>
0.3797

> <Gold.Chemscore.DEInternal>
0.2038

> <Gold.Chemscore.Rot>
1.3768

> <Gold.Chemscore.Internal.Correction>
   9.000000E+99

> <Gold.Chemscore.Hbonds>
donor molecule, donor type, donor heavy atom, donor atom, acceptor molecule, acceptor atom, score
      L1  H     6    43       P1  8028  0.69

> <Gold.Chemscore.Hbond.Weighted>
-3.0918

> <Gold.Chemscore.Metal.Weighted>
-0.0000

> <Gold.Chemscore.Lipo.Weighted>
-15.9060

> <Gold.Chemscore.Internal_Hbond.Weighted>
0.0000

> <Gold.Chemscore.DEClash.Weighted>
0.3797

> <Gold.Chemscore.DEInternal.Weighted>
0.2038

> <Gold.Chemscore.Rot.Weighted>
3.5247

> <Gold.Chemscore.Internal.Correction.Weighted>
   9.000000E+99

> <Gold.Protein.RotatedTorsions>
[ 6907 6896 6895 6894 ] final  -50.54 input  -60.11 | X-H torsion
[ 7974 7965 7964 7962 ] final -131.40 input  175.53 | X-H torsion
[ 8008 7997 7996 7995 ] final  117.27 input   59.86 | X-H torsion
[ 10167 10162 10161 10158 ] final  -40.35 input  -65.29 | X-H torsion
[ 10718 10713 10712 10709 ] final   68.37 input   66.30 | X-H torsion
[ 10763 10752 10751 10750 ] final  -84.15 input  -60.55 | X-H torsion
[ 11005 11000 10999 10996 ] final  -91.26 input  -57.11 | X-H torsion

> <Gold.Protein.ActiveResidues>
 VAL166  LYS551  ARG553  GLY616  TRP617  ASP618  TYR619  PRO620  LYS621  CYS622 
 ASP623  PHE694  ASN695  SER759  ASP760  ASP761  ALA762  ILE779  LEU786  VAL792 
 PHE793  MET794  SER795  GLU796  ALA797  LYS798  CYS799  TRP800  GLU811  SER814 

> <Gold.Protein.RotatedAtoms>
  150.8697  134.8068  159.7145 H   0  0  0  0  0  0  0  0  0  0  0  0  # atno 6907 bound_to 6896
  152.4706  134.4967  159.9722 H   0  0  0  0  0  0  0  0  0  0  0  0  # atno 6908 bound_to 6896
  151.5057  133.3456  159.2912 H   0  0  0  0  0  0  0  0  0  0  0  0  # atno 6909 bound_to 6896
  144.9382  140.7208  143.4863 H   0  0  0  0  0  0  0  0  0  0  0  0  # atno 7974 bound_to 7965
  156.2485  140.2900  156.0653 H   0  0  0  0  0  0  0  0  0  0  0  0  # atno 8008 bound_to 7997
  155.1731  140.0402  157.2884 H   0  0  0  0  0  0  0  0  0  0  0  0  # atno 8009 bound_to 7997
  154.6312  140.2500  155.7439 H   0  0  0  0  0  0  0  0  0  0  0  0  # atno 8010 bound_to 7997
  140.7037  143.3158  151.2912 H   0  0  0  0  0  0  0  0  0  0  0  0  # atno 10167 bound_to 10162
  157.6285  130.9370  150.0368 H   0  0  0  0  0  0  0  0  0  0  0  0  # atno 10718 bound_to 10713
  154.5961  135.5531  153.7327 H   0  0  0  0  0  0  0  0  0  0  0  0  # atno 10763 bound_to 10752
  153.0136  135.6355  154.1780 H   0  0  0  0  0  0  0  0  0  0  0  0  # atno 10764 bound_to 10752
  154.1720  135.2891  155.3058 H   0  0  0  0  0  0  0  0  0  0  0  0  # atno 10765 bound_to 10752
  141.1548  133.7744  156.9854 H   0  0  0  0  0  0  0  0  0  0  0  0  # atno 11005 bound_to 11000
  145.3032  139.1843  143.4678 LP  0  0  0  0  0  0  0  0  0  0  0  0  # atno 17320 bound_to 7965
  146.3275  140.3026  142.8621 LP  0  0  0  0  0  0  0  0  0  0  0  0  # atno 17321 bound_to 7965
  139.6597  144.0212  152.2684 LP  0  0  0  0  0  0  0  0  0  0  0  0  # atno 17342 bound_to 10162
  139.9775  144.6451  150.7931 LP  0  0  0  0  0  0  0  0  0  0  0  0  # atno 17343 bound_to 10162
  156.1473  130.3642  149.9491 LP  0  0  0  0  0  0  0  0  0  0  0  0  # atno 17370 bound_to 10713
  156.7519  130.9118  151.3638 LP  0  0  0  0  0  0  0  0  0  0  0  0  # atno 17371 bound_to 10713
  140.1038  134.9519  157.1963 LP  0  0  0  0  0  0  0  0  0  0  0  0  # atno 17394 bound_to 11000
  140.3283  134.2838  155.7233 LP  0  0  0  0  0  0  0  0  0  0  0  0  # atno 17395 bound_to 11000

$$$$
