AV-unprocessed.smi:2047|AV-procd|sdf|8315|dock5
  -GOLD-   2272010583D 1   1.00000     0.00000
 Structure written by MMmdl.
 42 44  0  0  0  0  0  0  0  0  1 V2000
  150.3246  133.8300  155.7137 O   0  0  0  0  0  0  0  0  0  0  0  0
  149.8117  134.4470  154.7803 C   0  0  0  0  0  0  0  0  0  0  0  0
  149.0188  133.9140  153.8356 N   0  0  0  0  0  0  0  0  0  0  0  0
  148.5745  132.5674  153.7001 C   0  0  0  0  0  0  0  0  0  0  0  0
  149.3374  131.4749  154.1819 C   0  0  0  0  0  0  0  0  0  0  0  0
  148.8827  130.1636  153.9599 C   0  0  0  0  0  0  0  0  0  0  0  0
  147.6855  129.9869  153.2474 C   0  0  0  0  0  0  0  0  0  0  0  0
  146.9550  131.0139  152.7699 N   0  0  0  0  0  0  0  0  0  0  0  0
  147.3727  132.2852  152.9884 C   0  0  0  0  0  0  0  0  0  0  0  0
  146.5592  133.3209  152.4738 N   0  0  0  0  0  0  0  0  0  0  0  0
  146.5086  133.5781  151.0385 C   0  0  0  0  0  0  0  0  0  0  0  0
  145.2832  134.4653  150.8402 C   0  0  0  0  0  0  0  0  0  0  0  0
  144.3132  133.9169  151.8821 C   0  0  0  0  0  0  0  0  0  0  0  0
  145.2236  133.4901  153.0390 C   0  0  0  0  0  0  0  0  0  0  0  0
  149.9714  135.7635  154.5875 N   0  0  0  0  0  0  0  0  0  0  0  0
  150.7864  136.6410  155.4217 C   0  0  2  0  0  0  0  0  0  0  0  0
  149.9558  137.2433  156.5700 C   0  0  0  0  0  0  0  0  0  0  0  0
  150.7352  138.4161  157.1758 C   0  0  0  0  0  0  0  0  0  0  0  0
  151.6924  139.1534  155.7979 S   0  0  0  0  0  0  0  0  0  0  0  0
  151.0154  140.3708  155.3258 O   0  0  0  0  0  0  0  0  0  0  0  0
  153.1172  139.1717  156.1617 O   0  0  0  0  0  0  0  0  0  0  0  0
  151.3816  137.7984  154.6037 C   0  0  0  0  0  0  0  0  0  0  0  0
  148.6092  134.5663  153.1829 H   0  0  0  0  0  0  0  0  0  0  0  0
  150.2753  131.6151  154.6962 H   0  0  0  0  0  0  0  0  0  0  0  0
  149.4461  129.3140  154.3161 H   0  0  0  0  0  0  0  0  0  0  0  0
  147.3069  128.9951  153.0491 H   0  0  0  0  0  0  0  0  0  0  0  0
  147.4212  134.0615  150.6886 H   0  0  0  0  0  0  0  0  0  0  0  0
  146.3762  132.6488  150.4823 H   0  0  0  0  0  0  0  0  0  0  0  0
  145.5309  135.5026  151.0704 H   0  0  0  0  0  0  0  0  0  0  0  0
  144.8889  134.4258  149.8246 H   0  0  0  0  0  0  0  0  0  0  0  0
  143.5565  134.6418  152.1834 H   0  0  0  0  0  0  0  0  0  0  0  0
  143.7996  133.0433  151.4788 H   0  0  0  0  0  0  0  0  0  0  0  0
  144.8608  132.5781  153.5153 H   0  0  0  0  0  0  0  0  0  0  0  0
  145.2577  134.2765  153.7933 H   0  0  0  0  0  0  0  0  0  0  0  0
  149.5052  136.1884  153.7993 H   0  0  0  0  0  0  0  0  0  0  0  0
  151.6047  136.0732  155.8688 H   0  0  0  0  0  0  0  0  0  0  0  0
  149.0130  137.6216  156.1718 H   0  0  0  0  0  0  0  0  0  0  0  0
  149.7063  136.4972  157.3249 H   0  0  0  0  0  0  0  0  0  0  0  0
  150.0908  139.1671  157.6329 H   0  0  0  0  0  0  0  0  0  0  0  0
  151.4437  138.0623  157.9249 H   0  0  0  0  0  0  0  0  0  0  0  0
  152.3060  137.5267  154.0936 H   0  0  0  0  0  0  0  0  0  0  0  0
  150.6716  138.1671  153.8624 H   0  0  0  0  0  0  0  0  0  0  0  0
  1  2  2  0  0  0  0
  2  3  1  0  0  0  0
  2 15  1  0  0  0  0
  3  4  1  0  0  0  0
  3 23  1  0  0  0  0
  4  9  1  0  0  0  0
  4  5  2  0  0  0  0
  5  6  1  0  0  0  0
  5 24  1  0  0  0  0
  6  7  2  0  0  0  0
  6 25  1  0  0  0  0
  7  8  1  0  0  0  0
  7 26  1  0  0  0  0
  8  9  2  0  0  0  0
  9 10  1  0  0  0  0
 10 14  1  0  0  0  0
 10 11  1  0  0  0  0
 11 12  1  0  0  0  0
 11 27  1  0  0  0  0
 11 28  1  0  0  0  0
 12 13  1  0  0  0  0
 12 29  1  0  0  0  0
 12 30  1  0  0  0  0
 13 14  1  0  0  0  0
 13 31  1  0  0  0  0
 13 32  1  0  0  0  0
 14 33  1  0  0  0  0
 14 34  1  0  0  0  0
 15 16  1  0  0  0  0
 15 35  1  0  0  0  0
 16 22  1  0  0  0  0
 16 17  1  0  0  0  0
 16 36  1  0  0  0  0
 17 18  1  0  0  0  0
 17 37  1  0  0  0  0
 17 38  1  0  0  0  0
 18 19  1  0  0  0  0
 18 39  1  0  0  0  0
 18 40  1  0  0  0  0
 19 20  2  0  0  0  0
 19 21  2  0  0  0  0
 19 22  1  0  0  0  0
 22 41  1  0  0  0  0
 22 42  1  0  0  0  0
M  END
> <s_m_source_file>
AV-unprocessed.smi

> <i_m_source_file_index>
2047

> <i_lp_mmshare_version>
43012

> <i_f3d_flags>
0

> <s_epik_input>
Tz1TMSg9TylbQ0gyXVtDSDJdW0NASF0oW0NIMl0xKVtOSF1DKD1PKVtOSF1jMltjSF1bY0hdW2NIXW5jMk4zW0NIMl1bQ0gyXVtDSDJdW0NIMl0z

> <s_epik_cmdline>
J2VwaWtfcHl0aG9uJywgJy1waCcsICc3LjAnLCAnLXRuJywgJzgnLCAnLW1hJywgJzIwMCcsICctbWV0YWxfYmluZGluZycsICctaW1hZScsICc8aW5maWxlLm1hZT4nLCAnLW9tYWUnLCAnPG91dGZpbGUubWFlPic=

> <r_lp_tautomer_probability>
1

> <r_epik_Ionization_Penalty>
0.0840625

> <r_epik_Ionization_Penalty_Charging>
0

> <r_epik_Ionization_Penalty_Neutral>
0.0840625

> <r_epik_State_Penalty>
0.0741601

> <r_epik_Charging_Adjusted_Penalty>
0.0741601

> <i_epik_Tot_Q>
0

> <i_epik_Tot_abs_Q>
0

> <r_epik_Metal_State_Penalty>
0.0657339

> <b_epik_Metal_Only>
0

> <s_lp_Force_Field>
OPLS_2005

> <r_lp_Energy>
32.0686

> <b_lp_Chiralities_Consistent>
1

> <s_lp_Variant>
AV-unprocessed.smi:2047-1

> <Gold.Version>
5.8.1

> <Gold.Id.Protein>
6NUR|6NUR_protein|mol2

> <Gold.PLP.Fitness>
45.8852

> <Gold.PLP.PLP>
-35.2669

> <Gold.PLP.part.hbond>
-4.4966

> <Gold.PLP.part.metal>
0.0000

> <Gold.PLP.part.buried>
-4.6860

> <Gold.PLP.part.nonpolar>
-26.3845

> <Gold.PLP.part.repulsive>
0.4043

> <Gold.PLP.ligand.clash>
0.0000

> <Gold.PLP.ligand.torsion>
0.6947

> <Gold.PLP.Chemscore.Hbond>
3.8960

> <Gold.PLP.Chemscore.CHOScore>
0.0000

> <Gold.PLP.Chemscore.Metal>
0.0000

> <Gold.Chemscore.Hbonds>
donor molecule, donor type, donor heavy atom, donor atom, acceptor molecule, acceptor atom, score
      L1  H     3    23       P1  7948  0.73
      L1  H    15    35       P1  7948  1.00
      P1  H  7989  7998       L1    20  1.00
      P1  H  7997  8010       L1    21  1.00

> <Gold.PLP.Chemscore.Internal.Correction>
0.3197

> <Gold.Rescore>
     Score         DG    S(hbond)    S(metal)    S(lipo)     H(rot)  DE(clash)    DE(int)     intcor
     18.67     -20.41       3.30        0.00      60.84       1.25       0.01       1.73       ----

> <Gold.Chemscore.Fitness>
18.6743

> <Gold.Chemscore.DG>
-20.4121

> <Gold.Chemscore.ZeroCoef>
-5.4800

> <Gold.Chemscore.Hbond>
3.2960

> <Gold.Chemscore.Metal>
0.0000

> <Gold.Chemscore.Lipo>
60.8397

> <Gold.Chemscore.Internal_Hbond>
0.0000

> <Gold.Chemscore.DEClash>
0.0089

> <Gold.Chemscore.DEInternal>
1.7289

> <Gold.Chemscore.Rot>
1.2480

> <Gold.Chemscore.Internal.Correction>
   9.000000E+99

> <Gold.Chemscore.Hbonds>
donor molecule, donor type, donor heavy atom, donor atom, acceptor molecule, acceptor atom, score
      L1  H     3    23       P1  7948  0.21
      L1  H    15    35       P1  7948  0.61
      P1  H  7989  7998       L1    20  0.73
      P1  H  7997  8010       L1    21  0.95

> <Gold.Chemscore.Hbond.Weighted>
-11.0087

> <Gold.Chemscore.Metal.Weighted>
-0.0000

> <Gold.Chemscore.Lipo.Weighted>
-7.1182

> <Gold.Chemscore.Internal_Hbond.Weighted>
0.0000

> <Gold.Chemscore.DEClash.Weighted>
0.0089

> <Gold.Chemscore.DEInternal.Weighted>
1.7289

> <Gold.Chemscore.Rot.Weighted>
3.1948

> <Gold.Chemscore.Internal.Correction.Weighted>
   9.000000E+99

> <Gold.Protein.RotatedTorsions>
[ 6907 6896 6895 6894 ] final  -21.97 input  -60.11 | X-H torsion
[ 7974 7965 7964 7962 ] final   54.36 input  175.53 | X-H torsion
[ 8008 7997 7996 7995 ] final   74.32 input   59.86 | X-H torsion
[ 10167 10162 10161 10158 ] final   75.12 input  -65.29 | X-H torsion
[ 10718 10713 10712 10709 ] final -168.42 input   66.30 | X-H torsion
[ 10763 10752 10751 10750 ] final  -10.59 input  -60.55 | X-H torsion
[ 11005 11000 10999 10996 ] final   37.90 input  -57.11 | X-H torsion

> <Gold.Protein.ActiveResidues>
 VAL166  LYS551  ARG553  GLY616  TRP617  ASP618  TYR619  PRO620  LYS621  CYS622 
 ASP623  PHE694  ASN695  SER759  ASP760  ASP761  ALA762  ILE779  LEU786  VAL792 
 PHE793  MET794  SER795  GLU796  ALA797  LYS798  CYS799  TRP800  GLU811  SER814 

> <Gold.Protein.RotatedAtoms>
  151.2254  135.0534  159.8966 H   0  0  0  0  0  0  0  0  0  0  0  0  # atno 6907 bound_to 6896
  152.5411  134.0595  159.8156 H   0  0  0  0  0  0  0  0  0  0  0  0  # atno 6908 bound_to 6896
  151.0767  133.5374  159.2655 H   0  0  0  0  0  0  0  0  0  0  0  0  # atno 6909 bound_to 6896
  145.9616  139.4065  143.0244 H   0  0  0  0  0  0  0  0  0  0  0  0  # atno 7974 bound_to 7965
  155.7966  140.3477  155.5379 H   0  0  0  0  0  0  0  0  0  0  0  0  # atno 8008 bound_to 7997
  155.8580  140.0967  157.1652 H   0  0  0  0  0  0  0  0  0  0  0  0  # atno 8009 bound_to 7997
  154.4010  140.1364  156.3913 H   0  0  0  0  0  0  0  0  0  0  0  0  # atno 8010 bound_to 7997
  140.0064  144.5647  150.7694 H   0  0  0  0  0  0  0  0  0  0  0  0  # atno 10167 bound_to 10162
  156.6967  130.9180  151.3075 H   0  0  0  0  0  0  0  0  0  0  0  0  # atno 10718 bound_to 10713
  153.4715  135.7017  153.5991 H   0  0  0  0  0  0  0  0  0  0  0  0  # atno 10763 bound_to 10752
  153.4243  135.3818  155.2131 H   0  0  0  0  0  0  0  0  0  0  0  0  # atno 10764 bound_to 10752
  154.8725  135.3935  154.4153 H   0  0  0  0  0  0  0  0  0  0  0  0  # atno 10765 bound_to 10752
  140.2180  134.3675  155.8018 H   0  0  0  0  0  0  0  0  0  0  0  0  # atno 11005 bound_to 11000
  145.8031  140.9761  143.0988 LP  0  0  0  0  0  0  0  0  0  0  0  0  # atno 17320 bound_to 7965
  144.6816  139.9827  143.7483 LP  0  0  0  0  0  0  0  0  0  0  0  0  # atno 17321 bound_to 7965
  140.7399  143.2797  151.3636 LP  0  0  0  0  0  0  0  0  0  0  0  0  # atno 17342 bound_to 10162
  139.6235  144.0859  152.2413 LP  0  0  0  0  0  0  0  0  0  0  0  0  # atno 17343 bound_to 10162
  157.6988  130.9311  150.0724 LP  0  0  0  0  0  0  0  0  0  0  0  0  # atno 17370 bound_to 10713
  156.1758  130.3648  149.9102 LP  0  0  0  0  0  0  0  0  0  0  0  0  # atno 17371 bound_to 10713
  141.2224  133.7178  156.8528 LP  0  0  0  0  0  0  0  0  0  0  0  0  # atno 17394 bound_to 11000
  140.1880  134.8986  157.3027 LP  0  0  0  0  0  0  0  0  0  0  0  0  # atno 17395 bound_to 11000

$$$$
