AV-unprocessed.smi:287|AV-procd|sdf|2208|dock8
  -GOLD-   2262022 43D 1   1.00000     0.00000
 Structure written by MMmdl.
 55 58  0  0  0  0  0  0  0  0  1 V2000
  151.5836  143.6541  158.0082 C   0  0  0  0  0  0  0  0  0  0  0  0
  151.1745  142.3785  157.3551 C   0  0  0  0  0  0  0  0  0  0  0  0
  150.7776  142.0480  156.0920 C   0  0  0  0  0  0  0  0  0  0  0  0
  150.5087  140.6466  156.0821 C   0  0  0  0  0  0  0  0  0  0  0  0
  150.0452  139.8231  154.8870 C   0  0  2  0  0  0  0  0  0  0  0  0
  151.0954  138.7596  154.5167 C   0  0  0  0  0  0  0  0  0  0  0  0
  149.8993  140.6023  153.7153 O   0  0  0  0  0  0  0  0  0  0  0  0
  148.6784  139.1478  155.1383 C   0  0  0  0  0  0  0  0  0  0  0  0
  148.7752  137.9526  155.9661 N   0  0  0  0  0  0  0  0  0  0  0  0
  148.6524  136.7213  155.4276 C   0  0  0  0  0  0  0  0  0  0  0  0
  149.7291  135.9130  155.5742 N   0  0  0  0  0  0  0  0  0  0  0  0
  149.7090  134.6717  155.0821 C   0  0  0  0  0  0  0  0  0  0  0  0
  148.7291  134.0527  154.4224 N   0  0  0  0  0  0  0  0  0  0  0  0
  147.6400  134.8596  154.2650 C   0  0  0  0  0  0  0  0  0  0  0  0
  147.5196  136.2008  154.7329 C   0  0  0  0  0  0  0  0  0  0  0  0
  146.2690  136.6973  154.3793 N   0  0  0  0  0  0  0  0  0  0  0  0
  145.6931  135.7108  153.7485 C   0  0  0  0  0  0  0  0  0  0  0  0
  146.4456  134.5643  153.6385 N   0  0  0  0  0  0  0  0  0  0  0  0
  146.0531  133.2805  152.9809 C   0  0  1  0  0  0  0  0  0  0  0  0
  144.8791  133.5008  152.2607 O   0  0  0  0  0  0  0  0  0  0  0  0
  144.9612  132.8481  150.9989 C   0  0  1  0  0  0  0  0  0  0  0  0
  144.0168  133.5343  149.9996 C   0  0  0  0  0  0  0  0  0  0  0  0
  144.2067  133.0010  148.7064 O   0  0  0  0  0  0  0  0  0  0  0  0
  146.4419  133.0001  150.6458 C   0  0  2  0  0  0  0  0  0  0  0  0
  146.8776  132.0800  149.6610 O   0  0  0  0  0  0  0  0  0  0  0  0
  147.1361  132.8169  151.9932 C   0  0  2  0  0  0  0  0  0  0  0  0
  147.4887  131.4667  152.2339 O   0  0  0  0  0  0  0  0  0  0  0  0
  150.7831  140.2298  157.3628 C   0  0  0  0  0  0  0  0  0  0  0  0
  150.7443  138.9056  158.0514 C   0  0  0  0  0  0  0  0  0  0  0  0
  151.1820  141.2736  158.1414 O   0  0  0  0  0  0  0  0  0  0  0  0
  145.8808  132.5852  153.8041 H   0  0  0  0  0  0  0  0  0  0  0  0
  144.7176  131.7904  151.1202 H   0  0  0  0  0  0  0  0  0  0  0  0
  146.6295  134.0096  150.2799 H   0  0  0  0  0  0  0  0  0  0  0  0
  148.0341  133.4321  152.0697 H   0  0  0  0  0  0  0  0  0  0  0  0
  151.5954  144.4735  157.2892 H   0  0  0  0  0  0  0  0  0  0  0  0
  152.5820  143.5664  158.4372 H   0  0  0  0  0  0  0  0  0  0  0  0
  150.8923  143.9169  158.8089 H   0  0  0  0  0  0  0  0  0  0  0  0
  150.6892  142.7380  155.2660 H   0  0  0  0  0  0  0  0  0  0  0  0
  151.2563  138.0530  155.3314 H   0  0  0  0  0  0  0  0  0  0  0  0
  152.0580  139.2164  154.2828 H   0  0  0  0  0  0  0  0  0  0  0  0
  150.7860  138.1796  153.6462 H   0  0  0  0  0  0  0  0  0  0  0  0
  149.7026  140.0249  152.9937 H   0  0  0  0  0  0  0  0  0  0  0  0
  147.9724  139.8590  155.5693 H   0  0  0  0  0  0  0  0  0  0  0  0
  148.2668  138.8313  154.1790 H   0  0  0  0  0  0  0  0  0  0  0  0
  148.8811  138.1161  156.9571 H   0  0  0  0  0  0  0  0  0  0  0  0
  150.6055  134.0911  155.2411 H   0  0  0  0  0  0  0  0  0  0  0  0
  144.6933  135.7918  153.3472 H   0  0  0  0  0  0  0  0  0  0  0  0
  142.9749  133.4320  150.3052 H   0  0  0  0  0  0  0  0  0  0  0  0
  144.2350  134.6013  149.9469 H   0  0  0  0  0  0  0  0  0  0  0  0
  144.9061  133.4767  148.2847 H   0  0  0  0  0  0  0  0  0  0  0  0
  147.5653  131.5477  150.0308 H   0  0  0  0  0  0  0  0  0  0  0  0
  148.2316  131.2541  151.6893 H   0  0  0  0  0  0  0  0  0  0  0  0
  149.7192  138.5456  158.1374 H   0  0  0  0  0  0  0  0  0  0  0  0
  151.1625  138.9705  159.0564 H   0  0  0  0  0  0  0  0  0  0  0  0
  151.3195  138.1642  157.4963 H   0  0  0  0  0  0  0  0  0  0  0  0
  1  2  1  0  0  0  0
  1 35  1  0  0  0  0
  1 36  1  0  0  0  0
  1 37  1  0  0  0  0
  2 30  1  0  0  0  0
  2  3  2  0  0  0  0
  3  4  1  0  0  0  0
  3 38  1  0  0  0  0
  4  5  1  0  0  0  0
  4 28  2  0  0  0  0
  5  6  1  0  0  0  0
  5  7  1  0  0  0  0
  5  8  1  0  0  0  0
  6 39  1  0  0  0  0
  6 40  1  0  0  0  0
  6 41  1  0  0  0  0
  7 42  1  0  0  0  0
  8  9  1  0  0  0  0
  8 43  1  0  0  0  0
  8 44  1  0  0  0  0
  9 10  1  0  0  0  0
  9 45  1  0  0  0  0
 10 15  1  0  0  0  0
 10 11  2  0  0  0  0
 11 12  1  0  0  0  0
 12 13  2  0  0  0  0
 12 46  1  0  0  0  0
 13 14  1  0  0  0  0
 14 18  1  0  0  0  0
 14 15  2  0  0  0  0
 15 16  1  0  0  0  0
 16 17  2  0  0  0  0
 17 18  1  0  0  0  0
 17 47  1  0  0  0  0
 18 19  1  0  0  0  0
 19 31  1  0  0  0  0
 19 26  1  0  0  0  0
 19 20  1  0  0  0  0
 20 21  1  0  0  0  0
 21 32  1  0  0  0  0
 21 22  1  0  0  0  0
 21 24  1  0  0  0  0
 22 23  1  0  0  0  0
 22 48  1  0  0  0  0
 22 49  1  0  0  0  0
 23 50  1  0  0  0  0
 24 33  1  0  0  0  0
 24 25  1  0  0  0  0
 24 26  1  0  0  0  0
 25 51  1  0  0  0  0
 26 34  1  0  0  0  0
 26 27  1  0  0  0  0
 27 52  1  0  0  0  0
 28 29  1  0  0  0  0
 28 30  1  0  0  0  0
 29 53  1  0  0  0  0
 29 54  1  0  0  0  0
 29 55  1  0  0  0  0
M  END
> <s_m_source_file>
AV-unprocessed.smi

> <i_m_source_file_index>
287

> <i_lp_mmshare_version>
43012

> <i_f3d_flags>
0

> <s_epik_input>
W0NIM11jMVtjSF1jKGMobzEpW0NIM10pW0NAQF0oW0NIM10pKFtPSF0pW0NIMl1bTkhdYyhuW2NIXW4yKWMoYzIzKW5bY0hdbjNbQ0BASF00T1tDQEhdKFtDSDJdW09IXSlbQ0BASF0oW09IXSlbQ0BIXTRbT0hd

> <s_epik_cmdline>
J2VwaWtfcHl0aG9uJywgJy1waCcsICc3LjAnLCAnLXRuJywgJzgnLCAnLW1hJywgJzIwMCcsICctbWV0YWxfYmluZGluZycsICctaW1hZScsICc8aW5maWxlLm1hZT4nLCAnLW9tYWUnLCAnPG91dGZpbGUubWFlPic=

> <r_lp_tautomer_probability>
1

> <r_epik_Ionization_Penalty>
0.000992612

> <r_epik_Ionization_Penalty_Charging>
0

> <r_epik_Ionization_Penalty_Neutral>
0.000992612

> <r_epik_State_Penalty>
-0

> <r_epik_Charging_Adjusted_Penalty>
0

> <i_epik_Tot_Q>
0

> <i_epik_Tot_abs_Q>
0

> <r_epik_Metal_State_Penalty>
-0

> <b_epik_Metal_Only>
0

> <s_epik_Chemistry_Notes>
This compound contains an acetal/aminal-like group ( X-CH(R)-Y where X, Y are N, S, or O) that may be acid/base labile, releasing an aldehyde.

> <s_lp_Force_Field>
OPLS_2005

> <r_lp_Energy>
44.724

> <b_lp_Chiralities_Consistent>
1

> <s_lp_Variant>
AV-unprocessed.smi:287-32

> <Gold.Version>
5.8.1

> <Gold.Id.Protein>
6NUR|6NUR_protein|mol2

> <Gold.PLP.Fitness>
52.6880

> <Gold.PLP.PLP>
-41.3268

> <Gold.PLP.part.hbond>
-4.7143

> <Gold.PLP.part.metal>
0.0000

> <Gold.PLP.part.buried>
-5.7850

> <Gold.PLP.part.nonpolar>
-30.6949

> <Gold.PLP.part.repulsive>
0.3576

> <Gold.PLP.ligand.clash>
0.0000

> <Gold.PLP.ligand.torsion>
1.1168

> <Gold.PLP.Chemscore.Hbond>
4.5058

> <Gold.PLP.Chemscore.CHOScore>
0.0000

> <Gold.PLP.Chemscore.Metal>
0.0000

> <Gold.Chemscore.Hbonds>
donor molecule, donor type, donor heavy atom, donor atom, acceptor molecule, acceptor atom, score
      L1  H     7    42       P1  7957  0.80
      L1  H    23    50       P1  7921  1.00
      L1  H    25    51       P1 10747  1.00
      L1  H    27    52       P1 10747  1.00
      P1  H  7989  7998       L1     7  0.46
      P1  H  8011  8017       L1     7  0.21

> <Gold.PLP.Chemscore.Internal.Correction>
0.0776

> <Gold.Rescore>
     Score         DG    S(hbond)    S(metal)    S(lipo)     H(rot)  DE(clash)    DE(int)     intcor
     14.13     -15.67       3.89        0.00      91.40       5.27       0.21       1.33       ----

> <Gold.Chemscore.Fitness>
14.1327

> <Gold.Chemscore.DG>
-15.6716

> <Gold.Chemscore.ZeroCoef>
-5.4800

> <Gold.Chemscore.Hbond>
3.8868

> <Gold.Chemscore.Metal>
0.0000

> <Gold.Chemscore.Lipo>
91.3981

> <Gold.Chemscore.Internal_Hbond>
0.0000

> <Gold.Chemscore.DEClash>
0.2106

> <Gold.Chemscore.DEInternal>
1.3283

> <Gold.Chemscore.Rot>
5.2672

> <Gold.Chemscore.Internal.Correction>
   9.000000E+99

> <Gold.Chemscore.Hbonds>
donor molecule, donor type, donor heavy atom, donor atom, acceptor molecule, acceptor atom, score
      L1  H     7    42       P1  7957  0.80
      L1  H    23    50       P1  7921  0.78
      L1  H    25    51       P1 10747  0.97
      L1  H    27    52       P1 10747  0.98
      P1  H  7989  7998       L1     7  0.02
      P1  H  8011  8017       L1     7  0.01

> <Gold.Chemscore.Hbond.Weighted>
-12.9819

> <Gold.Chemscore.Metal.Weighted>
-0.0000

> <Gold.Chemscore.Lipo.Weighted>
-10.6936

> <Gold.Chemscore.Internal_Hbond.Weighted>
0.0000

> <Gold.Chemscore.DEClash.Weighted>
0.2106

> <Gold.Chemscore.DEInternal.Weighted>
1.3283

> <Gold.Chemscore.Rot.Weighted>
13.4839

> <Gold.Chemscore.Internal.Correction.Weighted>
   9.000000E+99

> <Gold.Protein.RotatedTorsions>
[ 6907 6896 6895 6894 ] final  -74.29 input  -60.11 | X-H torsion
[ 7974 7965 7964 7962 ] final  169.28 input  175.53 | X-H torsion
[ 8008 7997 7996 7995 ] final  173.70 input   59.86 | X-H torsion
[ 10167 10162 10161 10158 ] final  172.57 input  -65.29 | X-H torsion
[ 10718 10713 10712 10709 ] final -164.50 input   66.30 | X-H torsion
[ 10763 10752 10751 10750 ] final   19.76 input  -60.55 | X-H torsion
[ 11005 11000 10999 10996 ] final  119.01 input  -57.11 | X-H torsion

> <Gold.Protein.ActiveResidues>
 VAL166  LYS551  ARG553  GLY616  TRP617  ASP618  TYR619  PRO620  LYS621  CYS622 
 ASP623  PHE694  ASN695  SER759  ASP760  ASP761  ALA762  ILE779  LEU786  VAL792 
 PHE793  MET794  SER795  GLU796  ALA797  LYS798  CYS799  TRP800  GLU811  SER814 

> <Gold.Protein.RotatedAtoms>
  150.7099  134.4891  159.5506 H   0  0  0  0  0  0  0  0  0  0  0  0  # atno 6907 bound_to 6896
  152.2513  134.8127  160.0454 H   0  0  0  0  0  0  0  0  0  0  0  0  # atno 6908 bound_to 6896
  151.8874  133.3473  159.3823 H   0  0  0  0  0  0  0  0  0  0  0  0  # atno 6909 bound_to 6896
  144.7360  139.9031  143.6410 H   0  0  0  0  0  0  0  0  0  0  0  0  # atno 7974 bound_to 7965
  156.1048  140.1453  156.9418 H   0  0  0  0  0  0  0  0  0  0  0  0  # atno 8008 bound_to 7997
  154.4727  140.0904  156.7229 H   0  0  0  0  0  0  0  0  0  0  0  0  # atno 8009 bound_to 7997
  155.4697  140.3441  155.4326 H   0  0  0  0  0  0  0  0  0  0  0  0  # atno 8010 bound_to 7997
  139.5080  144.3359  152.0066 H   0  0  0  0  0  0  0  0  0  0  0  0  # atno 10167 bound_to 10162
  156.6399  130.8964  151.2994 H   0  0  0  0  0  0  0  0  0  0  0  0  # atno 10718 bound_to 10713
  153.1134  135.6702  153.9460 H   0  0  0  0  0  0  0  0  0  0  0  0  # atno 10763 bound_to 10752
  153.8997  135.3037  155.3450 H   0  0  0  0  0  0  0  0  0  0  0  0  # atno 10764 bound_to 10752
  154.7552  135.5015  153.9440 H   0  0  0  0  0  0  0  0  0  0  0  0  # atno 10765 bound_to 10752
  139.9130  134.9625  156.7590 H   0  0  0  0  0  0  0  0  0  0  0  0  # atno 11005 bound_to 11000
  146.1057  139.4056  143.0319 LP  0  0  0  0  0  0  0  0  0  0  0  0  # atno 17320 bound_to 7965
  145.7515  140.9970  143.1248 LP  0  0  0  0  0  0  0  0  0  0  0  0  # atno 17321 bound_to 7965
  140.2798  144.3872  150.6123 LP  0  0  0  0  0  0  0  0  0  0  0  0  # atno 17342 bound_to 10162
  140.6027  143.2167  151.7042 LP  0  0  0  0  0  0  0  0  0  0  0  0  # atno 17343 bound_to 10162
  157.7174  130.9515  150.1308 LP  0  0  0  0  0  0  0  0  0  0  0  0  # atno 17370 bound_to 10713
  156.2168  130.3671  149.8604 LP  0  0  0  0  0  0  0  0  0  0  0  0  # atno 17371 bound_to 10713
  140.6713  133.9557  155.7858 LP  0  0  0  0  0  0  0  0  0  0  0  0  # atno 17394 bound_to 11000
  141.0576  134.0394  157.3702 LP  0  0  0  0  0  0  0  0  0  0  0  0  # atno 17395 bound_to 11000

$$$$
