AV-unprocessed.smi:2119|AV-procd|sdf|8637|dock6
  -GOLD-   2272011383D 1   1.00000     0.00000
 Structure written by MMmdl.
 48 50  0  0  0  0  0  0  0  0  2 V2000
  144.8404  136.5431  153.4521 O   0  0  0  0  0  0  0  0  0  0  0  0
  145.9554  136.2574  153.0172 C   0  0  0  0  0  0  0  0  0  0  0  0
  147.0511  136.9890  153.2651 N   0  0  0  0  0  0  0  0  0  0  0  0
  147.0835  138.1779  154.1111 C   0  0  0  0  0  0  0  0  0  0  0  0
  148.3959  139.0052  153.9980 C   0  0  1  0  0  0  0  0  0  0  0  0
  148.1703  140.4763  154.4226 C   0  0  1  0  0  0  0  0  0  0  0  0
  147.1907  141.2394  153.5475 C   0  0  0  0  0  0  0  0  0  0  0  0
  146.8204  142.4196  154.4377 C   0  0  0  0  0  0  0  0  0  0  0  0
  146.8549  141.9164  155.7679 O   0  0  0  0  0  0  0  0  0  0  0  0
  147.5123  140.6531  155.7958 C   0  0  0  0  0  0  0  0  0  0  0  0
  149.5555  138.4378  154.7532 N   0  3  0  0  0  0  0  0  0  0  0  0
  149.5945  136.9602  154.8868 C   0  0  0  0  0  0  0  0  0  0  0  0
  150.7001  136.5548  155.8760 C   0  0  0  0  0  0  0  0  0  0  0  0
  151.9485  137.0768  155.4353 O   0  0  0  0  0  0  0  0  0  0  0  0
  151.9467  138.4989  155.3768 C   0  0  0  0  0  0  0  0  0  0  0  0
  150.8846  138.9742  154.3715 C   0  0  0  0  0  0  0  0  0  0  0  0
  146.2371  135.2116  152.2217 N   0  0  0  0  0  0  0  0  0  0  0  0
  145.3631  134.1872  151.7673 C   0  0  0  0  0  0  0  0  0  0  0  0
  144.0604  134.1417  152.3057 C   0  0  0  0  0  0  0  0  0  0  0  0
  143.1664  133.1505  151.8584 C   0  0  0  0  0  0  0  0  0  0  0  0
  143.6094  132.2434  150.8765 C   0  0  0  0  0  0  0  0  0  0  0  0
  144.8469  132.2812  150.3395 N   0  0  0  0  0  0  0  0  0  0  0  0
  145.7000  133.2335  150.7743 C   0  0  0  0  0  0  0  0  0  0  0  0
  147.9275  136.6868  152.8649 H   0  0  0  0  0  0  0  0  0  0  0  0
  146.2241  138.7980  153.8522 H   0  0  0  0  0  0  0  0  0  0  0  0
  146.9142  137.8670  155.1422 H   0  0  0  0  0  0  0  0  0  0  0  0
  148.6804  139.0340  152.9451 H   0  0  0  0  0  0  0  0  0  0  0  0
  149.1202  141.0129  154.4266 H   0  0  0  0  0  0  0  0  0  0  0  0
  147.6177  141.5536  152.5946 H   0  0  0  0  0  0  0  0  0  0  0  0
  146.3060  140.6343  153.3429 H   0  0  0  0  0  0  0  0  0  0  0  0
  147.5635  143.2128  154.3471 H   0  0  0  0  0  0  0  0  0  0  0  0
  145.8440  142.8385  154.1935 H   0  0  0  0  0  0  0  0  0  0  0  0
  146.7596  139.8826  155.9689 H   0  0  0  0  0  0  0  0  0  0  0  0
  148.2336  140.6075  156.6122 H   0  0  0  0  0  0  0  0  0  0  0  0
  148.6327  136.5865  155.2378 H   0  0  0  0  0  0  0  0  0  0  0  0
  149.7891  136.4978  153.9186 H   0  0  0  0  0  0  0  0  0  0  0  0
  150.4753  136.9147  156.8814 H   0  0  0  0  0  0  0  0  0  0  0  0
  150.7718  135.4687  155.9352 H   0  0  0  0  0  0  0  0  0  0  0  0
  151.7588  138.9149  156.3680 H   0  0  0  0  0  0  0  0  0  0  0  0
  152.9349  138.8419  155.0697 H   0  0  0  0  0  0  0  0  0  0  0  0
  151.1601  138.6414  153.3718 H   0  0  0  0  0  0  0  0  0  0  0  0
  150.8599  140.0644  154.3544 H   0  0  0  0  0  0  0  0  0  0  0  0
  147.1822  135.1590  151.8712 H   0  0  0  0  0  0  0  0  0  0  0  0
  143.7478  134.8543  153.0552 H   0  0  0  0  0  0  0  0  0  0  0  0
  142.1646  133.0878  152.2570 H   0  0  0  0  0  0  0  0  0  0  0  0
  142.9504  131.4708  150.5091 H   0  0  0  0  0  0  0  0  0  0  0  0
  146.6629  133.2291  150.2881 H   0  0  0  0  0  0  0  0  0  0  0  0
  149.4191  138.7823  155.6927 H   0  0  0  0  0  0  0  0  0  0  0  0
  1  2  2  0  0  0  0
  2  3  1  0  0  0  0
  2 17  1  0  0  0  0
  3  4  1  0  0  0  0
  3 24  1  0  0  0  0
  4  5  1  0  0  0  0
  4 25  1  0  0  0  0
  4 26  1  0  0  0  0
  5  6  1  0  0  0  0
  5 11  1  0  0  0  0
  5 27  1  0  0  0  0
  6 10  1  0  0  0  0
  6  7  1  0  0  0  0
  6 28  1  0  0  0  0
  7  8  1  0  0  0  0
  7 29  1  0  0  0  0
  7 30  1  0  0  0  0
  8  9  1  0  0  0  0
  8 31  1  0  0  0  0
  8 32  1  0  0  0  0
  9 10  1  0  0  0  0
 10 33  1  0  0  0  0
 10 34  1  0  0  0  0
 11 16  1  0  0  0  0
 11 12  1  0  0  0  0
 11 48  1  0  0  0  0
 12 13  1  0  0  0  0
 12 35  1  0  0  0  0
 12 36  1  0  0  0  0
 13 14  1  0  0  0  0
 13 37  1  0  0  0  0
 13 38  1  0  0  0  0
 14 15  1  0  0  0  0
 15 16  1  0  0  0  0
 15 39  1  0  0  0  0
 15 40  1  0  0  0  0
 16 41  1  0  0  0  0
 16 42  1  0  0  0  0
 17 18  1  0  0  0  0
 17 43  1  0  0  0  0
 18 23  1  0  0  0  0
 18 19  2  0  0  0  0
 19 20  1  0  0  0  0
 19 44  1  0  0  0  0
 20 21  2  0  0  0  0
 20 45  1  0  0  0  0
 21 22  1  0  0  0  0
 21 46  1  0  0  0  0
 22 23  2  0  0  0  0
 23 47  1  0  0  0  0
M  CHG  1  11   1
M  END
> <s_m_source_file>
AV-unprocessed.smi

> <i_m_source_file_index>
2119

> <i_lp_mmshare_version>
43012

> <i_f3d_flags>
0

> <s_epik_input>
W2NIXTFuW2NIXVtjSF1bY0hdYzFbTkhdQyg9TylbTkhdW0NIMl1bQ0BIXShbQ0BASF0yW0NIMl1bQ0gyXU9bQ0gyXTIpTjNbQ0gyXVtDSDJdT1tDSDJdW0NIMl0z

> <s_epik_cmdline>
J2VwaWtfcHl0aG9uJywgJy1waCcsICc3LjAnLCAnLXRuJywgJzgnLCAnLW1hJywgJzIwMCcsICctbWV0YWxfYmluZGluZycsICctaW1hZScsICc8aW5maWxlLm1hZT4nLCAnLW9tYWUnLCAnPG91dGZpbGUubWFlPic=

> <r_epik_Ionization_Penalty>
0.987463

> <r_epik_Ionization_Penalty_Charging>
0.98326

> <r_epik_Ionization_Penalty_Neutral>
0.00420251

> <r_epik_State_Penalty>
1.01721

> <r_epik_Charging_Adjusted_Penalty>
2.00047

> <i_epik_Tot_Q>
1

> <i_epik_Tot_abs_Q>
1

> <r_epik_Metal_State_Penalty>
1.01439

> <b_epik_Metal_Only>
0

> <s_lp_Force_Field>
OPLS_2005

> <r_lp_Energy>
47.2413

> <b_lp_Chiralities_Consistent>
1

> <s_lp_Variant>
AV-unprocessed.smi:2119-8

> <Gold.Version>
5.8.1

> <Gold.Id.Protein>
6NUR|6NUR_protein|mol2

> <Gold.PLP.Fitness>
44.1035

> <Gold.PLP.PLP>
-33.9496

> <Gold.PLP.part.hbond>
-2.8995

> <Gold.PLP.part.metal>
0.0000

> <Gold.PLP.part.buried>
-4.3484

> <Gold.PLP.part.nonpolar>
-27.2617

> <Gold.PLP.part.repulsive>
0.5173

> <Gold.PLP.ligand.clash>
0.0000

> <Gold.PLP.ligand.torsion>
0.7798

> <Gold.PLP.Chemscore.Hbond>
2.8390

> <Gold.PLP.Chemscore.CHOScore>
1.0000

> <Gold.PLP.Chemscore.Metal>
0.0000

> <Gold.Chemscore.Hbonds>
donor molecule, donor type, donor heavy atom, donor atom, acceptor molecule, acceptor atom, score
      L1  H     3    24       P1  7948  0.94
      L1  H    17    43       P1  7948  0.84
      P1  H 10752 10764       L1    14  0.98
      L1  C    21    46       P1 10952  0.87

> <Gold.PLP.Chemscore.Internal.Correction>
0.1965

> <Gold.Rescore>
     Score         DG    S(hbond)    S(metal)    S(lipo)     H(rot)  DE(clash)    DE(int)     intcor
     16.63     -19.95       2.66        0.00      84.87       1.70       0.03       3.30       ----

> <Gold.Chemscore.Fitness>
16.6252

> <Gold.Chemscore.DG>
-19.9516

> <Gold.Chemscore.ZeroCoef>
-5.4800

> <Gold.Chemscore.Hbond>
2.6643

> <Gold.Chemscore.Metal>
0.0000

> <Gold.Chemscore.Lipo>
84.8734

> <Gold.Chemscore.Internal_Hbond>
0.0000

> <Gold.Chemscore.DEClash>
0.0310

> <Gold.Chemscore.DEInternal>
3.2954

> <Gold.Chemscore.Rot>
1.7021

> <Gold.Chemscore.Internal.Correction>
   9.000000E+99

> <Gold.Chemscore.Hbonds>
donor molecule, donor type, donor heavy atom, donor atom, acceptor molecule, acceptor atom, score
      L1  H     3    24       P1  7948  0.90
      L1  H    17    43       P1  7948  0.76
      P1  H 10752 10764       L1    14  0.56

> <Gold.Chemscore.Hbond.Weighted>
-8.8989

> <Gold.Chemscore.Metal.Weighted>
-0.0000

> <Gold.Chemscore.Lipo.Weighted>
-9.9302

> <Gold.Chemscore.Internal_Hbond.Weighted>
0.0000

> <Gold.Chemscore.DEClash.Weighted>
0.0310

> <Gold.Chemscore.DEInternal.Weighted>
3.2954

> <Gold.Chemscore.Rot.Weighted>
4.3575

> <Gold.Chemscore.Internal.Correction.Weighted>
   9.000000E+99

> <Gold.Protein.RotatedTorsions>
[ 6907 6896 6895 6894 ] final -104.47 input  -60.11 | X-H torsion
[ 7974 7965 7964 7962 ] final   15.69 input  175.53 | X-H torsion
[ 8008 7997 7996 7995 ] final   31.45 input   59.86 | X-H torsion
[ 10167 10162 10161 10158 ] final   62.42 input  -65.29 | X-H torsion
[ 10718 10713 10712 10709 ] final  -28.10 input   66.30 | X-H torsion
[ 10763 10752 10751 10750 ] final  -44.40 input  -60.55 | X-H torsion
[ 11005 11000 10999 10996 ] final  -77.43 input  -57.11 | X-H torsion

> <Gold.Protein.ActiveResidues>
 VAL166  LYS551  ARG553  GLY616  TRP617  ASP618  TYR619  PRO620  LYS621  CYS622 
 ASP623  PHE694  ASN695  SER759  ASP760  ASP761  ALA762  ILE779  LEU786  VAL792 
 PHE793  MET794  SER795  GLU796  ALA797  LYS798  CYS799  TRP800  GLU811  SER814 

> <Gold.Protein.RotatedAtoms>
  150.7289  134.0272  159.3720 H   0  0  0  0  0  0  0  0  0  0  0  0  # atno 6907 bound_to 6896
  151.8240  135.0640  160.0438 H   0  0  0  0  0  0  0  0  0  0  0  0  # atno 6908 bound_to 6896
  152.2983  133.5593  159.5638 H   0  0  0  0  0  0  0  0  0  0  0  0  # atno 6909 bound_to 6896
  146.2271  139.8858  142.8563 H   0  0  0  0  0  0  0  0  0  0  0  0  # atno 7974 bound_to 7965
  155.1067  140.3235  155.4532 H   0  0  0  0  0  0  0  0  0  0  0  0  # atno 8008 bound_to 7997
  156.2702  140.2051  156.6139 H   0  0  0  0  0  0  0  0  0  0  0  0  # atno 8009 bound_to 7997
  154.6787  140.0528  157.0230 H   0  0  0  0  0  0  0  0  0  0  0  0  # atno 8010 bound_to 7997
  140.1441  144.4525  150.6795 H   0  0  0  0  0  0  0  0  0  0  0  0  # atno 10167 bound_to 10162
  156.4296  130.4442  149.7127 H   0  0  0  0  0  0  0  0  0  0  0  0  # atno 10718 bound_to 10713
  154.0115  135.6681  153.4765 H   0  0  0  0  0  0  0  0  0  0  0  0  # atno 10763 bound_to 10752
  153.0619  135.5023  154.8108 H   0  0  0  0  0  0  0  0  0  0  0  0  # atno 10764 bound_to 10752
  154.6993  135.3075  154.9329 H   0  0  0  0  0  0  0  0  0  0  0  0  # atno 10765 bound_to 10752
  141.1660  133.7022  156.7819 H   0  0  0  0  0  0  0  0  0  0  0  0  # atno 11005 bound_to 11000
  145.2467  141.0029  143.3904 LP  0  0  0  0  0  0  0  0  0  0  0  0  # atno 17320 bound_to 7965
  144.9408  139.4192  143.6450 LP  0  0  0  0  0  0  0  0  0  0  0  0  # atno 17321 bound_to 7965
  140.6743  143.2298  151.5548 LP  0  0  0  0  0  0  0  0  0  0  0  0  # atno 17342 bound_to 10162
  139.5457  144.2526  152.1438 LP  0  0  0  0  0  0  0  0  0  0  0  0  # atno 17343 bound_to 10162
  156.4035  130.7686  151.2696 LP  0  0  0  0  0  0  0  0  0  0  0  0  # atno 17370 bound_to 10713
  157.7508  131.0233  150.3827 LP  0  0  0  0  0  0  0  0  0  0  0  0  # atno 17371 bound_to 10713
  140.2388  134.8629  157.3553 LP  0  0  0  0  0  0  0  0  0  0  0  0  # atno 17394 bound_to 11000
  140.1816  134.4482  155.7768 LP  0  0  0  0  0  0  0  0  0  0  0  0  # atno 17395 bound_to 11000

$$$$
