AV-unprocessed.smi:513|AV-procd|sdf|2774|dock8
  -GOLD-   2262023243D 1   1.00000     0.00000
 Structure written by MMmdl.
 42 44  0  0  0  0  0  0  0  0  3 V2000
  150.5037  136.0093  155.0635 C   0  0  0  0  0  0  0  0  0  0  0  0
  151.6846  136.6073  155.5684 O   0  0  0  0  0  0  0  0  0  0  0  0
  151.4147  137.7403  156.3758 C   0  0  0  0  0  0  0  0  0  0  0  0
  151.3092  138.9770  155.4763 C   0  0  0  0  0  0  0  0  0  0  0  0
  150.8353  140.1400  156.2234 N   0  0  0  0  0  0  0  0  0  0  0  0
  149.7683  140.9405  155.9504 C   0  0  0  0  0  0  0  0  0  0  0  0
  148.9272  140.7222  154.8572 N   0  0  0  0  0  0  0  0  0  0  0  0
  148.5433  139.3921  154.3911 C   0  0  0  0  0  0  0  0  0  0  0  0
  147.0207  139.2882  154.1871 C   0  0  0  0  0  0  0  0  0  0  0  0
  146.5458  140.3335  153.2564 N   0  3  0  0  0  0  0  0  0  0  0  0
  146.9855  141.6880  153.6504 C   0  0  0  0  0  0  0  0  0  0  0  0
  148.5097  141.7154  153.8684 C   0  0  0  0  0  0  0  0  0  0  0  0
  149.6281  141.9803  156.7739 N   0  0  0  0  0  0  0  0  0  0  0  0
  150.6816  141.8212  157.6606 C   0  0  0  0  0  0  0  0  0  0  0  0
  151.4321  140.7326  157.3419 C   0  0  0  0  0  0  0  0  0  0  0  0
  152.6581  140.3390  158.0725 C   0  0  0  0  0  0  0  0  0  0  0  0
  153.3243  139.3684  157.7197 O   0  0  0  0  0  0  0  0  0  0  0  0
  152.9241  141.1750  159.1254 N   0  5  0  0  0  0  0  0  0  0  0  0
  152.1857  142.2804  159.4894 C   0  0  0  0  0  0  0  0  0  0  0  0
  152.4991  142.9840  160.4506 O   0  0  0  0  0  0  0  0  0  0  0  0
  151.0701  142.6202  158.7701 N   0  0  0  0  0  0  0  0  0  0  0  0
  150.2716  143.7962  159.1274 C   0  0  0  0  0  0  0  0  0  0  0  0
  150.7632  135.1481  154.4479 H   0  0  0  0  0  0  0  0  0  0  0  0
  149.9414  136.7088  154.4438 H   0  0  0  0  0  0  0  0  0  0  0  0
  149.8603  135.6628  155.8733 H   0  0  0  0  0  0  0  0  0  0  0  0
  150.4861  137.5982  156.9308 H   0  0  0  0  0  0  0  0  0  0  0  0
  152.2177  137.8730  157.1027 H   0  0  0  0  0  0  0  0  0  0  0  0
  152.2733  139.1880  155.0267 H   0  0  0  0  0  0  0  0  0  0  0  0
  150.6519  138.7862  154.6303 H   0  0  0  0  0  0  0  0  0  0  0  0
  149.0686  139.1716  153.4609 H   0  0  0  0  0  0  0  0  0  0  0  0
  148.8655  138.6426  155.1150 H   0  0  0  0  0  0  0  0  0  0  0  0
  146.7528  138.3071  153.7944 H   0  0  0  0  0  0  0  0  0  0  0  0
  146.5065  139.4027  155.1424 H   0  0  0  0  0  0  0  0  0  0  0  0
  146.9237  140.1343  152.3413 H   0  0  0  0  0  0  0  0  0  0  0  0
  146.6969  142.3993  152.8766 H   0  0  0  0  0  0  0  0  0  0  0  0
  146.4631  141.9776  154.5628 H   0  0  0  0  0  0  0  0  0  0  0  0
  148.8445  142.7107  154.1585 H   0  0  0  0  0  0  0  0  0  0  0  0
  149.0180  141.5008  152.9273 H   0  0  0  0  0  0  0  0  0  0  0  0
  149.9271  143.7278  160.1603 H   0  0  0  0  0  0  0  0  0  0  0  0
  149.3888  143.9124  158.4995 H   0  0  0  0  0  0  0  0  0  0  0  0
  150.8675  144.7042  159.0260 H   0  0  0  0  0  0  0  0  0  0  0  0
  145.5373  140.3078  153.2071 H   0  0  0  0  0  0  0  0  0  0  0  0
  1  2  1  0  0  0  0
  1 23  1  0  0  0  0
  1 24  1  0  0  0  0
  1 25  1  0  0  0  0
  2  3  1  0  0  0  0
  3  4  1  0  0  0  0
  3 26  1  0  0  0  0
  3 27  1  0  0  0  0
  4  5  1  0  0  0  0
  4 28  1  0  0  0  0
  4 29  1  0  0  0  0
  5 15  1  0  0  0  0
  5  6  1  0  0  0  0
  6  7  1  0  0  0  0
  6 13  2  0  0  0  0
  7 12  1  0  0  0  0
  7  8  1  0  0  0  0
  8  9  1  0  0  0  0
  8 30  1  0  0  0  0
  8 31  1  0  0  0  0
  9 10  1  0  0  0  0
  9 32  1  0  0  0  0
  9 33  1  0  0  0  0
 10 11  1  0  0  0  0
 10 34  1  0  0  0  0
 10 42  1  0  0  0  0
 11 12  1  0  0  0  0
 11 35  1  0  0  0  0
 11 36  1  0  0  0  0
 12 37  1  0  0  0  0
 12 38  1  0  0  0  0
 13 14  1  0  0  0  0
 14 21  1  0  0  0  0
 14 15  2  0  0  0  0
 15 16  1  0  0  0  0
 16 17  2  0  0  0  0
 16 18  1  0  0  0  0
 18 19  1  0  0  0  0
 19 20  2  0  0  0  0
 19 21  1  0  0  0  0
 21 22  1  0  0  0  0
 22 39  1  0  0  0  0
 22 40  1  0  0  0  0
 22 41  1  0  0  0  0
M  CHG  1  10   1
M  CHG  1  18  -1
M  END
> <s_m_source_file>
AV-unprocessed.smi

> <i_m_source_file_index>
513

> <i_lp_mmshare_version>
43012

> <i_f3d_flags>
0

> <s_epik_input>
W0NIM11uMWMoPU8pW25IXWMoPU8pYyhjMTIpbihbQ0gyXVtDSDJdT1tDSDNdKWMobjIpTjNbQ0gyXVtDSDJdW05IXVtDSDJdW0NIMl0z

> <s_epik_cmdline>
J2VwaWtfcHl0aG9uJywgJy1waCcsICc3LjAnLCAnLXRuJywgJzgnLCAnLW1hJywgJzIwMCcsICctbWV0YWxfYmluZGluZycsICctaW1hZScsICc8aW5maWxlLm1hZT4nLCAnLW9tYWUnLCAnPG91dGZpbGUubWFlPic=

> <r_epik_Ionization_Penalty>
5.91573

> <r_epik_Ionization_Penalty_Charging>
0.0691516

> <r_epik_Ionization_Penalty_Neutral>
5.84657

> <r_epik_State_Penalty>
5.85298

> <r_epik_Charging_Adjusted_Penalty>
5.92213

> <i_epik_Tot_Q>
0

> <i_epik_Tot_abs_Q>
2

> <r_epik_Metal_State_Penalty>
1.81849

> <b_epik_Metal_Only>
1

> <s_lp_Force_Field>
OPLS_2005

> <r_lp_Energy>
49.8146

> <b_lp_Chiralities_Consistent>
1

> <s_lp_Variant>
AV-unprocessed.smi:513-3

> <Gold.Version>
5.8.1

> <Gold.Id.Protein>
6NUR|6NUR_protein|mol2

> <Gold.PLP.Fitness>
43.3355

> <Gold.PLP.PLP>
-32.5169

> <Gold.PLP.part.hbond>
-3.0000

> <Gold.PLP.part.metal>
0.0000

> <Gold.PLP.part.buried>
-4.3055

> <Gold.PLP.part.nonpolar>
-25.9026

> <Gold.PLP.part.repulsive>
0.7381

> <Gold.PLP.ligand.clash>
0.0001

> <Gold.PLP.ligand.torsion>
0.8558

> <Gold.PLP.Chemscore.Hbond>
4.0000

> <Gold.PLP.Chemscore.CHOScore>
0.0000

> <Gold.PLP.Chemscore.Metal>
0.0000

> <Gold.Chemscore.Hbonds>
donor molecule, donor type, donor heavy atom, donor atom, acceptor molecule, acceptor atom, score
      L1  H    10    42       P1 10175  2.00
      P1  H  7997  8008       L1    17  1.00
      P1  H 10752 10765       L1     2  1.00

> <Gold.PLP.Chemscore.Internal.Correction>
0.5302

> <Gold.Rescore>
     Score         DG    S(hbond)    S(metal)    S(lipo)     H(rot)  DE(clash)    DE(int)     intcor
     14.39     -16.87       2.73        0.00      53.36       1.55       0.39       2.09       ----

> <Gold.Chemscore.Fitness>
14.3920

> <Gold.Chemscore.DG>
-16.8724

> <Gold.Chemscore.ZeroCoef>
-5.4800

> <Gold.Chemscore.Hbond>
2.7316

> <Gold.Chemscore.Metal>
0.0000

> <Gold.Chemscore.Lipo>
53.3639

> <Gold.Chemscore.Internal_Hbond>
0.0000

> <Gold.Chemscore.DEClash>
0.3940

> <Gold.Chemscore.DEInternal>
2.0864

> <Gold.Chemscore.Rot>
1.5526

> <Gold.Chemscore.Internal.Correction>
   9.000000E+99

> <Gold.Chemscore.Hbonds>
donor molecule, donor type, donor heavy atom, donor atom, acceptor molecule, acceptor atom, score
      L1  H    10    42       P1 10175  0.94
      P1  H  7997  8008       L1    17  0.43
      P1  H 10752 10765       L1     2  0.30

> <Gold.Chemscore.Hbond.Weighted>
-9.1234

> <Gold.Chemscore.Metal.Weighted>
-0.0000

> <Gold.Chemscore.Lipo.Weighted>
-6.2436

> <Gold.Chemscore.Internal_Hbond.Weighted>
0.0000

> <Gold.Chemscore.DEClash.Weighted>
0.3940

> <Gold.Chemscore.DEInternal.Weighted>
2.0864

> <Gold.Chemscore.Rot.Weighted>
3.9745

> <Gold.Chemscore.Internal.Correction.Weighted>
   9.000000E+99

> <Gold.Protein.RotatedTorsions>
[ 6907 6896 6895 6894 ] final -134.24 input  -60.11 | X-H torsion
[ 7974 7965 7964 7962 ] final   22.25 input  175.53 | X-H torsion
[ 8008 7997 7996 7995 ] final  -97.46 input   59.86 | X-H torsion
[ 10167 10162 10161 10158 ] final -177.12 input  -65.29 | X-H torsion
[ 10718 10713 10712 10709 ] final   33.68 input   66.30 | X-H torsion
[ 10763 10752 10751 10750 ] final -170.53 input  -60.55 | X-H torsion
[ 11005 11000 10999 10996 ] final    2.45 input  -57.11 | X-H torsion

> <Gold.Protein.ActiveResidues>
 VAL166  LYS551  ARG553  GLY616  TRP617  ASP618  TYR619  PRO620  LYS621  CYS622 
 ASP623  PHE694  ASN695  SER759  ASP760  ASP761  ALA762  ILE779  LEU786  VAL792 
 PHE793  MET794  SER795  GLU796  ALA797  LYS798  CYS799  TRP800  GLU811  SER814 

> <Gold.Protein.RotatedAtoms>
  150.9835  133.6222  159.2718 H   0  0  0  0  0  0  0  0  0  0  0  0  # atno 6907 bound_to 6896
  151.3468  135.0875  159.9399 H   0  0  0  0  0  0  0  0  0  0  0  0  # atno 6908 bound_to 6896
  152.5223  133.9435  159.7692 H   0  0  0  0  0  0  0  0  0  0  0  0  # atno 6909 bound_to 6896
  146.2037  139.7912  142.8742 H   0  0  0  0  0  0  0  0  0  0  0  0  # atno 7974 bound_to 7965
  154.7880  140.0463  157.1179 H   0  0  0  0  0  0  0  0  0  0  0  0  # atno 8008 bound_to 7997
  154.9625  140.3079  155.5005 H   0  0  0  0  0  0  0  0  0  0  0  0  # atno 8009 bound_to 7997
  156.2946  140.2268  156.4711 H   0  0  0  0  0  0  0  0  0  0  0  0  # atno 8010 bound_to 7997
  139.5495  144.2145  152.1051 H   0  0  0  0  0  0  0  0  0  0  0  0  # atno 10167 bound_to 10162
  157.3009  130.7350  149.6666 H   0  0  0  0  0  0  0  0  0  0  0  0  # atno 10718 bound_to 10713
  154.6405  135.2898  155.0109 H   0  0  0  0  0  0  0  0  0  0  0  0  # atno 10763 bound_to 10752
  154.1237  135.6544  153.4912 H   0  0  0  0  0  0  0  0  0  0  0  0  # atno 10764 bound_to 10752
  153.0324  135.5294  154.7270 H   0  0  0  0  0  0  0  0  0  0  0  0  # atno 10765 bound_to 10752
  140.6042  133.9808  155.8146 H   0  0  0  0  0  0  0  0  0  0  0  0  # atno 11005 bound_to 11000
  145.3395  141.0284  143.3400 LP  0  0  0  0  0  0  0  0  0  0  0  0  # atno 17320 bound_to 7965
  144.8742  139.4995  143.6753 LP  0  0  0  0  0  0  0  0  0  0  0  0  # atno 17321 bound_to 7965
  140.1638  144.5000  150.6617 LP  0  0  0  0  0  0  0  0  0  0  0  0  # atno 17342 bound_to 10162
  140.6754  143.2303  151.5520 LP  0  0  0  0  0  0  0  0  0  0  0  0  # atno 17343 bound_to 10162
  155.9671  130.4280  150.4769 LP  0  0  0  0  0  0  0  0  0  0  0  0  # atno 17370 bound_to 10713
  157.2750  131.0595  151.2235 LP  0  0  0  0  0  0  0  0  0  0  0  0  # atno 17371 bound_to 10713
  141.0852  134.0001  157.3324 LP  0  0  0  0  0  0  0  0  0  0  0  0  # atno 17394 bound_to 11000
  139.9219  135.0200  156.8097 LP  0  0  0  0  0  0  0  0  0  0  0  0  # atno 17395 bound_to 11000

$$$$
