AV-unprocessed.smi:3000|AV-procd|sdf|11430|dock4
  -GOLD-   2272016353D 1   1.00000     0.00000
 Structure written by MMmdl.
 44 45  0  0  0  0  0  0  0  0  1 V2000
  143.7601  132.9777  149.4206 C   0  0  0  0  0  0  0  0  0  0  0  0
  144.2370  133.8146  150.5007 N   0  0  0  0  0  0  0  0  0  0  0  0
  145.4259  134.5115  150.5832 C   0  0  0  0  0  0  0  0  0  0  0  0
  145.3991  135.1439  151.7941 C   0  0  0  0  0  0  0  0  0  0  0  0
  146.3695  135.9896  152.3890 N   0  0  0  0  0  0  0  0  0  0  0  0
  146.1639  136.9414  153.3139 C   0  0  0  0  0  0  0  0  0  0  0  0
  145.0707  137.2133  153.8080 O   0  0  0  0  0  0  0  0  0  0  0  0
  147.3134  137.5632  153.6271 N   0  0  0  0  0  0  0  0  0  0  0  0
  147.5434  138.6492  154.5932 C   0  0  2  0  0  0  0  0  0  0  0  0
  147.0620  138.0651  155.9418 C   0  0  0  0  0  0  0  0  0  0  0  0
  146.5940  139.8390  154.2565 C   0  0  0  0  0  0  0  0  0  0  0  0
  146.6707  140.2796  152.9156 O   0  0  0  0  0  0  0  0  0  0  0  0
  149.0609  139.0566  154.6730 C   0  0  0  0  0  0  0  0  0  0  0  0
  150.0439  137.8585  154.7305 C   0  0  0  0  0  0  0  0  0  0  0  0
  151.5080  138.3246  154.6739 C   0  0  0  0  0  0  0  0  0  0  0  0
  151.8210  139.3209  155.7997 C   0  0  0  0  0  0  0  0  0  0  0  0
  150.8520  140.5118  155.7679 C   0  0  0  0  0  0  0  0  0  0  0  0
  149.3897  140.0408  155.8242 C   0  0  0  0  0  0  0  0  0  0  0  0
  144.1629  134.7839  152.3913 C   0  0  0  0  0  0  0  0  0  0  0  0
  143.4652  133.9807  151.6024 N   0  0  0  0  0  0  0  0  0  0  0  0
  144.5520  132.8289  148.6857 H   0  0  0  0  0  0  0  0  0  0  0  0
  142.9090  133.4552  148.9344 H   0  0  0  0  0  0  0  0  0  0  0  0
  143.4524  132.0067  149.8106 H   0  0  0  0  0  0  0  0  0  0  0  0
  146.1602  134.4905  149.7913 H   0  0  0  0  0  0  0  0  0  0  0  0
  147.3191  135.8597  152.0724 H   0  0  0  0  0  0  0  0  0  0  0  0
  148.1387  137.2428  153.1425 H   0  0  0  0  0  0  0  0  0  0  0  0
  147.1404  138.7857  156.7551 H   0  0  0  0  0  0  0  0  0  0  0  0
  147.6242  137.1777  156.2322 H   0  0  0  0  0  0  0  0  0  0  0  0
  146.0130  137.7698  155.8886 H   0  0  0  0  0  0  0  0  0  0  0  0
  145.5578  139.5939  154.4939 H   0  0  0  0  0  0  0  0  0  0  0  0
  146.8453  140.7030  154.8727 H   0  0  0  0  0  0  0  0  0  0  0  0
  145.8011  140.5021  152.6210 H   0  0  0  0  0  0  0  0  0  0  0  0
  149.3016  139.5870  153.7518 H   0  0  0  0  0  0  0  0  0  0  0  0
  149.8921  137.2870  155.6460 H   0  0  0  0  0  0  0  0  0  0  0  0
  149.8686  137.1696  153.9046 H   0  0  0  0  0  0  0  0  0  0  0  0
  152.1741  137.4644  154.7448 H   0  0  0  0  0  0  0  0  0  0  0  0
  151.7061  138.7890  153.7070 H   0  0  0  0  0  0  0  0  0  0  0  0
  151.7478  138.8168  156.7642 H   0  0  0  0  0  0  0  0  0  0  0  0
  152.8490  139.6734  155.7109 H   0  0  0  0  0  0  0  0  0  0  0  0
  151.0594  141.1794  156.6046 H   0  0  0  0  0  0  0  0  0  0  0  0
  151.0148  141.0943  154.8602 H   0  0  0  0  0  0  0  0  0  0  0  0
  148.7387  140.9134  155.7860 H   0  0  0  0  0  0  0  0  0  0  0  0
  149.2148  139.5677  156.7901 H   0  0  0  0  0  0  0  0  0  0  0  0
  143.7564  135.0724  153.3494 H   0  0  0  0  0  0  0  0  0  0  0  0
  1  2  1  0  0  0  0
  1 21  1  0  0  0  0
  1 22  1  0  0  0  0
  1 23  1  0  0  0  0
  2 20  1  0  0  0  0
  2  3  1  0  0  0  0
  3  4  2  0  0  0  0
  3 24  1  0  0  0  0
  4  5  1  0  0  0  0
  4 19  1  0  0  0  0
  5  6  1  0  0  0  0
  5 25  1  0  0  0  0
  6  7  2  0  0  0  0
  6  8  1  0  0  0  0
  8  9  1  0  0  0  0
  8 26  1  0  0  0  0
  9 10  1  0  0  0  0
  9 11  1  0  0  0  0
  9 13  1  0  0  0  0
 10 27  1  0  0  0  0
 10 28  1  0  0  0  0
 10 29  1  0  0  0  0
 11 12  1  0  0  0  0
 11 30  1  0  0  0  0
 11 31  1  0  0  0  0
 12 32  1  0  0  0  0
 13 18  1  0  0  0  0
 13 14  1  0  0  0  0
 13 33  1  0  0  0  0
 14 15  1  0  0  0  0
 14 34  1  0  0  0  0
 14 35  1  0  0  0  0
 15 16  1  0  0  0  0
 15 36  1  0  0  0  0
 15 37  1  0  0  0  0
 16 17  1  0  0  0  0
 16 38  1  0  0  0  0
 16 39  1  0  0  0  0
 17 18  1  0  0  0  0
 17 40  1  0  0  0  0
 17 41  1  0  0  0  0
 18 42  1  0  0  0  0
 18 43  1  0  0  0  0
 19 20  2  0  0  0  0
 19 44  1  0  0  0  0
M  END
> <s_m_source_file>
AV-unprocessed.smi

> <i_m_source_file_index>
3000

> <i_lp_mmshare_version>
43012

> <i_f3d_flags>
0

> <s_epik_input>
W0NIM11uMVtjSF1jKFtjSF1uMSlbTkhdQyg9TylbTkhdW0NAQF0oW0NIM10pKFtDSDJdW09IXSlbQ0hdMltDSDJdW0NIMl1bQ0gyXVtDSDJdW0NIMl0y

> <s_epik_cmdline>
J2VwaWtfcHl0aG9uJywgJy1waCcsICc3LjAnLCAnLXRuJywgJzgnLCAnLW1hJywgJzIwMCcsICctbWV0YWxfYmluZGluZycsICctaW1hZScsICc8aW5maWxlLm1hZT4nLCAnLW9tYWUnLCAnPG91dGZpbGUubWFlPic=

> <r_lp_tautomer_probability>
1

> <r_epik_Ionization_Penalty>
0.000189471

> <r_epik_Ionization_Penalty_Charging>
0

> <r_epik_Ionization_Penalty_Neutral>
0.000189471

> <r_epik_State_Penalty>
-0

> <r_epik_Charging_Adjusted_Penalty>
0

> <i_epik_Tot_Q>
0

> <i_epik_Tot_abs_Q>
0

> <r_epik_Metal_State_Penalty>
-0

> <b_epik_Metal_Only>
0

> <s_lp_Force_Field>
OPLS_2005

> <r_lp_Energy>
23.0127

> <b_lp_Chiralities_Consistent>
1

> <s_lp_Variant>
AV-unprocessed.smi:3000-2

> <Gold.Version>
5.8.1

> <Gold.Id.Protein>
6NUR|6NUR_protein|mol2

> <Gold.PLP.Fitness>
41.7384

> <Gold.PLP.PLP>
-30.4649

> <Gold.PLP.part.hbond>
-3.0000

> <Gold.PLP.part.metal>
0.0000

> <Gold.PLP.part.buried>
-4.6087

> <Gold.PLP.part.nonpolar>
-23.4249

> <Gold.PLP.part.repulsive>
0.2724

> <Gold.PLP.ligand.clash>
0.0000

> <Gold.PLP.ligand.torsion>
0.4100

> <Gold.PLP.Chemscore.Hbond>
3.0000

> <Gold.PLP.Chemscore.CHOScore>
1.0000

> <Gold.PLP.Chemscore.Metal>
0.0000

> <Gold.Chemscore.Hbonds>
donor molecule, donor type, donor heavy atom, donor atom, acceptor molecule, acceptor atom, score
      L1  H     5    25       P1  7948  1.00
      L1  H     8    26       P1  7948  1.00
      L1  H    12    32       P1 10175  0.80
      L1  C     3    24       P1  7921  1.00

> <Gold.PLP.Chemscore.Internal.Correction>
0.0935

> <Gold.Rescore>
     Score         DG    S(hbond)    S(metal)    S(lipo)     H(rot)  DE(clash)    DE(int)     intcor
     16.39     -17.87       2.92        0.00      66.65       2.02       0.00       1.47       ----

> <Gold.Chemscore.Fitness>
16.3862

> <Gold.Chemscore.DG>
-17.8651

> <Gold.Chemscore.ZeroCoef>
-5.4800

> <Gold.Chemscore.Hbond>
2.9188

> <Gold.Chemscore.Metal>
0.0000

> <Gold.Chemscore.Lipo>
66.6525

> <Gold.Chemscore.Internal_Hbond>
0.0000

> <Gold.Chemscore.DEClash>
0.0048

> <Gold.Chemscore.DEInternal>
1.4740

> <Gold.Chemscore.Rot>
2.0165

> <Gold.Chemscore.Internal.Correction>
   9.000000E+99

> <Gold.Chemscore.Hbonds>
donor molecule, donor type, donor heavy atom, donor atom, acceptor molecule, acceptor atom, score
      L1  H     5    25       P1  7948  0.99
      L1  H     8    26       P1  7948  0.96
      L1  H    12    32       P1 10175  0.47

> <Gold.Chemscore.Hbond.Weighted>
-9.7489

> <Gold.Chemscore.Metal.Weighted>
-0.0000

> <Gold.Chemscore.Lipo.Weighted>
-7.7983

> <Gold.Chemscore.Internal_Hbond.Weighted>
0.0000

> <Gold.Chemscore.DEClash.Weighted>
0.0048

> <Gold.Chemscore.DEInternal.Weighted>
1.4740

> <Gold.Chemscore.Rot.Weighted>
5.1622

> <Gold.Chemscore.Internal.Correction.Weighted>
   9.000000E+99

> <Gold.Protein.RotatedTorsions>
[ 6907 6896 6895 6894 ] final  141.16 input  -60.11 | X-H torsion
[ 7974 7965 7964 7962 ] final -107.16 input  175.53 | X-H torsion
[ 8008 7997 7996 7995 ] final  -35.31 input   59.86 | X-H torsion
[ 10167 10162 10161 10158 ] final   76.19 input  -65.29 | X-H torsion
[ 10718 10713 10712 10709 ] final  151.12 input   66.30 | X-H torsion
[ 10763 10752 10751 10750 ] final   -6.60 input  -60.55 | X-H torsion
[ 11005 11000 10999 10996 ] final  -83.97 input  -57.11 | X-H torsion

> <Gold.Protein.ActiveResidues>
 VAL166  LYS551  ARG553  GLY616  TRP617  ASP618  TYR619  PRO620  LYS621  CYS622 
 ASP623  PHE694  ASN695  SER759  ASP760  ASP761  ALA762  ILE779  LEU786  VAL792 
 PHE793  MET794  SER795  GLU796  ALA797  LYS798  CYS799  TRP800  GLU811  SER814 

> <Gold.Protein.RotatedAtoms>
  152.2343  133.5083  159.5233 H   0  0  0  0  0  0  0  0  0  0  0  0  # atno 6907 bound_to 6896
  150.7046  134.1174  159.4031 H   0  0  0  0  0  0  0  0  0  0  0  0  # atno 6908 bound_to 6896
  151.9095  135.0344  160.0564 H   0  0  0  0  0  0  0  0  0  0  0  0  # atno 6909 bound_to 6896
  145.2088  140.9087  143.3327 H   0  0  0  0  0  0  0  0  0  0  0  0  # atno 7974 bound_to 7965
  154.4098  140.1660  156.2191 H   0  0  0  0  0  0  0  0  0  0  0  0  # atno 8008 bound_to 7997
  155.9379  140.3410  155.6280 H   0  0  0  0  0  0  0  0  0  0  0  0  # atno 8009 bound_to 7997
  155.7026  140.0747  157.2395 H   0  0  0  0  0  0  0  0  0  0  0  0  # atno 8010 bound_to 7997
  139.9949  144.5729  150.7786 H   0  0  0  0  0  0  0  0  0  0  0  0  # atno 10167 bound_to 10162
  157.2748  131.0824  151.1574 H   0  0  0  0  0  0  0  0  0  0  0  0  # atno 10718 bound_to 10713
  153.4146  135.7008  153.6336 H   0  0  0  0  0  0  0  0  0  0  0  0  # atno 10763 bound_to 10752
  153.4816  135.3692  155.2445 H   0  0  0  0  0  0  0  0  0  0  0  0  # atno 10764 bound_to 10752
  154.8719  135.4067  154.3503 H   0  0  0  0  0  0  0  0  0  0  0  0  # atno 10765 bound_to 10752
  141.1654  133.7322  156.8799 H   0  0  0  0  0  0  0  0  0  0  0  0  # atno 11005 bound_to 11000
  144.9876  139.3721  143.6231 LP  0  0  0  0  0  0  0  0  0  0  0  0  # atno 17320 bound_to 7965
  146.3402  139.9045  142.8789 LP  0  0  0  0  0  0  0  0  0  0  0  0  # atno 17321 bound_to 7965
  140.7441  143.2855  151.3476 LP  0  0  0  0  0  0  0  0  0  0  0  0  # atno 17342 bound_to 10162
  139.6313  144.0716  152.2478 LP  0  0  0  0  0  0  0  0  0  0  0  0  # atno 17343 bound_to 10162
  157.3031  130.6853  149.6175 LP  0  0  0  0  0  0  0  0  0  0  0  0  # atno 17370 bound_to 10713
  155.9663  130.4386  150.5223 LP  0  0  0  0  0  0  0  0  0  0  0  0  # atno 17371 bound_to 10713
  140.1722  134.9092  157.2847 LP  0  0  0  0  0  0  0  0  0  0  0  0  # atno 17394 bound_to 11000
  140.2489  134.3706  155.7450 LP  0  0  0  0  0  0  0  0  0  0  0  0  # atno 17395 bound_to 11000

$$$$
