AV-unprocessed.smi:39|AV-procd|sdf|366|dock9
  -GOLD-   2262016203D 1   1.00000     0.00000
 Structure written by MMmdl.
 31 32  0  0  0  0  0  0  0  0  4 V2000
  149.8996  143.9580  159.0715 C   0  0  0  0  0  0  0  0  0  0  0  0
  150.9279  142.8540  158.8962 C   0  0  0  0  0  0  0  0  0  0  0  0
  150.6889  141.7598  158.1395 C   0  0  0  0  0  0  0  0  0  0  0  0
  151.6303  140.7560  157.9789 N   0  0  0  0  0  0  0  0  0  0  0  0
  151.3499  139.5277  157.1355 C   0  0  2  0  0  0  0  0  0  0  0  0
  152.1385  139.5636  155.8181 C   0  0  0  0  0  0  0  0  0  0  0  0
  151.1337  139.0202  154.8157 C   0  0  1  0  0  0  0  0  0  0  0  0
  151.1343  137.5526  154.7886 N   0  0  0  0  0  0  0  0  0  0  0  0
  151.9805  136.9852  155.4921 N   0  3  0  0  0  0  0  0  0  0  0  0
  152.6623  136.4127  156.2008 N   0  5  0  0  0  0  0  0  0  0  0  0
  149.8104  139.5531  155.3783 C   0  0  2  0  0  0  0  0  0  0  0  0
  149.5177  141.0059  154.9523 C   0  0  0  0  0  0  0  0  0  0  0  0
  149.4374  141.0940  153.5458 O   0  0  0  0  0  0  0  0  0  0  0  0
  149.9923  139.4824  156.7933 O   0  0  0  0  0  0  0  0  0  0  0  0
  152.8726  140.8495  158.6604 C   0  0  0  0  0  0  0  0  0  0  0  0
  153.6725  139.9221  158.5346 O   0  0  0  0  0  0  0  0  0  0  0  0
  153.1251  141.9529  159.4206 N   0  5  0  0  0  0  0  0  0  0  0  0
  152.2261  142.9672  159.5712 C   0  0  0  0  0  0  0  0  0  0  0  0
  152.4711  143.9630  160.2515 O   0  0  0  0  0  0  0  0  0  0  0  0
  151.5902  138.6731  157.7703 H   0  0  0  0  0  0  0  0  0  0  0  0
  151.3211  139.4163  153.8158 H   0  0  0  0  0  0  0  0  0  0  0  0
  148.9801  138.9140  155.0729 H   0  0  0  0  0  0  0  0  0  0  0  0
  148.9860  143.7410  158.5176 H   0  0  0  0  0  0  0  0  0  0  0  0
  150.2953  144.9079  158.7110 H   0  0  0  0  0  0  0  0  0  0  0  0
  149.6381  144.0702  160.1241 H   0  0  0  0  0  0  0  0  0  0  0  0
  149.7290  141.6803  157.6530 H   0  0  0  0  0  0  0  0  0  0  0  0
  152.3944  140.5950  155.5705 H   0  0  0  0  0  0  0  0  0  0  0  0
  153.0605  138.9856  155.8917 H   0  0  0  0  0  0  0  0  0  0  0  0
  148.6076  141.3940  155.4088 H   0  0  0  0  0  0  0  0  0  0  0  0
  150.3321  141.6587  155.2664 H   0  0  0  0  0  0  0  0  0  0  0  0
  149.1520  140.2587  153.2087 H   0  0  0  0  0  0  0  0  0  0  0  0
  1  2  1  0  0  0  0
  1 23  1  0  0  0  0
  1 24  1  0  0  0  0
  1 25  1  0  0  0  0
  2 18  1  0  0  0  0
  2  3  2  0  0  0  0
  3  4  1  0  0  0  0
  3 26  1  0  0  0  0
  4  5  1  0  0  0  0
  4 15  1  0  0  0  0
  5 20  1  0  0  0  0
  5 14  1  0  0  0  0
  5  6  1  0  0  0  0
  6  7  1  0  0  0  0
  6 27  1  0  0  0  0
  6 28  1  0  0  0  0
  7 21  1  0  0  0  0
  7  8  1  0  0  0  0
  7 11  1  0  0  0  0
  8  9  2  0  0  0  0
  9 10  2  0  0  0  0
 11 22  1  0  0  0  0
 11 12  1  0  0  0  0
 11 14  1  0  0  0  0
 12 13  1  0  0  0  0
 12 29  1  0  0  0  0
 12 30  1  0  0  0  0
 13 31  1  0  0  0  0
 15 16  2  0  0  0  0
 15 17  1  0  0  0  0
 17 18  1  0  0  0  0
 18 19  2  0  0  0  0
M  CHG  1   9   1
M  CHG  1  10  -1
M  CHG  1  17  -1
M  END
> <s_m_source_file>
AV-unprocessed.smi

> <i_m_source_file_index>
39

> <i_lp_mmshare_version>
43012

> <i_f3d_flags>
0

> <s_epik_input>
Tz1jMVtuSF1jKD1PKW4oW2NIXWMxW0NIM10pW0NASF0yW0NIMl1bQ0BIXShOPVtOK109W04tXSlbQ0BIXShPMilbQ0gyXVtPSF0=

> <s_epik_cmdline>
J2VwaWtfcHl0aG9uJywgJy1waCcsICc3LjAnLCAnLXRuJywgJzgnLCAnLW1hJywgJzIwMCcsICctbWV0YWxfYmluZGluZycsICctaW1hZScsICc8aW5maWxlLm1hZT4nLCAnLW9tYWUnLCAnPG91dGZpbGUubWFlPic=

> <r_lp_tautomer_probability>
0.999537

> <r_epik_Ionization_Penalty>
3.6393

> <r_epik_Ionization_Penalty_Charging>
9.76484e-08

> <r_epik_Ionization_Penalty_Neutral>
3.6393

> <r_epik_State_Penalty>
3.63887

> <r_epik_Charging_Adjusted_Penalty>
3.63887

> <i_epik_Tot_Q>
-1

> <i_epik_Tot_abs_Q>
3

> <r_epik_Metal_State_Penalty>
0.225911

> <b_epik_Metal_Only>
1

> <s_epik_Chemistry_Notes>
This compound contains an acetal/aminal-like group ( X-CH(R)-Y where X, Y are N, S, or O) that may be acid/base labile, releasing an aldehyde.

> <s_lp_Force_Field>
OPLS_2005

> <r_lp_Energy>
37.4001

> <b_lp_Chiralities_Consistent>
1

> <s_lp_Variant>
AV-unprocessed.smi:39-16

> <Gold.Version>
5.8.1

> <Gold.Id.Protein>
6NUR|6NUR_protein|mol2

> <Gold.PLP.Fitness>
41.6999

> <Gold.PLP.PLP>
-32.3342

> <Gold.PLP.part.hbond>
-6.0000

> <Gold.PLP.part.metal>
0.0000

> <Gold.PLP.part.buried>
-5.2455

> <Gold.PLP.part.nonpolar>
-21.5770

> <Gold.PLP.part.repulsive>
0.2351

> <Gold.PLP.ligand.clash>
0.0000

> <Gold.PLP.ligand.torsion>
0.3032

> <Gold.PLP.Chemscore.Hbond>
3.3097

> <Gold.PLP.Chemscore.CHOScore>
0.0000

> <Gold.PLP.Chemscore.Metal>
0.0000

> <Gold.Chemscore.Hbonds>
donor molecule, donor type, donor heavy atom, donor atom, acceptor molecule, acceptor atom, score
      L1  H    13    31       P1  7957  0.19
      P1  H  7989  7998       L1    13  0.07
      P1  H  7997  8009       L1    16  1.00
      P1  H  8011  8017       L1    13  1.00
      P1  H 10752 10765       L1    10  0.96

> <Gold.PLP.Chemscore.Internal.Correction>
0.0428

> <Gold.Rescore>
     Score         DG    S(hbond)    S(metal)    S(lipo)     H(rot)  DE(clash)    DE(int)     intcor
     13.12     -13.49       2.72        0.00      50.17       2.72       0.06       0.32       ----

> <Gold.Chemscore.Fitness>
13.1162

> <Gold.Chemscore.DG>
-13.4915

> <Gold.Chemscore.ZeroCoef>
-5.4800

> <Gold.Chemscore.Hbond>
2.7224

> <Gold.Chemscore.Metal>
0.0000

> <Gold.Chemscore.Lipo>
50.1693

> <Gold.Chemscore.Internal_Hbond>
0.0000

> <Gold.Chemscore.DEClash>
0.0593

> <Gold.Chemscore.DEInternal>
0.3159

> <Gold.Chemscore.Rot>
2.7153

> <Gold.Chemscore.Internal.Correction>
   9.000000E+99

> <Gold.Chemscore.Hbonds>
donor molecule, donor type, donor heavy atom, donor atom, acceptor molecule, acceptor atom, score
      L1  H    13    31       P1  7957  0.19
      P1  H  7997  8009       L1    16  0.91
      P1  H  8011  8017       L1    13  0.91
      P1  H 10752 10765       L1    10  0.50

> <Gold.Chemscore.Hbond.Weighted>
-9.0929

> <Gold.Chemscore.Metal.Weighted>
-0.0000

> <Gold.Chemscore.Lipo.Weighted>
-5.8698

> <Gold.Chemscore.Internal_Hbond.Weighted>
0.0000

> <Gold.Chemscore.DEClash.Weighted>
0.0593

> <Gold.Chemscore.DEInternal.Weighted>
0.3159

> <Gold.Chemscore.Rot.Weighted>
6.9512

> <Gold.Chemscore.Internal.Correction.Weighted>
   9.000000E+99

> <Gold.Protein.RotatedTorsions>
[ 6907 6896 6895 6894 ] final  109.76 input  -60.11 | X-H torsion
[ 7974 7965 7964 7962 ] final  -38.08 input  175.53 | X-H torsion
[ 8008 7997 7996 7995 ] final  133.14 input   59.86 | X-H torsion
[ 10167 10162 10161 10158 ] final -123.96 input  -65.29 | X-H torsion
[ 10718 10713 10712 10709 ] final   12.10 input   66.30 | X-H torsion
[ 10763 10752 10751 10750 ] final -125.32 input  -60.55 | X-H torsion
[ 11005 11000 10999 10996 ] final  160.37 input  -57.11 | X-H torsion

> <Gold.Protein.ActiveResidues>
 VAL166  LYS551  ARG553  GLY616  TRP617  ASP618  TYR619  PRO620  LYS621  CYS622 
 ASP623  PHE694  ASN695  SER759  ASP760  ASP761  ALA762  ILE779  LEU786  VAL792 
 PHE793  MET794  SER795  GLU796  ALA797  LYS798  CYS799  TRP800  GLU811  SER814 

> <Gold.Protein.RotatedAtoms>
  152.5052  133.8898  159.7387 H   0  0  0  0  0  0  0  0  0  0  0  0  # atno 6907 bound_to 6896
  150.9339  133.6725  159.2811 H   0  0  0  0  0  0  0  0  0  0  0  0  # atno 6908 bound_to 6896
  151.4060  135.0983  159.9623 H   0  0  0  0  0  0  0  0  0  0  0  0  # atno 6909 bound_to 6896
  146.0518  140.6471  142.9038 H   0  0  0  0  0  0  0  0  0  0  0  0  # atno 7974 bound_to 7965
  156.2989  140.2529  156.3205 H   0  0  0  0  0  0  0  0  0  0  0  0  # atno 8008 bound_to 7997
  154.9240  140.0400  157.2032 H   0  0  0  0  0  0  0  0  0  0  0  0  # atno 8009 bound_to 7997
  154.8283  140.2871  155.5744 H   0  0  0  0  0  0  0  0  0  0  0  0  # atno 8010 bound_to 7997
  139.9979  143.5571  152.2315 H   0  0  0  0  0  0  0  0  0  0  0  0  # atno 10167 bound_to 10162
  157.0052  130.6095  149.5701 H   0  0  0  0  0  0  0  0  0  0  0  0  # atno 10718 bound_to 10713
  154.8734  135.4033  154.3249 H   0  0  0  0  0  0  0  0  0  0  0  0  # atno 10763 bound_to 10752
  153.4072  135.7019  153.6390 H   0  0  0  0  0  0  0  0  0  0  0  0  # atno 10764 bound_to 10752
  153.5108  135.3707  155.2556 H   0  0  0  0  0  0  0  0  0  0  0  0  # atno 10765 bound_to 10752
  140.2052  134.8308  157.3062 H   0  0  0  0  0  0  0  0  0  0  0  0  # atno 11005 bound_to 11000
  144.7126  140.4096  143.7068 LP  0  0  0  0  0  0  0  0  0  0  0  0  # atno 17320 bound_to 7965
  145.6711  139.1599  143.2754 LP  0  0  0  0  0  0  0  0  0  0  0  0  # atno 17321 bound_to 7965
  139.6292  144.7642  151.2572 LP  0  0  0  0  0  0  0  0  0  0  0  0  # atno 17342 bound_to 10162
  140.7430  143.6509  150.8250 LP  0  0  0  0  0  0  0  0  0  0  0  0  # atno 17343 bound_to 10162
  156.0156  130.5250  150.8124 LP  0  0  0  0  0  0  0  0  0  0  0  0  # atno 17370 bound_to 10713
  157.5361  131.0939  150.9891 LP  0  0  0  0  0  0  0  0  0  0  0  0  # atno 17371 bound_to 10713
  140.2010  134.4254  155.7663 LP  0  0  0  0  0  0  0  0  0  0  0  0  # atno 17394 bound_to 11000
  141.2227  133.7072  156.8184 LP  0  0  0  0  0  0  0  0  0  0  0  0  # atno 17395 bound_to 11000

$$$$
