AV-unprocessed.smi:3199|AV-procd|sdf|12234|dock6
  -GOLD-   2272018 63D 1   1.00000     0.00000
 Structure written by MMmdl.
 36 37  0  0  0  0  0  0  0  0  2 V2000
  151.7608  145.3076  159.0263 C   0  0  0  0  0  0  0  0  0  0  0  0
  152.3457  144.1176  159.7576 C   0  0  0  0  0  0  0  0  0  0  0  0
  152.1980  143.9405  161.1501 C   0  0  0  0  0  0  0  0  0  0  0  0
  152.7754  142.8107  161.7659 C   0  0  0  0  0  0  0  0  0  0  0  0
  153.4904  141.8820  160.9784 C   0  0  0  0  0  0  0  0  0  0  0  0
  154.1304  140.6628  161.6132 C   0  0  0  0  0  0  0  0  0  0  0  0
  153.8342  139.3747  160.8339 C   0  0  0  0  0  0  0  0  0  0  0  0
  154.4640  138.2334  161.4820 N   0  0  0  0  0  0  0  0  0  0  0  0
  154.1235  136.9544  161.2701 C   0  0  0  0  0  0  0  0  0  0  0  0
  153.2297  136.6167  160.4933 O   0  0  0  0  0  0  0  0  0  0  0  0
  154.9315  135.9064  162.0456 C   0  0  1  0  0  0  0  0  0  0  0  0
  154.8678  136.0409  163.5800 C   0  0  0  0  0  0  0  0  0  0  0  0
  154.1033  134.8065  164.0186 C   0  0  0  0  0  0  0  0  0  0  0  0
  154.4408  133.8168  162.9127 C   0  0  0  0  0  0  0  0  0  0  0  0
  154.3928  134.6207  161.7452 O   0  0  0  0  0  0  0  0  0  0  0  0
  153.6024  142.1089  159.5898 C   0  0  0  0  0  0  0  0  0  0  0  0
  153.0341  143.2035  159.0376 N   0  3  0  0  0  0  0  0  0  0  0  0
  151.1637  145.9261  159.6971 H   0  0  0  0  0  0  0  0  0  0  0  0
  151.1198  144.9763  158.2087 H   0  0  0  0  0  0  0  0  0  0  0  0
  152.5572  145.9264  158.6120 H   0  0  0  0  0  0  0  0  0  0  0  0
  151.6509  144.6601  161.7422 H   0  0  0  0  0  0  0  0  0  0  0  0
  152.6711  142.6617  162.8310 H   0  0  0  0  0  0  0  0  0  0  0  0
  155.2080  140.8222  161.6757 H   0  0  0  0  0  0  0  0  0  0  0  0
  153.7739  140.5689  162.6402 H   0  0  0  0  0  0  0  0  0  0  0  0
  152.7575  139.2060  160.7770 H   0  0  0  0  0  0  0  0  0  0  0  0
  154.2032  139.4628  159.8104 H   0  0  0  0  0  0  0  0  0  0  0  0
  155.2149  138.4245  162.1294 H   0  0  0  0  0  0  0  0  0  0  0  0
  155.9743  135.9344  161.7243 H   0  0  0  0  0  0  0  0  0  0  0  0
  155.8781  136.0166  163.9904 H   0  0  0  0  0  0  0  0  0  0  0  0
  154.3982  136.9586  163.9359 H   0  0  0  0  0  0  0  0  0  0  0  0
  154.3893  134.4548  165.0102 H   0  0  0  0  0  0  0  0  0  0  0  0
  153.0317  135.0105  164.0216 H   0  0  0  0  0  0  0  0  0  0  0  0
  155.4470  133.4143  163.0402 H   0  0  0  0  0  0  0  0  0  0  0  0
  153.7377  132.9852  162.8593 H   0  0  0  0  0  0  0  0  0  0  0  0
  154.1272  141.4547  158.9087 H   0  0  0  0  0  0  0  0  0  0  0  0
  153.1305  143.3473  158.0320 H   0  0  0  0  0  0  0  0  0  0  0  0
  1  2  1  0  0  0  0
  1 18  1  0  0  0  0
  1 19  1  0  0  0  0
  1 20  1  0  0  0  0
  2 17  1  0  0  0  0
  2  3  2  0  0  0  0
  3  4  1  0  0  0  0
  3 21  1  0  0  0  0
  4  5  2  0  0  0  0
  4 22  1  0  0  0  0
  5  6  1  0  0  0  0
  5 16  1  0  0  0  0
  6  7  1  0  0  0  0
  6 23  1  0  0  0  0
  6 24  1  0  0  0  0
  7  8  1  0  0  0  0
  7 25  1  0  0  0  0
  7 26  1  0  0  0  0
  8  9  1  0  0  0  0
  8 27  1  0  0  0  0
  9 10  2  0  0  0  0
  9 11  1  0  0  0  0
 11 15  1  0  0  0  0
 11 12  1  0  0  0  0
 11 28  1  0  0  0  0
 12 13  1  0  0  0  0
 12 29  1  0  0  0  0
 12 30  1  0  0  0  0
 13 14  1  0  0  0  0
 13 31  1  0  0  0  0
 13 32  1  0  0  0  0
 14 15  1  0  0  0  0
 14 33  1  0  0  0  0
 14 34  1  0  0  0  0
 16 17  2  0  0  0  0
 16 35  1  0  0  0  0
 17 36  1  0  0  0  0
M  CHG  1  17   1
M  END
> <s_m_source_file>
AV-unprocessed.smi

> <i_m_source_file_index>
3199

> <i_lp_mmshare_version>
43012

> <i_f3d_flags>
0

> <s_epik_input>
W0NIM11jMVtjSF1bY0hdYyhbY0hdbjEpW0NIMl1bQ0gyXVtOSF1DKD1PKVtDQEBIXTJbQ0gyXVtDSDJdW0NIMl1PMg==

> <s_epik_cmdline>
J2VwaWtfcHl0aG9uJywgJy1waCcsICc3LjAnLCAnLXRuJywgJzgnLCAnLW1hJywgJzIwMCcsICctbWV0YWxfYmluZGluZycsICctaW1hZScsICc8aW5maWxlLm1hZT4nLCAnLW9tYWUnLCAnPG91dGZpbGUubWFlPic=

> <r_epik_Ionization_Penalty>
1.4683

> <r_epik_Ionization_Penalty_Charging>
1.4683

> <r_epik_Ionization_Penalty_Neutral>
5.71603e-08

> <r_epik_State_Penalty>
1.5559

> <r_epik_Charging_Adjusted_Penalty>
3.0242

> <i_epik_Tot_Q>
1

> <i_epik_Tot_abs_Q>
1

> <r_epik_Metal_State_Penalty>
1.60421

> <b_epik_Metal_Only>
0

> <s_lp_Force_Field>
OPLS_2005

> <r_lp_Energy>
24.4706

> <b_lp_Chiralities_Consistent>
1

> <s_lp_Variant>
AV-unprocessed.smi:3199-4

> <Gold.Version>
5.8.1

> <Gold.Id.Protein>
6NUR|6NUR_protein|mol2

> <Gold.PLP.Fitness>
42.2129

> <Gold.PLP.PLP>
-40.1940

> <Gold.PLP.part.hbond>
-0.8020

> <Gold.PLP.part.metal>
0.0000

> <Gold.PLP.part.buried>
-5.4259

> <Gold.PLP.part.nonpolar>
-33.6980

> <Gold.PLP.part.repulsive>
0.0345

> <Gold.PLP.ligand.clash>
0.0000

> <Gold.PLP.ligand.torsion>
0.2868

> <Gold.PLP.Chemscore.Hbond>
0.8613

> <Gold.PLP.Chemscore.CHOScore>
0.0000

> <Gold.PLP.Chemscore.Metal>
0.0000

> <Gold.Chemscore.Hbonds>
donor molecule, donor type, donor heavy atom, donor atom, acceptor molecule, acceptor atom, score
      P1  H  6896  6908       L1    10  1.00

> <Gold.PLP.Chemscore.Internal.Correction>
0.0089

> <Gold.Rescore>
     Score         DG    S(hbond)    S(metal)    S(lipo)     H(rot)  DE(clash)    DE(int)     intcor
     17.99     -18.34       0.99        0.00     115.77       1.56       0.08       0.28       ----

> <Gold.Chemscore.Fitness>
17.9878

> <Gold.Chemscore.DG>
-18.3404

> <Gold.Chemscore.ZeroCoef>
-5.4800

> <Gold.Chemscore.Hbond>
0.9918

> <Gold.Chemscore.Metal>
0.0000

> <Gold.Chemscore.Lipo>
115.7672

> <Gold.Chemscore.Internal_Hbond>
0.0000

> <Gold.Chemscore.DEClash>
0.0766

> <Gold.Chemscore.DEInternal>
0.2760

> <Gold.Chemscore.Rot>
1.5613

> <Gold.Chemscore.Internal.Correction>
   9.000000E+99

> <Gold.Chemscore.Hbonds>
donor molecule, donor type, donor heavy atom, donor atom, acceptor molecule, acceptor atom, score
      P1  H  6896  6908       L1    10  0.96

> <Gold.Chemscore.Hbond.Weighted>
-3.3125

> <Gold.Chemscore.Metal.Weighted>
-0.0000

> <Gold.Chemscore.Lipo.Weighted>
-13.5448

> <Gold.Chemscore.Internal_Hbond.Weighted>
0.0000

> <Gold.Chemscore.DEClash.Weighted>
0.0766

> <Gold.Chemscore.DEInternal.Weighted>
0.2760

> <Gold.Chemscore.Rot.Weighted>
3.9969

> <Gold.Chemscore.Internal.Correction.Weighted>
   9.000000E+99

> <Gold.Protein.RotatedTorsions>
[ 6907 6896 6895 6894 ] final  -87.81 input  -60.11 | X-H torsion
[ 7974 7965 7964 7962 ] final  -68.23 input  175.53 | X-H torsion
[ 8008 7997 7996 7995 ] final  -60.22 input   59.86 | X-H torsion
[ 10167 10162 10161 10158 ] final  102.33 input  -65.29 | X-H torsion
[ 10718 10713 10712 10709 ] final  -30.14 input   66.30 | X-H torsion
[ 10763 10752 10751 10750 ] final  -39.22 input  -60.55 | X-H torsion
[ 11005 11000 10999 10996 ] final   -0.29 input  -57.11 | X-H torsion

> <Gold.Protein.ActiveResidues>
 VAL166  LYS551  ARG553  GLY616  TRP617  ASP618  TYR619  PRO620  LYS621  CYS622 
 ASP623  PHE694  ASN695  SER759  ASP760  ASP761  ALA762  ILE779  LEU786  VAL792 
 PHE793  MET794  SER795  GLU796  ALA797  LYS798  CYS799  TRP800  GLU811  SER814 

> <Gold.Protein.RotatedAtoms>
  150.6867  134.2838  159.4638 H   0  0  0  0  0  0  0  0  0  0  0  0  # atno 6907 bound_to 6896
  152.0750  134.9506  160.0583 H   0  0  0  0  0  0  0  0  0  0  0  0  # atno 6908 bound_to 6896
  152.0881  133.4152  159.4568 H   0  0  0  0  0  0  0  0  0  0  0  0  # atno 6909 bound_to 6896
  145.7192  140.9046  143.0639 H   0  0  0  0  0  0  0  0  0  0  0  0  # atno 7974 bound_to 7965
  154.4388  140.1044  156.6239 H   0  0  0  0  0  0  0  0  0  0  0  0  # atno 8008 bound_to 7997
  155.5678  140.3488  155.4489 H   0  0  0  0  0  0  0  0  0  0  0  0  # atno 8009 bound_to 7997
  156.0412  140.1282  157.0142 H   0  0  0  0  0  0  0  0  0  0  0  0  # atno 8010 bound_to 7997
  139.7360  144.7024  151.0649 H   0  0  0  0  0  0  0  0  0  0  0  0  # atno 10167 bound_to 10162
  156.4035  130.4394  149.7305 H   0  0  0  0  0  0  0  0  0  0  0  0  # atno 10718 bound_to 10713
  153.9258  135.6777  153.4746 H   0  0  0  0  0  0  0  0  0  0  0  0  # atno 10763 bound_to 10752
  153.1005  135.4830  154.8855 H   0  0  0  0  0  0  0  0  0  0  0  0  # atno 10764 bound_to 10752
  154.7454  135.3171  154.8611 H   0  0  0  0  0  0  0  0  0  0  0  0  # atno 10765 bound_to 10752
  140.6347  133.9544  155.8293 H   0  0  0  0  0  0  0  0  0  0  0  0  # atno 11005 bound_to 11000
  144.6921  139.9179  143.7466 LP  0  0  0  0  0  0  0  0  0  0  0  0  # atno 17320 bound_to 7965
  146.0641  139.3633  143.0563 LP  0  0  0  0  0  0  0  0  0  0  0  0  # atno 17321 bound_to 7965
  140.7779  143.4984  150.9803 LP  0  0  0  0  0  0  0  0  0  0  0  0  # atno 17342 bound_to 10162
  139.8672  143.7239  152.3169 LP  0  0  0  0  0  0  0  0  0  0  0  0  # atno 17343 bound_to 10162
  156.4311  130.7815  151.2835 LP  0  0  0  0  0  0  0  0  0  0  0  0  # atno 17370 bound_to 10713
  157.7505  131.0153  150.3501 LP  0  0  0  0  0  0  0  0  0  0  0  0  # atno 17371 bound_to 10713
  141.0650  134.0290  157.3606 LP  0  0  0  0  0  0  0  0  0  0  0  0  # atno 17394 bound_to 11000
  139.9103  135.0188  156.7662 LP  0  0  0  0  0  0  0  0  0  0  0  0  # atno 17395 bound_to 11000

$$$$
