AV-unprocessed.smi:677|AV-procd|sdf|3311|dock4
  -GOLD-   22720 0273D 1   1.00000     0.00000
 Structure written by MMmdl.
 43 44  0  0  0  0  0  0  0  0  1 V2000
  153.1675  142.1330  161.4696 C   0  0  0  0  0  0  0  0  0  0  0  0
  152.5037  142.1747  160.1090 C   0  0  0  0  0  0  0  0  0  0  0  0
  152.2969  143.4049  159.4512 C   0  0  0  0  0  0  0  0  0  0  0  0
  151.6760  143.3942  158.1875 C   0  0  0  0  0  0  0  0  0  0  0  0
  151.2858  142.1579  157.6321 C   0  0  0  0  0  0  0  0  0  0  0  0
  150.6380  142.0901  156.2606 C   0  0  0  0  0  0  0  0  0  0  0  0
  150.3101  140.6370  155.9204 C   0  0  0  0  0  0  0  0  0  0  0  0
  151.0935  139.9717  155.2437 O   0  0  0  0  0  0  0  0  0  0  0  0
  149.1662  140.1525  156.4291 N   0  0  0  0  0  0  0  0  0  0  0  0
  148.7292  138.7619  156.3625 C   0  0  0  0  0  0  0  0  0  0  0  0
  148.4509  138.1876  157.7668 C   0  0  0  0  0  0  0  0  0  0  0  0
  149.5296  137.1973  158.2476 C   0  0  0  0  0  0  0  0  0  0  0  0
  149.1677  136.5977  159.6175 C   0  0  0  0  0  0  0  0  0  0  0  0
  147.8736  135.9143  159.5519 N   0  0  0  0  0  0  0  0  0  0  0  0
  147.5569  135.3142  160.8436 C   0  0  0  0  0  0  0  0  0  0  0  0
  147.7238  136.2569  161.9626 C   0  0  0  0  0  0  0  0  0  0  0  0
  147.8546  136.9971  162.8424 N   0  0  0  0  0  0  0  0  0  0  0  0
  146.8251  136.8763  159.2113 C   0  0  0  0  0  0  0  0  0  0  0  0
  147.0854  137.4828  157.8213 C   0  0  0  0  0  0  0  0  0  0  0  0
  151.5336  140.9844  158.3759 C   0  0  0  0  0  0  0  0  0  0  0  0
  152.1298  140.9853  159.5873 N   0  0  0  0  0  0  0  0  0  0  0  0
  153.9719  142.8670  161.5256 H   0  0  0  0  0  0  0  0  0  0  0  0
  153.5930  141.1495  161.6737 H   0  0  0  0  0  0  0  0  0  0  0  0
  152.4402  142.3608  162.2489 H   0  0  0  0  0  0  0  0  0  0  0  0
  152.6092  144.3356  159.9018 H   0  0  0  0  0  0  0  0  0  0  0  0
  151.5097  144.3174  157.6519 H   0  0  0  0  0  0  0  0  0  0  0  0
  149.7297  142.6941  156.2418 H   0  0  0  0  0  0  0  0  0  0  0  0
  151.3126  142.5050  155.5104 H   0  0  0  0  0  0  0  0  0  0  0  0
  148.5885  140.7820  156.9671 H   0  0  0  0  0  0  0  0  0  0  0  0
  147.8170  138.7317  155.7660 H   0  0  0  0  0  0  0  0  0  0  0  0
  149.4560  138.1415  155.8357 H   0  0  0  0  0  0  0  0  0  0  0  0
  148.4244  139.0214  158.4704 H   0  0  0  0  0  0  0  0  0  0  0  0
  149.6531  136.3966  157.5168 H   0  0  0  0  0  0  0  0  0  0  0  0
  150.4966  137.6943  158.3270 H   0  0  0  0  0  0  0  0  0  0  0  0
  149.9451  135.8926  159.9124 H   0  0  0  0  0  0  0  0  0  0  0  0
  149.1416  137.3797  160.3780 H   0  0  0  0  0  0  0  0  0  0  0  0
  146.5362  134.9292  160.8579 H   0  0  0  0  0  0  0  0  0  0  0  0
  148.2268  134.4755  161.0369 H   0  0  0  0  0  0  0  0  0  0  0  0
  145.8578  136.3729  159.2098 H   0  0  0  0  0  0  0  0  0  0  0  0
  146.7758  137.6620  159.9669 H   0  0  0  0  0  0  0  0  0  0  0  0
  146.2915  138.1896  157.5774 H   0  0  0  0  0  0  0  0  0  0  0  0
  147.0409  136.6964  157.0663 H   0  0  0  0  0  0  0  0  0  0  0  0
  151.2560  140.0172  157.9837 H   0  0  0  0  0  0  0  0  0  0  0  0
  1  2  1  0  0  0  0
  1 22  1  0  0  0  0
  1 23  1  0  0  0  0
  1 24  1  0  0  0  0
  2 21  1  0  0  0  0
  2  3  2  0  0  0  0
  3  4  1  0  0  0  0
  3 25  1  0  0  0  0
  4  5  2  0  0  0  0
  4 26  1  0  0  0  0
  5  6  1  0  0  0  0
  5 20  1  0  0  0  0
  6  7  1  0  0  0  0
  6 27  1  0  0  0  0
  6 28  1  0  0  0  0
  7  8  2  0  0  0  0
  7  9  1  0  0  0  0
  9 10  1  0  0  0  0
  9 29  1  0  0  0  0
 10 11  1  0  0  0  0
 10 30  1  0  0  0  0
 10 31  1  0  0  0  0
 11 19  1  0  0  0  0
 11 12  1  0  0  0  0
 11 32  1  0  0  0  0
 12 13  1  0  0  0  0
 12 33  1  0  0  0  0
 12 34  1  0  0  0  0
 13 14  1  0  0  0  0
 13 35  1  0  0  0  0
 13 36  1  0  0  0  0
 14 15  1  0  0  0  0
 14 18  1  0  0  0  0
 15 16  1  0  0  0  0
 15 37  1  0  0  0  0
 15 38  1  0  0  0  0
 16 17  3  0  0  0  0
 18 19  1  0  0  0  0
 18 39  1  0  0  0  0
 18 40  1  0  0  0  0
 19 41  1  0  0  0  0
 19 42  1  0  0  0  0
 20 21  2  0  0  0  0
 20 43  1  0  0  0  0
M  END
> <s_m_source_file>
AV-unprocessed.smi

> <i_m_source_file_index>
677

> <i_lp_mmshare_version>
43012

> <i_f3d_flags>
0

> <s_epik_input>
W0NIM11jMVtjSF1bY0hdYyhbY0hdbjEpW0NIMl1DKD1PKVtOSF1bQ0gyXVtDSF0yW0NIMl1bQ0gyXU4oW0NIMl1DI04pW0NIMl1bQ0gyXTI=

> <s_epik_cmdline>
J2VwaWtfcHl0aG9uJywgJy1waCcsICc3LjAnLCAnLXRuJywgJzgnLCAnLW1hJywgJzIwMCcsICctbWV0YWxfYmluZGluZycsICctaW1hZScsICc8aW5maWxlLm1hZT4nLCAnLW9tYWUnLCAnPG91dGZpbGUubWFlPic=

> <r_epik_Ionization_Penalty>
0.0175809

> <r_epik_Ionization_Penalty_Charging>
0

> <r_epik_Ionization_Penalty_Neutral>
0.0175809

> <r_epik_State_Penalty>
0.0130795

> <r_epik_Charging_Adjusted_Penalty>
0.0130795

> <i_epik_Tot_Q>
0

> <i_epik_Tot_abs_Q>
0

> <r_epik_Metal_State_Penalty>
0.0127214

> <b_epik_Metal_Only>
0

> <s_lp_Force_Field>
OPLS_2005

> <r_lp_Energy>
13.8767

> <b_lp_Chiralities_Consistent>
1

> <s_lp_Variant>
AV-unprocessed.smi:677-1

> <Gold.Version>
5.8.1

> <Gold.Id.Protein>
6NUR|6NUR_protein|mol2

> <Gold.PLP.Fitness>
41.1908

> <Gold.PLP.PLP>
-37.8917

> <Gold.PLP.part.hbond>
-2.0000

> <Gold.PLP.part.metal>
0.0000

> <Gold.PLP.part.buried>
-6.3388

> <Gold.PLP.part.nonpolar>
-29.9821

> <Gold.PLP.part.repulsive>
0.0583

> <Gold.PLP.ligand.clash>
0.0000

> <Gold.PLP.ligand.torsion>
1.0747

> <Gold.PLP.Chemscore.Hbond>
1.8056

> <Gold.PLP.Chemscore.CHOScore>
0.0000

> <Gold.PLP.Chemscore.Metal>
0.0000

> <Gold.Chemscore.Hbonds>
donor molecule, donor type, donor heavy atom, donor atom, acceptor molecule, acceptor atom, score
      P1  H  6931  6943       L1    17  0.75
      P1  H  7989  7998       L1     8  0.99

> <Gold.PLP.Chemscore.Internal.Correction>
0.0318

> <Gold.Rescore>
     Score         DG    S(hbond)    S(metal)    S(lipo)     H(rot)  DE(clash)    DE(int)     intcor
     15.87     -16.95       1.82        0.00      84.98       1.78       0.05       1.03       ----

> <Gold.Chemscore.Fitness>
15.8654

> <Gold.Chemscore.DG>
-16.9481

> <Gold.Chemscore.ZeroCoef>
-5.4800

> <Gold.Chemscore.Hbond>
1.8171

> <Gold.Chemscore.Metal>
0.0000

> <Gold.Chemscore.Lipo>
84.9849

> <Gold.Chemscore.Internal_Hbond>
0.0000

> <Gold.Chemscore.DEClash>
0.0494

> <Gold.Chemscore.DEInternal>
1.0332

> <Gold.Chemscore.Rot>
1.7751

> <Gold.Chemscore.Internal.Correction>
   9.000000E+99

> <Gold.Chemscore.Hbonds>
donor molecule, donor type, donor heavy atom, donor atom, acceptor molecule, acceptor atom, score
      P1  H  6931  6943       L1    17  0.15
      P1  H  7989  7998       L1     8  0.81

> <Gold.Chemscore.Hbond.Weighted>
-6.0691

> <Gold.Chemscore.Metal.Weighted>
-0.0000

> <Gold.Chemscore.Lipo.Weighted>
-9.9432

> <Gold.Chemscore.Internal_Hbond.Weighted>
0.0000

> <Gold.Chemscore.DEClash.Weighted>
0.0494

> <Gold.Chemscore.DEInternal.Weighted>
1.0332

> <Gold.Chemscore.Rot.Weighted>
4.5442

> <Gold.Chemscore.Internal.Correction.Weighted>
   9.000000E+99

> <Gold.Protein.RotatedTorsions>
[ 6907 6896 6895 6894 ] final  -93.39 input  -60.11 | X-H torsion
[ 7974 7965 7964 7962 ] final -117.03 input  175.53 | X-H torsion
[ 8008 7997 7996 7995 ] final   74.50 input   59.86 | X-H torsion
[ 10167 10162 10161 10158 ] final   12.09 input  -65.29 | X-H torsion
[ 10718 10713 10712 10709 ] final  -38.24 input   66.30 | X-H torsion
[ 10763 10752 10751 10750 ] final  123.98 input  -60.55 | X-H torsion
[ 11005 11000 10999 10996 ] final  -33.23 input  -57.11 | X-H torsion

> <Gold.Protein.ActiveResidues>
 VAL166  LYS551  ARG553  GLY616  TRP617  ASP618  TYR619  PRO620  LYS621  CYS622 
 ASP623  PHE694  ASN695  SER759  ASP760  ASP761  ALA762  ILE779  LEU786  VAL792 
 PHE793  MET794  SER795  GLU796  ALA797  LYS798  CYS799  TRP800  GLU811  SER814 

> <Gold.Protein.RotatedAtoms>
  150.6922  134.1974  159.4308 H   0  0  0  0  0  0  0  0  0  0  0  0  # atno 6907 bound_to 6896
  151.9942  134.9960  160.0572 H   0  0  0  0  0  0  0  0  0  0  0  0  # atno 6908 bound_to 6896
  152.1639  133.4564  159.4911 H   0  0  0  0  0  0  0  0  0  0  0  0  # atno 6909 bound_to 6896
  145.0899  140.8483  143.3988 H   0  0  0  0  0  0  0  0  0  0  0  0  # atno 7974 bound_to 7965
  155.7993  140.3477  155.5394 H   0  0  0  0  0  0  0  0  0  0  0  0  # atno 8008 bound_to 7997
  155.8554  140.0963  157.1668 H   0  0  0  0  0  0  0  0  0  0  0  0  # atno 8009 bound_to 7997
  154.4009  140.1368  156.3883 H   0  0  0  0  0  0  0  0  0  0  0  0  # atno 8010 bound_to 7997
  140.6090  143.8448  150.7045 H   0  0  0  0  0  0  0  0  0  0  0  0  # atno 10167 bound_to 10162
  156.3060  130.4246  149.8097 H   0  0  0  0  0  0  0  0  0  0  0  0  # atno 10718 bound_to 10713
  153.6541  135.3357  155.3108 H   0  0  0  0  0  0  0  0  0  0  0  0  # atno 10763 bound_to 10752
  154.8530  135.4348  154.1873 H   0  0  0  0  0  0  0  0  0  0  0  0  # atno 10764 bound_to 10752
  153.2823  135.7010  153.7448 H   0  0  0  0  0  0  0  0  0  0  0  0  # atno 10765 bound_to 10752
  140.9618  133.7160  156.1381 H   0  0  0  0  0  0  0  0  0  0  0  0  # atno 11005 bound_to 11000
  145.1078  139.2778  143.5653 LP  0  0  0  0  0  0  0  0  0  0  0  0  # atno 17320 bound_to 7965
  146.3531  140.0664  142.8626 LP  0  0  0  0  0  0  0  0  0  0  0  0  # atno 17321 bound_to 7965
  140.2011  143.3958  152.1790 LP  0  0  0  0  0  0  0  0  0  0  0  0  # atno 17342 bound_to 10162
  139.5347  144.7196  151.4935 LP  0  0  0  0  0  0  0  0  0  0  0  0  # atno 17343 bound_to 10162
  156.5457  130.8320  151.3283 LP  0  0  0  0  0  0  0  0  0  0  0  0  # atno 17370 bound_to 10713
  157.7379  130.9805  150.2224 LP  0  0  0  0  0  0  0  0  0  0  0  0  # atno 17371 bound_to 10713
  140.7457  134.4101  157.5548 LP  0  0  0  0  0  0  0  0  0  0  0  0  # atno 17394 bound_to 11000
  139.8880  134.8866  156.2495 LP  0  0  0  0  0  0  0  0  0  0  0  0  # atno 17395 bound_to 11000

$$$$
