AV-unprocessed.smi:3308|AV-procd|sdf|12710|dock7
  -GOLD-   2272019 43D 1   1.00000     0.00000
 Structure written by MMmdl.
 41 42  0  0  0  0  0  0  0  0  2 V2000
  150.0514  138.2108  154.3629 C   0  0  0  0  0  0  0  0  0  0  0  0
  148.9034  139.1560  153.9762 C   0  0  2  0  0  0  0  0  0  0  0  0
  148.3896  138.8035  152.6327 N   0  3  0  0  0  0  0  0  0  0  0  0
  146.9241  138.6222  152.5518 C   0  0  0  0  0  0  0  0  0  0  0  0
  146.4840  138.0210  151.2099 C   0  0  0  0  0  0  0  0  0  0  0  0
  146.9188  138.4931  150.1581 O   0  0  0  0  0  0  0  0  0  0  0  0
  145.6204  136.9853  151.2299 N   0  0  0  0  0  0  0  0  0  0  0  0
  145.1338  136.3140  150.0261 C   0  0  0  0  0  0  0  0  0  0  0  0
  144.4230  135.0521  150.5153 C   0  0  0  0  0  0  0  0  0  0  0  0
  143.9857  135.3956  151.9326 C   0  0  0  0  0  0  0  0  0  0  0  0
  145.0515  136.3728  152.4303 C   0  0  0  0  0  0  0  0  0  0  0  0
  149.2993  140.6535  154.0620 C   0  0  1  0  0  0  0  0  0  0  0  0
  148.1182  141.6306  153.8776 C   0  0  0  0  0  0  0  0  0  0  0  0
  150.0510  140.9335  155.2814 N   0  0  0  0  0  0  0  0  0  0  0  0
  149.6956  141.7662  156.3227 C   0  0  0  0  0  0  0  0  0  0  0  0
  150.7217  141.7590  157.2234 C   0  0  0  0  0  0  0  0  0  0  0  0
  151.6825  140.8911  156.6348 C   0  0  0  0  0  0  0  0  0  0  0  0
  151.2839  140.4075  155.4697 N   0  0  0  0  0  0  0  0  0  0  0  0
  150.4519  138.4599  155.3460 H   0  0  0  0  0  0  0  0  0  0  0  0
  150.8723  138.2527  153.6469 H   0  0  0  0  0  0  0  0  0  0  0  0
  149.7067  137.1770  154.4037 H   0  0  0  0  0  0  0  0  0  0  0  0
  148.1109  138.9849  154.7073 H   0  0  0  0  0  0  0  0  0  0  0  0
  148.6529  139.5395  151.9922 H   0  0  0  0  0  0  0  0  0  0  0  0
  146.6046  137.9744  153.3690 H   0  0  0  0  0  0  0  0  0  0  0  0
  146.4320  139.5868  152.6811 H   0  0  0  0  0  0  0  0  0  0  0  0
  144.4335  136.9732  149.5108 H   0  0  0  0  0  0  0  0  0  0  0  0
  145.9417  136.0699  149.3344 H   0  0  0  0  0  0  0  0  0  0  0  0
  143.5905  134.7597  149.8747 H   0  0  0  0  0  0  0  0  0  0  0  0
  145.1300  134.2219  150.5436 H   0  0  0  0  0  0  0  0  0  0  0  0
  143.0162  135.8948  151.9034 H   0  0  0  0  0  0  0  0  0  0  0  0
  143.8887  134.5161  152.5696 H   0  0  0  0  0  0  0  0  0  0  0  0
  145.8371  135.8380  152.9657 H   0  0  0  0  0  0  0  0  0  0  0  0
  144.6176  137.1106  153.1066 H   0  0  0  0  0  0  0  0  0  0  0  0
  149.9882  140.8488  153.2387 H   0  0  0  0  0  0  0  0  0  0  0  0
  147.6646  141.5284  152.8921 H   0  0  0  0  0  0  0  0  0  0  0  0
  148.4534  142.6644  153.9680 H   0  0  0  0  0  0  0  0  0  0  0  0
  147.3350  141.4731  154.6198 H   0  0  0  0  0  0  0  0  0  0  0  0
  148.7511  142.2901  156.3370 H   0  0  0  0  0  0  0  0  0  0  0  0
  150.7788  142.2949  158.1593 H   0  0  0  0  0  0  0  0  0  0  0  0
  152.6524  140.6049  157.0134 H   0  0  0  0  0  0  0  0  0  0  0  0
  148.8297  137.9466  152.3294 H   0  0  0  0  0  0  0  0  0  0  0  0
  1  2  1  0  0  0  0
  1 19  1  0  0  0  0
  1 20  1  0  0  0  0
  1 21  1  0  0  0  0
  2  3  1  0  0  0  0
  2 12  1  0  0  0  0
  2 22  1  0  0  0  0
  3  4  1  0  0  0  0
  3 23  1  0  0  0  0
  3 41  1  0  0  0  0
  4  5  1  0  0  0  0
  4 24  1  0  0  0  0
  4 25  1  0  0  0  0
  5  6  2  0  0  0  0
  5  7  1  0  0  0  0
  7 11  1  0  0  0  0
  7  8  1  0  0  0  0
  8  9  1  0  0  0  0
  8 26  1  0  0  0  0
  8 27  1  0  0  0  0
  9 10  1  0  0  0  0
  9 28  1  0  0  0  0
  9 29  1  0  0  0  0
 10 11  1  0  0  0  0
 10 30  1  0  0  0  0
 10 31  1  0  0  0  0
 11 32  1  0  0  0  0
 11 33  1  0  0  0  0
 12 13  1  0  0  0  0
 12 14  1  0  0  0  0
 12 34  1  0  0  0  0
 13 35  1  0  0  0  0
 13 36  1  0  0  0  0
 13 37  1  0  0  0  0
 14 18  1  0  0  0  0
 14 15  1  0  0  0  0
 15 16  2  0  0  0  0
 15 38  1  0  0  0  0
 16 17  1  0  0  0  0
 16 39  1  0  0  0  0
 17 18  2  0  0  0  0
 17 40  1  0  0  0  0
M  CHG  1   3   1
M  END
> <s_m_source_file>
AV-unprocessed.smi

> <i_m_source_file_index>
3308

> <i_lp_mmshare_version>
43012

> <i_f3d_flags>
0

> <s_epik_input>
bjFbY0hdW2NIXVtjSF1uMVtDQEBIXShbQ0gzXSlbQ0BIXShbQ0gzXSlbTkhdW0NIMl1DKD1PKU4yW0NIMl1bQ0gyXVtDSDJdW0NIMl0y

> <s_epik_cmdline>
J2VwaWtfcHl0aG9uJywgJy1waCcsICc3LjAnLCAnLXRuJywgJzgnLCAnLW1hJywgJzIwMCcsICctbWV0YWxfYmluZGluZycsICctaW1hZScsICc8aW5maWxlLm1hZT4nLCAnLW9tYWUnLCAnPG91dGZpbGUubWFlPic=

> <r_lp_tautomer_probability>
1

> <r_epik_Ionization_Penalty>
0.141739

> <r_epik_Ionization_Penalty_Charging>
0.141731

> <r_epik_Ionization_Penalty_Neutral>
8.82171e-06

> <r_epik_State_Penalty>
0.131043

> <r_epik_Charging_Adjusted_Penalty>
0.272773

> <i_epik_Tot_Q>
1

> <i_epik_Tot_abs_Q>
1

> <r_epik_Metal_State_Penalty>
0.131385

> <b_epik_Metal_Only>
0

> <s_lp_Force_Field>
OPLS_2005

> <r_lp_Energy>
34.1001

> <b_lp_Chiralities_Consistent>
1

> <s_lp_Variant>
AV-unprocessed.smi:3308-3

> <Gold.Version>
5.8.1

> <Gold.Id.Protein>
6NUR|6NUR_protein|mol2

> <Gold.PLP.Fitness>
45.3104

> <Gold.PLP.PLP>
-32.3323

> <Gold.PLP.part.hbond>
-3.9639

> <Gold.PLP.part.metal>
0.0000

> <Gold.PLP.part.buried>
2.0138

> <Gold.PLP.part.nonpolar>
-31.2517

> <Gold.PLP.part.repulsive>
1.6043

> <Gold.PLP.ligand.clash>
0.0000

> <Gold.PLP.ligand.torsion>
1.1326

> <Gold.PLP.Chemscore.Hbond>
4.4040

> <Gold.PLP.Chemscore.CHOScore>
0.6200

> <Gold.PLP.Chemscore.Metal>
0.0000

> <Gold.Chemscore.Hbonds>
donor molecule, donor type, donor heavy atom, donor atom, acceptor molecule, acceptor atom, score
      L1  H     3    23       P1  7957  0.51
      L1  H     3    41       P1  7948  2.00
      P1  H  7954  7966       L1     6  0.41
      P1  H  7989  7998       L1    18  0.31
      L1  C    15    38       P1  8028  0.70

> <Gold.PLP.Chemscore.Internal.Correction>
0.1712

> <Gold.Rescore>
     Score         DG    S(hbond)    S(metal)    S(lipo)     H(rot)  DE(clash)    DE(int)     intcor
     14.06     -18.35       2.86        0.00      67.33       1.78       1.65       2.64       ----

> <Gold.Chemscore.Fitness>
14.0616

> <Gold.Chemscore.DG>
-18.3481

> <Gold.Chemscore.ZeroCoef>
-5.4800

> <Gold.Chemscore.Hbond>
2.8612

> <Gold.Chemscore.Metal>
0.0000

> <Gold.Chemscore.Lipo>
67.3314

> <Gold.Chemscore.Internal_Hbond>
0.0000

> <Gold.Chemscore.DEClash>
1.6509

> <Gold.Chemscore.DEInternal>
2.6356

> <Gold.Chemscore.Rot>
1.7836

> <Gold.Chemscore.Internal.Correction>
   9.000000E+99

> <Gold.Chemscore.Hbonds>
donor molecule, donor type, donor heavy atom, donor atom, acceptor molecule, acceptor atom, score
      L1  H     3    23       P1  7957  0.49
      L1  H     3    41       P1  7948  0.99
      P1  H  7954  7966       L1     6  0.30
      P1  H  7989  7998       L1    18  0.01

> <Gold.Chemscore.Hbond.Weighted>
-9.5563

> <Gold.Chemscore.Metal.Weighted>
-0.0000

> <Gold.Chemscore.Lipo.Weighted>
-7.8778

> <Gold.Chemscore.Internal_Hbond.Weighted>
0.0000

> <Gold.Chemscore.DEClash.Weighted>
1.6509

> <Gold.Chemscore.DEInternal.Weighted>
2.6356

> <Gold.Chemscore.Rot.Weighted>
4.5660

> <Gold.Chemscore.Internal.Correction.Weighted>
   9.000000E+99

> <Gold.Protein.RotatedTorsions>
[ 6907 6896 6895 6894 ] final -116.87 input  -60.11 | X-H torsion
[ 7974 7965 7964 7962 ] final  -98.64 input  175.53 | X-H torsion
[ 8008 7997 7996 7995 ] final  -56.86 input   59.86 | X-H torsion
[ 10167 10162 10161 10158 ] final   12.13 input  -65.29 | X-H torsion
[ 10718 10713 10712 10709 ] final -146.63 input   66.30 | X-H torsion
[ 10763 10752 10751 10750 ] final  -17.07 input  -60.55 | X-H torsion
[ 11005 11000 10999 10996 ] final -168.09 input  -57.11 | X-H torsion

> <Gold.Protein.ActiveResidues>
 VAL166  LYS551  ARG553  GLY616  TRP617  ASP618  TYR619  PRO620  LYS621  CYS622 
 ASP623  PHE694  ASN695  SER759  ASP760  ASP761  ALA762  ILE779  LEU786  VAL792 
 PHE793  MET794  SER795  GLU796  ALA797  LYS798  CYS799  TRP800  GLU811  SER814 

> <Gold.Protein.RotatedAtoms>
  150.8090  133.8456  159.3191 H   0  0  0  0  0  0  0  0  0  0  0  0  # atno 6907 bound_to 6896
  151.6247  135.1027  160.0118 H   0  0  0  0  0  0  0  0  0  0  0  0  # atno 6908 bound_to 6896
  152.4182  133.7032  159.6493 H   0  0  0  0  0  0  0  0  0  0  0  0  # atno 6909 bound_to 6896
  145.3180  140.9415  143.2732 H   0  0  0  0  0  0  0  0  0  0  0  0  # atno 7974 bound_to 7965
  154.4246  140.1120  156.5705 H   0  0  0  0  0  0  0  0  0  0  0  0  # atno 8008 bound_to 7997
  155.6217  140.3495  155.4635 H   0  0  0  0  0  0  0  0  0  0  0  0  # atno 8009 bound_to 7997
  156.0018  140.1201  157.0529 H   0  0  0  0  0  0  0  0  0  0  0  0  # atno 8010 bound_to 7997
  140.6087  143.8453  150.7042 H   0  0  0  0  0  0  0  0  0  0  0  0  # atno 10167 bound_to 10162
  156.3973  130.7916  151.2124 H   0  0  0  0  0  0  0  0  0  0  0  0  # atno 10718 bound_to 10713
  153.5683  135.7008  153.5516 H   0  0  0  0  0  0  0  0  0  0  0  0  # atno 10763 bound_to 10752
  153.3368  135.4032  155.1539 H   0  0  0  0  0  0  0  0  0  0  0  0  # atno 10764 bound_to 10752
  154.8637  135.3732  154.5204 H   0  0  0  0  0  0  0  0  0  0  0  0  # atno 10765 bound_to 10752
  140.5459  134.5477  157.5111 H   0  0  0  0  0  0  0  0  0  0  0  0  # atno 11005 bound_to 11000
  144.8962  139.4709  143.6654 LP  0  0  0  0  0  0  0  0  0  0  0  0  # atno 17320 bound_to 7965
  146.3093  139.7689  142.9032 LP  0  0  0  0  0  0  0  0  0  0  0  0  # atno 17321 bound_to 7965
  140.2016  143.3955  152.1787 LP  0  0  0  0  0  0  0  0  0  0  0  0  # atno 17342 bound_to 10162
  139.5345  144.7194  151.4942 LP  0  0  0  0  0  0  0  0  0  0  0  0  # atno 17343 bound_to 10162
  157.7502  131.0297  150.4106 LP  0  0  0  0  0  0  0  0  0  0  0  0  # atno 17370 bound_to 10713
  156.4379  130.3985  149.6717 LP  0  0  0  0  0  0  0  0  0  0  0  0  # atno 17371 bound_to 10713
  139.9480  134.7667  156.0515 LP  0  0  0  0  0  0  0  0  0  0  0  0  # atno 17394 bound_to 11000
  141.1200  133.6616  156.3191 LP  0  0  0  0  0  0  0  0  0  0  0  0  # atno 17395 bound_to 11000

$$$$
