AV-unprocessed.smi:2281|AV-procd|sdf|9193|dock6
  -GOLD-   2272012413D 1   1.00000     0.00000
 Structure written by MMmdl.
 40 41  0  0  0  0  0  0  0  0  1 V2000
  145.8536  141.3665  155.7635 C   0  0  0  0  0  0  0  0  0  0  0  0
  147.3518  141.1192  155.7667 C   0  0  0  0  0  0  0  0  0  0  0  0
  148.0567  141.6939  156.8275 N   0  0  0  0  0  0  0  0  0  0  0  0
  149.3384  141.5448  156.9057 C   0  0  0  0  0  0  0  0  0  0  0  0
  150.0606  140.8208  155.9422 N   0  0  0  0  0  0  0  0  0  0  0  0
  151.5181  140.7226  156.1631 C   0  0  0  0  0  0  0  0  0  0  0  0
  151.9477  139.9065  157.4215 C   0  0  1  0  0  0  0  0  0  0  0  0
  150.9379  138.8260  157.8681 C   0  0  0  0  0  0  0  0  0  0  0  0
  153.1135  139.1905  157.0515 O   0  0  0  0  0  0  0  0  0  0  0  0
  152.2276  140.8760  158.5799 C   0  0  0  0  0  0  0  0  0  0  0  0
  152.8995  140.4614  159.7554 C   0  0  0  0  0  0  0  0  0  0  0  0
  153.1478  141.3742  160.7977 C   0  0  0  0  0  0  0  0  0  0  0  0
  152.7297  142.7121  160.6809 C   0  0  0  0  0  0  0  0  0  0  0  0
  152.0565  143.1457  159.5203 C   0  0  0  0  0  0  0  0  0  0  0  0
  151.6176  144.5970  159.3910 C   0  0  0  0  0  0  0  0  0  0  0  0
  151.9493  145.3017  160.4733 F   0  0  0  0  0  0  0  0  0  0  0  0
  152.1910  145.1674  158.3308 F   0  0  0  0  0  0  0  0  0  0  0  0
  150.2945  144.6419  159.2396 F   0  0  0  0  0  0  0  0  0  0  0  0
  151.8158  142.2257  158.4768 C   0  0  0  0  0  0  0  0  0  0  0  0
  149.4447  140.2042  154.8901 C   0  0  0  0  0  0  0  0  0  0  0  0
  150.0778  139.5460  154.0626 O   0  0  0  0  0  0  0  0  0  0  0  0
  147.9866  140.3887  154.8102 C   0  0  0  0  0  0  0  0  0  0  0  0
  147.2715  139.7416  153.6304 C   0  0  0  0  0  0  0  0  0  0  0  0
  145.5526  141.8785  154.8492 H   0  0  0  0  0  0  0  0  0  0  0  0
  145.5512  141.9865  156.6083 H   0  0  0  0  0  0  0  0  0  0  0  0
  145.3111  140.4231  155.8306 H   0  0  0  0  0  0  0  0  0  0  0  0
  149.9339  141.9690  157.7160 H   0  0  0  0  0  0  0  0  0  0  0  0
  152.0177  140.3251  155.2767 H   0  0  0  0  0  0  0  0  0  0  0  0
  151.9159  141.7358  156.2369 H   0  0  0  0  0  0  0  0  0  0  0  0
  149.9640  139.2508  158.1095 H   0  0  0  0  0  0  0  0  0  0  0  0
  151.2932  138.3036  158.7572 H   0  0  0  0  0  0  0  0  0  0  0  0
  150.7807  138.0708  157.0974 H   0  0  0  0  0  0  0  0  0  0  0  0
  152.8855  138.2803  156.9413 H   0  0  0  0  0  0  0  0  0  0  0  0
  153.2377  139.4436  159.8780 H   0  0  0  0  0  0  0  0  0  0  0  0
  153.6630  141.0470  161.6888 H   0  0  0  0  0  0  0  0  0  0  0  0
  152.9311  143.4052  161.4845 H   0  0  0  0  0  0  0  0  0  0  0  0
  151.3148  142.5619  157.5811 H   0  0  0  0  0  0  0  0  0  0  0  0
  147.6413  140.1591  152.6934 H   0  0  0  0  0  0  0  0  0  0  0  0
  146.1923  139.8844  153.6512 H   0  0  0  0  0  0  0  0  0  0  0  0
  147.4584  138.6674  153.6195 H   0  0  0  0  0  0  0  0  0  0  0  0
  1  2  1  0  0  0  0
  1 24  1  0  0  0  0
  1 25  1  0  0  0  0
  1 26  1  0  0  0  0
  2 22  2  0  0  0  0
  2  3  1  0  0  0  0
  3  4  2  0  0  0  0
  4  5  1  0  0  0  0
  4 27  1  0  0  0  0
  5  6  1  0  0  0  0
  5 20  1  0  0  0  0
  6  7  1  0  0  0  0
  6 28  1  0  0  0  0
  6 29  1  0  0  0  0
  7  8  1  0  0  0  0
  7  9  1  0  0  0  0
  7 10  1  0  0  0  0
  8 30  1  0  0  0  0
  8 31  1  0  0  0  0
  8 32  1  0  0  0  0
  9 33  1  0  0  0  0
 10 19  1  0  0  0  0
 10 11  2  0  0  0  0
 11 12  1  0  0  0  0
 11 34  1  0  0  0  0
 12 13  2  0  0  0  0
 12 35  1  0  0  0  0
 13 14  1  0  0  0  0
 13 36  1  0  0  0  0
 14 15  1  0  0  0  0
 14 19  2  0  0  0  0
 15 16  1  0  0  0  0
 15 17  1  0  0  0  0
 15 18  1  0  0  0  0
 19 37  1  0  0  0  0
 20 21  2  0  0  0  0
 20 22  1  0  0  0  0
 22 23  1  0  0  0  0
 23 38  1  0  0  0  0
 23 39  1  0  0  0  0
 23 40  1  0  0  0  0
M  END
> <s_m_source_file>
AV-unprocessed.smi

> <i_m_source_file_index>
2281

> <i_lp_mmshare_version>
43012

> <i_f3d_flags>
0

> <s_epik_input>
W0NIM11jMW5bY0hdbihjKD1PKWMxW0NIM10pW0NIMl1bQ0BAXShbQ0gzXSkoW09IXSljMltjSF1bY0hdW2NIXWMoQyhGKShGKUYpW2NIXTI=

> <s_epik_cmdline>
J2VwaWtfcHl0aG9uJywgJy1waCcsICc3LjAnLCAnLXRuJywgJzgnLCAnLW1hJywgJzIwMCcsICctbWV0YWxfYmluZGluZycsICctaW1hZScsICc8aW5maWxlLm1hZT4nLCAnLW9tYWUnLCAnPG91dGZpbGUubWFlPic=

> <r_lp_tautomer_probability>
1

> <r_epik_Ionization_Penalty>
5.68222e-05

> <r_epik_Ionization_Penalty_Charging>
9.07816e-08

> <r_epik_Ionization_Penalty_Neutral>
5.67314e-05

> <r_epik_State_Penalty>
-0

> <r_epik_Charging_Adjusted_Penalty>
9.07816e-08

> <i_epik_Tot_Q>
0

> <i_epik_Tot_abs_Q>
0

> <r_epik_Metal_State_Penalty>
-0

> <b_epik_Metal_Only>
0

> <s_lp_Force_Field>
OPLS_2005

> <r_lp_Energy>
23.727

> <b_lp_Chiralities_Consistent>
1

> <s_lp_Variant>
AV-unprocessed.smi:2281-1

> <Gold.Version>
5.8.1

> <Gold.Id.Protein>
6NUR|6NUR_protein|mol2

> <Gold.PLP.Fitness>
52.4070

> <Gold.PLP.PLP>
-48.8265

> <Gold.PLP.part.hbond>
-2.0000

> <Gold.PLP.part.metal>
0.0000

> <Gold.PLP.part.buried>
-7.5925

> <Gold.PLP.part.nonpolar>
-40.8060

> <Gold.PLP.part.repulsive>
2.0998

> <Gold.PLP.ligand.clash>
1.3509

> <Gold.PLP.ligand.torsion>
1.0859

> <Gold.PLP.Chemscore.Hbond>
2.0000

> <Gold.PLP.Chemscore.CHOScore>
0.0000

> <Gold.PLP.Chemscore.Metal>
0.0000

> <Gold.Chemscore.Hbonds>
donor molecule, donor type, donor heavy atom, donor atom, acceptor molecule, acceptor atom, score
      P1  H  7989  7998       L1    21  0.81
      P1  H  7997  8010       L1     9  1.00

> <Gold.PLP.Chemscore.Internal.Correction>
1.1032

> <Gold.Rescore>
     Score         DG    S(hbond)    S(metal)    S(lipo)     H(rot)  DE(clash)    DE(int)     intcor
     16.56     -17.90       1.83        0.00      99.63       2.09       0.25       1.09       ----

> <Gold.Chemscore.Fitness>
16.5600

> <Gold.Chemscore.DG>
-17.8987

> <Gold.Chemscore.ZeroCoef>
-5.4800

> <Gold.Chemscore.Hbond>
1.8269

> <Gold.Chemscore.Metal>
0.0000

> <Gold.Chemscore.Lipo>
99.6339

> <Gold.Chemscore.Internal_Hbond>
0.0000

> <Gold.Chemscore.DEClash>
0.2487

> <Gold.Chemscore.DEInternal>
1.0899

> <Gold.Chemscore.Rot>
2.0860

> <Gold.Chemscore.Internal.Correction>
   9.000000E+99

> <Gold.Chemscore.Hbonds>
donor molecule, donor type, donor heavy atom, donor atom, acceptor molecule, acceptor atom, score
      P1  H  7989  7998       L1    21  0.31
      P1  H  7997  8010       L1     9  0.92

> <Gold.Chemscore.Hbond.Weighted>
-6.1017

> <Gold.Chemscore.Metal.Weighted>
-0.0000

> <Gold.Chemscore.Lipo.Weighted>
-11.6572

> <Gold.Chemscore.Internal_Hbond.Weighted>
0.0000

> <Gold.Chemscore.DEClash.Weighted>
0.2487

> <Gold.Chemscore.DEInternal.Weighted>
1.0899

> <Gold.Chemscore.Rot.Weighted>
5.3402

> <Gold.Chemscore.Internal.Correction.Weighted>
   9.000000E+99

> <Gold.Protein.RotatedTorsions>
[ 6907 6896 6895 6894 ] final   90.07 input  -60.11 | X-H torsion
[ 7974 7965 7964 7962 ] final   42.37 input  175.53 | X-H torsion
[ 8008 7997 7996 7995 ] final   68.27 input   59.86 | X-H torsion
[ 10167 10162 10161 10158 ] final   70.96 input  -65.29 | X-H torsion
[ 10718 10713 10712 10709 ] final  -49.16 input   66.30 | X-H torsion
[ 10763 10752 10751 10750 ] final  106.20 input  -60.55 | X-H torsion
[ 11005 11000 10999 10996 ] final   64.51 input  -57.11 | X-H torsion

> <Gold.Protein.ActiveResidues>
 VAL166  LYS551  ARG553  GLY616  TRP617  ASP618  TYR619  PRO620  LYS621  CYS622 
 ASP623  PHE694  ASN695  SER759  ASP760  ASP761  ALA762  ILE779  LEU786  VAL792 
 PHE793  MET794  SER795  GLU796  ALA797  LYS798  CYS799  TRP800  GLU811  SER814 

> <Gold.Protein.RotatedAtoms>
  152.5441  134.1869  159.8657 H   0  0  0  0  0  0  0  0  0  0  0  0  # atno 6907 bound_to 6896
  151.1867  133.4685  159.2602 H   0  0  0  0  0  0  0  0  0  0  0  0  # atno 6908 bound_to 6896
  151.1124  135.0046  159.8555 H   0  0  0  0  0  0  0  0  0  0  0  0  # atno 6909 bound_to 6896
  146.0746  139.5308  142.9576 H   0  0  0  0  0  0  0  0  0  0  0  0  # atno 7974 bound_to 7965
  155.7057  140.3495  155.4952 H   0  0  0  0  0  0  0  0  0  0  0  0  # atno 8008 bound_to 7997
  155.9401  140.1100  157.1085 H   0  0  0  0  0  0  0  0  0  0  0  0  # atno 8009 bound_to 7997
  154.4101  140.1214  156.4902 H   0  0  0  0  0  0  0  0  0  0  0  0  # atno 8010 bound_to 7997
  140.0513  144.5309  150.7361 H   0  0  0  0  0  0  0  0  0  0  0  0  # atno 10167 bound_to 10162
  156.1919  130.4153  149.9360 H   0  0  0  0  0  0  0  0  0  0  0  0  # atno 10718 bound_to 10713
  153.3897  135.3885  155.1914 H   0  0  0  0  0  0  0  0  0  0  0  0  # atno 10763 bound_to 10752
  154.8718  135.3745  154.4753 H   0  0  0  0  0  0  0  0  0  0  0  0  # atno 10764 bound_to 10752
  153.5238  135.7086  153.5779 H   0  0  0  0  0  0  0  0  0  0  0  0  # atno 10765 bound_to 10752
  139.9954  134.6525  156.0019 H   0  0  0  0  0  0  0  0  0  0  0  0  # atno 11005 bound_to 11000
  145.6330  141.0300  143.1853 LP  0  0  0  0  0  0  0  0  0  0  0  0  # atno 17320 bound_to 7965
  144.7253  139.7896  143.7367 LP  0  0  0  0  0  0  0  0  0  0  0  0  # atno 17321 bound_to 7965
  140.7215  143.2593  151.4262 LP  0  0  0  0  0  0  0  0  0  0  0  0  # atno 17342 bound_to 10162
  139.5951  144.1415  152.2134 LP  0  0  0  0  0  0  0  0  0  0  0  0  # atno 17343 bound_to 10162
  156.7097  130.8965  151.3608 LP  0  0  0  0  0  0  0  0  0  0  0  0  # atno 17370 bound_to 10713
  157.6934  130.9257  150.0577 LP  0  0  0  0  0  0  0  0  0  0  0  0  # atno 17371 bound_to 10713
  141.1600  133.6539  156.4287 LP  0  0  0  0  0  0  0  0  0  0  0  0  # atno 17394 bound_to 11000
  140.4828  134.6649  157.5178 LP  0  0  0  0  0  0  0  0  0  0  0  0  # atno 17395 bound_to 11000

$$$$
