AV-unprocessed.smi:2149|AV-procd|sdf|8753|dock6
  -GOLD-   2272011533D 1   1.00000     0.00000
 Structure written by MMmdl.
 42 43  0  0  0  0  0  0  0  0  1 V2000
  145.3928  143.7936  157.7986 C   0  0  0  0  0  0  0  0  0  0  0  0
  145.5851  141.9643  157.7403 S   0  0  0  0  0  0  0  0  0  0  0  0
  146.3420  141.5591  158.9349 O   0  0  0  0  0  0  0  0  0  0  0  0
  144.2797  141.3502  157.4545 O   0  0  0  0  0  0  0  0  0  0  0  0
  146.6019  141.7154  156.3568 N   0  0  0  0  0  0  0  0  0  0  0  0
  145.9651  141.2028  155.1265 C   0  0  0  0  0  0  0  0  0  0  0  0
  146.8621  141.4149  153.8964 C   0  0  0  0  0  0  0  0  0  0  0  0
  148.2509  140.8080  154.1133 C   0  0  0  0  0  0  0  0  0  0  0  0
  148.8798  141.4210  155.3744 C   0  0  2  0  0  0  0  0  0  0  0  0
  150.2828  140.8510  155.6232 C   0  0  0  0  0  0  0  0  0  0  0  0
  150.8432  140.1776  154.7579 O   0  0  0  0  0  0  0  0  0  0  0  0
  150.8373  141.1286  156.8136 N   0  0  0  0  0  0  0  0  0  0  0  0
  152.1552  140.6844  157.2519 C   0  0  0  0  0  0  0  0  0  0  0  0
  152.4359  141.0930  158.7075 C   0  0  0  0  0  0  0  0  0  0  0  0
  152.2056  142.5743  158.9418 C   0  0  0  0  0  0  0  0  0  0  0  0
  152.5496  143.1701  160.1742 C   0  0  0  0  0  0  0  0  0  0  0  0
  152.3077  144.5472  160.3444 C   0  0  0  0  0  0  0  0  0  0  0  0
  151.7331  145.2713  159.2820 C   0  0  0  0  0  0  0  0  0  0  0  0
  151.4247  144.5831  158.0914 C   0  0  0  0  0  0  0  0  0  0  0  0
  151.6523  143.2632  157.9182 N   0  0  0  0  0  0  0  0  0  0  0  0
  147.9631  141.1910  156.5950 C   0  0  0  0  0  0  0  0  0  0  0  0
  144.8398  144.0672  158.6968 H   0  0  0  0  0  0  0  0  0  0  0  0
  144.8440  144.1416  156.9248 H   0  0  0  0  0  0  0  0  0  0  0  0
  146.3762  144.2622  157.8241 H   0  0  0  0  0  0  0  0  0  0  0  0
  145.7484  140.1416  155.2569 H   0  0  0  0  0  0  0  0  0  0  0  0
  145.0099  141.7006  154.9671 H   0  0  0  0  0  0  0  0  0  0  0  0
  146.3958  140.9711  153.0165 H   0  0  0  0  0  0  0  0  0  0  0  0
  146.9551  142.4822  153.6908 H   0  0  0  0  0  0  0  0  0  0  0  0
  148.1670  139.7246  154.2134 H   0  0  0  0  0  0  0  0  0  0  0  0
  148.8784  140.9967  153.2412 H   0  0  0  0  0  0  0  0  0  0  0  0
  148.9714  142.4982  155.2203 H   0  0  0  0  0  0  0  0  0  0  0  0
  150.3057  141.6889  157.4640 H   0  0  0  0  0  0  0  0  0  0  0  0
  152.2482  139.6038  157.1300 H   0  0  0  0  0  0  0  0  0  0  0  0
  152.8968  141.1360  156.5924 H   0  0  0  0  0  0  0  0  0  0  0  0
  151.7999  140.5207  159.3844 H   0  0  0  0  0  0  0  0  0  0  0  0
  153.4650  140.8501  158.9766 H   0  0  0  0  0  0  0  0  0  0  0  0
  152.9868  142.5876  160.9719 H   0  0  0  0  0  0  0  0  0  0  0  0
  152.5574  145.0386  161.2733 H   0  0  0  0  0  0  0  0  0  0  0  0
  151.5330  146.3282  159.3770 H   0  0  0  0  0  0  0  0  0  0  0  0
  150.9827  145.1064  157.2563 H   0  0  0  0  0  0  0  0  0  0  0  0
  148.3976  141.6825  157.4656 H   0  0  0  0  0  0  0  0  0  0  0  0
  147.8902  140.1292  156.8366 H   0  0  0  0  0  0  0  0  0  0  0  0
  1  2  1  0  0  0  0
  1 22  1  0  0  0  0
  1 23  1  0  0  0  0
  1 24  1  0  0  0  0
  2  3  2  0  0  0  0
  2  4  2  0  0  0  0
  2  5  1  0  0  0  0
  5 21  1  0  0  0  0
  5  6  1  0  0  0  0
  6  7  1  0  0  0  0
  6 25  1  0  0  0  0
  6 26  1  0  0  0  0
  7  8  1  0  0  0  0
  7 27  1  0  0  0  0
  7 28  1  0  0  0  0
  8  9  1  0  0  0  0
  8 29  1  0  0  0  0
  8 30  1  0  0  0  0
  9 10  1  0  0  0  0
  9 21  1  0  0  0  0
  9 31  1  0  0  0  0
 10 11  2  0  0  0  0
 10 12  1  0  0  0  0
 12 13  1  0  0  0  0
 12 32  1  0  0  0  0
 13 14  1  0  0  0  0
 13 33  1  0  0  0  0
 13 34  1  0  0  0  0
 14 15  1  0  0  0  0
 14 35  1  0  0  0  0
 14 36  1  0  0  0  0
 15 20  1  0  0  0  0
 15 16  2  0  0  0  0
 16 17  1  0  0  0  0
 16 37  1  0  0  0  0
 17 18  2  0  0  0  0
 17 38  1  0  0  0  0
 18 19  1  0  0  0  0
 18 39  1  0  0  0  0
 19 20  2  0  0  0  0
 19 40  1  0  0  0  0
 21 41  1  0  0  0  0
 21 42  1  0  0  0  0
M  END
> <s_m_source_file>
AV-unprocessed.smi

> <i_m_source_file_index>
2149

> <i_lp_mmshare_version>
43012

> <i_f3d_flags>
0

> <s_epik_input>
W0NIM11TKD1PKSg9TylOMVtDSDJdW0NIMl1bQ0gyXVtDQEhdKFtDSDJdMSlDKD1PKVtOSF1bQ0gyXVtDSDJdYzJbY0hdW2NIXVtjSF1bY0hdbjI=

> <s_epik_cmdline>
J2VwaWtfcHl0aG9uJywgJy1waCcsICc3LjAnLCAnLXRuJywgJzgnLCAnLW1hJywgJzIwMCcsICctbWV0YWxfYmluZGluZycsICctaW1hZScsICc8aW5maWxlLm1hZT4nLCAnLW9tYWUnLCAnPG91dGZpbGUubWFlPic=

> <r_epik_Ionization_Penalty>
0.0273806

> <r_epik_Ionization_Penalty_Charging>
0

> <r_epik_Ionization_Penalty_Neutral>
0.0273806

> <r_epik_State_Penalty>
0.0224071

> <r_epik_Charging_Adjusted_Penalty>
0.0224071

> <i_epik_Tot_Q>
0

> <i_epik_Tot_abs_Q>
0

> <r_epik_Metal_State_Penalty>
0.0214134

> <b_epik_Metal_Only>
0

> <s_lp_Force_Field>
OPLS_2005

> <r_lp_Energy>
5.16122

> <b_lp_Chiralities_Consistent>
1

> <s_lp_Variant>
AV-unprocessed.smi:2149-2

> <Gold.Version>
5.8.1

> <Gold.Id.Protein>
6NUR|6NUR_protein|mol2

> <Gold.PLP.Fitness>
45.6648

> <Gold.PLP.PLP>
-38.2390

> <Gold.PLP.part.hbond>
-2.0000

> <Gold.PLP.part.metal>
0.0000

> <Gold.PLP.part.buried>
-6.9113

> <Gold.PLP.part.nonpolar>
-30.0440

> <Gold.PLP.part.repulsive>
0.3049

> <Gold.PLP.ligand.clash>
0.0000

> <Gold.PLP.ligand.torsion>
0.7501

> <Gold.PLP.Chemscore.Hbond>
1.7360

> <Gold.PLP.Chemscore.CHOScore>
0.9767

> <Gold.PLP.Chemscore.Metal>
0.0000

> <Gold.Chemscore.Hbonds>
donor molecule, donor type, donor heavy atom, donor atom, acceptor molecule, acceptor atom, score
      P1  H  6934  6946       L1     3  0.74
      P1  H  7989  7998       L1    11  1.00
      L1  C    19    40       P1  8028  0.79

> <Gold.PLP.Chemscore.Internal.Correction>
0.7878

> <Gold.Rescore>
     Score         DG    S(hbond)    S(metal)    S(lipo)     H(rot)  DE(clash)    DE(int)     intcor
     15.89     -18.50       1.71        0.00     102.75       1.84       0.21       2.40       ----

> <Gold.Chemscore.Fitness>
15.8932

> <Gold.Chemscore.DG>
-18.4957

> <Gold.Chemscore.ZeroCoef>
-5.4800

> <Gold.Chemscore.Hbond>
1.7094

> <Gold.Chemscore.Metal>
0.0000

> <Gold.Chemscore.Lipo>
102.7488

> <Gold.Chemscore.Internal_Hbond>
0.0000

> <Gold.Chemscore.DEClash>
0.2073

> <Gold.Chemscore.DEInternal>
2.3953

> <Gold.Chemscore.Rot>
1.8419

> <Gold.Chemscore.Internal.Correction>
   9.000000E+99

> <Gold.Chemscore.Hbonds>
donor molecule, donor type, donor heavy atom, donor atom, acceptor molecule, acceptor atom, score
      P1  H  6934  6946       L1     3  0.72
      P1  H  7989  7998       L1    11  0.98

> <Gold.Chemscore.Hbond.Weighted>
-5.7094

> <Gold.Chemscore.Metal.Weighted>
-0.0000

> <Gold.Chemscore.Lipo.Weighted>
-12.0216

> <Gold.Chemscore.Internal_Hbond.Weighted>
0.0000

> <Gold.Chemscore.DEClash.Weighted>
0.2073

> <Gold.Chemscore.DEInternal.Weighted>
2.3953

> <Gold.Chemscore.Rot.Weighted>
4.7153

> <Gold.Chemscore.Internal.Correction.Weighted>
   9.000000E+99

> <Gold.Protein.RotatedTorsions>
[ 6907 6896 6895 6894 ] final   69.05 input  -60.11 | X-H torsion
[ 7974 7965 7964 7962 ] final  -23.01 input  175.53 | X-H torsion
[ 8008 7997 7996 7995 ] final -134.65 input   59.86 | X-H torsion
[ 10167 10162 10161 10158 ] final   94.18 input  -65.29 | X-H torsion
[ 10718 10713 10712 10709 ] final  169.07 input   66.30 | X-H torsion
[ 10763 10752 10751 10750 ] final  103.65 input  -60.55 | X-H torsion
[ 11005 11000 10999 10996 ] final   92.84 input  -57.11 | X-H torsion

> <Gold.Protein.ActiveResidues>
 VAL166  LYS551  ARG553  GLY616  TRP617  ASP618  TYR619  PRO620  LYS621  CYS622 
 ASP623  PHE694  ASN695  SER759  ASP760  ASP761  ALA762  ILE779  LEU786  VAL792 
 PHE793  MET794  SER795  GLU796  ALA797  LYS798  CYS799  TRP800  GLU811  SER814 

> <Gold.Protein.RotatedAtoms>
  152.4661  134.5073  159.9742 H   0  0  0  0  0  0  0  0  0  0  0  0  # atno 6907 bound_to 6896
  151.5110  133.3479  159.2893 H   0  0  0  0  0  0  0  0  0  0  0  0  # atno 6908 bound_to 6896
  150.8645  134.8034  159.7170 H   0  0  0  0  0  0  0  0  0  0  0  0  # atno 6909 bound_to 6896
  146.1642  140.4557  142.8559 H   0  0  0  0  0  0  0  0  0  0  0  0  # atno 7974 bound_to 7965
  155.3655  140.0485  157.3046 H   0  0  0  0  0  0  0  0  0  0  0  0  # atno 8008 bound_to 7997
  154.5156  140.2207  155.9035 H   0  0  0  0  0  0  0  0  0  0  0  0  # atno 8009 bound_to 7997
  156.1633  140.3112  155.8850 H   0  0  0  0  0  0  0  0  0  0  0  0  # atno 8010 bound_to 7997
  139.8108  144.6774  150.9643 H   0  0  0  0  0  0  0  0  0  0  0  0  # atno 10167 bound_to 10162
  157.0279  131.0251  151.2754 H   0  0  0  0  0  0  0  0  0  0  0  0  # atno 10718 bound_to 10713
  153.3554  135.3969  155.1678 H   0  0  0  0  0  0  0  0  0  0  0  0  # atno 10763 bound_to 10752
  154.8670  135.3667  154.5167 H   0  0  0  0  0  0  0  0  0  0  0  0  # atno 10764 bound_to 10752
  153.5623  135.7081  153.5602 H   0  0  0  0  0  0  0  0  0  0  0  0  # atno 10765 bound_to 10752
  139.8818  134.8756  156.3630 H   0  0  0  0  0  0  0  0  0  0  0  0  # atno 11005 bound_to 11000
  144.8069  140.6315  143.6441 LP  0  0  0  0  0  0  0  0  0  0  0  0  # atno 17320 bound_to 7965
  145.4511  139.1523  143.3918 LP  0  0  0  0  0  0  0  0  0  0  0  0  # atno 17321 bound_to 7965
  140.7818  143.4187  151.0876 LP  0  0  0  0  0  0  0  0  0  0  0  0  # atno 17342 bound_to 10162
  139.7853  143.8296  152.3144 LP  0  0  0  0  0  0  0  0  0  0  0  0  # atno 17343 bound_to 10162
  157.5200  130.7992  149.7798 LP  0  0  0  0  0  0  0  0  0  0  0  0  # atno 17370 bound_to 10713
  156.0079  130.3846  150.2365 LP  0  0  0  0  0  0  0  0  0  0  0  0  # atno 17371 bound_to 10713
  140.9516  133.7447  156.0280 LP  0  0  0  0  0  0  0  0  0  0  0  0  # atno 17394 bound_to 11000
  140.8098  134.3412  157.5415 LP  0  0  0  0  0  0  0  0  0  0  0  0  # atno 17395 bound_to 11000

$$$$
