AV-unprocessed.smi:148|AV-procd|sdf|1205|dock4
  -GOLD-   2262018373D 1   1.00000     0.00000
 Structure written by MMmdl.
 63 67  0  0  0  0  0  0  0  0  1 V2000
  146.0283  132.6284  161.8683 O   0  0  0  0  0  0  0  0  0  0  0  0
  146.9764  132.6641  160.8221 C   0  0  0  0  0  0  0  0  0  0  0  0
  147.0203  134.0667  160.1712 C   0  0  1  0  0  0  0  0  0  0  0  0
  145.6021  134.4933  159.7141 C   0  0  0  0  0  0  0  0  0  0  0  0
  145.4355  134.5022  158.2714 N   0  0  0  0  0  0  0  0  0  0  0  0
  145.3625  133.4055  157.4415 C   0  0  0  0  0  0  0  0  0  0  0  0
  145.2046  133.6764  156.1746 N   0  0  0  0  0  0  0  0  0  0  0  0
  145.1772  135.0643  156.1288 C   0  0  0  0  0  0  0  0  0  0  0  0
  145.0403  136.0138  155.0824 C   0  0  0  0  0  0  0  0  0  0  0  0
  144.8759  135.6359  153.7920 N   0  0  0  0  0  0  0  0  0  0  0  0
  146.0253  134.8215  153.3914 C   0  0  0  0  0  0  0  0  0  0  0  0
  146.0213  134.5299  151.8860 C   0  0  0  0  0  0  0  0  0  0  0  0
  144.6950  133.8844  151.4764 C   0  0  0  0  0  0  0  0  0  0  0  0
  143.5350  134.8009  151.8812 C   0  0  0  0  0  0  0  0  0  0  0  0
  143.5495  135.1175  153.4007 C   0  0  2  0  0  0  0  0  0  0  0  0
  142.3674  136.0455  153.8366 C   0  0  2  0  0  0  0  0  0  0  0  0
  140.9664  135.4629  153.5830 C   0  0  0  0  0  0  0  0  0  0  0  0
  140.0113  136.6638  153.4821 C   0  0  0  0  0  0  0  0  0  0  0  0
  140.8842  137.9213  153.5666 C   0  0  0  0  0  0  0  0  0  0  0  0
  142.2933  137.4476  153.2087 C   0  0  1  0  0  0  0  0  0  0  0  0
  143.2697  138.3315  153.7182 O   0  0  0  0  0  0  0  0  0  0  0  0
  145.0405  137.3321  155.4174 N   0  0  0  0  0  0  0  0  0  0  0  0
  145.1924  137.6968  156.6943 C   0  0  0  0  0  0  0  0  0  0  0  0
  145.3454  136.9228  157.7713 N   0  0  0  0  0  0  0  0  0  0  0  0
  145.3263  135.6004  157.4374 C   0  0  0  0  0  0  0  0  0  0  0  0
  147.7129  135.1403  161.0574 C   0  0  2  0  0  0  0  0  0  0  0  0
  147.0371  135.4344  162.3980 C   0  0  0  0  0  0  0  0  0  0  0  0
  146.9734  136.9610  162.4585 C   0  0  0  0  0  0  0  0  0  0  0  0
  147.9656  137.3897  161.5395 O   0  0  0  0  0  0  0  0  0  0  0  0
  147.8805  136.5247  160.4203 C   0  0  0  0  0  0  0  0  0  0  0  0
  145.2463  132.2028  161.5515 H   0  0  0  0  0  0  0  0  0  0  0  0
  147.9502  132.3848  161.2245 H   0  0  0  0  0  0  0  0  0  0  0  0
  146.6986  131.8943  160.1038 H   0  0  0  0  0  0  0  0  0  0  0  0
  147.6368  133.9823  159.2748 H   0  0  0  0  0  0  0  0  0  0  0  0
  144.8486  133.8231  160.1293 H   0  0  0  0  0  0  0  0  0  0  0  0
  145.3699  135.4894  160.0933 H   0  0  0  0  0  0  0  0  0  0  0  0
  145.4215  132.3908  157.8077 H   0  0  0  0  0  0  0  0  0  0  0  0
  146.9553  135.3283  153.6543 H   0  0  0  0  0  0  0  0  0  0  0  0
  146.0098  133.8818  153.9462 H   0  0  0  0  0  0  0  0  0  0  0  0
  146.1698  135.4574  151.3313 H   0  0  0  0  0  0  0  0  0  0  0  0
  146.8545  133.8751  151.6300 H   0  0  0  0  0  0  0  0  0  0  0  0
  144.6794  133.7088  150.4005 H   0  0  0  0  0  0  0  0  0  0  0  0
  144.5871  132.9112  151.9569 H   0  0  0  0  0  0  0  0  0  0  0  0
  143.6190  135.7196  151.3017 H   0  0  0  0  0  0  0  0  0  0  0  0
  142.5975  134.3332  151.5852 H   0  0  0  0  0  0  0  0  0  0  0  0
  143.4232  134.1691  153.9252 H   0  0  0  0  0  0  0  0  0  0  0  0
  142.4035  136.1902  154.9166 H   0  0  0  0  0  0  0  0  0  0  0  0
  140.9247  134.8994  152.6522 H   0  0  0  0  0  0  0  0  0  0  0  0
  140.6733  134.7788  154.3802 H   0  0  0  0  0  0  0  0  0  0  0  0
  139.4778  136.6346  152.5312 H   0  0  0  0  0  0  0  0  0  0  0  0
  139.2632  136.6525  154.2757 H   0  0  0  0  0  0  0  0  0  0  0  0
  140.5321  138.7212  152.9145 H   0  0  0  0  0  0  0  0  0  0  0  0
  140.8657  138.2994  154.5903 H   0  0  0  0  0  0  0  0  0  0  0  0
  142.3779  137.4043  152.1236 H   0  0  0  0  0  0  0  0  0  0  0  0
  143.2100  139.1494  153.2488 H   0  0  0  0  0  0  0  0  0  0  0  0
  145.1875  138.7607  156.8806 H   0  0  0  0  0  0  0  0  0  0  0  0
  148.7123  134.7890  161.3156 H   0  0  0  0  0  0  0  0  0  0  0  0
  146.0485  134.9898  162.5067 H   0  0  0  0  0  0  0  0  0  0  0  0
  147.6509  135.0477  163.2128 H   0  0  0  0  0  0  0  0  0  0  0  0
  145.9974  137.3185  162.1266 H   0  0  0  0  0  0  0  0  0  0  0  0
  147.1577  137.3511  163.4598 H   0  0  0  0  0  0  0  0  0  0  0  0
  148.7702  136.5926  159.7937 H   0  0  0  0  0  0  0  0  0  0  0  0
  147.0182  136.8130  159.8191 H   0  0  0  0  0  0  0  0  0  0  0  0
  1  2  1  0  0  0  0
  1 31  1  0  0  0  0
  2  3  1  0  0  0  0
  2 32  1  0  0  0  0
  2 33  1  0  0  0  0
  3  4  1  0  0  0  0
  3 26  1  0  0  0  0
  3 34  1  0  0  0  0
  4  5  1  0  0  0  0
  4 35  1  0  0  0  0
  4 36  1  0  0  0  0
  5 25  1  0  0  0  0
  5  6  1  0  0  0  0
  6  7  2  0  0  0  0
  6 37  1  0  0  0  0
  7  8  1  0  0  0  0
  8 25  2  0  0  0  0
  8  9  1  0  0  0  0
  9 10  1  0  0  0  0
  9 22  2  0  0  0  0
 10 15  1  0  0  0  0
 10 11  1  0  0  0  0
 11 12  1  0  0  0  0
 11 38  1  0  0  0  0
 11 39  1  0  0  0  0
 12 13  1  0  0  0  0
 12 40  1  0  0  0  0
 12 41  1  0  0  0  0
 13 14  1  0  0  0  0
 13 42  1  0  0  0  0
 13 43  1  0  0  0  0
 14 15  1  0  0  0  0
 14 44  1  0  0  0  0
 14 45  1  0  0  0  0
 15 16  1  0  0  0  0
 15 46  1  0  0  0  0
 16 20  1  0  0  0  0
 16 17  1  0  0  0  0
 16 47  1  0  0  0  0
 17 18  1  0  0  0  0
 17 48  1  0  0  0  0
 17 49  1  0  0  0  0
 18 19  1  0  0  0  0
 18 50  1  0  0  0  0
 18 51  1  0  0  0  0
 19 20  1  0  0  0  0
 19 52  1  0  0  0  0
 19 53  1  0  0  0  0
 20 21  1  0  0  0  0
 20 54  1  0  0  0  0
 21 55  1  0  0  0  0
 22 23  1  0  0  0  0
 23 24  2  0  0  0  0
 23 56  1  0  0  0  0
 24 25  1  0  0  0  0
 26 30  1  0  0  0  0
 26 27  1  0  0  0  0
 26 57  1  0  0  0  0
 27 28  1  0  0  0  0
 27 58  1  0  0  0  0
 27 59  1  0  0  0  0
 28 29  1  0  0  0  0
 28 60  1  0  0  0  0
 28 61  1  0  0  0  0
 29 30  1  0  0  0  0
 30 62  1  0  0  0  0
 30 63  1  0  0  0  0
M  END
> <s_m_source_file>
AV-unprocessed.smi

> <i_m_source_file_index>
148

> <i_lp_mmshare_version>
43012

> <i_f3d_flags>
0

> <s_epik_input>
W0NIMl0xT1tDSDJdW0NIMl1bQ0BIXTFbQ0BIXShbQ0gyXVtPSF0pW0NIMl1uKFtjSF1uMiljKGMyMyluW2NIXW5jM040W0NIMl1bQ0gyXVtDSDJdW0NIMl1bQ0BIXTRbQ0BASF01W0NIMl1bQ0gyXVtDSDJdW0NASF01W09IXQ==

> <s_epik_cmdline>
J2VwaWtfcHl0aG9uJywgJy1waCcsICc3LjAnLCAnLXRuJywgJzgnLCAnLW1hJywgJzIwMCcsICctbWV0YWxfYmluZGluZycsICctaW1hZScsICc8aW5maWxlLm1hZT4nLCAnLW9tYWUnLCAnPG91dGZpbGUubWFlPic=

> <r_lp_tautomer_probability>
1

> <r_epik_Ionization_Penalty>
0.00556303

> <r_epik_Ionization_Penalty_Charging>
0

> <r_epik_Ionization_Penalty_Neutral>
0.00556303

> <r_epik_State_Penalty>
0.00401767

> <r_epik_Charging_Adjusted_Penalty>
0.00401767

> <i_epik_Tot_Q>
0

> <i_epik_Tot_abs_Q>
0

> <r_epik_Metal_State_Penalty>
-0

> <b_epik_Metal_Only>
0

> <s_lp_Force_Field>
OPLS_2005

> <r_lp_Energy>
67.6364

> <b_lp_Chiralities_Consistent>
1

> <s_lp_Variant>
AV-unprocessed.smi:148-4

> <Gold.Version>
5.8.1

> <Gold.Id.Protein>
6NUR|6NUR_protein|mol2

> <Gold.PLP.Fitness>
43.9056

> <Gold.PLP.PLP>
-37.7915

> <Gold.PLP.part.hbond>
-2.6494

> <Gold.PLP.part.metal>
0.0000

> <Gold.PLP.part.buried>
-5.6149

> <Gold.PLP.part.nonpolar>
-29.1508

> <Gold.PLP.part.repulsive>
0.1651

> <Gold.PLP.ligand.clash>
0.0000

> <Gold.PLP.ligand.torsion>
1.1324

> <Gold.PLP.Chemscore.Hbond>
2.5616

> <Gold.PLP.Chemscore.CHOScore>
0.0000

> <Gold.PLP.Chemscore.Metal>
0.0000

> <Gold.Chemscore.Hbonds>
donor molecule, donor type, donor heavy atom, donor atom, acceptor molecule, acceptor atom, score
      L1  H    21    55       P1 10175  1.00
      P1  H  6931  6943       L1    29  0.71
      P1  H  6934  6947       L1    29  0.59

> <Gold.PLP.Chemscore.Internal.Correction>
0.6942

> <Gold.Rescore>
     Score         DG    S(hbond)    S(metal)    S(lipo)     H(rot)  DE(clash)    DE(int)     intcor
     12.49     -15.22       2.20        0.00      93.03       3.32       0.07       2.66       ----

> <Gold.Chemscore.Fitness>
12.4881

> <Gold.Chemscore.DG>
-15.2184

> <Gold.Chemscore.ZeroCoef>
-5.4800

> <Gold.Chemscore.Hbond>
2.2016

> <Gold.Chemscore.Metal>
0.0000

> <Gold.Chemscore.Lipo>
93.0331

> <Gold.Chemscore.Internal_Hbond>
0.0000

> <Gold.Chemscore.DEClash>
0.0724

> <Gold.Chemscore.DEInternal>
2.6579

> <Gold.Chemscore.Rot>
3.3203

> <Gold.Chemscore.Internal.Correction>
   9.000000E+99

> <Gold.Chemscore.Hbonds>
donor molecule, donor type, donor heavy atom, donor atom, acceptor molecule, acceptor atom, score
      L1  H    21    55       P1 10175  0.96
      P1  H  6931  6943       L1    29  0.66
      P1  H  6934  6947       L1    29  0.08

> <Gold.Chemscore.Hbond.Weighted>
-7.3535

> <Gold.Chemscore.Metal.Weighted>
-0.0000

> <Gold.Chemscore.Lipo.Weighted>
-10.8849

> <Gold.Chemscore.Internal_Hbond.Weighted>
0.0000

> <Gold.Chemscore.DEClash.Weighted>
0.0724

> <Gold.Chemscore.DEInternal.Weighted>
2.6579

> <Gold.Chemscore.Rot.Weighted>
8.5000

> <Gold.Chemscore.Internal.Correction.Weighted>
   9.000000E+99

> <Gold.Protein.RotatedTorsions>
[ 6907 6896 6895 6894 ] final    8.34 input  -60.11 | X-H torsion
[ 7974 7965 7964 7962 ] final   52.88 input  175.53 | X-H torsion
[ 8008 7997 7996 7995 ] final   13.75 input   59.86 | X-H torsion
[ 10167 10162 10161 10158 ] final  -40.51 input  -65.29 | X-H torsion
[ 10718 10713 10712 10709 ] final  167.29 input   66.30 | X-H torsion
[ 10763 10752 10751 10750 ] final   39.50 input  -60.55 | X-H torsion
[ 11005 11000 10999 10996 ] final  -85.48 input  -57.11 | X-H torsion

> <Gold.Protein.ActiveResidues>
 VAL166  LYS551  ARG553  GLY616  TRP617  ASP618  TYR619  PRO620  LYS621  CYS622 
 ASP623  PHE694  ASN695  SER759  ASP760  ASP761  ALA762  ILE779  LEU786  VAL792 
 PHE793  MET794  SER795  GLU796  ALA797  LYS798  CYS799  TRP800  GLU811  SER814 

> <Gold.Protein.RotatedAtoms>
  151.7045  135.0924  160.0256 H   0  0  0  0  0  0  0  0  0  0  0  0  # atno 6907 bound_to 6896
  152.3700  133.6402  159.6088 H   0  0  0  0  0  0  0  0  0  0  0  0  # atno 6908 bound_to 6896
  150.7666  133.9202  159.3437 H   0  0  0  0  0  0  0  0  0  0  0  0  # atno 6909 bound_to 6896
  145.9768  139.4203  143.0156 H   0  0  0  0  0  0  0  0  0  0  0  0  # atno 7974 bound_to 7965
  154.8388  140.2911  155.5673 H   0  0  0  0  0  0  0  0  0  0  0  0  # atno 8008 bound_to 7997
  156.3010  140.2518  156.3258 H   0  0  0  0  0  0  0  0  0  0  0  0  # atno 8009 bound_to 7997
  154.9148  140.0387  157.1955 H   0  0  0  0  0  0  0  0  0  0  0  0  # atno 8010 bound_to 7997
  140.7032  143.3149  151.2934 H   0  0  0  0  0  0  0  0  0  0  0  0  # atno 10167 bound_to 10162
  157.0537  131.0320  151.2672 H   0  0  0  0  0  0  0  0  0  0  0  0  # atno 10718 bound_to 10713
  152.9965  135.6219  154.2475 H   0  0  0  0  0  0  0  0  0  0  0  0  # atno 10763 bound_to 10752
  154.2214  135.2796  155.2925 H   0  0  0  0  0  0  0  0  0  0  0  0  # atno 10764 bound_to 10752
  154.5525  135.5729  153.6993 H   0  0  0  0  0  0  0  0  0  0  0  0  # atno 10765 bound_to 10752
  141.1641  133.7402  156.9021 H   0  0  0  0  0  0  0  0  0  0  0  0  # atno 11005 bound_to 11000
  145.7827  140.9849  143.1091 LP  0  0  0  0  0  0  0  0  0  0  0  0  # atno 17320 bound_to 7965
  144.6851  139.9584  143.7479 LP  0  0  0  0  0  0  0  0  0  0  0  0  # atno 17321 bound_to 7965
  139.6585  144.0233  152.2676 LP  0  0  0  0  0  0  0  0  0  0  0  0  # atno 17342 bound_to 10162
  139.9792  144.6440  150.7916 LP  0  0  0  0  0  0  0  0  0  0  0  0  # atno 17343 bound_to 10162
  157.5010  130.7880  149.7604 LP  0  0  0  0  0  0  0  0  0  0  0  0  # atno 17370 bound_to 10713
  156.0000  130.3886  150.2645 LP  0  0  0  0  0  0  0  0  0  0  0  0  # atno 17371 bound_to 10713
  140.1575  134.9188  157.2672 LP  0  0  0  0  0  0  0  0  0  0  0  0  # atno 17394 bound_to 11000
  140.2650  134.3527  155.7393 LP  0  0  0  0  0  0  0  0  0  0  0  0  # atno 17395 bound_to 11000

$$$$
