AV-unprocessed.smi:3316|AV-procd|sdf|12755|dock1
  -GOLD-   2272019 93D 1   1.00000     0.00000
 Structure written by MMmdl.
 41 43  0  0  0  0  0  0  0  0  2 V2000
  148.1462  140.0105  153.9033 C   0  0  0  0  0  0  0  0  0  0  0  0
  149.1517  140.3611  155.0110 C   0  0  2  0  0  0  0  0  0  0  0  0
  149.3996  141.8805  155.0873 C   0  0  0  0  0  0  0  0  0  0  0  0
  149.4923  142.3469  156.4863 N   0  3  0  0  0  0  0  0  0  0  0  0
  150.8684  142.3931  157.0182 C   0  0  0  0  0  0  0  0  0  0  0  0
  150.9040  143.0137  158.4349 C   0  0  1  0  0  0  0  0  0  0  0  0
  152.1660  142.6210  159.2721 C   0  0  0  0  0  0  0  0  0  0  0  0
  152.7806  143.9879  159.6496 C   0  0  2  0  0  0  0  0  0  0  0  0
  151.8116  144.7005  160.5683 C   0  0  0  0  0  0  0  0  0  0  0  0
  150.7531  145.0479  159.8348 C   0  0  0  0  0  0  0  0  0  0  0  0
  151.0049  144.5626  158.4220 C   0  0  1  0  0  0  0  0  0  0  0  0
  152.5255  144.7494  158.3461 C   0  0  0  0  0  0  0  0  0  0  0  0
  150.4483  139.5765  154.8464 C   0  0  0  0  0  0  0  0  0  0  0  0
  150.5885  138.6328  153.8067 C   0  0  0  0  0  0  0  0  0  0  0  0
  151.8013  137.9228  153.6983 C   0  0  0  0  0  0  0  0  0  0  0  0
  152.8396  138.0961  154.5436 N   0  0  0  0  0  0  0  0  0  0  0  0
  152.7024  139.0012  155.5354 C   0  0  0  0  0  0  0  0  0  0  0  0
  151.5332  139.7634  155.7306 C   0  0  0  0  0  0  0  0  0  0  0  0
  147.9330  138.9411  153.8929 H   0  0  0  0  0  0  0  0  0  0  0  0
  148.5222  140.2841  152.9170 H   0  0  0  0  0  0  0  0  0  0  0  0
  147.2001  140.5316  154.0521 H   0  0  0  0  0  0  0  0  0  0  0  0
  148.6997  140.0570  155.9564 H   0  0  0  0  0  0  0  0  0  0  0  0
  150.3163  142.1425  154.5575 H   0  0  0  0  0  0  0  0  0  0  0  0
  148.5864  142.4147  154.5942 H   0  0  0  0  0  0  0  0  0  0  0  0
  149.0909  143.2718  156.5469 H   0  0  0  0  0  0  0  0  0  0  0  0
  151.2716  141.3803  157.0194 H   0  0  0  0  0  0  0  0  0  0  0  0
  151.4899  142.9683  156.3305 H   0  0  0  0  0  0  0  0  0  0  0  0
  150.0044  142.7225  158.9813 H   0  0  0  0  0  0  0  0  0  0  0  0
  151.9047  142.0364  160.1552 H   0  0  0  0  0  0  0  0  0  0  0  0
  152.8832  142.0357  158.6958 H   0  0  0  0  0  0  0  0  0  0  0  0
  153.8153  143.9761  159.9926 H   0  0  0  0  0  0  0  0  0  0  0  0
  151.9642  144.8554  161.6262 H   0  0  0  0  0  0  0  0  0  0  0  0
  149.8537  145.5462  160.1654 H   0  0  0  0  0  0  0  0  0  0  0  0
  150.4273  145.0848  157.6588 H   0  0  0  0  0  0  0  0  0  0  0  0
  152.8299  145.7970  158.3987 H   0  0  0  0  0  0  0  0  0  0  0  0
  152.9885  144.2932  157.4689 H   0  0  0  0  0  0  0  0  0  0  0  0
  149.7892  138.4525  153.1027 H   0  0  0  0  0  0  0  0  0  0  0  0
  151.9396  137.1944  152.9132 H   0  0  0  0  0  0  0  0  0  0  0  0
  153.5485  139.1205  156.1960 H   0  0  0  0  0  0  0  0  0  0  0  0
  151.4782  140.4743  156.5419 H   0  0  0  0  0  0  0  0  0  0  0  0
  148.9495  141.7217  157.0652 H   0  0  0  0  0  0  0  0  0  0  0  0
  1  2  1  0  0  0  0
  1 19  1  0  0  0  0
  1 20  1  0  0  0  0
  1 21  1  0  0  0  0
  2  3  1  0  0  0  0
  2 13  1  0  0  0  0
  2 22  1  0  0  0  0
  3  4  1  0  0  0  0
  3 23  1  0  0  0  0
  3 24  1  0  0  0  0
  4  5  1  0  0  0  0
  4 25  1  0  0  0  0
  4 41  1  0  0  0  0
  5  6  1  0  0  0  0
  5 26  1  0  0  0  0
  5 27  1  0  0  0  0
  6 11  1  0  0  0  0
  6  7  1  0  0  0  0
  6 28  1  0  0  0  0
  7  8  1  0  0  0  0
  7 29  1  0  0  0  0
  7 30  1  0  0  0  0
  8 12  1  0  0  0  0
  8  9  1  0  0  0  0
  8 31  1  0  0  0  0
  9 10  2  0  0  0  0
  9 32  1  0  0  0  0
 10 11  1  0  0  0  0
 10 33  1  0  0  0  0
 11 12  1  0  0  0  0
 11 34  1  0  0  0  0
 12 35  1  0  0  0  0
 12 36  1  0  0  0  0
 13 18  1  0  0  0  0
 13 14  2  0  0  0  0
 14 15  1  0  0  0  0
 14 37  1  0  0  0  0
 15 16  2  0  0  0  0
 15 38  1  0  0  0  0
 16 17  1  0  0  0  0
 17 18  2  0  0  0  0
 17 39  1  0  0  0  0
 18 40  1  0  0  0  0
M  CHG  1   4   1
M  END
> <s_m_source_file>
AV-unprocessed.smi

> <i_m_source_file_index>
3316

> <i_lp_mmshare_version>
43012

> <i_f3d_flags>
0

> <s_epik_input>
W2NIXTFbY0hdbltjSF1bY0hdYzFbQ0BIXShbQ0gzXSlbQ0gyXVtOSF1bQ0gyXVtDQEhdKFtDSDJdW0NASF0yMylbQ0BIXShbQ0gyXTMpW0NIXT1bQ0hdMg==

> <s_epik_cmdline>
J2VwaWtfcHl0aG9uJywgJy1waCcsICc3LjAnLCAnLXRuJywgJzgnLCAnLW1hJywgJzIwMCcsICctbWV0YWxfYmluZGluZycsICctaW1hZScsICc8aW5maWxlLm1hZT4nLCAnLW9tYWUnLCAnPG91dGZpbGUubWFlPic=

> <r_lp_tautomer_probability>
1

> <r_epik_Ionization_Penalty>
0.00280406

> <r_epik_Ionization_Penalty_Charging>
0.000446589

> <r_epik_Ionization_Penalty_Neutral>
0.00235747

> <r_epik_State_Penalty>
-0

> <r_epik_Charging_Adjusted_Penalty>
0.000446589

> <i_epik_Tot_Q>
1

> <i_epik_Tot_abs_Q>
1

> <r_epik_Metal_State_Penalty>
-0

> <b_epik_Metal_Only>
0

> <s_lp_Force_Field>
OPLS_2005

> <r_lp_Energy>
68.7939

> <b_lp_Chiralities_Consistent>
1

> <s_lp_Variant>
AV-unprocessed.smi:3316-3

> <Gold.Version>
5.8.1

> <Gold.Id.Protein>
6NUR|6NUR_protein|mol2

> <Gold.PLP.Fitness>
54.2735

> <Gold.PLP.PLP>
-46.9024

> <Gold.PLP.part.hbond>
-1.9178

> <Gold.PLP.part.metal>
0.0000

> <Gold.PLP.part.buried>
-2.3176

> <Gold.PLP.part.nonpolar>
-43.7216

> <Gold.PLP.part.repulsive>
0.1114

> <Gold.PLP.ligand.clash>
0.0000

> <Gold.PLP.ligand.torsion>
1.0674

> <Gold.PLP.Chemscore.Hbond>
2.1165

> <Gold.PLP.Chemscore.CHOScore>
1.0000

> <Gold.PLP.Chemscore.Metal>
0.0000

> <Gold.Chemscore.Hbonds>
donor molecule, donor type, donor heavy atom, donor atom, acceptor molecule, acceptor atom, score
      L1  H     4    25       P1  8028  1.73
      L1  C    15    38       P1  7949  0.95

> <Gold.PLP.Chemscore.Internal.Correction>
0.1564

> <Gold.Rescore>
     Score         DG    S(hbond)    S(metal)    S(lipo)     H(rot)  DE(clash)    DE(int)     intcor
     22.86     -24.05       1.68        0.00     140.56       1.36       0.08       1.11       ----

> <Gold.Chemscore.Fitness>
22.8632

> <Gold.Chemscore.DG>
-24.0527

> <Gold.Chemscore.ZeroCoef>
-5.4800

> <Gold.Chemscore.Hbond>
1.6824

> <Gold.Chemscore.Metal>
0.0000

> <Gold.Chemscore.Lipo>
140.5591

> <Gold.Chemscore.Internal_Hbond>
0.0000

> <Gold.Chemscore.DEClash>
0.0815

> <Gold.Chemscore.DEInternal>
1.1080

> <Gold.Chemscore.Rot>
1.3640

> <Gold.Chemscore.Internal.Correction>
   9.000000E+99

> <Gold.Chemscore.Hbonds>
donor molecule, donor type, donor heavy atom, donor atom, acceptor molecule, acceptor atom, score
      L1  H     4    25       P1  8028  0.83

> <Gold.Chemscore.Hbond.Weighted>
-5.6192

> <Gold.Chemscore.Metal.Weighted>
-0.0000

> <Gold.Chemscore.Lipo.Weighted>
-16.4454

> <Gold.Chemscore.Internal_Hbond.Weighted>
0.0000

> <Gold.Chemscore.DEClash.Weighted>
0.0815

> <Gold.Chemscore.DEInternal.Weighted>
1.1080

> <Gold.Chemscore.Rot.Weighted>
3.4919

> <Gold.Chemscore.Internal.Correction.Weighted>
   9.000000E+99

> <Gold.Protein.RotatedTorsions>
[ 6907 6896 6895 6894 ] final -109.47 input  -60.11 | X-H torsion
[ 7974 7965 7964 7962 ] final -113.99 input  175.53 | X-H torsion
[ 8008 7997 7996 7995 ] final   13.97 input   59.86 | X-H torsion
[ 10167 10162 10161 10158 ] final -179.88 input  -65.29 | X-H torsion
[ 10718 10713 10712 10709 ] final -149.14 input   66.30 | X-H torsion
[ 10763 10752 10751 10750 ] final -165.29 input  -60.55 | X-H torsion
[ 11005 11000 10999 10996 ] final -168.84 input  -57.11 | X-H torsion

> <Gold.Protein.ActiveResidues>
 VAL166  LYS551  ARG553  GLY616  TRP617  ASP618  TYR619  PRO620  LYS621  CYS622 
 ASP623  PHE694  ASN695  SER759  ASP760  ASP761  ALA762  ILE779  LEU786  VAL792 
 PHE793  MET794  SER795  GLU796  ALA797  LYS798  CYS799  TRP800  GLU811  SER814 

> <Gold.Protein.RotatedAtoms>
  150.7564  133.9525  159.3489 H   0  0  0  0  0  0  0  0  0  0  0  0  # atno 6907 bound_to 6896
  151.7443  135.0845  160.0330 H   0  0  0  0  0  0  0  0  0  0  0  0  # atno 6908 bound_to 6896
  152.3508  133.6140  159.5979 H   0  0  0  0  0  0  0  0  0  0  0  0  # atno 6909 bound_to 6896
  145.1255  140.8694  143.3789 H   0  0  0  0  0  0  0  0  0  0  0  0  # atno 7974 bound_to 7965
  154.8420  140.2916  155.5653 H   0  0  0  0  0  0  0  0  0  0  0  0  # atno 8008 bound_to 7997
  156.3012  140.2512  156.3295 H   0  0  0  0  0  0  0  0  0  0  0  0  # atno 8009 bound_to 7997
  154.9115  140.0388  157.1938 H   0  0  0  0  0  0  0  0  0  0  0  0  # atno 8010 bound_to 7997
  139.5366  144.2479  152.0808 H   0  0  0  0  0  0  0  0  0  0  0  0  # atno 10167 bound_to 10162
  156.4294  130.8068  151.2294 H   0  0  0  0  0  0  0  0  0  0  0  0  # atno 10718 bound_to 10713
  154.6946  135.2977  154.9430 H   0  0  0  0  0  0  0  0  0  0  0  0  # atno 10763 bound_to 10752
  154.0382  135.6661  153.4791 H   0  0  0  0  0  0  0  0  0  0  0  0  # atno 10764 bound_to 10752
  153.0637  135.5101  154.8057 H   0  0  0  0  0  0  0  0  0  0  0  0  # atno 10765 bound_to 10752
  140.5375  134.5556  157.5091 H   0  0  0  0  0  0  0  0  0  0  0  0  # atno 11005 bound_to 11000
  145.0693  139.3044  143.5840 LP  0  0  0  0  0  0  0  0  0  0  0  0  # atno 17320 bound_to 7965
  146.3518  140.0162  142.8662 LP  0  0  0  0  0  0  0  0  0  0  0  0  # atno 17321 bound_to 7965
  140.1951  144.4713  150.6459 LP  0  0  0  0  0  0  0  0  0  0  0  0  # atno 17342 bound_to 10162
  140.6576  143.2242  151.5932 LP  0  0  0  0  0  0  0  0  0  0  0  0  # atno 17343 bound_to 10162
  157.7508  131.0203  150.3703 LP  0  0  0  0  0  0  0  0  0  0  0  0  # atno 17370 bound_to 10713
  156.4037  130.3921  149.6941 LP  0  0  0  0  0  0  0  0  0  0  0  0  # atno 17371 bound_to 10713
  139.9521  134.7598  156.0423 LP  0  0  0  0  0  0  0  0  0  0  0  0  # atno 17394 bound_to 11000
  141.1246  133.6603  156.3304 LP  0  0  0  0  0  0  0  0  0  0  0  0  # atno 17395 bound_to 11000

$$$$
