AV-unprocessed.smi:2928|AV-procd|sdf|11237|dock3
  -GOLD-   2272016133D 1   1.00000     0.00000
 Structure written by MMmdl.
 56 59  0  0  0  0  0  0  0  0  3 V2000
  144.6326  134.1585  162.4072 C   0  0  0  0  0  0  0  0  0  0  0  0
  144.3550  133.7407  161.0121 N   0  3  2  0  0  0  0  0  0  0  0  0
  143.7015  134.7732  160.1714 C   0  0  2  0  0  0  0  0  0  0  0  0
  142.2341  135.0117  160.6111 C   0  0  0  0  0  0  0  0  0  0  0  0
  141.3928  133.7255  160.7209 C   0  0  0  0  0  0  0  0  0  0  0  0
  142.1736  132.5623  161.3615 C   0  0  0  0  0  0  0  0  0  0  0  0
  143.6412  132.4473  160.8779 C   0  0  1  0  0  0  0  0  0  0  0  0
  143.8066  131.9308  159.4291 C   0  0  0  0  0  0  0  0  0  0  0  0
  143.4180  132.9560  158.3326 C   0  0  2  0  0  0  0  0  0  0  0  0
  143.9984  132.5671  157.0489 N   0  0  0  0  0  0  0  0  0  0  0  0
  145.3106  132.4528  156.7969 C   0  0  0  0  0  0  0  0  0  0  0  0
  146.1873  132.6861  157.6288 O   0  0  0  0  0  0  0  0  0  0  0  0
  145.5336  132.0756  155.5269 N   0  0  0  0  0  0  0  0  0  0  0  0
  146.7886  131.8766  154.8845 C   0  0  0  0  0  0  0  0  0  0  0  0
  147.9680  131.6455  155.6385 C   0  0  0  0  0  0  0  0  0  0  0  0
  149.1821  131.3760  154.9795 C   0  0  0  0  0  0  0  0  0  0  0  0
  149.1967  131.3248  153.5753 C   0  0  0  0  0  0  0  0  0  0  0  0
  148.0566  131.5375  152.8866 N   0  3  0  0  0  0  0  0  0  0  0  0
  146.8602  131.8172  153.4621 C   0  0  0  0  0  0  0  0  0  0  0  0
  145.7521  132.0327  152.6113 N   0  0  0  0  0  0  0  0  0  0  0  0
  145.2134  130.9404  151.8088 C   0  0  0  0  0  0  0  0  0  0  0  0
  144.3066  131.6131  150.7820 C   0  0  0  0  0  0  0  0  0  0  0  0
  145.0417  132.9204  150.5017 C   0  0  0  0  0  0  0  0  0  0  0  0
  145.6787  133.2756  151.8492 C   0  0  0  0  0  0  0  0  0  0  0  0
  143.8799  134.3903  158.6838 C   0  0  0  0  0  0  0  0  0  0  0  0
  143.7213  134.3606  162.9692 H   0  0  0  0  0  0  0  0  0  0  0  0
  145.2421  135.0624  162.4176 H   0  0  0  0  0  0  0  0  0  0  0  0
  145.1881  133.3817  162.9334 H   0  0  0  0  0  0  0  0  0  0  0  0
  144.2398  135.7112  160.3162 H   0  0  0  0  0  0  0  0  0  0  0  0
  142.2352  135.5050  161.5834 H   0  0  0  0  0  0  0  0  0  0  0  0
  141.7478  135.7137  159.9328 H   0  0  0  0  0  0  0  0  0  0  0  0
  140.4967  133.9279  161.3084 H   0  0  0  0  0  0  0  0  0  0  0  0
  141.0141  133.4345  159.7448 H   0  0  0  0  0  0  0  0  0  0  0  0
  142.1695  132.6994  162.4432 H   0  0  0  0  0  0  0  0  0  0  0  0
  141.6460  131.6238  161.1880 H   0  0  0  0  0  0  0  0  0  0  0  0
  144.1395  131.7228  161.5239 H   0  0  0  0  0  0  0  0  0  0  0  0
  144.8555  131.6611  159.2952 H   0  0  0  0  0  0  0  0  0  0  0  0
  143.2454  131.0053  159.2942 H   0  0  0  0  0  0  0  0  0  0  0  0
  142.3381  132.9630  158.2070 H   0  0  0  0  0  0  0  0  0  0  0  0
  143.3515  132.3573  156.3026 H   0  0  0  0  0  0  0  0  0  0  0  0
  144.7230  132.0188  154.9276 H   0  0  0  0  0  0  0  0  0  0  0  0
  147.9553  131.6476  156.7180 H   0  0  0  0  0  0  0  0  0  0  0  0
  150.0852  131.1980  155.5448 H   0  0  0  0  0  0  0  0  0  0  0  0
  150.0777  131.1177  152.9851 H   0  0  0  0  0  0  0  0  0  0  0  0
  146.0171  130.4113  151.2950 H   0  0  0  0  0  0  0  0  0  0  0  0
  144.6671  130.2247  152.4239 H   0  0  0  0  0  0  0  0  0  0  0  0
  144.1533  131.0078  149.8881 H   0  0  0  0  0  0  0  0  0  0  0  0
  143.3308  131.8217  151.2231 H   0  0  0  0  0  0  0  0  0  0  0  0
  145.8229  132.7490  149.7596 H   0  0  0  0  0  0  0  0  0  0  0  0
  144.3860  133.7053  150.1235 H   0  0  0  0  0  0  0  0  0  0  0  0
  145.0426  133.9791  152.3867 H   0  0  0  0  0  0  0  0  0  0  0  0
  146.6587  133.7361  151.7152 H   0  0  0  0  0  0  0  0  0  0  0  0
  143.3731  135.1138  158.0439 H   0  0  0  0  0  0  0  0  0  0  0  0
  144.9419  134.4815  158.4489 H   0  0  0  0  0  0  0  0  0  0  0  0
  145.2672  133.5932  160.6046 H   0  0  0  0  0  0  0  0  0  0  0  0
  148.0997  131.4932  151.8683 H   0  0  0  0  0  0  0  0  0  0  0  0
  1  2  1  0  0  0  0
  1 26  1  0  0  0  0
  1 27  1  0  0  0  0
  1 28  1  0  0  0  0
  2  7  1  0  0  0  0
  2  3  1  0  0  0  0
  2 55  1  0  0  0  0
  3 25  1  0  0  0  0
  3  4  1  0  0  0  0
  3 29  1  0  0  0  0
  4  5  1  0  0  0  0
  4 30  1  0  0  0  0
  4 31  1  0  0  0  0
  5  6  1  0  0  0  0
  5 32  1  0  0  0  0
  5 33  1  0  0  0  0
  6  7  1  0  0  0  0
  6 34  1  0  0  0  0
  6 35  1  0  0  0  0
  7  8  1  0  0  0  0
  7 36  1  0  0  0  0
  8  9  1  0  0  0  0
  8 37  1  0  0  0  0
  8 38  1  0  0  0  0
  9 10  1  0  0  0  0
  9 25  1  0  0  0  0
  9 39  1  0  0  0  0
 10 11  1  0  0  0  0
 10 40  1  0  0  0  0
 11 12  2  0  0  0  0
 11 13  1  0  0  0  0
 13 14  1  0  0  0  0
 13 41  1  0  0  0  0
 14 19  1  0  0  0  0
 14 15  2  0  0  0  0
 15 16  1  0  0  0  0
 15 42  1  0  0  0  0
 16 17  2  0  0  0  0
 16 43  1  0  0  0  0
 17 18  1  0  0  0  0
 17 44  1  0  0  0  0
 18 19  2  0  0  0  0
 18 56  1  0  0  0  0
 19 20  1  0  0  0  0
 20 24  1  0  0  0  0
 20 21  1  0  0  0  0
 21 22  1  0  0  0  0
 21 45  1  0  0  0  0
 21 46  1  0  0  0  0
 22 23  1  0  0  0  0
 22 47  1  0  0  0  0
 22 48  1  0  0  0  0
 23 24  1  0  0  0  0
 23 49  1  0  0  0  0
 23 50  1  0  0  0  0
 24 51  1  0  0  0  0
 24 52  1  0  0  0  0
 25 53  1  0  0  0  0
 25 54  1  0  0  0  0
M  CHG  1   2   1
M  CHG  1  18   1
M  END
> <s_m_source_file>
AV-unprocessed.smi

> <i_m_source_file_index>
2928

> <i_lp_mmshare_version>
43012

> <i_f3d_flags>
0

> <s_epik_input>
W0NIMl0xW0NIMl1bQ0gyXVtDQEhdKE4oW0NIM10pW0NIXTEyKVtDSDJdW0NASF0oW0NIMl0yKVtOSF1DKD1PKVtOSF1jM1tjSF1bY0hdW2NIXW5jM040W0NIMl1bQ0gyXVtDSDJdW0NIMl00

> <s_epik_cmdline>
J2VwaWtfcHl0aG9uJywgJy1waCcsICc3LjAnLCAnLXRuJywgJzgnLCAnLW1hJywgJzIwMCcsICctbWV0YWxfYmluZGluZycsICctaW1hZScsICc8aW5maWxlLm1hZT4nLCAnLW9tYWUnLCAnPG91dGZpbGUubWFlPic=

> <r_lp_tautomer_probability>
0.999994

> <r_epik_Ionization_Penalty>
1.2404

> <r_epik_Ionization_Penalty_Charging>
1.24038

> <r_epik_Ionization_Penalty_Neutral>
1.86539e-05

> <r_epik_State_Penalty>
1.30821

> <r_epik_Charging_Adjusted_Penalty>
2.54859

> <i_epik_Tot_Q>
2

> <i_epik_Tot_abs_Q>
2

> <r_epik_Metal_State_Penalty>
1.3782

> <b_epik_Metal_Only>
0

> <s_lp_Force_Field>
OPLS_2005

> <r_lp_Energy>
72.5254

> <b_lp_Chiralities_Consistent>
1

> <s_lp_Variant>
AV-unprocessed.smi:2928-7

> <Gold.Version>
5.8.1

> <Gold.Id.Protein>
6NUR|6NUR_protein|mol2

> <Gold.PLP.Fitness>
36.2555

> <Gold.PLP.PLP>
-27.7318

> <Gold.PLP.part.hbond>
-3.0000

> <Gold.PLP.part.metal>
0.0000

> <Gold.PLP.part.buried>
-6.1291

> <Gold.PLP.part.nonpolar>
-19.5831

> <Gold.PLP.part.repulsive>
0.1748

> <Gold.PLP.ligand.clash>
0.0000

> <Gold.PLP.ligand.torsion>
0.2735

> <Gold.PLP.Chemscore.Hbond>
2.8971

> <Gold.PLP.Chemscore.CHOScore>
0.0000

> <Gold.PLP.Chemscore.Metal>
0.0000

> <Gold.Chemscore.Hbonds>
donor molecule, donor type, donor heavy atom, donor atom, acceptor molecule, acceptor atom, score
      L1  H    10    40       P1 10957  1.00
      L1  H    13    41       P1 10957  0.89
      L1  H    18    56       P1 10747  0.96

> <Gold.PLP.Chemscore.Internal.Correction>
0.3794

> <Gold.Rescore>
     Score         DG    S(hbond)    S(metal)    S(lipo)     H(rot)  DE(clash)    DE(int)     intcor
     17.19     -19.89       2.44        0.00      79.51       1.19       0.01       2.69       ----

> <Gold.Chemscore.Fitness>
17.1918

> <Gold.Chemscore.DG>
-19.8860

> <Gold.Chemscore.ZeroCoef>
-5.4800

> <Gold.Chemscore.Hbond>
2.4383

> <Gold.Chemscore.Metal>
0.0000

> <Gold.Chemscore.Lipo>
79.5148

> <Gold.Chemscore.Internal_Hbond>
0.0000

> <Gold.Chemscore.DEClash>
0.0073

> <Gold.Chemscore.DEInternal>
2.6869

> <Gold.Chemscore.Rot>
1.1879

> <Gold.Chemscore.Internal.Correction>
   9.000000E+99

> <Gold.Chemscore.Hbonds>
donor molecule, donor type, donor heavy atom, donor atom, acceptor molecule, acceptor atom, score
      L1  H    10    40       P1 10957  1.00
      L1  H    13    41       P1 10957  0.33
      L1  H    18    56       P1 10747  0.92

> <Gold.Chemscore.Hbond.Weighted>
-8.1439

> <Gold.Chemscore.Metal.Weighted>
-0.0000

> <Gold.Chemscore.Lipo.Weighted>
-9.3032

> <Gold.Chemscore.Internal_Hbond.Weighted>
0.0000

> <Gold.Chemscore.DEClash.Weighted>
0.0073

> <Gold.Chemscore.DEInternal.Weighted>
2.6869

> <Gold.Chemscore.Rot.Weighted>
3.0410

> <Gold.Chemscore.Internal.Correction.Weighted>
   9.000000E+99

> <Gold.Protein.RotatedTorsions>
[ 6907 6896 6895 6894 ] final   18.60 input  -60.11 | X-H torsion
[ 7974 7965 7964 7962 ] final  100.83 input  175.53 | X-H torsion
[ 8008 7997 7996 7995 ] final    7.37 input   59.86 | X-H torsion
[ 10167 10162 10161 10158 ] final  158.54 input  -65.29 | X-H torsion
[ 10718 10713 10712 10709 ] final   91.22 input   66.30 | X-H torsion
[ 10763 10752 10751 10750 ] final -136.92 input  -60.55 | X-H torsion
[ 11005 11000 10999 10996 ] final   53.08 input  -57.11 | X-H torsion

> <Gold.Protein.ActiveResidues>
 VAL166  LYS551  ARG553  GLY616  TRP617  ASP618  TYR619  PRO620  LYS621  CYS622 
 ASP623  PHE694  ASN695  SER759  ASP760  ASP761  ALA762  ILE779  LEU786  VAL792 
 PHE793  MET794  SER795  GLU796  ALA797  LYS798  CYS799  TRP800  GLU811  SER814 

> <Gold.Protein.RotatedAtoms>
  151.8679  135.0500  160.0475 H   0  0  0  0  0  0  0  0  0  0  0  0  # atno 6907 bound_to 6896
  152.2612  133.5294  159.5391 H   0  0  0  0  0  0  0  0  0  0  0  0  # atno 6908 bound_to 6896
  150.7117  134.0744  159.3918 H   0  0  0  0  0  0  0  0  0  0  0  0  # atno 6909 bound_to 6896
  145.3803  139.2381  143.3407 H   0  0  0  0  0  0  0  0  0  0  0  0  # atno 7974 bound_to 7965
  154.7529  140.2770  155.6277 H   0  0  0  0  0  0  0  0  0  0  0  0  # atno 8008 bound_to 7997
  156.2899  140.2675  156.2214 H   0  0  0  0  0  0  0  0  0  0  0  0  # atno 8009 bound_to 7997
  155.0114  140.0372  157.2390 H   0  0  0  0  0  0  0  0  0  0  0  0  # atno 8010 bound_to 7997
  139.4827  144.4815  151.8437 H   0  0  0  0  0  0  0  0  0  0  0  0  # atno 10167 bound_to 10162
  157.6960  131.0399  150.3697 H   0  0  0  0  0  0  0  0  0  0  0  0  # atno 10718 bound_to 10713
  154.8673  135.3658  154.5139 H   0  0  0  0  0  0  0  0  0  0  0  0  # atno 10763 bound_to 10752
  153.5773  135.7019  153.5483 H   0  0  0  0  0  0  0  0  0  0  0  0  # atno 10764 bound_to 10752
  153.3489  135.4077  155.1593 H   0  0  0  0  0  0  0  0  0  0  0  0  # atno 10765 bound_to 10752
  140.0796  134.5356  155.8960 H   0  0  0  0  0  0  0  0  0  0  0  0  # atno 11005 bound_to 11000
  146.2845  140.4470  142.8763 LP  0  0  0  0  0  0  0  0  0  0  0  0  # atno 17320 bound_to 7965
  144.8512  140.7004  143.6167 LP  0  0  0  0  0  0  0  0  0  0  0  0  # atno 17321 bound_to 7965
  140.4292  144.2139  150.5887 LP  0  0  0  0  0  0  0  0  0  0  0  0  # atno 17342 bound_to 10162
  140.4797  143.2383  151.8973 LP  0  0  0  0  0  0  0  0  0  0  0  0  # atno 17343 bound_to 10162
  156.4123  130.3936  149.6883 LP  0  0  0  0  0  0  0  0  0  0  0  0  # atno 17370 bound_to 10713
  156.4163  130.7746  151.2762 LP  0  0  0  0  0  0  0  0  0  0  0  0  # atno 17371 bound_to 10713
  141.2042  133.6637  156.6107 LP  0  0  0  0  0  0  0  0  0  0  0  0  # atno 17394 bound_to 11000
  140.3506  134.7771  157.4464 LP  0  0  0  0  0  0  0  0  0  0  0  0  # atno 17395 bound_to 11000

$$$$
