AV-unprocessed.smi:1006|AV-procd|sdf|4392|dock9
  -GOLD-   22720 2323D 1   1.00000     0.00000
 Structure written by MMmdl.
 46 48  0  0  0  0  0  0  0  0  2 V2000
  141.7211  142.5750  155.4927 C   0  0  0  0  0  0  0  0  0  0  0  0
  143.2070  142.7451  155.7282 C   0  0  0  0  0  0  0  0  0  0  0  0
  143.7165  143.6907  156.6413 C   0  0  0  0  0  0  0  0  0  0  0  0
  145.1146  143.7541  156.7748 C   0  0  0  0  0  0  0  0  0  0  0  0
  145.7095  144.6545  157.6547 N   0  0  0  0  0  0  0  0  0  0  0  0
  145.9270  142.9495  156.0616 N   0  0  0  0  0  0  0  0  0  0  0  0
  145.3773  142.0734  155.2104 C   0  0  0  0  0  0  0  0  0  0  0  0
  146.4295  140.9830  154.2689 S   0  0  0  0  0  0  0  0  0  0  0  0
  148.0348  141.8396  154.3224 C   0  0  0  0  0  0  0  0  0  0  0  0
  148.8714  141.4195  155.5416 C   0  0  2  0  0  0  0  0  0  0  0  0
  148.2896  141.9673  156.7094 O   0  0  0  0  0  0  0  0  0  0  0  0
  150.3355  141.8847  155.4234 C   0  0  0  0  0  0  0  0  0  0  0  0
  151.1842  141.3236  156.4599 N   0  0  0  0  0  0  0  0  0  0  0  0
  151.7719  140.1117  156.4584 C   0  0  0  0  0  0  0  0  0  0  0  0
  152.5131  139.7925  157.5154 N   0  0  0  0  0  0  0  0  0  0  0  0
  152.3939  140.9314  158.2934 C   0  0  0  0  0  0  0  0  0  0  0  0
  152.9464  141.2410  159.5555 C   0  0  0  0  0  0  0  0  0  0  0  0
  152.6897  142.4855  160.1739 C   0  0  0  0  0  0  0  0  0  0  0  0
  153.3064  142.7775  161.5305 C   0  0  0  0  0  0  0  0  0  0  0  0
  151.8665  143.4429  159.5282 C   0  0  0  0  0  0  0  0  0  0  0  0
  151.5778  144.7873  160.1724 C   0  0  0  0  0  0  0  0  0  0  0  0
  151.3050  143.1491  158.2678 C   0  0  0  0  0  0  0  0  0  0  0  0
  151.5698  141.9083  157.6616 C   0  0  0  0  0  0  0  0  0  0  0  0
  144.0547  141.9489  155.0295 N   0  3  0  0  0  0  0  0  0  0  0  0
  141.1550  143.3795  155.9630 H   0  0  0  0  0  0  0  0  0  0  0  0
  141.3783  141.6272  155.9084 H   0  0  0  0  0  0  0  0  0  0  0  0
  141.4990  142.5838  154.4251 H   0  0  0  0  0  0  0  0  0  0  0  0
  143.0633  144.3352  157.2124 H   0  0  0  0  0  0  0  0  0  0  0  0
  145.1602  145.2855  158.2202 H   0  0  0  0  0  0  0  0  0  0  0  0
  146.7122  144.6938  157.7699 H   0  0  0  0  0  0  0  0  0  0  0  0
  148.5750  141.6027  153.4050 H   0  0  0  0  0  0  0  0  0  0  0  0
  147.8765  142.9187  154.3327 H   0  0  0  0  0  0  0  0  0  0  0  0
  148.8526  140.3324  155.6322 H   0  0  0  0  0  0  0  0  0  0  0  0
  148.9490  142.4634  157.1701 H   0  0  0  0  0  0  0  0  0  0  0  0
  150.7455  141.5952  154.4552 H   0  0  0  0  0  0  0  0  0  0  0  0
  150.3954  142.9728  155.4728 H   0  0  0  0  0  0  0  0  0  0  0  0
  151.6469  139.4242  155.6347 H   0  0  0  0  0  0  0  0  0  0  0  0
  153.5732  140.5114  160.0468 H   0  0  0  0  0  0  0  0  0  0  0  0
  153.9677  143.6420  161.4700 H   0  0  0  0  0  0  0  0  0  0  0  0
  153.8923  141.9322  161.8921 H   0  0  0  0  0  0  0  0  0  0  0  0
  152.5302  142.9853  162.2674 H   0  0  0  0  0  0  0  0  0  0  0  0
  150.9251  145.3963  159.5463 H   0  0  0  0  0  0  0  0  0  0  0  0
  152.5034  145.3416  160.3297 H   0  0  0  0  0  0  0  0  0  0  0  0
  151.0859  144.6524  161.1359 H   0  0  0  0  0  0  0  0  0  0  0  0
  150.6742  143.8682  157.7665 H   0  0  0  0  0  0  0  0  0  0  0  0
  143.6807  141.2638  154.3725 H   0  0  0  0  0  0  0  0  0  0  0  0
  1  2  1  0  0  0  0
  1 25  1  0  0  0  0
  1 26  1  0  0  0  0
  1 27  1  0  0  0  0
  2 24  1  0  0  0  0
  2  3  2  0  0  0  0
  3  4  1  0  0  0  0
  3 28  1  0  0  0  0
  4  5  1  0  0  0  0
  4  6  2  0  0  0  0
  5 29  1  0  0  0  0
  5 30  1  0  0  0  0
  6  7  1  0  0  0  0
  7  8  1  0  0  0  0
  7 24  2  0  0  0  0
  8  9  1  0  0  0  0
  9 10  1  0  0  0  0
  9 31  1  0  0  0  0
  9 32  1  0  0  0  0
 10 11  1  0  0  0  0
 10 12  1  0  0  0  0
 10 33  1  0  0  0  0
 11 34  1  0  0  0  0
 12 13  1  0  0  0  0
 12 35  1  0  0  0  0
 12 36  1  0  0  0  0
 13 23  1  0  0  0  0
 13 14  1  0  0  0  0
 14 15  2  0  0  0  0
 14 37  1  0  0  0  0
 15 16  1  0  0  0  0
 16 23  2  0  0  0  0
 16 17  1  0  0  0  0
 17 18  2  0  0  0  0
 17 38  1  0  0  0  0
 18 19  1  0  0  0  0
 18 20  1  0  0  0  0
 19 39  1  0  0  0  0
 19 40  1  0  0  0  0
 19 41  1  0  0  0  0
 20 21  1  0  0  0  0
 20 22  2  0  0  0  0
 21 42  1  0  0  0  0
 21 43  1  0  0  0  0
 21 44  1  0  0  0  0
 22 23  1  0  0  0  0
 22 45  1  0  0  0  0
 24 46  1  0  0  0  0
M  CHG  1  24   1
M  END
> <s_m_source_file>
AV-unprocessed.smi

> <i_m_source_file_index>
1006

> <i_lp_mmshare_version>
43012

> <i_f3d_flags>
0

> <s_epik_input>
W0NIM11jMVtjSF1jKFtOSDJdKW5jKG4xKVNbQ0gyXVtDQEhdKFtPSF0pW0NIMl1uKFtjSF1uMiljKGMyMylbY0hdYyhbQ0gzXSljKFtjSF0zKVtDSDNd

> <s_epik_cmdline>
J2VwaWtfcHl0aG9uJywgJy1waCcsICc3LjAnLCAnLXRuJywgJzgnLCAnLW1hJywgJzIwMCcsICctbWV0YWxfYmluZGluZycsICctaW1hZScsICc8aW5maWxlLm1hZT4nLCAnLW9tYWUnLCAnPG91dGZpbGUubWFlPic=

> <r_lp_tautomer_probability>
0.999762

> <r_epik_Ionization_Penalty>
0.549885

> <r_epik_Ionization_Penalty_Charging>
0.440405

> <r_epik_Ionization_Penalty_Neutral>
0.10948

> <r_epik_State_Penalty>
0.546419

> <r_epik_Charging_Adjusted_Penalty>
0.986823

> <i_epik_Tot_Q>
1

> <i_epik_Tot_abs_Q>
1

> <r_epik_Metal_State_Penalty>
0.699827

> <b_epik_Metal_Only>
0

> <s_lp_Force_Field>
OPLS_2005

> <r_lp_Energy>
10.4004

> <b_lp_Chiralities_Consistent>
1

> <s_lp_Variant>
AV-unprocessed.smi:1006-3

> <Gold.Version>
5.8.1

> <Gold.Id.Protein>
6NUR|6NUR_protein|mol2

> <Gold.PLP.Fitness>
50.2924

> <Gold.PLP.PLP>
-41.3380

> <Gold.PLP.part.hbond>
-4.1554

> <Gold.PLP.part.metal>
0.0000

> <Gold.PLP.part.buried>
-2.8966

> <Gold.PLP.part.nonpolar>
-34.2345

> <Gold.PLP.part.repulsive>
0.1457

> <Gold.PLP.ligand.clash>
0.0000

> <Gold.PLP.ligand.torsion>
0.8998

> <Gold.PLP.Chemscore.Hbond>
3.5600

> <Gold.PLP.Chemscore.CHOScore>
0.0000

> <Gold.PLP.Chemscore.Metal>
0.0000

> <Gold.Chemscore.Hbonds>
donor molecule, donor type, donor heavy atom, donor atom, acceptor molecule, acceptor atom, score
      L1  H     5    30       P1  8029  0.58
      L1  H    24    46       P1 10175  1.95
      P1  H  7997  8010       L1    15  0.80

> <Gold.PLP.Chemscore.Internal.Correction>
0.0740

> <Gold.Rescore>
     Score         DG    S(hbond)    S(metal)    S(lipo)     H(rot)  DE(clash)    DE(int)     intcor
     12.87     -14.26       0.96        0.00     110.83       2.89       0.55       0.84       ----

> <Gold.Chemscore.Fitness>
12.8680

> <Gold.Chemscore.DG>
-14.2641

> <Gold.Chemscore.ZeroCoef>
-5.4800

> <Gold.Chemscore.Hbond>
0.9627

> <Gold.Chemscore.Metal>
0.0000

> <Gold.Chemscore.Lipo>
110.8314

> <Gold.Chemscore.Internal_Hbond>
0.0000

> <Gold.Chemscore.DEClash>
0.5544

> <Gold.Chemscore.DEInternal>
0.8417

> <Gold.Chemscore.Rot>
2.8901

> <Gold.Chemscore.Internal.Correction>
   9.000000E+99

> <Gold.Chemscore.Hbonds>
donor molecule, donor type, donor heavy atom, donor atom, acceptor molecule, acceptor atom, score
      L1  H     5    30       P1  8029  0.17
      L1  H    24    46       P1 10175  0.44
      P1  H  7997  8010       L1    15  0.05

> <Gold.Chemscore.Hbond.Weighted>
-3.2154

> <Gold.Chemscore.Metal.Weighted>
-0.0000

> <Gold.Chemscore.Lipo.Weighted>
-12.9673

> <Gold.Chemscore.Internal_Hbond.Weighted>
0.0000

> <Gold.Chemscore.DEClash.Weighted>
0.5544

> <Gold.Chemscore.DEInternal.Weighted>
0.8417

> <Gold.Chemscore.Rot.Weighted>
7.3986

> <Gold.Chemscore.Internal.Correction.Weighted>
   9.000000E+99

> <Gold.Protein.RotatedTorsions>
[ 6907 6896 6895 6894 ] final -164.37 input  -60.11 | X-H torsion
[ 7974 7965 7964 7962 ] final  172.46 input  175.53 | X-H torsion
[ 8008 7997 7996 7995 ] final   58.58 input   59.86 | X-H torsion
[ 10167 10162 10161 10158 ] final -176.20 input  -65.29 | X-H torsion
[ 10718 10713 10712 10709 ] final  -59.81 input   66.30 | X-H torsion
[ 10763 10752 10751 10750 ] final  157.13 input  -60.55 | X-H torsion
[ 11005 11000 10999 10996 ] final -122.90 input  -57.11 | X-H torsion

> <Gold.Protein.ActiveResidues>
 VAL166  LYS551  ARG553  GLY616  TRP617  ASP618  TYR619  PRO620  LYS621  CYS622 
 ASP623  PHE694  ASN695  SER759  ASP760  ASP761  ALA762  ILE779  LEU786  VAL792 
 PHE793  MET794  SER795  GLU796  ALA797  LYS798  CYS799  TRP800  GLU811  SER814 

> <Gold.Protein.RotatedAtoms>
  151.4108  133.3728  159.2743 H   0  0  0  0  0  0  0  0  0  0  0  0  # atno 6907 bound_to 6896
  150.9365  134.8778  159.7595 H   0  0  0  0  0  0  0  0  0  0  0  0  # atno 6908 bound_to 6896
  152.5052  134.4056  159.9483 H   0  0  0  0  0  0  0  0  0  0  0  0  # atno 6909 bound_to 6896
  144.7268  139.9501  143.6431 H   0  0  0  0  0  0  0  0  0  0  0  0  # atno 7974 bound_to 7965
  155.5524  140.3486  155.4471 H   0  0  0  0  0  0  0  0  0  0  0  0  # atno 8008 bound_to 7997
  156.0574  140.1332  157.0007 H   0  0  0  0  0  0  0  0  0  0  0  0  # atno 8009 bound_to 7997
  154.4463  140.0992  156.6451 H   0  0  0  0  0  0  0  0  0  0  0  0  # atno 8010 bound_to 7997
  139.5542  144.2033  152.1130 H   0  0  0  0  0  0  0  0  0  0  0  0  # atno 10167 bound_to 10162
  156.1035  130.4183  150.0767 H   0  0  0  0  0  0  0  0  0  0  0  0  # atno 10718 bound_to 10713
  154.1954  135.2793  155.3008 H   0  0  0  0  0  0  0  0  0  0  0  0  # atno 10763 bound_to 10752
  154.5896  135.5564  153.7269 H   0  0  0  0  0  0  0  0  0  0  0  0  # atno 10764 bound_to 10752
  153.0101  135.6365  154.2092 H   0  0  0  0  0  0  0  0  0  0  0  0  # atno 10765 bound_to 10752
  140.9960  134.0471  157.3596 H   0  0  0  0  0  0  0  0  0  0  0  0  # atno 11005 bound_to 11000
  146.0718  139.3707  143.0518 LP  0  0  0  0  0  0  0  0  0  0  0  0  # atno 17320 bound_to 7965
  145.7958  140.9793  143.1025 LP  0  0  0  0  0  0  0  0  0  0  0  0  # atno 17321 bound_to 7965
  140.1533  144.5094  150.6674 LP  0  0  0  0  0  0  0  0  0  0  0  0  # atno 17342 bound_to 10162
  140.6811  143.2327  151.5382 LP  0  0  0  0  0  0  0  0  0  0  0  0  # atno 17343 bound_to 10162
  156.8748  130.9536  151.3605 LP  0  0  0  0  0  0  0  0  0  0  0  0  # atno 17370 bound_to 10713
  157.6209  130.8654  149.9106 LP  0  0  0  0  0  0  0  0  0  0  0  0  # atno 17371 bound_to 10713
  139.9015  135.0166  156.7290 LP  0  0  0  0  0  0  0  0  0  0  0  0  # atno 17394 bound_to 11000
  140.6965  133.9344  155.7998 LP  0  0  0  0  0  0  0  0  0  0  0  0  # atno 17395 bound_to 11000

$$$$
