AV-unprocessed.smi:287|AV-procd|sdf|2178|dock2
  -GOLD-   2262021543D 1   1.00000     0.00000
 Structure written by MMmdl.
 55 58  0  0  0  0  0  0  0  0  1 V2000
  152.4621  138.1707  154.5250 C   0  0  0  0  0  0  0  0  0  0  0  0
  151.0865  138.7423  154.5672 C   0  0  0  0  0  0  0  0  0  0  0  0
  149.8445  138.2331  154.3223 C   0  0  0  0  0  0  0  0  0  0  0  0
  148.9023  139.2820  154.5431 C   0  0  0  0  0  0  0  0  0  0  0  0
  147.3911  139.1768  154.3891 C   0  0  2  0  0  0  0  0  0  0  0  0
  147.0377  138.8941  152.9198 C   0  0  0  0  0  0  0  0  0  0  0  0
  146.7222  140.3806  154.7127 O   0  0  0  0  0  0  0  0  0  0  0  0
  146.7765  138.0912  155.3025 C   0  0  0  0  0  0  0  0  0  0  0  0
  145.3382  138.2546  155.4896 N   0  0  0  0  0  0  0  0  0  0  0  0
  144.4696  137.5958  154.6946 C   0  0  0  0  0  0  0  0  0  0  0  0
  143.1657  137.9709  154.6182 N   0  0  0  0  0  0  0  0  0  0  0  0
  142.3246  137.3043  153.8209 C   0  0  0  0  0  0  0  0  0  0  0  0
  142.5743  136.2547  153.0339 N   0  0  0  0  0  0  0  0  0  0  0  0
  143.8825  135.8751  153.1123 C   0  0  0  0  0  0  0  0  0  0  0  0
  144.8863  136.4903  153.9095 C   0  0  0  0  0  0  0  0  0  0  0  0
  146.0984  135.8374  153.7255 N   0  0  0  0  0  0  0  0  0  0  0  0
  145.8205  134.8905  152.8695 C   0  0  0  0  0  0  0  0  0  0  0  0
  144.5072  134.8411  152.4517 N   0  0  0  0  0  0  0  0  0  0  0  0
  143.8564  133.9025  151.4891 C   0  0  2  0  0  0  0  0  0  0  0  0
  144.1053  132.5998  151.9319 O   0  0  0  0  0  0  0  0  0  0  0  0
  144.8120  131.8509  150.9442 C   0  0  2  0  0  0  0  0  0  0  0  0
  145.7687  130.8602  151.6252 C   0  0  0  0  0  0  0  0  0  0  0  0
  146.5762  130.2240  150.6582 O   0  0  0  0  0  0  0  0  0  0  0  0
  145.5266  132.9279  150.1275 C   0  0  1  0  0  0  0  0  0  0  0  0
  145.8947  132.5005  148.8302 O   0  0  0  0  0  0  0  0  0  0  0  0
  144.5071  134.0575  150.1093 C   0  0  1  0  0  0  0  0  0  0  0  0
  143.5444  133.9224  149.0793 O   0  0  0  0  0  0  0  0  0  0  0  0
  149.6653  140.3696  154.8949 C   0  0  0  0  0  0  0  0  0  0  0  0
  149.3514  141.7873  155.2434 C   0  0  0  0  0  0  0  0  0  0  0  0
  150.9895  140.0496  154.9164 O   0  0  0  0  0  0  0  0  0  0  0  0
  142.7952  134.1529  151.5265 H   0  0  0  0  0  0  0  0  0  0  0  0
  144.0897  131.3327  150.3103 H   0  0  0  0  0  0  0  0  0  0  0  0
  146.4204  133.2585  150.6589 H   0  0  0  0  0  0  0  0  0  0  0  0
  144.9814  135.0345  150.0041 H   0  0  0  0  0  0  0  0  0  0  0  0
  152.4307  137.0921  154.3692 H   0  0  0  0  0  0  0  0  0  0  0  0
  152.9896  138.3609  155.4600 H   0  0  0  0  0  0  0  0  0  0  0  0
  153.0394  138.6131  153.7130 H   0  0  0  0  0  0  0  0  0  0  0  0
  149.6327  137.2172  154.0236 H   0  0  0  0  0  0  0  0  0  0  0  0
  147.4816  137.9576  152.5800 H   0  0  0  0  0  0  0  0  0  0  0  0
  147.4030  139.6862  152.2647 H   0  0  0  0  0  0  0  0  0  0  0  0
  145.9594  138.8160  152.7746 H   0  0  0  0  0  0  0  0  0  0  0  0
  147.2248  140.8346  155.3716 H   0  0  0  0  0  0  0  0  0  0  0  0
  146.9994  137.0922  154.9243 H   0  0  0  0  0  0  0  0  0  0  0  0
  147.2402  138.1622  156.2875 H   0  0  0  0  0  0  0  0  0  0  0  0
  145.0545  138.8674  156.2411 H   0  0  0  0  0  0  0  0  0  0  0  0
  141.3061  137.6635  153.8125 H   0  0  0  0  0  0  0  0  0  0  0  0
  146.5734  134.1998  152.5196 H   0  0  0  0  0  0  0  0  0  0  0  0
  146.4338  131.3897  152.3080 H   0  0  0  0  0  0  0  0  0  0  0  0
  145.2253  130.1197  152.2124 H   0  0  0  0  0  0  0  0  0  0  0  0
  147.4426  130.5993  150.6960 H   0  0  0  0  0  0  0  0  0  0  0  0
  145.5993  133.1500  148.2099 H   0  0  0  0  0  0  0  0  0  0  0  0
  142.6840  133.9995  149.4629 H   0  0  0  0  0  0  0  0  0  0  0  0
  148.7564  142.2550  154.4588 H   0  0  0  0  0  0  0  0  0  0  0  0
  150.2615  142.3743  155.3687 H   0  0  0  0  0  0  0  0  0  0  0  0
  148.7875  141.8402  156.1746 H   0  0  0  0  0  0  0  0  0  0  0  0
  1  2  1  0  0  0  0
  1 35  1  0  0  0  0
  1 36  1  0  0  0  0
  1 37  1  0  0  0  0
  2 30  1  0  0  0  0
  2  3  2  0  0  0  0
  3  4  1  0  0  0  0
  3 38  1  0  0  0  0
  4  5  1  0  0  0  0
  4 28  2  0  0  0  0
  5  6  1  0  0  0  0
  5  7  1  0  0  0  0
  5  8  1  0  0  0  0
  6 39  1  0  0  0  0
  6 40  1  0  0  0  0
  6 41  1  0  0  0  0
  7 42  1  0  0  0  0
  8  9  1  0  0  0  0
  8 43  1  0  0  0  0
  8 44  1  0  0  0  0
  9 10  1  0  0  0  0
  9 45  1  0  0  0  0
 10 15  1  0  0  0  0
 10 11  2  0  0  0  0
 11 12  1  0  0  0  0
 12 13  2  0  0  0  0
 12 46  1  0  0  0  0
 13 14  1  0  0  0  0
 14 18  1  0  0  0  0
 14 15  2  0  0  0  0
 15 16  1  0  0  0  0
 16 17  2  0  0  0  0
 17 18  1  0  0  0  0
 17 47  1  0  0  0  0
 18 19  1  0  0  0  0
 19 31  1  0  0  0  0
 19 26  1  0  0  0  0
 19 20  1  0  0  0  0
 20 21  1  0  0  0  0
 21 32  1  0  0  0  0
 21 22  1  0  0  0  0
 21 24  1  0  0  0  0
 22 23  1  0  0  0  0
 22 48  1  0  0  0  0
 22 49  1  0  0  0  0
 23 50  1  0  0  0  0
 24 33  1  0  0  0  0
 24 25  1  0  0  0  0
 24 26  1  0  0  0  0
 25 51  1  0  0  0  0
 26 34  1  0  0  0  0
 26 27  1  0  0  0  0
 27 52  1  0  0  0  0
 28 29  1  0  0  0  0
 28 30  1  0  0  0  0
 29 53  1  0  0  0  0
 29 54  1  0  0  0  0
 29 55  1  0  0  0  0
M  END
> <s_m_source_file>
AV-unprocessed.smi

> <i_m_source_file_index>
287

> <i_lp_mmshare_version>
43012

> <i_f3d_flags>
0

> <s_epik_input>
W0NIM11jMVtjSF1jKGMobzEpW0NIM10pW0NAQF0oW0NIM10pKFtPSF0pW0NIMl1bTkhdYyhuW2NIXW4yKWMoYzIzKW5bY0hdbjNbQ0BASF00T1tDQEhdKFtDSDJdW09IXSlbQ0BASF0oW09IXSlbQ0BIXTRbT0hd

> <s_epik_cmdline>
J2VwaWtfcHl0aG9uJywgJy1waCcsICc3LjAnLCAnLXRuJywgJzgnLCAnLW1hJywgJzIwMCcsICctbWV0YWxfYmluZGluZycsICctaW1hZScsICc8aW5maWxlLm1hZT4nLCAnLW9tYWUnLCAnPG91dGZpbGUubWFlPic=

> <r_lp_tautomer_probability>
1

> <r_epik_Ionization_Penalty>
0.000992612

> <r_epik_Ionization_Penalty_Charging>
0

> <r_epik_Ionization_Penalty_Neutral>
0.000992612

> <r_epik_State_Penalty>
-0

> <r_epik_Charging_Adjusted_Penalty>
0

> <i_epik_Tot_Q>
0

> <i_epik_Tot_abs_Q>
0

> <r_epik_Metal_State_Penalty>
-0

> <b_epik_Metal_Only>
0

> <s_epik_Chemistry_Notes>
This compound contains an acetal/aminal-like group ( X-CH(R)-Y where X, Y are N, S, or O) that may be acid/base labile, releasing an aldehyde.

> <s_lp_Force_Field>
OPLS_2005

> <r_lp_Energy>
40.8374

> <b_lp_Chiralities_Consistent>
1

> <s_lp_Variant>
AV-unprocessed.smi:287-2

> <Gold.Version>
5.8.1

> <Gold.Id.Protein>
6NUR|6NUR_protein|mol2

> <Gold.PLP.Fitness>
48.6367

> <Gold.PLP.PLP>
-39.9256

> <Gold.PLP.part.hbond>
-5.5523

> <Gold.PLP.part.metal>
0.0000

> <Gold.PLP.part.buried>
-0.6131

> <Gold.PLP.part.nonpolar>
-34.4211

> <Gold.PLP.part.repulsive>
1.1312

> <Gold.PLP.ligand.clash>
0.0000

> <Gold.PLP.ligand.torsion>
0.5633

> <Gold.PLP.Chemscore.Hbond>
3.2320

> <Gold.PLP.Chemscore.CHOScore>
0.0000

> <Gold.PLP.Chemscore.Metal>
0.0000

> <Gold.Chemscore.Hbonds>
donor molecule, donor type, donor heavy atom, donor atom, acceptor molecule, acceptor atom, score
      L1  H    23    50       P1 10747  1.00
      L1  H    25    51       P1  7921  0.34
      L1  H    27    52       P1 10186  1.00
      P1  H  7989  7998       L1    30  1.00

> <Gold.PLP.Chemscore.Internal.Correction>
0.1417

> <Gold.Rescore>
     Score         DG    S(hbond)    S(metal)    S(lipo)     H(rot)  DE(clash)    DE(int)     intcor
      7.93     -11.49       2.47        0.00      96.21       5.27       0.76       2.80       ----

> <Gold.Chemscore.Fitness>
7.9330

> <Gold.Chemscore.DG>
-11.4944

> <Gold.Chemscore.ZeroCoef>
-5.4800

> <Gold.Chemscore.Hbond>
2.4676

> <Gold.Chemscore.Metal>
0.0000

> <Gold.Chemscore.Lipo>
96.2104

> <Gold.Chemscore.Internal_Hbond>
0.0000

> <Gold.Chemscore.DEClash>
0.7614

> <Gold.Chemscore.DEInternal>
2.7999

> <Gold.Chemscore.Rot>
5.2672

> <Gold.Chemscore.Internal.Correction>
   9.000000E+99

> <Gold.Chemscore.Hbonds>
donor molecule, donor type, donor heavy atom, donor atom, acceptor molecule, acceptor atom, score
      L1  H    23    50       P1 10747  0.97
      L1  H    25    51       P1  7921  0.01
      L1  H    27    52       P1 10186  0.99
      P1  H  7989  7998       L1    30  0.18

> <Gold.Chemscore.Hbond.Weighted>
-8.2417

> <Gold.Chemscore.Metal.Weighted>
-0.0000

> <Gold.Chemscore.Lipo.Weighted>
-11.2566

> <Gold.Chemscore.Internal_Hbond.Weighted>
0.0000

> <Gold.Chemscore.DEClash.Weighted>
0.7614

> <Gold.Chemscore.DEInternal.Weighted>
2.7999

> <Gold.Chemscore.Rot.Weighted>
13.4839

> <Gold.Chemscore.Internal.Correction.Weighted>
   9.000000E+99

> <Gold.Protein.RotatedTorsions>
[ 6907 6896 6895 6894 ] final -169.70 input  -60.11 | X-H torsion
[ 7974 7965 7964 7962 ] final   90.08 input  175.53 | X-H torsion
[ 8008 7997 7996 7995 ] final  -81.57 input   59.86 | X-H torsion
[ 10167 10162 10161 10158 ] final   31.44 input  -65.29 | X-H torsion
[ 10718 10713 10712 10709 ] final  163.98 input   66.30 | X-H torsion
[ 10763 10752 10751 10750 ] final   18.74 input  -60.55 | X-H torsion
[ 11005 11000 10999 10996 ] final   62.88 input  -57.11 | X-H torsion

> <Gold.Protein.ActiveResidues>
 VAL166  LYS551  ARG553  GLY616  TRP617  ASP618  TYR619  PRO620  LYS621  CYS622 
 ASP623  PHE694  ASN695  SER759  ASP760  ASP761  ALA762  ILE779  LEU786  VAL792 
 PHE793  MET794  SER795  GLU796  ALA797  LYS798  CYS799  TRP800  GLU811  SER814 

> <Gold.Protein.RotatedAtoms>
  151.4958  133.3515  159.2860 H   0  0  0  0  0  0  0  0  0  0  0  0  # atno 6907 bound_to 6896
  150.8805  134.8197  159.7232 H   0  0  0  0  0  0  0  0  0  0  0  0  # atno 6908 bound_to 6896
  152.4759  134.4855  159.9731 H   0  0  0  0  0  0  0  0  0  0  0  0  # atno 6909 bound_to 6896
  145.5237  139.2280  143.2657 H   0  0  0  0  0  0  0  0  0  0  0  0  # atno 7974 bound_to 7965
  154.5997  140.0646  156.9351 H   0  0  0  0  0  0  0  0  0  0  0  0  # atno 8008 bound_to 7997
  155.2154  140.3326  155.4304 H   0  0  0  0  0  0  0  0  0  0  0  0  # atno 8009 bound_to 7997
  156.2310  140.1841  156.7226 H   0  0  0  0  0  0  0  0  0  0  0  0  # atno 8010 bound_to 7997
  140.4588  144.0937  150.6208 H   0  0  0  0  0  0  0  0  0  0  0  0  # atno 10167 bound_to 10162
  157.1009  131.0442  151.2498 H   0  0  0  0  0  0  0  0  0  0  0  0  # atno 10718 bound_to 10713
  153.1223  135.6722  153.9315 H   0  0  0  0  0  0  0  0  0  0  0  0  # atno 10763 bound_to 10752
  153.8827  135.3056  155.3447 H   0  0  0  0  0  0  0  0  0  0  0  0  # atno 10764 bound_to 10752
  154.7633  135.4977  153.9585 H   0  0  0  0  0  0  0  0  0  0  0  0  # atno 10765 bound_to 10752
  140.0062  134.6366  155.9852 H   0  0  0  0  0  0  0  0  0  0  0  0  # atno 11005 bound_to 11000
  146.2089  140.6051  142.9068 LP  0  0  0  0  0  0  0  0  0  0  0  0  # atno 17320 bound_to 7965
  144.7662  140.5536  143.6701 LP  0  0  0  0  0  0  0  0  0  0  0  0  # atno 17321 bound_to 7965
  140.4118  143.2653  151.9823 LP  0  0  0  0  0  0  0  0  0  0  0  0  # atno 17342 bound_to 10162
  139.4804  144.5908  151.7774 LP  0  0  0  0  0  0  0  0  0  0  0  0  # atno 17343 bound_to 10162
  157.4642  130.7671  149.7263 LP  0  0  0  0  0  0  0  0  0  0  0  0  # atno 17370 bound_to 10713
  155.9874  130.3967  150.3167 LP  0  0  0  0  0  0  0  0  0  0  0  0  # atno 17371 bound_to 10713
  141.1678  133.6537  156.4543 LP  0  0  0  0  0  0  0  0  0  0  0  0  # atno 17394 bound_to 11000
  140.4637  134.6817  157.5097 LP  0  0  0  0  0  0  0  0  0  0  0  0  # atno 17395 bound_to 11000

$$$$
