AV-unprocessed.smi:1135|AV-procd|sdf|4858|dock9
  -GOLD-   22720 3433D 1   1.00000     0.00000
 Structure written by MMmdl.
 45 46  0  0  0  0  0  0  0  0  1 V2000
  153.4361  142.8742  162.3838 C   0  0  0  0  0  0  0  0  0  0  0  0
  152.6320  142.7767  161.0796 C   0  0  2  0  0  0  0  0  0  0  0  0
  153.5536  142.7971  159.8492 C   0  0  0  0  0  0  0  0  0  0  0  0
  152.7541  142.7100  158.5373 C   0  0  0  0  0  0  0  0  0  0  0  0
  151.6622  143.8006  158.3926 C   0  0  1  0  0  0  0  0  0  0  0  0
  152.3133  145.1806  158.1312 C   0  0  0  0  0  0  0  0  0  0  0  0
  150.8510  143.4064  157.2326 N   0  0  0  0  0  0  0  0  0  0  0  0
  150.4819  142.1718  156.8518 C   0  0  0  0  0  0  0  0  0  0  0  0
  150.7808  141.1358  157.4459 O   0  0  0  0  0  0  0  0  0  0  0  0
  149.7366  142.2035  155.7384 N   0  0  0  0  0  0  0  0  0  0  0  0
  149.1615  141.0326  155.0863 C   0  0  0  0  0  0  0  0  0  0  0  0
  147.8705  141.3876  154.3302 C   0  0  0  0  0  0  0  0  0  0  0  0
  147.2929  140.1986  153.5858 C   0  0  0  0  0  0  0  0  0  0  0  0
  147.0964  140.2503  152.1892 C   0  0  0  0  0  0  0  0  0  0  0  0
  146.5543  139.1210  151.5455 C   0  0  0  0  0  0  0  0  0  0  0  0
  146.2292  137.9902  152.3193 C   0  0  0  0  0  0  0  0  0  0  0  0
  146.4618  138.0395  153.7083 C   0  0  0  0  0  0  0  0  0  0  0  0
  146.9829  139.1165  154.3353 N   0  0  0  0  0  0  0  0  0  0  0  0
  150.7786  143.8138  159.6699 C   0  0  0  0  0  0  0  0  0  0  0  0
  151.5879  143.9008  160.9758 C   0  0  0  0  0  0  0  0  0  0  0  0
  153.9925  143.8106  162.4369 H   0  0  0  0  0  0  0  0  0  0  0  0
  154.1524  142.0563  162.4650 H   0  0  0  0  0  0  0  0  0  0  0  0
  152.7815  142.8262  163.2544 H   0  0  0  0  0  0  0  0  0  0  0  0
  152.1017  141.8231  161.0894 H   0  0  0  0  0  0  0  0  0  0  0  0
  154.1632  143.7010  159.8552 H   0  0  0  0  0  0  0  0  0  0  0  0
  154.2536  141.9623  159.8995 H   0  0  0  0  0  0  0  0  0  0  0  0
  153.4399  142.7501  157.6899 H   0  0  0  0  0  0  0  0  0  0  0  0
  152.2880  141.7238  158.4954 H   0  0  0  0  0  0  0  0  0  0  0  0
  152.9917  145.4712  158.9321 H   0  0  0  0  0  0  0  0  0  0  0  0
  151.5709  145.9742  158.0505 H   0  0  0  0  0  0  0  0  0  0  0  0
  152.8901  145.1758  157.2057 H   0  0  0  0  0  0  0  0  0  0  0  0
  150.5346  144.1687  156.6512 H   0  0  0  0  0  0  0  0  0  0  0  0
  149.5445  143.1008  155.3175 H   0  0  0  0  0  0  0  0  0  0  0  0
  149.9028  140.6346  154.3927 H   0  0  0  0  0  0  0  0  0  0  0  0
  148.9707  140.2483  155.8209 H   0  0  0  0  0  0  0  0  0  0  0  0
  147.1207  141.7691  155.0247 H   0  0  0  0  0  0  0  0  0  0  0  0
  148.0641  142.1905  153.6174 H   0  0  0  0  0  0  0  0  0  0  0  0
  147.3536  141.1339  151.6232 H   0  0  0  0  0  0  0  0  0  0  0  0
  146.3898  139.1227  150.4782 H   0  0  0  0  0  0  0  0  0  0  0  0
  145.8106  137.1072  151.8595 H   0  0  0  0  0  0  0  0  0  0  0  0
  146.2219  137.1914  154.3323 H   0  0  0  0  0  0  0  0  0  0  0  0
  150.0689  144.6408  159.6385 H   0  0  0  0  0  0  0  0  0  0  0  0
  150.1769  142.9039  159.7018 H   0  0  0  0  0  0  0  0  0  0  0  0
  150.9057  143.8507  161.8250 H   0  0  0  0  0  0  0  0  0  0  0  0
  152.0794  144.8718  161.0409 H   0  0  0  0  0  0  0  0  0  0  0  0
  1  2  1  0  0  0  0
  1 21  1  0  0  0  0
  1 22  1  0  0  0  0
  1 23  1  0  0  0  0
  2 20  1  0  0  0  0
  2  3  1  0  0  0  0
  2 24  1  0  0  0  0
  3  4  1  0  0  0  0
  3 25  1  0  0  0  0
  3 26  1  0  0  0  0
  4  5  1  0  0  0  0
  4 27  1  0  0  0  0
  4 28  1  0  0  0  0
  5  6  1  0  0  0  0
  5  7  1  0  0  0  0
  5 19  1  0  0  0  0
  6 29  1  0  0  0  0
  6 30  1  0  0  0  0
  6 31  1  0  0  0  0
  7  8  1  0  0  0  0
  7 32  1  0  0  0  0
  8  9  2  0  0  0  0
  8 10  1  0  0  0  0
 10 11  1  0  0  0  0
 10 33  1  0  0  0  0
 11 12  1  0  0  0  0
 11 34  1  0  0  0  0
 11 35  1  0  0  0  0
 12 13  1  0  0  0  0
 12 36  1  0  0  0  0
 12 37  1  0  0  0  0
 13 18  1  0  0  0  0
 13 14  2  0  0  0  0
 14 15  1  0  0  0  0
 14 38  1  0  0  0  0
 15 16  2  0  0  0  0
 15 39  1  0  0  0  0
 16 17  1  0  0  0  0
 16 40  1  0  0  0  0
 17 18  2  0  0  0  0
 17 41  1  0  0  0  0
 19 20  1  0  0  0  0
 19 42  1  0  0  0  0
 19 43  1  0  0  0  0
 20 44  1  0  0  0  0
 20 45  1  0  0  0  0
M  END
> <s_m_source_file>
AV-unprocessed.smi

> <i_m_source_file_index>
1135

> <i_lp_mmshare_version>
43012

> <i_f3d_flags>
0

> <s_epik_input>
W0NIMl0xW0NIMl1bQ0BIXShbQ0gzXSlbQ0gyXVtDSDJdW0NAQF0xKFtDSDNdKVtOSF1DKD1PKVtOSF1bQ0gyXVtDSDJdYzJbY0hdW2NIXVtjSF1bY0hdbjI=

> <s_epik_cmdline>
J2VwaWtfcHl0aG9uJywgJy1waCcsICc3LjAnLCAnLXRuJywgJzgnLCAnLW1hJywgJzIwMCcsICctbWV0YWxfYmluZGluZycsICctaW1hZScsICc8aW5maWxlLm1hZT4nLCAnLW9tYWUnLCAnPG91dGZpbGUubWFlPic=

> <r_epik_Ionization_Penalty>
0.0448679

> <r_epik_Ionization_Penalty_Charging>
0

> <r_epik_Ionization_Penalty_Neutral>
0.0448679

> <r_epik_State_Penalty>
0.0379931

> <r_epik_Charging_Adjusted_Penalty>
0.0379931

> <i_epik_Tot_Q>
0

> <i_epik_Tot_abs_Q>
0

> <r_epik_Metal_State_Penalty>
0.0353093

> <b_epik_Metal_Only>
0

> <s_lp_Force_Field>
OPLS_2005

> <r_lp_Energy>
8.69074

> <b_lp_Chiralities_Consistent>
1

> <s_lp_Variant>
AV-unprocessed.smi:1135-1

> <Gold.Version>
5.8.1

> <Gold.Id.Protein>
6NUR|6NUR_protein|mol2

> <Gold.PLP.Fitness>
48.6108

> <Gold.PLP.PLP>
-46.6463

> <Gold.PLP.part.hbond>
-2.0000

> <Gold.PLP.part.metal>
0.0000

> <Gold.PLP.part.buried>
-0.3200

> <Gold.PLP.part.nonpolar>
-44.0182

> <Gold.PLP.part.repulsive>
0.3289

> <Gold.PLP.ligand.clash>
0.0000

> <Gold.PLP.ligand.torsion>
0.6581

> <Gold.PLP.Chemscore.Hbond>
1.0884

> <Gold.PLP.Chemscore.CHOScore>
0.0000

> <Gold.PLP.Chemscore.Metal>
0.0000

> <Gold.Chemscore.Hbonds>
donor molecule, donor type, donor heavy atom, donor atom, acceptor molecule, acceptor atom, score
      L1  H     7    32       P1  8028  0.80
      L1  H    10    33       P1  8028  0.88

> <Gold.PLP.Chemscore.Internal.Correction>
0.0157

> <Gold.Rescore>
     Score         DG    S(hbond)    S(metal)    S(lipo)     H(rot)  DE(clash)    DE(int)     intcor
     20.00     -22.88       1.46        0.00     138.05       1.42       1.06       1.81       ----

> <Gold.Chemscore.Fitness>
20.0015

> <Gold.Chemscore.DG>
-22.8752

> <Gold.Chemscore.ZeroCoef>
-5.4800

> <Gold.Chemscore.Hbond>
1.4617

> <Gold.Chemscore.Metal>
0.0000

> <Gold.Chemscore.Lipo>
138.0478

> <Gold.Chemscore.Internal_Hbond>
0.0000

> <Gold.Chemscore.DEClash>
1.0609

> <Gold.Chemscore.DEInternal>
1.8128

> <Gold.Chemscore.Rot>
1.4213

> <Gold.Chemscore.Internal.Correction>
   9.000000E+99

> <Gold.Chemscore.Hbonds>
donor molecule, donor type, donor heavy atom, donor atom, acceptor molecule, acceptor atom, score
      L1  H     7    32       P1  8028  0.78
      L1  H    10    33       P1  8028  0.87

> <Gold.Chemscore.Hbond.Weighted>
-4.8821

> <Gold.Chemscore.Metal.Weighted>
-0.0000

> <Gold.Chemscore.Lipo.Weighted>
-16.1516

> <Gold.Chemscore.Internal_Hbond.Weighted>
0.0000

> <Gold.Chemscore.DEClash.Weighted>
1.0609

> <Gold.Chemscore.DEInternal.Weighted>
1.8128

> <Gold.Chemscore.Rot.Weighted>
3.6385

> <Gold.Chemscore.Internal.Correction.Weighted>
   9.000000E+99

> <Gold.Protein.RotatedTorsions>
[ 6907 6896 6895 6894 ] final  -61.22 input  -60.11 | X-H torsion
[ 7974 7965 7964 7962 ] final -123.09 input  175.53 | X-H torsion
[ 8008 7997 7996 7995 ] final  -19.22 input   59.86 | X-H torsion
[ 10167 10162 10161 10158 ] final -123.08 input  -65.29 | X-H torsion
[ 10718 10713 10712 10709 ] final -144.36 input   66.30 | X-H torsion
[ 10763 10752 10751 10750 ] final   93.69 input  -60.55 | X-H torsion
[ 11005 11000 10999 10996 ] final   19.59 input  -57.11 | X-H torsion

> <Gold.Protein.ActiveResidues>
 VAL166  LYS551  ARG553  GLY616  TRP617  ASP618  TYR619  PRO620  LYS621  CYS622 
 ASP623  PHE694  ASN695  SER759  ASP760  ASP761  ALA762  ILE779  LEU786  VAL792 
 PHE793  MET794  SER795  GLU796  ALA797  LYS798  CYS799  TRP800  GLU811  SER814 

> <Gold.Protein.RotatedAtoms>
  150.7800  134.6733  159.6403 H   0  0  0  0  0  0  0  0  0  0  0  0  # atno 6907 bound_to 6896
  152.3881  134.6481  160.0127 H   0  0  0  0  0  0  0  0  0  0  0  0  # atno 6908 bound_to 6896
  151.6790  133.3276  159.3251 H   0  0  0  0  0  0  0  0  0  0  0  0  # atno 6909 bound_to 6896
  145.0224  140.7999  143.4373 H   0  0  0  0  0  0  0  0  0  0  0  0  # atno 7974 bound_to 7965
  154.4851  140.2094  155.9673 H   0  0  0  0  0  0  0  0  0  0  0  0  # atno 8008 bound_to 7997
  156.1224  140.3211  155.8197 H   0  0  0  0  0  0  0  0  0  0  0  0  # atno 8009 bound_to 7997
  155.4443  140.0512  157.2998 H   0  0  0  0  0  0  0  0  0  0  0  0  # atno 8010 bound_to 7997
  140.0073  143.5478  152.2278 H   0  0  0  0  0  0  0  0  0  0  0  0  # atno 10167 bound_to 10162
  156.3692  130.7779  151.1957 H   0  0  0  0  0  0  0  0  0  0  0  0  # atno 10718 bound_to 10713
  153.2331  135.4316  155.0617 H   0  0  0  0  0  0  0  0  0  0  0  0  # atno 10763 bound_to 10752
  154.8306  135.3384  154.6758 H   0  0  0  0  0  0  0  0  0  0  0  0  # atno 10764 bound_to 10752
  153.7184  135.7018  153.5075 H   0  0  0  0  0  0  0  0  0  0  0  0  # atno 10765 bound_to 10752
  140.4120  134.1608  155.7668 H   0  0  0  0  0  0  0  0  0  0  0  0  # atno 11005 bound_to 11000
  145.1878  139.2317  143.5258 LP  0  0  0  0  0  0  0  0  0  0  0  0  # atno 17320 bound_to 7965
  146.3487  140.1667  142.8590 LP  0  0  0  0  0  0  0  0  0  0  0  0  # atno 17321 bound_to 7965
  139.6230  144.7632  151.2700 LP  0  0  0  0  0  0  0  0  0  0  0  0  # atno 17342 bound_to 10162
  140.7395  143.6615  150.8160 LP  0  0  0  0  0  0  0  0  0  0  0  0  # atno 17343 bound_to 10162
  157.7482  131.0377  150.4470 LP  0  0  0  0  0  0  0  0  0  0  0  0  # atno 17370 bound_to 10713
  156.4694  130.4049  149.6527 LP  0  0  0  0  0  0  0  0  0  0  0  0  # atno 17371 bound_to 10713
  141.1817  133.8399  157.1233 LP  0  0  0  0  0  0  0  0  0  0  0  0  # atno 17394 bound_to 11000
  140.0261  134.9923  157.0688 LP  0  0  0  0  0  0  0  0  0  0  0  0  # atno 17395 bound_to 11000

$$$$
