AV-unprocessed.smi:907|AV-procd|sdf|4112|dock3
  -GOLD-   22720 2 03D 1   1.00000     0.00000
 Structure written by MMmdl.
 54 57  0  0  0  0  0  0  0  0  3 V2000
  149.7917  140.2642  154.4197 O   0  0  0  0  0  0  0  0  0  0  0  0
  148.7426  140.6016  154.9693 C   0  0  0  0  0  0  0  0  0  0  0  0
  148.7101  141.0189  156.2455 N   0  0  0  0  0  0  0  0  0  0  0  0
  149.8788  141.1260  157.1083 C   0  0  0  0  0  0  0  0  0  0  0  0
  150.8009  142.2586  156.6362 C   0  0  0  0  0  0  0  0  0  0  0  0
  151.2764  143.1270  157.7853 C   0  0  0  0  0  0  0  0  0  0  0  0
  152.0930  142.6221  158.8206 C   0  0  0  0  0  0  0  0  0  0  0  0
  152.5058  143.4864  159.8562 C   0  0  0  0  0  0  0  0  0  0  0  0
  152.0956  144.8357  159.8342 C   0  0  0  0  0  0  0  0  0  0  0  0
  151.2811  145.2871  158.7757 C   0  0  0  0  0  0  0  0  0  0  0  0
  150.9054  144.4281  157.8025 N   0  3  0  0  0  0  0  0  0  0  0  0
  147.5317  140.5366  154.3609 N   0  0  0  0  0  0  0  0  0  0  0  0
  147.2827  140.2526  152.9427 C   0  0  0  0  0  0  0  0  0  0  0  0
  146.7375  138.8195  152.8156 C   0  0  0  0  0  0  0  0  0  0  0  0
  145.5078  138.6070  153.6369 N   0  3  0  0  0  0  0  0  0  0  0  0
  144.9940  137.2082  153.5050 C   0  0  2  0  0  0  0  0  0  0  0  0
  145.0537  136.7081  152.0369 C   0  0  0  0  0  0  0  0  0  0  0  0
  143.6189  136.2336  151.7551 C   0  0  1  0  0  0  0  0  0  0  0  0
  143.3308  134.9582  152.5641 C   0  0  0  0  0  0  0  0  0  0  0  0
  143.2155  135.4958  154.0008 C   0  0  0  0  0  0  0  0  0  0  0  0
  143.4865  137.0043  153.8305 C   0  0  2  0  0  0  0  0  0  0  0  0
  142.8021  137.2829  152.4973 C   0  0  0  0  0  0  0  0  0  0  0  0
  145.6890  139.0685  155.0452 C   0  0  0  0  0  0  0  0  0  0  0  0
  146.2807  140.4888  155.1185 C   0  0  0  0  0  0  0  0  0  0  0  0
  147.8158  141.2609  156.6471 H   0  0  0  0  0  0  0  0  0  0  0  0
  149.5507  141.3114  158.1322 H   0  0  0  0  0  0  0  0  0  0  0  0
  150.4200  140.1783  157.1090 H   0  0  0  0  0  0  0  0  0  0  0  0
  151.6703  141.8451  156.1227 H   0  0  0  0  0  0  0  0  0  0  0  0
  150.2820  142.8835  155.9078 H   0  0  0  0  0  0  0  0  0  0  0  0
  152.4022  141.5868  158.8226 H   0  0  0  0  0  0  0  0  0  0  0  0
  153.1309  143.1192  160.6571 H   0  0  0  0  0  0  0  0  0  0  0  0
  152.4022  145.5142  160.6172 H   0  0  0  0  0  0  0  0  0  0  0  0
  150.9226  146.3016  158.6780 H   0  0  0  0  0  0  0  0  0  0  0  0
  146.5528  140.9655  152.5560 H   0  0  0  0  0  0  0  0  0  0  0  0
  148.1619  140.3660  152.3084 H   0  0  0  0  0  0  0  0  0  0  0  0
  146.5404  138.6129  151.7645 H   0  0  0  0  0  0  0  0  0  0  0  0
  147.5059  138.1118  153.1314 H   0  0  0  0  0  0  0  0  0  0  0  0
  145.5945  136.5687  154.1546 H   0  0  0  0  0  0  0  0  0  0  0  0
  145.3001  137.5120  151.3420 H   0  0  0  0  0  0  0  0  0  0  0  0
  145.7892  135.9148  151.8981 H   0  0  0  0  0  0  0  0  0  0  0  0
  143.3911  136.1386  150.6928 H   0  0  0  0  0  0  0  0  0  0  0  0
  142.3930  134.4990  152.2489 H   0  0  0  0  0  0  0  0  0  0  0  0
  144.1216  134.2142  152.4586 H   0  0  0  0  0  0  0  0  0  0  0  0
  142.2106  135.3255  154.3896 H   0  0  0  0  0  0  0  0  0  0  0  0
  143.9191  135.0180  154.6838 H   0  0  0  0  0  0  0  0  0  0  0  0
  143.0931  137.5661  154.6745 H   0  0  0  0  0  0  0  0  0  0  0  0
  142.9624  138.2987  152.1318 H   0  0  0  0  0  0  0  0  0  0  0  0
  141.7313  137.0700  152.5066 H   0  0  0  0  0  0  0  0  0  0  0  0
  144.7354  139.0937  155.5682 H   0  0  0  0  0  0  0  0  0  0  0  0
  146.3340  138.3673  155.5770 H   0  0  0  0  0  0  0  0  0  0  0  0
  146.4081  140.7857  156.1607 H   0  0  0  0  0  0  0  0  0  0  0  0
  145.5781  141.2079  154.6945 H   0  0  0  0  0  0  0  0  0  0  0  0
  144.7972  139.2081  153.2443 H   0  0  0  0  0  0  0  0  0  0  0  0
  150.3175  144.7780  157.0456 H   0  0  0  0  0  0  0  0  0  0  0  0
  1  2  2  0  0  0  0
  2  3  1  0  0  0  0
  2 12  1  0  0  0  0
  3  4  1  0  0  0  0
  3 25  1  0  0  0  0
  4  5  1  0  0  0  0
  4 26  1  0  0  0  0
  4 27  1  0  0  0  0
  5  6  1  0  0  0  0
  5 28  1  0  0  0  0
  5 29  1  0  0  0  0
  6 11  1  0  0  0  0
  6  7  2  0  0  0  0
  7  8  1  0  0  0  0
  7 30  1  0  0  0  0
  8  9  2  0  0  0  0
  8 31  1  0  0  0  0
  9 10  1  0  0  0  0
  9 32  1  0  0  0  0
 10 11  2  0  0  0  0
 10 33  1  0  0  0  0
 11 54  1  0  0  0  0
 12 24  1  0  0  0  0
 12 13  1  0  0  0  0
 13 14  1  0  0  0  0
 13 34  1  0  0  0  0
 13 35  1  0  0  0  0
 14 15  1  0  0  0  0
 14 36  1  0  0  0  0
 14 37  1  0  0  0  0
 15 16  1  0  0  0  0
 15 23  1  0  0  0  0
 15 53  1  0  0  0  0
 16 21  1  0  0  0  0
 16 17  1  0  0  0  0
 16 38  1  0  0  0  0
 17 18  1  0  0  0  0
 17 39  1  0  0  0  0
 17 40  1  0  0  0  0
 18 22  1  0  0  0  0
 18 19  1  0  0  0  0
 18 41  1  0  0  0  0
 19 20  1  0  0  0  0
 19 42  1  0  0  0  0
 19 43  1  0  0  0  0
 20 21  1  0  0  0  0
 20 44  1  0  0  0  0
 20 45  1  0  0  0  0
 21 22  1  0  0  0  0
 21 46  1  0  0  0  0
 22 47  1  0  0  0  0
 22 48  1  0  0  0  0
 23 24  1  0  0  0  0
 23 49  1  0  0  0  0
 23 50  1  0  0  0  0
 24 51  1  0  0  0  0
 24 52  1  0  0  0  0
M  CHG  1  11   1
M  CHG  1  15   1
M  END
> <s_m_source_file>
AV-unprocessed.smi

> <i_m_source_file_index>
907

> <i_lp_mmshare_version>
43012

> <i_f3d_flags>
0

> <s_epik_input>
W0NIMl0xW0NIMl1bQ0BASF0oW0NIMl0yKVtDQEBIXShbQ0gyXVtDQEhdMTIpTihbQ0gyXVtDSDJdMylbQ0gyXVtDSDJdTjNDKD1PKVtOSF1bQ0gyXVtDSDJdYzRbY0hdW2NIXVtjSF1bY0hdbjQ=

> <s_epik_cmdline>
J2VwaWtfcHl0aG9uJywgJy1waCcsICc3LjAnLCAnLXRuJywgJzgnLCAnLW1hJywgJzIwMCcsICctbWV0YWxfYmluZGluZycsICctaW1hZScsICc8aW5maWxlLm1hZT4nLCAnLW9tYWUnLCAnPG91dGZpbGUubWFlPic=

> <r_epik_Ionization_Penalty>
1.63018

> <r_epik_Ionization_Penalty_Charging>
1.63015

> <r_epik_Ionization_Penalty_Neutral>
2.64641e-05

> <r_epik_State_Penalty>
1.72761

> <r_epik_Charging_Adjusted_Penalty>
3.35777

> <i_epik_Tot_Q>
2

> <i_epik_Tot_abs_Q>
2

> <r_epik_Metal_State_Penalty>
1.76501

> <b_epik_Metal_Only>
0

> <s_lp_Force_Field>
OPLS_2005

> <r_lp_Energy>
104.955

> <b_lp_Chiralities_Consistent>
1

> <s_lp_Variant>
AV-unprocessed.smi:907-7

> <Gold.Version>
5.8.1

> <Gold.Id.Protein>
6NUR|6NUR_protein|mol2

> <Gold.PLP.Fitness>
55.2831

> <Gold.PLP.PLP>
-42.8534

> <Gold.PLP.part.hbond>
-3.0000

> <Gold.PLP.part.metal>
0.0000

> <Gold.PLP.part.buried>
-4.1115

> <Gold.PLP.part.nonpolar>
-35.6388

> <Gold.PLP.part.repulsive>
0.2050

> <Gold.PLP.ligand.clash>
0.7256

> <Gold.PLP.ligand.torsion>
0.7481

> <Gold.PLP.Chemscore.Hbond>
4.8480

> <Gold.PLP.Chemscore.CHOScore>
0.0000

> <Gold.PLP.Chemscore.Metal>
0.0000

> <Gold.Chemscore.Hbonds>
donor molecule, donor type, donor heavy atom, donor atom, acceptor molecule, acceptor atom, score
      L1  H    11    54       P1  8028  2.00
      L1  H    15    53       P1 10175  2.00
      P1  H  7989  7998       L1     1  0.66

> <Gold.PLP.Chemscore.Internal.Correction>
0.1074

> <Gold.Rescore>
     Score         DG    S(hbond)    S(metal)    S(lipo)     H(rot)  DE(clash)    DE(int)     intcor
     22.43     -24.01       2.57        0.00     116.86       1.46       0.93       0.65       ----

> <Gold.Chemscore.Fitness>
22.4267

> <Gold.Chemscore.DG>
-24.0050

> <Gold.Chemscore.ZeroCoef>
-5.4800

> <Gold.Chemscore.Hbond>
2.5697

> <Gold.Chemscore.Metal>
0.0000

> <Gold.Chemscore.Lipo>
116.8619

> <Gold.Chemscore.Internal_Hbond>
0.0000

> <Gold.Chemscore.DEClash>
0.9257

> <Gold.Chemscore.DEInternal>
0.6526

> <Gold.Chemscore.Rot>
1.4572

> <Gold.Chemscore.Internal.Correction>
   9.000000E+99

> <Gold.Chemscore.Hbonds>
donor molecule, donor type, donor heavy atom, donor atom, acceptor molecule, acceptor atom, score
      L1  H    11    54       P1  8028  0.44
      L1  H    15    53       P1 10175  1.00
      P1  H  7989  7998       L1     1  0.64

> <Gold.Chemscore.Hbond.Weighted>
-8.5827

> <Gold.Chemscore.Metal.Weighted>
-0.0000

> <Gold.Chemscore.Lipo.Weighted>
-13.6728

> <Gold.Chemscore.Internal_Hbond.Weighted>
0.0000

> <Gold.Chemscore.DEClash.Weighted>
0.9257

> <Gold.Chemscore.DEInternal.Weighted>
0.6526

> <Gold.Chemscore.Rot.Weighted>
3.7305

> <Gold.Chemscore.Internal.Correction.Weighted>
   9.000000E+99

> <Gold.Protein.RotatedTorsions>
[ 6907 6896 6895 6894 ] final   32.40 input  -60.11 | X-H torsion
[ 7974 7965 7964 7962 ] final  113.70 input  175.53 | X-H torsion
[ 8008 7997 7996 7995 ] final   95.82 input   59.86 | X-H torsion
[ 10167 10162 10161 10158 ] final -153.38 input  -65.29 | X-H torsion
[ 10718 10713 10712 10709 ] final   45.21 input   66.30 | X-H torsion
[ 10763 10752 10751 10750 ] final  175.71 input  -60.55 | X-H torsion
[ 11005 11000 10999 10996 ] final  -35.96 input  -57.11 | X-H torsion

> <Gold.Protein.ActiveResidues>
 VAL166  LYS551  ARG553  GLY616  TRP617  ASP618  TYR619  PRO620  LYS621  CYS622 
 ASP623  PHE694  ASN695  SER759  ASP760  ASP761  ALA762  ILE779  LEU786  VAL792 
 PHE793  MET794  SER795  GLU796  ALA797  LYS798  CYS799  TRP800  GLU811  SER814 

> <Gold.Protein.RotatedAtoms>
  152.0739  134.9516  160.0574 H   0  0  0  0  0  0  0  0  0  0  0  0  # atno 6907 bound_to 6896
  152.0831  133.4158  159.4518 H   0  0  0  0  0  0  0  0  0  0  0  0  # atno 6908 bound_to 6896
  150.6836  134.2879  159.4698 H   0  0  0  0  0  0  0  0  0  0  0  0  # atno 6909 bound_to 6896
  145.2136  139.2894  143.4255 H   0  0  0  0  0  0  0  0  0  0  0  0  # atno 7974 bound_to 7965
  156.0730  140.3281  155.7599 H   0  0  0  0  0  0  0  0  0  0  0  0  # atno 8008 bound_to 7997
  155.5275  140.0590  157.2912 H   0  0  0  0  0  0  0  0  0  0  0  0  # atno 8009 bound_to 7997
  154.4540  140.1933  156.0451 H   0  0  0  0  0  0  0  0  0  0  0  0  # atno 8010 bound_to 7997
  139.7101  143.9122  152.2464 H   0  0  0  0  0  0  0  0  0  0  0  0  # atno 10167 bound_to 10162
  157.4351  130.8048  149.7640 H   0  0  0  0  0  0  0  0  0  0  0  0  # atno 10718 bound_to 10713
  154.4712  135.2771  155.1641 H   0  0  0  0  0  0  0  0  0  0  0  0  # atno 10763 bound_to 10752
  154.3389  135.6174  153.5590 H   0  0  0  0  0  0  0  0  0  0  0  0  # atno 10764 bound_to 10752
  152.9864  135.5783  154.5094 H   0  0  0  0  0  0  0  0  0  0  0  0  # atno 10765 bound_to 10752
  140.9837  133.7042  156.1728 H   0  0  0  0  0  0  0  0  0  0  0  0  # atno 11005 bound_to 11000
  146.3392  140.2420  142.8596 LP  0  0  0  0  0  0  0  0  0  0  0  0  # atno 17320 bound_to 7965
  144.9832  140.8478  143.5384 LP  0  0  0  0  0  0  0  0  0  0  0  0  # atno 17321 bound_to 7965
  139.8989  144.6923  150.8687 LP  0  0  0  0  0  0  0  0  0  0  0  0  # atno 17342 bound_to 10162
  140.7731  143.3529  151.1978 LP  0  0  0  0  0  0  0  0  0  0  0  0  # atno 17343 bound_to 10162
  155.9927  130.3929  150.2929 LP  0  0  0  0  0  0  0  0  0  0  0  0  # atno 17370 bound_to 10713
  157.1089  131.0216  151.3056 LP  0  0  0  0  0  0  0  0  0  0  0  0  # atno 17371 bound_to 10713
  140.7147  134.4423  157.5579 LP  0  0  0  0  0  0  0  0  0  0  0  0  # atno 17394 bound_to 11000
  139.8961  134.8667  156.2102 LP  0  0  0  0  0  0  0  0  0  0  0  0  # atno 17395 bound_to 11000

$$$$
