AV-unprocessed.smi:805|AV-procd|sdf|3797|dock6
  -GOLD-   22720 1233D 1   1.00000     0.00000
 Structure written by MMmdl.
 40 41  0  0  0  0  0  0  0  0  1 V2000
  144.6629  137.7250  154.0262 C   0  0  0  0  0  0  0  0  0  0  0  0
  146.1216  138.0392  153.6860 C   0  0  0  0  0  0  0  0  0  0  0  0
  146.3232  139.4395  153.7785 O   0  0  0  0  0  0  0  0  0  0  0  0
  147.6486  139.8300  153.4553 C   0  0  1  0  0  0  0  0  0  0  0  0
  147.8839  141.3439  153.4437 C   0  0  0  0  0  0  0  0  0  0  0  0
  149.2404  141.0270  154.0750 C   0  0  1  0  0  0  0  0  0  0  0  0
  149.6402  142.0119  155.0747 N   0  0  0  0  0  0  0  0  0  0  0  0
  150.5107  141.7732  156.0646 C   0  0  0  0  0  0  0  0  0  0  0  0
  151.0750  140.6910  156.2233 O   0  0  0  0  0  0  0  0  0  0  0  0
  150.6846  142.8640  156.8307 N   0  0  0  0  0  0  0  0  0  0  0  0
  151.5179  143.0224  157.9711 C   0  0  0  0  0  0  0  0  0  0  0  0
  151.9092  141.8608  158.6685 C   0  0  0  0  0  0  0  0  0  0  0  0
  152.7467  141.9840  159.7931 C   0  0  0  0  0  0  0  0  0  0  0  0
  153.1707  143.2716  160.1739 C   0  0  0  0  0  0  0  0  0  0  0  0
  152.8191  144.3925  159.5097 N   0  0  0  0  0  0  0  0  0  0  0  0
  152.0139  144.2674  158.4325 C   0  0  0  0  0  0  0  0  0  0  0  0
  148.6251  139.7241  154.6531 C   0  0  0  0  0  0  0  0  0  0  0  0
  147.9892  139.8065  156.0520 C   0  0  0  0  0  0  0  0  0  0  0  0
  149.5404  138.5000  154.6524 C   0  0  0  0  0  0  0  0  0  0  0  0
  144.4688  136.6541  153.9613 H   0  0  0  0  0  0  0  0  0  0  0  0
  143.9838  138.2303  153.3393 H   0  0  0  0  0  0  0  0  0  0  0  0
  144.4189  138.0489  155.0381 H   0  0  0  0  0  0  0  0  0  0  0  0
  146.7856  137.5181  154.3774 H   0  0  0  0  0  0  0  0  0  0  0  0
  146.3515  137.6878  152.6793 H   0  0  0  0  0  0  0  0  0  0  0  0
  148.0359  139.3364  152.5606 H   0  0  0  0  0  0  0  0  0  0  0  0
  147.9361  141.7890  152.4499 H   0  0  0  0  0  0  0  0  0  0  0  0
  147.2038  141.8917  154.0986 H   0  0  0  0  0  0  0  0  0  0  0  0
  150.0001  140.8339  153.3135 H   0  0  0  0  0  0  0  0  0  0  0  0
  149.2234  142.9290  155.0088 H   0  0  0  0  0  0  0  0  0  0  0  0
  150.2044  143.6983  156.5275 H   0  0  0  0  0  0  0  0  0  0  0  0
  151.5696  140.8856  158.3505 H   0  0  0  0  0  0  0  0  0  0  0  0
  153.0575  141.1126  160.3505 H   0  0  0  0  0  0  0  0  0  0  0  0
  153.8135  143.4037  161.0317 H   0  0  0  0  0  0  0  0  0  0  0  0
  151.7901  145.1954  157.9307 H   0  0  0  0  0  0  0  0  0  0  0  0
  148.7452  139.9019  156.8322 H   0  0  0  0  0  0  0  0  0  0  0  0
  147.4037  138.9144  156.2762 H   0  0  0  0  0  0  0  0  0  0  0  0
  147.3178  140.6599  156.1485 H   0  0  0  0  0  0  0  0  0  0  0  0
  150.3133  138.5781  155.4175 H   0  0  0  0  0  0  0  0  0  0  0  0
  150.0480  138.3808  153.6947 H   0  0  0  0  0  0  0  0  0  0  0  0
  148.9814  137.5824  154.8377 H   0  0  0  0  0  0  0  0  0  0  0  0
  1  2  1  0  0  0  0
  1 20  1  0  0  0  0
  1 21  1  0  0  0  0
  1 22  1  0  0  0  0
  2  3  1  0  0  0  0
  2 23  1  0  0  0  0
  2 24  1  0  0  0  0
  3  4  1  0  0  0  0
  4 17  1  0  0  0  0
  4  5  1  0  0  0  0
  4 25  1  0  0  0  0
  5  6  1  0  0  0  0
  5 26  1  0  0  0  0
  5 27  1  0  0  0  0
  6  7  1  0  0  0  0
  6 17  1  0  0  0  0
  6 28  1  0  0  0  0
  7  8  1  0  0  0  0
  7 29  1  0  0  0  0
  8  9  2  0  0  0  0
  8 10  1  0  0  0  0
 10 11  1  0  0  0  0
 10 30  1  0  0  0  0
 11 16  1  0  0  0  0
 11 12  2  0  0  0  0
 12 13  1  0  0  0  0
 12 31  1  0  0  0  0
 13 14  2  0  0  0  0
 13 32  1  0  0  0  0
 14 15  1  0  0  0  0
 14 33  1  0  0  0  0
 15 16  2  0  0  0  0
 16 34  1  0  0  0  0
 17 18  1  0  0  0  0
 17 19  1  0  0  0  0
 18 35  1  0  0  0  0
 18 36  1  0  0  0  0
 18 37  1  0  0  0  0
 19 38  1  0  0  0  0
 19 39  1  0  0  0  0
 19 40  1  0  0  0  0
M  END
> <s_m_source_file>
AV-unprocessed.smi

> <i_m_source_file_index>
805

> <i_lp_mmshare_version>
43012

> <i_f3d_flags>
0

> <s_epik_input>
W0NIM11bQ0gyXU9bQ0BASF0oQzEoW0NIM10pW0NIM10pW0NIMl1bQ0BIXTFbTkhdQyg9TylbTkhdYzJbY0hdW2NIXVtjSF1uW2NIXTI=

> <s_epik_cmdline>
J2VwaWtfcHl0aG9uJywgJy1waCcsICc3LjAnLCAnLXRuJywgJzgnLCAnLW1hJywgJzIwMCcsICctbWV0YWxfYmluZGluZycsICctaW1hZScsICc8aW5maWxlLm1hZT4nLCAnLW9tYWUnLCAnPG91dGZpbGUubWFlPic=

> <r_epik_Ionization_Penalty>
0.00485231

> <r_epik_Ionization_Penalty_Charging>
0

> <r_epik_Ionization_Penalty_Neutral>
0.00485231

> <r_epik_State_Penalty>
0.00349213

> <r_epik_Charging_Adjusted_Penalty>
0.00349213

> <i_epik_Tot_Q>
0

> <i_epik_Tot_abs_Q>
0

> <r_epik_Metal_State_Penalty>
-0

> <b_epik_Metal_Only>
0

> <s_lp_Force_Field>
OPLS_2005

> <r_lp_Energy>
21.475

> <b_lp_Chiralities_Consistent>
1

> <s_lp_Variant>
AV-unprocessed.smi:805-2

> <Gold.Version>
5.8.1

> <Gold.Id.Protein>
6NUR|6NUR_protein|mol2

> <Gold.PLP.Fitness>
39.5908

> <Gold.PLP.PLP>
-34.2924

> <Gold.PLP.part.hbond>
-2.0000

> <Gold.PLP.part.metal>
0.0000

> <Gold.PLP.part.buried>
-3.0637

> <Gold.PLP.part.nonpolar>
-29.1242

> <Gold.PLP.part.repulsive>
0.4318

> <Gold.PLP.ligand.clash>
0.0000

> <Gold.PLP.ligand.torsion>
0.4177

> <Gold.PLP.Chemscore.Hbond>
1.9440

> <Gold.PLP.Chemscore.CHOScore>
0.0000

> <Gold.PLP.Chemscore.Metal>
0.0000

> <Gold.Chemscore.Hbonds>
donor molecule, donor type, donor heavy atom, donor atom, acceptor molecule, acceptor atom, score
      L1  H     7    29       P1  8028  1.00
      L1  H    10    30       P1  8028  1.00

> <Gold.PLP.Chemscore.Internal.Correction>
0.3019

> <Gold.Rescore>
     Score         DG    S(hbond)    S(metal)    S(lipo)     H(rot)  DE(clash)    DE(int)     intcor
     17.71     -20.06       1.91        0.00      99.64       1.36       0.66       1.69       ----

> <Gold.Chemscore.Fitness>
17.7104

> <Gold.Chemscore.DG>
-20.0551

> <Gold.Chemscore.ZeroCoef>
-5.4800

> <Gold.Chemscore.Hbond>
1.9122

> <Gold.Chemscore.Metal>
0.0000

> <Gold.Chemscore.Lipo>
99.6368

> <Gold.Chemscore.Internal_Hbond>
0.0000

> <Gold.Chemscore.DEClash>
0.6559

> <Gold.Chemscore.DEInternal>
1.6889

> <Gold.Chemscore.Rot>
1.3551

> <Gold.Chemscore.Internal.Correction>
   9.000000E+99

> <Gold.Chemscore.Hbonds>
donor molecule, donor type, donor heavy atom, donor atom, acceptor molecule, acceptor atom, score
      L1  H     7    29       P1  8028  0.97
      L1  H    10    30       P1  8028  0.99

> <Gold.Chemscore.Hbond.Weighted>
-6.3867

> <Gold.Chemscore.Metal.Weighted>
-0.0000

> <Gold.Chemscore.Lipo.Weighted>
-11.6575

> <Gold.Chemscore.Internal_Hbond.Weighted>
0.0000

> <Gold.Chemscore.DEClash.Weighted>
0.6559

> <Gold.Chemscore.DEInternal.Weighted>
1.6889

> <Gold.Chemscore.Rot.Weighted>
3.4691

> <Gold.Chemscore.Internal.Correction.Weighted>
   9.000000E+99

> <Gold.Protein.RotatedTorsions>
[ 6907 6896 6895 6894 ] final   92.22 input  -60.11 | X-H torsion
[ 7974 7965 7964 7962 ] final -168.72 input  175.53 | X-H torsion
[ 8008 7997 7996 7995 ] final  -41.89 input   59.86 | X-H torsion
[ 10167 10162 10161 10158 ] final  -50.27 input  -65.29 | X-H torsion
[ 10718 10713 10712 10709 ] final -170.18 input   66.30 | X-H torsion
[ 10763 10752 10751 10750 ] final  -26.92 input  -60.55 | X-H torsion
[ 11005 11000 10999 10996 ] final   75.82 input  -57.11 | X-H torsion

> <Gold.Protein.ActiveResidues>
 VAL166  LYS551  ARG553  GLY616  TRP617  ASP618  TYR619  PRO620  LYS621  CYS622 
 ASP623  PHE694  ASN695  SER759  ASP760  ASP761  ALA762  ILE779  LEU786  VAL792 
 PHE793  MET794  SER795  GLU796  ALA797  LYS798  CYS799  TRP800  GLU811  SER814 

> <Gold.Protein.RotatedAtoms>
  152.5452  134.1536  159.8528 H   0  0  0  0  0  0  0  0  0  0  0  0  # atno 6907 bound_to 6896
  151.1560  133.4869  159.2602 H   0  0  0  0  0  0  0  0  0  0  0  0  # atno 6908 bound_to 6896
  151.1422  135.0196  159.8686 H   0  0  0  0  0  0  0  0  0  0  0  0  # atno 6909 bound_to 6896
  144.7198  140.2328  143.6302 H   0  0  0  0  0  0  0  0  0  0  0  0  # atno 7974 bound_to 7965
  154.4001  140.1487  156.3266 H   0  0  0  0  0  0  0  0  0  0  0  0  # atno 8008 bound_to 7997
  155.8481  140.3459  155.5654 H   0  0  0  0  0  0  0  0  0  0  0  0  # atno 8009 bound_to 7997
  155.8014  140.0870  157.1946 H   0  0  0  0  0  0  0  0  0  0  0  0  # atno 8010 bound_to 7997
  140.6645  143.2664  151.4335 H   0  0  0  0  0  0  0  0  0  0  0  0  # atno 10167 bound_to 10162
  156.7223  130.9275  151.3098 H   0  0  0  0  0  0  0  0  0  0  0  0  # atno 10718 bound_to 10713
  153.7237  135.6943  153.5006 H   0  0  0  0  0  0  0  0  0  0  0  0  # atno 10763 bound_to 10752
  153.2185  135.4378  155.0461 H   0  0  0  0  0  0  0  0  0  0  0  0  # atno 10764 bound_to 10752
  154.8276  135.3454  154.6770 H   0  0  0  0  0  0  0  0  0  0  0  0  # atno 10765 bound_to 10752
  139.9326  134.7549  156.1318 H   0  0  0  0  0  0  0  0  0  0  0  0  # atno 11005 bound_to 11000
  145.8394  139.2123  143.1836 LP  0  0  0  0  0  0  0  0  0  0  0  0  # atno 17320 bound_to 7965
  146.0360  140.8212  142.9852 LP  0  0  0  0  0  0  0  0  0  0  0  0  # atno 17321 bound_to 7965
  139.5890  144.1541  152.2064 LP  0  0  0  0  0  0  0  0  0  0  0  0  # atno 17342 bound_to 10162
  140.0890  144.5637  150.7068 LP  0  0  0  0  0  0  0  0  0  0  0  0  # atno 17343 bound_to 10162
  157.6893  130.9217  150.0469 LP  0  0  0  0  0  0  0  0  0  0  0  0  # atno 17370 bound_to 10713
  156.1586  130.3643  149.9333 LP  0  0  0  0  0  0  0  0  0  0  0  0  # atno 17371 bound_to 10713
  141.0923  133.6709  156.2568 LP  0  0  0  0  0  0  0  0  0  0  0  0  # atno 17394 bound_to 11000
  140.6161  134.5409  157.5541 LP  0  0  0  0  0  0  0  0  0  0  0  0  # atno 17395 bound_to 11000

$$$$
