AV-unprocessed.smi:1554|AV-procd|sdf|6248|dock2
  -GOLD-   22720 6433D 1   1.00000     0.00000
 Structure written by MMmdl.
 48 50  0  0  0  0  0  0  0  0  2 V2000
  152.1092  144.1017  158.9201 C   0  0  0  0  0  0  0  0  0  0  0  0
  152.7993  142.9952  159.6981 C   0  0  0  0  0  0  0  0  0  0  0  0
  153.3765  141.9159  158.9920 C   0  0  0  0  0  0  0  0  0  0  0  0
  154.0292  140.8681  159.6771 C   0  0  0  0  0  0  0  0  0  0  0  0
  154.6538  139.7308  159.1954 N   0  0  0  0  0  0  0  0  0  0  0  0
  155.0607  139.1507  160.3207 C   0  0  0  0  0  0  0  0  0  0  0  0
  154.7663  139.7747  161.4779 N   0  0  0  0  0  0  0  0  0  0  0  0
  155.0928  139.3269  162.8224 C   0  0  0  0  0  0  0  0  0  0  0  0
  155.6857  140.4384  163.7169 C   0  0  2  0  0  0  0  0  0  0  0  0
  156.9494  140.8114  163.2006 O   0  0  0  0  0  0  0  0  0  0  0  0
  155.8548  140.0065  165.1908 C   0  0  0  0  0  0  0  0  0  0  0  0
  156.7168  140.9335  165.9715 N   0  3  1  0  0  0  0  0  0  0  0  0
  156.4606  142.3752  165.7215 C   0  0  0  0  0  0  0  0  0  0  0  0
  155.2026  142.8656  166.4659 C   0  0  0  0  0  0  0  0  0  0  0  0
  155.3106  142.5647  167.8521 O   0  0  0  0  0  0  0  0  0  0  0  0
  155.4280  141.1678  168.0994 C   0  0  2  0  0  0  0  0  0  0  0  0
  155.4411  140.9501  169.6161 C   0  0  0  0  0  0  0  0  0  0  0  0
  156.7183  140.6532  167.4285 C   0  0  0  0  0  0  0  0  0  0  0  0
  154.0877  140.9289  161.1001 C   0  0  0  0  0  0  0  0  0  0  0  0
  153.5194  141.9993  161.8137 C   0  0  0  0  0  0  0  0  0  0  0  0
  152.8702  143.0372  161.1135 C   0  0  0  0  0  0  0  0  0  0  0  0
  152.2579  144.1872  161.8938 C   0  0  0  0  0  0  0  0  0  0  0  0
  152.1752  143.9330  157.8449 H   0  0  0  0  0  0  0  0  0  0  0  0
  152.5712  145.0654  159.1351 H   0  0  0  0  0  0  0  0  0  0  0  0
  151.0534  144.1556  159.1865 H   0  0  0  0  0  0  0  0  0  0  0  0
  153.3235  141.8841  157.9137 H   0  0  0  0  0  0  0  0  0  0  0  0
  155.5970  138.2130  160.3047 H   0  0  0  0  0  0  0  0  0  0  0  0
  154.1922  138.9127  163.2780 H   0  0  0  0  0  0  0  0  0  0  0  0
  155.7998  138.5006  162.7435 H   0  0  0  0  0  0  0  0  0  0  0  0
  155.0304  141.3056  163.6445 H   0  0  0  0  0  0  0  0  0  0  0  0
  157.0082  141.7540  163.1815 H   0  0  0  0  0  0  0  0  0  0  0  0
  154.8797  139.9244  165.6698 H   0  0  0  0  0  0  0  0  0  0  0  0
  156.2850  139.0042  165.2144 H   0  0  0  0  0  0  0  0  0  0  0  0
  157.3254  142.9376  166.0758 H   0  0  0  0  0  0  0  0  0  0  0  0
  156.3787  142.5838  164.6555 H   0  0  0  0  0  0  0  0  0  0  0  0
  155.0999  143.9447  166.3502 H   0  0  0  0  0  0  0  0  0  0  0  0
  154.2949  142.4214  166.0559 H   0  0  0  0  0  0  0  0  0  0  0  0
  154.5582  140.6537  167.6866 H   0  0  0  0  0  0  0  0  0  0  0  0
  155.5235  139.8904  169.8593 H   0  0  0  0  0  0  0  0  0  0  0  0
  154.5241  141.3243  170.0718 H   0  0  0  0  0  0  0  0  0  0  0  0
  156.2803  141.4668  170.0831 H   0  0  0  0  0  0  0  0  0  0  0  0
  156.8558  139.5870  167.6126 H   0  0  0  0  0  0  0  0  0  0  0  0
  157.5824  141.1515  167.8707 H   0  0  0  0  0  0  0  0  0  0  0  0
  153.5828  142.0226  162.8912 H   0  0  0  0  0  0  0  0  0  0  0  0
  152.3688  144.0431  162.9689 H   0  0  0  0  0  0  0  0  0  0  0  0
  151.1930  144.2734  161.6767 H   0  0  0  0  0  0  0  0  0  0  0  0
  152.7429  145.1273  161.6304 H   0  0  0  0  0  0  0  0  0  0  0  0
  157.6576  140.7450  165.6563 H   0  0  0  0  0  0  0  0  0  0  0  0
  1  2  1  0  0  0  0
  1 23  1  0  0  0  0
  1 24  1  0  0  0  0
  1 25  1  0  0  0  0
  2 21  1  0  0  0  0
  2  3  2  0  0  0  0
  3  4  1  0  0  0  0
  3 26  1  0  0  0  0
  4 19  2  0  0  0  0
  4  5  1  0  0  0  0
  5  6  2  0  0  0  0
  6  7  1  0  0  0  0
  6 27  1  0  0  0  0
  7  8  1  0  0  0  0
  7 19  1  0  0  0  0
  8  9  1  0  0  0  0
  8 28  1  0  0  0  0
  8 29  1  0  0  0  0
  9 10  1  0  0  0  0
  9 11  1  0  0  0  0
  9 30  1  0  0  0  0
 10 31  1  0  0  0  0
 11 12  1  0  0  0  0
 11 32  1  0  0  0  0
 11 33  1  0  0  0  0
 12 18  1  0  0  0  0
 12 13  1  0  0  0  0
 12 48  1  0  0  0  0
 13 14  1  0  0  0  0
 13 34  1  0  0  0  0
 13 35  1  0  0  0  0
 14 15  1  0  0  0  0
 14 36  1  0  0  0  0
 14 37  1  0  0  0  0
 15 16  1  0  0  0  0
 16 17  1  0  0  0  0
 16 18  1  0  0  0  0
 16 38  1  0  0  0  0
 17 39  1  0  0  0  0
 17 40  1  0  0  0  0
 17 41  1  0  0  0  0
 18 42  1  0  0  0  0
 18 43  1  0  0  0  0
 19 20  1  0  0  0  0
 20 21  2  0  0  0  0
 20 44  1  0  0  0  0
 21 22  1  0  0  0  0
 22 45  1  0  0  0  0
 22 46  1  0  0  0  0
 22 47  1  0  0  0  0
M  CHG  1  12   1
M  END
> <s_m_source_file>
AV-unprocessed.smi

> <i_m_source_file_index>
1554

> <i_lp_mmshare_version>
43012

> <i_f3d_flags>
0

> <s_epik_input>
W0NIM11jKFtjSF0xKWMoW0NIM10pW2NIXWMoYzEyKW4oW2NIXW4yKVtDSDJdW0NASF0oW09IXSlbQ0gyXU4zW0NIMl1bQ0gyXU9bQ0BASF0oW0NIM10pW0NIMl0z

> <s_epik_cmdline>
J2VwaWtfcHl0aG9uJywgJy1waCcsICc3LjAnLCAnLXRuJywgJzgnLCAnLW1hJywgJzIwMCcsICctbWV0YWxfYmluZGluZycsICctaW1hZScsICc8aW5maWxlLm1hZT4nLCAnLW9tYWUnLCAnPG91dGZpbGUubWFlPic=

> <r_epik_Ionization_Penalty>
0.695251

> <r_epik_Ionization_Penalty_Charging>
0.608065

> <r_epik_Ionization_Penalty_Neutral>
0.0871863

> <r_epik_State_Penalty>
0.731955

> <r_epik_Charging_Adjusted_Penalty>
1.34002

> <i_epik_Tot_Q>
1

> <i_epik_Tot_abs_Q>
1

> <r_epik_Metal_State_Penalty>
0.652186

> <b_epik_Metal_Only>
0

> <s_lp_Force_Field>
OPLS_2005

> <r_lp_Energy>
22.8588

> <b_lp_Chiralities_Consistent>
1

> <s_lp_Variant>
AV-unprocessed.smi:1554-9

> <Gold.Version>
5.8.1

> <Gold.Id.Protein>
6NUR|6NUR_protein|mol2

> <Gold.PLP.Fitness>
48.3900

> <Gold.PLP.PLP>
-46.0812

> <Gold.PLP.part.hbond>
-1.6524

> <Gold.PLP.part.metal>
0.0000

> <Gold.PLP.part.buried>
-4.3016

> <Gold.PLP.part.nonpolar>
-39.4143

> <Gold.PLP.part.repulsive>
0.0860

> <Gold.PLP.ligand.clash>
0.0000

> <Gold.PLP.ligand.torsion>
0.3838

> <Gold.PLP.Chemscore.Hbond>
1.0000

> <Gold.PLP.Chemscore.CHOScore>
0.0000

> <Gold.PLP.Chemscore.Metal>
0.0000

> <Gold.Chemscore.Hbonds>
donor molecule, donor type, donor heavy atom, donor atom, acceptor molecule, acceptor atom, score
      P1  H  7997  8008       L1     5  1.00

> <Gold.PLP.Chemscore.Internal.Correction>
0.0765

> <Gold.Rescore>
     Score         DG    S(hbond)    S(metal)    S(lipo)     H(rot)  DE(clash)    DE(int)     intcor
     16.74     -18.90       0.91        0.00     133.61       2.05       1.85       0.31       ----

> <Gold.Chemscore.Fitness>
16.7425

> <Gold.Chemscore.DG>
-18.9019

> <Gold.Chemscore.ZeroCoef>
-5.4800

> <Gold.Chemscore.Hbond>
0.9130

> <Gold.Chemscore.Metal>
0.0000

> <Gold.Chemscore.Lipo>
133.6082

> <Gold.Chemscore.Internal_Hbond>
0.0000

> <Gold.Chemscore.DEClash>
1.8505

> <Gold.Chemscore.DEInternal>
0.3089

> <Gold.Chemscore.Rot>
2.0546

> <Gold.Chemscore.Internal.Correction>
   9.000000E+99

> <Gold.Chemscore.Hbonds>
donor molecule, donor type, donor heavy atom, donor atom, acceptor molecule, acceptor atom, score
      P1  H  7997  8008       L1     5  0.69

> <Gold.Chemscore.Hbond.Weighted>
-3.0495

> <Gold.Chemscore.Metal.Weighted>
-0.0000

> <Gold.Chemscore.Lipo.Weighted>
-15.6322

> <Gold.Chemscore.Internal_Hbond.Weighted>
0.0000

> <Gold.Chemscore.DEClash.Weighted>
1.8505

> <Gold.Chemscore.DEInternal.Weighted>
0.3089

> <Gold.Chemscore.Rot.Weighted>
5.2597

> <Gold.Chemscore.Internal.Correction.Weighted>
   9.000000E+99

> <Gold.Protein.RotatedTorsions>
[ 6907 6896 6895 6894 ] final   76.00 input  -60.11 | X-H torsion
[ 7974 7965 7964 7962 ] final  -98.56 input  175.53 | X-H torsion
[ 8008 7997 7996 7995 ] final -126.25 input   59.86 | X-H torsion
[ 10167 10162 10161 10158 ] final -135.92 input  -65.29 | X-H torsion
[ 10718 10713 10712 10709 ] final  -90.56 input   66.30 | X-H torsion
[ 10763 10752 10751 10750 ] final   25.25 input  -60.55 | X-H torsion
[ 11005 11000 10999 10996 ] final   79.38 input  -57.11 | X-H torsion

> <Gold.Protein.ActiveResidues>
 VAL166  LYS551  ARG553  GLY616  TRP617  ASP618  TYR619  PRO620  LYS621  CYS622 
 ASP623  PHE694  ASN695  SER759  ASP760  ASP761  ALA762  ILE779  LEU786  VAL792 
 PHE793  MET794  SER795  GLU796  ALA797  LYS798  CYS799  TRP800  GLU811  SER814 

> <Gold.Protein.RotatedAtoms>
  152.5052  134.4035  159.9424 H   0  0  0  0  0  0  0  0  0  0  0  0  # atno 6907 bound_to 6896
  151.4000  133.3754  159.2739 H   0  0  0  0  0  0  0  0  0  0  0  0  # atno 6908 bound_to 6896
  150.9368  134.8801  159.7646 H   0  0  0  0  0  0  0  0  0  0  0  0  # atno 6909 bound_to 6896
  145.3191  140.9417  143.2726 H   0  0  0  0  0  0  0  0  0  0  0  0  # atno 7974 bound_to 7965
  155.2267  140.0424  157.2956 H   0  0  0  0  0  0  0  0  0  0  0  0  # atno 8008 bound_to 7997
  154.5915  140.2428  155.7885 H   0  0  0  0  0  0  0  0  0  0  0  0  # atno 8009 bound_to 7997
  156.2262  140.2954  156.0081 H   0  0  0  0  0  0  0  0  0  0  0  0  # atno 8010 bound_to 7997
  139.8730  143.6934  152.2637 H   0  0  0  0  0  0  0  0  0  0  0  0  # atno 10167 bound_to 10162
  155.9988  130.4914  150.5341 H   0  0  0  0  0  0  0  0  0  0  0  0  # atno 10718 bound_to 10713
  153.0705  135.6587  154.0258 H   0  0  0  0  0  0  0  0  0  0  0  0  # atno 10763 bound_to 10752
  153.9904  135.2946  155.3414 H   0  0  0  0  0  0  0  0  0  0  0  0  # atno 10764 bound_to 10752
  154.7078  135.5218  153.8691 H   0  0  0  0  0  0  0  0  0  0  0  0  # atno 10765 bound_to 10752
  139.9175  134.7838  156.1771 H   0  0  0  0  0  0  0  0  0  0  0  0  # atno 11005 bound_to 11000
  144.8954  139.4719  143.6658 LP  0  0  0  0  0  0  0  0  0  0  0  0  # atno 17320 bound_to 7965
  146.3089  139.7677  142.9035 LP  0  0  0  0  0  0  0  0  0  0  0  0  # atno 17321 bound_to 7965
  139.7266  144.7591  151.0868 LP  0  0  0  0  0  0  0  0  0  0  0  0  # atno 17342 bound_to 10162
  140.7757  143.5140  150.9618 LP  0  0  0  0  0  0  0  0  0  0  0  0  # atno 17343 bound_to 10162
  157.3286  131.0695  151.1878 LP  0  0  0  0  0  0  0  0  0  0  0  0  # atno 17370 bound_to 10713
  157.2766  130.6730  149.6045 LP  0  0  0  0  0  0  0  0  0  0  0  0  # atno 17371 bound_to 10713
  141.0665  133.6817  156.2055 LP  0  0  0  0  0  0  0  0  0  0  0  0  # atno 17394 bound_to 11000
  140.6577  134.5001  157.5581 LP  0  0  0  0  0  0  0  0  0  0  0  0  # atno 17395 bound_to 11000

$$$$
