AV-unprocessed.smi:100|AV-procd|sdf|912|dock5
  -GOLD-   2262017413D 1   1.00000     0.00000
 Structure written by MMmdl.
 31 33  0  0  0  0  0  0  0  0  1 V2000
  148.8332  133.3750  156.8526 N   0  0  0  0  0  0  0  0  0  0  0  0
  149.2958  134.5964  157.1540 C   0  0  0  0  0  0  0  0  0  0  0  0
  149.0955  135.0681  158.4062 N   0  0  0  0  0  0  0  0  0  0  0  0
  149.5403  136.2864  158.7286 C   0  0  0  0  0  0  0  0  0  0  0  0
  150.1946  137.1653  157.9653 N   0  0  0  0  0  0  0  0  0  0  0  0
  150.4056  136.6877  156.7022 C   0  0  0  0  0  0  0  0  0  0  0  0
  149.9796  135.4173  156.2215 C   0  0  0  0  0  0  0  0  0  0  0  0
  150.3389  135.2686  154.8900 N   0  0  0  0  0  0  0  0  0  0  0  0
  150.9373  136.3921  154.6015 C   0  0  0  0  0  0  0  0  0  0  0  0
  151.0529  137.2946  155.6393 N   0  0  0  0  0  0  0  0  0  0  0  0
  151.6600  138.6715  155.5831 C   0  0  1  0  0  0  0  0  0  0  0  0
  150.8829  139.4866  154.7588 O   0  0  0  0  0  0  0  0  0  0  0  0
  149.9132  140.1550  155.5513 C   0  0  2  0  0  0  0  0  0  0  0  0
  149.3140  141.3315  154.7670 C   0  0  0  0  0  0  0  0  0  0  0  0
  149.0899  140.9676  153.4216 O   0  0  0  0  0  0  0  0  0  0  0  0
  150.7472  140.5474  156.7686 C   0  0  1  0  0  0  0  0  0  0  0  0
  149.9905  140.7903  157.8395 F   0  0  0  0  0  0  0  0  0  0  0  0
  151.6354  139.3281  156.9819 C   0  0  2  0  0  0  0  0  0  0  0  0
  152.9199  139.7194  157.4213 O   0  0  0  0  0  0  0  0  0  0  0  0
  148.9671  133.0021  155.9236 H   0  0  0  0  0  0  0  0  0  0  0  0
  148.3508  132.8315  157.5535 H   0  0  0  0  0  0  0  0  0  0  0  0
  149.3446  136.6027  159.7425 H   0  0  0  0  0  0  0  0  0  0  0  0
  151.3183  136.5937  153.6108 H   0  0  0  0  0  0  0  0  0  0  0  0
  152.6548  138.5098  155.1658 H   0  0  0  0  0  0  0  0  0  0  0  0
  149.1341  139.4423  155.8297 H   0  0  0  0  0  0  0  0  0  0  0  0
  148.3786  141.6663  155.2160 H   0  0  0  0  0  0  0  0  0  0  0  0
  150.0009  142.1781  154.7835 H   0  0  0  0  0  0  0  0  0  0  0  0
  149.7271  140.3141  153.1770 H   0  0  0  0  0  0  0  0  0  0  0  0
  151.3372  141.4406  156.5568 H   0  0  0  0  0  0  0  0  0  0  0  0
  151.1833  138.6589  157.7148 H   0  0  0  0  0  0  0  0  0  0  0  0
  152.8924  139.8336  158.3591 H   0  0  0  0  0  0  0  0  0  0  0  0
  1  2  1  0  0  0  0
  1 20  1  0  0  0  0
  1 21  1  0  0  0  0
  2  7  1  0  0  0  0
  2  3  2  0  0  0  0
  3  4  1  0  0  0  0
  4  5  2  0  0  0  0
  4 22  1  0  0  0  0
  5  6  1  0  0  0  0
  6 10  1  0  0  0  0
  6  7  2  0  0  0  0
  7  8  1  0  0  0  0
  8  9  2  0  0  0  0
  9 10  1  0  0  0  0
  9 23  1  0  0  0  0
 10 11  1  0  0  0  0
 11 18  1  0  0  0  0
 11 12  1  0  0  0  0
 11 24  1  0  0  0  0
 12 13  1  0  0  0  0
 13 14  1  0  0  0  0
 13 16  1  0  0  0  0
 13 25  1  0  0  0  0
 14 15  1  0  0  0  0
 14 26  1  0  0  0  0
 14 27  1  0  0  0  0
 15 28  1  0  0  0  0
 16 17  1  0  0  0  0
 16 18  1  0  0  0  0
 16 29  1  0  0  0  0
 18 19  1  0  0  0  0
 18 30  1  0  0  0  0
 19 31  1  0  0  0  0
M  END
> <s_m_source_file>
AV-unprocessed.smi

> <i_m_source_file_index>
100

> <i_lp_mmshare_version>
43012

> <i_f3d_flags>
0

> <s_epik_input>
bjFbY0hdbmMoW05IMl0pYyhjMTIpbltjSF1uMltDQEBIXTNPW0NAQEhdKFtDSDJdW09IXSlbQ0BIXShGKVtDQEhdM1tPSF0=

> <s_epik_cmdline>
J2VwaWtfcHl0aG9uJywgJy1waCcsICc3LjAnLCAnLXRuJywgJzgnLCAnLW1hJywgJzIwMCcsICctbWV0YWxfYmluZGluZycsICctaW1hZScsICc8aW5maWxlLm1hZT4nLCAnLW9tYWUnLCAnPG91dGZpbGUubWFlPic=

> <r_lp_tautomer_probability>
1

> <r_epik_Ionization_Penalty>
0.000750324

> <r_epik_Ionization_Penalty_Charging>
0

> <r_epik_Ionization_Penalty_Neutral>
0.000750324

> <r_epik_State_Penalty>
-0

> <r_epik_Charging_Adjusted_Penalty>
0

> <i_epik_Tot_Q>
0

> <i_epik_Tot_abs_Q>
0

> <r_epik_Metal_State_Penalty>
-0

> <b_epik_Metal_Only>
0

> <s_epik_Chemistry_Notes>
This compound contains an acetal/aminal-like group ( X-CH(R)-Y where X, Y are N, S, or O) that may be acid/base labile, releasing an aldehyde.

> <s_lp_Force_Field>
OPLS_2005

> <r_lp_Energy>
30.8526

> <b_lp_Chiralities_Consistent>
1

> <s_lp_Variant>
AV-unprocessed.smi:100-16

> <Gold.Version>
5.8.1

> <Gold.Id.Protein>
6NUR|6NUR_protein|mol2

> <Gold.PLP.Fitness>
37.3949

> <Gold.PLP.PLP>
-23.9772

> <Gold.PLP.part.hbond>
-5.5145

> <Gold.PLP.part.metal>
0.0000

> <Gold.PLP.part.buried>
-2.7384

> <Gold.PLP.part.nonpolar>
-16.2703

> <Gold.PLP.part.repulsive>
0.2752

> <Gold.PLP.ligand.clash>
0.0000

> <Gold.PLP.ligand.torsion>
0.3304

> <Gold.PLP.Chemscore.Hbond>
3.6761

> <Gold.PLP.Chemscore.CHOScore>
1.0000

> <Gold.PLP.Chemscore.Metal>
0.0000

> <Gold.Chemscore.Hbonds>
donor molecule, donor type, donor heavy atom, donor atom, acceptor molecule, acceptor atom, score
      L1  H    15    28       P1  7957  0.16
      P1  H  6896  6907       L1     3  0.30
      P1  H  7989  7998       L1    12  1.00
      P1  H  7997  8010       L1    19  0.98
      P1  H  8011  8017       L1    15  0.85
      L1  C     9    23       P1  7949  1.00

> <Gold.PLP.Chemscore.Internal.Correction>
0.0500

> <Gold.Rescore>
     Score         DG    S(hbond)    S(metal)    S(lipo)     H(rot)  DE(clash)    DE(int)     intcor
      6.32      -7.94       2.22        0.00      27.60       3.19       0.02       1.61       ----

> <Gold.Chemscore.Fitness>
6.3176

> <Gold.Chemscore.DG>
-7.9428

> <Gold.Chemscore.ZeroCoef>
-5.4800

> <Gold.Chemscore.Hbond>
2.2157

> <Gold.Chemscore.Metal>
0.0000

> <Gold.Chemscore.Lipo>
27.5987

> <Gold.Chemscore.Internal_Hbond>
0.0000

> <Gold.Chemscore.DEClash>
0.0195

> <Gold.Chemscore.DEInternal>
1.6056

> <Gold.Chemscore.Rot>
3.1901

> <Gold.Chemscore.Internal.Correction>
   9.000000E+99

> <Gold.Chemscore.Hbonds>
donor molecule, donor type, donor heavy atom, donor atom, acceptor molecule, acceptor atom, score
      L1  H    15    28       P1  7957  0.16
      P1  H  7989  7998       L1    12  0.57
      P1  H  7997  8010       L1    19  0.92
      P1  H  8011  8017       L1    15  0.09

> <Gold.Chemscore.Hbond.Weighted>
-7.4004

> <Gold.Chemscore.Metal.Weighted>
-0.0000

> <Gold.Chemscore.Lipo.Weighted>
-3.2290

> <Gold.Chemscore.Internal_Hbond.Weighted>
0.0000

> <Gold.Chemscore.DEClash.Weighted>
0.0195

> <Gold.Chemscore.DEInternal.Weighted>
1.6056

> <Gold.Chemscore.Rot.Weighted>
8.1667

> <Gold.Chemscore.Internal.Correction.Weighted>
   9.000000E+99

> <Gold.Protein.RotatedTorsions>
[ 6907 6896 6895 6894 ] final  -82.13 input  -60.11 | X-H torsion
[ 7974 7965 7964 7962 ] final   30.01 input  175.53 | X-H torsion
[ 8008 7997 7996 7995 ] final   70.89 input   59.86 | X-H torsion
[ 10167 10162 10161 10158 ] final  127.50 input  -65.29 | X-H torsion
[ 10718 10713 10712 10709 ] final  144.04 input   66.30 | X-H torsion
[ 10763 10752 10751 10750 ] final   53.98 input  -60.55 | X-H torsion
[ 11005 11000 10999 10996 ] final  -12.89 input  -57.11 | X-H torsion

> <Gold.Protein.ActiveResidues>
 VAL166  LYS551  ARG553  GLY616  TRP617  ASP618  TYR619  PRO620  LYS621  CYS622 
 ASP623  PHE694  ASN695  SER759  ASP760  ASP761  ALA762  ILE779  LEU786  VAL792 
 PHE793  MET794  SER795  GLU796  ALA797  LYS798  CYS799  TRP800  GLU811  SER814 

> <Gold.Protein.RotatedAtoms>
  150.6902  134.3712  159.4992 H   0  0  0  0  0  0  0  0  0  0  0  0  # atno 6907 bound_to 6896
  152.1528  134.8972  160.0556 H   0  0  0  0  0  0  0  0  0  0  0  0  # atno 6908 bound_to 6896
  152.0063  133.3809  159.4239 H   0  0  0  0  0  0  0  0  0  0  0  0  # atno 6909 bound_to 6896
  146.1637  139.6845  142.9016 H   0  0  0  0  0  0  0  0  0  0  0  0  # atno 7974 bound_to 7965
  155.7457  140.3489  155.5126 H   0  0  0  0  0  0  0  0  0  0  0  0  # atno 8008 bound_to 7997
  155.9052  140.1041  157.1342 H   0  0  0  0  0  0  0  0  0  0  0  0  # atno 8009 bound_to 7997
  154.4049  140.1278  156.4474 H   0  0  0  0  0  0  0  0  0  0  0  0  # atno 8010 bound_to 7997
  139.5575  144.6859  151.4140 H   0  0  0  0  0  0  0  0  0  0  0  0  # atno 10167 bound_to 10162
  157.3619  131.0966  151.0907 H   0  0  0  0  0  0  0  0  0  0  0  0  # atno 10718 bound_to 10713
  152.9800  135.5760  154.4830 H   0  0  0  0  0  0  0  0  0  0  0  0  # atno 10763 bound_to 10752
  154.4376  135.2775  155.1872 H   0  0  0  0  0  0  0  0  0  0  0  0  # atno 10764 bound_to 10752
  154.3554  135.6200  153.5717 H   0  0  0  0  0  0  0  0  0  0  0  0  # atno 10765 bound_to 10752
  140.7704  133.8443  155.9202 H   0  0  0  0  0  0  0  0  0  0  0  0  # atno 11005 bound_to 11000
  145.4522  141.0429  143.2798 LP  0  0  0  0  0  0  0  0  0  0  0  0  # atno 17320 bound_to 7965
  144.8063  139.6046  143.7049 LP  0  0  0  0  0  0  0  0  0  0  0  0  # atno 17321 bound_to 7965
  140.6850  143.7995  150.7173 LP  0  0  0  0  0  0  0  0  0  0  0  0  # atno 17342 bound_to 10162
  140.1460  143.4399  152.2163 LP  0  0  0  0  0  0  0  0  0  0  0  0  # atno 17343 bound_to 10162
  157.2044  130.6409  149.5750 LP  0  0  0  0  0  0  0  0  0  0  0  0  # atno 17370 bound_to 10713
  155.9739  130.4680  150.6346 LP  0  0  0  0  0  0  0  0  0  0  0  0  # atno 17371 bound_to 10713
  140.9579  134.1694  157.4677 LP  0  0  0  0  0  0  0  0  0  0  0  0  # atno 17394 bound_to 11000
  139.8757  134.9934  156.5642 LP  0  0  0  0  0  0  0  0  0  0  0  0  # atno 17395 bound_to 11000

$$$$
