AV-unprocessed.smi:334|AV-procd|sdf|2363|dock7
  -GOLD-   2262022273D 1   1.00000     0.00000
 Structure written by MMmdl.
 44 46  0  0  0  0  0  0  0  0  3 V2000
  147.3708  135.0050  154.7834 C   0  0  0  0  0  0  0  0  0  0  0  0
  146.4441  135.6107  153.7161 C   0  0  1  0  0  0  0  0  0  0  0  0
  147.0137  136.8861  153.2838 N   0  0  0  0  0  0  0  0  0  0  0  0
  146.5330  138.1046  153.5754 C   0  0  0  0  0  0  0  0  0  0  0  0
  145.5581  138.2962  154.3030 O   0  0  0  0  0  0  0  0  0  0  0  0
  147.2801  139.2896  152.9498 C   0  0  0  0  0  0  0  0  0  0  0  0
  148.2999  139.8552  153.8486 N   0  0  0  0  0  0  0  0  0  0  0  0
  149.5672  139.2392  153.8522 C   0  0  0  0  0  0  0  0  0  0  0  0
  150.5703  139.6703  154.6418 C   0  0  0  0  0  0  0  0  0  0  0  0
  151.8634  139.0220  154.6373 N   0  3  0  0  0  0  0  0  0  0  0  0
  152.7990  139.5719  155.2096 O   0  0  0  0  0  0  0  0  0  0  0  0
  151.9879  137.9447  154.0623 O   0  5  0  0  0  0  0  0  0  0  0  0
  150.3092  140.8071  155.5035 C   0  0  0  0  0  0  0  0  0  0  0  0
  149.0984  141.3985  155.5073 C   0  0  0  0  0  0  0  0  0  0  0  0
  148.0071  140.9257  154.6494 C   0  0  0  0  0  0  0  0  0  0  0  0
  146.8974  141.4593  154.6508 O   0  0  0  0  0  0  0  0  0  0  0  0
  146.2505  134.6871  152.4872 C   0  0  2  0  0  0  0  0  0  0  0  0
  145.6279  135.4000  151.2587 C   0  0  0  0  0  0  0  0  0  0  0  0
  144.4278  134.5077  150.8991 C   0  0  1  0  0  0  0  0  0  0  0  0
  144.9295  133.1623  150.3442 C   0  0  0  0  0  0  0  0  0  0  0  0
  145.4780  132.4626  151.6015 C   0  0  0  0  0  0  0  0  0  0  0  0
  145.2566  133.5174  152.7026 C   0  0  2  0  0  0  0  0  0  0  0  0
  143.9187  134.1159  152.2789 C   0  0  0  0  0  0  0  0  0  0  0  0
  146.9575  134.0920  155.2099 H   0  0  0  0  0  0  0  0  0  0  0  0
  147.5209  135.7019  155.6090 H   0  0  0  0  0  0  0  0  0  0  0  0
  148.3510  134.7653  154.3701 H   0  0  0  0  0  0  0  0  0  0  0  0
  145.4701  135.7754  154.1794 H   0  0  0  0  0  0  0  0  0  0  0  0
  147.8239  136.8345  152.6834 H   0  0  0  0  0  0  0  0  0  0  0  0
  147.7290  138.9507  152.0155 H   0  0  0  0  0  0  0  0  0  0  0  0
  146.5695  140.0665  152.6601 H   0  0  0  0  0  0  0  0  0  0  0  0
  149.6593  138.3977  153.1810 H   0  0  0  0  0  0  0  0  0  0  0  0
  151.0817  141.1916  156.1529 H   0  0  0  0  0  0  0  0  0  0  0  0
  148.9253  142.2429  156.1583 H   0  0  0  0  0  0  0  0  0  0  0  0
  147.2282  134.2870  152.2133 H   0  0  0  0  0  0  0  0  0  0  0  0
  145.2729  136.4005  151.5091 H   0  0  0  0  0  0  0  0  0  0  0  0
  146.3348  135.5003  150.4345 H   0  0  0  0  0  0  0  0  0  0  0  0
  143.6944  134.9995  150.2596 H   0  0  0  0  0  0  0  0  0  0  0  0
  144.1085  132.5879  149.9131 H   0  0  0  0  0  0  0  0  0  0  0  0
  145.6900  133.2916  149.5733 H   0  0  0  0  0  0  0  0  0  0  0  0
  144.9064  131.5584  151.8142 H   0  0  0  0  0  0  0  0  0  0  0  0
  146.5253  132.1763  151.4985 H   0  0  0  0  0  0  0  0  0  0  0  0
  145.2644  133.0876  153.7034 H   0  0  0  0  0  0  0  0  0  0  0  0
  143.6082  134.9682  152.8853 H   0  0  0  0  0  0  0  0  0  0  0  0
  143.1079  133.3858  152.2487 H   0  0  0  0  0  0  0  0  0  0  0  0
  1  2  1  0  0  0  0
  1 24  1  0  0  0  0
  1 25  1  0  0  0  0
  1 26  1  0  0  0  0
  2  3  1  0  0  0  0
  2 17  1  0  0  0  0
  2 27  1  0  0  0  0
  3  4  1  0  0  0  0
  3 28  1  0  0  0  0
  4  5  2  0  0  0  0
  4  6  1  0  0  0  0
  6  7  1  0  0  0  0
  6 29  1  0  0  0  0
  6 30  1  0  0  0  0
  7 15  1  0  0  0  0
  7  8  1  0  0  0  0
  8  9  2  0  0  0  0
  8 31  1  0  0  0  0
  9 10  1  0  0  0  0
  9 13  1  0  0  0  0
 10 11  2  0  0  0  0
 10 12  1  0  0  0  0
 13 14  2  0  0  0  0
 13 32  1  0  0  0  0
 14 15  1  0  0  0  0
 14 33  1  0  0  0  0
 15 16  2  0  0  0  0
 17 22  1  0  0  0  0
 17 18  1  0  0  0  0
 17 34  1  0  0  0  0
 18 19  1  0  0  0  0
 18 35  1  0  0  0  0
 18 36  1  0  0  0  0
 19 23  1  0  0  0  0
 19 20  1  0  0  0  0
 19 37  1  0  0  0  0
 20 21  1  0  0  0  0
 20 38  1  0  0  0  0
 20 39  1  0  0  0  0
 21 22  1  0  0  0  0
 21 40  1  0  0  0  0
 21 41  1  0  0  0  0
 22 23  1  0  0  0  0
 22 42  1  0  0  0  0
 23 43  1  0  0  0  0
 23 44  1  0  0  0  0
M  CHG  1  10   1
M  CHG  1  12  -1
M  END
> <s_m_source_file>
AV-unprocessed.smi

> <i_m_source_file_index>
334

> <i_lp_mmshare_version>
43012

> <i_f3d_flags>
0

> <s_epik_input>
W0NIMl0xW0NIMl1bQ0BIXShbQ0gyXTIpW0NAQEhdKFtDSDJdW0NAQEhdMTIpW0NASF0oW0NIM10pW05IXUMoPU8pW0NIMl1uM1tjSF1jKFtOK10oPU8pW08tXSlbY0hdW2NIXWMzPU8=

> <s_epik_cmdline>
J2VwaWtfcHl0aG9uJywgJy1waCcsICc3LjAnLCAnLXRuJywgJzgnLCAnLW1hJywgJzIwMCcsICctbWV0YWxfYmluZGluZycsICctaW1hZScsICc8aW5maWxlLm1hZT4nLCAnLW9tYWUnLCAnPG91dGZpbGUubWFlPic=

> <r_lp_tautomer_probability>
1

> <r_epik_Ionization_Penalty>
2.17081e-08

> <r_epik_Ionization_Penalty_Charging>
8.1195e-11

> <r_epik_Ionization_Penalty_Neutral>
2.16269e-08

> <r_epik_State_Penalty>
-0

> <r_epik_Charging_Adjusted_Penalty>
8.1195e-11

> <i_epik_Tot_Q>
0

> <i_epik_Tot_abs_Q>
2

> <r_epik_Metal_State_Penalty>
-0

> <b_epik_Metal_Only>
0

> <s_lp_Force_Field>
OPLS_2005

> <r_lp_Energy>
62.172

> <b_lp_Chiralities_Consistent>
1

> <s_lp_Variant>
AV-unprocessed.smi:334-2

> <Gold.Version>
5.8.1

> <Gold.Id.Protein>
6NUR|6NUR_protein|mol2

> <Gold.PLP.Fitness>
47.6673

> <Gold.PLP.PLP>
-37.9136

> <Gold.PLP.part.hbond>
-3.0000

> <Gold.PLP.part.metal>
0.0000

> <Gold.PLP.part.buried>
1.4359

> <Gold.PLP.part.nonpolar>
-36.2589

> <Gold.PLP.part.repulsive>
0.5282

> <Gold.PLP.ligand.clash>
0.0000

> <Gold.PLP.ligand.torsion>
1.1297

> <Gold.PLP.Chemscore.Hbond>
2.9280

> <Gold.PLP.Chemscore.CHOScore>
1.0692

> <Gold.PLP.Chemscore.Metal>
0.0000

> <Gold.Chemscore.Hbonds>
donor molecule, donor type, donor heavy atom, donor atom, acceptor molecule, acceptor atom, score
      L1  H     3    28       P1  7948  0.98
      P1  H  7997  8008       L1    11  1.00
      L1  C     8    31       P1  7948  0.85
      L1  C     8    31       P1  7957  0.18

> <Gold.PLP.Chemscore.Internal.Correction>
0.0214

> <Gold.Rescore>
     Score         DG    S(hbond)    S(metal)    S(lipo)     H(rot)  DE(clash)    DE(int)     intcor
     17.69     -18.73       2.74        0.00      73.29       1.75       0.03       1.01       ----

> <Gold.Chemscore.Fitness>
17.6873

> <Gold.Chemscore.DG>
-18.7324

> <Gold.Chemscore.ZeroCoef>
-5.4800

> <Gold.Chemscore.Hbond>
2.7399

> <Gold.Chemscore.Metal>
0.0000

> <Gold.Chemscore.Lipo>
73.2862

> <Gold.Chemscore.Internal_Hbond>
0.0000

> <Gold.Chemscore.DEClash>
0.0339

> <Gold.Chemscore.DEInternal>
1.0111

> <Gold.Chemscore.Rot>
1.7474

> <Gold.Chemscore.Internal.Correction>
   9.000000E+99

> <Gold.Chemscore.Hbonds>
donor molecule, donor type, donor heavy atom, donor atom, acceptor molecule, acceptor atom, score
      L1  H     3    28       P1  7948  0.91
      P1  H  7997  8008       L1    11  1.00
      P1  H 10752 10765       L1    12  0.04

> <Gold.Chemscore.Hbond.Weighted>
-9.1512

> <Gold.Chemscore.Metal.Weighted>
-0.0000

> <Gold.Chemscore.Lipo.Weighted>
-8.5745

> <Gold.Chemscore.Internal_Hbond.Weighted>
0.0000

> <Gold.Chemscore.DEClash.Weighted>
0.0339

> <Gold.Chemscore.DEInternal.Weighted>
1.0111

> <Gold.Chemscore.Rot.Weighted>
4.4733

> <Gold.Chemscore.Internal.Correction.Weighted>
   9.000000E+99

> <Gold.Protein.RotatedTorsions>
[ 6907 6896 6895 6894 ] final -120.68 input  -60.11 | X-H torsion
[ 7974 7965 7964 7962 ] final -121.18 input  175.53 | X-H torsion
[ 8008 7997 7996 7995 ] final  -28.01 input   59.86 | X-H torsion
[ 10167 10162 10161 10158 ] final   -7.27 input  -65.29 | X-H torsion
[ 10718 10713 10712 10709 ] final  -43.70 input   66.30 | X-H torsion
[ 10763 10752 10751 10750 ] final  148.64 input  -60.55 | X-H torsion
[ 11005 11000 10999 10996 ] final -123.66 input  -57.11 | X-H torsion

> <Gold.Protein.ActiveResidues>
 VAL166  LYS551  ARG553  GLY616  TRP617  ASP618  TYR619  PRO620  LYS621  CYS622 
 ASP623  PHE694  ASN695  SER759  ASP760  ASP761  ALA762  ILE779  LEU786  VAL792 
 PHE793  MET794  SER795  GLU796  ALA797  LYS798  CYS799  TRP800  GLU811  SER814 

> <Gold.Protein.RotatedAtoms>
  150.8415  133.7928  159.3058 H   0  0  0  0  0  0  0  0  0  0  0  0  # atno 6907 bound_to 6896
  151.5628  135.1063  159.9986 H   0  0  0  0  0  0  0  0  0  0  0  0  # atno 6908 bound_to 6896
  152.4478  133.7527  159.6759 H   0  0  0  0  0  0  0  0  0  0  0  0  # atno 6909 bound_to 6896
  145.0431  140.8160  143.4254 H   0  0  0  0  0  0  0  0  0  0  0  0  # atno 7974 bound_to 7965
  154.4351  140.1857  156.1023 H   0  0  0  0  0  0  0  0  0  0  0  0  # atno 8008 bound_to 7997
  156.0283  140.3333  155.7086 H   0  0  0  0  0  0  0  0  0  0  0  0  # atno 8009 bound_to 7997
  155.5877  140.0628  157.2757 H   0  0  0  0  0  0  0  0  0  0  0  0  # atno 8010 bound_to 7997
  140.7023  143.6100  150.8713 H   0  0  0  0  0  0  0  0  0  0  0  0  # atno 10167 bound_to 10162
  156.2462  130.4184  149.8702 H   0  0  0  0  0  0  0  0  0  0  0  0  # atno 10718 bound_to 10713
  154.0581  135.2876  155.3329 H   0  0  0  0  0  0  0  0  0  0  0  0  # atno 10763 bound_to 10752
  154.6826  135.5257  153.8287 H   0  0  0  0  0  0  0  0  0  0  0  0  # atno 10764 bound_to 10752
  153.0534  135.6585  154.0771 H   0  0  0  0  0  0  0  0  0  0  0  0  # atno 10765 bound_to 10752
  140.9902  134.0550  157.3664 H   0  0  0  0  0  0  0  0  0  0  0  0  # atno 11005 bound_to 11000
  145.1622  139.2452  143.5385 LP  0  0  0  0  0  0  0  0  0  0  0  0  # atno 17320 bound_to 7965
  146.3511  140.1352  142.8596 LP  0  0  0  0  0  0  0  0  0  0  0  0  # atno 17321 bound_to 7965
  139.9823  143.5938  152.2939 LP  0  0  0  0  0  0  0  0  0  0  0  0  # atno 17342 bound_to 10162
  139.6563  144.7662  151.2049 LP  0  0  0  0  0  0  0  0  0  0  0  0  # atno 17343 bound_to 10162
  156.6267  130.8649  151.3487 LP  0  0  0  0  0  0  0  0  0  0  0  0  # atno 17370 bound_to 10713
  157.7196  130.9541  150.1386 LP  0  0  0  0  0  0  0  0  0  0  0  0  # atno 17371 bound_to 10713
  139.8989  135.0156  156.7168 LP  0  0  0  0  0  0  0  0  0  0  0  0  # atno 17394 bound_to 11000
  140.7052  133.9271  155.8049 LP  0  0  0  0  0  0  0  0  0  0  0  0  # atno 17395 bound_to 11000

$$$$
