AV-unprocessed.smi:521|AV-procd|sdf|2800|dock2
  -GOLD-   2262023273D 1   1.00000     0.00000
 Structure written by MMmdl.
 41 43  0  0  0  0  0  0  0  0  2 V2000
  154.2518  140.4536  161.9476 C   0  0  0  0  0  0  0  0  0  0  0  0
  153.5624  140.4015  160.7073 O   0  0  0  0  0  0  0  0  0  0  0  0
  152.9285  141.5434  160.2621 C   0  0  0  0  0  0  0  0  0  0  0  0
  153.0098  142.7949  160.9242 C   0  0  0  0  0  0  0  0  0  0  0  0
  152.3351  143.9185  160.4139 C   0  0  0  0  0  0  0  0  0  0  0  0
  151.5740  143.8065  159.2384 C   0  0  0  0  0  0  0  0  0  0  0  0
  151.4865  142.5705  158.5727 C   0  0  0  0  0  0  0  0  0  0  0  0
  152.1606  141.4303  159.0795 C   0  0  0  0  0  0  0  0  0  0  0  0
  152.1154  140.1874  158.4822 O   0  0  0  0  0  0  0  0  0  0  0  0
  151.0207  139.8845  157.6305 C   0  0  0  0  0  0  0  0  0  0  0  0
  151.3241  140.4439  156.2357 C   0  0  0  0  0  0  0  0  0  0  0  0
  150.3994  139.9181  155.2238 N   0  0  0  0  0  0  0  0  0  0  0  0
  150.5531  138.8906  154.3406 C   0  0  0  0  0  0  0  0  0  0  0  0
  151.7599  138.0195  154.1937 C   0  0  0  0  0  0  0  0  0  0  0  0
  151.5297  136.8757  153.3975 O   0  0  0  0  0  0  0  0  0  0  0  0
  149.3982  138.8061  153.6194 N   0  3  0  0  0  0  0  0  0  0  0  0
  148.4978  139.7813  154.0499 C   0  0  0  0  0  0  0  0  0  0  0  0
  147.2074  140.0825  153.6255 C   0  0  0  0  0  0  0  0  0  0  0  0
  146.5561  141.1448  154.2866 C   0  0  0  0  0  0  0  0  0  0  0  0
  147.1868  141.8608  155.3248 C   0  0  0  0  0  0  0  0  0  0  0  0
  148.4964  141.5475  155.7450 C   0  0  0  0  0  0  0  0  0  0  0  0
  149.1336  140.4973  155.0847 C   0  0  0  0  0  0  0  0  0  0  0  0
  154.6810  139.4749  162.1613 H   0  0  0  0  0  0  0  0  0  0  0  0
  153.5778  140.7028  162.7683 H   0  0  0  0  0  0  0  0  0  0  0  0
  155.0708  141.1736  161.9192 H   0  0  0  0  0  0  0  0  0  0  0  0
  153.5851  142.9201  161.8287 H   0  0  0  0  0  0  0  0  0  0  0  0
  152.4019  144.8672  160.9257 H   0  0  0  0  0  0  0  0  0  0  0  0
  151.0562  144.6696  158.8462 H   0  0  0  0  0  0  0  0  0  0  0  0
  150.8930  142.5243  157.6726 H   0  0  0  0  0  0  0  0  0  0  0  0
  150.8774  138.8046  157.5675 H   0  0  0  0  0  0  0  0  0  0  0  0
  150.1044  140.3303  158.0206 H   0  0  0  0  0  0  0  0  0  0  0  0
  151.2800  141.5333  156.2284 H   0  0  0  0  0  0  0  0  0  0  0  0
  152.3367  140.1731  155.9349 H   0  0  0  0  0  0  0  0  0  0  0  0
  152.5686  138.6021  153.7522 H   0  0  0  0  0  0  0  0  0  0  0  0
  152.0915  137.6991  155.1819 H   0  0  0  0  0  0  0  0  0  0  0  0
  151.3160  137.1588  152.5211 H   0  0  0  0  0  0  0  0  0  0  0  0
  146.7214  139.5340  152.8319 H   0  0  0  0  0  0  0  0  0  0  0  0
  145.5521  141.4146  153.9922 H   0  0  0  0  0  0  0  0  0  0  0  0
  146.6554  142.6673  155.8094 H   0  0  0  0  0  0  0  0  0  0  0  0
  148.9703  142.1008  156.5424 H   0  0  0  0  0  0  0  0  0  0  0  0
  149.2431  138.1228  152.8890 H   0  0  0  0  0  0  0  0  0  0  0  0
  1  2  1  0  0  0  0
  1 23  1  0  0  0  0
  1 24  1  0  0  0  0
  1 25  1  0  0  0  0
  2  3  1  0  0  0  0
  3  8  1  0  0  0  0
  3  4  2  0  0  0  0
  4  5  1  0  0  0  0
  4 26  1  0  0  0  0
  5  6  2  0  0  0  0
  5 27  1  0  0  0  0
  6  7  1  0  0  0  0
  6 28  1  0  0  0  0
  7  8  2  0  0  0  0
  7 29  1  0  0  0  0
  8  9  1  0  0  0  0
  9 10  1  0  0  0  0
 10 11  1  0  0  0  0
 10 30  1  0  0  0  0
 10 31  1  0  0  0  0
 11 12  1  0  0  0  0
 11 32  1  0  0  0  0
 11 33  1  0  0  0  0
 12 22  1  0  0  0  0
 12 13  1  0  0  0  0
 13 14  1  0  0  0  0
 13 16  2  0  0  0  0
 14 15  1  0  0  0  0
 14 34  1  0  0  0  0
 14 35  1  0  0  0  0
 15 36  1  0  0  0  0
 16 17  1  0  0  0  0
 16 41  1  0  0  0  0
 17 22  2  0  0  0  0
 17 18  1  0  0  0  0
 18 19  2  0  0  0  0
 18 37  1  0  0  0  0
 19 20  1  0  0  0  0
 19 38  1  0  0  0  0
 20 21  2  0  0  0  0
 20 39  1  0  0  0  0
 21 22  1  0  0  0  0
 21 40  1  0  0  0  0
M  CHG  1  16   1
M  END
> <s_m_source_file>
AV-unprocessed.smi

> <i_m_source_file_index>
521

> <i_lp_mmshare_version>
43012

> <i_f3d_flags>
0

> <s_epik_input>
W0NIM11PYzFbY0hdW2NIXVtjSF1bY0hdYzFPW0NIMl1bQ0gyXW4oYyhuMilbQ0gyXVtPSF0pYyhjMjMpW2NIXVtjSF1bY0hdW2NIXTM=

> <s_epik_cmdline>
J2VwaWtfcHl0aG9uJywgJy1waCcsICc3LjAnLCAnLXRuJywgJzgnLCAnLW1hJywgJzIwMCcsICctbWV0YWxfYmluZGluZycsICctaW1hZScsICc8aW5maWxlLm1hZT4nLCAnLW9tYWUnLCAnPG91dGZpbGUubWFlPic=

> <r_lp_tautomer_probability>
1

> <r_epik_Ionization_Penalty>
1.50718

> <r_epik_Ionization_Penalty_Charging>
1.50632

> <r_epik_Ionization_Penalty_Neutral>
0.000855784

> <r_epik_State_Penalty>
1.59697

> <r_epik_Charging_Adjusted_Penalty>
3.1033

> <i_epik_Tot_Q>
1

> <i_epik_Tot_abs_Q>
1

> <r_epik_Metal_State_Penalty>
5.64835

> <b_epik_Metal_Only>
0

> <s_lp_Force_Field>
OPLS_2005

> <r_lp_Energy>
22.6327

> <b_lp_Chiralities_Consistent>
1

> <s_lp_Variant>
AV-unprocessed.smi:521-2

> <Gold.Version>
5.8.1

> <Gold.Id.Protein>
6NUR|6NUR_protein|mol2

> <Gold.PLP.Fitness>
65.4632

> <Gold.PLP.PLP>
-55.2367

> <Gold.PLP.part.hbond>
-4.3590

> <Gold.PLP.part.metal>
0.0000

> <Gold.PLP.part.buried>
0.2367

> <Gold.PLP.part.nonpolar>
-50.5331

> <Gold.PLP.part.repulsive>
0.0687

> <Gold.PLP.ligand.clash>
0.0000

> <Gold.PLP.ligand.torsion>
0.9650

> <Gold.PLP.Chemscore.Hbond>
4.0000

> <Gold.PLP.Chemscore.CHOScore>
0.0000

> <Gold.PLP.Chemscore.Metal>
0.0000

> <Gold.Chemscore.Hbonds>
donor molecule, donor type, donor heavy atom, donor atom, acceptor molecule, acceptor atom, score
      L1  H    15    36       P1  7949  0.30
      L1  H    16    41       P1  7948  1.46
      P1  H 10752 10764       L1    15  0.86

> <Gold.PLP.Chemscore.Internal.Correction>
0.1566

> <Gold.Rescore>
     Score         DG    S(hbond)    S(metal)    S(lipo)     H(rot)  DE(clash)    DE(int)     intcor
     21.30     -22.36       2.52        0.00     128.00       2.54       0.10       0.96       ----

> <Gold.Chemscore.Fitness>
21.2979

> <Gold.Chemscore.DG>
-22.3585

> <Gold.Chemscore.ZeroCoef>
-5.4800

> <Gold.Chemscore.Hbond>
2.5189

> <Gold.Chemscore.Metal>
0.0000

> <Gold.Chemscore.Lipo>
127.9983

> <Gold.Chemscore.Internal_Hbond>
0.0000

> <Gold.Chemscore.DEClash>
0.1011

> <Gold.Chemscore.DEInternal>
0.9595

> <Gold.Chemscore.Rot>
2.5431

> <Gold.Chemscore.Internal.Correction>
   9.000000E+99

> <Gold.Chemscore.Hbonds>
donor molecule, donor type, donor heavy atom, donor atom, acceptor molecule, acceptor atom, score
      L1  H    15    36       P1  7949  0.21
      L1  H    16    41       P1  7948  0.70
      P1  H 10752 10764       L1    15  0.16

> <Gold.Chemscore.Hbond.Weighted>
-8.4130

> <Gold.Chemscore.Metal.Weighted>
-0.0000

> <Gold.Chemscore.Lipo.Weighted>
-14.9758

> <Gold.Chemscore.Internal_Hbond.Weighted>
0.0000

> <Gold.Chemscore.DEClash.Weighted>
0.1011

> <Gold.Chemscore.DEInternal.Weighted>
0.9595

> <Gold.Chemscore.Rot.Weighted>
6.5103

> <Gold.Chemscore.Internal.Correction.Weighted>
   9.000000E+99

> <Gold.Protein.RotatedTorsions>
[ 6907 6896 6895 6894 ] final  102.85 input  -60.11 | X-H torsion
[ 7974 7965 7964 7962 ] final  -12.64 input  175.53 | X-H torsion
[ 8008 7997 7996 7995 ] final  155.31 input   59.86 | X-H torsion
[ 10167 10162 10161 10158 ] final -130.39 input  -65.29 | X-H torsion
[ 10718 10713 10712 10709 ] final   77.06 input   66.30 | X-H torsion
[ 10763 10752 10751 10750 ] final  -78.65 input  -60.55 | X-H torsion
[ 11005 11000 10999 10996 ] final  100.29 input  -57.11 | X-H torsion

> <Gold.Protein.ActiveResidues>
 VAL166  LYS551  ARG553  GLY616  TRP617  ASP618  TYR619  PRO620  LYS621  CYS622 
 ASP623  PHE694  ASN695  SER759  ASP760  ASP761  ALA762  ILE779  LEU786  VAL792 
 PHE793  MET794  SER795  GLU796  ALA797  LYS798  CYS799  TRP800  GLU811  SER814 

> <Gold.Protein.RotatedAtoms>
  152.5312  133.9913  159.7852 H   0  0  0  0  0  0  0  0  0  0  0  0  # atno 6907 bound_to 6896
  151.0149  133.5923  159.2685 H   0  0  0  0  0  0  0  0  0  0  0  0  # atno 6908 bound_to 6896
  151.2984  135.0768  159.9283 H   0  0  0  0  0  0  0  0  0  0  0  0  # atno 6909 bound_to 6896
  146.2144  140.3087  142.8381 H   0  0  0  0  0  0  0  0  0  0  0  0  # atno 7974 bound_to 7965
  156.2485  140.1943  156.6781 H   0  0  0  0  0  0  0  0  0  0  0  0  # atno 8008 bound_to 7997
  154.6342  140.0592  156.9795 H   0  0  0  0  0  0  0  0  0  0  0  0  # atno 8009 bound_to 7997
  155.1663  140.3264  155.4404 H   0  0  0  0  0  0  0  0  0  0  0  0  # atno 8010 bound_to 7997
  139.9299  143.6284  152.2532 H   0  0  0  0  0  0  0  0  0  0  0  0  # atno 10167 bound_to 10162
  157.6696  130.9804  150.1586 H   0  0  0  0  0  0  0  0  0  0  0  0  # atno 10718 bound_to 10713
  154.5285  135.5723  153.6739 H   0  0  0  0  0  0  0  0  0  0  0  0  # atno 10763 bound_to 10752
  152.9934  135.6199  154.2660 H   0  0  0  0  0  0  0  0  0  0  0  0  # atno 10764 bound_to 10752
  154.2585  135.2857  155.2767 H   0  0  0  0  0  0  0  0  0  0  0  0  # atno 10765 bound_to 10752
  139.8771  134.9133  156.4734 H   0  0  0  0  0  0  0  0  0  0  0  0  # atno 11005 bound_to 11000
  144.9004  140.7635  143.5870 LP  0  0  0  0  0  0  0  0  0  0  0  0  # atno 17320 bound_to 7965
  145.3013  139.1849  143.4688 LP  0  0  0  0  0  0  0  0  0  0  0  0  # atno 17321 bound_to 7965
  139.6791  144.7657  151.1641 LP  0  0  0  0  0  0  0  0  0  0  0  0  # atno 17342 bound_to 10162
  140.7640  143.5751  150.8954 LP  0  0  0  0  0  0  0  0  0  0  0  0  # atno 17343 bound_to 10162
  156.2368  130.3687  149.8382 LP  0  0  0  0  0  0  0  0  0  0  0  0  # atno 17370 bound_to 10713
  156.6193  130.8619  151.3472 LP  0  0  0  0  0  0  0  0  0  0  0  0  # atno 17371 bound_to 10713
  140.8779  133.7939  155.9435 LP  0  0  0  0  0  0  0  0  0  0  0  0  # atno 17394 bound_to 11000
  140.8884  134.2525  157.5107 LP  0  0  0  0  0  0  0  0  0  0  0  0  # atno 17395 bound_to 11000

$$$$
