AV-unprocessed.smi:2046|AV-procd|sdf|8311|dock2
  -GOLD-   2272010573D 1   1.00000     0.00000
 Structure written by MMmdl.
 30 31  0  0  0  0  0  0  0  0  1 V2000
  145.5824  130.5602  152.6194 O   0  0  0  0  0  0  0  0  0  0  0  0
  146.4773  130.5766  151.7736 C   0  0  0  0  0  0  0  0  0  0  0  0
  147.3678  129.5911  151.5637 N   0  0  0  0  0  0  0  0  0  0  0  0
  147.4819  128.3482  152.2410 C   0  0  0  0  0  0  0  0  0  0  0  0
  146.7280  128.0032  153.2969 N   0  0  0  0  0  0  0  0  0  0  0  0
  147.0436  126.7355  153.7686 N   0  0  0  0  0  0  0  0  0  0  0  0
  148.0213  126.1750  153.0511 C   0  0  0  0  0  0  0  0  0  0  0  0
  148.6525  127.1410  151.7288 S   0  0  0  0  0  0  0  0  0  0  0  0
  146.6832  131.6017  150.9338 N   0  0  0  0  0  0  0  0  0  0  0  0
  145.9178  132.8482  150.9036 C   0  0  2  0  0  0  0  0  0  0  0  0
  146.0601  133.6116  152.2457 C   0  0  0  0  0  0  0  0  0  0  0  0
  144.9174  134.5881  152.5948 C   0  0  0  0  0  0  0  0  0  0  0  0
  144.5799  135.6312  151.5101 C   0  0  0  0  0  0  0  0  0  0  0  0
  144.2359  135.0860  150.1029 C   0  0  0  0  0  0  0  0  0  0  0  0
  143.7478  133.7073  150.0906 N   0  0  0  0  0  0  0  0  0  0  0  0
  144.4713  132.6240  150.4224 C   0  0  0  0  0  0  0  0  0  0  0  0
  143.9938  131.4912  150.3672 O   0  0  0  0  0  0  0  0  0  0  0  0
  148.0463  129.7495  150.8334 H   0  0  0  0  0  0  0  0  0  0  0  0
  148.3734  125.1855  153.3027 H   0  0  0  0  0  0  0  0  0  0  0  0
  147.4443  131.5305  150.2741 H   0  0  0  0  0  0  0  0  0  0  0  0
  146.3797  133.4628  150.1298 H   0  0  0  0  0  0  0  0  0  0  0  0
  146.1366  132.8933  153.0633 H   0  0  0  0  0  0  0  0  0  0  0  0
  147.0065  134.1538  152.2436 H   0  0  0  0  0  0  0  0  0  0  0  0
  144.0185  134.0211  152.8405 H   0  0  0  0  0  0  0  0  0  0  0  0
  145.1780  135.1133  153.5141 H   0  0  0  0  0  0  0  0  0  0  0  0
  143.7301  136.2129  151.8687 H   0  0  0  0  0  0  0  0  0  0  0  0
  145.4012  136.3430  151.4210 H   0  0  0  0  0  0  0  0  0  0  0  0
  143.4795  135.7218  149.6420 H   0  0  0  0  0  0  0  0  0  0  0  0
  145.1068  135.1606  149.4508 H   0  0  0  0  0  0  0  0  0  0  0  0
  142.7950  133.5630  149.7890 H   0  0  0  0  0  0  0  0  0  0  0  0
  1  2  2  0  0  0  0
  2  3  1  0  0  0  0
  2  9  1  0  0  0  0
  3  4  1  0  0  0  0
  3 18  1  0  0  0  0
  4  8  1  0  0  0  0
  4  5  2  0  0  0  0
  5  6  1  0  0  0  0
  6  7  2  0  0  0  0
  7  8  1  0  0  0  0
  7 19  1  0  0  0  0
  9 10  1  0  0  0  0
  9 20  1  0  0  0  0
 10 16  1  0  0  0  0
 10 11  1  0  0  0  0
 10 21  1  0  0  0  0
 11 12  1  0  0  0  0
 11 22  1  0  0  0  0
 11 23  1  0  0  0  0
 12 13  1  0  0  0  0
 12 24  1  0  0  0  0
 12 25  1  0  0  0  0
 13 14  1  0  0  0  0
 13 26  1  0  0  0  0
 13 27  1  0  0  0  0
 14 15  1  0  0  0  0
 14 28  1  0  0  0  0
 14 29  1  0  0  0  0
 15 16  1  0  0  0  0
 15 30  1  0  0  0  0
 16 17  2  0  0  0  0
M  END
> <s_m_source_file>
AV-unprocessed.smi

> <i_m_source_file_index>
2046

> <i_lp_mmshare_version>
43012

> <i_f3d_flags>
0

> <s_epik_input>
czFbY0hdbm5jMVtOSF1DKD1PKVtOSF1bQ0BASF0yW0NIMl1bQ0gyXVtDSDJdW0NIMl1bTkhdQzI9Tw==

> <s_epik_cmdline>
J2VwaWtfcHl0aG9uJywgJy1waCcsICc3LjAnLCAnLXRuJywgJzgnLCAnLW1hJywgJzIwMCcsICctbWV0YWxfYmluZGluZycsICctaW1hZScsICc8aW5maWxlLm1hZT4nLCAnLW9tYWUnLCAnPG91dGZpbGUubWFlPic=

> <r_lp_tautomer_probability>
1

> <r_epik_Ionization_Penalty>
0.000691558

> <r_epik_Ionization_Penalty_Charging>
0

> <r_epik_Ionization_Penalty_Neutral>
0.000691558

> <r_epik_State_Penalty>
-0

> <r_epik_Charging_Adjusted_Penalty>
0

> <i_epik_Tot_Q>
0

> <i_epik_Tot_abs_Q>
0

> <r_epik_Metal_State_Penalty>
0.252698

> <b_epik_Metal_Only>
0

> <s_lp_Force_Field>
OPLS_2005

> <r_lp_Energy>
13.4172

> <b_lp_Chiralities_Consistent>
1

> <s_lp_Variant>
AV-unprocessed.smi:2046-1

> <Gold.Version>
5.8.1

> <Gold.Id.Protein>
6NUR|6NUR_protein|mol2

> <Gold.PLP.Fitness>
34.8489

> <Gold.PLP.PLP>
-26.3811

> <Gold.PLP.part.hbond>
-4.3293

> <Gold.PLP.part.metal>
0.0000

> <Gold.PLP.part.buried>
-3.6882

> <Gold.PLP.part.nonpolar>
-19.6299

> <Gold.PLP.part.repulsive>
0.5781

> <Gold.PLP.ligand.clash>
0.0000

> <Gold.PLP.ligand.torsion>
0.0400

> <Gold.PLP.Chemscore.Hbond>
2.8318

> <Gold.PLP.Chemscore.CHOScore>
0.0000

> <Gold.PLP.Chemscore.Metal>
0.0000

> <Gold.Chemscore.Hbonds>
donor molecule, donor type, donor heavy atom, donor atom, acceptor molecule, acceptor atom, score
      L1  H     3    18       P1 10747  0.81
      L1  H     9    20       P1 10747  0.74
      L1  H    15    30       P1 10186  0.90
      P1  H 10785 10796       L1    17  0.31

> <Gold.PLP.Chemscore.Internal.Correction>
0.0524

> <Gold.Rescore>
     Score         DG    S(hbond)    S(metal)    S(lipo)     H(rot)  DE(clash)    DE(int)     intcor
     12.71     -17.29       2.87        0.00      40.93       1.00       0.85       3.74       ----

> <Gold.Chemscore.Fitness>
12.7052

> <Gold.Chemscore.DG>
-17.2887

> <Gold.Chemscore.ZeroCoef>
-5.4800

> <Gold.Chemscore.Hbond>
2.8683

> <Gold.Chemscore.Metal>
0.0000

> <Gold.Chemscore.Lipo>
40.9290

> <Gold.Chemscore.Internal_Hbond>
0.0000

> <Gold.Chemscore.DEClash>
0.8478

> <Gold.Chemscore.DEInternal>
3.7357

> <Gold.Chemscore.Rot>
1.0000

> <Gold.Chemscore.Internal.Correction>
   9.000000E+99

> <Gold.Chemscore.Hbonds>
donor molecule, donor type, donor heavy atom, donor atom, acceptor molecule, acceptor atom, score
      L1  H     3    18       P1 10747  0.65
      L1  H     9    20       P1 10747  0.74
      L1  H    15    30       P1 10186  0.85
      P1  H 10785 10796       L1    17  0.31

> <Gold.Chemscore.Hbond.Weighted>
-9.5800

> <Gold.Chemscore.Metal.Weighted>
-0.0000

> <Gold.Chemscore.Lipo.Weighted>
-4.7887

> <Gold.Chemscore.Internal_Hbond.Weighted>
0.0000

> <Gold.Chemscore.DEClash.Weighted>
0.8478

> <Gold.Chemscore.DEInternal.Weighted>
3.7357

> <Gold.Chemscore.Rot.Weighted>
2.5600

> <Gold.Chemscore.Internal.Correction.Weighted>
   9.000000E+99

> <Gold.Protein.RotatedTorsions>
[ 6907 6896 6895 6894 ] final -157.92 input  -60.11 | X-H torsion
[ 7974 7965 7964 7962 ] final   71.86 input  175.53 | X-H torsion
[ 8008 7997 7996 7995 ] final   10.24 input   59.86 | X-H torsion
[ 10167 10162 10161 10158 ] final  -97.41 input  -65.29 | X-H torsion
[ 10718 10713 10712 10709 ] final -112.85 input   66.30 | X-H torsion
[ 10763 10752 10751 10750 ] final  -62.12 input  -60.55 | X-H torsion
[ 11005 11000 10999 10996 ] final   85.05 input  -57.11 | X-H torsion

> <Gold.Protein.ActiveResidues>
 VAL166  LYS551  ARG553  GLY616  TRP617  ASP618  TYR619  PRO620  LYS621  CYS622 
 ASP623  PHE694  ASN695  SER759  ASP760  ASP761  ALA762  ILE779  LEU786  VAL792 
 PHE793  MET794  SER795  GLU796  ALA797  LYS798  CYS799  TRP800  GLU811  SER814 

> <Gold.Protein.RotatedAtoms>
  151.3103  133.4083  159.2646 H   0  0  0  0  0  0  0  0  0  0  0  0  # atno 6907 bound_to 6896
  151.0120  134.9405  159.8023 H   0  0  0  0  0  0  0  0  0  0  0  0  # atno 6908 bound_to 6896
  152.5303  134.3067  159.9151 H   0  0  0  0  0  0  0  0  0  0  0  0  # atno 6909 bound_to 6896
  145.7605  139.2799  143.1379 H   0  0  0  0  0  0  0  0  0  0  0  0  # atno 7974 bound_to 7965
  154.7907  140.2835  155.5993 H   0  0  0  0  0  0  0  0  0  0  0  0  # atno 8008 bound_to 7997
  156.2964  140.2605  156.2683 H   0  0  0  0  0  0  0  0  0  0  0  0  # atno 8009 bound_to 7997
  154.9673  140.0376  157.2208 H   0  0  0  0  0  0  0  0  0  0  0  0  # atno 8010 bound_to 7997
  140.2837  143.3265  152.0416 H   0  0  0  0  0  0  0  0  0  0  0  0  # atno 10167 bound_to 10162
  156.0731  130.5942  150.8564 H   0  0  0  0  0  0  0  0  0  0  0  0  # atno 10718 bound_to 10713
  154.2951  135.6246  153.5401 H   0  0  0  0  0  0  0  0  0  0  0  0  # atno 10763 bound_to 10752
  152.9847  135.5665  154.5347 H   0  0  0  0  0  0  0  0  0  0  0  0  # atno 10764 bound_to 10752
  154.4966  135.2870  155.1431 H   0  0  0  0  0  0  0  0  0  0  0  0  # atno 10765 bound_to 10752
  139.8982  134.8259  156.2529 H   0  0  0  0  0  0  0  0  0  0  0  0  # atno 11005 bound_to 11000
  146.0268  140.8296  142.9896 LP  0  0  0  0  0  0  0  0  0  0  0  0  # atno 17320 bound_to 7965
  144.6831  140.2710  143.7306 LP  0  0  0  0  0  0  0  0  0  0  0  0  # atno 17321 bound_to 7965
  139.4956  144.6574  151.6542 LP  0  0  0  0  0  0  0  0  0  0  0  0  # atno 17342 bound_to 10162
  140.5790  143.9978  150.6258 LP  0  0  0  0  0  0  0  0  0  0  0  0  # atno 17343 bound_to 10162
  157.5812  131.0946  150.9268 LP  0  0  0  0  0  0  0  0  0  0  0  0  # atno 17370 bound_to 10713
  156.9463  130.5403  149.5281 LP  0  0  0  0  0  0  0  0  0  0  0  0  # atno 17371 bound_to 10713
  141.0212  133.7040  156.1272 LP  0  0  0  0  0  0  0  0  0  0  0  0  # atno 17394 bound_to 11000
  140.7230  134.4337  157.5573 LP  0  0  0  0  0  0  0  0  0  0  0  0  # atno 17395 bound_to 11000

$$$$
