AV-unprocessed.smi:910|AV-procd|sdf|4135|dock4
  -GOLD-   22720 2 43D 1   1.00000     0.00000
 Structure written by MMmdl.
 45 46  0  0  0  0  0  0  0  0  2 V2000
  146.1985  136.9806  162.8215 C   0  0  0  0  0  0  0  0  0  0  0  0
  147.0436  136.2008  161.8638 C   0  0  0  0  0  0  0  0  0  0  0  0
  147.9092  136.8134  160.9701 N   0  0  0  0  0  0  0  0  0  0  0  0
  148.4932  135.8238  160.2920 C   0  0  0  0  0  0  0  0  0  0  0  0
  149.4089  135.9593  159.3191 N   0  5  0  0  0  0  0  0  0  0  0  0
  149.4440  137.0934  158.5837 C   0  0  0  0  0  0  0  0  0  0  0  0
  148.4916  137.8411  158.3483 O   0  0  0  0  0  0  0  0  0  0  0  0
  150.6571  137.3817  158.0906 N   0  0  0  0  0  0  0  0  0  0  0  0
  150.9938  138.5469  157.2790 C   0  0  0  0  0  0  0  0  0  0  0  0
  150.4776  139.8440  157.9166 C   0  0  0  0  0  0  0  0  0  0  0  0
  151.3922  140.2608  158.9198 O   0  0  0  0  0  0  0  0  0  0  0  0
  151.8792  141.5851  158.7498 C   0  0  1  0  0  0  0  0  0  0  0  0
  150.6865  142.5272  158.4816 C   0  0  0  0  0  0  0  0  0  0  0  0
  151.1298  143.9962  158.4209 C   0  0  0  0  0  0  0  0  0  0  0  0
  151.8683  144.4014  159.7042 C   0  0  0  0  0  0  0  0  0  0  0  0
  153.0605  143.4703  159.9728 C   0  0  0  0  0  0  0  0  0  0  0  0
  152.6293  141.9913  160.0383 C   0  0  2  0  0  0  0  0  0  0  0  0
  153.8423  141.0841  160.3003 C   0  0  0  0  0  0  0  0  0  0  0  0
  148.0454  134.5979  160.6878 O   0  0  0  0  0  0  0  0  0  0  0  0
  147.1374  134.8474  161.6798 C   0  0  0  0  0  0  0  0  0  0  0  0
  146.4745  133.6781  162.3241 C   0  0  0  0  0  0  0  0  0  0  0  0
  145.1383  136.8013  162.6437 H   0  0  0  0  0  0  0  0  0  0  0  0
  146.3723  138.0531  162.7279 H   0  0  0  0  0  0  0  0  0  0  0  0
  146.4146  136.7001  163.8524 H   0  0  0  0  0  0  0  0  0  0  0  0
  151.4101  136.7456  158.3089 H   0  0  0  0  0  0  0  0  0  0  0  0
  152.0769  138.5919  157.1638 H   0  0  0  0  0  0  0  0  0  0  0  0
  150.5810  138.4308  156.2757 H   0  0  0  0  0  0  0  0  0  0  0  0
  150.4007  140.6234  157.1576 H   0  0  0  0  0  0  0  0  0  0  0  0
  149.4777  139.6936  158.3245 H   0  0  0  0  0  0  0  0  0  0  0  0
  152.5794  141.6291  157.9130 H   0  0  0  0  0  0  0  0  0  0  0  0
  150.1889  142.2615  157.5491 H   0  0  0  0  0  0  0  0  0  0  0  0
  149.9421  142.4058  159.2697 H   0  0  0  0  0  0  0  0  0  0  0  0
  151.7810  144.1466  157.5591 H   0  0  0  0  0  0  0  0  0  0  0  0
  150.2631  144.6404  158.2712 H   0  0  0  0  0  0  0  0  0  0  0  0
  152.2121  145.4330  159.6257 H   0  0  0  0  0  0  0  0  0  0  0  0
  151.1796  144.3679  160.5496 H   0  0  0  0  0  0  0  0  0  0  0  0
  153.8059  143.6020  159.1870 H   0  0  0  0  0  0  0  0  0  0  0  0
  153.5436  143.7595  160.9066 H   0  0  0  0  0  0  0  0  0  0  0  0
  151.9434  141.8800  160.8798 H   0  0  0  0  0  0  0  0  0  0  0  0
  154.5597  141.1352  159.4807 H   0  0  0  0  0  0  0  0  0  0  0  0
  153.5419  140.0423  160.4142 H   0  0  0  0  0  0  0  0  0  0  0  0
  154.3598  141.3756  161.2144 H   0  0  0  0  0  0  0  0  0  0  0  0
  145.6749  134.0003  162.9914 H   0  0  0  0  0  0  0  0  0  0  0  0
  147.1920  133.1030  162.9091 H   0  0  0  0  0  0  0  0  0  0  0  0
  146.0422  133.0170  161.5730 H   0  0  0  0  0  0  0  0  0  0  0  0
  1 22  1  0  0  0  0
  1 23  1  0  0  0  0
  1 24  1  0  0  0  0
  1  2  1  0  0  0  0
  2  3  1  0  0  0  0
  2 20  2  0  0  0  0
  3  4  2  0  0  0  0
  4 19  1  0  0  0  0
  4  5  1  0  0  0  0
  5  6  1  0  0  0  0
  6  8  1  0  0  0  0
  6  7  2  0  0  0  0
  8  9  1  0  0  0  0
  8 25  1  0  0  0  0
  9 10  1  0  0  0  0
  9 26  1  0  0  0  0
  9 27  1  0  0  0  0
 10 11  1  0  0  0  0
 10 28  1  0  0  0  0
 10 29  1  0  0  0  0
 11 12  1  0  0  0  0
 12 17  1  0  0  0  0
 12 13  1  0  0  0  0
 12 30  1  0  0  0  0
 13 14  1  0  0  0  0
 13 31  1  0  0  0  0
 13 32  1  0  0  0  0
 14 15  1  0  0  0  0
 14 33  1  0  0  0  0
 14 34  1  0  0  0  0
 15 16  1  0  0  0  0
 15 35  1  0  0  0  0
 15 36  1  0  0  0  0
 16 17  1  0  0  0  0
 16 37  1  0  0  0  0
 16 38  1  0  0  0  0
 17 18  1  0  0  0  0
 17 39  1  0  0  0  0
 18 40  1  0  0  0  0
 18 41  1  0  0  0  0
 18 42  1  0  0  0  0
 19 20  1  0  0  0  0
 20 21  1  0  0  0  0
 21 43  1  0  0  0  0
 21 44  1  0  0  0  0
 21 45  1  0  0  0  0
M  CHG  1   5  -1
M  END
> <s_m_source_file>
AV-unprocessed.smi

> <i_m_source_file_index>
910

> <i_lp_mmshare_version>
43012

> <i_f3d_flags>
0

> <s_epik_input>
W0NIM11jMW5jKG9jMVtDSDNdKVtOSF1DKD1PKVtOSF1bQ0gyXVtDSDJdT1tDQEBIXTJbQ0gyXVtDSDJdW0NIMl1bQ0gyXVtDQEhdMltDSDNd

> <s_epik_cmdline>
J2VwaWtfcHl0aG9uJywgJy1waCcsICc3LjAnLCAnLXRuJywgJzgnLCAnLW1hJywgJzIwMCcsICctbWV0YWxfYmluZGluZycsICctaW1hZScsICc8aW5maWxlLm1hZT4nLCAnLW9tYWUnLCAnPG91dGZpbGUubWFlPic=

> <r_lp_tautomer_probability>
0.107061

> <r_epik_Ionization_Penalty>
10.1763

> <r_epik_Ionization_Penalty_Charging>
7.13067

> <r_epik_Ionization_Penalty_Neutral>
3.04564

> <r_epik_State_Penalty>
5.57927

> <r_epik_Charging_Adjusted_Penalty>
12.7099

> <i_epik_Tot_Q>
-1

> <i_epik_Tot_abs_Q>
1

> <r_epik_Metal_State_Penalty>
1.52303

> <b_epik_Metal_Only>
1

> <s_lp_Force_Field>
OPLS_2005

> <r_lp_Energy>
4.71828

> <b_lp_Chiralities_Consistent>
1

> <s_lp_Variant>
AV-unprocessed.smi:910-20

> <Gold.Version>
5.8.1

> <Gold.Id.Protein>
6NUR|6NUR_protein|mol2

> <Gold.PLP.Fitness>
52.3210

> <Gold.PLP.PLP>
-43.2709

> <Gold.PLP.part.hbond>
-3.0000

> <Gold.PLP.part.metal>
0.0000

> <Gold.PLP.part.buried>
-5.2907

> <Gold.PLP.part.nonpolar>
-35.2632

> <Gold.PLP.part.repulsive>
0.0837

> <Gold.PLP.ligand.clash>
0.0000

> <Gold.PLP.ligand.torsion>
0.8978

> <Gold.PLP.Chemscore.Hbond>
3.5968

> <Gold.PLP.Chemscore.CHOScore>
0.0000

> <Gold.PLP.Chemscore.Metal>
0.0000

> <Gold.Chemscore.Hbonds>
donor molecule, donor type, donor heavy atom, donor atom, acceptor molecule, acceptor atom, score
      P1  H  6896  6907       L1     5  2.00
      P1  H  6931  6943       L1     3  0.96
      P1  H  6934  6947       L1     3  0.23

> <Gold.PLP.Chemscore.Internal.Correction>
0.0554

> <Gold.Rescore>
     Score         DG    S(hbond)    S(metal)    S(lipo)     H(rot)  DE(clash)    DE(int)     intcor
     17.44     -20.96       2.03        0.00     109.83       1.62       0.01       3.51       ----

> <Gold.Chemscore.Fitness>
17.4442

> <Gold.Chemscore.DG>
-20.9599

> <Gold.Chemscore.ZeroCoef>
-5.4800

> <Gold.Chemscore.Hbond>
2.0267

> <Gold.Chemscore.Metal>
0.0000

> <Gold.Chemscore.Lipo>
109.8281

> <Gold.Chemscore.Internal_Hbond>
0.0000

> <Gold.Chemscore.DEClash>
0.0060

> <Gold.Chemscore.DEInternal>
3.5096

> <Gold.Chemscore.Rot>
1.6169

> <Gold.Chemscore.Internal.Correction>
   9.000000E+99

> <Gold.Chemscore.Hbonds>
donor molecule, donor type, donor heavy atom, donor atom, acceptor molecule, acceptor atom, score
      P1  H  6896  6907       L1     5  0.60
      P1  H  6931  6943       L1     3  0.68
      P1  H  6934  6947       L1     3  0.10

> <Gold.Chemscore.Hbond.Weighted>
-6.7692

> <Gold.Chemscore.Metal.Weighted>
-0.0000

> <Gold.Chemscore.Lipo.Weighted>
-12.8499

> <Gold.Chemscore.Internal_Hbond.Weighted>
0.0000

> <Gold.Chemscore.DEClash.Weighted>
0.0060

> <Gold.Chemscore.DEInternal.Weighted>
3.5096

> <Gold.Chemscore.Rot.Weighted>
4.1393

> <Gold.Chemscore.Internal.Correction.Weighted>
   9.000000E+99

> <Gold.Protein.RotatedTorsions>
[ 6907 6896 6895 6894 ] final  -68.32 input  -60.11 | X-H torsion
[ 7974 7965 7964 7962 ] final  -74.12 input  175.53 | X-H torsion
[ 8008 7997 7996 7995 ] final  100.76 input   59.86 | X-H torsion
[ 10167 10162 10161 10158 ] final -163.23 input  -65.29 | X-H torsion
[ 10718 10713 10712 10709 ] final  -31.06 input   66.30 | X-H torsion
[ 10763 10752 10751 10750 ] final  -18.14 input  -60.55 | X-H torsion
[ 11005 11000 10999 10996 ] final -155.65 input  -57.11 | X-H torsion

> <Gold.Protein.ActiveResidues>
 VAL166  LYS551  ARG553  GLY616  TRP617  ASP618  TYR619  PRO620  LYS621  CYS622 
 ASP623  PHE694  ASN695  SER759  ASP760  ASP761  ALA762  ILE779  LEU786  VAL792 
 PHE793  MET794  SER795  GLU796  ALA797  LYS798  CYS799  TRP800  GLU811  SER814 

> <Gold.Protein.RotatedAtoms>
  150.7362  134.5755  159.5911 H   0  0  0  0  0  0  0  0  0  0  0  0  # atno 6907 bound_to 6896
  152.3183  134.7409  160.0329 H   0  0  0  0  0  0  0  0  0  0  0  0  # atno 6908 bound_to 6896
  151.7934  133.3326  159.3542 H   0  0  0  0  0  0  0  0  0  0  0  0  # atno 6909 bound_to 6896
  145.6432  140.9304  143.1024 H   0  0  0  0  0  0  0  0  0  0  0  0  # atno 7974 bound_to 7965
  156.1234  140.3208  155.8242 H   0  0  0  0  0  0  0  0  0  0  0  0  # atno 8008 bound_to 7997
  155.4463  140.0529  157.3023 H   0  0  0  0  0  0  0  0  0  0  0  0  # atno 8009 bound_to 7997
  154.4844  140.2067  155.9701 H   0  0  0  0  0  0  0  0  0  0  0  0  # atno 8010 bound_to 7997
  139.6336  144.0393  152.2036 H   0  0  0  0  0  0  0  0  0  0  0  0  # atno 10167 bound_to 10162
  156.3919  130.4374  149.7388 H   0  0  0  0  0  0  0  0  0  0  0  0  # atno 10718 bound_to 10713
  153.5846  135.7004  153.5448 H   0  0  0  0  0  0  0  0  0  0  0  0  # atno 10763 bound_to 10752
  153.3231  135.4068  155.1433 H   0  0  0  0  0  0  0  0  0  0  0  0  # atno 10764 bound_to 10752
  154.8611  135.3700  154.5375 H   0  0  0  0  0  0  0  0  0  0  0  0  # atno 10765 bound_to 10752
  140.6842  134.4112  157.5224 H   0  0  0  0  0  0  0  0  0  0  0  0  # atno 11005 bound_to 11000
  144.7149  139.8232  143.7402 LP  0  0  0  0  0  0  0  0  0  0  0  0  # atno 17320 bound_to 7965
  146.1263  139.4290  143.0196 LP  0  0  0  0  0  0  0  0  0  0  0  0  # atno 17321 bound_to 7965
  140.0065  144.6255  150.7684 LP  0  0  0  0  0  0  0  0  0  0  0  0  # atno 17342 bound_to 10162
  140.7453  143.2873  151.3428 LP  0  0  0  0  0  0  0  0  0  0  0  0  # atno 17343 bound_to 10162
  156.4438  130.7874  151.2895 LP  0  0  0  0  0  0  0  0  0  0  0  0  # atno 17370 bound_to 10713
  157.7499  131.0117  150.3354 LP  0  0  0  0  0  0  0  0  0  0  0  0  # atno 17371 bound_to 10713
  139.8942  134.8711  156.2185 LP  0  0  0  0  0  0  0  0  0  0  0  0  # atno 17394 bound_to 11000
  141.0293  133.6997  156.1403 LP  0  0  0  0  0  0  0  0  0  0  0  0  # atno 17395 bound_to 11000

$$$$
