AV-unprocessed.smi:2928|AV-procd|sdf|11231|dock2
  -GOLD-   2272016123D 1   1.00000     0.00000
 Structure written by MMmdl.
 55 58  0  0  0  0  0  0  0  0  2 V2000
  146.7428  138.8315  152.8946 C   0  0  0  0  0  0  0  0  0  0  0  0
  147.8810  138.5535  153.8026 N   0  3  2  0  0  0  0  0  0  0  0  0
  147.5074  138.3330  155.2201 C   0  0  2  0  0  0  0  0  0  0  0  0
  147.0229  139.6451  155.8886 C   0  0  0  0  0  0  0  0  0  0  0  0
  147.9747  140.8423  155.7050 C   0  0  0  0  0  0  0  0  0  0  0  0
  148.5930  140.9043  154.2965 C   0  0  0  0  0  0  0  0  0  0  0  0
  148.9967  139.5255  153.7165 C   0  0  1  0  0  0  0  0  0  0  0  0
  150.2655  138.8948  154.3360 C   0  0  0  0  0  0  0  0  0  0  0  0
  150.0771  138.2258  155.7258 C   0  0  1  0  0  0  0  0  0  0  0  0
  150.4516  139.0969  156.8354 N   0  0  0  0  0  0  0  0  0  0  0  0
  151.4850  138.9148  157.6690 C   0  0  0  0  0  0  0  0  0  0  0  0
  152.2400  137.9442  157.6194 O   0  0  0  0  0  0  0  0  0  0  0  0
  151.5886  139.9402  158.5286 N   0  0  0  0  0  0  0  0  0  0  0  0
  152.6123  140.1885  159.4838 C   0  0  0  0  0  0  0  0  0  0  0  0
  153.4405  139.1657  160.0052 C   0  0  0  0  0  0  0  0  0  0  0  0
  154.4137  139.4977  160.9651 C   0  0  0  0  0  0  0  0  0  0  0  0
  154.5196  140.8390  161.3749 C   0  0  0  0  0  0  0  0  0  0  0  0
  153.7281  141.8219  160.8987 N   0  0  0  0  0  0  0  0  0  0  0  0
  152.7876  141.5072  159.9752 C   0  0  0  0  0  0  0  0  0  0  0  0
  151.9734  142.5457  159.4889 N   0  0  0  0  0  0  0  0  0  0  0  0
  152.0622  143.8054  160.2075 C   0  0  0  0  0  0  0  0  0  0  0  0
  151.3951  144.8386  159.2959 C   0  0  0  0  0  0  0  0  0  0  0  0
  151.4530  144.2226  157.8921 C   0  0  0  0  0  0  0  0  0  0  0  0
  152.1471  142.8716  158.0835 C   0  0  0  0  0  0  0  0  0  0  0  0
  148.6707  137.6116  155.9412 C   0  0  0  0  0  0  0  0  0  0  0  0
  146.2349  139.7635  153.1398 H   0  0  0  0  0  0  0  0  0  0  0  0
  146.0109  138.0251  152.9450 H   0  0  0  0  0  0  0  0  0  0  0  0
  147.0879  138.8973  151.8625 H   0  0  0  0  0  0  0  0  0  0  0  0
  146.6649  137.6398  155.2368 H   0  0  0  0  0  0  0  0  0  0  0  0
  146.0539  139.9130  155.4665 H   0  0  0  0  0  0  0  0  0  0  0  0
  146.8376  139.4807  156.9505 H   0  0  0  0  0  0  0  0  0  0  0  0
  147.4332  141.7680  155.9024 H   0  0  0  0  0  0  0  0  0  0  0  0
  148.7544  140.8276  156.4588 H   0  0  0  0  0  0  0  0  0  0  0  0
  147.8685  141.3661  153.6252 H   0  0  0  0  0  0  0  0  0  0  0  0
  149.4515  141.5768  154.2998 H   0  0  0  0  0  0  0  0  0  0  0  0
  149.2203  139.6798  152.6598 H   0  0  0  0  0  0  0  0  0  0  0  0
  150.5973  138.1134  153.6506 H   0  0  0  0  0  0  0  0  0  0  0  0
  151.0806  139.6193  154.3476 H   0  0  0  0  0  0  0  0  0  0  0  0
  150.7828  137.3941  155.7781 H   0  0  0  0  0  0  0  0  0  0  0  0
  149.8915  139.9270  156.9643 H   0  0  0  0  0  0  0  0  0  0  0  0
  150.9365  140.6993  158.3942 H   0  0  0  0  0  0  0  0  0  0  0  0
  153.3362  138.1364  159.6978 H   0  0  0  0  0  0  0  0  0  0  0  0
  155.0612  138.7399  161.3810 H   0  0  0  0  0  0  0  0  0  0  0  0
  155.2555  141.1299  162.1100 H   0  0  0  0  0  0  0  0  0  0  0  0
  151.5637  143.7418  161.1751 H   0  0  0  0  0  0  0  0  0  0  0  0
  153.1049  144.0751  160.3813 H   0  0  0  0  0  0  0  0  0  0  0  0
  150.3562  144.9900  159.5914 H   0  0  0  0  0  0  0  0  0  0  0  0
  151.8993  145.8039  159.3476 H   0  0  0  0  0  0  0  0  0  0  0  0
  150.4425  144.0787  157.5079 H   0  0  0  0  0  0  0  0  0  0  0  0
  151.9914  144.8526  157.1837 H   0  0  0  0  0  0  0  0  0  0  0  0
  153.2067  142.9568  157.8380 H   0  0  0  0  0  0  0  0  0  0  0  0
  151.7131  142.1021  157.4444 H   0  0  0  0  0  0  0  0  0  0  0  0
  148.4525  137.4994  157.0044 H   0  0  0  0  0  0  0  0  0  0  0  0
  148.7029  136.5930  155.5513 H   0  0  0  0  0  0  0  0  0  0  0  0
  148.2579  137.6742  153.4783 H   0  0  0  0  0  0  0  0  0  0  0  0
  1  2  1  0  0  0  0
  1 26  1  0  0  0  0
  1 27  1  0  0  0  0
  1 28  1  0  0  0  0
  2  7  1  0  0  0  0
  2  3  1  0  0  0  0
  2 55  1  0  0  0  0
  3 25  1  0  0  0  0
  3  4  1  0  0  0  0
  3 29  1  0  0  0  0
  4  5  1  0  0  0  0
  4 30  1  0  0  0  0
  4 31  1  0  0  0  0
  5  6  1  0  0  0  0
  5 32  1  0  0  0  0
  5 33  1  0  0  0  0
  6  7  1  0  0  0  0
  6 34  1  0  0  0  0
  6 35  1  0  0  0  0
  7  8  1  0  0  0  0
  7 36  1  0  0  0  0
  8  9  1  0  0  0  0
  8 37  1  0  0  0  0
  8 38  1  0  0  0  0
  9 10  1  0  0  0  0
  9 25  1  0  0  0  0
  9 39  1  0  0  0  0
 10 11  1  0  0  0  0
 10 40  1  0  0  0  0
 11 12  2  0  0  0  0
 11 13  1  0  0  0  0
 13 14  1  0  0  0  0
 13 41  1  0  0  0  0
 14 19  1  0  0  0  0
 14 15  2  0  0  0  0
 15 16  1  0  0  0  0
 15 42  1  0  0  0  0
 16 17  2  0  0  0  0
 16 43  1  0  0  0  0
 17 18  1  0  0  0  0
 17 44  1  0  0  0  0
 18 19  2  0  0  0  0
 19 20  1  0  0  0  0
 20 24  1  0  0  0  0
 20 21  1  0  0  0  0
 21 22  1  0  0  0  0
 21 45  1  0  0  0  0
 21 46  1  0  0  0  0
 22 23  1  0  0  0  0
 22 47  1  0  0  0  0
 22 48  1  0  0  0  0
 23 24  1  0  0  0  0
 23 49  1  0  0  0  0
 23 50  1  0  0  0  0
 24 51  1  0  0  0  0
 24 52  1  0  0  0  0
 25 53  1  0  0  0  0
 25 54  1  0  0  0  0
M  CHG  1   2   1
M  END
> <s_m_source_file>
AV-unprocessed.smi

> <i_m_source_file_index>
2928

> <i_lp_mmshare_version>
43012

> <i_f3d_flags>
0

> <s_epik_input>
W0NIMl0xW0NIMl1bQ0gyXVtDQEhdKE4oW0NIM10pW0NIXTEyKVtDSDJdW0NASF0oW0NIMl0yKVtOSF1DKD1PKVtOSF1jM1tjSF1bY0hdW2NIXW5jM040W0NIMl1bQ0gyXVtDSDJdW0NIMl00

> <s_epik_cmdline>
J2VwaWtfcHl0aG9uJywgJy1waCcsICc3LjAnLCAnLXRuJywgJzgnLCAnLW1hJywgJzIwMCcsICctbWV0YWxfYmluZGluZycsICctaW1hZScsICc8aW5maWxlLm1hZT4nLCAnLW9tYWUnLCAnPG91dGZpbGUubWFlPic=

> <r_lp_tautomer_probability>
1

> <r_epik_Ionization_Penalty>
0.07954

> <r_epik_Ionization_Penalty_Charging>
0.00089841

> <r_epik_Ionization_Penalty_Neutral>
0.0786416

> <r_epik_State_Penalty>
0.0689917

> <r_epik_Charging_Adjusted_Penalty>
0.0698901

> <i_epik_Tot_Q>
1

> <i_epik_Tot_abs_Q>
1

> <r_epik_Metal_State_Penalty>
0.0608947

> <b_epik_Metal_Only>
0

> <s_lp_Force_Field>
OPLS_2005

> <r_lp_Energy>
66.344

> <b_lp_Chiralities_Consistent>
1

> <s_lp_Variant>
AV-unprocessed.smi:2928-1

> <Gold.Version>
5.8.1

> <Gold.Id.Protein>
6NUR|6NUR_protein|mol2

> <Gold.PLP.Fitness>
43.4065

> <Gold.PLP.PLP>
-37.9259

> <Gold.PLP.part.hbond>
-1.8880

> <Gold.PLP.part.metal>
0.0000

> <Gold.PLP.part.buried>
1.3326

> <Gold.PLP.part.nonpolar>
-36.7800

> <Gold.PLP.part.repulsive>
0.1609

> <Gold.PLP.ligand.clash>
0.0000

> <Gold.PLP.ligand.torsion>
0.2707

> <Gold.PLP.Chemscore.Hbond>
1.9825

> <Gold.PLP.Chemscore.CHOScore>
0.0000

> <Gold.PLP.Chemscore.Metal>
0.0000

> <Gold.Chemscore.Hbonds>
donor molecule, donor type, donor heavy atom, donor atom, acceptor molecule, acceptor atom, score
      L1  H     2    55       P1  7948  0.81

> <Gold.PLP.Chemscore.Internal.Correction>
0.0744

> <Gold.Rescore>
     Score         DG    S(hbond)    S(metal)    S(lipo)     H(rot)  DE(clash)    DE(int)     intcor
     16.38     -19.83       0.97        0.00     120.84       1.18       1.80       1.65       ----

> <Gold.Chemscore.Fitness>
16.3824

> <Gold.Chemscore.DG>
-19.8342

> <Gold.Chemscore.ZeroCoef>
-5.4800

> <Gold.Chemscore.Hbond>
0.9673

> <Gold.Chemscore.Metal>
0.0000

> <Gold.Chemscore.Lipo>
120.8400

> <Gold.Chemscore.Internal_Hbond>
0.0000

> <Gold.Chemscore.DEClash>
1.8003

> <Gold.Chemscore.DEInternal>
1.6516

> <Gold.Chemscore.Rot>
1.1776

> <Gold.Chemscore.Internal.Correction>
   9.000000E+99

> <Gold.Chemscore.Hbonds>
donor molecule, donor type, donor heavy atom, donor atom, acceptor molecule, acceptor atom, score
      L1  H     2    55       P1  7948  0.40

> <Gold.Chemscore.Hbond.Weighted>
-3.2307

> <Gold.Chemscore.Metal.Weighted>
-0.0000

> <Gold.Chemscore.Lipo.Weighted>
-14.1383

> <Gold.Chemscore.Internal_Hbond.Weighted>
0.0000

> <Gold.Chemscore.DEClash.Weighted>
1.8003

> <Gold.Chemscore.DEInternal.Weighted>
1.6516

> <Gold.Chemscore.Rot.Weighted>
3.0147

> <Gold.Chemscore.Internal.Correction.Weighted>
   9.000000E+99

> <Gold.Protein.RotatedTorsions>
[ 6907 6896 6895 6894 ] final  -54.11 input  -60.11 | X-H torsion
[ 7974 7965 7964 7962 ] final -144.62 input  175.53 | X-H torsion
[ 8008 7997 7996 7995 ] final -100.67 input   59.86 | X-H torsion
[ 10167 10162 10161 10158 ] final  -57.07 input  -65.29 | X-H torsion
[ 10718 10713 10712 10709 ] final   72.69 input   66.30 | X-H torsion
[ 10763 10752 10751 10750 ] final -130.57 input  -60.55 | X-H torsion
[ 11005 11000 10999 10996 ] final  147.38 input  -57.11 | X-H torsion

> <Gold.Protein.ActiveResidues>
 VAL166  LYS551  ARG553  GLY616  TRP617  ASP618  TYR619  PRO620  LYS621  CYS622 
 ASP623  PHE694  ASN695  SER759  ASP760  ASP761  ALA762  ILE779  LEU786  VAL792 
 PHE793  MET794  SER795  GLU796  ALA797  LYS798  CYS799  TRP800  GLU811  SER814 

> <Gold.Protein.RotatedAtoms>
  150.8367  134.7643  159.6898 H   0  0  0  0  0  0  0  0  0  0  0  0  # atno 6907 bound_to 6896
  152.4462  134.5486  159.9870 H   0  0  0  0  0  0  0  0  0  0  0  0  # atno 6908 bound_to 6896
  151.5634  133.3362  159.3011 H   0  0  0  0  0  0  0  0  0  0  0  0  # atno 6909 bound_to 6896
  144.8285  140.5687  143.5531 H   0  0  0  0  0  0  0  0  0  0  0  0  # atno 7974 bound_to 7965
  154.8318  140.0439  157.1482 H   0  0  0  0  0  0  0  0  0  0  0  0  # atno 8008 bound_to 7997
  154.9144  140.3018  155.5229 H   0  0  0  0  0  0  0  0  0  0  0  0  # atno 8009 bound_to 7997
  156.2987  140.2352  156.4187 H   0  0  0  0  0  0  0  0  0  0  0  0  # atno 8010 bound_to 7997
  140.6280  143.2446  151.5315 H   0  0  0  0  0  0  0  0  0  0  0  0  # atno 10167 bound_to 10162
  157.6513  130.9591  150.0965 H   0  0  0  0  0  0  0  0  0  0  0  0  # atno 10718 bound_to 10713
  154.8755  135.3858  154.4105 H   0  0  0  0  0  0  0  0  0  0  0  0  # atno 10763 bound_to 10752
  153.4819  135.7030  153.5938 H   0  0  0  0  0  0  0  0  0  0  0  0  # atno 10764 bound_to 10752
  153.4350  135.3869  155.2161 H   0  0  0  0  0  0  0  0  0  0  0  0  # atno 10765 bound_to 10752
  140.0871  134.9063  157.1592 H   0  0  0  0  0  0  0  0  0  0  0  0  # atno 11005 bound_to 11000
  145.4948  139.1486  143.3689 LP  0  0  0  0  0  0  0  0  0  0  0  0  # atno 17320 bound_to 7965
  146.2589  140.5087  142.8862 LP  0  0  0  0  0  0  0  0  0  0  0  0  # atno 17321 bound_to 7965
  139.5497  144.2427  152.1508 LP  0  0  0  0  0  0  0  0  0  0  0  0  # atno 17342 bound_to 10162
  140.1663  144.4978  150.6604 LP  0  0  0  0  0  0  0  0  0  0  0  0  # atno 17343 bound_to 10162
  156.1899  130.3654  149.8923 LP  0  0  0  0  0  0  0  0  0  0  0  0  # atno 17370 bound_to 10713
  156.6854  130.8875  151.3581 LP  0  0  0  0  0  0  0  0  0  0  0  0  # atno 17371 bound_to 10713
  140.3405  134.2709  155.7213 LP  0  0  0  0  0  0  0  0  0  0  0  0  # atno 17394 bound_to 11000
  141.2066  133.7829  157.0168 LP  0  0  0  0  0  0  0  0  0  0  0  0  # atno 17395 bound_to 11000

$$$$
