AV-unprocessed.smi:618|AV-procd|sdf|3077|dock4
  -GOLD-   22720 0 03D 1   1.00000     0.00000
 Structure written by MMmdl.
 41 43  0  0  0  0  0  0  0  0  2 V2000
  141.0743  137.0363  154.2705 O   0  0  0  0  0  0  0  0  0  0  0  0
  141.7910  137.9456  153.8548 C   0  0  0  0  0  0  0  0  0  0  0  0
  143.1162  137.8239  153.6940 N   0  0  0  0  0  0  0  0  0  0  0  0
  143.8945  136.6244  153.9936 C   0  0  0  0  0  0  0  0  0  0  0  0
  144.7731  136.1622  152.8130 C   0  0  1  0  0  0  0  0  0  0  0  0
  145.6643  134.9494  153.1410 C   0  0  0  0  0  0  0  0  0  0  0  0
  146.4827  134.5446  151.9701 N   0  3  1  0  0  0  0  0  0  0  0  0
  147.1118  133.2187  152.1592 C   0  0  0  0  0  0  0  0  0  0  0  0
  146.2040  132.1952  151.4522 C   0  0  0  0  0  0  0  0  0  0  0  0
  145.1102  133.0175  150.7607 C   0  0  0  0  0  0  0  0  0  0  0  0
  145.6941  134.4297  150.7237 C   0  0  1  0  0  0  0  0  0  0  0  0
  144.6818  135.5773  150.5312 C   0  0  0  0  0  0  0  0  0  0  0  0
  143.9373  135.8160  151.7165 O   0  0  0  0  0  0  0  0  0  0  0  0
  141.3714  139.1708  153.4947 N   0  0  0  0  0  0  0  0  0  0  0  0
  140.0555  139.7098  153.5124 C   0  0  0  0  0  0  0  0  0  0  0  0
  138.8684  138.9439  153.4066 C   0  0  0  0  0  0  0  0  0  0  0  0
  137.6261  139.6058  153.4502 C   0  0  0  0  0  0  0  0  0  0  0  0
  137.6135  141.0055  153.6036 C   0  0  0  0  0  0  0  0  0  0  0  0
  138.7351  141.7468  153.7169 N   0  0  0  0  0  0  0  0  0  0  0  0
  139.9223  141.1056  153.6741 C   0  0  0  0  0  0  0  0  0  0  0  0
  143.6254  138.6192  153.3370 H   0  0  0  0  0  0  0  0  0  0  0  0
  144.5076  136.7785  154.8833 H   0  0  0  0  0  0  0  0  0  0  0  0
  143.1889  135.8335  154.2481 H   0  0  0  0  0  0  0  0  0  0  0  0
  145.4031  137.0057  152.5243 H   0  0  0  0  0  0  0  0  0  0  0  0
  146.3270  135.1813  153.9755 H   0  0  0  0  0  0  0  0  0  0  0  0
  145.0445  134.1078  153.4544 H   0  0  0  0  0  0  0  0  0  0  0  0
  148.0906  133.2329  151.6783 H   0  0  0  0  0  0  0  0  0  0  0  0
  147.2735  132.9777  153.2111 H   0  0  0  0  0  0  0  0  0  0  0  0
  146.7790  131.6231  150.7229 H   0  0  0  0  0  0  0  0  0  0  0  0
  145.7700  131.4858  152.1577 H   0  0  0  0  0  0  0  0  0  0  0  0
  144.8633  132.6395  149.7681 H   0  0  0  0  0  0  0  0  0  0  0  0
  144.1983  133.0010  151.3594 H   0  0  0  0  0  0  0  0  0  0  0  0
  146.4027  134.4646  149.8941 H   0  0  0  0  0  0  0  0  0  0  0  0
  145.2008  136.4929  150.2431 H   0  0  0  0  0  0  0  0  0  0  0  0
  143.9940  135.3428  149.7185 H   0  0  0  0  0  0  0  0  0  0  0  0
  142.0785  139.7846  153.1177 H   0  0  0  0  0  0  0  0  0  0  0  0
  138.8778  137.8705  153.3050 H   0  0  0  0  0  0  0  0  0  0  0  0
  136.7029  139.0513  153.3706 H   0  0  0  0  0  0  0  0  0  0  0  0
  136.6778  141.5435  153.6413 H   0  0  0  0  0  0  0  0  0  0  0  0
  140.7975  141.7317  153.7704 H   0  0  0  0  0  0  0  0  0  0  0  0
  147.1991  135.2453  151.8421 H   0  0  0  0  0  0  0  0  0  0  0  0
  1  2  2  0  0  0  0
  2  3  1  0  0  0  0
  2 14  1  0  0  0  0
  3  4  1  0  0  0  0
  3 21  1  0  0  0  0
  4  5  1  0  0  0  0
  4 22  1  0  0  0  0
  4 23  1  0  0  0  0
  5 13  1  0  0  0  0
  5  6  1  0  0  0  0
  5 24  1  0  0  0  0
  6  7  1  0  0  0  0
  6 25  1  0  0  0  0
  6 26  1  0  0  0  0
  7 11  1  0  0  0  0
  7  8  1  0  0  0  0
  7 41  1  0  0  0  0
  8  9  1  0  0  0  0
  8 27  1  0  0  0  0
  8 28  1  0  0  0  0
  9 10  1  0  0  0  0
  9 29  1  0  0  0  0
  9 30  1  0  0  0  0
 10 11  1  0  0  0  0
 10 31  1  0  0  0  0
 10 32  1  0  0  0  0
 11 12  1  0  0  0  0
 11 33  1  0  0  0  0
 12 13  1  0  0  0  0
 12 34  1  0  0  0  0
 12 35  1  0  0  0  0
 14 15  1  0  0  0  0
 14 36  1  0  0  0  0
 15 20  1  0  0  0  0
 15 16  2  0  0  0  0
 16 17  1  0  0  0  0
 16 37  1  0  0  0  0
 17 18  2  0  0  0  0
 17 38  1  0  0  0  0
 18 19  1  0  0  0  0
 18 39  1  0  0  0  0
 19 20  2  0  0  0  0
 20 40  1  0  0  0  0
M  CHG  1   7   1
M  END
> <s_m_source_file>
AV-unprocessed.smi

> <i_m_source_file_index>
618

> <i_lp_mmshare_version>
43012

> <i_f3d_flags>
0

> <s_epik_input>
W2NIXTFuW2NIXVtjSF1bY0hdYzFbTkhdQyg9TylbTkhdW0NIMl1bQ0BIXShbQ0gyXTIpT1tDSDJdW0NAQEhdKE4yMylbQ0gyXVtDSDJdW0NIMl0z

> <s_epik_cmdline>
J2VwaWtfcHl0aG9uJywgJy1waCcsICc3LjAnLCAnLXRuJywgJzgnLCAnLW1hJywgJzIwMCcsICctbWV0YWxfYmluZGluZycsICctaW1hZScsICc8aW5maWxlLm1hZT4nLCAnLW9tYWUnLCAnPG91dGZpbGUubWFlPic=

> <r_epik_Ionization_Penalty>
0.111044

> <r_epik_Ionization_Penalty_Charging>
0.10673

> <r_epik_Ionization_Penalty_Neutral>
0.00431361

> <r_epik_State_Penalty>
0.0978747

> <r_epik_Charging_Adjusted_Penalty>
0.204605

> <i_epik_Tot_Q>
1

> <i_epik_Tot_abs_Q>
1

> <r_epik_Metal_State_Penalty>
0.0947591

> <b_epik_Metal_Only>
0

> <s_lp_Force_Field>
OPLS_2005

> <r_lp_Energy>
41.8914

> <b_lp_Chiralities_Consistent>
1

> <s_lp_Variant>
AV-unprocessed.smi:618-4

> <Gold.Version>
5.8.1

> <Gold.Id.Protein>
6NUR|6NUR_protein|mol2

> <Gold.PLP.Fitness>
42.1144

> <Gold.PLP.PLP>
-27.6880

> <Gold.PLP.part.hbond>
-3.6057

> <Gold.PLP.part.metal>
0.0000

> <Gold.PLP.part.buried>
0.1949

> <Gold.PLP.part.nonpolar>
-24.3411

> <Gold.PLP.part.repulsive>
0.3642

> <Gold.PLP.ligand.clash>
0.0000

> <Gold.PLP.ligand.torsion>
0.1895

> <Gold.PLP.Chemscore.Hbond>
3.9440

> <Gold.PLP.Chemscore.CHOScore>
0.9909

> <Gold.PLP.Chemscore.Metal>
0.0000

> <Gold.Chemscore.Hbonds>
donor molecule, donor type, donor heavy atom, donor atom, acceptor molecule, acceptor atom, score
      L1  H     3    21       P1 10175  0.99
      L1  H     7    41       P1  7948  2.00
      L1  H    14    36       P1 10175  1.00
      L1  C    20    40       P1 10174  0.96

> <Gold.PLP.Chemscore.Internal.Correction>
0.0007

> <Gold.Rescore>
     Score         DG    S(hbond)    S(metal)    S(lipo)     H(rot)  DE(clash)    DE(int)     intcor
     18.49     -19.81       2.74        0.00      71.95       1.27       0.25       1.06       ----

> <Gold.Chemscore.Fitness>
18.4940

> <Gold.Chemscore.DG>
-19.8052

> <Gold.Chemscore.ZeroCoef>
-5.4800

> <Gold.Chemscore.Hbond>
2.7385

> <Gold.Chemscore.Metal>
0.0000

> <Gold.Chemscore.Lipo>
71.9531

> <Gold.Chemscore.Internal_Hbond>
0.0000

> <Gold.Chemscore.DEClash>
0.2531

> <Gold.Chemscore.DEInternal>
1.0581

> <Gold.Chemscore.Rot>
1.2656

> <Gold.Chemscore.Internal.Correction>
   9.000000E+99

> <Gold.Chemscore.Hbonds>
donor molecule, donor type, donor heavy atom, donor atom, acceptor molecule, acceptor atom, score
      L1  H     3    21       P1 10175  0.89
      L1  H     7    41       P1  7948  0.96
      L1  H    14    36       P1 10175  0.65

> <Gold.Chemscore.Hbond.Weighted>
-9.1466

> <Gold.Chemscore.Metal.Weighted>
-0.0000

> <Gold.Chemscore.Lipo.Weighted>
-8.4185

> <Gold.Chemscore.Internal_Hbond.Weighted>
0.0000

> <Gold.Chemscore.DEClash.Weighted>
0.2531

> <Gold.Chemscore.DEInternal.Weighted>
1.0581

> <Gold.Chemscore.Rot.Weighted>
3.2399

> <Gold.Chemscore.Internal.Correction.Weighted>
   9.000000E+99

> <Gold.Protein.RotatedTorsions>
[ 6907 6896 6895 6894 ] final  142.38 input  -60.11 | X-H torsion
[ 7974 7965 7964 7962 ] final   56.11 input  175.53 | X-H torsion
[ 8008 7997 7996 7995 ] final   61.29 input   59.86 | X-H torsion
[ 10167 10162 10161 10158 ] final -130.97 input  -65.29 | X-H torsion
[ 10718 10713 10712 10709 ] final -153.12 input   66.30 | X-H torsion
[ 10763 10752 10751 10750 ] final  -60.52 input  -60.55 | X-H torsion
[ 11005 11000 10999 10996 ] final -146.56 input  -57.11 | X-H torsion

> <Gold.Protein.ActiveResidues>
 VAL166  LYS551  ARG553  GLY616  TRP617  ASP618  TYR619  PRO620  LYS621  CYS622 
 ASP623  PHE694  ASN695  SER759  ASP760  ASP761  ALA762  ILE779  LEU786  VAL792 
 PHE793  MET794  SER795  GLU796  ALA797  LYS798  CYS799  TRP800  GLU811  SER814 

> <Gold.Protein.RotatedAtoms>
  152.2195  133.4972  159.5154 H   0  0  0  0  0  0  0  0  0  0  0  0  # atno 6907 bound_to 6896
  150.7009  134.1361  159.4097 H   0  0  0  0  0  0  0  0  0  0  0  0  # atno 6908 bound_to 6896
  151.9282  135.0268  160.0578 H   0  0  0  0  0  0  0  0  0  0  0  0  # atno 6909 bound_to 6896
  145.9433  139.3907  143.0350 H   0  0  0  0  0  0  0  0  0  0  0  0  # atno 7974 bound_to 7965
  155.5961  140.3493  155.4580 H   0  0  0  0  0  0  0  0  0  0  0  0  # atno 8008 bound_to 7997
  156.0264  140.1265  157.0328 H   0  0  0  0  0  0  0  0  0  0  0  0  # atno 8009 bound_to 7997
  154.4335  140.1052  156.6023 H   0  0  0  0  0  0  0  0  0  0  0  0  # atno 8010 bound_to 7997
  139.9238  143.6351  152.2547 H   0  0  0  0  0  0  0  0  0  0  0  0  # atno 10167 bound_to 10162
  156.4815  130.8305  151.2532 H   0  0  0  0  0  0  0  0  0  0  0  0  # atno 10718 bound_to 10713
  154.2705  135.6291  153.5308 H   0  0  0  0  0  0  0  0  0  0  0  0  # atno 10763 bound_to 10752
  152.9881  135.5609  154.5605 H   0  0  0  0  0  0  0  0  0  0  0  0  # atno 10764 bound_to 10752
  154.5174  135.2880  155.1267 H   0  0  0  0  0  0  0  0  0  0  0  0  # atno 10765 bound_to 10752
  140.7808  134.3082  157.5046 H   0  0  0  0  0  0  0  0  0  0  0  0  # atno 11005 bound_to 11000
  145.8270  140.9650  143.0869 LP  0  0  0  0  0  0  0  0  0  0  0  0  # atno 17320 bound_to 7965
  144.6783  140.0114  143.7484 LP  0  0  0  0  0  0  0  0  0  0  0  0  # atno 17321 bound_to 7965
  139.6839  144.7653  151.1558 LP  0  0  0  0  0  0  0  0  0  0  0  0  # atno 17342 bound_to 10162
  140.7655  143.5685  150.9022 LP  0  0  0  0  0  0  0  0  0  0  0  0  # atno 17343 bound_to 10162
  157.7483  131.0043  150.3071 LP  0  0  0  0  0  0  0  0  0  0  0  0  # atno 17370 bound_to 10713
  156.3517  130.3832  149.7324 LP  0  0  0  0  0  0  0  0  0  0  0  0  # atno 17371 bound_to 10713
  139.8743  134.9317  156.3535 LP  0  0  0  0  0  0  0  0  0  0  0  0  # atno 17394 bound_to 11000
  140.9485  133.7467  156.0240 LP  0  0  0  0  0  0  0  0  0  0  0  0  # atno 17395 bound_to 11000

$$$$
