AV-unprocessed.smi:2911|AV-procd|sdf|11180|dock2
  -GOLD-   2272016 73D 1   1.00000     0.00000
 Structure written by MMmdl.
 41 42  0  0  0  0  0  0  0  0  1 V2000
  153.1439  138.5645  154.5841 C   0  0  0  0  0  0  0  0  0  0  0  0
  151.7312  139.0265  154.6973 C   0  0  0  0  0  0  0  0  0  0  0  0
  150.7235  138.1627  154.7245 N   0  0  0  0  0  0  0  0  0  0  0  0
  149.5943  138.9868  154.8348 O   0  0  0  0  0  0  0  0  0  0  0  0
  150.0663  140.2558  154.8820 C   0  0  0  0  0  0  0  0  0  0  0  0
  149.0935  141.3843  154.9547 C   0  0  0  0  0  0  0  0  0  0  0  0
  148.6883  141.7168  156.3995 C   0  0  0  0  0  0  0  0  0  0  0  0
  149.6868  142.5516  157.0576 N   0  0  0  0  0  0  0  0  0  0  0  0
  149.6568  142.9228  158.3489 C   0  0  0  0  0  0  0  0  0  0  0  0
  148.7225  142.6268  159.0939 O   0  0  0  0  0  0  0  0  0  0  0  0
  150.6827  143.7381  158.7034 N   0  0  0  0  0  0  0  0  0  0  0  0
  152.0379  143.5311  158.1621 C   0  0  0  0  0  0  0  0  0  0  0  0
  152.8269  142.6193  159.1219 C   0  0  0  0  0  0  0  0  0  0  0  0
  152.8763  143.2094  160.5476 C   0  0  2  0  0  0  0  0  0  0  0  0
  153.5534  142.2499  161.5357 C   0  0  0  0  0  0  0  0  0  0  0  0
  151.4683  143.6240  161.0286 C   0  0  0  0  0  0  0  0  0  0  0  0
  150.7552  144.4944  159.9730 C   0  0  2  0  0  0  0  0  0  0  0  0
  149.4135  145.0615  160.4836 C   0  0  0  0  0  0  0  0  0  0  0  0
  151.3908  140.3418  154.7830 N   0  0  0  0  0  0  0  0  0  0  0  0
  153.1942  137.5888  154.0995 H   0  0  0  0  0  0  0  0  0  0  0  0
  153.5924  138.4839  155.5743 H   0  0  0  0  0  0  0  0  0  0  0  0
  153.7300  139.2702  153.9948 H   0  0  0  0  0  0  0  0  0  0  0  0
  149.5408  142.2552  154.4739 H   0  0  0  0  0  0  0  0  0  0  0  0
  148.2119  141.1221  154.3684 H   0  0  0  0  0  0  0  0  0  0  0  0
  147.7406  142.2560  156.4040 H   0  0  0  0  0  0  0  0  0  0  0  0
  148.5283  140.8018  156.9724 H   0  0  0  0  0  0  0  0  0  0  0  0
  150.4606  142.8699  156.4924 H   0  0  0  0  0  0  0  0  0  0  0  0
  152.0422  143.0949  157.1628 H   0  0  0  0  0  0  0  0  0  0  0  0
  152.5432  144.4922  158.0571 H   0  0  0  0  0  0  0  0  0  0  0  0
  152.3622  141.6324  159.1464 H   0  0  0  0  0  0  0  0  0  0  0  0
  153.8393  142.4727  158.7439 H   0  0  0  0  0  0  0  0  0  0  0  0
  153.4840  144.1143  160.5030 H   0  0  0  0  0  0  0  0  0  0  0  0
  152.9937  141.3190  161.6309 H   0  0  0  0  0  0  0  0  0  0  0  0
  153.6280  142.6965  162.5276 H   0  0  0  0  0  0  0  0  0  0  0  0
  154.5634  141.9994  161.2101 H   0  0  0  0  0  0  0  0  0  0  0  0
  150.8693  142.7362  161.2375 H   0  0  0  0  0  0  0  0  0  0  0  0
  151.5485  144.1696  161.9696 H   0  0  0  0  0  0  0  0  0  0  0  0
  151.3796  145.3698  159.7861 H   0  0  0  0  0  0  0  0  0  0  0  0
  149.5850  145.7758  161.2893 H   0  0  0  0  0  0  0  0  0  0  0  0
  148.7578  144.2897  160.8856 H   0  0  0  0  0  0  0  0  0  0  0  0
  148.8784  145.5870  159.6921 H   0  0  0  0  0  0  0  0  0  0  0  0
  1  2  1  0  0  0  0
  1 20  1  0  0  0  0
  1 21  1  0  0  0  0
  1 22  1  0  0  0  0
  2 19  1  0  0  0  0
  2  3  2  0  0  0  0
  3  4  1  0  0  0  0
  4  5  1  0  0  0  0
  5  6  1  0  0  0  0
  5 19  2  0  0  0  0
  6  7  1  0  0  0  0
  6 23  1  0  0  0  0
  6 24  1  0  0  0  0
  7  8  1  0  0  0  0
  7 25  1  0  0  0  0
  7 26  1  0  0  0  0
  8  9  1  0  0  0  0
  8 27  1  0  0  0  0
  9 10  2  0  0  0  0
  9 11  1  0  0  0  0
 11 17  1  0  0  0  0
 11 12  1  0  0  0  0
 12 13  1  0  0  0  0
 12 28  1  0  0  0  0
 12 29  1  0  0  0  0
 13 14  1  0  0  0  0
 13 30  1  0  0  0  0
 13 31  1  0  0  0  0
 14 15  1  0  0  0  0
 14 16  1  0  0  0  0
 14 32  1  0  0  0  0
 15 33  1  0  0  0  0
 15 34  1  0  0  0  0
 15 35  1  0  0  0  0
 16 17  1  0  0  0  0
 16 36  1  0  0  0  0
 16 37  1  0  0  0  0
 17 18  1  0  0  0  0
 17 38  1  0  0  0  0
 18 39  1  0  0  0  0
 18 40  1  0  0  0  0
 18 41  1  0  0  0  0
M  END
> <s_m_source_file>
AV-unprocessed.smi

> <i_m_source_file_index>
2911

> <i_lp_mmshare_version>
43012

> <i_f3d_flags>
0

> <s_epik_input>
W0NIM11jMW5vYyhuMSlbQ0gyXVtDSDJdW05IXUMoPU8pTjJbQ0gyXVtDSDJdW0NAQEhdKFtDSDNdKVtDSDJdW0NASF0yW0NIM10=

> <s_epik_cmdline>
J2VwaWtfcHl0aG9uJywgJy1waCcsICc3LjAnLCAnLXRuJywgJzgnLCAnLW1hJywgJzIwMCcsICctbWV0YWxfYmluZGluZycsICctaW1hZScsICc8aW5maWxlLm1hZT4nLCAnLW9tYWUnLCAnPG91dGZpbGUubWFlPic=

> <r_lp_tautomer_probability>
1

> <r_epik_Ionization_Penalty>
6.61671e-05

> <r_epik_Ionization_Penalty_Charging>
0

> <r_epik_Ionization_Penalty_Neutral>
6.61671e-05

> <r_epik_State_Penalty>
-0

> <r_epik_Charging_Adjusted_Penalty>
0

> <i_epik_Tot_Q>
0

> <i_epik_Tot_abs_Q>
0

> <r_epik_Metal_State_Penalty>
-0

> <b_epik_Metal_Only>
0

> <s_lp_Force_Field>
OPLS_2005

> <r_lp_Energy>
29.3819

> <b_lp_Chiralities_Consistent>
1

> <s_lp_Variant>
AV-unprocessed.smi:2911-4

> <Gold.Version>
5.8.1

> <Gold.Id.Protein>
6NUR|6NUR_protein|mol2

> <Gold.PLP.Fitness>
42.0368

> <Gold.PLP.PLP>
-39.9560

> <Gold.PLP.part.hbond>
-2.9872

> <Gold.PLP.part.metal>
0.0000

> <Gold.PLP.part.buried>
-3.1532

> <Gold.PLP.part.nonpolar>
-35.1245

> <Gold.PLP.part.repulsive>
0.4250

> <Gold.PLP.ligand.clash>
0.0000

> <Gold.PLP.ligand.torsion>
0.7406

> <Gold.PLP.Chemscore.Hbond>
1.0442

> <Gold.PLP.Chemscore.CHOScore>
0.0000

> <Gold.PLP.Chemscore.Metal>
0.0000

> <Gold.Chemscore.Hbonds>
donor molecule, donor type, donor heavy atom, donor atom, acceptor molecule, acceptor atom, score
      P1  H  6933  6944       L1    10  0.05
      P1  H  7989  7998       L1    19  0.68

> <Gold.PLP.Chemscore.Internal.Correction>
0.4294

> <Gold.Rescore>
     Score         DG    S(hbond)    S(metal)    S(lipo)     H(rot)  DE(clash)    DE(int)     intcor
     14.35     -16.34       1.13        0.00      95.82       1.61       0.32       1.66       ----

> <Gold.Chemscore.Fitness>
14.3494

> <Gold.Chemscore.DG>
-16.3382

> <Gold.Chemscore.ZeroCoef>
-5.4800

> <Gold.Chemscore.Hbond>
1.1274

> <Gold.Chemscore.Metal>
0.0000

> <Gold.Chemscore.Lipo>
95.8230

> <Gold.Chemscore.Internal_Hbond>
0.0000

> <Gold.Chemscore.DEClash>
0.3238

> <Gold.Chemscore.DEInternal>
1.6650

> <Gold.Chemscore.Rot>
1.6088

> <Gold.Chemscore.Internal.Correction>
   9.000000E+99

> <Gold.Chemscore.Hbonds>
donor molecule, donor type, donor heavy atom, donor atom, acceptor molecule, acceptor atom, score
      P1  H  6933  6944       L1    10  0.06
      P1  H  7989  7998       L1    19  0.19

> <Gold.Chemscore.Hbond.Weighted>
-3.7655

> <Gold.Chemscore.Metal.Weighted>
-0.0000

> <Gold.Chemscore.Lipo.Weighted>
-11.2113

> <Gold.Chemscore.Internal_Hbond.Weighted>
0.0000

> <Gold.Chemscore.DEClash.Weighted>
0.3238

> <Gold.Chemscore.DEInternal.Weighted>
1.6650

> <Gold.Chemscore.Rot.Weighted>
4.1186

> <Gold.Chemscore.Internal.Correction.Weighted>
   9.000000E+99

> <Gold.Protein.RotatedTorsions>
[ 6907 6896 6895 6894 ] final   14.72 input  -60.11 | X-H torsion
[ 7974 7965 7964 7962 ] final  -30.81 input  175.53 | X-H torsion
[ 8008 7997 7996 7995 ] final  -42.96 input   59.86 | X-H torsion
[ 10167 10162 10161 10158 ] final   60.77 input  -65.29 | X-H torsion
[ 10718 10713 10712 10709 ] final  122.28 input   66.30 | X-H torsion
[ 10763 10752 10751 10750 ] final -174.07 input  -60.55 | X-H torsion
[ 11005 11000 10999 10996 ] final  104.87 input  -57.11 | X-H torsion

> <Gold.Protein.ActiveResidues>
 VAL166  LYS551  ARG553  GLY616  TRP617  ASP618  TYR619  PRO620  LYS621  CYS622 
 ASP623  PHE694  ASN695  SER759  ASP760  ASP761  ALA762  ILE779  LEU786  VAL792 
 PHE793  MET794  SER795  GLU796  ALA797  LYS798  CYS799  TRP800  GLU811  SER814 

> <Gold.Protein.RotatedAtoms>
  151.8067  135.0693  160.0407 H   0  0  0  0  0  0  0  0  0  0  0  0  # atno 6907 bound_to 6896
  152.3050  133.5690  159.5652 H   0  0  0  0  0  0  0  0  0  0  0  0  # atno 6908 bound_to 6896
  150.7292  134.0152  159.3725 H   0  0  0  0  0  0  0  0  0  0  0  0  # atno 6909 bound_to 6896
  146.1114  140.5588  142.8776 H   0  0  0  0  0  0  0  0  0  0  0  0  # atno 7974 bound_to 7965
  154.3997  140.1460  156.3441 H   0  0  0  0  0  0  0  0  0  0  0  0  # atno 8008 bound_to 7997
  155.8329  140.3465  155.5562 H   0  0  0  0  0  0  0  0  0  0  0  0  # atno 8009 bound_to 7997
  155.8169  140.0892  157.1862 H   0  0  0  0  0  0  0  0  0  0  0  0  # atno 8010 bound_to 7997
  140.1620  144.4361  150.6704 H   0  0  0  0  0  0  0  0  0  0  0  0  # atno 10167 bound_to 10162
  157.5754  131.1080  150.8289 H   0  0  0  0  0  0  0  0  0  0  0  0  # atno 10718 bound_to 10713
  154.6005  135.2854  155.0540 H   0  0  0  0  0  0  0  0  0  0  0  0  # atno 10763 bound_to 10752
  154.1806  135.6457  153.5037 H   0  0  0  0  0  0  0  0  0  0  0  0  # atno 10764 bound_to 10752
  153.0155  135.5423  154.6723 H   0  0  0  0  0  0  0  0  0  0  0  0  # atno 10765 bound_to 10752
  139.8796  134.9316  156.5427 H   0  0  0  0  0  0  0  0  0  0  0  0  # atno 11005 bound_to 11000
  144.7515  140.5203  143.6798 LP  0  0  0  0  0  0  0  0  0  0  0  0  # atno 17320 bound_to 7965
  145.5655  139.1481  143.3317 LP  0  0  0  0  0  0  0  0  0  0  0  0  # atno 17321 bound_to 7965
  140.6637  143.2260  151.5795 LP  0  0  0  0  0  0  0  0  0  0  0  0  # atno 17342 bound_to 10162
  139.5377  144.2735  152.1285 LP  0  0  0  0  0  0  0  0  0  0  0  0  # atno 17343 bound_to 10162
  156.8749  130.5159  149.5294 LP  0  0  0  0  0  0  0  0  0  0  0  0  # atno 17370 bound_to 10713
  156.0799  130.5812  150.9543 LP  0  0  0  0  0  0  0  0  0  0  0  0  # atno 17371 bound_to 10713
  140.8298  133.8287  155.8974 LP  0  0  0  0  0  0  0  0  0  0  0  0  # atno 17394 bound_to 11000
  140.9339  134.1987  157.4845 LP  0  0  0  0  0  0  0  0  0  0  0  0  # atno 17395 bound_to 11000

$$$$
