AV-unprocessed.smi:2079|AV-procd|sdf|8484|dock6
  -GOLD-   2272011193D 1   1.00000     0.00000
 Structure written by MMmdl.
 41 42  0  0  0  0  0  0  0  0  3 V2000
  149.0491  141.4178  154.5394 C   0  0  0  0  0  0  0  0  0  0  0  0
  149.4643  139.9871  154.5746 C   0  0  0  0  0  0  0  0  0  0  0  0
  148.7665  138.8139  154.5141 C   0  0  0  0  0  0  0  0  0  0  0  0
  149.7854  137.8285  154.6077 C   0  0  0  0  0  0  0  0  0  0  0  0
  149.4607  136.4463  154.5842 N   0  0  0  0  0  0  0  0  0  0  0  0
  150.1640  135.4072  155.0700 C   0  0  0  0  0  0  0  0  0  0  0  0
  151.2586  135.5932  155.6155 O   0  0  0  0  0  0  0  0  0  0  0  0
  149.5296  134.2178  154.8742 N   0  5  0  0  0  0  0  0  0  0  0  0
  149.4639  133.5073  153.5980 C   0  0  0  0  0  0  0  0  0  0  0  0
  148.5185  132.2931  153.7057 C   0  0  0  0  0  0  0  0  0  0  0  0
  147.6514  132.1567  152.5039 N   0  3  1  0  0  0  0  0  0  0  0  0
  146.5923  131.1136  152.6282 C   0  0  0  0  0  0  0  0  0  0  0  0
  145.9016  130.8672  151.2770 C   0  0  0  0  0  0  0  0  0  0  0  0
  145.3314  132.1686  150.6990 C   0  0  0  0  0  0  0  0  0  0  0  0
  146.4305  133.2394  150.6220 C   0  0  0  0  0  0  0  0  0  0  0  0
  147.1277  133.4547  151.9818 C   0  0  1  0  0  0  0  0  0  0  0  0
  146.2297  134.2030  152.9914 C   0  0  0  0  0  0  0  0  0  0  0  0
  150.9968  138.3551  154.7117 N   0  0  0  0  0  0  0  0  0  0  0  0
  150.7970  139.7403  154.6923 O   0  0  0  0  0  0  0  0  0  0  0  0
  147.9956  141.5116  154.2754 H   0  0  0  0  0  0  0  0  0  0  0  0
  149.6324  141.9724  153.8043 H   0  0  0  0  0  0  0  0  0  0  0  0
  149.1974  141.8857  155.5127 H   0  0  0  0  0  0  0  0  0  0  0  0
  147.6985  138.6831  154.4211 H   0  0  0  0  0  0  0  0  0  0  0  0
  148.5770  136.2138  154.1561 H   0  0  0  0  0  0  0  0  0  0  0  0
  149.1263  134.1508  152.7844 H   0  0  0  0  0  0  0  0  0  0  0  0
  150.4518  133.1585  153.2971 H   0  0  0  0  0  0  0  0  0  0  0  0
  149.0777  131.3707  153.8710 H   0  0  0  0  0  0  0  0  0  0  0  0
  147.8954  132.4334  154.5902 H   0  0  0  0  0  0  0  0  0  0  0  0
  147.0275  130.1756  152.9739 H   0  0  0  0  0  0  0  0  0  0  0  0
  145.8616  131.4064  153.3826 H   0  0  0  0  0  0  0  0  0  0  0  0
  146.6180  130.4390  150.5747 H   0  0  0  0  0  0  0  0  0  0  0  0
  145.1058  130.1311  151.3935 H   0  0  0  0  0  0  0  0  0  0  0  0
  144.9143  131.9872  149.7080 H   0  0  0  0  0  0  0  0  0  0  0  0
  144.5070  132.5199  151.3201 H   0  0  0  0  0  0  0  0  0  0  0  0
  147.1738  132.9313  149.8851 H   0  0  0  0  0  0  0  0  0  0  0  0
  146.0141  134.1784  150.2557 H   0  0  0  0  0  0  0  0  0  0  0  0
  147.9924  134.0921  151.7910 H   0  0  0  0  0  0  0  0  0  0  0  0
  145.9025  135.1578  152.5792 H   0  0  0  0  0  0  0  0  0  0  0  0
  146.7577  134.4220  153.9193 H   0  0  0  0  0  0  0  0  0  0  0  0
  145.3333  133.6401  153.2491 H   0  0  0  0  0  0  0  0  0  0  0  0
  148.2759  131.8248  151.7827 H   0  0  0  0  0  0  0  0  0  0  0  0
  1  2  1  0  0  0  0
  1 20  1  0  0  0  0
  1 21  1  0  0  0  0
  1 22  1  0  0  0  0
  2 19  1  0  0  0  0
  2  3  2  0  0  0  0
  3  4  1  0  0  0  0
  3 23  1  0  0  0  0
  4  5  1  0  0  0  0
  4 18  2  0  0  0  0
  5  6  1  0  0  0  0
  5 24  1  0  0  0  0
  6  7  2  0  0  0  0
  6  8  1  0  0  0  0
  8  9  1  0  0  0  0
  9 10  1  0  0  0  0
  9 25  1  0  0  0  0
  9 26  1  0  0  0  0
 10 11  1  0  0  0  0
 10 27  1  0  0  0  0
 10 28  1  0  0  0  0
 11 16  1  0  0  0  0
 11 12  1  0  0  0  0
 11 41  1  0  0  0  0
 12 13  1  0  0  0  0
 12 29  1  0  0  0  0
 12 30  1  0  0  0  0
 13 14  1  0  0  0  0
 13 31  1  0  0  0  0
 13 32  1  0  0  0  0
 14 15  1  0  0  0  0
 14 33  1  0  0  0  0
 14 34  1  0  0  0  0
 15 16  1  0  0  0  0
 15 35  1  0  0  0  0
 15 36  1  0  0  0  0
 16 17  1  0  0  0  0
 16 37  1  0  0  0  0
 17 38  1  0  0  0  0
 17 39  1  0  0  0  0
 17 40  1  0  0  0  0
 18 19  1  0  0  0  0
M  CHG  1   8  -1
M  CHG  1  11   1
M  END
> <s_m_source_file>
AV-unprocessed.smi

> <i_m_source_file_index>
2079

> <i_lp_mmshare_version>
43012

> <i_f3d_flags>
0

> <s_epik_input>
W0NIM11jMVtjSF1jKG5vMSlbTkhdQyg9TylbTkhdW0NIMl1bQ0gyXU4yW0NIMl1bQ0gyXVtDSDJdW0NIMl1bQ0BIXTJbQ0gzXQ==

> <s_epik_cmdline>
J2VwaWtfcHl0aG9uJywgJy1waCcsICc3LjAnLCAnLXRuJywgJzgnLCAnLW1hJywgJzIwMCcsICctbWV0YWxfYmluZGluZycsICctaW1hZScsICc8aW5maWxlLm1hZT4nLCAnLW9tYWUnLCAnPG91dGZpbGUubWFlPic=

> <r_epik_Ionization_Penalty>
6.7666

> <r_epik_Ionization_Penalty_Charging>
6.7666

> <r_epik_Ionization_Penalty_Neutral>
5.77131e-06

> <r_epik_State_Penalty>
6.79217

> <r_epik_Charging_Adjusted_Penalty>
13.5588

> <i_epik_Tot_Q>
0

> <i_epik_Tot_abs_Q>
2

> <r_epik_Metal_State_Penalty>
2.72569

> <b_epik_Metal_Only>
1

> <s_lp_Force_Field>
OPLS_2005

> <r_lp_Energy>
14.7698

> <b_lp_Chiralities_Consistent>
1

> <s_lp_Variant>
AV-unprocessed.smi:2079-10

> <Gold.Version>
5.8.1

> <Gold.Id.Protein>
6NUR|6NUR_protein|mol2

> <Gold.PLP.Fitness>
42.3702

> <Gold.PLP.PLP>
-35.6238

> <Gold.PLP.part.hbond>
-4.0000

> <Gold.PLP.part.metal>
0.0000

> <Gold.PLP.part.buried>
-3.1330

> <Gold.PLP.part.nonpolar>
-27.0462

> <Gold.PLP.part.repulsive>
0.4532

> <Gold.PLP.ligand.clash>
0.0000

> <Gold.PLP.ligand.torsion>
1.2576

> <Gold.PLP.Chemscore.Hbond>
3.0679

> <Gold.PLP.Chemscore.CHOScore>
0.0000

> <Gold.PLP.Chemscore.Metal>
0.0000

> <Gold.Chemscore.Hbonds>
donor molecule, donor type, donor heavy atom, donor atom, acceptor molecule, acceptor atom, score
      L1  H     5    24       P1  7948  0.03
      L1  H    11    41       P1 10747  1.00
      P1  H  7989  7998       L1    19  1.00
      P1  H 10752 10763       L1     7  1.00

> <Gold.PLP.Chemscore.Internal.Correction>
0.0579

> <Gold.Rescore>
     Score         DG    S(hbond)    S(metal)    S(lipo)     H(rot)  DE(clash)    DE(int)     intcor
     17.44     -20.12       2.88        0.00      76.66       1.54       0.21       2.47       ----

> <Gold.Chemscore.Fitness>
17.4361

> <Gold.Chemscore.DG>
-20.1217

> <Gold.Chemscore.ZeroCoef>
-5.4800

> <Gold.Chemscore.Hbond>
2.8794

> <Gold.Chemscore.Metal>
0.0000

> <Gold.Chemscore.Lipo>
76.6591

> <Gold.Chemscore.Internal_Hbond>
0.0000

> <Gold.Chemscore.DEClash>
0.2109

> <Gold.Chemscore.DEInternal>
2.4746

> <Gold.Chemscore.Rot>
1.5409

> <Gold.Chemscore.Internal.Correction>
   9.000000E+99

> <Gold.Chemscore.Hbonds>
donor molecule, donor type, donor heavy atom, donor atom, acceptor molecule, acceptor atom, score
      L1  H     5    24       P1  7948  0.03
      L1  H    11    41       P1 10747  1.00
      P1  H  7989  7998       L1    19  0.55
      P1  H 10752 10763       L1     7  0.98

> <Gold.Chemscore.Hbond.Weighted>
-9.6172

> <Gold.Chemscore.Metal.Weighted>
-0.0000

> <Gold.Chemscore.Lipo.Weighted>
-8.9691

> <Gold.Chemscore.Internal_Hbond.Weighted>
0.0000

> <Gold.Chemscore.DEClash.Weighted>
0.2109

> <Gold.Chemscore.DEInternal.Weighted>
2.4746

> <Gold.Chemscore.Rot.Weighted>
3.9446

> <Gold.Chemscore.Internal.Correction.Weighted>
   9.000000E+99

> <Gold.Protein.RotatedTorsions>
[ 6907 6896 6895 6894 ] final   72.93 input  -60.11 | X-H torsion
[ 7974 7965 7964 7962 ] final -165.92 input  175.53 | X-H torsion
[ 8008 7997 7996 7995 ] final   77.06 input   59.86 | X-H torsion
[ 10167 10162 10161 10158 ] final   84.90 input  -65.29 | X-H torsion
[ 10718 10713 10712 10709 ] final   82.26 input   66.30 | X-H torsion
[ 10763 10752 10751 10750 ] final   84.63 input  -60.55 | X-H torsion
[ 11005 11000 10999 10996 ] final -167.56 input  -57.11 | X-H torsion

> <Gold.Protein.ActiveResidues>
 VAL166  LYS551  ARG553  GLY616  TRP617  ASP618  TYR619  PRO620  LYS621  CYS622 
 ASP623  PHE694  ASN695  SER759  ASP760  ASP761  ALA762  ILE779  LEU786  VAL792 
 PHE793  MET794  SER795  GLU796  ALA797  LYS798  CYS799  TRP800  GLU811  SER814 

> <Gold.Protein.RotatedAtoms>
  152.4895  134.4498  159.9570 H   0  0  0  0  0  0  0  0  0  0  0  0  # atno 6907 bound_to 6896
  151.4488  133.3617  159.2800 H   0  0  0  0  0  0  0  0  0  0  0  0  # atno 6908 bound_to 6896
  150.9036  134.8474  159.7437 H   0  0  0  0  0  0  0  0  0  0  0  0  # atno 6909 bound_to 6896
  144.7258  140.2742  143.6246 H   0  0  0  0  0  0  0  0  0  0  0  0  # atno 7974 bound_to 7965
  155.8362  140.3464  155.5603 H   0  0  0  0  0  0  0  0  0  0  0  0  # atno 8008 bound_to 7997
  155.8189  140.0910  157.1880 H   0  0  0  0  0  0  0  0  0  0  0  0  # atno 8009 bound_to 7997
  154.4004  140.1433  156.3464 H   0  0  0  0  0  0  0  0  0  0  0  0  # atno 8010 bound_to 7997
  139.9032  144.6316  150.8614 H   0  0  0  0  0  0  0  0  0  0  0  0  # atno 10167 bound_to 10162
  157.6853  131.0040  150.2348 H   0  0  0  0  0  0  0  0  0  0  0  0  # atno 10718 bound_to 10713
  153.1399  135.4647  154.9480 H   0  0  0  0  0  0  0  0  0  0  0  0  # atno 10763 bound_to 10752
  154.7738  135.3167  154.8137 H   0  0  0  0  0  0  0  0  0  0  0  0  # atno 10764 bound_to 10752
  153.8661  135.6908  153.4832 H   0  0  0  0  0  0  0  0  0  0  0  0  # atno 10765 bound_to 10752
  140.5518  134.5420  157.5124 H   0  0  0  0  0  0  0  0  0  0  0  0  # atno 11005 bound_to 11000
  145.8013  139.1965  143.2046 LP  0  0  0  0  0  0  0  0  0  0  0  0  # atno 17320 bound_to 7965
  146.0674  140.7906  142.9705 LP  0  0  0  0  0  0  0  0  0  0  0  0  # atno 17321 bound_to 7965
  140.7702  143.3421  151.2187 LP  0  0  0  0  0  0  0  0  0  0  0  0  # atno 17342 bound_to 10162
  139.7007  143.9538  152.2904 LP  0  0  0  0  0  0  0  0  0  0  0  0  # atno 17343 bound_to 10162
  156.2974  130.3754  149.7783 LP  0  0  0  0  0  0  0  0  0  0  0  0  # atno 17370 bound_to 10713
  156.5423  130.8305  151.3273 LP  0  0  0  0  0  0  0  0  0  0  0  0  # atno 17371 bound_to 10713
  139.9451  134.7716  156.0582 LP  0  0  0  0  0  0  0  0  0  0  0  0  # atno 17394 bound_to 11000
  141.1167  133.6625  156.3111 LP  0  0  0  0  0  0  0  0  0  0  0  0  # atno 17395 bound_to 11000

$$$$
