AV-unprocessed.smi:407|AV-procd|sdf|2502|dock10
  -GOLD-   2262022453D 1   1.00000     0.00000
 Structure written by MMmdl.
 45 47  0  0  0  0  0  0  0  0  1 V2000
  145.6232  144.1950  153.2931 C   0  0  0  0  0  0  0  0  0  0  0  0
  145.3500  143.0702  154.2903 C   0  0  0  0  0  0  0  0  0  0  0  0
  144.3192  143.1125  154.9612 O   0  0  0  0  0  0  0  0  0  0  0  0
  146.3567  141.9762  154.3979 C   0  0  0  0  0  0  0  0  0  0  0  0
  146.0196  140.6993  154.9034 C   0  0  0  0  0  0  0  0  0  0  0  0
  146.9940  139.6864  154.9903 C   0  0  0  0  0  0  0  0  0  0  0  0
  148.3202  139.9188  154.5761 C   0  0  0  0  0  0  0  0  0  0  0  0
  149.2061  138.8694  154.6925 O   0  0  0  0  0  0  0  0  0  0  0  0
  150.5554  139.0791  154.2967 C   0  0  0  0  0  0  0  0  0  0  0  0
  151.3898  139.4206  155.5424 C   0  0  1  0  0  0  0  0  0  0  0  0
  152.5905  140.0166  155.0919 O   0  0  0  0  0  0  0  0  0  0  0  0
  150.6737  140.4381  156.4548 C   0  0  0  0  0  0  0  0  0  0  0  0
  151.4325  140.6940  157.6784 N   0  0  0  0  0  0  0  0  0  0  0  0
  152.1258  139.7823  158.4014 C   0  0  0  0  0  0  0  0  0  0  0  0
  152.2229  138.5819  158.1458 O   0  0  0  0  0  0  0  0  0  0  0  0
  152.6999  140.4236  159.4457 N   0  0  0  0  0  0  0  0  0  0  0  0
  153.5465  139.8358  160.4769 C   0  0  0  0  0  0  0  0  0  0  0  0
  152.3779  141.7852  159.3822 C   0  0  0  0  0  0  0  0  0  0  0  0
  152.7382  142.8577  160.2158 C   0  0  0  0  0  0  0  0  0  0  0  0
  152.2443  144.1375  159.8707 C   0  0  0  0  0  0  0  0  0  0  0  0
  151.4227  144.3157  158.7272 C   0  0  0  0  0  0  0  0  0  0  0  0
  151.0767  143.2178  157.9048 C   0  0  0  0  0  0  0  0  0  0  0  0
  151.5791  141.9568  158.2710 C   0  0  0  0  0  0  0  0  0  0  0  0
  148.6601  141.1983  154.0728 C   0  0  0  0  0  0  0  0  0  0  0  0
  147.6874  142.2129  153.9861 C   0  0  0  0  0  0  0  0  0  0  0  0
  146.5542  144.7059  153.5392 H   0  0  0  0  0  0  0  0  0  0  0  0
  144.8166  144.9281  153.3146 H   0  0  0  0  0  0  0  0  0  0  0  0
  145.6964  143.7992  152.2800 H   0  0  0  0  0  0  0  0  0  0  0  0
  145.0164  140.4714  155.2311 H   0  0  0  0  0  0  0  0  0  0  0  0
  146.7183  138.7165  155.3780 H   0  0  0  0  0  0  0  0  0  0  0  0
  150.9658  138.2093  153.7801 H   0  0  0  0  0  0  0  0  0  0  0  0
  150.5783  139.9208  153.6026 H   0  0  0  0  0  0  0  0  0  0  0  0
  151.6098  138.5057  156.0946 H   0  0  0  0  0  0  0  0  0  0  0  0
  153.0976  140.2776  155.8452 H   0  0  0  0  0  0  0  0  0  0  0  0
  150.4607  141.3666  155.9234 H   0  0  0  0  0  0  0  0  0  0  0  0
  149.7001  140.0450  156.7520 H   0  0  0  0  0  0  0  0  0  0  0  0
  153.2441  140.1867  161.4643 H   0  0  0  0  0  0  0  0  0  0  0  0
  154.5862  140.1217  160.3155 H   0  0  0  0  0  0  0  0  0  0  0  0
  153.4896  138.7463  160.4790 H   0  0  0  0  0  0  0  0  0  0  0  0
  153.3661  142.7140  161.0827 H   0  0  0  0  0  0  0  0  0  0  0  0
  152.4966  144.9899  160.4843 H   0  0  0  0  0  0  0  0  0  0  0  0
  151.0583  145.3020  158.4805 H   0  0  0  0  0  0  0  0  0  0  0  0
  150.4550  143.3495  157.0318 H   0  0  0  0  0  0  0  0  0  0  0  0
  149.6625  141.4292  153.7461 H   0  0  0  0  0  0  0  0  0  0  0  0
  147.9784  143.1777  153.5963 H   0  0  0  0  0  0  0  0  0  0  0  0
  1  2  1  0  0  0  0
  1 26  1  0  0  0  0
  1 27  1  0  0  0  0
  1 28  1  0  0  0  0
  2  3  2  0  0  0  0
  2  4  1  0  0  0  0
  4 25  1  0  0  0  0
  4  5  2  0  0  0  0
  5  6  1  0  0  0  0
  5 29  1  0  0  0  0
  6  7  2  0  0  0  0
  6 30  1  0  0  0  0
  7  8  1  0  0  0  0
  7 24  1  0  0  0  0
  8  9  1  0  0  0  0
  9 10  1  0  0  0  0
  9 31  1  0  0  0  0
  9 32  1  0  0  0  0
 10 11  1  0  0  0  0
 10 12  1  0  0  0  0
 10 33  1  0  0  0  0
 11 34  1  0  0  0  0
 12 13  1  0  0  0  0
 12 35  1  0  0  0  0
 12 36  1  0  0  0  0
 13 23  1  0  0  0  0
 13 14  1  0  0  0  0
 14 15  2  0  0  0  0
 14 16  1  0  0  0  0
 16 17  1  0  0  0  0
 16 18  1  0  0  0  0
 17 37  1  0  0  0  0
 17 38  1  0  0  0  0
 17 39  1  0  0  0  0
 18 23  2  0  0  0  0
 18 19  1  0  0  0  0
 19 20  2  0  0  0  0
 19 40  1  0  0  0  0
 20 21  1  0  0  0  0
 20 41  1  0  0  0  0
 21 22  2  0  0  0  0
 21 42  1  0  0  0  0
 22 23  1  0  0  0  0
 22 43  1  0  0  0  0
 24 25  2  0  0  0  0
 24 44  1  0  0  0  0
 25 45  1  0  0  0  0
M  END
> <s_m_source_file>
AV-unprocessed.smi

> <i_m_source_file_index>
407

> <i_lp_mmshare_version>
43012

> <i_f3d_flags>
0

> <s_epik_input>
W0NIM11DKD1PKWMxW2NIXVtjSF1jKFtjSF1bY0hdMSlPW0NIMl1bQ0BIXShbT0hdKVtDSDJdbihjKD1PKW4yW0NIM10pYyhjMjMpW2NIXVtjSF1bY0hdW2NIXTM=

> <s_epik_cmdline>
J2VwaWtfcHl0aG9uJywgJy1waCcsICc3LjAnLCAnLXRuJywgJzgnLCAnLW1hJywgJzIwMCcsICctbWV0YWxfYmluZGluZycsICctaW1hZScsICc8aW5maWxlLm1hZT4nLCAnLW9tYWUnLCAnPG91dGZpbGUubWFlPic=

> <r_lp_tautomer_probability>
1

> <r_epik_Ionization_Penalty>
2.40123e-06

> <r_epik_Ionization_Penalty_Charging>
1.9356e-09

> <r_epik_Ionization_Penalty_Neutral>
2.3993e-06

> <r_epik_State_Penalty>
-0

> <r_epik_Charging_Adjusted_Penalty>
1.9356e-09

> <i_epik_Tot_Q>
0

> <i_epik_Tot_abs_Q>
0

> <r_epik_Metal_State_Penalty>
-0

> <b_epik_Metal_Only>
0

> <s_lp_Force_Field>
OPLS_2005

> <r_lp_Energy>
53.7359

> <b_lp_Chiralities_Consistent>
1

> <s_lp_Variant>
AV-unprocessed.smi:407-2

> <Gold.Version>
5.8.1

> <Gold.Id.Protein>
6NUR|6NUR_protein|mol2

> <Gold.PLP.Fitness>
54.1379

> <Gold.PLP.PLP>
-54.2996

> <Gold.PLP.part.hbond>
-1.7730

> <Gold.PLP.part.metal>
0.0000

> <Gold.PLP.part.buried>
-6.1188

> <Gold.PLP.part.nonpolar>
-46.8587

> <Gold.PLP.part.repulsive>
0.2731

> <Gold.PLP.ligand.clash>
0.0000

> <Gold.PLP.ligand.torsion>
0.9118

> <Gold.PLP.Chemscore.Hbond>
0.4896

> <Gold.PLP.Chemscore.CHOScore>
0.0000

> <Gold.PLP.Chemscore.Metal>
0.0000

> <Gold.Chemscore.Hbonds>
donor molecule, donor type, donor heavy atom, donor atom, acceptor molecule, acceptor atom, score
      P1  H  7989  7998       L1    11  0.34

> <Gold.PLP.Chemscore.Internal.Correction>
0.1930

> <Gold.Rescore>
     Score         DG    S(hbond)    S(metal)    S(lipo)     H(rot)  DE(clash)    DE(int)     intcor
     13.72     -16.23       0.33        0.00     132.85       2.30       0.00       2.51       ----

> <Gold.Chemscore.Fitness>
13.7166

> <Gold.Chemscore.DG>
-16.2260

> <Gold.Chemscore.ZeroCoef>
-5.4800

> <Gold.Chemscore.Hbond>
0.3254

> <Gold.Chemscore.Metal>
0.0000

> <Gold.Chemscore.Lipo>
132.8451

> <Gold.Chemscore.Internal_Hbond>
0.0000

> <Gold.Chemscore.DEClash>
0.0000

> <Gold.Chemscore.DEInternal>
2.5093

> <Gold.Chemscore.Rot>
2.2984

> <Gold.Chemscore.Internal.Correction>
   9.000000E+99

> <Gold.Chemscore.Hbonds>
donor molecule, donor type, donor heavy atom, donor atom, acceptor molecule, acceptor atom, score
      P1  H  7989  7998       L1    11  0.03

> <Gold.Chemscore.Hbond.Weighted>
-1.0870

> <Gold.Chemscore.Metal.Weighted>
-0.0000

> <Gold.Chemscore.Lipo.Weighted>
-15.5429

> <Gold.Chemscore.Internal_Hbond.Weighted>
0.0000

> <Gold.Chemscore.DEClash.Weighted>
0.0000

> <Gold.Chemscore.DEInternal.Weighted>
2.5093

> <Gold.Chemscore.Rot.Weighted>
5.8839

> <Gold.Chemscore.Internal.Correction.Weighted>
   9.000000E+99

> <Gold.Protein.RotatedTorsions>
[ 6907 6896 6895 6894 ] final  -35.11 input  -60.11 | X-H torsion
[ 7974 7965 7964 7962 ] final    3.74 input  175.53 | X-H torsion
[ 8008 7997 7996 7995 ] final    2.13 input   59.86 | X-H torsion
[ 10167 10162 10161 10158 ] final   82.79 input  -65.29 | X-H torsion
[ 10718 10713 10712 10709 ] final  -71.35 input   66.30 | X-H torsion
[ 10763 10752 10751 10750 ] final  -30.82 input  -60.55 | X-H torsion
[ 11005 11000 10999 10996 ] final  -32.36 input  -57.11 | X-H torsion

> <Gold.Protein.ActiveResidues>
 VAL166  LYS551  ARG553  GLY616  TRP617  ASP618  TYR619  PRO620  LYS621  CYS622 
 ASP623  PHE694  ASN695  SER759  ASP760  ASP761  ALA762  ILE779  LEU786  VAL792 
 PHE793  MET794  SER795  GLU796  ALA797  LYS798  CYS799  TRP800  GLU811  SER814 

> <Gold.Protein.RotatedAtoms>
  151.0439  134.9626  159.8176 H   0  0  0  0  0  0  0  0  0  0  0  0  # atno 6907 bound_to 6896
  152.5369  134.2622  159.8950 H   0  0  0  0  0  0  0  0  0  0  0  0  # atno 6908 bound_to 6896
  151.2636  133.4247  159.2651 H   0  0  0  0  0  0  0  0  0  0  0  0  # atno 6909 bound_to 6896
  146.2445  140.0640  142.8366 H   0  0  0  0  0  0  0  0  0  0  0  0  # atno 7974 bound_to 7965
  154.6880  140.2647  155.6841 H   0  0  0  0  0  0  0  0  0  0  0  0  # atno 8008 bound_to 7997
  156.2721  140.2797  156.1371 H   0  0  0  0  0  0  0  0  0  0  0  0  # atno 8009 bound_to 7997
  155.0937  140.0373  157.2666 H   0  0  0  0  0  0  0  0  0  0  0  0  # atno 8010 bound_to 7997
  139.9251  144.6188  150.8401 H   0  0  0  0  0  0  0  0  0  0  0  0  # atno 10167 bound_to 10162
  156.0367  130.4349  150.2431 H   0  0  0  0  0  0  0  0  0  0  0  0  # atno 10718 bound_to 10713
  153.7872  135.6900  153.4878 H   0  0  0  0  0  0  0  0  0  0  0  0  # atno 10763 bound_to 10752
  153.1773  135.4520  154.9980 H   0  0  0  0  0  0  0  0  0  0  0  0  # atno 10764 bound_to 10752
  154.8059  135.3356  154.7371 H   0  0  0  0  0  0  0  0  0  0  0  0  # atno 10765 bound_to 10752
  140.9545  133.7201  156.1272 H   0  0  0  0  0  0  0  0  0  0  0  0  # atno 11005 bound_to 11000
  145.0875  140.9262  143.4789 LP  0  0  0  0  0  0  0  0  0  0  0  0  # atno 17320 bound_to 7965
  145.0806  139.2963  143.5785 LP  0  0  0  0  0  0  0  0  0  0  0  0  # atno 17321 bound_to 7965
  140.7652  143.3269  151.2495 LP  0  0  0  0  0  0  0  0  0  0  0  0  # atno 17342 bound_to 10162
  139.6829  143.9824  152.2818 LP  0  0  0  0  0  0  0  0  0  0  0  0  # atno 17343 bound_to 10162
  157.0530  131.0068  151.3247 LP  0  0  0  0  0  0  0  0  0  0  0  0  # atno 17370 bound_to 10713
  157.5127  130.7948  149.7722 LP  0  0  0  0  0  0  0  0  0  0  0  0  # atno 17371 bound_to 10713
  140.7555  134.3997  157.5534 LP  0  0  0  0  0  0  0  0  0  0  0  0  # atno 17394 bound_to 11000
  139.8858  134.8927  156.2623 LP  0  0  0  0  0  0  0  0  0  0  0  0  # atno 17395 bound_to 11000

$$$$
