AV-unprocessed.smi:2409|AV-procd|sdf|9524|dock3
  -GOLD-   2272013153D 1   1.00000     0.00000
 Structure written by MMmdl.
 35 36  0  0  0  0  0  0  0  0  1 V2000
  151.5368  139.6688  158.1926 C   0  0  0  0  0  0  0  0  0  0  0  0
  151.8338  139.5297  156.8137 O   0  0  0  0  0  0  0  0  0  0  0  0
  150.8131  139.8849  156.0045 C   0  0  0  0  0  0  0  0  0  0  0  0
  150.1749  141.0775  155.8049 C   0  0  0  0  0  0  0  0  0  0  0  0
  150.3945  142.3414  156.4088 N   0  0  0  0  0  0  0  0  0  0  0  0
  150.2640  142.6616  157.7095 C   0  0  0  0  0  0  0  0  0  0  0  0
  149.9041  141.8764  158.5837 O   0  0  0  0  0  0  0  0  0  0  0  0
  150.5577  143.9414  158.0004 N   0  0  0  0  0  0  0  0  0  0  0  0
  150.5184  144.5888  159.2789 C   0  0  2  0  0  0  0  0  0  0  0  0
  151.7518  145.3585  159.6995 C   0  0  0  0  0  0  0  0  0  0  0  0
  151.4058  144.0683  160.3949 C   0  0  2  0  0  0  0  0  0  0  0  0
  152.2788  142.8405  160.2244 C   0  0  0  0  0  0  0  0  0  0  0  0
  149.1429  140.7918  154.8690 C   0  0  0  0  0  0  0  0  0  0  0  0
  148.0985  141.7072  154.2980 C   0  0  0  0  0  0  0  0  0  0  0  0
  149.1812  139.5202  154.4865 N   0  0  0  0  0  0  0  0  0  0  0  0
  150.2089  138.9646  155.1740 N   0  0  0  0  0  0  0  0  0  0  0  0
  150.5159  137.5604  154.9956 C   0  0  0  0  0  0  0  0  0  0  0  0
  152.3973  139.3573  158.7845 H   0  0  0  0  0  0  0  0  0  0  0  0
  150.6893  139.0425  158.4746 H   0  0  0  0  0  0  0  0  0  0  0  0
  151.3073  140.7026  158.4531 H   0  0  0  0  0  0  0  0  0  0  0  0
  150.7805  143.0550  155.8083 H   0  0  0  0  0  0  0  0  0  0  0  0
  150.8057  144.5319  157.2197 H   0  0  0  0  0  0  0  0  0  0  0  0
  149.5766  145.0427  159.5835 H   0  0  0  0  0  0  0  0  0  0  0  0
  152.6063  145.3578  159.0250 H   0  0  0  0  0  0  0  0  0  0  0  0
  151.6017  146.2819  160.2552 H   0  0  0  0  0  0  0  0  0  0  0  0
  150.9917  144.1621  161.3971 H   0  0  0  0  0  0  0  0  0  0  0  0
  152.7506  142.8250  159.2414 H   0  0  0  0  0  0  0  0  0  0  0  0
  151.6788  141.9374  160.3373 H   0  0  0  0  0  0  0  0  0  0  0  0
  153.0632  142.8338  160.9814 H   0  0  0  0  0  0  0  0  0  0  0  0
  148.3013  142.7485  154.5483 H   0  0  0  0  0  0  0  0  0  0  0  0
  147.1099  141.4600  154.6849 H   0  0  0  0  0  0  0  0  0  0  0  0
  148.0603  141.6317  153.2110 H   0  0  0  0  0  0  0  0  0  0  0  0
  151.5826  137.3912  155.1451 H   0  0  0  0  0  0  0  0  0  0  0  0
  150.2473  137.2389  153.9885 H   0  0  0  0  0  0  0  0  0  0  0  0
  149.9566  136.9698  155.7215 H   0  0  0  0  0  0  0  0  0  0  0  0
  1  2  1  0  0  0  0
  1 18  1  0  0  0  0
  1 19  1  0  0  0  0
  1 20  1  0  0  0  0
  2  3  1  0  0  0  0
  3 16  1  0  0  0  0
  3  4  2  0  0  0  0
  4  5  1  0  0  0  0
  4 13  1  0  0  0  0
  5  6  1  0  0  0  0
  5 21  1  0  0  0  0
  6  7  2  0  0  0  0
  6  8  1  0  0  0  0
  8  9  1  0  0  0  0
  8 22  1  0  0  0  0
  9 11  1  0  0  0  0
  9 10  1  0  0  0  0
  9 23  1  0  0  0  0
 10 11  1  0  0  0  0
 10 24  1  0  0  0  0
 10 25  1  0  0  0  0
 11 12  1  0  0  0  0
 11 26  1  0  0  0  0
 12 27  1  0  0  0  0
 12 28  1  0  0  0  0
 12 29  1  0  0  0  0
 13 14  1  0  0  0  0
 13 15  2  0  0  0  0
 14 30  1  0  0  0  0
 14 31  1  0  0  0  0
 14 32  1  0  0  0  0
 15 16  1  0  0  0  0
 16 17  1  0  0  0  0
 17 33  1  0  0  0  0
 17 34  1  0  0  0  0
 17 35  1  0  0  0  0
M  END
> <s_m_source_file>
AV-unprocessed.smi

> <i_m_source_file_index>
2409

> <i_lp_mmshare_version>
43012

> <i_f3d_flags>
0

> <s_epik_input>
W0NIM11uMW5jKFtDSDNdKWMoYzFPW0NIM10pW05IXUMoPU8pW05IXVtDQEBIXTJbQ0gyXVtDQEhdMltDSDNd

> <s_epik_cmdline>
J2VwaWtfcHl0aG9uJywgJy1waCcsICc3LjAnLCAnLXRuJywgJzgnLCAnLW1hJywgJzIwMCcsICctbWV0YWxfYmluZGluZycsICctaW1hZScsICc8aW5maWxlLm1hZT4nLCAnLW9tYWUnLCAnPG91dGZpbGUubWFlPic=

> <r_lp_tautomer_probability>
1

> <r_epik_Ionization_Penalty>
0.000417804

> <r_epik_Ionization_Penalty_Charging>
0

> <r_epik_Ionization_Penalty_Neutral>
0.000417804

> <r_epik_State_Penalty>
-0

> <r_epik_Charging_Adjusted_Penalty>
0

> <i_epik_Tot_Q>
0

> <i_epik_Tot_abs_Q>
0

> <r_epik_Metal_State_Penalty>
-0

> <b_epik_Metal_Only>
0

> <s_lp_Force_Field>
OPLS_2005

> <r_lp_Energy>
35.5407

> <b_lp_Chiralities_Consistent>
1

> <s_lp_Variant>
AV-unprocessed.smi:2409-3

> <Gold.Version>
5.8.1

> <Gold.Id.Protein>
6NUR|6NUR_protein|mol2

> <Gold.PLP.Fitness>
42.6627

> <Gold.PLP.PLP>
-40.7421

> <Gold.PLP.part.hbond>
-3.0000

> <Gold.PLP.part.metal>
0.0000

> <Gold.PLP.part.buried>
-3.4990

> <Gold.PLP.part.nonpolar>
-33.8767

> <Gold.PLP.part.repulsive>
0.3101

> <Gold.PLP.ligand.clash>
0.0000

> <Gold.PLP.ligand.torsion>
0.6567

> <Gold.PLP.Chemscore.Hbond>
1.0632

> <Gold.PLP.Chemscore.CHOScore>
0.0000

> <Gold.PLP.Chemscore.Metal>
0.0000

> <Gold.PLP.Chemscore.Internal.Correction>
0.0444

> <Gold.Rescore>
     Score         DG    S(hbond)    S(metal)    S(lipo)     H(rot)  DE(clash)    DE(int)     intcor
     12.98     -15.19       0.87        0.00      84.92       1.23       0.08       2.13       ----

> <Gold.Chemscore.Fitness>
12.9804

> <Gold.Chemscore.DG>
-15.1900

> <Gold.Chemscore.ZeroCoef>
-5.4800

> <Gold.Chemscore.Hbond>
0.8745

> <Gold.Chemscore.Metal>
0.0000

> <Gold.Chemscore.Lipo>
84.9206

> <Gold.Chemscore.Internal_Hbond>
0.0000

> <Gold.Chemscore.DEClash>
0.0833

> <Gold.Chemscore.DEInternal>
2.1263

> <Gold.Chemscore.Rot>
1.2292

> <Gold.Chemscore.Internal.Correction>
   9.000000E+99

> <Gold.Chemscore.Hbonds>
donor molecule, donor type, donor heavy atom, donor atom, acceptor molecule, acceptor atom, score
      L1  H     8    22       P1  8028  0.01

> <Gold.Chemscore.Hbond.Weighted>
-2.9210

> <Gold.Chemscore.Metal.Weighted>
-0.0000

> <Gold.Chemscore.Lipo.Weighted>
-9.9357

> <Gold.Chemscore.Internal_Hbond.Weighted>
0.0000

> <Gold.Chemscore.DEClash.Weighted>
0.0833

> <Gold.Chemscore.DEInternal.Weighted>
2.1263

> <Gold.Chemscore.Rot.Weighted>
3.1467

> <Gold.Chemscore.Internal.Correction.Weighted>
   9.000000E+99

> <Gold.Protein.RotatedTorsions>
[ 6907 6896 6895 6894 ] final  -38.19 input  -60.11 | X-H torsion
[ 7974 7965 7964 7962 ] final  170.69 input  175.53 | X-H torsion
[ 8008 7997 7996 7995 ] final   86.73 input   59.86 | X-H torsion
[ 10167 10162 10161 10158 ] final  -35.40 input  -65.29 | X-H torsion
[ 10718 10713 10712 10709 ] final  -51.76 input   66.30 | X-H torsion
[ 10763 10752 10751 10750 ] final  173.20 input  -60.55 | X-H torsion
[ 11005 11000 10999 10996 ] final  -22.12 input  -57.11 | X-H torsion

> <Gold.Protein.ActiveResidues>
 VAL166  LYS551  ARG553  GLY616  TRP617  ASP618  TYR619  PRO620  LYS621  CYS622 
 ASP623  PHE694  ASN695  SER759  ASP760  ASP761  ALA762  ILE779  LEU786  VAL792 
 PHE793  MET794  SER795  GLU796  ALA797  LYS798  CYS799  TRP800  GLU811  SER814 

> <Gold.Protein.RotatedAtoms>
  151.0055  134.9355  159.7977 H   0  0  0  0  0  0  0  0  0  0  0  0  # atno 6907 bound_to 6896
  152.5289  134.3098  159.9119 H   0  0  0  0  0  0  0  0  0  0  0  0  # atno 6908 bound_to 6896
  151.3104  133.4041  159.2680 H   0  0  0  0  0  0  0  0  0  0  0  0  # atno 6909 bound_to 6896
  144.7316  139.9240  143.6421 H   0  0  0  0  0  0  0  0  0  0  0  0  # atno 7974 bound_to 7965
  155.9665  140.3389  155.6537 H   0  0  0  0  0  0  0  0  0  0  0  0  # atno 8008 bound_to 7997
  155.6730  140.0729  157.2531 H   0  0  0  0  0  0  0  0  0  0  0  0  # atno 8009 bound_to 7997
  154.4156  140.1688  156.1887 H   0  0  0  0  0  0  0  0  0  0  0  0  # atno 8010 bound_to 7997
  140.7166  143.3480  151.2216 H   0  0  0  0  0  0  0  0  0  0  0  0  # atno 10167 bound_to 10162
  156.1681  130.4149  149.9689 H   0  0  0  0  0  0  0  0  0  0  0  0  # atno 10718 bound_to 10713
  154.4367  135.2761  155.1876 H   0  0  0  0  0  0  0  0  0  0  0  0  # atno 10763 bound_to 10752
  154.3759  135.6098  153.5768 H   0  0  0  0  0  0  0  0  0  0  0  0  # atno 10764 bound_to 10752
  152.9838  135.5868  154.4687 H   0  0  0  0  0  0  0  0  0  0  0  0  # atno 10765 bound_to 10752
  140.8627  133.7776  156.0093 H   0  0  0  0  0  0  0  0  0  0  0  0  # atno 11005 bound_to 11000
  146.0908  139.3898  143.0407 LP  0  0  0  0  0  0  0  0  0  0  0  0  # atno 17320 bound_to 7965
  145.7713  140.9895  143.1148 LP  0  0  0  0  0  0  0  0  0  0  0  0  # atno 17321 bound_to 7965
  139.7003  143.9543  152.2902 LP  0  0  0  0  0  0  0  0  0  0  0  0  # atno 17342 bound_to 10162
  139.9234  144.6785  150.8437 LP  0  0  0  0  0  0  0  0  0  0  0  0  # atno 17343 bound_to 10162
  156.7497  130.9111  151.3637 LP  0  0  0  0  0  0  0  0  0  0  0  0  # atno 17370 bound_to 10713
  157.6783  130.9115  150.0204 LP  0  0  0  0  0  0  0  0  0  0  0  0  # atno 17371 bound_to 10713
  140.8664  134.2779  157.5211 LP  0  0  0  0  0  0  0  0  0  0  0  0  # atno 17394 bound_to 11000
  139.8708  134.9545  156.4177 LP  0  0  0  0  0  0  0  0  0  0  0  0  # atno 17395 bound_to 11000

$$$$
