AV-unprocessed.smi:1622|AV-procd|sdf|6500|dock8
  -GOLD-   22720 7163D 1   1.00000     0.00000
 Structure written by MMmdl.
 40 41  0  0  0  0  0  0  0  0  3 V2000
  149.4408  132.1120  154.6933 C   0  0  0  0  0  0  0  0  0  0  0  0
  149.1209  133.1382  153.5951 C   0  0  0  0  0  0  0  0  0  0  0  0
  147.7930  133.9174  153.8008 C   0  0  1  0  0  0  0  0  0  0  0  0
  147.9739  135.1645  154.7014 C   0  0  0  0  0  0  0  0  0  0  0  0
  148.2369  134.7998  156.0882 N   0  0  0  0  0  0  0  0  0  0  0  0
  147.9496  135.5540  157.1568 C   0  0  0  0  0  0  0  0  0  0  0  0
  147.4076  136.6514  157.0064 O   0  0  0  0  0  0  0  0  0  0  0  0
  148.3109  134.9895  158.3306 N   0  5  0  0  0  0  0  0  0  0  0  0
  147.9458  135.5596  159.4909 C   0  0  0  0  0  0  0  0  0  0  0  0
  147.7682  136.8824  159.6175 N   0  0  0  0  0  0  0  0  0  0  0  0
  147.3879  137.2602  160.8971 N   0  0  0  0  0  0  0  0  0  0  0  0
  147.2747  136.2135  161.7182 C   0  0  0  0  0  0  0  0  0  0  0  0
  146.8772  136.3515  163.1477 C   0  0  0  0  0  0  0  0  0  0  0  0
  147.6283  134.6624  160.9757 S   0  0  0  0  0  0  0  0  0  0  0  0
  147.1529  134.2733  152.4994 N   0  3  0  0  0  0  0  0  0  0  0  0
  146.9400  133.1435  151.5668 C   0  0  0  0  0  0  0  0  0  0  0  0
  145.8422  133.5812  150.5911 C   0  0  0  0  0  0  0  0  0  0  0  0
  145.2031  134.8223  151.2182 C   0  0  0  0  0  0  0  0  0  0  0  0
  145.8409  134.9470  152.6017 C   0  0  0  0  0  0  0  0  0  0  0  0
  150.4004  131.6322  154.5008 H   0  0  0  0  0  0  0  0  0  0  0  0
  148.6881  131.3247  154.7374 H   0  0  0  0  0  0  0  0  0  0  0  0
  149.4987  132.5797  155.6760 H   0  0  0  0  0  0  0  0  0  0  0  0
  149.9559  133.8327  153.5045 H   0  0  0  0  0  0  0  0  0  0  0  0
  149.0970  132.6206  152.6358 H   0  0  0  0  0  0  0  0  0  0  0  0
  147.1069  133.2441  154.3177 H   0  0  0  0  0  0  0  0  0  0  0  0
  148.7821  135.7894  154.3177 H   0  0  0  0  0  0  0  0  0  0  0  0
  147.0743  135.7799  154.7007 H   0  0  0  0  0  0  0  0  0  0  0  0
  148.6768  133.9069  156.2561 H   0  0  0  0  0  0  0  0  0  0  0  0
  145.8546  136.7228  163.2169 H   0  0  0  0  0  0  0  0  0  0  0  0
  147.5414  137.0511  163.6557 H   0  0  0  0  0  0  0  0  0  0  0  0
  146.9343  135.3872  163.6526 H   0  0  0  0  0  0  0  0  0  0  0  0
  147.8585  132.8735  151.0449 H   0  0  0  0  0  0  0  0  0  0  0  0
  146.5995  132.2692  152.1240 H   0  0  0  0  0  0  0  0  0  0  0  0
  146.2644  133.8273  149.6159 H   0  0  0  0  0  0  0  0  0  0  0  0
  145.1134  132.7841  150.4404 H   0  0  0  0  0  0  0  0  0  0  0  0
  145.4432  135.7010  150.6181 H   0  0  0  0  0  0  0  0  0  0  0  0
  144.1165  134.7488  151.2749 H   0  0  0  0  0  0  0  0  0  0  0  0
  145.2228  134.4317  153.3389 H   0  0  0  0  0  0  0  0  0  0  0  0
  145.9355  135.9896  152.9064 H   0  0  0  0  0  0  0  0  0  0  0  0
  147.7687  134.9211  152.0288 H   0  0  0  0  0  0  0  0  0  0  0  0
  1  2  1  0  0  0  0
  1 20  1  0  0  0  0
  1 21  1  0  0  0  0
  1 22  1  0  0  0  0
  2  3  1  0  0  0  0
  2 23  1  0  0  0  0
  2 24  1  0  0  0  0
  3  4  1  0  0  0  0
  3 15  1  0  0  0  0
  3 25  1  0  0  0  0
  4  5  1  0  0  0  0
  4 26  1  0  0  0  0
  4 27  1  0  0  0  0
  5  6  1  0  0  0  0
  5 28  1  0  0  0  0
  6  7  2  0  0  0  0
  6  8  1  0  0  0  0
  8  9  1  0  0  0  0
  9 14  1  0  0  0  0
  9 10  2  0  0  0  0
 10 11  1  0  0  0  0
 11 12  2  0  0  0  0
 12 13  1  0  0  0  0
 12 14  1  0  0  0  0
 13 29  1  0  0  0  0
 13 30  1  0  0  0  0
 13 31  1  0  0  0  0
 15 19  1  0  0  0  0
 15 16  1  0  0  0  0
 15 40  1  0  0  0  0
 16 17  1  0  0  0  0
 16 32  1  0  0  0  0
 16 33  1  0  0  0  0
 17 18  1  0  0  0  0
 17 34  1  0  0  0  0
 17 35  1  0  0  0  0
 18 19  1  0  0  0  0
 18 36  1  0  0  0  0
 18 37  1  0  0  0  0
 19 38  1  0  0  0  0
 19 39  1  0  0  0  0
M  CHG  1   8  -1
M  CHG  1  15   1
M  END
> <s_m_source_file>
AV-unprocessed.smi

> <i_m_source_file_index>
1622

> <i_lp_mmshare_version>
43012

> <i_f3d_flags>
0

> <s_epik_input>
W0NIMl0xW0NIMl1bQ0gyXVtDSDJdTjFbQ0BIXShbQ0gyXVtDSDNdKVtDSDJdW05IXUMoPU8pW05IXWMybm5jKHMyKVtDSDNd

> <s_epik_cmdline>
J2VwaWtfcHl0aG9uJywgJy1waCcsICc3LjAnLCAnLXRuJywgJzgnLCAnLW1hJywgJzIwMCcsICctbWV0YWxfYmluZGluZycsICctaW1hZScsICc8aW5maWxlLm1hZT4nLCAnLW9tYWUnLCAnPG91dGZpbGUubWFlPic=

> <r_lp_tautomer_probability>
1

> <r_epik_Ionization_Penalty>
4.34497

> <r_epik_Ionization_Penalty_Charging>
4.23453

> <r_epik_Ionization_Penalty_Neutral>
0.110433

> <r_epik_State_Penalty>
4.23293

> <r_epik_Charging_Adjusted_Penalty>
8.46746

> <i_epik_Tot_Q>
0

> <i_epik_Tot_abs_Q>
2

> <r_epik_Metal_State_Penalty>
0.701092

> <b_epik_Metal_Only>
1

> <s_lp_Force_Field>
OPLS_2005

> <r_lp_Energy>
26.9801

> <b_lp_Chiralities_Consistent>
1

> <s_lp_Variant>
AV-unprocessed.smi:1622-4

> <Gold.Version>
5.8.1

> <Gold.Id.Protein>
6NUR|6NUR_protein|mol2

> <Gold.PLP.Fitness>
38.7245

> <Gold.PLP.PLP>
-29.0271

> <Gold.PLP.part.hbond>
-3.0000

> <Gold.PLP.part.metal>
0.0000

> <Gold.PLP.part.buried>
-2.8577

> <Gold.PLP.part.nonpolar>
-23.5321

> <Gold.PLP.part.repulsive>
0.0102

> <Gold.PLP.ligand.clash>
0.0000

> <Gold.PLP.ligand.torsion>
0.8452

> <Gold.PLP.Chemscore.Hbond>
3.7440

> <Gold.PLP.Chemscore.CHOScore>
0.0000

> <Gold.PLP.Chemscore.Metal>
0.0000

> <Gold.Chemscore.Hbonds>
donor molecule, donor type, donor heavy atom, donor atom, acceptor molecule, acceptor atom, score
      L1  H    15    40       P1  7948  2.00
      P1  H  6931  6943       L1    11  0.47
      P1  H  6934  6947       L1    11  1.00

> <Gold.PLP.Chemscore.Internal.Correction>
0.1559

> <Gold.Rescore>
     Score         DG    S(hbond)    S(metal)    S(lipo)     H(rot)  DE(clash)    DE(int)     intcor
     13.40     -15.93       2.20        0.00      64.39       1.73       0.17       2.36       ----

> <Gold.Chemscore.Fitness>
13.3993

> <Gold.Chemscore.DG>
-15.9253

> <Gold.Chemscore.ZeroCoef>
-5.4800

> <Gold.Chemscore.Hbond>
2.2015

> <Gold.Chemscore.Metal>
0.0000

> <Gold.Chemscore.Lipo>
64.3877

> <Gold.Chemscore.Internal_Hbond>
0.0000

> <Gold.Chemscore.DEClash>
0.1658

> <Gold.Chemscore.DEInternal>
2.3602

> <Gold.Chemscore.Rot>
1.7348

> <Gold.Chemscore.Internal.Correction>
   9.000000E+99

> <Gold.Chemscore.Hbonds>
donor molecule, donor type, donor heavy atom, donor atom, acceptor molecule, acceptor atom, score
      L1  H    15    40       P1  7948  0.70
      P1  H  6931  6943       L1    11  0.07
      P1  H  6934  6947       L1    11  0.68

> <Gold.Chemscore.Hbond.Weighted>
-7.3531

> <Gold.Chemscore.Metal.Weighted>
-0.0000

> <Gold.Chemscore.Lipo.Weighted>
-7.5334

> <Gold.Chemscore.Internal_Hbond.Weighted>
0.0000

> <Gold.Chemscore.DEClash.Weighted>
0.1658

> <Gold.Chemscore.DEInternal.Weighted>
2.3602

> <Gold.Chemscore.Rot.Weighted>
4.4411

> <Gold.Chemscore.Internal.Correction.Weighted>
   9.000000E+99

> <Gold.Protein.RotatedTorsions>
[ 6907 6896 6895 6894 ] final -153.63 input  -60.11 | X-H torsion
[ 7974 7965 7964 7962 ] final   80.49 input  175.53 | X-H torsion
[ 8008 7997 7996 7995 ] final  161.02 input   59.86 | X-H torsion
[ 10167 10162 10161 10158 ] final  129.87 input  -65.29 | X-H torsion
[ 10718 10713 10712 10709 ] final  -30.18 input   66.30 | X-H torsion
[ 10763 10752 10751 10750 ] final  -13.56 input  -60.55 | X-H torsion
[ 11005 11000 10999 10996 ] final  158.16 input  -57.11 | X-H torsion

> <Gold.Protein.ActiveResidues>
 VAL166  LYS551  ARG553  GLY616  TRP617  ASP618  TYR619  PRO620  LYS621  CYS622 
 ASP623  PHE694  ASN695  SER759  ASP760  ASP761  ALA762  ILE779  LEU786  VAL792 
 PHE793  MET794  SER795  GLU796  ALA797  LYS798  CYS799  TRP800  GLU811  SER814 

> <Gold.Protein.RotatedAtoms>
  151.2454  133.4378  159.2608 H   0  0  0  0  0  0  0  0  0  0  0  0  # atno 6907 bound_to 6896
  151.0667  134.9772  159.8298 H   0  0  0  0  0  0  0  0  0  0  0  0  # atno 6908 bound_to 6896
  152.5406  134.2401  159.8911 H   0  0  0  0  0  0  0  0  0  0  0  0  # atno 6909 bound_to 6896
  145.6505  139.2446  143.1979 H   0  0  0  0  0  0  0  0  0  0  0  0  # atno 7974 bound_to 7965
  156.2132  140.1788  156.7648 H   0  0  0  0  0  0  0  0  0  0  0  0  # atno 8008 bound_to 7997
  154.5753  140.0675  156.9054 H   0  0  0  0  0  0  0  0  0  0  0  0  # atno 8009 bound_to 7997
  155.2599  140.3335  155.4276 H   0  0  0  0  0  0  0  0  0  0  0  0  # atno 8010 bound_to 7997
  139.5457  144.6771  151.4481 H   0  0  0  0  0  0  0  0  0  0  0  0  # atno 10167 bound_to 10162
  156.4031  130.4394  149.7308 H   0  0  0  0  0  0  0  0  0  0  0  0  # atno 10718 bound_to 10713
  153.5151  135.7016  153.5760 H   0  0  0  0  0  0  0  0  0  0  0  0  # atno 10763 bound_to 10752
  153.3834  135.3914  155.1873 H   0  0  0  0  0  0  0  0  0  0  0  0  # atno 10764 bound_to 10752
  154.8700  135.3840  154.4634 H   0  0  0  0  0  0  0  0  0  0  0  0  # atno 10765 bound_to 10752
  140.1838  134.8456  157.2834 H   0  0  0  0  0  0  0  0  0  0  0  0  # atno 11005 bound_to 11000
  146.1207  140.7312  142.9459 LP  0  0  0  0  0  0  0  0  0  0  0  0  # atno 17320 bound_to 7965
  144.7124  140.4088  143.7070 LP  0  0  0  0  0  0  0  0  0  0  0  0  # atno 17321 bound_to 7965
  140.6704  143.8306  150.6992 LP  0  0  0  0  0  0  0  0  0  0  0  0  # atno 17342 bound_to 10162
  140.1728  143.4180  152.1988 LP  0  0  0  0  0  0  0  0  0  0  0  0  # atno 17343 bound_to 10162
  156.4316  130.7818  151.2837 LP  0  0  0  0  0  0  0  0  0  0  0  0  # atno 17370 bound_to 10713
  157.7504  131.0152  150.3495 LP  0  0  0  0  0  0  0  0  0  0  0  0  # atno 17371 bound_to 10713
  140.2237  134.3993  155.7554 LP  0  0  0  0  0  0  0  0  0  0  0  0  # atno 17394 bound_to 11000
  141.2224  133.7179  156.8530 LP  0  0  0  0  0  0  0  0  0  0  0  0  # atno 17395 bound_to 11000

$$$$
