AV-unprocessed.smi:2530|AV-procd|sdf|9963|dock1
  -GOLD-   2272014 03D 1   1.00000     0.00000
 Structure written by MMmdl.
 44 46  0  0  0  0  0  0  0  0  1 V2000
  153.2804  142.8324  163.3302 C   0  0  0  0  0  0  0  0  0  0  0  0
  152.8211  143.0175  161.8988 C   0  0  0  0  0  0  0  0  0  0  0  0
  152.2962  144.2534  161.4776 C   0  0  0  0  0  0  0  0  0  0  0  0
  151.8673  144.4179  160.1483 C   0  0  0  0  0  0  0  0  0  0  0  0
  151.9628  143.3551  159.2244 C   0  0  0  0  0  0  0  0  0  0  0  0
  151.4686  143.5819  157.8059 C   0  0  0  0  0  0  0  0  0  0  0  0
  152.5058  142.1095  159.6381 C   0  0  0  0  0  0  0  0  0  0  0  0
  152.6305  140.9258  158.6780 C   0  0  1  0  0  0  0  0  0  0  0  0
  153.7624  140.1310  158.9780 O   0  0  0  0  0  0  0  0  0  0  0  0
  151.3703  140.0338  158.7395 C   0  0  0  0  0  0  0  0  0  0  0  0
  150.5451  140.1348  157.5233 N   0  0  0  0  0  0  0  0  0  0  0  0
  151.2032  140.5640  156.3545 C   0  0  0  0  0  0  0  0  0  0  0  0
  150.5795  140.6877  155.2263 N   0  0  0  0  0  0  0  0  0  0  0  0
  149.2134  140.3932  155.1504 C   0  0  0  0  0  0  0  0  0  0  0  0
  148.5262  140.5823  153.8049 C   0  0  0  0  0  0  0  0  0  0  0  0
  147.4224  141.6521  153.7512 C   0  0  0  0  0  0  0  0  0  0  0  0
  146.6370  140.7043  152.8380 C   0  0  0  0  0  0  0  0  0  0  0  0
  147.4397  139.5526  153.4535 C   0  0  0  0  0  0  0  0  0  0  0  0
  148.5349  139.9860  156.2495 C   0  0  0  0  0  0  0  0  0  0  0  0
  149.2141  139.8325  157.5360 C   0  0  0  0  0  0  0  0  0  0  0  0
  148.6285  139.4613  158.5530 O   0  0  0  0  0  0  0  0  0  0  0  0
  152.9226  141.9540  160.9807 C   0  0  0  0  0  0  0  0  0  0  0  0
  152.7389  143.4984  164.0029 H   0  0  0  0  0  0  0  0  0  0  0  0
  154.3451  143.0502  163.4137 H   0  0  0  0  0  0  0  0  0  0  0  0
  153.1116  141.8075  163.6621 H   0  0  0  0  0  0  0  0  0  0  0  0
  152.2171  145.0770  162.1722 H   0  0  0  0  0  0  0  0  0  0  0  0
  151.4599  145.3700  159.8412 H   0  0  0  0  0  0  0  0  0  0  0  0
  152.2943  143.5197  157.0969 H   0  0  0  0  0  0  0  0  0  0  0  0
  151.0098  144.5650  157.6969 H   0  0  0  0  0  0  0  0  0  0  0  0
  150.7186  142.8377  157.5392 H   0  0  0  0  0  0  0  0  0  0  0  0
  152.7796  141.2908  157.6632 H   0  0  0  0  0  0  0  0  0  0  0  0
  153.6754  139.8105  159.8629 H   0  0  0  0  0  0  0  0  0  0  0  0
  151.6477  139.0013  158.9625 H   0  0  0  0  0  0  0  0  0  0  0  0
  150.7585  140.3391  159.5904 H   0  0  0  0  0  0  0  0  0  0  0  0
  152.2657  140.7860  156.4689 H   0  0  0  0  0  0  0  0  0  0  0  0
  149.2485  140.7038  152.9957 H   0  0  0  0  0  0  0  0  0  0  0  0
  146.9210  141.8140  154.7074 H   0  0  0  0  0  0  0  0  0  0  0  0
  147.7203  142.5926  153.2870 H   0  0  0  0  0  0  0  0  0  0  0  0
  145.5643  140.6683  153.0299 H   0  0  0  0  0  0  0  0  0  0  0  0
  146.8559  140.8561  151.7799 H   0  0  0  0  0  0  0  0  0  0  0  0
  147.7512  138.7833  152.7463 H   0  0  0  0  0  0  0  0  0  0  0  0
  146.9470  139.1229  154.3278 H   0  0  0  0  0  0  0  0  0  0  0  0
  147.4787  139.7687  156.1846 H   0  0  0  0  0  0  0  0  0  0  0  0
  153.3242  141.0081  161.3145 H   0  0  0  0  0  0  0  0  0  0  0  0
  1  2  1  0  0  0  0
  1 23  1  0  0  0  0
  1 24  1  0  0  0  0
  1 25  1  0  0  0  0
  2 22  1  0  0  0  0
  2  3  2  0  0  0  0
  3  4  1  0  0  0  0
  3 26  1  0  0  0  0
  4  5  2  0  0  0  0
  4 27  1  0  0  0  0
  5  6  1  0  0  0  0
  5  7  1  0  0  0  0
  6 28  1  0  0  0  0
  6 29  1  0  0  0  0
  6 30  1  0  0  0  0
  7  8  1  0  0  0  0
  7 22  2  0  0  0  0
  8  9  1  0  0  0  0
  8 10  1  0  0  0  0
  8 31  1  0  0  0  0
  9 32  1  0  0  0  0
 10 11  1  0  0  0  0
 10 33  1  0  0  0  0
 10 34  1  0  0  0  0
 11 20  1  0  0  0  0
 11 12  1  0  0  0  0
 12 13  2  0  0  0  0
 12 35  1  0  0  0  0
 13 14  1  0  0  0  0
 14 15  1  0  0  0  0
 14 19  2  0  0  0  0
 15 18  1  0  0  0  0
 15 16  1  0  0  0  0
 15 36  1  0  0  0  0
 16 17  1  0  0  0  0
 16 37  1  0  0  0  0
 16 38  1  0  0  0  0
 17 18  1  0  0  0  0
 17 39  1  0  0  0  0
 17 40  1  0  0  0  0
 18 41  1  0  0  0  0
 18 42  1  0  0  0  0
 19 20  1  0  0  0  0
 19 43  1  0  0  0  0
 20 21  2  0  0  0  0
 22 44  1  0  0  0  0
M  END
> <s_m_source_file>
AV-unprocessed.smi

> <i_m_source_file_index>
2530

> <i_lp_mmshare_version>
43012

> <i_f3d_flags>
0

> <s_epik_input>
W0NIM11jMVtjSF1bY0hdYyhbQ0gzXSljKFtjSF0xKVtDQEhdKFtPSF0pW0NIMl1uMltjSF1uYyhbY0hdYzI9TylbQ0hdM1tDSDJdW0NIMl1bQ0gyXTM=

> <s_epik_cmdline>
J2VwaWtfcHl0aG9uJywgJy1waCcsICc3LjAnLCAnLXRuJywgJzgnLCAnLW1hJywgJzIwMCcsICctbWV0YWxfYmluZGluZycsICctaW1hZScsICc8aW5maWxlLm1hZT4nLCAnLW9tYWUnLCAnPG91dGZpbGUubWFlPic=

> <r_lp_tautomer_probability>
1

> <r_epik_Ionization_Penalty>
2.57341e-05

> <r_epik_Ionization_Penalty_Charging>
5.39435e-08

> <r_epik_Ionization_Penalty_Neutral>
2.56801e-05

> <r_epik_State_Penalty>
-0

> <r_epik_Charging_Adjusted_Penalty>
5.39435e-08

> <i_epik_Tot_Q>
0

> <i_epik_Tot_abs_Q>
0

> <r_epik_Metal_State_Penalty>
-0

> <b_epik_Metal_Only>
0

> <s_lp_Force_Field>
OPLS_2005

> <r_lp_Energy>
28.9103

> <b_lp_Chiralities_Consistent>
1

> <s_lp_Variant>
AV-unprocessed.smi:2530-2

> <Gold.Version>
5.8.1

> <Gold.Id.Protein>
6NUR|6NUR_protein|mol2

> <Gold.PLP.Fitness>
49.9048

> <Gold.PLP.PLP>
-48.4339

> <Gold.PLP.part.hbond>
-3.0000

> <Gold.PLP.part.metal>
0.0000

> <Gold.PLP.part.buried>
0.4927

> <Gold.PLP.part.nonpolar>
-44.2731

> <Gold.PLP.part.repulsive>
0.0657

> <Gold.PLP.ligand.clash>
0.0000

> <Gold.PLP.ligand.torsion>
2.1014

> <Gold.PLP.Chemscore.Hbond>
1.7600

> <Gold.PLP.Chemscore.CHOScore>
0.0000

> <Gold.PLP.Chemscore.Metal>
0.0000

> <Gold.Chemscore.Hbonds>
donor molecule, donor type, donor heavy atom, donor atom, acceptor molecule, acceptor atom, score
      P1  H  7989  7998       L1    13  0.90
      P1  H  7997  8009       L1     9  0.92

> <Gold.PLP.Chemscore.Internal.Correction>
0.3937

> <Gold.Rescore>
     Score         DG    S(hbond)    S(metal)    S(lipo)     H(rot)  DE(clash)    DE(int)     intcor
     19.17     -22.20       1.41        0.00     145.77       1.97       1.22       1.80       ----

> <Gold.Chemscore.Fitness>
19.1748

> <Gold.Chemscore.DG>
-22.1977

> <Gold.Chemscore.ZeroCoef>
-5.4800

> <Gold.Chemscore.Hbond>
1.4077

> <Gold.Chemscore.Metal>
0.0000

> <Gold.Chemscore.Lipo>
145.7706

> <Gold.Chemscore.Internal_Hbond>
0.0000

> <Gold.Chemscore.DEClash>
1.2192

> <Gold.Chemscore.DEInternal>
1.8038

> <Gold.Chemscore.Rot>
1.9684

> <Gold.Chemscore.Internal.Correction>
   9.000000E+99

> <Gold.Chemscore.Hbonds>
donor molecule, donor type, donor heavy atom, donor atom, acceptor molecule, acceptor atom, score
      P1  H  7989  7998       L1    13  0.78
      P1  H  7997  8009       L1     9  0.46

> <Gold.Chemscore.Hbond.Weighted>
-4.7017

> <Gold.Chemscore.Metal.Weighted>
-0.0000

> <Gold.Chemscore.Lipo.Weighted>
-17.0552

> <Gold.Chemscore.Internal_Hbond.Weighted>
0.0000

> <Gold.Chemscore.DEClash.Weighted>
1.2192

> <Gold.Chemscore.DEInternal.Weighted>
1.8038

> <Gold.Chemscore.Rot.Weighted>
5.0391

> <Gold.Chemscore.Internal.Correction.Weighted>
   9.000000E+99

> <Gold.Protein.RotatedTorsions>
[ 6907 6896 6895 6894 ] final -151.32 input  -60.11 | X-H torsion
[ 7974 7965 7964 7962 ] final -170.14 input  175.53 | X-H torsion
[ 8008 7997 7996 7995 ] final  134.94 input   59.86 | X-H torsion
[ 10167 10162 10161 10158 ] final -149.31 input  -65.29 | X-H torsion
[ 10718 10713 10712 10709 ] final  161.68 input   66.30 | X-H torsion
[ 10763 10752 10751 10750 ] final -132.06 input  -60.55 | X-H torsion
[ 11005 11000 10999 10996 ] final  103.00 input  -57.11 | X-H torsion

> <Gold.Protein.ActiveResidues>
 VAL166  LYS551  ARG553  GLY616  TRP617  ASP618  TYR619  PRO620  LYS621  CYS622 
 ASP623  PHE694  ASN695  SER759  ASP760  ASP761  ALA762  ILE779  LEU786  VAL792 
 PHE793  MET794  SER795  GLU796  ALA797  LYS798  CYS799  TRP800  GLU811  SER814 

> <Gold.Protein.RotatedAtoms>
  151.2113  133.4554  159.2598 H   0  0  0  0  0  0  0  0  0  0  0  0  # atno 6907 bound_to 6896
  151.0973  134.9952  159.8442 H   0  0  0  0  0  0  0  0  0  0  0  0  # atno 6908 bound_to 6896
  152.5440  134.2043  159.8777 H   0  0  0  0  0  0  0  0  0  0  0  0  # atno 6909 bound_to 6896
  144.7174  140.2116  143.6327 H   0  0  0  0  0  0  0  0  0  0  0  0  # atno 7974 bound_to 7965
  156.3001  140.2483  156.3500 H   0  0  0  0  0  0  0  0  0  0  0  0  # atno 8008 bound_to 7997
  154.8975  140.0407  157.1893 H   0  0  0  0  0  0  0  0  0  0  0  0  # atno 8009 bound_to 7997
  154.8534  140.2909  155.5588 H   0  0  0  0  0  0  0  0  0  0  0  0  # atno 8010 bound_to 7997
  139.7453  143.8599  152.2573 H   0  0  0  0  0  0  0  0  0  0  0  0  # atno 10167 bound_to 10162
  157.1331  131.0521  151.2362 H   0  0  0  0  0  0  0  0  0  0  0  0  # atno 10718 bound_to 10713
  154.8746  135.3810  154.4348 H   0  0  0  0  0  0  0  0  0  0  0  0  # atno 10763 bound_to 10752
  153.5038  135.7030  153.5822 H   0  0  0  0  0  0  0  0  0  0  0  0  # atno 10764 bound_to 10752
  153.4142  135.3917  155.2036 H   0  0  0  0  0  0  0  0  0  0  0  0  # atno 10765 bound_to 10752
  139.8781  134.9246  156.5144 H   0  0  0  0  0  0  0  0  0  0  0  0  # atno 11005 bound_to 11000
  145.8586  139.2211  143.1730 LP  0  0  0  0  0  0  0  0  0  0  0  0  # atno 17320 bound_to 7965
  146.0195  140.8361  142.9930 LP  0  0  0  0  0  0  0  0  0  0  0  0  # atno 17321 bound_to 7965
  139.8562  144.7140  150.9154 LP  0  0  0  0  0  0  0  0  0  0  0  0  # atno 17342 bound_to 10162
  140.7791  143.3857  151.1399 LP  0  0  0  0  0  0  0  0  0  0  0  0  # atno 17343 bound_to 10162
  157.4375  130.7525  149.7041 LP  0  0  0  0  0  0  0  0  0  0  0  0  # atno 17370 bound_to 10713
  155.9804  130.4030  150.3532 LP  0  0  0  0  0  0  0  0  0  0  0  0  # atno 17371 bound_to 10713
  140.8497  133.8142  155.9156 LP  0  0  0  0  0  0  0  0  0  0  0  0  # atno 17394 bound_to 11000
  140.9157  134.2205  157.4958 LP  0  0  0  0  0  0  0  0  0  0  0  0  # atno 17395 bound_to 11000

$$$$
