AV-unprocessed.smi:55|AV-procd|sdf|567|dock6
  -GOLD-   2262016473D 1   1.00000     0.00000
 Structure written by MMmdl.
 31 32  0  0  0  0  0  0  0  0  1 V2000
  151.9301  144.6108  158.0264 C   0  0  0  0  0  0  0  0  0  0  0  0
  151.6351  143.1384  158.2603 C   0  0  0  0  0  0  0  0  0  0  0  0
  150.8106  142.4240  157.4523 C   0  0  0  0  0  0  0  0  0  0  0  0
  150.5263  141.0780  157.6366 N   0  0  0  0  0  0  0  0  0  0  0  0
  149.6044  140.3381  156.6942 C   0  0  2  0  0  0  0  0  0  0  0  0
  150.1533  140.3645  155.2666 C   0  0  0  0  0  0  0  0  0  0  0  0
  148.8848  140.5305  154.4563 C   0  0  2  0  0  0  0  0  0  0  0  0
  149.1641  141.1392  153.2122 O   0  0  0  0  0  0  0  0  0  0  0  0
  148.0388  141.4216  155.3711 C   0  0  1  0  0  0  0  0  0  0  0  0
  146.5218  141.3150  155.1507 C   0  0  0  0  0  0  0  0  0  0  0  0
  146.2082  141.4563  153.7815 O   0  0  0  0  0  0  0  0  0  0  0  0
  148.3578  140.9712  156.6864 O   0  0  0  0  0  0  0  0  0  0  0  0
  151.1336  140.3836  158.7035 C   0  0  0  0  0  0  0  0  0  0  0  0
  150.9561  139.1843  158.9128 O   0  0  0  0  0  0  0  0  0  0  0  0
  151.9763  141.1174  159.5365 N   0  0  0  0  0  0  0  0  0  0  0  0
  152.2775  142.4745  159.3978 C   0  0  0  0  0  0  0  0  0  0  0  0
  153.0355  143.0135  160.2023 O   0  0  0  0  0  0  0  0  0  0  0  0
  149.4565  139.3297  157.0836 H   0  0  0  0  0  0  0  0  0  0  0  0
  148.4060  139.5618  154.3062 H   0  0  0  0  0  0  0  0  0  0  0  0
  148.3623  142.4608  155.2903 H   0  0  0  0  0  0  0  0  0  0  0  0
  152.4107  140.6248  160.3035 H   0  0  0  0  0  0  0  0  0  0  0  0
  151.3869  145.0004  157.1652 H   0  0  0  0  0  0  0  0  0  0  0  0
  152.9951  144.7612  157.8461 H   0  0  0  0  0  0  0  0  0  0  0  0
  151.6432  145.2012  158.8973 H   0  0  0  0  0  0  0  0  0  0  0  0
  150.3580  142.9338  156.6155 H   0  0  0  0  0  0  0  0  0  0  0  0
  150.8102  141.2273  155.1406 H   0  0  0  0  0  0  0  0  0  0  0  0
  150.7108  139.4557  155.0384 H   0  0  0  0  0  0  0  0  0  0  0  0
  149.2597  140.4596  152.5619 H   0  0  0  0  0  0  0  0  0  0  0  0
  146.1372  140.3637  155.5195 H   0  0  0  0  0  0  0  0  0  0  0  0
  146.0084  142.1044  155.7000 H   0  0  0  0  0  0  0  0  0  0  0  0
  145.3910  141.0123  153.6133 H   0  0  0  0  0  0  0  0  0  0  0  0
  1  2  1  0  0  0  0
  1 22  1  0  0  0  0
  1 23  1  0  0  0  0
  1 24  1  0  0  0  0
  2 16  1  0  0  0  0
  2  3  2  0  0  0  0
  3  4  1  0  0  0  0
  3 25  1  0  0  0  0
  4  5  1  0  0  0  0
  4 13  1  0  0  0  0
  5 18  1  0  0  0  0
  5 12  1  0  0  0  0
  5  6  1  0  0  0  0
  6  7  1  0  0  0  0
  6 26  1  0  0  0  0
  6 27  1  0  0  0  0
  7 19  1  0  0  0  0
  7  8  1  0  0  0  0
  7  9  1  0  0  0  0
  8 28  1  0  0  0  0
  9 20  1  0  0  0  0
  9 10  1  0  0  0  0
  9 12  1  0  0  0  0
 10 11  1  0  0  0  0
 10 29  1  0  0  0  0
 10 30  1  0  0  0  0
 11 31  1  0  0  0  0
 13 14  2  0  0  0  0
 13 15  1  0  0  0  0
 15 21  1  0  0  0  0
 15 16  1  0  0  0  0
 16 17  2  0  0  0  0
M  END
> <s_m_source_file>
AV-unprocessed.smi

> <i_m_source_file_index>
55

> <i_lp_mmshare_version>
43012

> <i_f3d_flags>
0

> <s_epik_input>
Tz1jMVtuSF1jKD1PKW4oW2NIXWMxW0NIM10pW0NAQEhdMltDSDJdW0NAQEhdKFtPSF0pW0NAQEhdKE8yKVtDSDJdW09IXQ==

> <s_epik_cmdline>
J2VwaWtfcHl0aG9uJywgJy1waCcsICc3LjAnLCAnLXRuJywgJzgnLCAnLW1hJywgJzIwMCcsICctbWV0YWxfYmluZGluZycsICctaW1hZScsICc8aW5maWxlLm1hZT4nLCAnLW9tYWUnLCAnPG91dGZpbGUubWFlPic=

> <r_lp_tautomer_probability>
0.999537

> <r_epik_Ionization_Penalty>
0.00121888

> <r_epik_Ionization_Penalty_Charging>
0.00121876

> <r_epik_Ionization_Penalty_Neutral>
1.19946e-07

> <r_epik_State_Penalty>
0.000805124

> <r_epik_Charging_Adjusted_Penalty>
0.00202389

> <i_epik_Tot_Q>
0

> <i_epik_Tot_abs_Q>
0

> <r_epik_Metal_State_Penalty>
0.662472

> <b_epik_Metal_Only>
0

> <s_epik_Chemistry_Notes>
This compound contains an acetal/aminal-like group ( X-CH(R)-Y where X, Y are N, S, or O) that may be acid/base labile, releasing an aldehyde.

> <s_lp_Force_Field>
OPLS_2005

> <r_lp_Energy>
24.0727

> <b_lp_Chiralities_Consistent>
1

> <s_lp_Variant>
AV-unprocessed.smi:55-7

> <Gold.Version>
5.8.1

> <Gold.Id.Protein>
6NUR|6NUR_protein|mol2

> <Gold.PLP.Fitness>
41.7883

> <Gold.PLP.PLP>
-30.9718

> <Gold.PLP.part.hbond>
-3.3856

> <Gold.PLP.part.metal>
0.0000

> <Gold.PLP.part.buried>
-6.4103

> <Gold.PLP.part.nonpolar>
-22.8483

> <Gold.PLP.part.repulsive>
0.2125

> <Gold.PLP.ligand.clash>
0.0000

> <Gold.PLP.ligand.torsion>
0.0772

> <Gold.PLP.Chemscore.Hbond>
2.6544

> <Gold.PLP.Chemscore.CHOScore>
1.0000

> <Gold.PLP.Chemscore.Metal>
0.0000

> <Gold.Chemscore.Hbonds>
donor molecule, donor type, donor heavy atom, donor atom, acceptor molecule, acceptor atom, score
      L1  H     8    28       P1  7957  0.90
      L1  H    11    31       P1 10175  0.80
      P1  H  8011  8017       L1     8  0.90
      L1  C     3    25       P1  8028  1.00

> <Gold.PLP.Chemscore.Internal.Correction>
0.0077

> <Gold.Rescore>
     Score         DG    S(hbond)    S(metal)    S(lipo)     H(rot)  DE(clash)    DE(int)     intcor
     11.72     -11.88       2.09        0.00      54.79       2.73       0.03       0.13       ----

> <Gold.Chemscore.Fitness>
11.7203

> <Gold.Chemscore.DG>
-11.8800

> <Gold.Chemscore.ZeroCoef>
-5.4800

> <Gold.Chemscore.Hbond>
2.0858

> <Gold.Chemscore.Metal>
0.0000

> <Gold.Chemscore.Lipo>
54.7879

> <Gold.Chemscore.Internal_Hbond>
0.0000

> <Gold.Chemscore.DEClash>
0.0270

> <Gold.Chemscore.DEInternal>
0.1327

> <Gold.Chemscore.Rot>
2.7253

> <Gold.Chemscore.Internal.Correction>
   9.000000E+99

> <Gold.Chemscore.Hbonds>
donor molecule, donor type, donor heavy atom, donor atom, acceptor molecule, acceptor atom, score
      L1  H     8    28       P1  7957  0.83
      L1  H    11    31       P1 10175  0.54
      P1  H  8011  8017       L1     8  0.18

> <Gold.Chemscore.Hbond.Weighted>
-6.9667

> <Gold.Chemscore.Metal.Weighted>
-0.0000

> <Gold.Chemscore.Lipo.Weighted>
-6.4102

> <Gold.Chemscore.Internal_Hbond.Weighted>
0.0000

> <Gold.Chemscore.DEClash.Weighted>
0.0270

> <Gold.Chemscore.DEInternal.Weighted>
0.1327

> <Gold.Chemscore.Rot.Weighted>
6.9769

> <Gold.Chemscore.Internal.Correction.Weighted>
   9.000000E+99

> <Gold.Protein.RotatedTorsions>
[ 6907 6896 6895 6894 ] final   14.41 input  -60.11 | X-H torsion
[ 7974 7965 7964 7962 ] final  -25.53 input  175.53 | X-H torsion
[ 8008 7997 7996 7995 ] final   57.05 input   59.86 | X-H torsion
[ 10167 10162 10161 10158 ] final   83.92 input  -65.29 | X-H torsion
[ 10718 10713 10712 10709 ] final  -63.01 input   66.30 | X-H torsion
[ 10763 10752 10751 10750 ] final -108.41 input  -60.55 | X-H torsion
[ 11005 11000 10999 10996 ] final  -31.55 input  -57.11 | X-H torsion

> <Gold.Protein.ActiveResidues>
 VAL166  LYS551  ARG553  GLY616  TRP617  ASP618  TYR619  PRO620  LYS621  CYS622 
 ASP623  PHE694  ASN695  SER759  ASP760  ASP761  ALA762  ILE779  LEU786  VAL792 
 PHE793  MET794  SER795  GLU796  ALA797  LYS798  CYS799  TRP800  GLU811  SER814 

> <Gold.Protein.RotatedAtoms>
  151.8018  135.0706  160.0401 H   0  0  0  0  0  0  0  0  0  0  0  0  # atno 6907 bound_to 6896
  152.3083  133.5722  159.5672 H   0  0  0  0  0  0  0  0  0  0  0  0  # atno 6908 bound_to 6896
  150.7307  134.0106  159.3710 H   0  0  0  0  0  0  0  0  0  0  0  0  # atno 6909 bound_to 6896
  146.1485  140.4899  142.8621 H   0  0  0  0  0  0  0  0  0  0  0  0  # atno 7974 bound_to 7965
  155.5275  140.3481  155.4419 H   0  0  0  0  0  0  0  0  0  0  0  0  # atno 8008 bound_to 7997
  156.0742  140.1370  156.9819 H   0  0  0  0  0  0  0  0  0  0  0  0  # atno 8009 bound_to 7997
  154.4544  140.0959  156.6689 H   0  0  0  0  0  0  0  0  0  0  0  0  # atno 8010 bound_to 7997
  139.9134  144.6257  150.8513 H   0  0  0  0  0  0  0  0  0  0  0  0  # atno 10167 bound_to 10162
  156.0818  130.4215  150.1216 H   0  0  0  0  0  0  0  0  0  0  0  0  # atno 10718 bound_to 10713
  154.8134  135.4639  154.0577 H   0  0  0  0  0  0  0  0  0  0  0  0  # atno 10763 bound_to 10752
  153.1990  135.6866  153.8262 H   0  0  0  0  0  0  0  0  0  0  0  0  # atno 10764 bound_to 10752
  153.7754  135.3264  155.3335 H   0  0  0  0  0  0  0  0  0  0  0  0  # atno 10765 bound_to 10752
  140.9477  133.7240  156.1172 H   0  0  0  0  0  0  0  0  0  0  0  0  # atno 11005 bound_to 11000
  144.7875  140.5965  143.6564 LP  0  0  0  0  0  0  0  0  0  0  0  0  # atno 17320 bound_to 7965
  145.4881  139.1490  143.3725 LP  0  0  0  0  0  0  0  0  0  0  0  0  # atno 17321 bound_to 7965
  140.7680  143.3349  151.2331 LP  0  0  0  0  0  0  0  0  0  0  0  0  # atno 17342 bound_to 10162
  139.6923  143.9672  152.2865 LP  0  0  0  0  0  0  0  0  0  0  0  0  # atno 17343 bound_to 10162
  156.9246  130.9694  151.3543 LP  0  0  0  0  0  0  0  0  0  0  0  0  # atno 17370 bound_to 10713
  157.5938  130.8462  149.8698 LP  0  0  0  0  0  0  0  0  0  0  0  0  # atno 17371 bound_to 10713
  140.7646  134.3901  157.5519 LP  0  0  0  0  0  0  0  0  0  0  0  0  # atno 17394 bound_to 11000
  139.8838  134.8983  156.2742 LP  0  0  0  0  0  0  0  0  0  0  0  0  # atno 17395 bound_to 11000

$$$$
