AV-unprocessed.smi:841|AV-procd|sdf|3916|dock6
  -GOLD-   22720 1383D 1   1.00000     0.00000
 Structure written by MMmdl.
 30 31  0  0  0  0  0  0  0  0  1 V2000
  154.2911  140.4477  158.9948 O   0  0  0  0  0  0  0  0  0  0  0  0
  153.2702  141.0241  159.3705 C   0  0  0  0  0  0  0  0  0  0  0  0
  153.3719  142.3404  160.1453 C   0  0  0  0  0  0  0  0  0  0  0  0
  152.4685  143.3451  159.6106 N   0  0  0  0  0  0  0  0  0  0  0  0
  152.0473  144.5210  160.1974 C   0  0  0  0  0  0  0  0  0  0  0  0
  151.1948  145.1307  159.3221 C   0  0  0  0  0  0  0  0  0  0  0  0
  151.1518  144.2377  158.2153 C   0  0  0  0  0  0  0  0  0  0  0  0
  151.9118  143.1689  158.3922 N   0  0  0  0  0  0  0  0  0  0  0  0
  152.0314  140.5629  159.1365 N   0  0  0  0  0  0  0  0  0  0  0  0
  151.7040  139.3354  158.4177 C   0  0  0  0  0  0  0  0  0  0  0  0
  151.8977  139.4908  156.8976 C   0  0  1  0  0  0  0  0  0  0  0  0
  151.6424  138.2380  156.0813 C   0  0  0  0  0  0  0  0  0  0  0  0
  151.4256  138.8069  154.6823 C   0  0  0  0  0  0  0  0  0  0  0  0
  150.8691  140.1053  154.8695 O   0  0  0  0  0  0  0  0  0  0  0  0
  150.9136  140.4625  156.2475 C   0  0  0  0  0  0  0  0  0  0  0  0
  153.1385  142.1578  161.1955 H   0  0  0  0  0  0  0  0  0  0  0  0
  154.3880  142.7358  160.1067 H   0  0  0  0  0  0  0  0  0  0  0  0
  152.3872  144.8224  161.1772 H   0  0  0  0  0  0  0  0  0  0  0  0
  150.6790  146.0704  159.4531 H   0  0  0  0  0  0  0  0  0  0  0  0
  150.5926  144.3322  157.2961 H   0  0  0  0  0  0  0  0  0  0  0  0
  151.2534  141.1064  159.4815 H   0  0  0  0  0  0  0  0  0  0  0  0
  152.2873  138.4944  158.7967 H   0  0  0  0  0  0  0  0  0  0  0  0
  150.6606  139.0992  158.6278 H   0  0  0  0  0  0  0  0  0  0  0  0
  152.9119  139.8394  156.6946 H   0  0  0  0  0  0  0  0  0  0  0  0
  152.4629  137.5210  156.1226 H   0  0  0  0  0  0  0  0  0  0  0  0
  150.7353  137.7388  156.4251 H   0  0  0  0  0  0  0  0  0  0  0  0
  152.3783  138.9104  154.1613 H   0  0  0  0  0  0  0  0  0  0  0  0
  150.7747  138.1776  154.0753 H   0  0  0  0  0  0  0  0  0  0  0  0
  149.9138  140.3398  156.6663 H   0  0  0  0  0  0  0  0  0  0  0  0
  151.2081  141.5041  156.3775 H   0  0  0  0  0  0  0  0  0  0  0  0
  1  2  2  0  0  0  0
  2  3  1  0  0  0  0
  2  9  1  0  0  0  0
  3  4  1  0  0  0  0
  3 16  1  0  0  0  0
  3 17  1  0  0  0  0
  4  8  1  0  0  0  0
  4  5  1  0  0  0  0
  5  6  2  0  0  0  0
  5 18  1  0  0  0  0
  6  7  1  0  0  0  0
  6 19  1  0  0  0  0
  7  8  2  0  0  0  0
  7 20  1  0  0  0  0
  9 10  1  0  0  0  0
  9 21  1  0  0  0  0
 10 11  1  0  0  0  0
 10 22  1  0  0  0  0
 10 23  1  0  0  0  0
 11 15  1  0  0  0  0
 11 12  1  0  0  0  0
 11 24  1  0  0  0  0
 12 13  1  0  0  0  0
 12 25  1  0  0  0  0
 12 26  1  0  0  0  0
 13 14  1  0  0  0  0
 13 27  1  0  0  0  0
 13 28  1  0  0  0  0
 14 15  1  0  0  0  0
 15 29  1  0  0  0  0
 15 30  1  0  0  0  0
M  END
> <s_m_source_file>
AV-unprocessed.smi

> <i_m_source_file_index>
841

> <i_lp_mmshare_version>
43012

> <i_f3d_flags>
0

> <s_epik_input>
bjFbY0hdW2NIXVtjSF1uMVtDSDJdQyg9TylbTkhdW0NIMl1bQ0BASF0yW0NIMl1bQ0gyXU9bQ0gyXTI=

> <s_epik_cmdline>
J2VwaWtfcHl0aG9uJywgJy1waCcsICc3LjAnLCAnLXRuJywgJzgnLCAnLW1hJywgJzIwMCcsICctbWV0YWxfYmluZGluZycsICctaW1hZScsICc8aW5maWxlLm1hZT4nLCAnLW9tYWUnLCAnPG91dGZpbGUubWFlPic=

> <r_lp_tautomer_probability>
1

> <r_epik_Ionization_Penalty>
1.49823e-05

> <r_epik_Ionization_Penalty_Charging>
0

> <r_epik_Ionization_Penalty_Neutral>
1.49823e-05

> <r_epik_State_Penalty>
-0

> <r_epik_Charging_Adjusted_Penalty>
0

> <i_epik_Tot_Q>
0

> <i_epik_Tot_abs_Q>
0

> <r_epik_Metal_State_Penalty>
-0

> <b_epik_Metal_Only>
0

> <s_lp_Force_Field>
OPLS_2005

> <r_lp_Energy>
18.8738

> <b_lp_Chiralities_Consistent>
1

> <s_lp_Variant>
AV-unprocessed.smi:841-2

> <Gold.Version>
5.8.1

> <Gold.Id.Protein>
6NUR|6NUR_protein|mol2

> <Gold.PLP.Fitness>
43.7782

> <Gold.PLP.PLP>
-36.1867

> <Gold.PLP.part.hbond>
-1.9562

> <Gold.PLP.part.metal>
0.0000

> <Gold.PLP.part.buried>
-3.9054

> <Gold.PLP.part.nonpolar>
-29.8967

> <Gold.PLP.part.repulsive>
0.2397

> <Gold.PLP.ligand.clash>
0.0000

> <Gold.PLP.ligand.torsion>
0.4495

> <Gold.PLP.Chemscore.Hbond>
1.8268

> <Gold.PLP.Chemscore.CHOScore>
1.0000

> <Gold.PLP.Chemscore.Metal>
0.0000

> <Gold.Chemscore.Hbonds>
donor molecule, donor type, donor heavy atom, donor atom, acceptor molecule, acceptor atom, score
      P1  H  7989  7998       L1    14  0.85
      P1  H  7997  8010       L1     1  0.78
      L1  C     7    20       P1  8028  1.00

> <Gold.PLP.Chemscore.Internal.Correction>
0.0100

> <Gold.Rescore>
     Score         DG    S(hbond)    S(metal)    S(lipo)     H(rot)  DE(clash)    DE(int)     intcor
     16.05     -16.56       1.84        0.00      78.97       1.68       0.01       0.50       ----

> <Gold.Chemscore.Fitness>
16.0467

> <Gold.Chemscore.DG>
-16.5579

> <Gold.Chemscore.ZeroCoef>
-5.4800

> <Gold.Chemscore.Hbond>
1.8357

> <Gold.Chemscore.Metal>
0.0000

> <Gold.Chemscore.Lipo>
78.9740

> <Gold.Chemscore.Internal_Hbond>
0.0000

> <Gold.Chemscore.DEClash>
0.0088

> <Gold.Chemscore.DEInternal>
0.5023

> <Gold.Chemscore.Rot>
1.6771

> <Gold.Chemscore.Internal.Correction>
   9.000000E+99

> <Gold.Chemscore.Hbonds>
donor molecule, donor type, donor heavy atom, donor atom, acceptor molecule, acceptor atom, score
      P1  H  7989  7998       L1    14  0.15
      P1  H  7997  8010       L1     1  0.78

> <Gold.Chemscore.Hbond.Weighted>
-6.1313

> <Gold.Chemscore.Metal.Weighted>
-0.0000

> <Gold.Chemscore.Lipo.Weighted>
-9.2400

> <Gold.Chemscore.Internal_Hbond.Weighted>
0.0000

> <Gold.Chemscore.DEClash.Weighted>
0.0088

> <Gold.Chemscore.DEInternal.Weighted>
0.5023

> <Gold.Chemscore.Rot.Weighted>
4.2934

> <Gold.Chemscore.Internal.Correction.Weighted>
   9.000000E+99

> <Gold.Protein.RotatedTorsions>
[ 6907 6896 6895 6894 ] final -100.78 input  -60.11 | X-H torsion
[ 7974 7965 7964 7962 ] final  -95.36 input  175.53 | X-H torsion
[ 8008 7997 7996 7995 ] final    7.56 input   59.86 | X-H torsion
[ 10167 10162 10161 10158 ] final  -39.37 input  -65.29 | X-H torsion
[ 10718 10713 10712 10709 ] final   40.42 input   66.30 | X-H torsion
[ 10763 10752 10751 10750 ] final  120.55 input  -60.55 | X-H torsion
[ 11005 11000 10999 10996 ] final  -83.81 input  -57.11 | X-H torsion

> <Gold.Protein.ActiveResidues>
 VAL166  LYS551  ARG553  GLY616  TRP617  ASP618  TYR619  PRO620  LYS621  CYS622 
 ASP623  PHE694  ASN695  SER759  ASP760  ASP761  ALA762  ILE779  LEU786  VAL792 
 PHE793  MET794  SER795  GLU796  ALA797  LYS798  CYS799  TRP800  GLU811  SER814 

> <Gold.Protein.RotatedAtoms>
  150.7129  134.0835  159.3905 H   0  0  0  0  0  0  0  0  0  0  0  0  # atno 6907 bound_to 6896
  151.8819  135.0448  160.0499 H   0  0  0  0  0  0  0  0  0  0  0  0  # atno 6908 bound_to 6896
  152.2561  133.5221  159.5390 H   0  0  0  0  0  0  0  0  0  0  0  0  # atno 6909 bound_to 6896
  145.3611  140.9492  143.2500 H   0  0  0  0  0  0  0  0  0  0  0  0  # atno 7974 bound_to 7965
  154.7554  140.2775  155.6258 H   0  0  0  0  0  0  0  0  0  0  0  0  # atno 8008 bound_to 7997
  156.2904  140.2670  156.2246 H   0  0  0  0  0  0  0  0  0  0  0  0  # atno 8009 bound_to 7997
  155.0084  140.0372  157.2379 H   0  0  0  0  0  0  0  0  0  0  0  0  # atno 8010 bound_to 7997
  140.7066  143.3219  151.2773 H   0  0  0  0  0  0  0  0  0  0  0  0  # atno 10167 bound_to 10162
  157.3819  130.7758  149.7200 H   0  0  0  0  0  0  0  0  0  0  0  0  # atno 10718 bound_to 10713
  153.6003  135.3449  155.2943 H   0  0  0  0  0  0  0  0  0  0  0  0  # atno 10763 bound_to 10752
  154.8637  135.4226  154.2420 H   0  0  0  0  0  0  0  0  0  0  0  0  # atno 10764 bound_to 10752
  153.3247  135.7040  153.7071 H   0  0  0  0  0  0  0  0  0  0  0  0  # atno 10765 bound_to 10752
  141.1655  133.7313  156.8775 H   0  0  0  0  0  0  0  0  0  0  0  0  # atno 11005 bound_to 11000
  144.8645  139.5127  143.6796 LP  0  0  0  0  0  0  0  0  0  0  0  0  # atno 17320 bound_to 7965
  146.2927  139.7185  142.9149 LP  0  0  0  0  0  0  0  0  0  0  0  0  # atno 17321 bound_to 7965
  139.6675  144.0079  152.2732 LP  0  0  0  0  0  0  0  0  0  0  0  0  # atno 17342 bound_to 10162
  139.9667  144.6522  150.8028 LP  0  0  0  0  0  0  0  0  0  0  0  0  # atno 17343 bound_to 10162
  155.9778  130.4059  150.3690 LP  0  0  0  0  0  0  0  0  0  0  0  0  # atno 17370 bound_to 10713
  157.1795  131.0389  151.2755 LP  0  0  0  0  0  0  0  0  0  0  0  0  # atno 17371 bound_to 10713
  140.1738  134.9081  157.2866 LP  0  0  0  0  0  0  0  0  0  0  0  0  # atno 17394 bound_to 11000
  140.2472  134.3726  155.7456 LP  0  0  0  0  0  0  0  0  0  0  0  0  # atno 17395 bound_to 11000

$$$$
