AV-unprocessed.smi:1005|AV-procd|sdf|4387|dock6
  -GOLD-   22720 2313D 1   1.00000     0.00000
 Structure written by MMmdl.
 55 57  0  0  0  0  0  0  0  0  1 V2000
  153.3090  139.4764  159.6202 C   0  0  0  0  0  0  0  0  0  0  0  0
  152.4150  139.8391  158.4476 C   0  0  0  0  0  0  0  0  0  0  0  0
  152.1477  138.8638  157.4604 C   0  0  0  0  0  0  0  0  0  0  0  0
  151.3214  139.1603  156.3542 C   0  0  0  0  0  0  0  0  0  0  0  0
  150.9316  138.3712  155.2855 N   0  0  0  0  0  0  0  0  0  0  0  0
  150.1669  139.2128  154.5957 C   0  0  0  0  0  0  0  0  0  0  0  0
  150.0154  140.4558  155.0919 N   0  0  0  0  0  0  0  0  0  0  0  0
  149.2362  141.5408  154.5231 C   0  0  0  0  0  0  0  0  0  0  0  0
  147.7481  141.1757  154.3685 C   0  0  1  0  0  0  0  0  0  0  0  0
  147.5883  140.3489  153.2316 O   0  0  0  0  0  0  0  0  0  0  0  0
  147.2176  140.4263  155.6081 C   0  0  0  0  0  0  0  0  0  0  0  0
  146.5179  141.2496  156.5957 N   0  0  0  0  0  0  0  0  0  0  0  0
  145.7477  140.4185  157.5138 C   0  0  0  0  0  0  0  0  0  0  0  0
  145.0073  141.2590  158.5667 C   0  0  0  0  0  0  0  0  0  0  0  0
  145.9449  142.0702  159.2666 O   0  0  0  0  0  0  0  0  0  0  0  0
  146.6674  142.9537  158.4115 C   0  0  1  0  0  0  0  0  0  0  0  0
  147.6108  143.7979  159.2937 C   0  0  0  0  0  0  0  0  0  0  0  0
  146.9556  144.7152  160.2281 N   0  0  0  0  0  0  0  0  0  0  0  0
  147.8768  145.6870  160.8036 C   0  0  0  0  0  0  0  0  0  0  0  0
  146.2769  143.9765  161.2838 C   0  0  0  0  0  0  0  0  0  0  0  0
  147.4229  142.0937  157.3741 C   0  0  0  0  0  0  0  0  0  0  0  0
  150.7648  140.4693  156.2629 C   0  0  0  0  0  0  0  0  0  0  0  0
  151.0229  141.4482  157.2386 C   0  0  0  0  0  0  0  0  0  0  0  0
  151.8508  141.1356  158.3370 C   0  0  0  0  0  0  0  0  0  0  0  0
  152.1247  142.2011  159.3838 C   0  0  0  0  0  0  0  0  0  0  0  0
  153.7075  138.4663  159.5198 H   0  0  0  0  0  0  0  0  0  0  0  0
  152.7490  139.5243  160.5546 H   0  0  0  0  0  0  0  0  0  0  0  0
  154.1534  140.1628  159.6860 H   0  0  0  0  0  0  0  0  0  0  0  0
  152.5766  137.8760  157.5443 H   0  0  0  0  0  0  0  0  0  0  0  0
  149.6906  138.9095  153.6747 H   0  0  0  0  0  0  0  0  0  0  0  0
  149.3524  142.4253  155.1512 H   0  0  0  0  0  0  0  0  0  0  0  0
  149.6649  141.7893  153.5515 H   0  0  0  0  0  0  0  0  0  0  0  0
  147.1895  142.0955  154.2026 H   0  0  0  0  0  0  0  0  0  0  0  0
  148.4305  140.2401  152.8174 H   0  0  0  0  0  0  0  0  0  0  0  0
  146.5519  139.6334  155.2633 H   0  0  0  0  0  0  0  0  0  0  0  0
  148.0486  139.9174  156.0993 H   0  0  0  0  0  0  0  0  0  0  0  0
  145.0243  139.8220  156.9567 H   0  0  0  0  0  0  0  0  0  0  0  0
  146.4103  139.7136  158.0187 H   0  0  0  0  0  0  0  0  0  0  0  0
  144.2478  141.8865  158.0980 H   0  0  0  0  0  0  0  0  0  0  0  0
  144.4947  140.6115  159.2780 H   0  0  0  0  0  0  0  0  0  0  0  0
  145.9479  143.6068  157.9134 H   0  0  0  0  0  0  0  0  0  0  0  0
  148.2080  143.1010  159.8837 H   0  0  0  0  0  0  0  0  0  0  0  0
  148.3281  144.3361  158.6721 H   0  0  0  0  0  0  0  0  0  0  0  0
  147.3672  146.3183  161.5323 H   0  0  0  0  0  0  0  0  0  0  0  0
  148.2785  146.3487  160.0368 H   0  0  0  0  0  0  0  0  0  0  0  0
  148.7090  145.1930  161.3070 H   0  0  0  0  0  0  0  0  0  0  0  0
  145.7407  144.6549  161.9481 H   0  0  0  0  0  0  0  0  0  0  0  0
  146.9864  143.4041  161.8829 H   0  0  0  0  0  0  0  0  0  0  0  0
  145.5472  143.2823  160.8653 H   0  0  0  0  0  0  0  0  0  0  0  0
  148.1574  141.4697  157.8858 H   0  0  0  0  0  0  0  0  0  0  0  0
  147.9852  142.7497  156.7146 H   0  0  0  0  0  0  0  0  0  0  0  0
  150.5873  142.4316  157.1405 H   0  0  0  0  0  0  0  0  0  0  0  0
  151.5596  143.1115  159.1815 H   0  0  0  0  0  0  0  0  0  0  0  0
  153.1839  142.4594  159.3959 H   0  0  0  0  0  0  0  0  0  0  0  0
  151.8424  141.8475  160.3758 H   0  0  0  0  0  0  0  0  0  0  0  0
  1  2  1  0  0  0  0
  1 26  1  0  0  0  0
  1 27  1  0  0  0  0
  1 28  1  0  0  0  0
  2 24  1  0  0  0  0
  2  3  2  0  0  0  0
  3  4  1  0  0  0  0
  3 29  1  0  0  0  0
  4 22  2  0  0  0  0
  4  5  1  0  0  0  0
  5  6  2  0  0  0  0
  6  7  1  0  0  0  0
  6 30  1  0  0  0  0
  7  8  1  0  0  0  0
  7 22  1  0  0  0  0
  8  9  1  0  0  0  0
  8 31  1  0  0  0  0
  8 32  1  0  0  0  0
  9 10  1  0  0  0  0
  9 11  1  0  0  0  0
  9 33  1  0  0  0  0
 10 34  1  0  0  0  0
 11 12  1  0  0  0  0
 11 35  1  0  0  0  0
 11 36  1  0  0  0  0
 12 21  1  0  0  0  0
 12 13  1  0  0  0  0
 13 14  1  0  0  0  0
 13 37  1  0  0  0  0
 13 38  1  0  0  0  0
 14 15  1  0  0  0  0
 14 39  1  0  0  0  0
 14 40  1  0  0  0  0
 15 16  1  0  0  0  0
 16 17  1  0  0  0  0
 16 21  1  0  0  0  0
 16 41  1  0  0  0  0
 17 18  1  0  0  0  0
 17 42  1  0  0  0  0
 17 43  1  0  0  0  0
 18 19  1  0  0  0  0
 18 20  1  0  0  0  0
 19 44  1  0  0  0  0
 19 45  1  0  0  0  0
 19 46  1  0  0  0  0
 20 47  1  0  0  0  0
 20 48  1  0  0  0  0
 20 49  1  0  0  0  0
 21 50  1  0  0  0  0
 21 51  1  0  0  0  0
 22 23  1  0  0  0  0
 23 24  2  0  0  0  0
 23 52  1  0  0  0  0
 24 25  1  0  0  0  0
 25 53  1  0  0  0  0
 25 54  1  0  0  0  0
 25 55  1  0  0  0  0
M  END
> <s_m_source_file>
AV-unprocessed.smi

> <i_m_source_file_index>
1005

> <i_lp_mmshare_version>
43012

> <i_f3d_flags>
0

> <s_epik_input>
W0NIM11jKFtjSF0xKWMoW0NIM10pW2NIXWMoYzEyKW4oW2NIXW4yKVtDSDJdW0NASF0oW09IXSlbQ0gyXU4zW0NIMl1bQ0gyXU9bQ0BIXShbQ0gyXTMpW0NIMl1OKFtDSDNdKVtDSDNd

> <s_epik_cmdline>
J2VwaWtfcHl0aG9uJywgJy1waCcsICc3LjAnLCAnLXRuJywgJzgnLCAnLW1hJywgJzIwMCcsICctbWV0YWxfYmluZGluZycsICctaW1hZScsICc8aW5maWxlLm1hZT4nLCAnLW9tYWUnLCAnPG91dGZpbGUubWFlPic=

> <r_epik_Ionization_Penalty>
2.78613

> <r_epik_Ionization_Penalty_Charging>
0

> <r_epik_Ionization_Penalty_Neutral>
2.78613

> <r_epik_State_Penalty>
2.57336

> <r_epik_Charging_Adjusted_Penalty>
2.57336

> <i_epik_Tot_Q>
0

> <i_epik_Tot_abs_Q>
0

> <r_epik_Metal_State_Penalty>
2.49087

> <b_epik_Metal_Only>
0

> <s_lp_Force_Field>
OPLS_2005

> <r_lp_Energy>
38.3146

> <b_lp_Chiralities_Consistent>
1

> <s_lp_Variant>
AV-unprocessed.smi:1005-26

> <Gold.Version>
5.8.1

> <Gold.Id.Protein>
6NUR|6NUR_protein|mol2

> <Gold.PLP.Fitness>
47.4364

> <Gold.PLP.PLP>
-40.0487

> <Gold.PLP.part.hbond>
-2.0000

> <Gold.PLP.part.metal>
0.0000

> <Gold.PLP.part.buried>
-3.2093

> <Gold.PLP.part.nonpolar>
-34.2492

> <Gold.PLP.part.repulsive>
0.1995

> <Gold.PLP.ligand.clash>
0.0000

> <Gold.PLP.ligand.torsion>
0.8465

> <Gold.PLP.Chemscore.Hbond>
2.0000

> <Gold.PLP.Chemscore.CHOScore>
1.0000

> <Gold.PLP.Chemscore.Metal>
0.0000

> <Gold.Chemscore.Hbonds>
donor molecule, donor type, donor heavy atom, donor atom, acceptor molecule, acceptor atom, score
      L1  H    10    34       P1  7957  0.98
      P1  H  6934  6946       L1    15  0.80
      L1  C     6    30       P1  7957  0.45

> <Gold.PLP.Chemscore.Internal.Correction>
0.0808

> <Gold.Rescore>
     Score         DG    S(hbond)    S(metal)    S(lipo)     H(rot)  DE(clash)    DE(int)     intcor
     13.97     -16.39       1.70        0.00      94.72       2.29       0.03       2.40       ----

> <Gold.Chemscore.Fitness>
13.9654

> <Gold.Chemscore.DG>
-16.3929

> <Gold.Chemscore.ZeroCoef>
-5.4800

> <Gold.Chemscore.Hbond>
1.7042

> <Gold.Chemscore.Metal>
0.0000

> <Gold.Chemscore.Lipo>
94.7171

> <Gold.Chemscore.Internal_Hbond>
0.0000

> <Gold.Chemscore.DEClash>
0.0262

> <Gold.Chemscore.DEInternal>
2.4013

> <Gold.Chemscore.Rot>
2.2895

> <Gold.Chemscore.Internal.Correction>
   9.000000E+99

> <Gold.Chemscore.Hbonds>
donor molecule, donor type, donor heavy atom, donor atom, acceptor molecule, acceptor atom, score
      L1  H    10    34       P1  7957  0.88
      P1  H  6934  6946       L1    15  0.50

> <Gold.Chemscore.Hbond.Weighted>
-5.6922

> <Gold.Chemscore.Metal.Weighted>
-0.0000

> <Gold.Chemscore.Lipo.Weighted>
-11.0819

> <Gold.Chemscore.Internal_Hbond.Weighted>
0.0000

> <Gold.Chemscore.DEClash.Weighted>
0.0262

> <Gold.Chemscore.DEInternal.Weighted>
2.4013

> <Gold.Chemscore.Rot.Weighted>
5.8612

> <Gold.Chemscore.Internal.Correction.Weighted>
   9.000000E+99

> <Gold.Protein.RotatedTorsions>
[ 6907 6896 6895 6894 ] final   -9.91 input  -60.11 | X-H torsion
[ 7974 7965 7964 7962 ] final   56.87 input  175.53 | X-H torsion
[ 8008 7997 7996 7995 ] final  -33.68 input   59.86 | X-H torsion
[ 10167 10162 10161 10158 ] final -174.15 input  -65.29 | X-H torsion
[ 10718 10713 10712 10709 ] final   54.44 input   66.30 | X-H torsion
[ 10763 10752 10751 10750 ] final   29.25 input  -60.55 | X-H torsion
[ 11005 11000 10999 10996 ] final   31.87 input  -57.11 | X-H torsion

> <Gold.Protein.ActiveResidues>
 VAL166  LYS551  ARG553  GLY616  TRP617  ASP618  TYR619  PRO620  LYS621  CYS622 
 ASP623  PHE694  ASN695  SER759  ASP760  ASP761  ALA762  ILE779  LEU786  VAL792 
 PHE793  MET794  SER795  GLU796  ALA797  LYS798  CYS799  TRP800  GLU811  SER814 

> <Gold.Protein.RotatedAtoms>
  151.4104  135.0984  159.9582 H   0  0  0  0  0  0  0  0  0  0  0  0  # atno 6907 bound_to 6896
  152.5022  133.8803  159.7353 H   0  0  0  0  0  0  0  0  0  0  0  0  # atno 6908 bound_to 6896
  150.9297  133.6725  159.2842 H   0  0  0  0  0  0  0  0  0  0  0  0  # atno 6909 bound_to 6896
  145.9352  139.3841  143.0397 H   0  0  0  0  0  0  0  0  0  0  0  0  # atno 7974 bound_to 7965
  154.4142  140.1704  156.1928 H   0  0  0  0  0  0  0  0  0  0  0  0  # atno 8008 bound_to 7997
  155.9589  140.3395  155.6450 H   0  0  0  0  0  0  0  0  0  0  0  0  # atno 8009 bound_to 7997
  155.6774  140.0718  157.2488 H   0  0  0  0  0  0  0  0  0  0  0  0  # atno 8010 bound_to 7997
  139.5649  144.1779  152.1297 H   0  0  0  0  0  0  0  0  0  0  0  0  # atno 10167 bound_to 10162
  157.5257  130.8595  149.8618 H   0  0  0  0  0  0  0  0  0  0  0  0  # atno 10718 bound_to 10713
  153.0441  135.6493  154.0862 H   0  0  0  0  0  0  0  0  0  0  0  0  # atno 10763 bound_to 10752
  154.0563  135.2891  155.3334 H   0  0  0  0  0  0  0  0  0  0  0  0  # atno 10764 bound_to 10752
  154.6687  135.5364  153.8175 H   0  0  0  0  0  0  0  0  0  0  0  0  # atno 10765 bound_to 10752
  140.2794  134.2990  155.7805 H   0  0  0  0  0  0  0  0  0  0  0  0  # atno 11005 bound_to 11000
  145.8373  140.9599  143.0817 LP  0  0  0  0  0  0  0  0  0  0  0  0  # atno 17320 bound_to 7965
  144.6770  140.0239  143.7483 LP  0  0  0  0  0  0  0  0  0  0  0  0  # atno 17321 bound_to 7965
  140.1300  144.5297  150.6808 LP  0  0  0  0  0  0  0  0  0  0  0  0  # atno 17342 bound_to 10162
  140.6932  143.2388  151.5073 LP  0  0  0  0  0  0  0  0  0  0  0  0  # atno 17343 bound_to 10162
  156.0385  130.3745  150.1497 LP  0  0  0  0  0  0  0  0  0  0  0  0  # atno 17370 bound_to 10713
  156.9684  130.9827  151.3464 LP  0  0  0  0  0  0  0  0  0  0  0  0  # atno 17371 bound_to 10713
  141.2165  133.7516  156.9457 LP  0  0  0  0  0  0  0  0  0  0  0  0  # atno 17394 bound_to 11000
  140.1297  134.9363  157.2320 LP  0  0  0  0  0  0  0  0  0  0  0  0  # atno 17395 bound_to 11000

$$$$
