AV-unprocessed.smi:1929|AV-procd|sdf|7800|dock4
  -GOLD-   22720 9543D 1   1.00000     0.00000
 Structure written by MMmdl.
 43 44  0  0  0  0  0  0  0  0  2 V2000
  145.6800  135.3275  152.9952 C   0  0  0  0  0  0  0  0  0  0  0  0
  146.3680  136.4339  152.3473 N   0  0  0  0  0  0  0  0  0  0  0  0
  145.9336  137.7017  152.3595 C   0  0  0  0  0  0  0  0  0  0  0  0
  144.9037  138.0564  152.9341 O   0  0  0  0  0  0  0  0  0  0  0  0
  146.8059  138.7243  151.6240 C   0  0  0  0  0  0  0  0  0  0  0  0
  147.4829  139.6775  152.5405 N   0  3  2  0  0  0  0  0  0  0  0  0
  148.0446  139.0231  153.7527 C   0  0  0  0  0  0  0  0  0  0  0  0
  148.8566  140.0216  154.5937 C   0  0  0  0  0  0  0  0  0  0  0  0
  147.9991  141.2333  154.9915 C   0  0  1  0  0  0  0  0  0  0  0  0
  148.8122  142.2015  155.7218 N   0  0  0  0  0  0  0  0  0  0  0  0
  149.5684  141.9190  156.7929 C   0  0  0  0  0  0  0  0  0  0  0  0
  149.6540  140.7923  157.2811 O   0  0  0  0  0  0  0  0  0  0  0  0
  150.1839  143.0196  157.2588 N   0  0  0  0  0  0  0  0  0  0  0  0
  151.0744  143.1369  158.3603 C   0  0  0  0  0  0  0  0  0  0  0  0
  151.6098  141.9502  158.9020 C   0  0  0  0  0  0  0  0  0  0  0  0
  152.4810  142.0407  160.0061 C   0  0  0  0  0  0  0  0  0  0  0  0
  152.8258  143.2100  160.5851 N   0  0  0  0  0  0  0  0  0  0  0  0
  152.3002  144.3437  160.0746 C   0  0  0  0  0  0  0  0  0  0  0  0
  151.4215  144.3651  158.9730 C   0  0  0  0  0  0  0  0  0  0  0  0
  147.3906  141.8701  153.7282 C   0  0  0  0  0  0  0  0  0  0  0  0
  146.6191  140.8324  152.8957 C   0  0  0  0  0  0  0  0  0  0  0  0
  146.2289  134.4001  152.8303 H   0  0  0  0  0  0  0  0  0  0  0  0
  144.6744  135.2044  152.5906 H   0  0  0  0  0  0  0  0  0  0  0  0
  145.6055  135.4920  154.0710 H   0  0  0  0  0  0  0  0  0  0  0  0
  147.2273  136.2207  151.8613 H   0  0  0  0  0  0  0  0  0  0  0  0
  147.5527  138.1536  151.0708 H   0  0  0  0  0  0  0  0  0  0  0  0
  146.2175  139.2703  150.8846 H   0  0  0  0  0  0  0  0  0  0  0  0
  147.2338  138.6029  154.3501 H   0  0  0  0  0  0  0  0  0  0  0  0
  148.6886  138.1905  153.4682 H   0  0  0  0  0  0  0  0  0  0  0  0
  149.2398  139.5247  155.4859 H   0  0  0  0  0  0  0  0  0  0  0  0
  149.7273  140.3504  154.0240 H   0  0  0  0  0  0  0  0  0  0  0  0
  147.1929  140.8828  155.6394 H   0  0  0  0  0  0  0  0  0  0  0  0
  148.7974  143.1547  155.3887 H   0  0  0  0  0  0  0  0  0  0  0  0
  149.9451  143.8886  156.8041 H   0  0  0  0  0  0  0  0  0  0  0  0
  151.3656  140.9859  158.4805 H   0  0  0  0  0  0  0  0  0  0  0  0
  152.9100  141.1484  160.4375 H   0  0  0  0  0  0  0  0  0  0  0  0
  152.5822  145.2640  160.5641 H   0  0  0  0  0  0  0  0  0  0  0  0
  151.0267  145.3105  158.6346 H   0  0  0  0  0  0  0  0  0  0  0  0
  146.7220  142.6873  154.0019 H   0  0  0  0  0  0  0  0  0  0  0  0
  148.1804  142.3096  153.1170 H   0  0  0  0  0  0  0  0  0  0  0  0
  146.2493  141.3095  151.9872 H   0  0  0  0  0  0  0  0  0  0  0  0
  145.7459  140.4797  153.4471 H   0  0  0  0  0  0  0  0  0  0  0  0
  148.2635  140.0553  152.0220 H   0  0  0  0  0  0  0  0  0  0  0  0
  1  2  1  0  0  0  0
  1 22  1  0  0  0  0
  1 23  1  0  0  0  0
  1 24  1  0  0  0  0
  2  3  1  0  0  0  0
  2 25  1  0  0  0  0
  3  4  2  0  0  0  0
  3  5  1  0  0  0  0
  5  6  1  0  0  0  0
  5 26  1  0  0  0  0
  5 27  1  0  0  0  0
  6 21  1  0  0  0  0
  6  7  1  0  0  0  0
  6 43  1  0  0  0  0
  7  8  1  0  0  0  0
  7 28  1  0  0  0  0
  7 29  1  0  0  0  0
  8  9  1  0  0  0  0
  8 30  1  0  0  0  0
  8 31  1  0  0  0  0
  9 10  1  0  0  0  0
  9 20  1  0  0  0  0
  9 32  1  0  0  0  0
 10 11  1  0  0  0  0
 10 33  1  0  0  0  0
 11 12  2  0  0  0  0
 11 13  1  0  0  0  0
 13 14  1  0  0  0  0
 13 34  1  0  0  0  0
 14 19  1  0  0  0  0
 14 15  2  0  0  0  0
 15 16  1  0  0  0  0
 15 35  1  0  0  0  0
 16 17  2  0  0  0  0
 16 36  1  0  0  0  0
 17 18  1  0  0  0  0
 18 19  2  0  0  0  0
 18 37  1  0  0  0  0
 19 38  1  0  0  0  0
 20 21  1  0  0  0  0
 20 39  1  0  0  0  0
 20 40  1  0  0  0  0
 21 41  1  0  0  0  0
 21 42  1  0  0  0  0
M  CHG  1   6   1
M  END
> <s_m_source_file>
AV-unprocessed.smi

> <i_m_source_file_index>
1929

> <i_lp_mmshare_version>
43012

> <i_f3d_flags>
0

> <s_epik_input>
W0NIM11bTkhdQyg9TylbQ0gyXU4xW0NIMl1bQ0gyXVtDSF0oW0NIMl1bQ0gyXTEpW05IXUMoPU8pW05IXWMyW2NIXVtjSF1uW2NIXVtjSF0y

> <s_epik_cmdline>
J2VwaWtfcHl0aG9uJywgJy1waCcsICc3LjAnLCAnLXRuJywgJzgnLCAnLW1hJywgJzIwMCcsICctbWV0YWxfYmluZGluZycsICctaW1hZScsICc8aW5maWxlLm1hZT4nLCAnLW9tYWUnLCAnPG91dGZpbGUubWFlPic=

> <r_epik_Ionization_Penalty>
0.938295

> <r_epik_Ionization_Penalty_Charging>
0.838844

> <r_epik_Ionization_Penalty_Neutral>
0.0994513

> <r_epik_State_Penalty>
0.957722

> <r_epik_Charging_Adjusted_Penalty>
1.79657

> <i_epik_Tot_Q>
1

> <i_epik_Tot_abs_Q>
1

> <r_epik_Metal_State_Penalty>
0.961727

> <b_epik_Metal_Only>
0

> <s_lp_Force_Field>
OPLS_2005

> <r_lp_Energy>
19.1228

> <b_lp_Chiralities_Consistent>
1

> <s_lp_Variant>
AV-unprocessed.smi:1929-2

> <Gold.Version>
5.8.1

> <Gold.Id.Protein>
6NUR|6NUR_protein|mol2

> <Gold.PLP.Fitness>
48.4570

> <Gold.PLP.PLP>
-37.3668

> <Gold.PLP.part.hbond>
-3.8568

> <Gold.PLP.part.metal>
0.0000

> <Gold.PLP.part.buried>
-2.2447

> <Gold.PLP.part.nonpolar>
-32.7208

> <Gold.PLP.part.repulsive>
1.5188

> <Gold.PLP.ligand.clash>
0.0000

> <Gold.PLP.ligand.torsion>
0.3816

> <Gold.PLP.Chemscore.Hbond>
3.9440

> <Gold.PLP.Chemscore.CHOScore>
0.0000

> <Gold.PLP.Chemscore.Metal>
0.0000

> <Gold.Chemscore.Hbonds>
donor molecule, donor type, donor heavy atom, donor atom, acceptor molecule, acceptor atom, score
      L1  H     2    25       P1  7948  0.99
      L1  H     6    43       P1  7957  1.00
      L1  H    10    33       P1  8028  1.00
      L1  H    13    34       P1  8028  0.96

> <Gold.PLP.Chemscore.Internal.Correction>
0.0213

> <Gold.Rescore>
     Score         DG    S(hbond)    S(metal)    S(lipo)     H(rot)  DE(clash)    DE(int)     intcor
     21.55     -25.27       3.82        0.00      97.03       1.69       1.07       2.64       ----

> <Gold.Chemscore.Fitness>
21.5534

> <Gold.Chemscore.DG>
-25.2727

> <Gold.Chemscore.ZeroCoef>
-5.4800

> <Gold.Chemscore.Hbond>
3.8201

> <Gold.Chemscore.Metal>
0.0000

> <Gold.Chemscore.Lipo>
97.0337

> <Gold.Chemscore.Internal_Hbond>
0.0000

> <Gold.Chemscore.DEClash>
1.0747

> <Gold.Chemscore.DEInternal>
2.6446

> <Gold.Chemscore.Rot>
1.6873

> <Gold.Chemscore.Internal.Correction>
   9.000000E+99

> <Gold.Chemscore.Hbonds>
donor molecule, donor type, donor heavy atom, donor atom, acceptor molecule, acceptor atom, score
      L1  H     2    25       P1  7948  0.94
      L1  H     6    43       P1  7957  0.97
      L1  H    10    33       P1  8028  0.94
      L1  H    13    34       P1  8028  0.91

> <Gold.Chemscore.Hbond.Weighted>
-12.7592

> <Gold.Chemscore.Metal.Weighted>
-0.0000

> <Gold.Chemscore.Lipo.Weighted>
-11.3529

> <Gold.Chemscore.Internal_Hbond.Weighted>
0.0000

> <Gold.Chemscore.DEClash.Weighted>
1.0747

> <Gold.Chemscore.DEInternal.Weighted>
2.6446

> <Gold.Chemscore.Rot.Weighted>
4.3194

> <Gold.Chemscore.Internal.Correction.Weighted>
   9.000000E+99

> <Gold.Protein.RotatedTorsions>
[ 6907 6896 6895 6894 ] final  131.49 input  -60.11 | X-H torsion
[ 7974 7965 7964 7962 ] final  170.44 input  175.53 | X-H torsion
[ 8008 7997 7996 7995 ] final  -27.00 input   59.86 | X-H torsion
[ 10167 10162 10161 10158 ] final  -58.70 input  -65.29 | X-H torsion
[ 10718 10713 10712 10709 ] final -167.71 input   66.30 | X-H torsion
[ 10763 10752 10751 10750 ] final    2.34 input  -60.55 | X-H torsion
[ 11005 11000 10999 10996 ] final -104.70 input  -57.11 | X-H torsion

> <Gold.Protein.ActiveResidues>
 VAL166  LYS551  ARG553  GLY616  TRP617  ASP618  TYR619  PRO620  LYS621  CYS622 
 ASP623  PHE694  ASN695  SER759  ASP760  ASP761  ALA762  ILE779  LEU786  VAL792 
 PHE793  MET794  SER795  GLU796  ALA797  LYS798  CYS799  TRP800  GLU811  SER814 

> <Gold.Protein.RotatedAtoms>
  152.3421  133.6079  159.5883 H   0  0  0  0  0  0  0  0  0  0  0  0  # atno 6907 bound_to 6896
  150.7485  133.9706  159.3553 H   0  0  0  0  0  0  0  0  0  0  0  0  # atno 6908 bound_to 6896
  151.7569  135.0820  160.0390 H   0  0  0  0  0  0  0  0  0  0  0  0  # atno 6909 bound_to 6896
  144.7324  139.9203  143.6420 H   0  0  0  0  0  0  0  0  0  0  0  0  # atno 7974 bound_to 7965
  154.4398  140.1884  156.0863 H   0  0  0  0  0  0  0  0  0  0  0  0  # atno 8008 bound_to 7997
  156.0400  140.3321  155.7207 H   0  0  0  0  0  0  0  0  0  0  0  0  # atno 8009 bound_to 7997
  155.5714  140.0613  157.2796 H   0  0  0  0  0  0  0  0  0  0  0  0  # atno 8010 bound_to 7997
  140.6181  143.2409  151.5548 H   0  0  0  0  0  0  0  0  0  0  0  0  # atno 10167 bound_to 10162
  156.6864  130.9142  151.3063 H   0  0  0  0  0  0  0  0  0  0  0  0  # atno 10718 bound_to 10713
  153.2968  135.6953  153.7240 H   0  0  0  0  0  0  0  0  0  0  0  0  # atno 10763 bound_to 10752
  153.6170  135.3434  155.2999 H   0  0  0  0  0  0  0  0  0  0  0  0  # atno 10764 bound_to 10752
  154.8540  135.4377  154.2068 H   0  0  0  0  0  0  0  0  0  0  0  0  # atno 10765 bound_to 10752
  141.1088  133.8745  157.1643 H   0  0  0  0  0  0  0  0  0  0  0  0  # atno 11005 bound_to 11000
  146.0935  139.3926  143.0391 LP  0  0  0  0  0  0  0  0  0  0  0  0  # atno 17320 bound_to 7965
  145.7678  140.9909  143.1165 LP  0  0  0  0  0  0  0  0  0  0  0  0  # atno 17321 bound_to 7965
  139.5415  144.2634  152.1360 LP  0  0  0  0  0  0  0  0  0  0  0  0  # atno 17342 bound_to 10162
  140.1848  144.4809  150.6509 LP  0  0  0  0  0  0  0  0  0  0  0  0  # atno 17343 bound_to 10162
  157.7025  130.9348  150.0828 LP  0  0  0  0  0  0  0  0  0  0  0  0  # atno 17370 bound_to 10713
  156.1830  130.3651  149.9011 LP  0  0  0  0  0  0  0  0  0  0  0  0  # atno 17371 bound_to 10713
  139.9971  135.0042  157.0107 LP  0  0  0  0  0  0  0  0  0  0  0  0  # atno 17394 bound_to 11000
  140.4831  134.1269  155.7220 LP  0  0  0  0  0  0  0  0  0  0  0  0  # atno 17395 bound_to 11000

$$$$
