AV-unprocessed.smi:83|AV-procd|sdf|801|dock1
  -GOLD-   2262017183D 1   1.00000     0.00000
 Structure written by MMmdl.
 56 59  0  0  0  0  0  0  0  0  1 V2000
  152.4798  144.2331  159.6848 C   0  0  0  0  0  0  0  0  0  0  0  0
  151.6567  143.8659  158.4489 C   0  0  0  0  0  0  0  0  0  0  0  0
  151.0070  144.7440  157.8812 O   0  0  0  0  0  0  0  0  0  0  0  0
  151.6719  142.5859  158.0258 N   0  0  0  0  0  0  0  0  0  0  0  0
  152.4225  141.4929  158.6415 C   0  0  0  0  0  0  0  0  0  0  0  0
  152.2673  140.3037  157.6914 C   0  0  0  0  0  0  0  0  0  0  0  0
  150.9525  140.5746  156.9682 C   0  0  2  0  0  0  0  0  0  0  0  0
  150.8153  139.8341  155.6233 C   0  0  0  0  0  0  0  0  0  0  0  0
  149.4857  139.9847  155.0286 N   0  0  0  0  0  0  0  0  0  0  0  0
  149.1879  141.2160  154.3084 C   0  0  0  0  0  0  0  0  0  0  0  0
  148.7344  138.8726  154.7994 C   0  0  0  0  0  0  0  0  0  0  0  0
  149.0006  137.7616  155.5364 N   0  0  0  0  0  0  0  0  0  0  0  0
  148.3023  136.6378  155.3556 C   0  0  0  0  0  0  0  0  0  0  0  0
  147.3069  136.4041  154.5007 N   0  0  0  0  0  0  0  0  0  0  0  0
  147.0325  137.5087  153.7510 C   0  0  0  0  0  0  0  0  0  0  0  0
  147.6857  138.7734  153.8341 C   0  0  0  0  0  0  0  0  0  0  0  0
  147.1297  139.6413  152.8986 N   0  0  0  0  0  0  0  0  0  0  0  0
  146.2044  138.9374  152.3076 C   0  0  0  0  0  0  0  0  0  0  0  0
  146.0772  137.6453  152.7595 N   0  0  0  0  0  0  0  0  0  0  0  0
  145.1347  136.6503  152.2787 C   0  0  0  0  0  0  0  0  0  0  0  0
  145.7565  135.7166  151.2228 C   0  0  2  0  0  0  0  0  0  0  0  0
  145.3397  136.0868  149.9220 O   0  0  0  0  0  0  0  0  0  0  0  0
  145.4566  134.2278  151.4922 C   0  0  2  0  0  0  0  0  0  0  0  0
  146.2073  133.2109  150.6288 C   0  0  0  0  0  0  0  0  0  0  0  0
  145.3072  132.0020  150.7543 C   0  0  0  0  0  0  0  0  0  0  0  0
  143.9202  132.6411  150.7423 C   0  0  0  0  0  0  0  0  0  0  0  0
  144.0716  133.9220  151.3496 O   0  0  0  0  0  0  0  0  0  0  0  0
  150.9199  142.1042  156.8707 C   0  0  0  0  0  0  0  0  0  0  0  0
  152.1841  143.6269  160.5414 H   0  0  0  0  0  0  0  0  0  0  0  0
  152.3317  145.2808  159.9485 H   0  0  0  0  0  0  0  0  0  0  0  0
  153.5430  144.0812  159.4981 H   0  0  0  0  0  0  0  0  0  0  0  0
  153.4740  141.7438  158.7870 H   0  0  0  0  0  0  0  0  0  0  0  0
  151.9864  141.2631  159.6148 H   0  0  0  0  0  0  0  0  0  0  0  0
  153.0917  140.2999  156.9768 H   0  0  0  0  0  0  0  0  0  0  0  0
  152.2731  139.3459  158.2123 H   0  0  0  0  0  0  0  0  0  0  0  0
  150.1461  140.2608  157.6332 H   0  0  0  0  0  0  0  0  0  0  0  0
  151.6022  140.1488  154.9380 H   0  0  0  0  0  0  0  0  0  0  0  0
  150.9870  138.7697  155.7866 H   0  0  0  0  0  0  0  0  0  0  0  0
  148.1151  141.4109  154.2939 H   0  0  0  0  0  0  0  0  0  0  0  0
  149.5509  141.1610  153.2818 H   0  0  0  0  0  0  0  0  0  0  0  0
  149.6706  142.0666  154.7901 H   0  0  0  0  0  0  0  0  0  0  0  0
  148.5827  135.8068  155.9858 H   0  0  0  0  0  0  0  0  0  0  0  0
  145.5858  139.3432  151.5202 H   0  0  0  0  0  0  0  0  0  0  0  0
  144.7886  136.0705  153.1353 H   0  0  0  0  0  0  0  0  0  0  0  0
  144.2592  137.1608  151.8751 H   0  0  0  0  0  0  0  0  0  0  0  0
  146.8396  135.8441  151.2461 H   0  0  0  0  0  0  0  0  0  0  0  0
  144.7500  136.8215  149.9936 H   0  0  0  0  0  0  0  0  0  0  0  0
  145.6990  134.0169  152.5353 H   0  0  0  0  0  0  0  0  0  0  0  0
  146.2536  133.5236  149.5848 H   0  0  0  0  0  0  0  0  0  0  0  0
  147.2244  133.0268  150.9759 H   0  0  0  0  0  0  0  0  0  0  0  0
  145.4491  131.2749  149.9543 H   0  0  0  0  0  0  0  0  0  0  0  0
  145.4826  131.5014  151.7078 H   0  0  0  0  0  0  0  0  0  0  0  0
  143.5777  132.7842  149.7166 H   0  0  0  0  0  0  0  0  0  0  0  0
  143.1786  132.0367  151.2652 H   0  0  0  0  0  0  0  0  0  0  0  0
  149.8946  142.4782  156.8627 H   0  0  0  0  0  0  0  0  0  0  0  0
  151.4147  142.4518  155.9627 H   0  0  0  0  0  0  0  0  0  0  0  0
  1  2  1  0  0  0  0
  1 29  1  0  0  0  0
  1 30  1  0  0  0  0
  1 31  1  0  0  0  0
  2  3  2  0  0  0  0
  2  4  1  0  0  0  0
  4 28  1  0  0  0  0
  4  5  1  0  0  0  0
  5  6  1  0  0  0  0
  5 32  1  0  0  0  0
  5 33  1  0  0  0  0
  6  7  1  0  0  0  0
  6 34  1  0  0  0  0
  6 35  1  0  0  0  0
  7  8  1  0  0  0  0
  7 28  1  0  0  0  0
  7 36  1  0  0  0  0
  8  9  1  0  0  0  0
  8 37  1  0  0  0  0
  8 38  1  0  0  0  0
  9 10  1  0  0  0  0
  9 11  1  0  0  0  0
 10 39  1  0  0  0  0
 10 40  1  0  0  0  0
 10 41  1  0  0  0  0
 11 16  1  0  0  0  0
 11 12  2  0  0  0  0
 12 13  1  0  0  0  0
 13 14  2  0  0  0  0
 13 42  1  0  0  0  0
 14 15  1  0  0  0  0
 15 19  1  0  0  0  0
 15 16  2  0  0  0  0
 16 17  1  0  0  0  0
 17 18  2  0  0  0  0
 18 19  1  0  0  0  0
 18 43  1  0  0  0  0
 19 20  1  0  0  0  0
 20 21  1  0  0  0  0
 20 44  1  0  0  0  0
 20 45  1  0  0  0  0
 21 22  1  0  0  0  0
 21 23  1  0  0  0  0
 21 46  1  0  0  0  0
 22 47  1  0  0  0  0
 23 27  1  0  0  0  0
 23 24  1  0  0  0  0
 23 48  1  0  0  0  0
 24 25  1  0  0  0  0
 24 49  1  0  0  0  0
 24 50  1  0  0  0  0
 25 26  1  0  0  0  0
 25 51  1  0  0  0  0
 25 52  1  0  0  0  0
 26 27  1  0  0  0  0
 26 53  1  0  0  0  0
 26 54  1  0  0  0  0
 28 55  1  0  0  0  0
 28 56  1  0  0  0  0
M  END
> <s_m_source_file>
AV-unprocessed.smi

> <i_m_source_file_index>
83

> <i_lp_mmshare_version>
43012

> <i_f3d_flags>
0

> <s_epik_input>
W0NIM11DKD1PKU4xW0NIMl1bQ0gyXVtDQEhdKFtDSDJdMSlbQ0gyXU4oW0NIM10pYyhuW2NIXW4yKWMoYzIzKW5bY0hdbjNbQ0gyXVtDQEhdKFtPSF0pW0NAQEhdNFtDSDJdW0NIMl1bQ0gyXU80

> <s_epik_cmdline>
J2VwaWtfcHl0aG9uJywgJy1waCcsICc3LjAnLCAnLXRuJywgJzgnLCAnLW1hJywgJzIwMCcsICctbWV0YWxfYmluZGluZycsICctaW1hZScsICc8aW5maWxlLm1hZT4nLCAnLW9tYWUnLCAnPG91dGZpbGUubWFlPic=

> <r_lp_tautomer_probability>
1

> <r_epik_Ionization_Penalty>
0.00109752

> <r_epik_Ionization_Penalty_Charging>
0

> <r_epik_Ionization_Penalty_Neutral>
0.00109752

> <r_epik_State_Penalty>
0.000634803

> <r_epik_Charging_Adjusted_Penalty>
0.000634803

> <i_epik_Tot_Q>
0

> <i_epik_Tot_abs_Q>
0

> <r_epik_Metal_State_Penalty>
-0

> <b_epik_Metal_Only>
0

> <s_lp_Force_Field>
OPLS_2005

> <r_lp_Energy>
56.4298

> <b_lp_Chiralities_Consistent>
1

> <s_lp_Variant>
AV-unprocessed.smi:83-2

> <Gold.Version>
5.8.1

> <Gold.Id.Protein>
6NUR|6NUR_protein|mol2

> <Gold.PLP.Fitness>
52.3404

> <Gold.PLP.PLP>
-46.5299

> <Gold.PLP.part.hbond>
-2.0000

> <Gold.PLP.part.metal>
0.0000

> <Gold.PLP.part.buried>
-3.7873

> <Gold.PLP.part.nonpolar>
-43.1489

> <Gold.PLP.part.repulsive>
1.4287

> <Gold.PLP.ligand.clash>
0.0000

> <Gold.PLP.ligand.torsion>
1.3000

> <Gold.PLP.Chemscore.Hbond>
1.0000

> <Gold.PLP.Chemscore.CHOScore>
1.5903

> <Gold.PLP.Chemscore.Metal>
0.0000

> <Gold.Chemscore.Hbonds>
donor molecule, donor type, donor heavy atom, donor atom, acceptor molecule, acceptor atom, score
      L1  H    22    47       P1 10171  1.00
      L1  C    18    43       P1 10171  1.00
      L1  C    18    43       P1 10175  0.62

> <Gold.PLP.Chemscore.Internal.Correction>
0.6397

> <Gold.Rescore>
     Score         DG    S(hbond)    S(metal)    S(lipo)     H(rot)  DE(clash)    DE(int)     intcor
     10.97     -13.73       1.00        0.00      99.22       2.62       0.32       2.44       ----

> <Gold.Chemscore.Fitness>
10.9686

> <Gold.Chemscore.DG>
-13.7333

> <Gold.Chemscore.ZeroCoef>
-5.4800

> <Gold.Chemscore.Hbond>
0.9997

> <Gold.Chemscore.Metal>
0.0000

> <Gold.Chemscore.Lipo>
99.2239

> <Gold.Chemscore.Internal_Hbond>
0.0000

> <Gold.Chemscore.DEClash>
0.3226

> <Gold.Chemscore.DEInternal>
2.4421

> <Gold.Chemscore.Rot>
2.6152

> <Gold.Chemscore.Internal.Correction>
   9.000000E+99

> <Gold.Chemscore.Hbonds>
donor molecule, donor type, donor heavy atom, donor atom, acceptor molecule, acceptor atom, score
      L1  H    22    47       P1 10171  0.99

> <Gold.Chemscore.Hbond.Weighted>
-3.3390

> <Gold.Chemscore.Metal.Weighted>
-0.0000

> <Gold.Chemscore.Lipo.Weighted>
-11.6092

> <Gold.Chemscore.Internal_Hbond.Weighted>
0.0000

> <Gold.Chemscore.DEClash.Weighted>
0.3226

> <Gold.Chemscore.DEInternal.Weighted>
2.4421

> <Gold.Chemscore.Rot.Weighted>
6.6949

> <Gold.Chemscore.Internal.Correction.Weighted>
   9.000000E+99

> <Gold.Protein.RotatedTorsions>
[ 6907 6896 6895 6894 ] final -153.24 input  -60.11 | X-H torsion
[ 7974 7965 7964 7962 ] final -163.01 input  175.53 | X-H torsion
[ 8008 7997 7996 7995 ] final   83.87 input   59.86 | X-H torsion
[ 10167 10162 10161 10158 ] final -102.16 input  -65.29 | X-H torsion
[ 10718 10713 10712 10709 ] final -160.63 input   66.30 | X-H torsion
[ 10763 10752 10751 10750 ] final  -35.21 input  -60.55 | X-H torsion
[ 11005 11000 10999 10996 ] final -155.34 input  -57.11 | X-H torsion

> <Gold.Protein.ActiveResidues>
 VAL166  LYS551  ARG553  GLY616  TRP617  ASP618  TYR619  PRO620  LYS621  CYS622 
 ASP623  PHE694  ASN695  SER759  ASP760  ASP761  ALA762  ILE779  LEU786  VAL792 
 PHE793  MET794  SER795  GLU796  ALA797  LYS798  CYS799  TRP800  GLU811  SER814 

> <Gold.Protein.RotatedAtoms>
  151.2396  133.4407  159.2606 H   0  0  0  0  0  0  0  0  0  0  0  0  # atno 6907 bound_to 6896
  151.0718  134.9803  159.8322 H   0  0  0  0  0  0  0  0  0  0  0  0  # atno 6908 bound_to 6896
  152.5413  134.2341  159.8889 H   0  0  0  0  0  0  0  0  0  0  0  0  # atno 6909 bound_to 6896
  144.7339  140.3170  143.6178 H   0  0  0  0  0  0  0  0  0  0  0  0  # atno 7974 bound_to 7965
  155.9296  140.3416  155.6238 H   0  0  0  0  0  0  0  0  0  0  0  0  # atno 8008 bound_to 7997
  155.7174  140.0779  157.2364 H   0  0  0  0  0  0  0  0  0  0  0  0  # atno 8009 bound_to 7997
  154.4083  140.1611  156.2351 H   0  0  0  0  0  0  0  0  0  0  0  0  # atno 8010 bound_to 7997
  140.2336  143.3589  152.0865 H   0  0  0  0  0  0  0  0  0  0  0  0  # atno 10167 bound_to 10162
  156.5848  130.8745  151.2874 H   0  0  0  0  0  0  0  0  0  0  0  0  # atno 10718 bound_to 10713
  153.8594  135.6841  153.4784 H   0  0  0  0  0  0  0  0  0  0  0  0  # atno 10763 bound_to 10752
  153.1351  135.4681  154.9407 H   0  0  0  0  0  0  0  0  0  0  0  0  # atno 10764 bound_to 10752
  154.7766  135.3255  154.8029 H   0  0  0  0  0  0  0  0  0  0  0  0  # atno 10765 bound_to 10752
  140.6875  134.4078  157.5222 H   0  0  0  0  0  0  0  0  0  0  0  0  # atno 11005 bound_to 11000
  145.7607  139.1824  143.2268 LP  0  0  0  0  0  0  0  0  0  0  0  0  # atno 17320 bound_to 7965
  146.0988  140.7568  142.9559 LP  0  0  0  0  0  0  0  0  0  0  0  0  # atno 17321 bound_to 7965
  139.5101  144.6879  151.5838 LP  0  0  0  0  0  0  0  0  0  0  0  0  # atno 17342 bound_to 10162
  140.6167  143.9336  150.6494 LP  0  0  0  0  0  0  0  0  0  0  0  0  # atno 17343 bound_to 10162
  157.7318  130.9705  150.1896 LP  0  0  0  0  0  0  0  0  0  0  0  0  # atno 17370 bound_to 10713
  156.2600  130.3710  149.8141 LP  0  0  0  0  0  0  0  0  0  0  0  0  # atno 17371 bound_to 10713
  139.8933  134.8733  156.2229 LP  0  0  0  0  0  0  0  0  0  0  0  0  # atno 17394 bound_to 11000
  141.0268  133.7010  156.1362 LP  0  0  0  0  0  0  0  0  0  0  0  0  # atno 17395 bound_to 11000

$$$$
