AV-unprocessed.smi:131|AV-procd|sdf|1161|dock2
  -GOLD-   2262018303D 1   1.00000     0.00000
 Structure written by MMmdl.
 55 58  0  0  0  0  0  0  0  0  1 V2000
  156.3339  138.8244  157.6767 O   0  0  0  0  0  0  0  0  0  0  0  0
  155.6961  138.0287  158.3670 C   0  0  0  0  0  0  0  0  0  0  0  0
  154.9583  138.5170  159.6239 C   0  0  0  0  0  0  0  0  0  0  0  0
  153.9147  139.5234  159.3303 N   0  0  0  0  0  0  0  0  0  0  0  0
  152.7078  139.0881  158.7290 C   0  0  0  0  0  0  0  0  0  0  0  0
  152.5280  137.9031  158.4437 O   0  0  0  0  0  0  0  0  0  0  0  0
  151.7149  140.1279  158.4842 C   0  0  0  0  0  0  0  0  0  0  0  0
  150.5472  139.8085  157.9008 F   0  0  0  0  0  0  0  0  0  0  0  0
  151.9493  141.4094  158.8338 C   0  0  0  0  0  0  0  0  0  0  0  0
  153.1244  141.8171  159.4401 N   0  0  0  0  0  0  0  0  0  0  0  0
  153.3675  143.2578  159.8392 C   0  0  2  0  0  0  0  0  0  0  0  0
  152.4597  143.6545  161.0199 C   0  0  0  0  0  0  0  0  0  0  0  0
  151.7943  144.9223  160.5220 C   0  0  0  0  0  0  0  0  0  0  0  0
  151.7755  144.6980  159.0177 C   0  0  0  0  0  0  0  0  0  0  0  0
  153.0456  144.1075  158.7748 O   0  0  0  0  0  0  0  0  0  0  0  0
  154.1433  140.8726  159.6915 C   0  0  0  0  0  0  0  0  0  0  0  0
  155.2013  141.2180  160.2224 O   0  0  0  0  0  0  0  0  0  0  0  0
  155.5463  136.7208  158.0872 N   0  0  0  0  0  0  0  0  0  0  0  0
  156.1019  135.9562  157.0241 C   0  0  0  0  0  0  0  0  0  0  0  0
  157.1792  136.5346  156.3187 C   0  0  0  0  0  0  0  0  0  0  0  0
  157.7782  135.8566  155.2395 C   0  0  0  0  0  0  0  0  0  0  0  0
  157.2934  134.5904  154.8602 C   0  0  0  0  0  0  0  0  0  0  0  0
  158.0266  133.7288  153.4754 S   0  0  0  0  0  0  0  0  0  0  0  0
  159.3350  133.1837  153.8708 O   0  0  0  0  0  0  0  0  0  0  0  0
  156.9964  132.8467  152.9054 O   0  0  0  0  0  0  0  0  0  0  0  0
  158.3041  135.0062  152.3402 N   0  0  0  0  0  0  0  0  0  0  0  0
  157.1728  135.8315  151.8991 C   0  0  0  0  0  0  0  0  0  0  0  0
  157.3025  135.9267  150.3782 C   0  0  0  0  0  0  0  0  0  0  0  0
  158.7990  135.7795  150.1415 C   0  0  0  0  0  0  0  0  0  0  0  0
  159.2243  134.7823  151.2182 C   0  0  0  0  0  0  0  0  0  0  0  0
  156.2110  134.0055  155.5442 C   0  0  0  0  0  0  0  0  0  0  0  0
  155.6125  134.6881  156.6208 C   0  0  0  0  0  0  0  0  0  0  0  0
  154.5406  137.6462  160.1314 H   0  0  0  0  0  0  0  0  0  0  0  0
  155.6826  138.9148  160.3371 H   0  0  0  0  0  0  0  0  0  0  0  0
  151.1740  142.1294  158.6219 H   0  0  0  0  0  0  0  0  0  0  0  0
  154.4358  143.3283  160.0517 H   0  0  0  0  0  0  0  0  0  0  0  0
  151.7130  142.8794  161.2009 H   0  0  0  0  0  0  0  0  0  0  0  0
  153.0430  143.8037  161.9288 H   0  0  0  0  0  0  0  0  0  0  0  0
  150.8010  145.0787  160.9436 H   0  0  0  0  0  0  0  0  0  0  0  0
  152.4107  145.7896  160.7620 H   0  0  0  0  0  0  0  0  0  0  0  0
  150.9780  144.0083  158.7373 H   0  0  0  0  0  0  0  0  0  0  0  0
  151.6473  145.6220  158.4539 H   0  0  0  0  0  0  0  0  0  0  0  0
  154.9234  136.2136  158.6993 H   0  0  0  0  0  0  0  0  0  0  0  0
  157.5540  137.5067  156.6049 H   0  0  0  0  0  0  0  0  0  0  0  0
  158.6018  136.3113  154.7097 H   0  0  0  0  0  0  0  0  0  0  0  0
  156.2195  135.3913  152.1937 H   0  0  0  0  0  0  0  0  0  0  0  0
  157.2530  136.8150  152.3629 H   0  0  0  0  0  0  0  0  0  0  0  0
  156.7713  135.0975  149.9088 H   0  0  0  0  0  0  0  0  0  0  0  0
  156.8989  136.8566  149.9769 H   0  0  0  0  0  0  0  0  0  0  0  0
  159.0381  135.4413  149.1330 H   0  0  0  0  0  0  0  0  0  0  0  0
  159.2958  136.7371  150.3039 H   0  0  0  0  0  0  0  0  0  0  0  0
  160.2602  134.9180  151.5304 H   0  0  0  0  0  0  0  0  0  0  0  0
  159.1083  133.7625  150.8499 H   0  0  0  0  0  0  0  0  0  0  0  0
  155.8342  133.0393  155.2416 H   0  0  0  0  0  0  0  0  0  0  0  0
  154.7715  134.2213  157.1081 H   0  0  0  0  0  0  0  0  0  0  0  0
  1  2  2  0  0  0  0
  2  3  1  0  0  0  0
  2 18  1  0  0  0  0
  3  4  1  0  0  0  0
  3 33  1  0  0  0  0
  3 34  1  0  0  0  0
  4 16  1  0  0  0  0
  4  5  1  0  0  0  0
  5  6  2  0  0  0  0
  5  7  1  0  0  0  0
  7  8  1  0  0  0  0
  7  9  2  0  0  0  0
  9 10  1  0  0  0  0
  9 35  1  0  0  0  0
 10 11  1  0  0  0  0
 10 16  1  0  0  0  0
 11 15  1  0  0  0  0
 11 12  1  0  0  0  0
 11 36  1  0  0  0  0
 12 13  1  0  0  0  0
 12 37  1  0  0  0  0
 12 38  1  0  0  0  0
 13 14  1  0  0  0  0
 13 39  1  0  0  0  0
 13 40  1  0  0  0  0
 14 15  1  0  0  0  0
 14 41  1  0  0  0  0
 14 42  1  0  0  0  0
 16 17  2  0  0  0  0
 18 19  1  0  0  0  0
 18 43  1  0  0  0  0
 19 32  1  0  0  0  0
 19 20  2  0  0  0  0
 20 21  1  0  0  0  0
 20 44  1  0  0  0  0
 21 22  2  0  0  0  0
 21 45  1  0  0  0  0
 22 23  1  0  0  0  0
 22 31  1  0  0  0  0
 23 24  2  0  0  0  0
 23 25  2  0  0  0  0
 23 26  1  0  0  0  0
 26 30  1  0  0  0  0
 26 27  1  0  0  0  0
 27 28  1  0  0  0  0
 27 46  1  0  0  0  0
 27 47  1  0  0  0  0
 28 29  1  0  0  0  0
 28 48  1  0  0  0  0
 28 49  1  0  0  0  0
 29 30  1  0  0  0  0
 29 50  1  0  0  0  0
 29 51  1  0  0  0  0
 30 52  1  0  0  0  0
 30 53  1  0  0  0  0
 31 32  2  0  0  0  0
 31 54  1  0  0  0  0
 32 55  1  0  0  0  0
M  END
> <s_m_source_file>
AV-unprocessed.smi

> <i_m_source_file_index>
131

> <i_lp_mmshare_version>
43012

> <i_f3d_flags>
0

> <s_epik_input>
W0NIMl0xW0NIMl1bQ0gyXVtDSDJdTjFTKD1PKSg9TyljKFtjSF1bY0hdMilbY0hdW2NIXWMyW05IXUMoPU8pW0NIMl1uM2MoPU8pYyhGKVtjSF1uKGMzPU8pW0NAQEhdNFtDSDJdW0NIMl1bQ0gyXU80

> <s_epik_cmdline>
J2VwaWtfcHl0aG9uJywgJy1waCcsICc3LjAnLCAnLXRuJywgJzgnLCAnLW1hJywgJzIwMCcsICctbWV0YWxfYmluZGluZycsICctaW1hZScsICc8aW5maWxlLm1hZT4nLCAnLW9tYWUnLCAnPG91dGZpbGUubWFlPic=

> <r_lp_tautomer_probability>
1

> <r_epik_Ionization_Penalty>
1.92533e-06

> <r_epik_Ionization_Penalty_Charging>
3.88729e-08

> <r_epik_Ionization_Penalty_Neutral>
1.88646e-06

> <r_epik_State_Penalty>
-0

> <r_epik_Charging_Adjusted_Penalty>
3.88729e-08

> <i_epik_Tot_Q>
0

> <i_epik_Tot_abs_Q>
0

> <r_epik_Metal_State_Penalty>
-0

> <b_epik_Metal_Only>
0

> <s_epik_Chemistry_Notes>
This compound contains an acetal/aminal-like group ( X-CH(R)-Y where X, Y are N, S, or O) that may be acid/base labile, releasing an aldehyde.

> <s_lp_Force_Field>
OPLS_2005

> <r_lp_Energy>
42.8804

> <b_lp_Chiralities_Consistent>
1

> <s_lp_Variant>
AV-unprocessed.smi:131-1

> <Gold.Version>
5.8.1

> <Gold.Id.Protein>
6NUR|6NUR_protein|mol2

> <Gold.PLP.Fitness>
52.2161

> <Gold.PLP.PLP>
-50.4313

> <Gold.PLP.part.hbond>
-2.0000

> <Gold.PLP.part.metal>
0.0000

> <Gold.PLP.part.buried>
-6.7876

> <Gold.PLP.part.nonpolar>
-42.1468

> <Gold.PLP.part.repulsive>
0.1821

> <Gold.PLP.ligand.clash>
0.0000

> <Gold.PLP.ligand.torsion>
1.9555

> <Gold.PLP.Chemscore.Hbond>
1.0000

> <Gold.PLP.Chemscore.CHOScore>
0.0000

> <Gold.PLP.Chemscore.Metal>
0.0000

> <Gold.Chemscore.Hbonds>
donor molecule, donor type, donor heavy atom, donor atom, acceptor molecule, acceptor atom, score
      P1  H  7997  8010       L1     1  0.56
      P1  H 10713 10718       L1    25  0.08

> <Gold.PLP.Chemscore.Internal.Correction>
2.6958

> <Gold.Rescore>
     Score         DG    S(hbond)    S(metal)    S(lipo)     H(rot)  DE(clash)    DE(int)     intcor
     13.68     -17.47       0.97        0.00     116.70       1.92       0.09       3.70       ----

> <Gold.Chemscore.Fitness>
13.6755

> <Gold.Chemscore.DG>
-17.4654

> <Gold.Chemscore.ZeroCoef>
-5.4800

> <Gold.Chemscore.Hbond>
0.9694

> <Gold.Chemscore.Metal>
0.0000

> <Gold.Chemscore.Lipo>
116.7012

> <Gold.Chemscore.Internal_Hbond>
0.0000

> <Gold.Chemscore.DEClash>
0.0905

> <Gold.Chemscore.DEInternal>
3.6994

> <Gold.Chemscore.Rot>
1.9166

> <Gold.Chemscore.Internal.Correction>
   9.000000E+99

> <Gold.Chemscore.Hbonds>
donor molecule, donor type, donor heavy atom, donor atom, acceptor molecule, acceptor atom, score
      P1  H  7997  8010       L1     1  0.49
      P1  H 10713 10718       L1    25  0.09

> <Gold.Chemscore.Hbond.Weighted>
-3.2378

> <Gold.Chemscore.Metal.Weighted>
-0.0000

> <Gold.Chemscore.Lipo.Weighted>
-13.6540

> <Gold.Chemscore.Internal_Hbond.Weighted>
0.0000

> <Gold.Chemscore.DEClash.Weighted>
0.0905

> <Gold.Chemscore.DEInternal.Weighted>
3.6994

> <Gold.Chemscore.Rot.Weighted>
4.9064

> <Gold.Chemscore.Internal.Correction.Weighted>
   9.000000E+99

> <Gold.Protein.RotatedTorsions>
[ 6907 6896 6895 6894 ] final -156.16 input  -60.11 | X-H torsion
[ 7974 7965 7964 7962 ] final   82.48 input  175.53 | X-H torsion
[ 8008 7997 7996 7995 ] final  -26.57 input   59.86 | X-H torsion
[ 10167 10162 10161 10158 ] final  135.60 input  -65.29 | X-H torsion
[ 10718 10713 10712 10709 ] final  169.58 input   66.30 | X-H torsion
[ 10763 10752 10751 10750 ] final   74.59 input  -60.55 | X-H torsion
[ 11005 11000 10999 10996 ] final -143.60 input  -57.11 | X-H torsion

> <Gold.Protein.ActiveResidues>
 VAL166  LYS551  ARG553  GLY616  TRP617  ASP618  TYR619  PRO620  LYS621  CYS622 
 ASP623  PHE694  ASN695  SER759  ASP760  ASP761  ALA762  ILE779  LEU786  VAL792 
 PHE793  MET794  SER795  GLU796  ALA797  LYS798  CYS799  TRP800  GLU811  SER814 

> <Gold.Protein.RotatedAtoms>
  151.2834  133.4199  159.2628 H   0  0  0  0  0  0  0  0  0  0  0  0  # atno 6907 bound_to 6896
  151.0340  134.9560  159.8136 H   0  0  0  0  0  0  0  0  0  0  0  0  # atno 6908 bound_to 6896
  152.5351  134.2794  159.9054 H   0  0  0  0  0  0  0  0  0  0  0  0  # atno 6909 bound_to 6896
  145.6245  139.2392  143.2119 H   0  0  0  0  0  0  0  0  0  0  0  0  # atno 7974 bound_to 7965
  154.4419  140.1896  156.0796 H   0  0  0  0  0  0  0  0  0  0  0  0  # atno 8008 bound_to 7997
  156.0449  140.3315  155.7259 H   0  0  0  0  0  0  0  0  0  0  0  0  # atno 8009 bound_to 7997
  155.5644  140.0606  157.2812 H   0  0  0  0  0  0  0  0  0  0  0  0  # atno 8010 bound_to 7997
  139.5211  144.6509  151.5306 H   0  0  0  0  0  0  0  0  0  0  0  0  # atno 10167 bound_to 10162
  157.0205  131.0230  151.2776 H   0  0  0  0  0  0  0  0  0  0  0  0  # atno 10718 bound_to 10713
  153.0597  135.5020  154.8064 H   0  0  0  0  0  0  0  0  0  0  0  0  # atno 10763 bound_to 10752
  154.6863  135.2977  154.9545 H   0  0  0  0  0  0  0  0  0  0  0  0  # atno 10764 bound_to 10752
  154.0314  135.6729  153.4834 H   0  0  0  0  0  0  0  0  0  0  0  0  # atno 10765 bound_to 10752
  140.8108  134.2746  157.4941 H   0  0  0  0  0  0  0  0  0  0  0  0  # atno 11005 bound_to 11000
  146.1405  140.7064  142.9369 LP  0  0  0  0  0  0  0  0  0  0  0  0  # atno 17320 bound_to 7965
  144.7218  140.4397  143.7003 LP  0  0  0  0  0  0  0  0  0  0  0  0  # atno 17321 bound_to 7965
  140.6313  143.9071  150.6608 LP  0  0  0  0  0  0  0  0  0  0  0  0  # atno 17342 bound_to 10162
  140.2376  143.3688  152.1514 LP  0  0  0  0  0  0  0  0  0  0  0  0  # atno 17343 bound_to 10162
  157.5253  130.8024  149.7855 LP  0  0  0  0  0  0  0  0  0  0  0  0  # atno 17370 bound_to 10713
  156.0104  130.3836  150.2285 LP  0  0  0  0  0  0  0  0  0  0  0  0  # atno 17371 bound_to 10713
  139.8714  134.9482  156.3990 LP  0  0  0  0  0  0  0  0  0  0  0  0  # atno 17394 bound_to 11000
  140.9199  133.7652  155.9894 LP  0  0  0  0  0  0  0  0  0  0  0  0  # atno 17395 bound_to 11000

$$$$
