AV-unprocessed.smi:1959|AV-procd|sdf|7913|dock2
  -GOLD-   2272010 73D 1   1.00000     0.00000
 Structure written by MMmdl.
 44 45  0  0  0  0  0  0  0  0  1 V2000
  153.7535  140.8147  160.6718 C   0  0  0  0  0  0  0  0  0  0  0  0
  153.0320  141.9968  160.0948 C   0  0  0  0  0  0  0  0  0  0  0  0
  152.7913  143.2633  160.6973 C   0  0  0  0  0  0  0  0  0  0  0  0
  152.0997  143.9621  159.7484 C   0  0  0  0  0  0  0  0  0  0  0  0
  151.5590  145.3538  159.7795 C   0  0  0  0  0  0  0  0  0  0  0  0
  151.9562  143.1236  158.6570 N   0  0  0  0  0  0  0  0  0  0  0  0
  151.3000  143.3790  157.3819 C   0  0  0  0  0  0  0  0  0  0  0  0
  150.7486  142.1088  156.7222 C   0  0  0  0  0  0  0  0  0  0  0  0
  151.2683  141.0085  156.9164 O   0  0  0  0  0  0  0  0  0  0  0  0
  149.6783  142.2854  155.9326 N   0  0  0  0  0  0  0  0  0  0  0  0
  148.9807  141.2351  155.1942 C   0  0  1  0  0  0  0  0  0  0  0  0
  147.8773  141.8402  154.3125 C   0  0  0  0  0  0  0  0  0  0  0  0
  149.9521  140.3092  154.4206 C   0  0  0  0  0  0  0  0  0  0  0  0
  150.6200  139.2542  155.1895 N   0  0  0  0  0  0  0  0  0  0  0  0
  152.0511  139.2349  154.9029 C   0  0  0  0  0  0  0  0  0  0  0  0
  152.7864  138.1437  155.6994 C   0  0  0  0  0  0  0  0  0  0  0  0
  152.2053  136.8761  155.4149 O   0  0  0  0  0  0  0  0  0  0  0  0
  150.8161  136.8303  155.7223 C   0  0  0  0  0  0  0  0  0  0  0  0
  150.0712  137.9232  154.9351 C   0  0  0  0  0  0  0  0  0  0  0  0
  152.5303  141.9198  158.8732 N   0  0  0  0  0  0  0  0  0  0  0  0
  154.1731  141.0472  161.6509 H   0  0  0  0  0  0  0  0  0  0  0  0
  154.5744  140.5015  160.0261 H   0  0  0  0  0  0  0  0  0  0  0  0
  153.0804  139.9657  160.7931 H   0  0  0  0  0  0  0  0  0  0  0  0
  153.0820  143.6071  161.6789 H   0  0  0  0  0  0  0  0  0  0  0  0
  151.7828  145.8375  160.7304 H   0  0  0  0  0  0  0  0  0  0  0  0
  150.4765  145.3537  159.6508 H   0  0  0  0  0  0  0  0  0  0  0  0
  151.9963  145.9585  158.9851 H   0  0  0  0  0  0  0  0  0  0  0  0
  150.4873  144.0879  157.5429 H   0  0  0  0  0  0  0  0  0  0  0  0
  152.0083  143.8577  156.7035 H   0  0  0  0  0  0  0  0  0  0  0  0
  149.3194  143.2235  155.8290 H   0  0  0  0  0  0  0  0  0  0  0  0
  148.4759  140.6130  155.9360 H   0  0  0  0  0  0  0  0  0  0  0  0
  147.3273  141.0600  153.7858 H   0  0  0  0  0  0  0  0  0  0  0  0
  148.2858  142.5219  153.5657 H   0  0  0  0  0  0  0  0  0  0  0  0
  147.1600  142.4005  154.9130 H   0  0  0  0  0  0  0  0  0  0  0  0
  149.4504  139.8765  153.5537 H   0  0  0  0  0  0  0  0  0  0  0  0
  150.7244  140.9586  154.0058 H   0  0  0  0  0  0  0  0  0  0  0  0
  152.2128  139.0722  153.8360 H   0  0  0  0  0  0  0  0  0  0  0  0
  152.4894  140.2052  155.1392 H   0  0  0  0  0  0  0  0  0  0  0  0
  153.8417  138.1212  155.4272 H   0  0  0  0  0  0  0  0  0  0  0  0
  152.7352  138.3450  156.7706 H   0  0  0  0  0  0  0  0  0  0  0  0
  150.4265  135.8455  155.4643 H   0  0  0  0  0  0  0  0  0  0  0  0
  150.6712  136.9617  156.7958 H   0  0  0  0  0  0  0  0  0  0  0  0
  149.0203  137.8863  155.2168 H   0  0  0  0  0  0  0  0  0  0  0  0
  150.1206  137.6995  153.8684 H   0  0  0  0  0  0  0  0  0  0  0  0
  1  2  1  0  0  0  0
  1 21  1  0  0  0  0
  1 22  1  0  0  0  0
  1 23  1  0  0  0  0
  2 20  2  0  0  0  0
  2  3  1  0  0  0  0
  3  4  2  0  0  0  0
  3 24  1  0  0  0  0
  4  5  1  0  0  0  0
  4  6  1  0  0  0  0
  5 25  1  0  0  0  0
  5 26  1  0  0  0  0
  5 27  1  0  0  0  0
  6  7  1  0  0  0  0
  6 20  1  0  0  0  0
  7  8  1  0  0  0  0
  7 28  1  0  0  0  0
  7 29  1  0  0  0  0
  8  9  2  0  0  0  0
  8 10  1  0  0  0  0
 10 11  1  0  0  0  0
 10 30  1  0  0  0  0
 11 12  1  0  0  0  0
 11 13  1  0  0  0  0
 11 31  1  0  0  0  0
 12 32  1  0  0  0  0
 12 33  1  0  0  0  0
 12 34  1  0  0  0  0
 13 14  1  0  0  0  0
 13 35  1  0  0  0  0
 13 36  1  0  0  0  0
 14 19  1  0  0  0  0
 14 15  1  0  0  0  0
 15 16  1  0  0  0  0
 15 37  1  0  0  0  0
 15 38  1  0  0  0  0
 16 17  1  0  0  0  0
 16 39  1  0  0  0  0
 16 40  1  0  0  0  0
 17 18  1  0  0  0  0
 18 19  1  0  0  0  0
 18 41  1  0  0  0  0
 18 42  1  0  0  0  0
 19 43  1  0  0  0  0
 19 44  1  0  0  0  0
M  END
> <s_m_source_file>
AV-unprocessed.smi

> <i_m_source_file_index>
1959

> <i_lp_mmshare_version>
43012

> <i_f3d_flags>
0

> <s_epik_input>
W0NIM11jMVtjSF1jKFtDSDNdKW4objEpW0NIMl1DKD1PKVtOSF1bQ0BIXShbQ0gzXSlbQ0gyXU4yW0NIMl1bQ0gyXU9bQ0gyXVtDSDJdMg==

> <s_epik_cmdline>
J2VwaWtfcHl0aG9uJywgJy1waCcsICc3LjAnLCAnLXRuJywgJzgnLCAnLW1hJywgJzIwMCcsICctbWV0YWxfYmluZGluZycsICctaW1hZScsICc8aW5maWxlLm1hZT4nLCAnLW9tYWUnLCAnPG91dGZpbGUubWFlPic=

> <r_lp_tautomer_probability>
1

> <r_epik_Ionization_Penalty>
0.197284

> <r_epik_Ionization_Penalty_Charging>
0

> <r_epik_Ionization_Penalty_Neutral>
0.197284

> <r_epik_State_Penalty>
0.186684

> <r_epik_Charging_Adjusted_Penalty>
0.186684

> <i_epik_Tot_Q>
0

> <i_epik_Tot_abs_Q>
0

> <r_epik_Metal_State_Penalty>
0.186639

> <b_epik_Metal_Only>
0

> <s_lp_Force_Field>
OPLS_2005

> <r_lp_Energy>
28.5782

> <b_lp_Chiralities_Consistent>
1

> <s_lp_Variant>
AV-unprocessed.smi:1959-2

> <Gold.Version>
5.8.1

> <Gold.Id.Protein>
6NUR|6NUR_protein|mol2

> <Gold.PLP.Fitness>
48.4491

> <Gold.PLP.PLP>
-45.8821

> <Gold.PLP.part.hbond>
-2.0000

> <Gold.PLP.part.metal>
0.0000

> <Gold.PLP.part.buried>
-3.6722

> <Gold.PLP.part.nonpolar>
-41.7056

> <Gold.PLP.part.repulsive>
0.2443

> <Gold.PLP.ligand.clash>
0.0000

> <Gold.PLP.ligand.torsion>
1.7361

> <Gold.PLP.Chemscore.Hbond>
1.9920

> <Gold.PLP.Chemscore.CHOScore>
0.0000

> <Gold.PLP.Chemscore.Metal>
0.0000

> <Gold.Chemscore.Hbonds>
donor molecule, donor type, donor heavy atom, donor atom, acceptor molecule, acceptor atom, score
      L1  H    10    30       P1  8028  1.00
      P1  H 10752 10764       L1    17  0.93

> <Gold.PLP.Chemscore.Internal.Correction>
0.0633

> <Gold.Rescore>
     Score         DG    S(hbond)    S(metal)    S(lipo)     H(rot)  DE(clash)    DE(int)     intcor
     13.98     -19.54       1.77        0.00     106.90       1.70       0.14       5.42       ----

> <Gold.Chemscore.Fitness>
13.9793

> <Gold.Chemscore.DG>
-19.5450

> <Gold.Chemscore.ZeroCoef>
-5.4800

> <Gold.Chemscore.Hbond>
1.7657

> <Gold.Chemscore.Metal>
0.0000

> <Gold.Chemscore.Lipo>
106.9003

> <Gold.Chemscore.Internal_Hbond>
0.0000

> <Gold.Chemscore.DEClash>
0.1434

> <Gold.Chemscore.DEInternal>
5.4223

> <Gold.Chemscore.Rot>
1.6952

> <Gold.Chemscore.Internal.Correction>
   9.000000E+99

> <Gold.Chemscore.Hbonds>
donor molecule, donor type, donor heavy atom, donor atom, acceptor molecule, acceptor atom, score
      L1  H    10    30       P1  8028  0.97
      P1  H 10752 10764       L1    17  0.90

> <Gold.Chemscore.Hbond.Weighted>
-5.8975

> <Gold.Chemscore.Metal.Weighted>
-0.0000

> <Gold.Chemscore.Lipo.Weighted>
-12.5073

> <Gold.Chemscore.Internal_Hbond.Weighted>
0.0000

> <Gold.Chemscore.DEClash.Weighted>
0.1434

> <Gold.Chemscore.DEInternal.Weighted>
5.4223

> <Gold.Chemscore.Rot.Weighted>
4.3398

> <Gold.Chemscore.Internal.Correction.Weighted>
   9.000000E+99

> <Gold.Protein.RotatedTorsions>
[ 6907 6896 6895 6894 ] final   75.18 input  -60.11 | X-H torsion
[ 7974 7965 7964 7962 ] final  133.26 input  175.53 | X-H torsion
[ 8008 7997 7996 7995 ] final  147.06 input   59.86 | X-H torsion
[ 10167 10162 10161 10158 ] final -112.77 input  -65.29 | X-H torsion
[ 10718 10713 10712 10709 ] final -130.15 input   66.30 | X-H torsion
[ 10763 10752 10751 10750 ] final  -50.00 input  -60.55 | X-H torsion
[ 11005 11000 10999 10996 ] final -163.69 input  -57.11 | X-H torsion

> <Gold.Protein.ActiveResidues>
 VAL166  LYS551  ARG553  GLY616  TRP617  ASP618  TYR619  PRO620  LYS621  CYS622 
 ASP623  PHE694  ASN695  SER759  ASP760  ASP761  ALA762  ILE779  LEU786  VAL792 
 PHE793  MET794  SER795  GLU796  ALA797  LYS798  CYS799  TRP800  GLU811  SER814 

> <Gold.Protein.RotatedAtoms>
  152.5013  134.4159  159.9463 H   0  0  0  0  0  0  0  0  0  0  0  0  # atno 6907 bound_to 6896
  151.4129  133.3715  159.2754 H   0  0  0  0  0  0  0  0  0  0  0  0  # atno 6908 bound_to 6896
  150.9278  134.8716  159.7591 H   0  0  0  0  0  0  0  0  0  0  0  0  # atno 6909 bound_to 6896
  144.9883  139.4432  143.5352 H   0  0  0  0  0  0  0  0  0  0  0  0  # atno 7974 bound_to 7965
  156.2836  140.2165  156.5477 H   0  0  0  0  0  0  0  0  0  0  0  0  # atno 8008 bound_to 7997
  154.7317  140.0495  157.0754 H   0  0  0  0  0  0  0  0  0  0  0  0  # atno 8009 bound_to 7997
  155.0345  140.3139  155.4749 H   0  0  0  0  0  0  0  0  0  0  0  0  # atno 8010 bound_to 7997
  140.1191  143.4459  152.1702 H   0  0  0  0  0  0  0  0  0  0  0  0  # atno 10167 bound_to 10162
  156.2116  130.6922  151.0656 H   0  0  0  0  0  0  0  0  0  0  0  0  # atno 10718 bound_to 10713
  154.1032  135.6560  153.4872 H   0  0  0  0  0  0  0  0  0  0  0  0  # atno 10763 bound_to 10752
  153.0281  135.5230  154.7265 H   0  0  0  0  0  0  0  0  0  0  0  0  # atno 10764 bound_to 10752
  154.6424  135.2990  155.0057 H   0  0  0  0  0  0  0  0  0  0  0  0  # atno 10765 bound_to 10752
  140.5953  134.5003  157.5198 H   0  0  0  0  0  0  0  0  0  0  0  0  # atno 11005 bound_to 11000
  146.3425  139.9199  142.8768 LP  0  0  0  0  0  0  0  0  0  0  0  0  # atno 17320 bound_to 7965
  145.2321  140.9977  143.3984 LP  0  0  0  0  0  0  0  0  0  0  0  0  # atno 17321 bound_to 7965
  139.5578  144.7385  151.4243 LP  0  0  0  0  0  0  0  0  0  0  0  0  # atno 17342 bound_to 10162
  140.6882  143.7924  150.7216 LP  0  0  0  0  0  0  0  0  0  0  0  0  # atno 17343 bound_to 10162
  157.7041  131.0764  150.6724 LP  0  0  0  0  0  0  0  0  0  0  0  0  # atno 17370 bound_to 10713
  156.6783  130.4560  149.5635 LP  0  0  0  0  0  0  0  0  0  0  0  0  # atno 17371 bound_to 10713
  139.9256  134.8063  156.1079 LP  0  0  0  0  0  0  0  0  0  0  0  0  # atno 17394 bound_to 11000
  141.0908  133.6715  156.2536 LP  0  0  0  0  0  0  0  0  0  0  0  0  # atno 17395 bound_to 11000

$$$$
