AV-unprocessed.smi:712|AV-procd|sdf|3470|dock9
  -GOLD-   22720 0463D 1   1.00000     0.00000
 Structure written by MMmdl.
 51 52  0  0  0  0  0  0  0  0  2 V2000
  150.8108  142.8652  157.7431 C   0  0  0  0  0  0  0  0  0  0  0  0
  150.7881  141.7049  156.7695 C   0  0  0  0  0  0  0  0  0  0  0  0
  149.5894  141.3903  156.0201 C   0  0  0  0  0  0  0  0  0  0  0  0
  149.6058  140.3567  155.1644 C   0  0  0  0  0  0  0  0  0  0  0  0
  150.7544  139.5671  154.9744 N   0  0  0  0  0  0  0  0  0  0  0  0
  150.6582  138.4563  154.0126 C   0  0  0  0  0  0  0  0  0  0  0  0
  150.8469  137.0812  154.6676 C   0  0  0  0  0  0  0  0  0  0  0  0
  151.3166  136.9860  155.8021 O   0  0  0  0  0  0  0  0  0  0  0  0
  150.4660  136.0217  153.9382 N   0  0  0  0  0  0  0  0  0  0  0  0
  150.6044  134.6281  154.3476 C   0  0  0  0  0  0  0  0  0  0  0  0
  149.7646  133.6927  153.4587 C   0  0  2  0  0  0  0  0  0  0  0  0
  148.2547  133.9998  153.5719 C   0  0  0  0  0  0  0  0  0  0  0  0
  147.4338  133.0331  152.7966 N   0  3  1  0  0  0  0  0  0  0  0  0
  147.4036  133.2699  151.3273 C   0  0  0  0  0  0  0  0  0  0  0  0
  146.0569  133.8413  150.8323 C   0  0  0  0  0  0  0  0  0  0  0  0
  145.6632  135.1218  151.5877 C   0  0  0  0  0  0  0  0  0  0  0  0
  144.9471  132.7861  150.9528 C   0  0  0  0  0  0  0  0  0  0  0  0
  147.7878  131.6406  153.1651 C   0  0  0  0  0  0  0  0  0  0  0  0
  149.3041  131.4050  153.0504 C   0  0  0  0  0  0  0  0  0  0  0  0
  149.9847  132.3464  153.8688 O   0  0  0  0  0  0  0  0  0  0  0  0
  151.9154  139.8054  155.6566 C   0  0  0  0  0  0  0  0  0  0  0  0
  152.9207  139.1103  155.5023 O   0  0  0  0  0  0  0  0  0  0  0  0
  151.8873  140.9404  156.5864 C   0  0  0  0  0  0  0  0  0  0  0  0
  149.8830  143.4359  157.6984 H   0  0  0  0  0  0  0  0  0  0  0  0
  151.6360  143.5399  157.5128 H   0  0  0  0  0  0  0  0  0  0  0  0
  150.9382  142.5009  158.7628 H   0  0  0  0  0  0  0  0  0  0  0  0
  148.6902  141.9751  156.1478 H   0  0  0  0  0  0  0  0  0  0  0  0
  148.7441  140.0660  154.5813 H   0  0  0  0  0  0  0  0  0  0  0  0
  149.6906  138.4616  153.5090 H   0  0  0  0  0  0  0  0  0  0  0  0
  151.3957  138.5916  153.2188 H   0  0  0  0  0  0  0  0  0  0  0  0
  150.0783  136.1927  153.0216 H   0  0  0  0  0  0  0  0  0  0  0  0
  151.6526  134.3239  154.3498 H   0  0  0  0  0  0  0  0  0  0  0  0
  150.2623  134.5570  155.3805 H   0  0  0  0  0  0  0  0  0  0  0  0
  150.0942  133.8141  152.4256 H   0  0  0  0  0  0  0  0  0  0  0  0
  147.9522  133.9306  154.6179 H   0  0  0  0  0  0  0  0  0  0  0  0
  148.0468  135.0245  153.2671 H   0  0  0  0  0  0  0  0  0  0  0  0
  148.2240  133.9264  151.0378 H   0  0  0  0  0  0  0  0  0  0  0  0
  147.5797  132.3271  150.8073 H   0  0  0  0  0  0  0  0  0  0  0  0
  146.1379  134.0885  149.7743 H   0  0  0  0  0  0  0  0  0  0  0  0
  145.5637  134.9366  152.6578 H   0  0  0  0  0  0  0  0  0  0  0  0
  144.7097  135.5105  151.2287 H   0  0  0  0  0  0  0  0  0  0  0  0
  146.4043  135.9101  151.4534 H   0  0  0  0  0  0  0  0  0  0  0  0
  144.7922  132.4883  151.9906 H   0  0  0  0  0  0  0  0  0  0  0  0
  145.1921  131.8897  150.3823 H   0  0  0  0  0  0  0  0  0  0  0  0
  143.9990  133.1671  150.5716 H   0  0  0  0  0  0  0  0  0  0  0  0
  147.4752  131.4691  154.1959 H   0  0  0  0  0  0  0  0  0  0  0  0
  147.2346  130.9249  152.5561 H   0  0  0  0  0  0  0  0  0  0  0  0
  149.5538  130.3999  153.3904 H   0  0  0  0  0  0  0  0  0  0  0  0
  149.6441  131.4834  152.0168 H   0  0  0  0  0  0  0  0  0  0  0  0
  152.7842  141.1689  157.1439 H   0  0  0  0  0  0  0  0  0  0  0  0
  146.4780  133.1600  153.0987 H   0  0  0  0  0  0  0  0  0  0  0  0
  1  2  1  0  0  0  0
  1 24  1  0  0  0  0
  1 25  1  0  0  0  0
  1 26  1  0  0  0  0
  2 23  2  0  0  0  0
  2  3  1  0  0  0  0
  3  4  2  0  0  0  0
  3 27  1  0  0  0  0
  4  5  1  0  0  0  0
  4 28  1  0  0  0  0
  5  6  1  0  0  0  0
  5 21  1  0  0  0  0
  6  7  1  0  0  0  0
  6 29  1  0  0  0  0
  6 30  1  0  0  0  0
  7  8  2  0  0  0  0
  7  9  1  0  0  0  0
  9 10  1  0  0  0  0
  9 31  1  0  0  0  0
 10 11  1  0  0  0  0
 10 32  1  0  0  0  0
 10 33  1  0  0  0  0
 11 20  1  0  0  0  0
 11 12  1  0  0  0  0
 11 34  1  0  0  0  0
 12 13  1  0  0  0  0
 12 35  1  0  0  0  0
 12 36  1  0  0  0  0
 13 14  1  0  0  0  0
 13 18  1  0  0  0  0
 13 51  1  0  0  0  0
 14 15  1  0  0  0  0
 14 37  1  0  0  0  0
 14 38  1  0  0  0  0
 15 16  1  0  0  0  0
 15 17  1  0  0  0  0
 15 39  1  0  0  0  0
 16 40  1  0  0  0  0
 16 41  1  0  0  0  0
 16 42  1  0  0  0  0
 17 43  1  0  0  0  0
 17 44  1  0  0  0  0
 17 45  1  0  0  0  0
 18 19  1  0  0  0  0
 18 46  1  0  0  0  0
 18 47  1  0  0  0  0
 19 20  1  0  0  0  0
 19 48  1  0  0  0  0
 19 49  1  0  0  0  0
 21 22  2  0  0  0  0
 21 23  1  0  0  0  0
 23 50  1  0  0  0  0
M  CHG  1  13   1
M  END
> <s_m_source_file>
AV-unprocessed.smi

> <i_m_source_file_index>
712

> <i_lp_mmshare_version>
43012

> <i_f3d_flags>
0

> <s_epik_input>
W0NIM11jMVtjSF1bY0hdbihjKD1PKVtjSF0xKVtDSDJdQyg9TylbTkhdW0NIMl1bQ0BASF0yW0NIMl1OKFtDSDJdW0NIMl1PMilbQ0gyXVtDSF0oW0NIM10pW0NIM10=

> <s_epik_cmdline>
J2VwaWtfcHl0aG9uJywgJy1waCcsICc3LjAnLCAnLXRuJywgJzgnLCAnLW1hJywgJzIwMCcsICctbWV0YWxfYmluZGluZycsICctaW1hZScsICc8aW5maWxlLm1hZT4nLCAnLW9tYWUnLCAnPG91dGZpbGUubWFlPic=

> <r_lp_tautomer_probability>
1

> <r_epik_Ionization_Penalty>
0.0975935

> <r_epik_Ionization_Penalty_Charging>
0.0975934

> <r_epik_Ionization_Penalty_Neutral>
6.27044e-08

> <r_epik_State_Penalty>
0.0877056

> <r_epik_Charging_Adjusted_Penalty>
0.185299

> <i_epik_Tot_Q>
1

> <i_epik_Tot_abs_Q>
1

> <r_epik_Metal_State_Penalty>
0.0877109

> <b_epik_Metal_Only>
0

> <s_lp_Force_Field>
OPLS_2005

> <r_lp_Energy>
30.0943

> <b_lp_Chiralities_Consistent>
1

> <s_lp_Variant>
AV-unprocessed.smi:712-3

> <Gold.Version>
5.8.1

> <Gold.Id.Protein>
6NUR|6NUR_protein|mol2

> <Gold.PLP.Fitness>
44.4173

> <Gold.PLP.PLP>
-42.0610

> <Gold.PLP.part.hbond>
-3.0000

> <Gold.PLP.part.metal>
0.0000

> <Gold.PLP.part.buried>
-2.7278

> <Gold.PLP.part.nonpolar>
-36.5669

> <Gold.PLP.part.repulsive>
0.1205

> <Gold.PLP.ligand.clash>
0.0000

> <Gold.PLP.ligand.torsion>
1.0153

> <Gold.PLP.Chemscore.Hbond>
1.4413

> <Gold.PLP.Chemscore.CHOScore>
0.0000

> <Gold.PLP.Chemscore.Metal>
0.0000

> <Gold.Chemscore.Hbonds>
donor molecule, donor type, donor heavy atom, donor atom, acceptor molecule, acceptor atom, score
      L1  H     9    31       P1  7948  0.10
      P1  H  7997  8009       L1    22  1.00

> <Gold.PLP.Chemscore.Internal.Correction>
0.0631

> <Gold.Rescore>
     Score         DG    S(hbond)    S(metal)    S(lipo)     H(rot)  DE(clash)    DE(int)     intcor
     13.59     -14.83       1.23        0.00      86.06       1.89       0.09       1.15       ----

> <Gold.Chemscore.Fitness>
13.5863

> <Gold.Chemscore.DG>
-14.8318

> <Gold.Chemscore.ZeroCoef>
-5.4800

> <Gold.Chemscore.Hbond>
1.2315

> <Gold.Chemscore.Metal>
0.0000

> <Gold.Chemscore.Lipo>
86.0633

> <Gold.Chemscore.Internal_Hbond>
0.0000

> <Gold.Chemscore.DEClash>
0.0924

> <Gold.Chemscore.DEInternal>
1.1530

> <Gold.Chemscore.Rot>
1.8871

> <Gold.Chemscore.Internal.Correction>
   9.000000E+99

> <Gold.Chemscore.Hbonds>
donor molecule, donor type, donor heavy atom, donor atom, acceptor molecule, acceptor atom, score
      P1  H  7997  8009       L1    22  0.60

> <Gold.Chemscore.Hbond.Weighted>
-4.1133

> <Gold.Chemscore.Metal.Weighted>
-0.0000

> <Gold.Chemscore.Lipo.Weighted>
-10.0694

> <Gold.Chemscore.Internal_Hbond.Weighted>
0.0000

> <Gold.Chemscore.DEClash.Weighted>
0.0924

> <Gold.Chemscore.DEInternal.Weighted>
1.1530

> <Gold.Chemscore.Rot.Weighted>
4.8309

> <Gold.Chemscore.Internal.Correction.Weighted>
   9.000000E+99

> <Gold.Protein.RotatedTorsions>
[ 6907 6896 6895 6894 ] final  -96.66 input  -60.11 | X-H torsion
[ 7974 7965 7964 7962 ] final  -75.56 input  175.53 | X-H torsion
[ 8008 7997 7996 7995 ] final -142.56 input   59.86 | X-H torsion
[ 10167 10162 10161 10158 ] final  -58.35 input  -65.29 | X-H torsion
[ 10718 10713 10712 10709 ] final   77.34 input   66.30 | X-H torsion
[ 10763 10752 10751 10750 ] final -107.25 input  -60.55 | X-H torsion
[ 11005 11000 10999 10996 ] final   93.61 input  -57.11 | X-H torsion

> <Gold.Protein.ActiveResidues>
 VAL166  LYS551  ARG553  GLY616  TRP617  ASP618  TYR619  PRO620  LYS621  CYS622 
 ASP623  PHE694  ASN695  SER759  ASP760  ASP761  ALA762  ILE779  LEU786  VAL792 
 PHE793  MET794  SER795  GLU796  ALA797  LYS798  CYS799  TRP800  GLU811  SER814 

> <Gold.Protein.RotatedAtoms>
  150.6995  134.1469  159.4125 H   0  0  0  0  0  0  0  0  0  0  0  0  # atno 6907 bound_to 6896
  151.9452  135.0192  160.0548 H   0  0  0  0  0  0  0  0  0  0  0  0  # atno 6908 bound_to 6896
  152.2059  133.4840  159.5120 H   0  0  0  0  0  0  0  0  0  0  0  0  # atno 6909 bound_to 6896
  145.6244  140.9354  143.1120 H   0  0  0  0  0  0  0  0  0  0  0  0  # atno 7974 bound_to 7965
  155.4963  140.0572  157.2946 H   0  0  0  0  0  0  0  0  0  0  0  0  # atno 8008 bound_to 7997
  154.4604  140.1993  156.0211 H   0  0  0  0  0  0  0  0  0  0  0  0  # atno 8009 bound_to 7997
  156.0879  140.3237  155.7782 H   0  0  0  0  0  0  0  0  0  0  0  0  # atno 8010 bound_to 7997
  140.6203  143.2417  151.5497 H   0  0  0  0  0  0  0  0  0  0  0  0  # atno 10167 bound_to 10162
  157.6707  130.9817  150.1627 H   0  0  0  0  0  0  0  0  0  0  0  0  # atno 10718 bound_to 10713
  154.8063  135.4682  154.0402 H   0  0  0  0  0  0  0  0  0  0  0  0  # atno 10763 bound_to 10752
  153.1868  135.6849  153.8412 H   0  0  0  0  0  0  0  0  0  0  0  0  # atno 10764 bound_to 10752
  153.7944  135.3238  155.3360 H   0  0  0  0  0  0  0  0  0  0  0  0  # atno 10765 bound_to 10752
  139.8808  134.8799  156.3742 H   0  0  0  0  0  0  0  0  0  0  0  0  # atno 11005 bound_to 11000
  144.7218  139.8005  143.7379 LP  0  0  0  0  0  0  0  0  0  0  0  0  # atno 17320 bound_to 7965
  146.1406  139.4462  143.0111 LP  0  0  0  0  0  0  0  0  0  0  0  0  # atno 17321 bound_to 7965
  139.5433  144.2589  152.1393 LP  0  0  0  0  0  0  0  0  0  0  0  0  # atno 17342 bound_to 10162
  140.1808  144.4846  150.6529 LP  0  0  0  0  0  0  0  0  0  0  0  0  # atno 17343 bound_to 10162
  156.2400  130.3690  149.8348 LP  0  0  0  0  0  0  0  0  0  0  0  0  # atno 17370 bound_to 10713
  156.6151  130.8603  151.3463 LP  0  0  0  0  0  0  0  0  0  0  0  0  # atno 17371 bound_to 10713
  140.9443  133.7493  156.0187 LP  0  0  0  0  0  0  0  0  0  0  0  0  # atno 17394 bound_to 11000
  140.8182  134.3320  157.5390 LP  0  0  0  0  0  0  0  0  0  0  0  0  # atno 17395 bound_to 11000

$$$$
