AV-unprocessed.smi:876|AV-procd|sdf|4023|dock4
  -GOLD-   22720 1513D 1   1.00000     0.00000
 Structure written by MMmdl.
 40 41  0  0  0  0  0  0  0  0  1 V2000
  151.8448  139.7388  155.4964 C   0  0  0  0  0  0  0  0  0  0  0  0
  150.7253  140.6723  155.4831 N   0  0  0  0  0  0  0  0  0  0  0  0
  150.8494  141.9666  156.1457 C   0  0  0  0  0  0  0  0  0  0  0  0
  149.5086  140.3151  154.8580 C   0  0  0  0  0  0  0  0  0  0  0  0
  148.6981  141.2802  154.2104 C   0  0  0  0  0  0  0  0  0  0  0  0
  147.4942  140.8761  153.6017 C   0  0  0  0  0  0  0  0  0  0  0  0
  147.1264  139.5117  153.6460 C   0  0  0  0  0  0  0  0  0  0  0  0
  145.9316  138.9791  153.0892 N   0  0  0  0  0  0  0  0  0  0  0  0
  145.6476  137.7058  152.7652 C   0  0  0  0  0  0  0  0  0  0  0  0
  146.3924  136.7413  152.9376 O   0  0  0  0  0  0  0  0  0  0  0  0
  144.4203  137.6039  152.2360 N   0  0  0  0  0  0  0  0  0  0  0  0
  143.8094  136.3588  151.7837 C   0  0  2  0  0  0  0  0  0  0  0  0
  143.7393  135.3640  152.9097 C   0  0  0  0  0  0  0  0  0  0  0  0
  144.3073  134.2001  152.6027 C   0  0  0  0  0  0  0  0  0  0  0  0
  144.8813  134.1792  151.2089 C   0  0  2  0  0  0  0  0  0  0  0  0
  146.3577  133.7480  151.1731 C   0  0  0  0  0  0  0  0  0  0  0  0
  147.0977  134.4249  152.1678 O   0  0  0  0  0  0  0  0  0  0  0  0
  144.6545  135.6281  150.7069 C   0  0  0  0  0  0  0  0  0  0  0  0
  147.9895  138.6279  154.3224 C   0  0  0  0  0  0  0  0  0  0  0  0
  149.1437  139.0105  154.9066 N   0  0  0  0  0  0  0  0  0  0  0  0
  142.7947  136.5417  151.4259 H   0  0  0  0  0  0  0  0  0  0  0  0
  144.2824  133.4901  150.6115 H   0  0  0  0  0  0  0  0  0  0  0  0
  152.1724  139.5199  154.4796 H   0  0  0  0  0  0  0  0  0  0  0  0
  151.5601  138.8045  155.9814 H   0  0  0  0  0  0  0  0  0  0  0  0
  152.6973  140.1477  156.0391 H   0  0  0  0  0  0  0  0  0  0  0  0
  150.1320  142.0488  156.9630 H   0  0  0  0  0  0  0  0  0  0  0  0
  150.6655  142.7778  155.4401 H   0  0  0  0  0  0  0  0  0  0  0  0
  151.8472  142.1072  156.5613 H   0  0  0  0  0  0  0  0  0  0  0  0
  148.9710  142.3239  154.1725 H   0  0  0  0  0  0  0  0  0  0  0  0
  146.8770  141.6241  153.1296 H   0  0  0  0  0  0  0  0  0  0  0  0
  145.1850  139.6455  152.9567 H   0  0  0  0  0  0  0  0  0  0  0  0
  143.8704  138.4446  152.1360 H   0  0  0  0  0  0  0  0  0  0  0  0
  143.2575  135.5905  153.8496 H   0  0  0  0  0  0  0  0  0  0  0  0
  144.3560  133.3421  153.2571 H   0  0  0  0  0  0  0  0  0  0  0  0
  146.4423  132.6755  151.3503 H   0  0  0  0  0  0  0  0  0  0  0  0
  146.7987  133.9505  150.1964 H   0  0  0  0  0  0  0  0  0  0  0  0
  147.5931  135.1163  151.7557 H   0  0  0  0  0  0  0  0  0  0  0  0
  144.1474  135.6349  149.7414 H   0  0  0  0  0  0  0  0  0  0  0  0
  145.6109  136.1324  150.5585 H   0  0  0  0  0  0  0  0  0  0  0  0
  147.7503  137.5770  154.3969 H   0  0  0  0  0  0  0  0  0  0  0  0
  1  2  1  0  0  0  0
  1 23  1  0  0  0  0
  1 24  1  0  0  0  0
  1 25  1  0  0  0  0
  2  3  1  0  0  0  0
  2  4  1  0  0  0  0
  3 26  1  0  0  0  0
  3 27  1  0  0  0  0
  3 28  1  0  0  0  0
  4 20  1  0  0  0  0
  4  5  2  0  0  0  0
  5  6  1  0  0  0  0
  5 29  1  0  0  0  0
  6  7  2  0  0  0  0
  6 30  1  0  0  0  0
  7  8  1  0  0  0  0
  7 19  1  0  0  0  0
  8  9  1  0  0  0  0
  8 31  1  0  0  0  0
  9 10  2  0  0  0  0
  9 11  1  0  0  0  0
 11 12  1  0  0  0  0
 11 32  1  0  0  0  0
 12 21  1  0  0  0  0
 12 18  1  0  0  0  0
 12 13  1  0  0  0  0
 13 14  2  0  0  0  0
 13 33  1  0  0  0  0
 14 15  1  0  0  0  0
 14 34  1  0  0  0  0
 15 22  1  0  0  0  0
 15 16  1  0  0  0  0
 15 18  1  0  0  0  0
 16 17  1  0  0  0  0
 16 35  1  0  0  0  0
 16 36  1  0  0  0  0
 17 37  1  0  0  0  0
 18 38  1  0  0  0  0
 18 39  1  0  0  0  0
 19 20  2  0  0  0  0
 19 40  1  0  0  0  0
M  END
> <s_m_source_file>
AV-unprocessed.smi

> <i_m_source_file_index>
876

> <i_lp_mmshare_version>
43012

> <i_f3d_flags>
0

> <s_epik_input>
W0NIM11OKFtDSDNdKWMxW2NIXVtjSF1jKFtjSF1uMSlbTkhdQyg9TylbTkhdW0NAQEhdMltDSF09W0NIXVtDQEBIXShbQ0gyXTIpW0NIMl1bT0hd

> <s_epik_cmdline>
J2VwaWtfcHl0aG9uJywgJy1waCcsICc3LjAnLCAnLXRuJywgJzgnLCAnLW1hJywgJzIwMCcsICctbWV0YWxfYmluZGluZycsICctaW1hZScsICc8aW5maWxlLm1hZT4nLCAnLW9tYWUnLCAnPG91dGZpbGUubWFlPic=

> <r_lp_tautomer_probability>
1

> <r_epik_Ionization_Penalty>
0.617998

> <r_epik_Ionization_Penalty_Charging>
0

> <r_epik_Ionization_Penalty_Neutral>
0.617998

> <r_epik_State_Penalty>
0.632637

> <r_epik_Charging_Adjusted_Penalty>
0.632637

> <i_epik_Tot_Q>
0

> <i_epik_Tot_abs_Q>
0

> <r_epik_Metal_State_Penalty>
0.305596

> <b_epik_Metal_Only>
0

> <s_lp_Force_Field>
OPLS_2005

> <r_lp_Energy>
21.6673

> <b_lp_Chiralities_Consistent>
1

> <s_lp_Variant>
AV-unprocessed.smi:876-5

> <Gold.Version>
5.8.1

> <Gold.Id.Protein>
6NUR|6NUR_protein|mol2

> <Gold.PLP.Fitness>
42.8409

> <Gold.PLP.PLP>
-35.1071

> <Gold.PLP.part.hbond>
-4.0000

> <Gold.PLP.part.metal>
0.0000

> <Gold.PLP.part.buried>
-3.2072

> <Gold.PLP.part.nonpolar>
-29.2041

> <Gold.PLP.part.repulsive>
1.9188

> <Gold.PLP.ligand.clash>
0.0000

> <Gold.PLP.ligand.torsion>
0.6408

> <Gold.PLP.Chemscore.Hbond>
3.0000

> <Gold.PLP.Chemscore.CHOScore>
0.0000

> <Gold.PLP.Chemscore.Metal>
0.0000

> <Gold.Chemscore.Hbonds>
donor molecule, donor type, donor heavy atom, donor atom, acceptor molecule, acceptor atom, score
      L1  H     8    31       P1 10175  1.00
      L1  H    11    32       P1 10175  1.00
      L1  H    17    37       P1  7948  0.96

> <Gold.PLP.Chemscore.Internal.Correction>
0.0154

> <Gold.Rescore>
     Score         DG    S(hbond)    S(metal)    S(lipo)     H(rot)  DE(clash)    DE(int)     intcor
     14.15     -18.28       2.89        0.00      66.12       1.80       0.31       3.82       ----

> <Gold.Chemscore.Fitness>
14.1508

> <Gold.Chemscore.DG>
-18.2814

> <Gold.Chemscore.ZeroCoef>
-5.4800

> <Gold.Chemscore.Hbond>
2.8948

> <Gold.Chemscore.Metal>
0.0000

> <Gold.Chemscore.Lipo>
66.1156

> <Gold.Chemscore.Internal_Hbond>
0.0000

> <Gold.Chemscore.DEClash>
0.3094

> <Gold.Chemscore.DEInternal>
3.8212

> <Gold.Chemscore.Rot>
1.7980

> <Gold.Chemscore.Internal.Correction>
   9.000000E+99

> <Gold.Chemscore.Hbonds>
donor molecule, donor type, donor heavy atom, donor atom, acceptor molecule, acceptor atom, score
      L1  H     8    31       P1 10175  1.00
      L1  H    11    32       P1 10175  0.88
      L1  H    17    37       P1  7948  0.76

> <Gold.Chemscore.Hbond.Weighted>
-9.6687

> <Gold.Chemscore.Metal.Weighted>
-0.0000

> <Gold.Chemscore.Lipo.Weighted>
-7.7355

> <Gold.Chemscore.Internal_Hbond.Weighted>
0.0000

> <Gold.Chemscore.DEClash.Weighted>
0.3094

> <Gold.Chemscore.DEInternal.Weighted>
3.8212

> <Gold.Chemscore.Rot.Weighted>
4.6029

> <Gold.Chemscore.Internal.Correction.Weighted>
   9.000000E+99

> <Gold.Protein.RotatedTorsions>
[ 6907 6896 6895 6894 ] final  -83.87 input  -60.11 | X-H torsion
[ 7974 7965 7964 7962 ] final  164.01 input  175.53 | X-H torsion
[ 8008 7997 7996 7995 ] final -122.46 input   59.86 | X-H torsion
[ 10167 10162 10161 10158 ] final  145.99 input  -65.29 | X-H torsion
[ 10718 10713 10712 10709 ] final  165.65 input   66.30 | X-H torsion
[ 10763 10752 10751 10750 ] final -106.95 input  -60.55 | X-H torsion
[ 11005 11000 10999 10996 ] final  119.96 input  -57.11 | X-H torsion

> <Gold.Protein.ActiveResidues>
 VAL166  LYS551  ARG553  GLY616  TRP617  ASP618  TYR619  PRO620  LYS621  CYS622 
 ASP623  PHE694  ASN695  SER759  ASP760  ASP761  ALA762  ILE779  LEU786  VAL792 
 PHE793  MET794  SER795  GLU796  ALA797  LYS798  CYS799  TRP800  GLU811  SER814 

> <Gold.Protein.RotatedAtoms>
  150.6881  134.3445  159.4882 H   0  0  0  0  0  0  0  0  0  0  0  0  # atno 6907 bound_to 6896
  152.1294  134.9143  160.0568 H   0  0  0  0  0  0  0  0  0  0  0  0  # atno 6908 bound_to 6896
  152.0319  133.3906  159.4337 H   0  0  0  0  0  0  0  0  0  0  0  0  # atno 6909 bound_to 6896
  144.7564  139.8265  143.6348 H   0  0  0  0  0  0  0  0  0  0  0  0  # atno 7974 bound_to 7965
  155.1646  140.0406  157.2850 H   0  0  0  0  0  0  0  0  0  0  0  0  # atno 8008 bound_to 7997
  154.6312  140.2524  155.7404 H   0  0  0  0  0  0  0  0  0  0  0  0  # atno 8009 bound_to 7997
  156.2485  140.2875  156.0665 H   0  0  0  0  0  0  0  0  0  0  0  0  # atno 8010 bound_to 7997
  139.4915  144.5862  151.6773 H   0  0  0  0  0  0  0  0  0  0  0  0  # atno 10167 bound_to 10162
  157.0771  131.0382  151.2589 H   0  0  0  0  0  0  0  0  0  0  0  0  # atno 10718 bound_to 10713
  154.8045  135.4693  154.0357 H   0  0  0  0  0  0  0  0  0  0  0  0  # atno 10763 bound_to 10752
  153.1837  135.6844  153.8451 H   0  0  0  0  0  0  0  0  0  0  0  0  # atno 10764 bound_to 10752
  153.7993  135.3232  155.3365 H   0  0  0  0  0  0  0  0  0  0  0  0  # atno 10765 bound_to 10752
  139.9166  134.9632  156.7734 H   0  0  0  0  0  0  0  0  0  0  0  0  # atno 11005 bound_to 11000
  146.1578  139.4682  143.0007 LP  0  0  0  0  0  0  0  0  0  0  0  0  # atno 17320 bound_to 7965
  145.6766  141.0202  143.1629 LP  0  0  0  0  0  0  0  0  0  0  0  0  # atno 17321 bound_to 7965
  140.5479  144.0473  150.6114 LP  0  0  0  0  0  0  0  0  0  0  0  0  # atno 17342 bound_to 10162
  140.3518  143.2959  152.0479 LP  0  0  0  0  0  0  0  0  0  0  0  0  # atno 17343 bound_to 10162
  157.4830  130.7777  149.7433 LP  0  0  0  0  0  0  0  0  0  0  0  0  # atno 17370 bound_to 10713
  155.9934  130.3924  150.2902 LP  0  0  0  0  0  0  0  0  0  0  0  0  # atno 17371 bound_to 10713
  140.6602  133.9652  155.7801 LP  0  0  0  0  0  0  0  0  0  0  0  0  # atno 17394 bound_to 11000
  141.0648  134.0292  157.3608 LP  0  0  0  0  0  0  0  0  0  0  0  0  # atno 17395 bound_to 11000

$$$$
