AV-unprocessed.smi:2196|AV-procd|sdf|8908|dock1
  -GOLD-   2272012123D 1   1.00000     0.00000
 Structure written by MMmdl.
 45 46  0  0  0  0  0  0  0  0  1 V2000
  150.8607  142.5324  157.5759 C   0  0  0  0  0  0  0  0  0  0  0  0
  150.8590  141.3820  158.5910 C   0  0  0  0  0  0  0  0  0  0  0  0
  152.1299  140.6628  158.6135 N   0  0  0  0  0  0  0  0  0  0  0  0
  153.3236  141.4580  158.9025 C   0  0  0  0  0  0  0  0  0  0  0  0
  153.2194  142.2829  160.1734 C   0  0  0  0  0  0  0  0  0  0  0  0
  153.9406  141.9005  161.3236 C   0  0  0  0  0  0  0  0  0  0  0  0
  153.8697  142.6796  162.4947 C   0  0  0  0  0  0  0  0  0  0  0  0
  153.0786  143.8444  162.5187 C   0  0  0  0  0  0  0  0  0  0  0  0
  152.3585  144.2300  161.3715 C   0  0  0  0  0  0  0  0  0  0  0  0
  152.4285  143.4508  160.2004 C   0  0  0  0  0  0  0  0  0  0  0  0
  152.2080  139.3115  158.2747 C   0  0  0  0  0  0  0  0  0  0  0  0
  151.1379  138.5730  157.8568 C   0  0  0  0  0  0  0  0  0  0  0  0
  149.8802  139.1515  157.7889 N   0  0  0  0  0  0  0  0  0  0  0  0
  151.2652  137.2320  157.4834 N   0  0  0  0  0  0  0  0  0  0  0  0
  150.1606  136.4224  157.0104 C   0  0  0  0  0  0  0  0  0  0  0  0
  149.1988  136.0260  158.1399 C   0  0  0  0  0  0  0  0  0  0  0  0
  149.8179  136.3014  159.3846 O   0  0  0  0  0  0  0  0  0  0  0  0
  148.8894  136.3419  160.4539 C   0  0  0  0  0  0  0  0  0  0  0  0
  152.5366  136.6113  157.4923 C   0  0  0  0  0  0  0  0  0  0  0  0
  152.7302  135.4496  157.1325 O   0  0  0  0  0  0  0  0  0  0  0  0
  153.6105  137.3770  157.9304 N   0  0  0  0  0  0  0  0  0  0  0  0
  153.5450  138.7067  158.3379 C   0  0  0  0  0  0  0  0  0  0  0  0
  154.5747  139.2764  158.6981 O   0  0  0  0  0  0  0  0  0  0  0  0
  154.5178  136.9348  157.9439 H   0  0  0  0  0  0  0  0  0  0  0  0
  149.8939  143.0358  157.5616 H   0  0  0  0  0  0  0  0  0  0  0  0
  151.0591  142.1659  156.5684 H   0  0  0  0  0  0  0  0  0  0  0  0
  151.6175  143.2793  157.8170 H   0  0  0  0  0  0  0  0  0  0  0  0
  150.6412  141.7618  159.5899 H   0  0  0  0  0  0  0  0  0  0  0  0
  150.0481  140.6944  158.3465 H   0  0  0  0  0  0  0  0  0  0  0  0
  154.1923  140.8020  158.9568 H   0  0  0  0  0  0  0  0  0  0  0  0
  153.5237  142.1454  158.0793 H   0  0  0  0  0  0  0  0  0  0  0  0
  154.5571  141.0135  161.3057 H   0  0  0  0  0  0  0  0  0  0  0  0
  154.4256  142.3859  163.3728 H   0  0  0  0  0  0  0  0  0  0  0  0
  153.0264  144.4432  163.4159 H   0  0  0  0  0  0  0  0  0  0  0  0
  151.7549  145.1253  161.3886 H   0  0  0  0  0  0  0  0  0  0  0  0
  151.8818  143.7577  159.3209 H   0  0  0  0  0  0  0  0  0  0  0  0
  149.7292  140.1171  158.0430 H   0  0  0  0  0  0  0  0  0  0  0  0
  149.0578  138.6153  157.5520 H   0  0  0  0  0  0  0  0  0  0  0  0
  149.6540  136.9659  156.2108 H   0  0  0  0  0  0  0  0  0  0  0  0
  150.5907  135.5459  156.5267 H   0  0  0  0  0  0  0  0  0  0  0  0
  148.2674  136.5884  158.0547 H   0  0  0  0  0  0  0  0  0  0  0  0
  148.9506  134.9655  158.0731 H   0  0  0  0  0  0  0  0  0  0  0  0
  149.4127  136.5555  161.3858 H   0  0  0  0  0  0  0  0  0  0  0  0
  148.3769  135.3858  160.5675 H   0  0  0  0  0  0  0  0  0  0  0  0
  148.1439  137.1230  160.2993 H   0  0  0  0  0  0  0  0  0  0  0  0
  1  2  1  0  0  0  0
  1 25  1  0  0  0  0
  1 26  1  0  0  0  0
  1 27  1  0  0  0  0
  2  3  1  0  0  0  0
  2 28  1  0  0  0  0
  2 29  1  0  0  0  0
  3  4  1  0  0  0  0
  3 11  1  0  0  0  0
  4  5  1  0  0  0  0
  4 30  1  0  0  0  0
  4 31  1  0  0  0  0
  5 10  1  0  0  0  0
  5  6  2  0  0  0  0
  6  7  1  0  0  0  0
  6 32  1  0  0  0  0
  7  8  2  0  0  0  0
  7 33  1  0  0  0  0
  8  9  1  0  0  0  0
  8 34  1  0  0  0  0
  9 10  2  0  0  0  0
  9 35  1  0  0  0  0
 10 36  1  0  0  0  0
 11 22  1  0  0  0  0
 11 12  2  0  0  0  0
 12 13  1  0  0  0  0
 12 14  1  0  0  0  0
 13 37  1  0  0  0  0
 13 38  1  0  0  0  0
 14 15  1  0  0  0  0
 14 19  1  0  0  0  0
 15 16  1  0  0  0  0
 15 39  1  0  0  0  0
 15 40  1  0  0  0  0
 16 17  1  0  0  0  0
 16 41  1  0  0  0  0
 16 42  1  0  0  0  0
 17 18  1  0  0  0  0
 18 43  1  0  0  0  0
 18 44  1  0  0  0  0
 18 45  1  0  0  0  0
 19 20  2  0  0  0  0
 19 21  1  0  0  0  0
 21 24  1  0  0  0  0
 21 22  1  0  0  0  0
 22 23  2  0  0  0  0
M  END
> <s_m_source_file>
AV-unprocessed.smi

> <i_m_source_file_index>
2196

> <i_lp_mmshare_version>
43012

> <i_f3d_flags>
0

> <s_epik_input>
W0NIM11PW0NIMl1bQ0gyXW4oYyg9TylbbkhdYzE9TyljKFtOSDJdKWMxTihbQ0gyXVtDSDNdKVtDSDJdYzJbY0hdW2NIXVtjSF1bY0hdW2NIXTI=

> <s_epik_cmdline>
J2VwaWtfcHl0aG9uJywgJy1waCcsICc3LjAnLCAnLXRuJywgJzgnLCAnLW1hJywgJzIwMCcsICctbWV0YWxfYmluZGluZycsICctaW1hZScsICc8aW5maWxlLm1hZT4nLCAnLW9tYWUnLCAnPG91dGZpbGUubWFlPic=

> <r_lp_tautomer_probability>
1

> <r_epik_Ionization_Penalty>
0.000571321

> <r_epik_Ionization_Penalty_Charging>
3.00664e-06

> <r_epik_Ionization_Penalty_Neutral>
0.000568314

> <r_epik_State_Penalty>
-0

> <r_epik_Charging_Adjusted_Penalty>
3.00664e-06

> <i_epik_Tot_Q>
0

> <i_epik_Tot_abs_Q>
0

> <r_epik_Metal_State_Penalty>
-0

> <b_epik_Metal_Only>
0

> <s_lp_Force_Field>
OPLS_2005

> <r_lp_Energy>
20.6449

> <b_lp_Chiralities_Consistent>
1

> <s_lp_Variant>
AV-unprocessed.smi:2196-1

> <Gold.Version>
5.8.1

> <Gold.Id.Protein>
6NUR|6NUR_protein|mol2

> <Gold.PLP.Fitness>
50.5692

> <Gold.PLP.PLP>
-43.0386

> <Gold.PLP.part.hbond>
-3.1375

> <Gold.PLP.part.metal>
0.0000

> <Gold.PLP.part.buried>
-4.7257

> <Gold.PLP.part.nonpolar>
-34.4475

> <Gold.PLP.part.repulsive>
0.2152

> <Gold.PLP.ligand.clash>
21.3695

> <Gold.PLP.ligand.torsion>
0.8118

> <Gold.PLP.Chemscore.Hbond>
3.0000

> <Gold.PLP.Chemscore.CHOScore>
0.0000

> <Gold.PLP.Chemscore.Metal>
0.0000

> <Gold.Chemscore.Hbonds>
donor molecule, donor type, donor heavy atom, donor atom, acceptor molecule, acceptor atom, score
      P1  H  6896  6909       L1    17  1.00
      P1  H  7997  8010       L1    23  1.00
      P1  H 10752 10765       L1    20  1.00

> <Gold.PLP.Chemscore.Internal.Correction>
21.5237

> <Gold.Rescore>
     Score         DG    S(hbond)    S(metal)    S(lipo)     H(rot)  DE(clash)    DE(int)     intcor
     15.05     -20.34       2.32        0.00     105.63       2.06       0.12       5.16       ----

> <Gold.Chemscore.Fitness>
15.0489

> <Gold.Chemscore.DG>
-20.3365

> <Gold.Chemscore.ZeroCoef>
-5.4800

> <Gold.Chemscore.Hbond>
2.3244

> <Gold.Chemscore.Metal>
0.0000

> <Gold.Chemscore.Lipo>
105.6329

> <Gold.Chemscore.Internal_Hbond>
0.0000

> <Gold.Chemscore.DEClash>
0.1229

> <Gold.Chemscore.DEInternal>
5.1647

> <Gold.Chemscore.Rot>
2.0571

> <Gold.Chemscore.Internal.Correction>
   9.000000E+99

> <Gold.Chemscore.Hbonds>
donor molecule, donor type, donor heavy atom, donor atom, acceptor molecule, acceptor atom, score
      P1  H  6896  6909       L1    17  0.41
      P1  H  7997  8010       L1    23  0.69
      P1  H 10752 10765       L1    20  0.81

> <Gold.Chemscore.Hbond.Weighted>
-7.7635

> <Gold.Chemscore.Metal.Weighted>
-0.0000

> <Gold.Chemscore.Lipo.Weighted>
-12.3591

> <Gold.Chemscore.Internal_Hbond.Weighted>
0.0000

> <Gold.Chemscore.DEClash.Weighted>
0.1229

> <Gold.Chemscore.DEInternal.Weighted>
5.1647

> <Gold.Chemscore.Rot.Weighted>
5.2661

> <Gold.Chemscore.Internal.Correction.Weighted>
   9.000000E+99

> <Gold.Protein.RotatedTorsions>
[ 6907 6896 6895 6894 ] final   82.14 input  -60.11 | X-H torsion
[ 7974 7965 7964 7962 ] final   60.52 input  175.53 | X-H torsion
[ 8008 7997 7996 7995 ] final  -12.42 input   59.86 | X-H torsion
[ 10167 10162 10161 10158 ] final   81.95 input  -65.29 | X-H torsion
[ 10718 10713 10712 10709 ] final  -30.61 input   66.30 | X-H torsion
[ 10763 10752 10751 10750 ] final -120.01 input  -60.55 | X-H torsion
[ 11005 11000 10999 10996 ] final   51.23 input  -57.11 | X-H torsion

> <Gold.Protein.ActiveResidues>
 VAL166  LYS551  ARG553  GLY616  TRP617  ASP618  TYR619  PRO620  LYS621  CYS622 
 ASP623  PHE694  ASN695  SER759  ASP760  ASP761  ALA762  ILE779  LEU786  VAL792 
 PHE793  MET794  SER795  GLU796  ALA797  LYS798  CYS799  TRP800  GLU811  SER814 

> <Gold.Protein.RotatedAtoms>
  152.5290  134.3095  159.9108 H   0  0  0  0  0  0  0  0  0  0  0  0  # atno 6907 bound_to 6896
  151.3045  133.4101  159.2650 H   0  0  0  0  0  0  0  0  0  0  0  0  # atno 6908 bound_to 6896
  151.0091  134.9399  159.8054 H   0  0  0  0  0  0  0  0  0  0  0  0  # atno 6909 bound_to 6896
  145.8951  139.3539  143.0626 H   0  0  0  0  0  0  0  0  0  0  0  0  # atno 7974 bound_to 7965
  154.5379  140.2276  155.8691 H   0  0  0  0  0  0  0  0  0  0  0  0  # atno 8008 bound_to 7997
  156.1830  140.3095  155.9147 H   0  0  0  0  0  0  0  0  0  0  0  0  # atno 8009 bound_to 7997
  155.3317  140.0445  157.3033 H   0  0  0  0  0  0  0  0  0  0  0  0  # atno 8010 bound_to 7997
  139.9339  144.6134  150.8317 H   0  0  0  0  0  0  0  0  0  0  0  0  # atno 10167 bound_to 10162
  156.3977  130.4384  149.7346 H   0  0  0  0  0  0  0  0  0  0  0  0  # atno 10718 bound_to 10713
  154.8633  135.4218  154.2391 H   0  0  0  0  0  0  0  0  0  0  0  0  # atno 10763 bound_to 10752
  153.3360  135.6991  153.6913 H   0  0  0  0  0  0  0  0  0  0  0  0  # atno 10764 bound_to 10752
  153.5910  135.3554  155.2884 H   0  0  0  0  0  0  0  0  0  0  0  0  # atno 10765 bound_to 10752
  140.0950  134.5157  155.8815 H   0  0  0  0  0  0  0  0  0  0  0  0  # atno 11005 bound_to 11000
  145.8860  140.9333  143.0576 LP  0  0  0  0  0  0  0  0  0  0  0  0  # atno 17320 bound_to 7965
  144.6732  140.0843  143.7468 LP  0  0  0  0  0  0  0  0  0  0  0  0  # atno 17321 bound_to 7965
  140.7630  143.3211  151.2620 LP  0  0  0  0  0  0  0  0  0  0  0  0  # atno 17342 bound_to 10162
  139.6759  143.9938  152.2781 LP  0  0  0  0  0  0  0  0  0  0  0  0  # atno 17343 bound_to 10162
  156.4375  130.7845  151.2866 LP  0  0  0  0  0  0  0  0  0  0  0  0  # atno 17370 bound_to 10713
  157.7502  131.0135  150.3427 LP  0  0  0  0  0  0  0  0  0  0  0  0  # atno 17371 bound_to 10713
  141.2089  133.6679  156.6405 LP  0  0  0  0  0  0  0  0  0  0  0  0  # atno 17394 bound_to 11000
  140.3298  134.7938  157.4318 LP  0  0  0  0  0  0  0  0  0  0  0  0  # atno 17395 bound_to 11000

$$$$
