AV-unprocessed.smi:1995|AV-procd|sdf|8079|dock9
  -GOLD-   2272010293D 1   1.00000     0.00000
 Structure written by MMmdl.
 43 44  0  0  0  0  0  0  0  0  2 V2000
  148.2068  141.2904  154.9275 C   0  0  0  0  0  0  0  0  0  0  0  0
  147.2592  140.0782  154.8787 C   0  0  0  0  0  0  0  0  0  0  0  0
  147.5037  139.0754  153.7094 C   0  0  2  0  0  0  0  0  0  0  0  0
  147.6608  139.9111  152.4117 C   0  0  0  0  0  0  0  0  0  0  0  0
  146.2722  138.1296  153.5520 C   0  0  0  0  0  0  0  0  0  0  0  0
  146.5177  136.9781  152.6837 N   0  0  0  0  0  0  0  0  0  0  0  0
  145.5874  136.1092  152.2609 C   0  0  0  0  0  0  0  0  0  0  0  0
  144.3921  136.2059  152.5402 O   0  0  0  0  0  0  0  0  0  0  0  0
  146.1330  135.1433  151.5017 N   0  0  0  0  0  0  0  0  0  0  0  0
  145.4832  134.0467  150.8769 C   0  0  0  0  0  0  0  0  0  0  0  0
  146.0895  133.1738  150.0639 N   0  0  0  0  0  0  0  0  0  0  0  0
  145.2085  132.1972  149.5923 C   0  0  0  0  0  0  0  0  0  0  0  0
  143.9260  132.3427  150.0600 C   0  0  0  0  0  0  0  0  0  0  0  0
  143.7731  133.7203  151.1178 S   0  0  0  0  0  0  0  0  0  0  0  0
  148.7556  138.2757  153.9738 N   0  3  0  0  0  0  0  0  0  0  0  0
  150.0250  139.0553  154.0350 C   0  0  0  0  0  0  0  0  0  0  0  0
  151.2348  138.1090  154.0893 C   0  0  0  0  0  0  0  0  0  0  0  0
  151.1209  137.2601  155.2227 O   0  0  0  0  0  0  0  0  0  0  0  0
  149.9599  136.4447  155.1539 C   0  0  0  0  0  0  0  0  0  0  0  0
  148.7004  137.3275  155.1227 C   0  0  0  0  0  0  0  0  0  0  0  0
  147.9566  141.9319  155.7727 H   0  0  0  0  0  0  0  0  0  0  0  0
  148.1326  141.9003  154.0275 H   0  0  0  0  0  0  0  0  0  0  0  0
  149.2479  140.9907  155.0473 H   0  0  0  0  0  0  0  0  0  0  0  0
  147.2968  139.5620  155.8377 H   0  0  0  0  0  0  0  0  0  0  0  0
  146.2420  140.4666  154.8209 H   0  0  0  0  0  0  0  0  0  0  0  0
  146.8751  140.6615  152.3174 H   0  0  0  0  0  0  0  0  0  0  0  0
  147.5995  139.2925  151.5161 H   0  0  0  0  0  0  0  0  0  0  0  0
  148.6138  140.4398  152.3821 H   0  0  0  0  0  0  0  0  0  0  0  0
  145.9793  137.7244  154.5200 H   0  0  0  0  0  0  0  0  0  0  0  0
  145.4024  138.6753  153.1864 H   0  0  0  0  0  0  0  0  0  0  0  0
  147.4737  136.8210  152.3994 H   0  0  0  0  0  0  0  0  0  0  0  0
  147.1306  135.1931  151.3576 H   0  0  0  0  0  0  0  0  0  0  0  0
  145.5805  131.4332  148.9258 H   0  0  0  0  0  0  0  0  0  0  0  0
  143.0659  131.7251  149.8472 H   0  0  0  0  0  0  0  0  0  0  0  0
  150.1409  139.7037  153.1688 H   0  0  0  0  0  0  0  0  0  0  0  0
  150.0376  139.6936  154.9184 H   0  0  0  0  0  0  0  0  0  0  0  0
  151.3097  137.5163  153.1759 H   0  0  0  0  0  0  0  0  0  0  0  0
  152.1571  138.6845  154.1726 H   0  0  0  0  0  0  0  0  0  0  0  0
  150.0048  135.8006  154.2743 H   0  0  0  0  0  0  0  0  0  0  0  0
  149.9373  135.7902  156.0257 H   0  0  0  0  0  0  0  0  0  0  0  0
  148.6166  137.8754  156.0616 H   0  0  0  0  0  0  0  0  0  0  0  0
  147.8392  136.6654  155.0578 H   0  0  0  0  0  0  0  0  0  0  0  0
  148.8488  137.6870  153.1585 H   0  0  0  0  0  0  0  0  0  0  0  0
  1  2  1  0  0  0  0
  1 21  1  0  0  0  0
  1 22  1  0  0  0  0
  1 23  1  0  0  0  0
  2  3  1  0  0  0  0
  2 24  1  0  0  0  0
  2 25  1  0  0  0  0
  3  4  1  0  0  0  0
  3  5  1  0  0  0  0
  3 15  1  0  0  0  0
  4 26  1  0  0  0  0
  4 27  1  0  0  0  0
  4 28  1  0  0  0  0
  5  6  1  0  0  0  0
  5 29  1  0  0  0  0
  5 30  1  0  0  0  0
  6  7  1  0  0  0  0
  6 31  1  0  0  0  0
  7  8  2  0  0  0  0
  7  9  1  0  0  0  0
  9 10  1  0  0  0  0
  9 32  1  0  0  0  0
 10 14  1  0  0  0  0
 10 11  2  0  0  0  0
 11 12  1  0  0  0  0
 12 13  2  0  0  0  0
 12 33  1  0  0  0  0
 13 14  1  0  0  0  0
 13 34  1  0  0  0  0
 15 20  1  0  0  0  0
 15 16  1  0  0  0  0
 15 43  1  0  0  0  0
 16 17  1  0  0  0  0
 16 35  1  0  0  0  0
 16 36  1  0  0  0  0
 17 18  1  0  0  0  0
 17 37  1  0  0  0  0
 17 38  1  0  0  0  0
 18 19  1  0  0  0  0
 19 20  1  0  0  0  0
 19 39  1  0  0  0  0
 19 40  1  0  0  0  0
 20 41  1  0  0  0  0
 20 42  1  0  0  0  0
M  CHG  1  15   1
M  END
> <s_m_source_file>
AV-unprocessed.smi

> <i_m_source_file_index>
1995

> <i_lp_mmshare_version>
43012

> <i_f3d_flags>
0

> <s_epik_input>
W0NIMl0xW0NIMl1PW0NIMl1bQ0gyXU4xW0NAQF0oW0NIM10pKFtDSDJdW0NIM10pW0NIMl1bTkhdQyg9TylbTkhdYzJuW2NIXVtjSF1zMg==

> <s_epik_cmdline>
J2VwaWtfcHl0aG9uJywgJy1waCcsICc3LjAnLCAnLXRuJywgJzgnLCAnLW1hJywgJzIwMCcsICctbWV0YWxfYmluZGluZycsICctaW1hZScsICc8aW5maWxlLm1hZT4nLCAnLW9tYWUnLCAnPG91dGZpbGUubWFlPic=

> <r_lp_tautomer_probability>
0.999

> <r_epik_Ionization_Penalty>
0.55406

> <r_epik_Ionization_Penalty_Charging>
0.553838

> <r_epik_Ionization_Penalty_Neutral>
0.000222147

> <r_epik_State_Penalty>
0.564424

> <r_epik_Charging_Adjusted_Penalty>
1.11826

> <i_epik_Tot_Q>
1

> <i_epik_Tot_abs_Q>
1

> <r_epik_Metal_State_Penalty>
0.573776

> <b_epik_Metal_Only>
0

> <s_lp_Force_Field>
OPLS_2005

> <r_lp_Energy>
26.593

> <b_lp_Chiralities_Consistent>
1

> <s_lp_Variant>
AV-unprocessed.smi:1995-4

> <Gold.Version>
5.8.1

> <Gold.Id.Protein>
6NUR|6NUR_protein|mol2

> <Gold.PLP.Fitness>
41.6081

> <Gold.PLP.PLP>
-28.7091

> <Gold.PLP.part.hbond>
-3.0000

> <Gold.PLP.part.metal>
0.0000

> <Gold.PLP.part.buried>
-1.0729

> <Gold.PLP.part.nonpolar>
-25.7741

> <Gold.PLP.part.repulsive>
0.8157

> <Gold.PLP.ligand.clash>
0.0000

> <Gold.PLP.ligand.torsion>
0.3665

> <Gold.PLP.Chemscore.Hbond>
3.8424

> <Gold.PLP.Chemscore.CHOScore>
0.6574

> <Gold.PLP.Chemscore.Metal>
0.0000

> <Gold.Chemscore.Hbonds>
donor molecule, donor type, donor heavy atom, donor atom, acceptor molecule, acceptor atom, score
      L1  H     6    31       P1  7948  1.00
      L1  H     9    32       P1  7948  0.77
      L1  H    15    43       P1  7948  2.00
      L1  C    13    34       P1 10952  0.70

> <Gold.PLP.Chemscore.Internal.Correction>
0.1326

> <Gold.Rescore>
     Score         DG    S(hbond)    S(metal)    S(lipo)     H(rot)  DE(clash)    DE(int)     intcor
     14.98     -19.40       2.60        0.00      84.01       1.79       2.72       1.70       ----

> <Gold.Chemscore.Fitness>
14.9756

> <Gold.Chemscore.DG>
-19.3987

> <Gold.Chemscore.ZeroCoef>
-5.4800

> <Gold.Chemscore.Hbond>
2.5995

> <Gold.Chemscore.Metal>
0.0000

> <Gold.Chemscore.Lipo>
84.0116

> <Gold.Chemscore.Internal_Hbond>
0.0000

> <Gold.Chemscore.DEClash>
2.7237

> <Gold.Chemscore.DEInternal>
1.6994

> <Gold.Chemscore.Rot>
1.7942

> <Gold.Chemscore.Internal.Correction>
   9.000000E+99

> <Gold.Chemscore.Hbonds>
donor molecule, donor type, donor heavy atom, donor atom, acceptor molecule, acceptor atom, score
      L1  H     6    31       P1  7948  1.00
      L1  H     9    32       P1  7948  0.62
      L1  H    15    43       P1  7948  0.99

> <Gold.Chemscore.Hbond.Weighted>
-8.6824

> <Gold.Chemscore.Metal.Weighted>
-0.0000

> <Gold.Chemscore.Lipo.Weighted>
-9.8294

> <Gold.Chemscore.Internal_Hbond.Weighted>
0.0000

> <Gold.Chemscore.DEClash.Weighted>
2.7237

> <Gold.Chemscore.DEInternal.Weighted>
1.6994

> <Gold.Chemscore.Rot.Weighted>
4.5931

> <Gold.Chemscore.Internal.Correction.Weighted>
   9.000000E+99

> <Gold.Protein.RotatedTorsions>
[ 6907 6896 6895 6894 ] final  -54.74 input  -60.11 | X-H torsion
[ 7974 7965 7964 7962 ] final -145.13 input  175.53 | X-H torsion
[ 8008 7997 7996 7995 ] final  -17.25 input   59.86 | X-H torsion
[ 10167 10162 10161 10158 ] final  -55.80 input  -65.29 | X-H torsion
[ 10718 10713 10712 10709 ] final  -98.75 input   66.30 | X-H torsion
[ 10763 10752 10751 10750 ] final  -39.57 input  -60.55 | X-H torsion
[ 11005 11000 10999 10996 ] final   -6.53 input  -57.11 | X-H torsion

> <Gold.Protein.ActiveResidues>
 VAL166  LYS551  ARG553  GLY616  TRP617  ASP618  TYR619  PRO620  LYS621  CYS622 
 ASP623  PHE694  ASN695  SER759  ASP760  ASP761  ALA762  ILE779  LEU786  VAL792 
 PHE793  MET794  SER795  GLU796  ALA797  LYS798  CYS799  TRP800  GLU811  SER814 

> <Gold.Protein.RotatedAtoms>
  150.8311  134.7565  159.6854 H   0  0  0  0  0  0  0  0  0  0  0  0  # atno 6907 bound_to 6896
  152.4415  134.5577  159.9895 H   0  0  0  0  0  0  0  0  0  0  0  0  # atno 6908 bound_to 6896
  151.5738  133.3349  159.3030 H   0  0  0  0  0  0  0  0  0  0  0  0  # atno 6909 bound_to 6896
  144.8248  140.5622  143.5554 H   0  0  0  0  0  0  0  0  0  0  0  0  # atno 7974 bound_to 7965
  154.4992  140.2148  155.9382 H   0  0  0  0  0  0  0  0  0  0  0  0  # atno 8008 bound_to 7997
  156.1412  140.3179  155.8465 H   0  0  0  0  0  0  0  0  0  0  0  0  # atno 8009 bound_to 7997
  155.4117  140.0491  157.3022 H   0  0  0  0  0  0  0  0  0  0  0  0  # atno 8010 bound_to 7997
  140.6354  143.2479  151.5132 H   0  0  0  0  0  0  0  0  0  0  0  0  # atno 10167 bound_to 10162
  156.0115  130.5252  150.6569 H   0  0  0  0  0  0  0  0  0  0  0  0  # atno 10718 bound_to 10713
  153.9315  135.6771  153.4745 H   0  0  0  0  0  0  0  0  0  0  0  0  # atno 10763 bound_to 10752
  153.0977  135.4843  154.8806 H   0  0  0  0  0  0  0  0  0  0  0  0  # atno 10764 bound_to 10752
  154.7425  135.3164  154.8660 H   0  0  0  0  0  0  0  0  0  0  0  0  # atno 10765 bound_to 10752
  140.7030  133.8973  155.8696 H   0  0  0  0  0  0  0  0  0  0  0  0  # atno 11005 bound_to 11000
  145.5024  139.1483  143.3650 LP  0  0  0  0  0  0  0  0  0  0  0  0  # atno 17320 bound_to 7965
  146.2554  140.5164  142.8876 LP  0  0  0  0  0  0  0  0  0  0  0  0  # atno 17321 bound_to 7965
  139.5564  144.2264  152.1620 LP  0  0  0  0  0  0  0  0  0  0  0  0  # atno 17342 bound_to 10162
  140.1519  144.5107  150.6682 LP  0  0  0  0  0  0  0  0  0  0  0  0  # atno 17343 bound_to 10162
  157.4319  131.0850  151.1030 LP  0  0  0  0  0  0  0  0  0  0  0  0  # atno 17370 bound_to 10713
  157.1600  130.6221  149.5608 LP  0  0  0  0  0  0  0  0  0  0  0  0  # atno 17371 bound_to 10713
  141.0148  134.0971  157.4184 LP  0  0  0  0  0  0  0  0  0  0  0  0  # atno 17394 bound_to 11000
  139.8892  135.0103  156.6663 LP  0  0  0  0  0  0  0  0  0  0  0  0  # atno 17395 bound_to 11000

$$$$
