AV-unprocessed.smi:703|AV-procd|sdf|3431|dock2
  -GOLD-   22720 0413D 1   1.00000     0.00000
 Structure written by MMmdl.
 38 39  0  0  0  0  0  0  0  0  2 V2000
  146.8455  138.7628  152.4892 C   0  0  0  0  0  0  0  0  0  0  0  0
  147.8255  139.0968  153.6220 C   0  0  0  0  0  0  0  0  0  0  0  0
  148.7248  137.9623  153.9385 N   0  3  2  0  0  0  0  0  0  0  0  0
  148.2872  137.1100  155.0640 C   0  0  0  0  0  0  0  0  0  0  0  0
  149.5563  136.4451  155.6031 C   0  0  1  0  0  0  0  0  0  0  0  0
  149.8802  135.1409  154.8557 C   0  0  0  0  0  0  0  0  0  0  0  0
  150.6292  137.5211  155.3875 C   0  0  2  0  0  0  0  0  0  0  0  0
  150.7465  138.3549  156.5881 N   0  0  0  0  0  0  0  0  0  0  0  0
  151.9672  139.5743  156.6181 S   0  0  0  0  0  0  0  0  0  0  0  0
  152.9328  139.2018  157.6629 O   0  0  0  0  0  0  0  0  0  0  0  0
  152.4257  139.7850  155.2363 O   0  0  0  0  0  0  0  0  0  0  0  0
  151.0335  141.0661  157.1613 C   0  0  0  0  0  0  0  0  0  0  0  0
  151.6457  141.6077  158.4214 C   0  0  0  0  0  0  0  0  0  0  0  0
  152.0927  142.9310  158.6890 C   0  0  0  0  0  0  0  0  0  0  0  0
  152.5502  142.8591  159.9731 C   0  0  0  0  0  0  0  0  0  0  0  0
  152.4046  141.6008  160.4594 O   0  0  0  0  0  0  0  0  0  0  0  0
  151.8274  140.8085  159.4606 N   0  0  0  0  0  0  0  0  0  0  0  0
  150.1307  138.3529  154.1909 C   0  0  0  0  0  0  0  0  0  0  0  0
  146.2371  139.6319  152.2383 H   0  0  0  0  0  0  0  0  0  0  0  0
  146.1651  137.9582  152.7687 H   0  0  0  0  0  0  0  0  0  0  0  0
  147.3749  138.4582  151.5860 H   0  0  0  0  0  0  0  0  0  0  0  0
  148.4342  139.9488  153.3164 H   0  0  0  0  0  0  0  0  0  0  0  0
  147.2826  139.4040  154.5172 H   0  0  0  0  0  0  0  0  0  0  0  0
  147.8518  137.7361  155.8447 H   0  0  0  0  0  0  0  0  0  0  0  0
  147.5281  136.3899  154.7563 H   0  0  0  0  0  0  0  0  0  0  0  0
  149.4386  136.2020  156.6606 H   0  0  0  0  0  0  0  0  0  0  0  0
  150.0079  135.3107  153.7862 H   0  0  0  0  0  0  0  0  0  0  0  0
  149.0831  134.4080  154.9838 H   0  0  0  0  0  0  0  0  0  0  0  0
  150.8003  134.6933  155.2327 H   0  0  0  0  0  0  0  0  0  0  0  0
  151.6025  137.0717  155.1837 H   0  0  0  0  0  0  0  0  0  0  0  0
  150.7920  137.7786  157.4285 H   0  0  0  0  0  0  0  0  0  0  0  0
  151.0611  141.8012  156.3566 H   0  0  0  0  0  0  0  0  0  0  0  0
  149.9930  140.7852  157.3219 H   0  0  0  0  0  0  0  0  0  0  0  0
  152.0755  143.7964  158.0432 H   0  0  0  0  0  0  0  0  0  0  0  0
  152.9868  143.5814  160.6469 H   0  0  0  0  0  0  0  0  0  0  0  0
  150.7161  138.1349  153.2973 H   0  0  0  0  0  0  0  0  0  0  0  0
  150.2204  139.4243  154.3791 H   0  0  0  0  0  0  0  0  0  0  0  0
  148.7509  137.3650  153.1245 H   0  0  0  0  0  0  0  0  0  0  0  0
  1  2  1  0  0  0  0
  1 19  1  0  0  0  0
  1 20  1  0  0  0  0
  1 21  1  0  0  0  0
  2  3  1  0  0  0  0
  2 22  1  0  0  0  0
  2 23  1  0  0  0  0
  3 18  1  0  0  0  0
  3  4  1  0  0  0  0
  3 38  1  0  0  0  0
  4  5  1  0  0  0  0
  4 24  1  0  0  0  0
  4 25  1  0  0  0  0
  5  6  1  0  0  0  0
  5  7  1  0  0  0  0
  5 26  1  0  0  0  0
  6 27  1  0  0  0  0
  6 28  1  0  0  0  0
  6 29  1  0  0  0  0
  7  8  1  0  0  0  0
  7 18  1  0  0  0  0
  7 30  1  0  0  0  0
  8  9  1  0  0  0  0
  8 31  1  0  0  0  0
  9 10  2  0  0  0  0
  9 11  2  0  0  0  0
  9 12  1  0  0  0  0
 12 13  1  0  0  0  0
 12 32  1  0  0  0  0
 12 33  1  0  0  0  0
 13 17  2  0  0  0  0
 13 14  1  0  0  0  0
 14 15  2  0  0  0  0
 14 34  1  0  0  0  0
 15 16  1  0  0  0  0
 15 35  1  0  0  0  0
 16 17  1  0  0  0  0
 18 36  1  0  0  0  0
 18 37  1  0  0  0  0
M  CHG  1   3   1
M  END
> <s_m_source_file>
AV-unprocessed.smi

> <i_m_source_file_index>
703

> <i_lp_mmshare_version>
43012

> <i_f3d_flags>
0

> <s_epik_input>
W0NIM11bQ0gyXU4xW0NIMl1bQ0BASF0oW0NIM10pW0NASF0oW0NIMl0xKVtOSF1TKD1PKSg9TylbQ0gyXWMyW2NIXVtjSF1vbjI=

> <s_epik_cmdline>
J2VwaWtfcHl0aG9uJywgJy1waCcsICc3LjAnLCAnLXRuJywgJzgnLCAnLW1hJywgJzIwMCcsICctbWV0YWxfYmluZGluZycsICctaW1hZScsICc8aW5maWxlLm1hZT4nLCAnLW9tYWUnLCAnPG91dGZpbGUubWFlPic=

> <r_epik_Ionization_Penalty>
0.00324529

> <r_epik_Ionization_Penalty_Charging>
0.0019384

> <r_epik_Ionization_Penalty_Neutral>
0.00130689

> <r_epik_State_Penalty>
0.00218682

> <r_epik_Charging_Adjusted_Penalty>
0.00412522

> <i_epik_Tot_Q>
1

> <i_epik_Tot_abs_Q>
1

> <r_epik_Metal_State_Penalty>
0.310831

> <b_epik_Metal_Only>
0

> <s_lp_Force_Field>
OPLS_2005

> <r_lp_Energy>
19.6136

> <b_lp_Chiralities_Consistent>
1

> <s_lp_Variant>
AV-unprocessed.smi:703-6

> <Gold.Version>
5.8.1

> <Gold.Id.Protein>
6NUR|6NUR_protein|mol2

> <Gold.PLP.Fitness>
40.0484

> <Gold.PLP.PLP>
-30.6833

> <Gold.PLP.part.hbond>
-3.6216

> <Gold.PLP.part.metal>
0.0000

> <Gold.PLP.part.buried>
-3.4233

> <Gold.PLP.part.nonpolar>
-23.8589

> <Gold.PLP.part.repulsive>
0.0295

> <Gold.PLP.ligand.clash>
0.0000

> <Gold.PLP.ligand.torsion>
0.8114

> <Gold.PLP.Chemscore.Hbond>
3.6080

> <Gold.PLP.Chemscore.CHOScore>
0.0000

> <Gold.PLP.Chemscore.Metal>
0.0000

> <Gold.Chemscore.Hbonds>
donor molecule, donor type, donor heavy atom, donor atom, acceptor molecule, acceptor atom, score
      L1  H     3    38       P1  7948  2.00
      P1  H  7989  7998       L1    11  0.43
      P1  H  7997  8010       L1    10  0.70

> <Gold.PLP.Chemscore.Internal.Correction>
0.1639

> <Gold.Rescore>
     Score         DG    S(hbond)    S(metal)    S(lipo)     H(rot)  DE(clash)    DE(int)     intcor
     14.87     -18.48       2.85        0.00      72.26       1.94       0.02       3.60       ----

> <Gold.Chemscore.Fitness>
14.8687

> <Gold.Chemscore.DG>
-18.4830

> <Gold.Chemscore.ZeroCoef>
-5.4800

> <Gold.Chemscore.Hbond>
2.8487

> <Gold.Chemscore.Metal>
0.0000

> <Gold.Chemscore.Lipo>
72.2628

> <Gold.Chemscore.Internal_Hbond>
0.0000

> <Gold.Chemscore.DEClash>
0.0174

> <Gold.Chemscore.DEInternal>
3.5969

> <Gold.Chemscore.Rot>
1.9400

> <Gold.Chemscore.Internal.Correction>
   9.000000E+99

> <Gold.Chemscore.Hbonds>
donor molecule, donor type, donor heavy atom, donor atom, acceptor molecule, acceptor atom, score
      L1  H     3    38       P1  7948  1.00
      P1  H  7989  7998       L1    11  0.44
      P1  H  7997  8010       L1    10  0.07

> <Gold.Chemscore.Hbond.Weighted>
-9.5148

> <Gold.Chemscore.Metal.Weighted>
-0.0000

> <Gold.Chemscore.Lipo.Weighted>
-8.4548

> <Gold.Chemscore.Internal_Hbond.Weighted>
0.0000

> <Gold.Chemscore.DEClash.Weighted>
0.0174

> <Gold.Chemscore.DEInternal.Weighted>
3.5969

> <Gold.Chemscore.Rot.Weighted>
4.9665

> <Gold.Chemscore.Internal.Correction.Weighted>
   9.000000E+99

> <Gold.Protein.RotatedTorsions>
[ 6907 6896 6895 6894 ] final   50.67 input  -60.11 | X-H torsion
[ 7974 7965 7964 7962 ] final  -43.99 input  175.53 | X-H torsion
[ 8008 7997 7996 7995 ] final   51.29 input   59.86 | X-H torsion
[ 10167 10162 10161 10158 ] final -106.87 input  -65.29 | X-H torsion
[ 10718 10713 10712 10709 ] final  145.14 input   66.30 | X-H torsion
[ 10763 10752 10751 10750 ] final   63.26 input  -60.55 | X-H torsion
[ 11005 11000 10999 10996 ] final   93.78 input  -57.11 | X-H torsion

> <Gold.Protein.ActiveResidues>
 VAL166  LYS551  ARG553  GLY616  TRP617  ASP618  TYR619  PRO620  LYS621  CYS622 
 ASP623  PHE694  ASN695  SER759  ASP760  ASP761  ALA762  ILE779  LEU786  VAL792 
 PHE793  MET794  SER795  GLU796  ALA797  LYS798  CYS799  TRP800  GLU811  SER814 

> <Gold.Protein.RotatedAtoms>
  152.3043  134.7574  160.0350 H   0  0  0  0  0  0  0  0  0  0  0  0  # atno 6907 bound_to 6896
  151.8076  133.3372  159.3554 H   0  0  0  0  0  0  0  0  0  0  0  0  # atno 6908 bound_to 6896
  150.7289  134.5624  159.5893 H   0  0  0  0  0  0  0  0  0  0  0  0  # atno 6909 bound_to 6896
  145.9964  140.7123  142.9291 H   0  0  0  0  0  0  0  0  0  0  0  0  # atno 7974 bound_to 7965
  155.4329  140.3451  155.4282 H   0  0  0  0  0  0  0  0  0  0  0  0  # atno 8008 bound_to 7997
  156.1326  140.1518  156.9074 H   0  0  0  0  0  0  0  0  0  0  0  0  # atno 8009 bound_to 7997
  154.4906  140.0842  156.7566 H   0  0  0  0  0  0  0  0  0  0  0  0  # atno 8010 bound_to 7997
  140.1830  143.3951  152.1266 H   0  0  0  0  0  0  0  0  0  0  0  0  # atno 10167 bound_to 10162
  157.3488  131.0947  151.1018 H   0  0  0  0  0  0  0  0  0  0  0  0  # atno 10718 bound_to 10713
  153.0011  135.5435  154.6324 H   0  0  0  0  0  0  0  0  0  0  0  0  # atno 10763 bound_to 10752
  154.5598  135.2833  155.0932 H   0  0  0  0  0  0  0  0  0  0  0  0  # atno 10764 bound_to 10752
  154.2139  135.6462  153.5176 H   0  0  0  0  0  0  0  0  0  0  0  0  # atno 10765 bound_to 10752
  139.8806  134.8809  156.3768 H   0  0  0  0  0  0  0  0  0  0  0  0  # atno 11005 bound_to 11000
  144.6905  140.3158  143.7240 LP  0  0  0  0  0  0  0  0  0  0  0  0  # atno 17320 bound_to 7965
  145.7553  139.1807  143.2298 LP  0  0  0  0  0  0  0  0  0  0  0  0  # atno 17321 bound_to 7965
  139.5288  144.7134  151.5132 LP  0  0  0  0  0  0  0  0  0  0  0  0  # atno 17342 bound_to 10162
  140.6507  143.8703  150.6782 LP  0  0  0  0  0  0  0  0  0  0  0  0  # atno 17343 bound_to 10162
  157.2202  130.6478  149.5808 LP  0  0  0  0  0  0  0  0  0  0  0  0  # atno 17370 bound_to 10713
  155.9718  130.4631  150.6171 LP  0  0  0  0  0  0  0  0  0  0  0  0  # atno 17371 bound_to 10713
  140.9426  133.7504  156.0166 LP  0  0  0  0  0  0  0  0  0  0  0  0  # atno 17394 bound_to 11000
  140.8201  134.3299  157.5384 LP  0  0  0  0  0  0  0  0  0  0  0  0  # atno 17395 bound_to 11000

$$$$
