AV-unprocessed.smi:3071|AV-procd|sdf|11713|dock3
  -GOLD-   2272017113D 1   1.00000     0.00000
 Structure written by MMmdl.
 28 29  0  0  0  0  0  0  0  0  2 V2000
  152.1954  139.2583  156.1378 C   0  0  0  0  0  0  0  0  0  0  0  0
  151.0902  140.1170  155.6126 C   0  0  0  0  0  0  0  0  0  0  0  0
  150.5840  140.0029  154.3892 N   0  0  0  0  0  0  0  0  0  0  0  0
  149.6039  140.9868  154.3165 C   0  0  0  0  0  0  0  0  0  0  0  0
  149.5529  141.6669  155.5091 C   0  0  0  0  0  0  0  0  0  0  0  0
  150.5098  141.0934  156.3375 N   0  0  0  0  0  0  0  0  0  0  0  0
  150.8023  141.4931  157.7046 C   0  0  0  0  0  0  0  0  0  0  0  0
  151.2326  142.9683  157.8077 C   0  0  2  0  0  0  0  0  0  0  0  0
  152.2281  143.2782  158.9307 C   0  0  0  0  0  0  0  0  0  0  0  0
  152.0058  144.7651  159.1793 C   0  0  0  0  0  0  0  0  0  0  0  0
  150.5006  144.9390  158.9642 C   0  0  0  0  0  0  0  0  0  0  0  0
  150.0814  143.8620  158.0441 N   0  3  0  0  0  0  0  0  0  0  0  0
  152.4540  138.4857  155.4129 H   0  0  0  0  0  0  0  0  0  0  0  0
  151.8933  138.7714  157.0643 H   0  0  0  0  0  0  0  0  0  0  0  0
  153.0826  139.8628  156.3277 H   0  0  0  0  0  0  0  0  0  0  0  0
  149.0187  141.1293  153.4200 H   0  0  0  0  0  0  0  0  0  0  0  0
  148.9283  142.4877  155.8294 H   0  0  0  0  0  0  0  0  0  0  0  0
  149.9246  141.3055  158.3243 H   0  0  0  0  0  0  0  0  0  0  0  0
  151.5919  140.8444  158.0868 H   0  0  0  0  0  0  0  0  0  0  0  0
  151.6812  143.2834  156.8645 H   0  0  0  0  0  0  0  0  0  0  0  0
  151.9779  142.7129  159.8298 H   0  0  0  0  0  0  0  0  0  0  0  0
  153.2586  143.0441  158.6610 H   0  0  0  0  0  0  0  0  0  0  0  0
  152.3322  145.0836  160.1698 H   0  0  0  0  0  0  0  0  0  0  0  0
  152.5569  145.3482  158.4399 H   0  0  0  0  0  0  0  0  0  0  0  0
  149.9658  144.8127  159.9062 H   0  0  0  0  0  0  0  0  0  0  0  0
  150.2521  145.9227  158.5649 H   0  0  0  0  0  0  0  0  0  0  0  0
  149.7598  144.2468  157.1673 H   0  0  0  0  0  0  0  0  0  0  0  0
  149.3340  143.3402  158.4793 H   0  0  0  0  0  0  0  0  0  0  0  0
  1  2  1  0  0  0  0
  1 13  1  0  0  0  0
  1 14  1  0  0  0  0
  1 15  1  0  0  0  0
  2  6  1  0  0  0  0
  2  3  2  0  0  0  0
  3  4  1  0  0  0  0
  4  5  2  0  0  0  0
  4 16  1  0  0  0  0
  5  6  1  0  0  0  0
  5 17  1  0  0  0  0
  6  7  1  0  0  0  0
  7  8  1  0  0  0  0
  7 18  1  0  0  0  0
  7 19  1  0  0  0  0
  8 12  1  0  0  0  0
  8  9  1  0  0  0  0
  8 20  1  0  0  0  0
  9 10  1  0  0  0  0
  9 21  1  0  0  0  0
  9 22  1  0  0  0  0
 10 11  1  0  0  0  0
 10 23  1  0  0  0  0
 10 24  1  0  0  0  0
 11 12  1  0  0  0  0
 11 25  1  0  0  0  0
 11 26  1  0  0  0  0
 12 27  1  0  0  0  0
 12 28  1  0  0  0  0
M  CHG  1  12   1
M  END
> <s_m_source_file>
AV-unprocessed.smi

> <i_m_source_file_index>
3071

> <i_lp_mmshare_version>
43012

> <i_f3d_flags>
0

> <s_epik_input>
W0NIM11jMW5bY0hdW2NIXW4xW0NIMl1bQ0BASF0yW0NIMl1bQ0gyXVtDSDJdW05IXTI=

> <s_epik_cmdline>
J2VwaWtfcHl0aG9uJywgJy1waCcsICc3LjAnLCAnLXRuJywgJzgnLCAnLW1hJywgJzIwMCcsICctbWV0YWxfYmluZGluZycsICctaW1hZScsICc8aW5maWxlLm1hZT4nLCAnLW9tYWUnLCAnPG91dGZpbGUubWFlPic=

> <r_lp_tautomer_probability>
1

> <r_epik_Ionization_Penalty>
0.189495

> <r_epik_Ionization_Penalty_Charging>
0.189495

> <r_epik_Ionization_Penalty_Neutral>
1.84445e-13

> <r_epik_State_Penalty>
0.339469

> <r_epik_Charging_Adjusted_Penalty>
0.528964

> <i_epik_Tot_Q>
1

> <i_epik_Tot_abs_Q>
1

> <r_epik_Metal_State_Penalty>
0.000456861

> <b_epik_Metal_Only>
0

> <s_lp_Force_Field>
OPLS_2005

> <r_lp_Energy>
26.6812

> <b_lp_Chiralities_Consistent>
1

> <s_lp_Variant>
AV-unprocessed.smi:3071-1

> <Gold.Version>
5.8.1

> <Gold.Id.Protein>
6NUR|6NUR_protein|mol2

> <Gold.PLP.Fitness>
42.5237

> <Gold.PLP.PLP>
-30.2578

> <Gold.PLP.part.hbond>
-2.5129

> <Gold.PLP.part.metal>
0.0000

> <Gold.PLP.part.buried>
-0.3409

> <Gold.PLP.part.nonpolar>
-27.9619

> <Gold.PLP.part.repulsive>
0.1496

> <Gold.PLP.ligand.clash>
0.0000

> <Gold.PLP.ligand.torsion>
0.4017

> <Gold.PLP.Chemscore.Hbond>
3.0000

> <Gold.PLP.Chemscore.CHOScore>
1.3562

> <Gold.PLP.Chemscore.Metal>
0.0000

> <Gold.Chemscore.Hbonds>
donor molecule, donor type, donor heavy atom, donor atom, acceptor molecule, acceptor atom, score
      L1  H    12    27       P1  8028  2.00
      P1  H  7989  7998       L1     3  0.65
      L1  C     4    16       P1  7957  0.79
      L1  C     5    17       P1  8028  1.00

> <Gold.PLP.Chemscore.Internal.Correction>
0.0005

> <Gold.Rescore>
     Score         DG    S(hbond)    S(metal)    S(lipo)     H(rot)  DE(clash)    DE(int)     intcor
     13.94     -14.18       0.94        0.00      74.20       1.22       0.03       0.22       ----

> <Gold.Chemscore.Fitness>
13.9369

> <Gold.Chemscore.DG>
-14.1793

> <Gold.Chemscore.ZeroCoef>
-5.4800

> <Gold.Chemscore.Hbond>
0.9399

> <Gold.Chemscore.Metal>
0.0000

> <Gold.Chemscore.Lipo>
74.2044

> <Gold.Chemscore.Internal_Hbond>
0.0000

> <Gold.Chemscore.DEClash>
0.0270

> <Gold.Chemscore.DEInternal>
0.2154

> <Gold.Chemscore.Rot>
1.2194

> <Gold.Chemscore.Internal.Correction>
   9.000000E+99

> <Gold.Chemscore.Hbonds>
donor molecule, donor type, donor heavy atom, donor atom, acceptor molecule, acceptor atom, score
      L1  H    12    27       P1  8028  0.50
      P1  H  7989  7998       L1     3  0.02

> <Gold.Chemscore.Hbond.Weighted>
-3.1392

> <Gold.Chemscore.Metal.Weighted>
-0.0000

> <Gold.Chemscore.Lipo.Weighted>
-8.6819

> <Gold.Chemscore.Internal_Hbond.Weighted>
0.0000

> <Gold.Chemscore.DEClash.Weighted>
0.0270

> <Gold.Chemscore.DEInternal.Weighted>
0.2154

> <Gold.Chemscore.Rot.Weighted>
3.1218

> <Gold.Chemscore.Internal.Correction.Weighted>
   9.000000E+99

> <Gold.Protein.RotatedTorsions>
[ 6907 6896 6895 6894 ] final  -17.04 input  -60.11 | X-H torsion
[ 7974 7965 7964 7962 ] final  120.18 input  175.53 | X-H torsion
[ 8008 7997 7996 7995 ] final -144.60 input   59.86 | X-H torsion
[ 10167 10162 10161 10158 ] final -177.82 input  -65.29 | X-H torsion
[ 10718 10713 10712 10709 ] final  176.76 input   66.30 | X-H torsion
[ 10763 10752 10751 10750 ] final   54.54 input  -60.55 | X-H torsion
[ 11005 11000 10999 10996 ] final  -12.35 input  -57.11 | X-H torsion

> <Gold.Protein.ActiveResidues>
 VAL166  LYS551  ARG553  GLY616  TRP617  ASP618  TYR619  PRO620  LYS621  CYS622 
 ASP623  PHE694  ASN695  SER759  ASP760  ASP761  ALA762  ILE779  LEU786  VAL792 
 PHE793  MET794  SER795  GLU796  ALA797  LYS798  CYS799  TRP800  GLU811  SER814 

> <Gold.Protein.RotatedAtoms>
  151.2994  135.0764  159.9232 H   0  0  0  0  0  0  0  0  0  0  0  0  # atno 6907 bound_to 6896
  152.5300  133.9849  159.7834 H   0  0  0  0  0  0  0  0  0  0  0  0  # atno 6908 bound_to 6896
  151.0133  133.5893  159.2710 H   0  0  0  0  0  0  0  0  0  0  0  0  # atno 6909 bound_to 6896
  145.1342  139.3308  143.4649 H   0  0  0  0  0  0  0  0  0  0  0  0  # atno 7974 bound_to 7965
  155.5296  140.0598  157.2891 H   0  0  0  0  0  0  0  0  0  0  0  0  # atno 8008 bound_to 7997
  154.4489  140.1938  156.0526 H   0  0  0  0  0  0  0  0  0  0  0  0  # atno 8009 bound_to 7997
  156.0661  140.3266  155.7524 H   0  0  0  0  0  0  0  0  0  0  0  0  # atno 8010 bound_to 7997
  139.5462  144.2230  152.0991 H   0  0  0  0  0  0  0  0  0  0  0  0  # atno 10167 bound_to 10162
  156.9153  130.9923  151.3014 H   0  0  0  0  0  0  0  0  0  0  0  0  # atno 10718 bound_to 10713
  152.9806  135.5741  154.4920 H   0  0  0  0  0  0  0  0  0  0  0  0  # atno 10763 bound_to 10752
  154.4453  135.2777  155.1821 H   0  0  0  0  0  0  0  0  0  0  0  0  # atno 10764 bound_to 10752
  154.3471  135.6217  153.5678 H   0  0  0  0  0  0  0  0  0  0  0  0  # atno 10765 bound_to 10752
  140.7648  133.8486  155.9156 H   0  0  0  0  0  0  0  0  0  0  0  0  # atno 11005 bound_to 11000
  146.3511  140.1354  142.8596 LP  0  0  0  0  0  0  0  0  0  0  0  0  # atno 17320 bound_to 7965
  145.0602  140.9082  143.4943 LP  0  0  0  0  0  0  0  0  0  0  0  0  # atno 17321 bound_to 7965
  140.1717  144.4929  150.6576 LP  0  0  0  0  0  0  0  0  0  0  0  0  # atno 17342 bound_to 10162
  140.6710  143.2286  151.5624 LP  0  0  0  0  0  0  0  0  0  0  0  0  # atno 17343 bound_to 10162
  157.5942  130.8465  149.8704 LP  0  0  0  0  0  0  0  0  0  0  0  0  # atno 17370 bound_to 10713
  156.0516  130.3716  150.1187 LP  0  0  0  0  0  0  0  0  0  0  0  0  # atno 17371 bound_to 10713
  140.9629  134.1632  157.4639 LP  0  0  0  0  0  0  0  0  0  0  0  0  # atno 17394 bound_to 11000
  139.8765  134.9951  156.5728 LP  0  0  0  0  0  0  0  0  0  0  0  0  # atno 17395 bound_to 11000

$$$$
