AV-unprocessed.smi:943|AV-procd|sdf|4230|dock8
  -GOLD-   22720 2133D 1   1.00000     0.00000
 Structure written by MMmdl.
 43 44  0  0  0  0  0  0  0  0  1 V2000
  150.7181  141.7369  155.8258 C   0  0  0  0  0  0  0  0  0  0  0  0
  151.6379  140.5600  156.1931 C   0  0  1  0  0  0  0  0  0  0  0  0
  151.6184  140.3044  157.7198 C   0  0  0  0  0  0  0  0  0  0  0  0
  152.5423  141.1993  158.5811 C   0  0  0  0  0  0  0  0  0  0  0  0
  153.0613  140.4143  159.8040 C   0  0  0  0  0  0  0  0  0  0  0  0
  153.9927  141.2665  160.6808 C   0  0  0  0  0  0  0  0  0  0  0  0
  153.3007  142.5615  161.1305 C   0  0  0  0  0  0  0  0  0  0  0  0
  152.7845  143.3570  159.9227 C   0  0  0  0  0  0  0  0  0  0  0  0
  151.8547  142.5028  159.0450 C   0  0  0  0  0  0  0  0  0  0  0  0
  151.2397  139.3119  155.3917 C   0  0  0  0  0  0  0  0  0  0  0  0
  150.9165  139.4100  154.2075 O   0  0  0  0  0  0  0  0  0  0  0  0
  151.2582  138.1462  156.0535 N   0  0  0  0  0  0  0  0  0  0  0  0
  150.8941  136.8629  155.4705 C   0  0  0  0  0  0  0  0  0  0  0  0
  149.7100  136.2433  156.2248 C   0  0  0  0  0  0  0  0  0  0  0  0
  149.3777  134.8686  155.7280 C   0  0  0  0  0  0  0  0  0  0  0  0
  148.7869  134.5472  154.5294 C   0  0  0  0  0  0  0  0  0  0  0  0
  148.5830  132.8258  154.3399 S   0  0  0  0  0  0  0  0  0  0  0  0
  149.3200  132.6133  155.9189 C   0  0  0  0  0  0  0  0  0  0  0  0
  149.6779  133.7512  156.5150 N   0  0  0  0  0  0  0  0  0  0  0  0
  150.7221  141.9245  154.7513 H   0  0  0  0  0  0  0  0  0  0  0  0
  151.0442  142.6540  156.3171 H   0  0  0  0  0  0  0  0  0  0  0  0
  149.6865  141.5510  156.1276 H   0  0  0  0  0  0  0  0  0  0  0  0
  152.6490  140.8472  155.9026 H   0  0  0  0  0  0  0  0  0  0  0  0
  150.5940  140.4153  158.0780 H   0  0  0  0  0  0  0  0  0  0  0  0
  151.8770  139.2598  157.9010 H   0  0  0  0  0  0  0  0  0  0  0  0
  153.4139  141.4732  157.9855 H   0  0  0  0  0  0  0  0  0  0  0  0
  152.2190  140.0659  160.4032 H   0  0  0  0  0  0  0  0  0  0  0  0
  153.5936  139.5213  159.4750 H   0  0  0  0  0  0  0  0  0  0  0  0
  154.3096  140.6928  161.5522 H   0  0  0  0  0  0  0  0  0  0  0  0
  154.8986  141.5093  160.1241 H   0  0  0  0  0  0  0  0  0  0  0  0
  152.4685  142.3212  161.7935 H   0  0  0  0  0  0  0  0  0  0  0  0
  153.9934  143.1718  161.7106 H   0  0  0  0  0  0  0  0  0  0  0  0
  152.2586  144.2494  160.2630 H   0  0  0  0  0  0  0  0  0  0  0  0
  153.6294  143.7052  159.3271 H   0  0  0  0  0  0  0  0  0  0  0  0
  151.5455  143.0976  158.1859 H   0  0  0  0  0  0  0  0  0  0  0  0
  150.9462  142.2642  159.5998 H   0  0  0  0  0  0  0  0  0  0  0  0
  151.5362  138.1505  157.0241 H   0  0  0  0  0  0  0  0  0  0  0  0
  150.6347  137.0041  154.4200 H   0  0  0  0  0  0  0  0  0  0  0  0
  151.7549  136.1931  155.5050 H   0  0  0  0  0  0  0  0  0  0  0  0
  149.9372  136.2059  157.2911 H   0  0  0  0  0  0  0  0  0  0  0  0
  148.8387  136.8926  156.1277 H   0  0  0  0  0  0  0  0  0  0  0  0
  148.4621  135.2176  153.7473 H   0  0  0  0  0  0  0  0  0  0  0  0
  149.4872  131.6618  156.4018 H   0  0  0  0  0  0  0  0  0  0  0  0
  1  2  1  0  0  0  0
  1 20  1  0  0  0  0
  1 21  1  0  0  0  0
  1 22  1  0  0  0  0
  2  3  1  0  0  0  0
  2 10  1  0  0  0  0
  2 23  1  0  0  0  0
  3  4  1  0  0  0  0
  3 24  1  0  0  0  0
  3 25  1  0  0  0  0
  4  9  1  0  0  0  0
  4  5  1  0  0  0  0
  4 26  1  0  0  0  0
  5  6  1  0  0  0  0
  5 27  1  0  0  0  0
  5 28  1  0  0  0  0
  6  7  1  0  0  0  0
  6 29  1  0  0  0  0
  6 30  1  0  0  0  0
  7  8  1  0  0  0  0
  7 31  1  0  0  0  0
  7 32  1  0  0  0  0
  8  9  1  0  0  0  0
  8 33  1  0  0  0  0
  8 34  1  0  0  0  0
  9 35  1  0  0  0  0
  9 36  1  0  0  0  0
 10 11  2  0  0  0  0
 10 12  1  0  0  0  0
 12 13  1  0  0  0  0
 12 37  1  0  0  0  0
 13 14  1  0  0  0  0
 13 38  1  0  0  0  0
 13 39  1  0  0  0  0
 14 15  1  0  0  0  0
 14 40  1  0  0  0  0
 14 41  1  0  0  0  0
 15 19  1  0  0  0  0
 15 16  2  0  0  0  0
 16 17  1  0  0  0  0
 16 42  1  0  0  0  0
 17 18  1  0  0  0  0
 18 19  2  0  0  0  0
 18 43  1  0  0  0  0
M  END
> <s_m_source_file>
AV-unprocessed.smi

> <i_m_source_file_index>
943

> <i_lp_mmshare_version>
43012

> <i_f3d_flags>
0

> <s_epik_input>
W0NIMl0xW0NIMl1bQ0gyXVtDSDJdW0NIMl1bQ0hdMVtDSDJdW0NAQEhdKFtDSDNdKUMoPU8pW05IXVtDSDJdW0NIMl1jMltjSF1zW2NIXW4y

> <s_epik_cmdline>
J2VwaWtfcHl0aG9uJywgJy1waCcsICc3LjAnLCAnLXRuJywgJzgnLCAnLW1hJywgJzIwMCcsICctbWV0YWxfYmluZGluZycsICctaW1hZScsICc8aW5maWxlLm1hZT4nLCAnLW9tYWUnLCAnPG91dGZpbGUubWFlPic=

> <r_lp_tautomer_probability>
1

> <r_epik_Ionization_Penalty>
0.000194757

> <r_epik_Ionization_Penalty_Charging>
0

> <r_epik_Ionization_Penalty_Neutral>
0.000194757

> <r_epik_State_Penalty>
-0

> <r_epik_Charging_Adjusted_Penalty>
0

> <i_epik_Tot_Q>
0

> <i_epik_Tot_abs_Q>
0

> <r_epik_Metal_State_Penalty>
-0

> <b_epik_Metal_Only>
0

> <s_lp_Force_Field>
OPLS_2005

> <r_lp_Energy>
6.44142

> <b_lp_Chiralities_Consistent>
1

> <s_lp_Variant>
AV-unprocessed.smi:943-2

> <Gold.Version>
5.8.1

> <Gold.Id.Protein>
6NUR|6NUR_protein|mol2

> <Gold.PLP.Fitness>
43.6968

> <Gold.PLP.PLP>
-40.1280

> <Gold.PLP.part.hbond>
-1.0000

> <Gold.PLP.part.metal>
0.0000

> <Gold.PLP.part.buried>
-2.9506

> <Gold.PLP.part.nonpolar>
-35.2726

> <Gold.PLP.part.repulsive>
0.2531

> <Gold.PLP.ligand.clash>
0.0000

> <Gold.PLP.ligand.torsion>
1.2744

> <Gold.PLP.Chemscore.Hbond>
1.0000

> <Gold.PLP.Chemscore.CHOScore>
1.0000

> <Gold.PLP.Chemscore.Metal>
0.0000

> <Gold.Chemscore.Hbonds>
donor molecule, donor type, donor heavy atom, donor atom, acceptor molecule, acceptor atom, score
      P1  H  7989  7998       L1    11  1.00
      L1  C    16    42       P1  7948  1.00

> <Gold.PLP.Chemscore.Internal.Correction>
0.1175

> <Gold.Rescore>
     Score         DG    S(hbond)    S(metal)    S(lipo)     H(rot)  DE(clash)    DE(int)     intcor
     16.33     -17.66       0.98        0.00     110.54       1.58       0.15       1.18       ----

> <Gold.Chemscore.Fitness>
16.3269

> <Gold.Chemscore.DG>
-17.6570

> <Gold.Chemscore.ZeroCoef>
-5.4800

> <Gold.Chemscore.Hbond>
0.9838

> <Gold.Chemscore.Metal>
0.0000

> <Gold.Chemscore.Lipo>
110.5386

> <Gold.Chemscore.Internal_Hbond>
0.0000

> <Gold.Chemscore.DEClash>
0.1529

> <Gold.Chemscore.DEInternal>
1.1773

> <Gold.Chemscore.Rot>
1.5789

> <Gold.Chemscore.Internal.Correction>
   9.000000E+99

> <Gold.Chemscore.Hbonds>
donor molecule, donor type, donor heavy atom, donor atom, acceptor molecule, acceptor atom, score
      P1  H  7989  7998       L1    11  0.78

> <Gold.Chemscore.Hbond.Weighted>
-3.2859

> <Gold.Chemscore.Metal.Weighted>
-0.0000

> <Gold.Chemscore.Lipo.Weighted>
-12.9330

> <Gold.Chemscore.Internal_Hbond.Weighted>
0.0000

> <Gold.Chemscore.DEClash.Weighted>
0.1529

> <Gold.Chemscore.DEInternal.Weighted>
1.1773

> <Gold.Chemscore.Rot.Weighted>
4.0419

> <Gold.Chemscore.Internal.Correction.Weighted>
   9.000000E+99

> <Gold.Protein.RotatedTorsions>
[ 6907 6896 6895 6894 ] final  -78.94 input  -60.11 | X-H torsion
[ 7974 7965 7964 7962 ] final   92.12 input  175.53 | X-H torsion
[ 8008 7997 7996 7995 ] final  -49.97 input   59.86 | X-H torsion
[ 10167 10162 10161 10158 ] final   21.70 input  -65.29 | X-H torsion
[ 10718 10713 10712 10709 ] final  -85.89 input   66.30 | X-H torsion
[ 10763 10752 10751 10750 ] final -151.79 input  -60.55 | X-H torsion
[ 11005 11000 10999 10996 ] final    7.05 input  -57.11 | X-H torsion

> <Gold.Protein.ActiveResidues>
 VAL166  LYS551  ARG553  GLY616  TRP617  ASP618  TYR619  PRO620  LYS621  CYS622 
 ASP623  PHE694  ASN695  SER759  ASP760  ASP761  ALA762  ILE779  LEU786  VAL792 
 PHE793  MET794  SER795  GLU796  ALA797  LYS798  CYS799  TRP800  GLU811  SER814 

> <Gold.Protein.RotatedAtoms>
  150.6961  134.4196  159.5198 H   0  0  0  0  0  0  0  0  0  0  0  0  # atno 6907 bound_to 6896
  152.1941  134.8643  160.0524 H   0  0  0  0  0  0  0  0  0  0  0  0  # atno 6908 bound_to 6896
  151.9587  133.3653  159.4064 H   0  0  0  0  0  0  0  0  0  0  0  0  # atno 6909 bound_to 6896
  145.4965  139.2276  143.2801 H   0  0  0  0  0  0  0  0  0  0  0  0  # atno 7974 bound_to 7965
  154.4053  140.1283  156.4590 H   0  0  0  0  0  0  0  0  0  0  0  0  # atno 8008 bound_to 7997
  155.7292  140.3491  155.5031 H   0  0  0  0  0  0  0  0  0  0  0  0  # atno 8009 bound_to 7997
  155.9143  140.1041  157.1245 H   0  0  0  0  0  0  0  0  0  0  0  0  # atno 8010 bound_to 7997
  140.5406  143.9684  150.6517 H   0  0  0  0  0  0  0  0  0  0  0  0  # atno 10167 bound_to 10162
  155.9993  130.4746  150.4632 H   0  0  0  0  0  0  0  0  0  0  0  0  # atno 10718 bound_to 10713
  154.8035  135.3251  154.7489 H   0  0  0  0  0  0  0  0  0  0  0  0  # atno 10763 bound_to 10752
  153.8152  135.6892  153.4839 H   0  0  0  0  0  0  0  0  0  0  0  0  # atno 10764 bound_to 10752
  153.1767  135.4602  154.9918 H   0  0  0  0  0  0  0  0  0  0  0  0  # atno 10765 bound_to 10752
  140.5526  134.0269  155.7942 H   0  0  0  0  0  0  0  0  0  0  0  0  # atno 11005 bound_to 11000
  146.2252  140.5763  142.8999 LP  0  0  0  0  0  0  0  0  0  0  0  0  # atno 17320 bound_to 7965
  144.7804  140.5828  143.6609 LP  0  0  0  0  0  0  0  0  0  0  0  0  # atno 17321 bound_to 7965
  140.3083  143.3215  152.0904 LP  0  0  0  0  0  0  0  0  0  0  0  0  # atno 17342 bound_to 10162
  139.4987  144.6652  151.6372 LP  0  0  0  0  0  0  0  0  0  0  0  0  # atno 17343 bound_to 10162
  157.2654  131.0576  151.2294 LP  0  0  0  0  0  0  0  0  0  0  0  0  # atno 17370 bound_to 10713
  157.3393  130.7025  149.6372 LP  0  0  0  0  0  0  0  0  0  0  0  0  # atno 17371 bound_to 10713
  141.1163  133.9535  157.2817 LP  0  0  0  0  0  0  0  0  0  0  0  0  # atno 17394 bound_to 11000
  139.9448  135.0186  156.8818 LP  0  0  0  0  0  0  0  0  0  0  0  0  # atno 17395 bound_to 11000

$$$$
