AV-unprocessed.smi:3104|AV-procd|sdf|11817|dock1
  -GOLD-   2272017183D 1   1.00000     0.00000
 Structure written by MMmdl.
 37 38  0  0  0  0  0  0  0  0  2 V2000
  153.2887  142.9260  163.0797 C   0  0  0  0  0  0  0  0  0  0  0  0
  153.0461  142.7181  161.6127 C   0  0  0  0  0  0  0  0  0  0  0  0
  153.4053  141.5931  160.8186 C   0  0  0  0  0  0  0  0  0  0  0  0
  153.0336  141.7169  159.5554 N   0  0  0  0  0  0  0  0  0  0  0  0
  152.4423  142.9296  159.4899 N   0  0  0  0  0  0  0  0  0  0  0  0
  151.8716  143.3838  158.2262 C   0  0  2  0  0  0  0  0  0  0  0  0
  151.2661  144.7897  158.3995 C   0  0  0  0  0  0  0  0  0  0  0  0
  150.8661  142.3459  157.6581 C   0  0  1  0  0  0  0  0  0  0  0  0
  149.4901  142.4191  158.3407 C   0  0  0  0  0  0  0  0  0  0  0  0
  150.6801  142.5426  156.2008 N   0  3  0  0  0  0  0  0  0  0  0  0
  150.1926  141.3552  155.4704 C   0  0  0  0  0  0  0  0  0  0  0  0
  148.6862  141.3855  155.3239 C   0  0  0  0  0  0  0  0  0  0  0  0
  148.0052  140.4907  154.3137 C   0  0  0  0  0  0  0  0  0  0  0  0
  148.0386  141.9827  154.0953 C   0  0  0  0  0  0  0  0  0  0  0  0
  152.4286  143.5509  160.7233 C   0  0  0  0  0  0  0  0  0  0  0  0
  154.0134  142.2144  163.4760 H   0  0  0  0  0  0  0  0  0  0  0  0
  152.3726  142.8074  163.6585 H   0  0  0  0  0  0  0  0  0  0  0  0
  153.6744  143.9245  163.2865 H   0  0  0  0  0  0  0  0  0  0  0  0
  153.9146  140.6906  161.1238 H   0  0  0  0  0  0  0  0  0  0  0  0
  152.6947  143.4792  157.5150 H   0  0  0  0  0  0  0  0  0  0  0  0
  150.9966  145.2326  157.4411 H   0  0  0  0  0  0  0  0  0  0  0  0
  151.9799  145.4666  158.8704 H   0  0  0  0  0  0  0  0  0  0  0  0
  150.3696  144.7682  159.0198 H   0  0  0  0  0  0  0  0  0  0  0  0
  151.2617  141.3438  157.8328 H   0  0  0  0  0  0  0  0  0  0  0  0
  149.5486  142.1595  159.3976 H   0  0  0  0  0  0  0  0  0  0  0  0
  148.7894  141.7200  157.8825 H   0  0  0  0  0  0  0  0  0  0  0  0
  149.0595  143.4181  158.2641 H   0  0  0  0  0  0  0  0  0  0  0  0
  150.0170  143.2912  156.0601 H   0  0  0  0  0  0  0  0  0  0  0  0
  150.6516  141.3007  154.4830 H   0  0  0  0  0  0  0  0  0  0  0  0
  150.4788  140.4542  156.0141 H   0  0  0  0  0  0  0  0  0  0  0  0
  148.1523  141.5098  156.2644 H   0  0  0  0  0  0  0  0  0  0  0  0
  148.6340  139.8770  153.6716 H   0  0  0  0  0  0  0  0  0  0  0  0
  147.0533  140.0456  154.5964 H   0  0  0  0  0  0  0  0  0  0  0  0
  147.1098  142.5322  154.2337 H   0  0  0  0  0  0  0  0  0  0  0  0
  148.6893  142.3588  153.3082 H   0  0  0  0  0  0  0  0  0  0  0  0
  151.9800  144.5227  160.8682 H   0  0  0  0  0  0  0  0  0  0  0  0
  151.5676  142.8222  155.8062 H   0  0  0  0  0  0  0  0  0  0  0  0
  1  2  1  0  0  0  0
  1 16  1  0  0  0  0
  1 17  1  0  0  0  0
  1 18  1  0  0  0  0
  2 15  2  0  0  0  0
  2  3  1  0  0  0  0
  3  4  2  0  0  0  0
  3 19  1  0  0  0  0
  4  5  1  0  0  0  0
  5  6  1  0  0  0  0
  5 15  1  0  0  0  0
  6  7  1  0  0  0  0
  6  8  1  0  0  0  0
  6 20  1  0  0  0  0
  7 21  1  0  0  0  0
  7 22  1  0  0  0  0
  7 23  1  0  0  0  0
  8  9  1  0  0  0  0
  8 10  1  0  0  0  0
  8 24  1  0  0  0  0
  9 25  1  0  0  0  0
  9 26  1  0  0  0  0
  9 27  1  0  0  0  0
 10 11  1  0  0  0  0
 10 28  1  0  0  0  0
 10 37  1  0  0  0  0
 11 12  1  0  0  0  0
 11 29  1  0  0  0  0
 11 30  1  0  0  0  0
 12 14  1  0  0  0  0
 12 13  1  0  0  0  0
 12 31  1  0  0  0  0
 13 14  1  0  0  0  0
 13 32  1  0  0  0  0
 13 33  1  0  0  0  0
 14 34  1  0  0  0  0
 14 35  1  0  0  0  0
 15 36  1  0  0  0  0
M  CHG  1  10   1
M  END
> <s_m_source_file>
AV-unprocessed.smi

> <i_m_source_file_index>
3104

> <i_lp_mmshare_version>
43012

> <i_f3d_flags>
0

> <s_epik_input>
W0NIM11jMVtjSF1ubihbY0hdMSlbQ0BIXShbQ0gzXSlbQ0BIXShbQ0gzXSlbTkhdW0NIMl1bQ0hdMltDSDJdW0NIMl0y

> <s_epik_cmdline>
J2VwaWtfcHl0aG9uJywgJy1waCcsICc3LjAnLCAnLXRuJywgJzgnLCAnLW1hJywgJzIwMCcsICctbWV0YWxfYmluZGluZycsICctaW1hZScsICc8aW5maWxlLm1hZT4nLCAnLW9tYWUnLCAnPG91dGZpbGUubWFlPic=

> <r_lp_tautomer_probability>
1

> <r_epik_Ionization_Penalty>
0.00120445

> <r_epik_Ionization_Penalty_Charging>
0.00118273

> <r_epik_Ionization_Penalty_Neutral>
2.17265e-05

> <r_epik_State_Penalty>
-0

> <r_epik_Charging_Adjusted_Penalty>
0.00118273

> <i_epik_Tot_Q>
1

> <i_epik_Tot_abs_Q>
1

> <r_epik_Metal_State_Penalty>
-0

> <b_epik_Metal_Only>
0

> <s_lp_Force_Field>
OPLS_2005

> <r_lp_Energy>
20.7188

> <b_lp_Chiralities_Consistent>
1

> <s_lp_Variant>
AV-unprocessed.smi:3104-3

> <Gold.Version>
5.8.1

> <Gold.Id.Protein>
6NUR|6NUR_protein|mol2

> <Gold.PLP.Fitness>
46.4922

> <Gold.PLP.PLP>
-41.8844

> <Gold.PLP.part.hbond>
-1.0000

> <Gold.PLP.part.metal>
0.0000

> <Gold.PLP.part.buried>
-3.3639

> <Gold.PLP.part.nonpolar>
-35.6061

> <Gold.PLP.part.repulsive>
0.1088

> <Gold.PLP.ligand.clash>
0.0000

> <Gold.PLP.ligand.torsion>
1.0541

> <Gold.PLP.Chemscore.Hbond>
2.0000

> <Gold.PLP.Chemscore.CHOScore>
0.0000

> <Gold.PLP.Chemscore.Metal>
0.0000

> <Gold.Chemscore.Hbonds>
donor molecule, donor type, donor heavy atom, donor atom, acceptor molecule, acceptor atom, score
      L1  H    10    28       P1  8028  2.00

> <Gold.PLP.Chemscore.Internal.Correction>
0.7160

> <Gold.Rescore>
     Score         DG    S(hbond)    S(metal)    S(lipo)     H(rot)  DE(clash)    DE(int)     intcor
     16.72     -17.74       1.00        0.00     108.93       1.49       0.12       0.91       ----

> <Gold.Chemscore.Fitness>
16.7191

> <Gold.Chemscore.DG>
-17.7439

> <Gold.Chemscore.ZeroCoef>
-5.4800

> <Gold.Chemscore.Hbond>
0.9999

> <Gold.Chemscore.Metal>
0.0000

> <Gold.Chemscore.Lipo>
108.9267

> <Gold.Chemscore.Internal_Hbond>
0.0000

> <Gold.Chemscore.DEClash>
0.1156

> <Gold.Chemscore.DEInternal>
0.9092

> <Gold.Chemscore.Rot>
1.4923

> <Gold.Chemscore.Internal.Correction>
   9.000000E+99

> <Gold.Chemscore.Hbonds>
donor molecule, donor type, donor heavy atom, donor atom, acceptor molecule, acceptor atom, score
      L1  H    10    28       P1  8028  1.00

> <Gold.Chemscore.Hbond.Weighted>
-3.3398

> <Gold.Chemscore.Metal.Weighted>
-0.0000

> <Gold.Chemscore.Lipo.Weighted>
-12.7444

> <Gold.Chemscore.Internal_Hbond.Weighted>
0.0000

> <Gold.Chemscore.DEClash.Weighted>
0.1156

> <Gold.Chemscore.DEInternal.Weighted>
0.9092

> <Gold.Chemscore.Rot.Weighted>
3.8204

> <Gold.Chemscore.Internal.Correction.Weighted>
   9.000000E+99

> <Gold.Protein.RotatedTorsions>
[ 6907 6896 6895 6894 ] final   78.38 input  -60.11 | X-H torsion
[ 7974 7965 7964 7962 ] final   31.96 input  175.53 | X-H torsion
[ 8008 7997 7996 7995 ] final  139.51 input   59.86 | X-H torsion
[ 10167 10162 10161 10158 ] final  -30.55 input  -65.29 | X-H torsion
[ 10718 10713 10712 10709 ] final   38.79 input   66.30 | X-H torsion
[ 10763 10752 10751 10750 ] final  -90.16 input  -60.55 | X-H torsion
[ 11005 11000 10999 10996 ] final  -13.93 input  -57.11 | X-H torsion

> <Gold.Protein.ActiveResidues>
 VAL166  LYS551  ARG553  GLY616  TRP617  ASP618  TYR619  PRO620  LYS621  CYS622 
 ASP623  PHE694  ASN695  SER759  ASP760  ASP761  ALA762  ILE779  LEU786  VAL792 
 PHE793  MET794  SER795  GLU796  ALA797  LYS798  CYS799  TRP800  GLU811  SER814 

> <Gold.Protein.RotatedAtoms>
  152.5157  134.3673  159.9305 H   0  0  0  0  0  0  0  0  0  0  0  0  # atno 6907 bound_to 6896
  151.3627  133.3877  159.2699 H   0  0  0  0  0  0  0  0  0  0  0  0  # atno 6908 bound_to 6896
  150.9639  134.9042  159.7805 H   0  0  0  0  0  0  0  0  0  0  0  0  # atno 6909 bound_to 6896
  146.1517  139.6588  142.9094 H   0  0  0  0  0  0  0  0  0  0  0  0  # atno 7974 bound_to 7965
  156.2989  140.2365  156.4249 H   0  0  0  0  0  0  0  0  0  0  0  0  # atno 8008 bound_to 7997
  154.8322  140.0432  157.1505 H   0  0  0  0  0  0  0  0  0  0  0  0  # atno 8009 bound_to 7997
  154.9195  140.3001  155.5227 H   0  0  0  0  0  0  0  0  0  0  0  0  # atno 8010 bound_to 7997
  140.7248  143.3840  151.1549 H   0  0  0  0  0  0  0  0  0  0  0  0  # atno 10167 bound_to 10162
  157.3629  130.7659  149.7061 H   0  0  0  0  0  0  0  0  0  0  0  0  # atno 10718 bound_to 10713
  154.6628  135.5314  153.8040 H   0  0  0  0  0  0  0  0  0  0  0  0  # atno 10763 bound_to 10752
  153.0452  135.6510  154.0845 H   0  0  0  0  0  0  0  0  0  0  0  0  # atno 10764 bound_to 10752
  154.0752  135.2951  155.3280 H   0  0  0  0  0  0  0  0  0  0  0  0  # atno 10765 bound_to 10752
  140.7812  133.8361  155.9294 H   0  0  0  0  0  0  0  0  0  0  0  0  # atno 11005 bound_to 11000
  145.4808  141.0438  143.2647 LP  0  0  0  0  0  0  0  0  0  0  0  0  # atno 17320 bound_to 7965
  144.7912  139.6325  143.7112 LP  0  0  0  0  0  0  0  0  0  0  0  0  # atno 17321 bound_to 7965
  139.7434  143.8890  152.3056 LP  0  0  0  0  0  0  0  0  0  0  0  0  # atno 17342 bound_to 10162
  139.8719  144.7064  150.8978 LP  0  0  0  0  0  0  0  0  0  0  0  0  # atno 17343 bound_to 10162
  155.9741  130.4109  150.3952 LP  0  0  0  0  0  0  0  0  0  0  0  0  # atno 17370 bound_to 10713
  157.2032  131.0443  151.2639 LP  0  0  0  0  0  0  0  0  0  0  0  0  # atno 17371 bound_to 10713
  140.9480  134.1815  157.4749 LP  0  0  0  0  0  0  0  0  0  0  0  0  # atno 17394 bound_to 11000
  139.8742  134.9898  156.5474 LP  0  0  0  0  0  0  0  0  0  0  0  0  # atno 17395 bound_to 11000

$$$$
