AV-unprocessed.smi:481|AV-procd|sdf|2683|dock9
  -GOLD-   2262023113D 1   1.00000     0.00000
 Structure written by MMmdl.
 42 44  0  0  0  0  0  0  0  0  2 V2000
  151.6496  137.3488  154.4578 C   0  0  0  0  0  0  0  0  0  0  0  0
  150.3730  136.7849  154.7157 O   0  0  0  0  0  0  0  0  0  0  0  0
  150.3953  135.3800  154.9260 C   0  0  0  0  0  0  0  0  0  0  0  0
  148.9870  134.7656  154.8515 C   0  0  0  0  0  0  0  0  0  0  0  0
  148.0096  135.5854  155.5601 N   0  0  0  0  0  0  0  0  0  0  0  0
  146.9921  136.3072  155.0258 C   0  0  0  0  0  0  0  0  0  0  0  0
  146.8062  136.3138  153.6363 N   0  0  0  0  0  0  0  0  0  0  0  0
  145.8261  137.0022  153.0496 N   0  0  0  0  0  0  0  0  0  0  0  0
  144.9844  136.4431  152.2415 C   0  0  0  0  0  0  0  0  0  0  0  0
  145.0140  135.0561  151.7303 C   0  0  0  0  0  0  0  0  0  0  0  0
  146.2184  134.3917  151.3976 C   0  0  0  0  0  0  0  0  0  0  0  0
  146.1943  133.0697  150.9135 C   0  0  0  0  0  0  0  0  0  0  0  0
  144.9666  132.4026  150.7461 C   0  0  0  0  0  0  0  0  0  0  0  0
  143.7625  133.0614  151.0572 C   0  0  0  0  0  0  0  0  0  0  0  0
  143.7869  134.3837  151.5418 C   0  0  0  0  0  0  0  0  0  0  0  0
  146.2469  136.9595  155.9251 N   0  0  0  0  0  0  0  0  0  0  0  0
  146.8461  136.6247  157.1299 C   0  0  0  0  0  0  0  0  0  0  0  0
  147.9145  135.8068  156.9362 C   0  0  0  0  0  0  0  0  0  0  0  0
  148.7695  135.2934  158.0280 C   0  0  0  0  0  0  0  0  0  0  0  0
  149.7355  134.5707  157.7903 O   0  0  0  0  0  0  0  0  0  0  0  0
  148.3477  135.7248  159.2590 N   0  5  0  0  0  0  0  0  0  0  0  0
  147.2688  136.5481  159.5031 C   0  0  0  0  0  0  0  0  0  0  0  0
  146.9581  136.8915  160.6444 O   0  0  0  0  0  0  0  0  0  0  0  0
  146.5106  137.0063  158.4574 N   0  0  0  0  0  0  0  0  0  0  0  0
  145.3574  137.8816  158.6861 C   0  0  0  0  0  0  0  0  0  0  0  0
  151.5582  138.4321  154.3830 H   0  0  0  0  0  0  0  0  0  0  0  0
  152.0706  136.9892  153.5193 H   0  0  0  0  0  0  0  0  0  0  0  0
  152.3518  137.1283  155.2627 H   0  0  0  0  0  0  0  0  0  0  0  0
  151.0783  134.8971  154.2256 H   0  0  0  0  0  0  0  0  0  0  0  0
  150.8045  135.2066  155.9216 H   0  0  0  0  0  0  0  0  0  0  0  0
  148.6842  134.6526  153.8106 H   0  0  0  0  0  0  0  0  0  0  0  0
  148.9630  133.7602  155.2678 H   0  0  0  0  0  0  0  0  0  0  0  0
  147.6609  136.1617  153.1203 H   0  0  0  0  0  0  0  0  0  0  0  0
  144.1492  137.0566  151.9030 H   0  0  0  0  0  0  0  0  0  0  0  0
  147.1705  134.8894  151.5074 H   0  0  0  0  0  0  0  0  0  0  0  0
  147.1190  132.5685  150.6687 H   0  0  0  0  0  0  0  0  0  0  0  0
  144.9484  131.3881  150.3759 H   0  0  0  0  0  0  0  0  0  0  0  0
  142.8191  132.5523  150.9260 H   0  0  0  0  0  0  0  0  0  0  0  0
  142.8543  134.8751  151.7796 H   0  0  0  0  0  0  0  0  0  0  0  0
  145.6731  138.8108  159.1621 H   0  0  0  0  0  0  0  0  0  0  0  0
  144.6295  137.3945  159.3363 H   0  0  0  0  0  0  0  0  0  0  0  0
  144.8415  138.1465  157.7635 H   0  0  0  0  0  0  0  0  0  0  0  0
  1  2  1  0  0  0  0
  1 26  1  0  0  0  0
  1 27  1  0  0  0  0
  1 28  1  0  0  0  0
  2  3  1  0  0  0  0
  3  4  1  0  0  0  0
  3 29  1  0  0  0  0
  3 30  1  0  0  0  0
  4  5  1  0  0  0  0
  4 31  1  0  0  0  0
  4 32  1  0  0  0  0
  5 18  1  0  0  0  0
  5  6  1  0  0  0  0
  6  7  1  0  0  0  0
  6 16  2  0  0  0  0
  7  8  1  0  0  0  0
  7 33  1  0  0  0  0
  8  9  2  0  0  0  0
  9 10  1  0  0  0  0
  9 34  1  0  0  0  0
 10 15  1  0  0  0  0
 10 11  2  0  0  0  0
 11 12  1  0  0  0  0
 11 35  1  0  0  0  0
 12 13  2  0  0  0  0
 12 36  1  0  0  0  0
 13 14  1  0  0  0  0
 13 37  1  0  0  0  0
 14 15  2  0  0  0  0
 14 38  1  0  0  0  0
 15 39  1  0  0  0  0
 16 17  1  0  0  0  0
 17 24  1  0  0  0  0
 17 18  2  0  0  0  0
 18 19  1  0  0  0  0
 19 20  2  0  0  0  0
 19 21  1  0  0  0  0
 21 22  1  0  0  0  0
 22 23  2  0  0  0  0
 22 24  1  0  0  0  0
 24 25  1  0  0  0  0
 25 40  1  0  0  0  0
 25 41  1  0  0  0  0
 25 42  1  0  0  0  0
M  CHG  1  21  -1
M  END
> <s_m_source_file>
AV-unprocessed.smi

> <i_m_source_file_index>
481

> <i_lp_mmshare_version>
43012

> <i_f3d_flags>
0

> <s_epik_input>
W0NIM11uMWMoPU8pW25IXWMoPU8pYyhjMTIpbihbQ0gyXVtDSDJdT1tDSDNdKWMobjIpW05IXS9OPVtDSF0vYzNbY0hdW2NIXVtjSF1bY0hdW2NIXTM=

> <s_epik_cmdline>
J2VwaWtfcHl0aG9uJywgJy1waCcsICc3LjAnLCAnLXRuJywgJzgnLCAnLW1hJywgJzIwMCcsICctbWV0YWxfYmluZGluZycsICctaW1hZScsICc8aW5maWxlLm1hZT4nLCAnLW9tYWUnLCAnPG91dGZpbGUubWFlPic=

> <r_epik_Ionization_Penalty>
4.48471

> <r_epik_Ionization_Penalty_Charging>
4.58449e-09

> <r_epik_Ionization_Penalty_Neutral>
4.48471

> <r_epik_State_Penalty>
4.48428

> <r_epik_Charging_Adjusted_Penalty>
4.48428

> <i_epik_Tot_Q>
-1

> <i_epik_Tot_abs_Q>
1

> <r_epik_Metal_State_Penalty>
0.811551

> <b_epik_Metal_Only>
1

> <s_epik_Chemistry_Notes>
This compound has an imine and may undergo hydrolysis.

> <s_lp_Force_Field>
OPLS_2005

> <r_lp_Energy>
49.411

> <b_lp_Chiralities_Consistent>
1

> <s_lp_Variant>
AV-unprocessed.smi:481-4

> <Gold.Version>
5.8.1

> <Gold.Id.Protein>
6NUR|6NUR_protein|mol2

> <Gold.PLP.Fitness>
36.4614

> <Gold.PLP.PLP>
-28.3420

> <Gold.PLP.part.hbond>
-3.0000

> <Gold.PLP.part.metal>
0.0000

> <Gold.PLP.part.buried>
-5.2869

> <Gold.PLP.part.nonpolar>
-21.0342

> <Gold.PLP.part.repulsive>
0.3700

> <Gold.PLP.ligand.clash>
0.0000

> <Gold.PLP.ligand.torsion>
0.7001

> <Gold.PLP.Chemscore.Hbond>
2.9920

> <Gold.PLP.Chemscore.CHOScore>
0.0000

> <Gold.PLP.Chemscore.Metal>
0.0000

> <Gold.Chemscore.Hbonds>
donor molecule, donor type, donor heavy atom, donor atom, acceptor molecule, acceptor atom, score
      L1  H     7    33       P1  7948  1.00
      P1  H  6896  6907       L1    20  0.99
      P1  H  6934  6947       L1    23  0.68

> <Gold.PLP.Chemscore.Internal.Correction>
0.5435

> <Gold.Rescore>
     Score         DG    S(hbond)    S(metal)    S(lipo)     H(rot)  DE(clash)    DE(int)     intcor
     16.82     -18.78       2.93        0.00      63.22       1.52       0.07       1.89       ----

> <Gold.Chemscore.Fitness>
16.8202

> <Gold.Chemscore.DG>
-18.7755

> <Gold.Chemscore.ZeroCoef>
-5.4800

> <Gold.Chemscore.Hbond>
2.9334

> <Gold.Chemscore.Metal>
0.0000

> <Gold.Chemscore.Lipo>
63.2210

> <Gold.Chemscore.Internal_Hbond>
0.0000

> <Gold.Chemscore.DEClash>
0.0655

> <Gold.Chemscore.DEInternal>
1.8898

> <Gold.Chemscore.Rot>
1.5230

> <Gold.Chemscore.Internal.Correction>
   9.000000E+99

> <Gold.Chemscore.Hbonds>
donor molecule, donor type, donor heavy atom, donor atom, acceptor molecule, acceptor atom, score
      L1  H     7    33       P1  7948  1.00
      P1  H  6896  6907       L1    20  0.57
      P1  H  6934  6947       L1    23  0.55

> <Gold.Chemscore.Hbond.Weighted>
-9.7975

> <Gold.Chemscore.Metal.Weighted>
-0.0000

> <Gold.Chemscore.Lipo.Weighted>
-7.3969

> <Gold.Chemscore.Internal_Hbond.Weighted>
0.0000

> <Gold.Chemscore.DEClash.Weighted>
0.0655

> <Gold.Chemscore.DEInternal.Weighted>
1.8898

> <Gold.Chemscore.Rot.Weighted>
3.8989

> <Gold.Chemscore.Internal.Correction.Weighted>
   9.000000E+99

> <Gold.Protein.RotatedTorsions>
[ 6907 6896 6895 6894 ] final  -86.75 input  -60.11 | X-H torsion
[ 7974 7965 7964 7962 ] final  -96.64 input  175.53 | X-H torsion
[ 8008 7997 7996 7995 ] final   32.95 input   59.86 | X-H torsion
[ 10167 10162 10161 10158 ] final  -62.93 input  -65.29 | X-H torsion
[ 10718 10713 10712 10709 ] final  -23.67 input   66.30 | X-H torsion
[ 10763 10752 10751 10750 ] final  -85.41 input  -60.55 | X-H torsion
[ 11005 11000 10999 10996 ] final  -14.37 input  -57.11 | X-H torsion

> <Gold.Protein.ActiveResidues>
 VAL166  LYS551  ARG553  GLY616  TRP617  ASP618  TYR619  PRO620  LYS621  CYS622 
 ASP623  PHE694  ASN695  SER759  ASP760  ASP761  ALA762  ILE779  LEU786  VAL792 
 PHE793  MET794  SER795  GLU796  ALA797  LYS798  CYS799  TRP800  GLU811  SER814 

> <Gold.Protein.RotatedAtoms>
  150.6866  134.3002  159.4702 H   0  0  0  0  0  0  0  0  0  0  0  0  # atno 6907 bound_to 6896
  152.0898  134.9412  160.0581 H   0  0  0  0  0  0  0  0  0  0  0  0  # atno 6908 bound_to 6896
  152.0732  133.4082  159.4505 H   0  0  0  0  0  0  0  0  0  0  0  0  # atno 6909 bound_to 6896
  145.3442  140.9465  143.2591 H   0  0  0  0  0  0  0  0  0  0  0  0  # atno 7974 bound_to 7965
  155.1308  140.3257  155.4474 H   0  0  0  0  0  0  0  0  0  0  0  0  # atno 8008 bound_to 7997
  156.2635  140.2011  156.6376 H   0  0  0  0  0  0  0  0  0  0  0  0  # atno 8009 bound_to 7997
  154.6614  140.0547  157.0053 H   0  0  0  0  0  0  0  0  0  0  0  0  # atno 8010 bound_to 7997
  140.5905  143.2341  151.6149 H   0  0  0  0  0  0  0  0  0  0  0  0  # atno 10167 bound_to 10162
  156.4879  130.4560  149.6773 H   0  0  0  0  0  0  0  0  0  0  0  0  # atno 10718 bound_to 10713
  154.6108  135.5486  153.7471 H   0  0  0  0  0  0  0  0  0  0  0  0  # atno 10763 bound_to 10752
  153.0194  135.6389  154.1581 H   0  0  0  0  0  0  0  0  0  0  0  0  # atno 10764 bound_to 10752
  154.1519  135.2902  155.3113 H   0  0  0  0  0  0  0  0  0  0  0  0  # atno 10765 bound_to 10752
  140.7857  133.8327  155.9333 H   0  0  0  0  0  0  0  0  0  0  0  0  # atno 11005 bound_to 11000
  144.8767  139.4961  143.6742 LP  0  0  0  0  0  0  0  0  0  0  0  0  # atno 17320 bound_to 7965
  146.2995  139.7381  142.9102 LP  0  0  0  0  0  0  0  0  0  0  0  0  # atno 17321 bound_to 7965
  139.5224  144.3162  152.0950 LP  0  0  0  0  0  0  0  0  0  0  0  0  # atno 17342 bound_to 10162
  140.2326  144.4352  150.6293 LP  0  0  0  0  0  0  0  0  0  0  0  0  # atno 17343 bound_to 10162
  156.3456  130.7405  151.2357 LP  0  0  0  0  0  0  0  0  0  0  0  0  # atno 17370 bound_to 10713
  157.7477  131.0391  150.4536 LP  0  0  0  0  0  0  0  0  0  0  0  0  # atno 17371 bound_to 10713
  140.9438  134.1866  157.4778 LP  0  0  0  0  0  0  0  0  0  0  0  0  # atno 17394 bound_to 11000
  139.8737  134.9882  156.5404 LP  0  0  0  0  0  0  0  0  0  0  0  0  # atno 17395 bound_to 11000

$$$$
