AV-unprocessed.smi:3216|AV-procd|sdf|12288|dock4
  -GOLD-   2272018133D 1   1.00000     0.00000
 Structure written by MMmdl.
 36 36  0  0  0  0  0  0  0  0  1 V2000
  148.7341  139.0676  154.9566 C   0  0  0  0  0  0  0  0  0  0  0  0
  147.8531  140.2505  154.5177 C   0  0  0  0  0  0  0  0  0  0  0  0
  146.9942  139.8641  153.3046 C   0  0  0  0  0  0  0  0  0  0  0  0
  148.6785  141.5171  154.2207 C   0  0  0  0  0  0  0  0  0  0  0  0
  149.3772  141.9933  155.4076 N   0  0  0  0  0  0  0  0  0  0  0  0
  150.5002  141.4491  155.8969 C   0  0  0  0  0  0  0  0  0  0  0  0
  151.0614  140.4805  155.3846 O   0  0  0  0  0  0  0  0  0  0  0  0
  151.0873  142.1030  157.1533 C   0  0  0  0  0  0  0  0  0  0  0  0
  150.8744  141.3396  158.3933 N   0  0  0  0  0  0  0  0  0  0  0  0
  152.0910  140.7311  158.9227 C   0  0  0  0  0  0  0  0  0  0  0  0
  153.1161  141.8171  159.2897 C   0  0  0  0  0  0  0  0  0  0  0  0
  152.5021  143.1229  159.4569 N   0  0  0  0  0  0  0  0  0  0  0  0
  152.7124  144.2685  158.7184 C   0  0  0  0  0  0  0  0  0  0  0  0
  151.9160  145.2442  159.2457 C   0  0  0  0  0  0  0  0  0  0  0  0
  151.2449  144.5900  160.3164 C   0  0  0  0  0  0  0  0  0  0  0  0
  151.5950  143.3196  160.4383 N   0  0  0  0  0  0  0  0  0  0  0  0
  149.4580  138.8066  154.1841 H   0  0  0  0  0  0  0  0  0  0  0  0
  148.1296  138.1825  155.1572 H   0  0  0  0  0  0  0  0  0  0  0  0
  149.2874  139.2933  155.8685 H   0  0  0  0  0  0  0  0  0  0  0  0
  147.1714  140.4791  155.3383 H   0  0  0  0  0  0  0  0  0  0  0  0
  147.6144  139.6204  152.4415 H   0  0  0  0  0  0  0  0  0  0  0  0
  146.3293  140.6792  153.0173 H   0  0  0  0  0  0  0  0  0  0  0  0
  146.3720  138.9959  153.5233 H   0  0  0  0  0  0  0  0  0  0  0  0
  149.4006  141.3151  153.4276 H   0  0  0  0  0  0  0  0  0  0  0  0
  148.0246  142.3130  153.8602 H   0  0  0  0  0  0  0  0  0  0  0  0
  148.9819  142.7891  155.8869 H   0  0  0  0  0  0  0  0  0  0  0  0
  152.1558  142.2828  157.0220 H   0  0  0  0  0  0  0  0  0  0  0  0
  150.6244  143.0834  157.2681 H   0  0  0  0  0  0  0  0  0  0  0  0
  150.4465  141.9095  159.1089 H   0  0  0  0  0  0  0  0  0  0  0  0
  151.8787  140.1172  159.7988 H   0  0  0  0  0  0  0  0  0  0  0  0
  152.5187  140.0736  158.1648 H   0  0  0  0  0  0  0  0  0  0  0  0
  153.6069  141.5566  160.2281 H   0  0  0  0  0  0  0  0  0  0  0  0
  153.9023  141.8773  158.5349 H   0  0  0  0  0  0  0  0  0  0  0  0
  153.4061  144.2937  157.8910 H   0  0  0  0  0  0  0  0  0  0  0  0
  151.8274  146.2692  158.9176 H   0  0  0  0  0  0  0  0  0  0  0  0
  150.5179  144.9972  161.0035 H   0  0  0  0  0  0  0  0  0  0  0  0
  1  2  1  0  0  0  0
  1 17  1  0  0  0  0
  1 18  1  0  0  0  0
  1 19  1  0  0  0  0
  2  3  1  0  0  0  0
  2  4  1  0  0  0  0
  2 20  1  0  0  0  0
  3 21  1  0  0  0  0
  3 22  1  0  0  0  0
  3 23  1  0  0  0  0
  4  5  1  0  0  0  0
  4 24  1  0  0  0  0
  4 25  1  0  0  0  0
  5  6  1  0  0  0  0
  5 26  1  0  0  0  0
  6  7  2  0  0  0  0
  6  8  1  0  0  0  0
  8  9  1  0  0  0  0
  8 27  1  0  0  0  0
  8 28  1  0  0  0  0
  9 10  1  0  0  0  0
  9 29  1  0  0  0  0
 10 11  1  0  0  0  0
 10 30  1  0  0  0  0
 10 31  1  0  0  0  0
 11 12  1  0  0  0  0
 11 32  1  0  0  0  0
 11 33  1  0  0  0  0
 12 16  1  0  0  0  0
 12 13  1  0  0  0  0
 13 14  2  0  0  0  0
 13 34  1  0  0  0  0
 14 15  1  0  0  0  0
 14 35  1  0  0  0  0
 15 16  2  0  0  0  0
 15 36  1  0  0  0  0
M  END
> <s_m_source_file>
AV-unprocessed.smi

> <i_m_source_file_index>
3216

> <i_lp_mmshare_version>
43012

> <i_f3d_flags>
0

> <s_epik_input>
W0NIM11bQ0hdKFtDSDNdKVtDSDJdW05IXUMoPU8pW0NIMl1bTkhdW0NIMl1bQ0gyXW4xW2NIXVtjSF1bY0hdbjE=

> <s_epik_cmdline>
J2VwaWtfcHl0aG9uJywgJy1waCcsICc3LjAnLCAnLXRuJywgJzgnLCAnLW1hJywgJzIwMCcsICctbWV0YWxfYmluZGluZycsICctaW1hZScsICc8aW5maWxlLm1hZT4nLCAnLW9tYWUnLCAnPG91dGZpbGUubWFlPic=

> <r_lp_tautomer_probability>
1

> <r_epik_Ionization_Penalty>
0.724936

> <r_epik_Ionization_Penalty_Charging>
0

> <r_epik_Ionization_Penalty_Neutral>
0.724936

> <r_epik_State_Penalty>
0.747957

> <r_epik_Charging_Adjusted_Penalty>
0.747957

> <i_epik_Tot_Q>
0

> <i_epik_Tot_abs_Q>
0

> <r_epik_Metal_State_Penalty>
0.746186

> <b_epik_Metal_Only>
0

> <s_lp_Force_Field>
OPLS_2005

> <r_lp_Energy>
6.66152

> <b_lp_Chiralities_Consistent>
1

> <s_lp_Variant>
AV-unprocessed.smi:3216-2

> <Gold.Version>
5.8.1

> <Gold.Id.Protein>
6NUR|6NUR_protein|mol2

> <Gold.PLP.Fitness>
42.8005

> <Gold.PLP.PLP>
-38.7893

> <Gold.PLP.part.hbond>
-2.0929

> <Gold.PLP.part.metal>
0.0000

> <Gold.PLP.part.buried>
-4.6615

> <Gold.PLP.part.nonpolar>
-32.5173

> <Gold.PLP.part.repulsive>
0.2817

> <Gold.PLP.ligand.clash>
0.0000

> <Gold.PLP.ligand.torsion>
0.9654

> <Gold.PLP.Chemscore.Hbond>
1.9273

> <Gold.PLP.Chemscore.CHOScore>
0.0000

> <Gold.PLP.Chemscore.Metal>
0.0000

> <Gold.Chemscore.Hbonds>
donor molecule, donor type, donor heavy atom, donor atom, acceptor molecule, acceptor atom, score
      L1  H     5    26       P1  8028  0.77
      P1  H  7989  7998       L1     7  0.96

> <Gold.PLP.Chemscore.Internal.Correction>
0.1602

> <Gold.Rescore>
     Score         DG    S(hbond)    S(metal)    S(lipo)     H(rot)  DE(clash)    DE(int)     intcor
     11.53     -15.29       1.61        0.00      86.63       2.22       0.22       3.54       ----

> <Gold.Chemscore.Fitness>
11.5274

> <Gold.Chemscore.DG>
-15.2916

> <Gold.Chemscore.ZeroCoef>
-5.4800

> <Gold.Chemscore.Hbond>
1.6066

> <Gold.Chemscore.Metal>
0.0000

> <Gold.Chemscore.Lipo>
86.6305

> <Gold.Chemscore.Internal_Hbond>
0.0000

> <Gold.Chemscore.DEClash>
0.2220

> <Gold.Chemscore.DEInternal>
3.5422

> <Gold.Chemscore.Rot>
2.2227

> <Gold.Chemscore.Internal.Correction>
   9.000000E+99

> <Gold.Chemscore.Hbonds>
donor molecule, donor type, donor heavy atom, donor atom, acceptor molecule, acceptor atom, score
      L1  H     5    26       P1  8028  0.75
      P1  H  7989  7998       L1     7  0.69

> <Gold.Chemscore.Hbond.Weighted>
-5.3660

> <Gold.Chemscore.Metal.Weighted>
-0.0000

> <Gold.Chemscore.Lipo.Weighted>
-10.1358

> <Gold.Chemscore.Internal_Hbond.Weighted>
0.0000

> <Gold.Chemscore.DEClash.Weighted>
0.2220

> <Gold.Chemscore.DEInternal.Weighted>
3.5422

> <Gold.Chemscore.Rot.Weighted>
5.6902

> <Gold.Chemscore.Internal.Correction.Weighted>
   9.000000E+99

> <Gold.Protein.RotatedTorsions>
[ 6907 6896 6895 6894 ] final -133.96 input  -60.11 | X-H torsion
[ 7974 7965 7964 7962 ] final   69.08 input  175.53 | X-H torsion
[ 8008 7997 7996 7995 ] final   77.71 input   59.86 | X-H torsion
[ 10167 10162 10161 10158 ] final  136.42 input  -65.29 | X-H torsion
[ 10718 10713 10712 10709 ] final  -70.99 input   66.30 | X-H torsion
[ 10763 10752 10751 10750 ] final  152.53 input  -60.55 | X-H torsion
[ 11005 11000 10999 10996 ] final   57.23 input  -57.11 | X-H torsion

> <Gold.Protein.ActiveResidues>
 VAL166  LYS551  ARG553  GLY616  TRP617  ASP618  TYR619  PRO620  LYS621  CYS622 
 ASP623  PHE694  ASN695  SER759  ASP760  ASP761  ALA762  ILE779  LEU786  VAL792 
 PHE793  MET794  SER795  GLU796  ALA797  LYS798  CYS799  TRP800  GLU811  SER814 

> <Gold.Protein.RotatedAtoms>
  150.9802  133.6253  159.2723 H   0  0  0  0  0  0  0  0  0  0  0  0  # atno 6907 bound_to 6896
  151.3511  135.0883  159.9413 H   0  0  0  0  0  0  0  0  0  0  0  0  # atno 6908 bound_to 6896
  152.5213  133.9395  159.7674 H   0  0  0  0  0  0  0  0  0  0  0  0  # atno 6909 bound_to 6896
  145.7948  139.2952  143.1189 H   0  0  0  0  0  0  0  0  0  0  0  0  # atno 7974 bound_to 7965
  155.8454  140.3460  155.5659 H   0  0  0  0  0  0  0  0  0  0  0  0  # atno 8008 bound_to 7997
  155.8095  140.0897  157.1931 H   0  0  0  0  0  0  0  0  0  0  0  0  # atno 8009 bound_to 7997
  154.4006  140.1450  156.3357 H   0  0  0  0  0  0  0  0  0  0  0  0  # atno 8010 bound_to 7997
  139.5180  144.6465  151.5424 H   0  0  0  0  0  0  0  0  0  0  0  0  # atno 10167 bound_to 10162
  156.0383  130.4342  150.2377 H   0  0  0  0  0  0  0  0  0  0  0  0  # atno 10718 bound_to 10713
  154.1215  135.2832  155.3207 H   0  0  0  0  0  0  0  0  0  0  0  0  # atno 10763 bound_to 10752
  154.6419  135.5399  153.7803 H   0  0  0  0  0  0  0  0  0  0  0  0  # atno 10764 bound_to 10752
  153.0311  135.6488  154.1369 H   0  0  0  0  0  0  0  0  0  0  0  0  # atno 10765 bound_to 10752
  140.0468  134.5794  155.9312 H   0  0  0  0  0  0  0  0  0  0  0  0  # atno 11005 bound_to 11000
  145.9939  140.8579  143.0052 LP  0  0  0  0  0  0  0  0  0  0  0  0  # atno 17320 bound_to 7965
  144.6776  140.2255  143.7361 LP  0  0  0  0  0  0  0  0  0  0  0  0  # atno 17321 bound_to 7965
  140.6252  143.9182  150.6559 LP  0  0  0  0  0  0  0  0  0  0  0  0  # atno 17342 bound_to 10162
  140.2468  143.3622  152.1439 LP  0  0  0  0  0  0  0  0  0  0  0  0  # atno 17343 bound_to 10162
  157.0475  131.0053  151.3264 LP  0  0  0  0  0  0  0  0  0  0  0  0  # atno 17370 bound_to 10713
  157.5165  130.7971  149.7761 LP  0  0  0  0  0  0  0  0  0  0  0  0  # atno 17371 bound_to 10713
  141.1911  133.6570  156.5441 LP  0  0  0  0  0  0  0  0  0  0  0  0  # atno 17394 bound_to 11000
  140.3980  134.7381  157.4762 LP  0  0  0  0  0  0  0  0  0  0  0  0  # atno 17395 bound_to 11000

$$$$
