AV-unprocessed.smi:168|AV-procd|sdf|1396|dock9
  -GOLD-   2262019143D 1   1.00000     0.00000
 Structure written by MMmdl.
 62 66  0  0  0  0  0  0  0  0  1 V2000
  147.3341  141.8510  153.8303 C   0  0  0  0  0  0  0  0  0  0  0  0
  146.7238  140.5863  154.4594 C   0  0  0  0  0  0  0  0  0  0  0  0
  146.0058  140.9746  155.7630 C   0  0  0  0  0  0  0  0  0  0  0  0
  147.7805  139.4969  154.7073 C   0  0  2  0  0  0  0  0  0  0  0  0
  147.4282  138.5686  155.7783 N   0  0  0  0  0  0  0  0  0  0  0  0
  146.7519  137.3802  155.3904 C   0  0  0  0  0  0  0  0  0  0  0  0
  146.5459  136.4610  156.3670 N   0  0  0  0  0  0  0  0  0  0  0  0
  145.9106  135.3137  156.1148 C   0  0  0  0  0  0  0  0  0  0  0  0
  145.4055  134.8778  154.9611 N   0  0  0  0  0  0  0  0  0  0  0  0
  145.6131  135.7826  153.9634 C   0  0  0  0  0  0  0  0  0  0  0  0
  146.2639  137.0444  154.0905 C   0  0  0  0  0  0  0  0  0  0  0  0
  146.2692  137.6899  152.8586 N   0  0  0  0  0  0  0  0  0  0  0  0
  145.6525  136.8657  152.0574 C   0  0  0  0  0  0  0  0  0  0  0  0
  145.2525  135.6809  152.6306 N   0  0  0  0  0  0  0  0  0  0  0  0
  144.5268  134.6214  151.9917 C   0  0  0  0  0  0  0  0  0  0  0  0
  145.0642  133.1854  151.9859 C   0  0  0  0  0  0  0  0  0  0  0  0
  144.5367  132.9834  150.5471 C   0  0  0  0  0  0  0  0  0  0  0  0
  145.4974  132.2957  149.5589 C   0  0  0  0  0  0  0  0  0  0  0  0
  146.8410  132.7043  149.7240 O   0  0  0  0  0  0  0  0  0  0  0  0
  143.2043  132.2167  150.4115 C   0  0  0  0  0  0  0  0  0  0  0  0
  142.7351  132.1362  149.0809 O   0  0  0  0  0  0  0  0  0  0  0  0
  144.4510  134.5248  150.4629 C   0  0  0  0  0  0  0  0  0  0  0  0
  148.8313  138.3738  156.1071 C   0  0  0  0  0  0  0  0  0  0  0  0
  149.0826  139.7645  155.5019 C   0  0  0  0  0  0  0  0  0  0  0  0
  149.0865  140.9267  156.5218 C   0  0  0  0  0  0  0  0  0  0  0  0
  150.3471  140.9424  157.4037 C   0  0  0  0  0  0  0  0  0  0  0  0
  151.6200  141.0103  156.5501 C   0  0  0  0  0  0  0  0  0  0  0  0
  151.6404  139.8979  155.4936 C   0  0  0  0  0  0  0  0  0  0  0  0
  150.3543  139.9066  154.6505 C   0  0  0  0  0  0  0  0  0  0  0  0
  148.1388  142.2521  154.4474 H   0  0  0  0  0  0  0  0  0  0  0  0
  146.5838  142.6331  153.7122 H   0  0  0  0  0  0  0  0  0  0  0  0
  147.7422  141.6507  152.8405 H   0  0  0  0  0  0  0  0  0  0  0  0
  145.9677  140.2072  153.7710 H   0  0  0  0  0  0  0  0  0  0  0  0
  146.7057  141.3935  156.4865 H   0  0  0  0  0  0  0  0  0  0  0  0
  145.5207  140.1232  156.2360 H   0  0  0  0  0  0  0  0  0  0  0  0
  145.2340  141.7221  155.5781 H   0  0  0  0  0  0  0  0  0  0  0  0
  148.0242  138.9664  153.7866 H   0  0  0  0  0  0  0  0  0  0  0  0
  145.7919  134.6497  156.9583 H   0  0  0  0  0  0  0  0  0  0  0  0
  145.4788  137.1001  151.0173 H   0  0  0  0  0  0  0  0  0  0  0  0
  143.5254  134.6510  152.4227 H   0  0  0  0  0  0  0  0  0  0  0  0
  146.1518  133.1529  152.0618 H   0  0  0  0  0  0  0  0  0  0  0  0
  144.6083  132.5375  152.7352 H   0  0  0  0  0  0  0  0  0  0  0  0
  145.4639  131.2120  149.6771 H   0  0  0  0  0  0  0  0  0  0  0  0
  145.2107  132.5081  148.5284 H   0  0  0  0  0  0  0  0  0  0  0  0
  147.3704  131.9388  149.8885 H   0  0  0  0  0  0  0  0  0  0  0  0
  143.3051  131.1979  150.7871 H   0  0  0  0  0  0  0  0  0  0  0  0
  142.4244  132.6923  151.0073 H   0  0  0  0  0  0  0  0  0  0  0  0
  142.0833  132.8080  148.9508 H   0  0  0  0  0  0  0  0  0  0  0  0
  143.5227  134.9087  150.0385 H   0  0  0  0  0  0  0  0  0  0  0  0
  145.3131  134.9823  149.9757 H   0  0  0  0  0  0  0  0  0  0  0  0
  149.0188  138.2991  157.1782 H   0  0  0  0  0  0  0  0  0  0  0  0
  149.3138  137.5668  155.5542 H   0  0  0  0  0  0  0  0  0  0  0  0
  149.0141  141.8859  156.0118 H   0  0  0  0  0  0  0  0  0  0  0  0
  148.2092  140.8724  157.1674 H   0  0  0  0  0  0  0  0  0  0  0  0
  150.3131  141.7917  158.0864 H   0  0  0  0  0  0  0  0  0  0  0  0
  150.3725  140.0486  158.0275 H   0  0  0  0  0  0  0  0  0  0  0  0
  151.6713  141.9806  156.0547 H   0  0  0  0  0  0  0  0  0  0  0  0
  152.5027  140.9400  157.1864 H   0  0  0  0  0  0  0  0  0  0  0  0
  152.5101  140.0165  154.8468 H   0  0  0  0  0  0  0  0  0  0  0  0
  151.7497  138.9298  155.9836 H   0  0  0  0  0  0  0  0  0  0  0  0
  150.4094  139.1009  153.9176 H   0  0  0  0  0  0  0  0  0  0  0  0
  150.3131  140.8282  154.0688 H   0  0  0  0  0  0  0  0  0  0  0  0
  1  2  1  0  0  0  0
  1 30  1  0  0  0  0
  1 31  1  0  0  0  0
  1 32  1  0  0  0  0
  2  3  1  0  0  0  0
  2  4  1  0  0  0  0
  2 33  1  0  0  0  0
  3 34  1  0  0  0  0
  3 35  1  0  0  0  0
  3 36  1  0  0  0  0
  4 24  1  0  0  0  0
  4  5  1  0  0  0  0
  4 37  1  0  0  0  0
  5  6  1  0  0  0  0
  5 23  1  0  0  0  0
  6 11  1  0  0  0  0
  6  7  2  0  0  0  0
  7  8  1  0  0  0  0
  8  9  2  0  0  0  0
  8 38  1  0  0  0  0
  9 10  1  0  0  0  0
 10 14  1  0  0  0  0
 10 11  2  0  0  0  0
 11 12  1  0  0  0  0
 12 13  2  0  0  0  0
 13 14  1  0  0  0  0
 13 39  1  0  0  0  0
 14 15  1  0  0  0  0
 15 22  1  0  0  0  0
 15 16  1  0  0  0  0
 15 40  1  0  0  0  0
 16 17  1  0  0  0  0
 16 41  1  0  0  0  0
 16 42  1  0  0  0  0
 17 18  1  0  0  0  0
 17 20  1  0  0  0  0
 17 22  1  0  0  0  0
 18 19  1  0  0  0  0
 18 43  1  0  0  0  0
 18 44  1  0  0  0  0
 19 45  1  0  0  0  0
 20 21  1  0  0  0  0
 20 46  1  0  0  0  0
 20 47  1  0  0  0  0
 21 48  1  0  0  0  0
 22 49  1  0  0  0  0
 22 50  1  0  0  0  0
 23 24  1  0  0  0  0
 23 51  1  0  0  0  0
 23 52  1  0  0  0  0
 24 29  1  0  0  0  0
 24 25  1  0  0  0  0
 25 26  1  0  0  0  0
 25 53  1  0  0  0  0
 25 54  1  0  0  0  0
 26 27  1  0  0  0  0
 26 55  1  0  0  0  0
 26 56  1  0  0  0  0
 27 28  1  0  0  0  0
 27 57  1  0  0  0  0
 27 58  1  0  0  0  0
 28 29  1  0  0  0  0
 28 59  1  0  0  0  0
 28 60  1  0  0  0  0
 29 61  1  0  0  0  0
 29 62  1  0  0  0  0
M  END
> <s_m_source_file>
AV-unprocessed.smi

> <i_m_source_file_index>
168

> <i_lp_mmshare_version>
43012

> <i_f3d_flags>
0

> <s_epik_input>
W0NIMl0xW0NIMl1bQ0gyXVtDSDJdW0NIMl1DMTJbQ0BIXShbQ0hdKFtDSDNdKVtDSDNdKU4oW0NIMl0yKWMobltjSF1uMyljKGMzNCluW2NIXW40W0NIXShbQ0gyXTUpW0NIMl1DNShbQ0gyXVtPSF0pW0NIMl1bT0hd

> <s_epik_cmdline>
J2VwaWtfcHl0aG9uJywgJy1waCcsICc3LjAnLCAnLXRuJywgJzgnLCAnLW1hJywgJzIwMCcsICctbWV0YWxfYmluZGluZycsICctaW1hZScsICc8aW5maWxlLm1hZT4nLCAnLW9tYWUnLCAnPG91dGZpbGUubWFlPic=

> <r_lp_tautomer_probability>
1

> <r_epik_Ionization_Penalty>
0.00324652

> <r_epik_Ionization_Penalty_Charging>
0

> <r_epik_Ionization_Penalty_Neutral>
0.00324652

> <r_epik_State_Penalty>
0.00223464

> <r_epik_Charging_Adjusted_Penalty>
0.00223464

> <i_epik_Tot_Q>
0

> <i_epik_Tot_abs_Q>
0

> <r_epik_Metal_State_Penalty>
-0

> <b_epik_Metal_Only>
0

> <s_lp_Force_Field>
OPLS_2005

> <r_lp_Energy>
66.0346

> <b_lp_Chiralities_Consistent>
1

> <s_lp_Variant>
AV-unprocessed.smi:168-1

> <Gold.Version>
5.8.1

> <Gold.Id.Protein>
6NUR|6NUR_protein|mol2

> <Gold.PLP.Fitness>
48.7261

> <Gold.PLP.PLP>
-37.9068

> <Gold.PLP.part.hbond>
-5.6678

> <Gold.PLP.part.metal>
0.0000

> <Gold.PLP.part.buried>
-3.5174

> <Gold.PLP.part.nonpolar>
-29.1919

> <Gold.PLP.part.repulsive>
0.2896

> <Gold.PLP.ligand.clash>
0.0000

> <Gold.PLP.ligand.torsion>
0.8717

> <Gold.PLP.Chemscore.Hbond>
2.9013

> <Gold.PLP.Chemscore.CHOScore>
1.0000

> <Gold.PLP.Chemscore.Metal>
0.0000

> <Gold.Chemscore.Hbonds>
donor molecule, donor type, donor heavy atom, donor atom, acceptor molecule, acceptor atom, score
      L1  H    19    45       P1 10747  1.00
      L1  H    21    48       P1 10186  1.00
      P1  H 10785 10796       L1    21  0.80
      L1  C    13    39       P1 10171  1.00

> <Gold.PLP.Chemscore.Internal.Correction>
0.8590

> <Gold.Rescore>
     Score         DG    S(hbond)    S(metal)    S(lipo)     H(rot)  DE(clash)    DE(int)     intcor
     14.99     -16.91       2.52        0.00      94.09       3.12       0.08       1.85       ----

> <Gold.Chemscore.Fitness>
14.9856

> <Gold.Chemscore.DG>
-16.9109

> <Gold.Chemscore.ZeroCoef>
-5.4800

> <Gold.Chemscore.Hbond>
2.5164

> <Gold.Chemscore.Metal>
0.0000

> <Gold.Chemscore.Lipo>
94.0901

> <Gold.Chemscore.Internal_Hbond>
0.0000

> <Gold.Chemscore.DEClash>
0.0765

> <Gold.Chemscore.DEInternal>
1.8488

> <Gold.Chemscore.Rot>
3.1181

> <Gold.Chemscore.Internal.Correction>
   9.000000E+99

> <Gold.Chemscore.Hbonds>
donor molecule, donor type, donor heavy atom, donor atom, acceptor molecule, acceptor atom, score
      L1  H    19    45       P1 10747  0.98
      L1  H    21    48       P1 10186  0.93
      P1  H 10785 10796       L1    21  0.16

> <Gold.Chemscore.Hbond.Weighted>
-8.4046

> <Gold.Chemscore.Metal.Weighted>
-0.0000

> <Gold.Chemscore.Lipo.Weighted>
-11.0085

> <Gold.Chemscore.Internal_Hbond.Weighted>
0.0000

> <Gold.Chemscore.DEClash.Weighted>
0.0765

> <Gold.Chemscore.DEInternal.Weighted>
1.8488

> <Gold.Chemscore.Rot.Weighted>
7.9823

> <Gold.Chemscore.Internal.Correction.Weighted>
   9.000000E+99

> <Gold.Protein.RotatedTorsions>
[ 6907 6896 6895 6894 ] final  134.71 input  -60.11 | X-H torsion
[ 7974 7965 7964 7962 ] final  115.49 input  175.53 | X-H torsion
[ 8008 7997 7996 7995 ] final  136.31 input   59.86 | X-H torsion
[ 10167 10162 10161 10158 ] final  -29.09 input  -65.29 | X-H torsion
[ 10718 10713 10712 10709 ] final -169.06 input   66.30 | X-H torsion
[ 10763 10752 10751 10750 ] final  145.53 input  -60.55 | X-H torsion
[ 11005 11000 10999 10996 ] final   74.97 input  -57.11 | X-H torsion

> <Gold.Protein.ActiveResidues>
 VAL166  LYS551  ARG553  GLY616  TRP617  ASP618  TYR619  PRO620  LYS621  CYS622 
 ASP623  PHE694  ASN695  SER759  ASP760  ASP761  ALA762  ILE779  LEU786  VAL792 
 PHE793  MET794  SER795  GLU796  ALA797  LYS798  CYS799  TRP800  GLU811  SER814 

> <Gold.Protein.RotatedAtoms>
  152.3083  133.5726  159.5663 H   0  0  0  0  0  0  0  0  0  0  0  0  # atno 6907 bound_to 6896
  150.7310  134.0190  159.3704 H   0  0  0  0  0  0  0  0  0  0  0  0  # atno 6908 bound_to 6896
  151.8084  135.0688  160.0460 H   0  0  0  0  0  0  0  0  0  0  0  0  # atno 6909 bound_to 6896
  145.1913  139.2998  143.4366 H   0  0  0  0  0  0  0  0  0  0  0  0  # atno 7974 bound_to 7965
  156.3004  140.2448  156.3724 H   0  0  0  0  0  0  0  0  0  0  0  0  # atno 8008 bound_to 7997
  154.8776  140.0414  157.1782 H   0  0  0  0  0  0  0  0  0  0  0  0  # atno 8009 bound_to 7997
  154.8729  140.2938  155.5474 H   0  0  0  0  0  0  0  0  0  0  0  0  # atno 8010 bound_to 7997
  140.7264  143.3957  151.1352 H   0  0  0  0  0  0  0  0  0  0  0  0  # atno 10167 bound_to 10162
  156.7061  130.9215  151.3084 H   0  0  0  0  0  0  0  0  0  0  0  0  # atno 10718 bound_to 10713
  154.0069  135.2918  155.3396 H   0  0  0  0  0  0  0  0  0  0  0  0  # atno 10763 bound_to 10752
  154.7126  135.5143  153.8693 H   0  0  0  0  0  0  0  0  0  0  0  0  # atno 10764 bound_to 10752
  153.0740  135.6657  154.0305 H   0  0  0  0  0  0  0  0  0  0  0  0  # atno 10765 bound_to 10752
  139.9365  134.7478  156.1214 H   0  0  0  0  0  0  0  0  0  0  0  0  # atno 11005 bound_to 11000
  146.3435  140.2127  142.8590 LP  0  0  0  0  0  0  0  0  0  0  0  0  # atno 17320 bound_to 7965
  145.0038  140.8655  143.5265 LP  0  0  0  0  0  0  0  0  0  0  0  0  # atno 17321 bound_to 7965
  139.7569  143.8694  152.3091 LP  0  0  0  0  0  0  0  0  0  0  0  0  # atno 17342 bound_to 10162
  139.8567  144.7138  150.9149 LP  0  0  0  0  0  0  0  0  0  0  0  0  # atno 17343 bound_to 10162
  157.6954  130.9277  150.0631 LP  0  0  0  0  0  0  0  0  0  0  0  0  # atno 17370 bound_to 10713
  156.1694  130.3646  149.9186 LP  0  0  0  0  0  0  0  0  0  0  0  0  # atno 17371 bound_to 10713
  141.0981  133.6687  156.2692 LP  0  0  0  0  0  0  0  0  0  0  0  0  # atno 17394 bound_to 11000
  140.6061  134.5505  157.5526 LP  0  0  0  0  0  0  0  0  0  0  0  0  # atno 17395 bound_to 11000

$$$$
