AV-unprocessed.smi:356|AV-procd|sdf|2415|dock4
  -GOLD-   2262022353D 1   1.00000     0.00000
 Structure written by MMmdl.
 43 45  0  0  0  0  0  0  0  0  3 V2000
  149.1762  141.2138  154.7634 C   0  0  0  0  0  0  0  0  0  0  0  0
  150.0576  141.5713  155.9126 C   0  0  0  0  0  0  0  0  0  0  0  0
  150.2390  142.8208  156.4250 N   0  3  0  0  0  0  0  0  0  0  0  0
  151.1322  142.7671  157.4957 C   0  0  0  0  0  0  0  0  0  0  0  0
  151.6217  143.7729  158.3234 C   0  0  0  0  0  0  0  0  0  0  0  0
  152.5303  143.3800  159.3276 C   0  0  0  0  0  0  0  0  0  0  0  0
  152.9175  142.0329  159.4802 C   0  0  0  0  0  0  0  0  0  0  0  0
  152.4127  141.0214  158.6366 C   0  0  0  0  0  0  0  0  0  0  0  0
  151.5152  141.4177  157.6444 C   0  0  0  0  0  0  0  0  0  0  0  0
  150.8285  140.7165  156.6444 N   0  0  0  0  0  0  0  0  0  0  0  0
  151.0067  139.2612  156.5119 C   0  0  0  0  0  0  0  0  0  0  0  0
  150.9445  138.7825  155.0474 C   0  0  1  0  0  0  0  0  0  0  0  0
  151.7764  139.5987  154.2455 O   0  0  0  0  0  0  0  0  0  0  0  0
  151.3996  137.3166  154.9022 C   0  0  0  0  0  0  0  0  0  0  0  0
  150.2690  136.3923  154.6290 N   0  3  0  0  0  0  0  0  0  0  0  0
  150.6634  134.9670  154.7271 C   0  0  0  0  0  0  0  0  0  0  0  0
  149.4774  134.0547  154.3703 C   0  0  0  0  0  0  0  0  0  0  0  0
  148.3783  134.3453  155.2246 O   0  0  0  0  0  0  0  0  0  0  0  0
  147.9323  135.6878  155.0802 C   0  0  0  0  0  0  0  0  0  0  0  0
  149.0678  136.6538  155.4605 C   0  0  0  0  0  0  0  0  0  0  0  0
  148.7142  142.1069  154.3420 H   0  0  0  0  0  0  0  0  0  0  0  0
  148.3872  140.5371  155.0918 H   0  0  0  0  0  0  0  0  0  0  0  0
  149.7551  140.7220  153.9817 H   0  0  0  0  0  0  0  0  0  0  0  0
  151.3260  144.8056  158.2080 H   0  0  0  0  0  0  0  0  0  0  0  0
  152.9386  144.1268  159.9935 H   0  0  0  0  0  0  0  0  0  0  0  0
  153.6173  141.7701  160.2606 H   0  0  0  0  0  0  0  0  0  0  0  0
  152.7202  139.9947  158.7648 H   0  0  0  0  0  0  0  0  0  0  0  0
  151.9411  138.9650  156.9889 H   0  0  0  0  0  0  0  0  0  0  0  0
  150.2114  138.7882  157.0892 H   0  0  0  0  0  0  0  0  0  0  0  0
  149.9207  138.8950  154.6927 H   0  0  0  0  0  0  0  0  0  0  0  0
  152.5263  139.8626  154.7567 H   0  0  0  0  0  0  0  0  0  0  0  0
  152.1255  137.2593  154.0894 H   0  0  0  0  0  0  0  0  0  0  0  0
  151.9246  136.9864  155.8001 H   0  0  0  0  0  0  0  0  0  0  0  0
  151.4950  134.7641  154.0512 H   0  0  0  0  0  0  0  0  0  0  0  0
  151.0106  134.7521  155.7393 H   0  0  0  0  0  0  0  0  0  0  0  0
  149.1871  134.1819  153.3260 H   0  0  0  0  0  0  0  0  0  0  0  0
  149.7567  133.0088  154.4978 H   0  0  0  0  0  0  0  0  0  0  0  0
  147.5948  135.8648  154.0577 H   0  0  0  0  0  0  0  0  0  0  0  0
  147.0719  135.8449  155.7308 H   0  0  0  0  0  0  0  0  0  0  0  0
  149.3189  136.5337  156.5156 H   0  0  0  0  0  0  0  0  0  0  0  0
  148.7250  137.6793  155.3293 H   0  0  0  0  0  0  0  0  0  0  0  0
  150.0022  136.5452  153.6664 H   0  0  0  0  0  0  0  0  0  0  0  0
  149.7840  143.6503  156.0658 H   0  0  0  0  0  0  0  0  0  0  0  0
  1  2  1  0  0  0  0
  1 21  1  0  0  0  0
  1 22  1  0  0  0  0
  1 23  1  0  0  0  0
  2 10  1  0  0  0  0
  2  3  2  0  0  0  0
  3  4  1  0  0  0  0
  3 43  1  0  0  0  0
  4  9  2  0  0  0  0
  4  5  1  0  0  0  0
  5  6  2  0  0  0  0
  5 24  1  0  0  0  0
  6  7  1  0  0  0  0
  6 25  1  0  0  0  0
  7  8  2  0  0  0  0
  7 26  1  0  0  0  0
  8  9  1  0  0  0  0
  8 27  1  0  0  0  0
  9 10  1  0  0  0  0
 10 11  1  0  0  0  0
 11 12  1  0  0  0  0
 11 28  1  0  0  0  0
 11 29  1  0  0  0  0
 12 13  1  0  0  0  0
 12 14  1  0  0  0  0
 12 30  1  0  0  0  0
 13 31  1  0  0  0  0
 14 15  1  0  0  0  0
 14 32  1  0  0  0  0
 14 33  1  0  0  0  0
 15 20  1  0  0  0  0
 15 16  1  0  0  0  0
 15 42  1  0  0  0  0
 16 17  1  0  0  0  0
 16 34  1  0  0  0  0
 16 35  1  0  0  0  0
 17 18  1  0  0  0  0
 17 36  1  0  0  0  0
 17 37  1  0  0  0  0
 18 19  1  0  0  0  0
 19 20  1  0  0  0  0
 19 38  1  0  0  0  0
 19 39  1  0  0  0  0
 20 40  1  0  0  0  0
 20 41  1  0  0  0  0
M  CHG  1   3   1
M  CHG  1  15   1
M  END
> <s_m_source_file>
AV-unprocessed.smi

> <i_m_source_file_index>
356

> <i_lp_mmshare_version>
43012

> <i_f3d_flags>
0

> <s_epik_input>
W2NIXTFbY0hdW2NIXVtjSF1jKGMxMiluKGMobjIpW0NIM10pW0NIMl1bQ0BIXShbT0hdKVtDSDJdTjNbQ0gyXVtDSDJdT1tDSDJdW0NIMl0z

> <s_epik_cmdline>
J2VwaWtfcHl0aG9uJywgJy1waCcsICc3LjAnLCAnLXRuJywgJzgnLCAnLW1hJywgJzIwMCcsICctbWV0YWxfYmluZGluZycsICctaW1hZScsICc8aW5maWxlLm1hZT4nLCAnLW9tYWUnLCAnPG91dGZpbGUubWFlPic=

> <r_epik_Ionization_Penalty>
1.81899

> <r_epik_Ionization_Penalty_Charging>
1.81898

> <r_epik_Ionization_Penalty_Neutral>
1.42224e-05

> <r_epik_State_Penalty>
1.87399

> <r_epik_Charging_Adjusted_Penalty>
3.69296

> <i_epik_Tot_Q>
2

> <i_epik_Tot_abs_Q>
2

> <r_epik_Metal_State_Penalty>
5.87601

> <b_epik_Metal_Only>
0

> <s_lp_Force_Field>
OPLS_2005

> <r_lp_Energy>
27.965

> <b_lp_Chiralities_Consistent>
1

> <s_lp_Variant>
AV-unprocessed.smi:356-8

> <Gold.Version>
5.8.1

> <Gold.Id.Protein>
6NUR|6NUR_protein|mol2

> <Gold.PLP.Fitness>
50.8833

> <Gold.PLP.PLP>
-38.2338

> <Gold.PLP.part.hbond>
-3.0000

> <Gold.PLP.part.metal>
0.0000

> <Gold.PLP.part.buried>
-2.6050

> <Gold.PLP.part.nonpolar>
-33.0062

> <Gold.PLP.part.repulsive>
0.1951

> <Gold.PLP.ligand.clash>
0.0000

> <Gold.PLP.ligand.torsion>
1.1876

> <Gold.PLP.Chemscore.Hbond>
4.9920

> <Gold.PLP.Chemscore.CHOScore>
0.0000

> <Gold.PLP.Chemscore.Metal>
0.0000

> <Gold.Chemscore.Hbonds>
donor molecule, donor type, donor heavy atom, donor atom, acceptor molecule, acceptor atom, score
      L1  H     3    43       P1  8028  1.59
      L1  H    15    42       P1  7948  1.64
      P1  H  7989  7998       L1    13  0.66

> <Gold.PLP.Chemscore.Internal.Correction>
0.0487

> <Gold.Rescore>
     Score         DG    S(hbond)    S(metal)    S(lipo)     H(rot)  DE(clash)    DE(int)     intcor
     18.52     -19.71       2.55        0.00      95.52       2.13       0.06       1.13       ----

> <Gold.Chemscore.Fitness>
18.5194

> <Gold.Chemscore.DG>
-19.7106

> <Gold.Chemscore.ZeroCoef>
-5.4800

> <Gold.Chemscore.Hbond>
2.5492

> <Gold.Chemscore.Metal>
0.0000

> <Gold.Chemscore.Lipo>
95.5192

> <Gold.Chemscore.Internal_Hbond>
0.0000

> <Gold.Chemscore.DEClash>
0.0605

> <Gold.Chemscore.DEInternal>
1.1307

> <Gold.Chemscore.Rot>
2.1327

> <Gold.Chemscore.Internal.Correction>
   9.000000E+99

> <Gold.Chemscore.Hbonds>
donor molecule, donor type, donor heavy atom, donor atom, acceptor molecule, acceptor atom, score
      L1  H     3    43       P1  8028  0.79
      L1  H    15    42       P1  7948  0.15
      P1  H  7989  7998       L1    13  0.09

> <Gold.Chemscore.Hbond.Weighted>
-8.5144

> <Gold.Chemscore.Metal.Weighted>
-0.0000

> <Gold.Chemscore.Lipo.Weighted>
-11.1757

> <Gold.Chemscore.Internal_Hbond.Weighted>
0.0000

> <Gold.Chemscore.DEClash.Weighted>
0.0605

> <Gold.Chemscore.DEInternal.Weighted>
1.1307

> <Gold.Chemscore.Rot.Weighted>
5.4596

> <Gold.Chemscore.Internal.Correction.Weighted>
   9.000000E+99

> <Gold.Protein.RotatedTorsions>
[ 6907 6896 6895 6894 ] final  128.46 input  -60.11 | X-H torsion
[ 7974 7965 7964 7962 ] final   92.42 input  175.53 | X-H torsion
[ 8008 7997 7996 7995 ] final  -59.27 input   59.86 | X-H torsion
[ 10167 10162 10161 10158 ] final   -9.40 input  -65.29 | X-H torsion
[ 10718 10713 10712 10709 ] final  -76.31 input   66.30 | X-H torsion
[ 10763 10752 10751 10750 ] final -144.20 input  -60.55 | X-H torsion
[ 11005 11000 10999 10996 ] final  -33.29 input  -57.11 | X-H torsion

> <Gold.Protein.ActiveResidues>
 VAL166  LYS551  ARG553  GLY616  TRP617  ASP618  TYR619  PRO620  LYS621  CYS622 
 ASP623  PHE694  ASN695  SER759  ASP760  ASP761  ALA762  ILE779  LEU786  VAL792 
 PHE793  MET794  SER795  GLU796  ALA797  LYS798  CYS799  TRP800  GLU811  SER814 

> <Gold.Protein.RotatedAtoms>
  152.3717  133.6428  159.6092 H   0  0  0  0  0  0  0  0  0  0  0  0  # atno 6907 bound_to 6896
  150.7674  133.9259  159.3421 H   0  0  0  0  0  0  0  0  0  0  0  0  # atno 6908 bound_to 6896
  151.7080  135.0919  160.0314 H   0  0  0  0  0  0  0  0  0  0  0  0  # atno 6909 bound_to 6896
  145.4926  139.2276  143.2822 H   0  0  0  0  0  0  0  0  0  0  0  0  # atno 7974 bound_to 7965
  154.4345  140.1065  156.6090 H   0  0  0  0  0  0  0  0  0  0  0  0  # atno 8008 bound_to 7997
  155.5830  140.3491  155.4527 H   0  0  0  0  0  0  0  0  0  0  0  0  # atno 8009 bound_to 7997
  156.0304  140.1259  157.0253 H   0  0  0  0  0  0  0  0  0  0  0  0  # atno 8010 bound_to 7997
  140.7086  143.5862  150.8940 H   0  0  0  0  0  0  0  0  0  0  0  0  # atno 10167 bound_to 10162
  156.0179  130.4462  150.3174 H   0  0  0  0  0  0  0  0  0  0  0  0  # atno 10718 bound_to 10713
  154.8438  135.3447  154.6308 H   0  0  0  0  0  0  0  0  0  0  0  0  # atno 10763 bound_to 10752
  153.6918  135.6974  153.5092 H   0  0  0  0  0  0  0  0  0  0  0  0  # atno 10764 bound_to 10752
  153.2589  135.4329  155.0829 H   0  0  0  0  0  0  0  0  0  0  0  0  # atno 10765 bound_to 10752
  140.9623  133.7157  156.1389 H   0  0  0  0  0  0  0  0  0  0  0  0  # atno 11005 bound_to 11000
  146.2275  140.5721  142.8990 LP  0  0  0  0  0  0  0  0  0  0  0  0  # atno 17320 bound_to 7965
  144.7825  140.5870  143.6596 LP  0  0  0  0  0  0  0  0  0  0  0  0  # atno 17321 bound_to 7965
  139.9588  143.6187  152.3008 LP  0  0  0  0  0  0  0  0  0  0  0  0  # atno 17342 bound_to 10162
  139.6732  144.7660  151.1744 LP  0  0  0  0  0  0  0  0  0  0  0  0  # atno 17343 bound_to 10162
  157.1275  131.0263  151.2983 LP  0  0  0  0  0  0  0  0  0  0  0  0  # atno 17370 bound_to 10713
  157.4578  130.7635  149.7208 LP  0  0  0  0  0  0  0  0  0  0  0  0  # atno 17371 bound_to 10713
  140.7450  134.4108  157.5549 LP  0  0  0  0  0  0  0  0  0  0  0  0  # atno 17394 bound_to 11000
  139.8882  134.8862  156.2486 LP  0  0  0  0  0  0  0  0  0  0  0  0  # atno 17395 bound_to 11000

$$$$
