AV-unprocessed.smi:3116|AV-procd|sdf|11872|dock9
  -GOLD-   2272017253D 1   1.00000     0.00000
 Structure written by MMmdl.
 33 33  0  0  0  0  0  0  0  0  1 V2000
  150.0364  140.5292  157.5633 C   0  0  0  0  0  0  0  0  0  0  0  0
  151.4127  139.9346  157.2275 C   0  0  2  0  0  0  0  0  0  0  0  0
  152.4695  140.7586  157.8384 N   0  0  0  0  0  0  0  0  0  0  0  0
  152.4773  140.7887  159.3018 C   0  0  1  0  0  0  0  0  0  0  0  0
  153.1942  139.5227  159.8039 C   0  0  0  0  0  0  0  0  0  0  0  0
  153.1333  142.0993  159.8130 C   0  0  2  0  0  0  0  0  0  0  0  0
  153.4225  142.0825  161.3251 C   0  0  0  0  0  0  0  0  0  0  0  0
  152.4039  143.3028  159.4215 N   0  0  0  0  0  0  0  0  0  0  0  0
  152.0025  144.3698  160.2019 C   0  0  0  0  0  0  0  0  0  0  0  0
  151.3335  145.2422  159.3927 C   0  0  0  0  0  0  0  0  0  0  0  0
  151.3713  144.6148  158.1170 C   0  0  0  0  0  0  0  0  0  0  0  0
  152.0081  143.4556  158.1378 N   0  0  0  0  0  0  0  0  0  0  0  0
  151.5738  139.7796  155.7066 C   0  0  0  0  0  0  0  0  0  0  0  0
  152.6831  139.1796  155.2679 N   0  0  0  0  0  0  0  0  0  0  0  0
  150.7154  140.2105  154.9387 O   0  0  0  0  0  0  0  0  0  0  0  0
  149.2304  139.9269  157.1421 H   0  0  0  0  0  0  0  0  0  0  0  0
  149.9307  141.5440  157.1772 H   0  0  0  0  0  0  0  0  0  0  0  0
  149.8826  140.5699  158.6422 H   0  0  0  0  0  0  0  0  0  0  0  0
  151.4583  138.9435  157.6827 H   0  0  0  0  0  0  0  0  0  0  0  0
  153.3858  140.5126  157.4912 H   0  0  0  0  0  0  0  0  0  0  0  0
  151.4579  140.7724  159.6900 H   0  0  0  0  0  0  0  0  0  0  0  0
  153.2563  139.5174  160.8924 H   0  0  0  0  0  0  0  0  0  0  0  0
  154.2103  139.4485  159.4144 H   0  0  0  0  0  0  0  0  0  0  0  0
  152.6617  138.6196  159.5052 H   0  0  0  0  0  0  0  0  0  0  0  0
  154.1110  142.1573  159.3307 H   0  0  0  0  0  0  0  0  0  0  0  0
  154.0415  141.2264  161.5946 H   0  0  0  0  0  0  0  0  0  0  0  0
  152.5074  142.0256  161.9148 H   0  0  0  0  0  0  0  0  0  0  0  0
  153.9568  142.9830  161.6298 H   0  0  0  0  0  0  0  0  0  0  0  0
  152.2219  144.4187  161.2582 H   0  0  0  0  0  0  0  0  0  0  0  0
  150.8834  146.1837  159.6701 H   0  0  0  0  0  0  0  0  0  0  0  0
  150.9561  144.9636  157.1832 H   0  0  0  0  0  0  0  0  0  0  0  0
  152.8324  139.0565  154.2770 H   0  0  0  0  0  0  0  0  0  0  0  0
  153.3700  138.8516  155.9314 H   0  0  0  0  0  0  0  0  0  0  0  0
  1  2  1  0  0  0  0
  1 16  1  0  0  0  0
  1 17  1  0  0  0  0
  1 18  1  0  0  0  0
  2  3  1  0  0  0  0
  2 13  1  0  0  0  0
  2 19  1  0  0  0  0
  3  4  1  0  0  0  0
  3 20  1  0  0  0  0
  4  5  1  0  0  0  0
  4  6  1  0  0  0  0
  4 21  1  0  0  0  0
  5 22  1  0  0  0  0
  5 23  1  0  0  0  0
  5 24  1  0  0  0  0
  6  7  1  0  0  0  0
  6  8  1  0  0  0  0
  6 25  1  0  0  0  0
  7 26  1  0  0  0  0
  7 27  1  0  0  0  0
  7 28  1  0  0  0  0
  8 12  1  0  0  0  0
  8  9  1  0  0  0  0
  9 10  2  0  0  0  0
  9 29  1  0  0  0  0
 10 11  1  0  0  0  0
 10 30  1  0  0  0  0
 11 12  2  0  0  0  0
 11 31  1  0  0  0  0
 13 14  1  0  0  0  0
 13 15  2  0  0  0  0
 14 32  1  0  0  0  0
 14 33  1  0  0  0  0
M  END
> <s_m_source_file>
AV-unprocessed.smi

> <i_m_source_file_index>
3116

> <i_lp_mmshare_version>
43012

> <i_f3d_flags>
0

> <s_epik_input>
W05IMl1DKD1PKVtDQEhdKFtDSDNdKVtOSF1bQ0BIXShbQ0gzXSlbQ0BIXShbQ0gzXSluMVtjSF1bY0hdW2NIXW4x

> <s_epik_cmdline>
J2VwaWtfcHl0aG9uJywgJy1waCcsICc3LjAnLCAnLXRuJywgJzgnLCAnLW1hJywgJzIwMCcsICctbWV0YWxfYmluZGluZycsICctaW1hZScsICc8aW5maWxlLm1hZT4nLCAnLW9tYWUnLCAnPG91dGZpbGUubWFlPic=

> <r_lp_tautomer_probability>
1

> <r_epik_Ionization_Penalty>
0.865977

> <r_epik_Ionization_Penalty_Charging>
0

> <r_epik_Ionization_Penalty_Neutral>
0.865977

> <r_epik_State_Penalty>
0.901888

> <r_epik_Charging_Adjusted_Penalty>
0.901888

> <i_epik_Tot_Q>
0

> <i_epik_Tot_abs_Q>
0

> <r_epik_Metal_State_Penalty>
0.901181

> <b_epik_Metal_Only>
0

> <s_lp_Force_Field>
OPLS_2005

> <r_lp_Energy>
10.1697

> <b_lp_Chiralities_Consistent>
1

> <s_lp_Variant>
AV-unprocessed.smi:3116-11

> <Gold.Version>
5.8.1

> <Gold.Id.Protein>
6NUR|6NUR_protein|mol2

> <Gold.PLP.Fitness>
40.8279

> <Gold.PLP.PLP>
-35.7317

> <Gold.PLP.part.hbond>
-1.6521

> <Gold.PLP.part.metal>
0.0000

> <Gold.PLP.part.buried>
-4.7495

> <Gold.PLP.part.nonpolar>
-29.9980

> <Gold.PLP.part.repulsive>
0.4182

> <Gold.PLP.ligand.clash>
0.0000

> <Gold.PLP.ligand.torsion>
0.5120

> <Gold.PLP.Chemscore.Hbond>
1.0000

> <Gold.PLP.Chemscore.CHOScore>
0.9798

> <Gold.PLP.Chemscore.Metal>
0.0000

> <Gold.Chemscore.Hbonds>
donor molecule, donor type, donor heavy atom, donor atom, acceptor molecule, acceptor atom, score
      P1  H  7989  7998       L1    15  1.00
      L1  C    11    31       P1  8028  0.99

> <Gold.PLP.Chemscore.Internal.Correction>
0.1807

> <Gold.Rescore>
     Score         DG    S(hbond)    S(metal)    S(lipo)     H(rot)  DE(clash)    DE(int)     intcor
     10.38     -12.46       1.00        0.00      83.28       2.38       0.00       2.08       ----

> <Gold.Chemscore.Fitness>
10.3789

> <Gold.Chemscore.DG>
-12.4604

> <Gold.Chemscore.ZeroCoef>
-5.4800

> <Gold.Chemscore.Hbond>
0.9997

> <Gold.Chemscore.Metal>
0.0000

> <Gold.Chemscore.Lipo>
83.2773

> <Gold.Chemscore.Internal_Hbond>
0.0000

> <Gold.Chemscore.DEClash>
0.0021

> <Gold.Chemscore.DEInternal>
2.0794

> <Gold.Chemscore.Rot>
2.3836

> <Gold.Chemscore.Internal.Correction>
   9.000000E+99

> <Gold.Chemscore.Hbonds>
donor molecule, donor type, donor heavy atom, donor atom, acceptor molecule, acceptor atom, score
      P1  H  7989  7998       L1    15  0.55

> <Gold.Chemscore.Hbond.Weighted>
-3.3389

> <Gold.Chemscore.Metal.Weighted>
-0.0000

> <Gold.Chemscore.Lipo.Weighted>
-9.7434

> <Gold.Chemscore.Internal_Hbond.Weighted>
0.0000

> <Gold.Chemscore.DEClash.Weighted>
0.0021

> <Gold.Chemscore.DEInternal.Weighted>
2.0794

> <Gold.Chemscore.Rot.Weighted>
6.1020

> <Gold.Chemscore.Internal.Correction.Weighted>
   9.000000E+99

> <Gold.Protein.RotatedTorsions>
[ 6907 6896 6895 6894 ] final   28.50 input  -60.11 | X-H torsion
[ 7974 7965 7964 7962 ] final -110.39 input  175.53 | X-H torsion
[ 8008 7997 7996 7995 ] final   41.13 input   59.86 | X-H torsion
[ 10167 10162 10161 10158 ] final  -13.71 input  -65.29 | X-H torsion
[ 10718 10713 10712 10709 ] final   89.75 input   66.30 | X-H torsion
[ 10763 10752 10751 10750 ] final -108.82 input  -60.55 | X-H torsion
[ 11005 11000 10999 10996 ] final  -68.81 input  -57.11 | X-H torsion

> <Gold.Protein.ActiveResidues>
 VAL166  LYS551  ARG553  GLY616  TRP617  ASP618  TYR619  PRO620  LYS621  CYS622 
 ASP623  PHE694  ASN695  SER759  ASP760  ASP761  ALA762  ILE779  LEU786  VAL792 
 PHE793  MET794  SER795  GLU796  ALA797  LYS798  CYS799  TRP800  GLU811  SER814 

> <Gold.Protein.RotatedAtoms>
  152.0179  134.9840  160.0569 H   0  0  0  0  0  0  0  0  0  0  0  0  # atno 6907 bound_to 6896
  152.1366  133.4434  159.4755 H   0  0  0  0  0  0  0  0  0  0  0  0  # atno 6908 bound_to 6896
  150.6861  134.2274  159.4464 H   0  0  0  0  0  0  0  0  0  0  0  0  # atno 6909 bound_to 6896
  145.1688  140.8915  143.3547 H   0  0  0  0  0  0  0  0  0  0  0  0  # atno 7974 bound_to 7965
  155.2645  140.3361  155.4270 H   0  0  0  0  0  0  0  0  0  0  0  0  # atno 8008 bound_to 7997
  156.2160  140.1789  156.7630 H   0  0  0  0  0  0  0  0  0  0  0  0  # atno 8009 bound_to 7997
  154.5754  140.0663  156.9011 H   0  0  0  0  0  0  0  0  0  0  0  0  # atno 8010 bound_to 7997
  140.7187  143.5398  150.9423 H   0  0  0  0  0  0  0  0  0  0  0  0  # atno 10167 bound_to 10162
  157.6956  131.0345  150.3473 H   0  0  0  0  0  0  0  0  0  0  0  0  # atno 10718 bound_to 10713
  154.8157  135.4624  154.0638 H   0  0  0  0  0  0  0  0  0  0  0  0  # atno 10763 bound_to 10752
  153.2033  135.6872  153.8211 H   0  0  0  0  0  0  0  0  0  0  0  0  # atno 10764 bound_to 10752
  153.7688  135.3273  155.3326 H   0  0  0  0  0  0  0  0  0  0  0  0  # atno 10765 bound_to 10752
  141.1540  133.6749  156.6503 H   0  0  0  0  0  0  0  0  0  0  0  0  # atno 11005 bound_to 11000
  145.0254  139.3387  143.6051 LP  0  0  0  0  0  0  0  0  0  0  0  0  # atno 17320 bound_to 7965
  146.3472  139.9571  142.8722 LP  0  0  0  0  0  0  0  0  0  0  0  0  # atno 17321 bound_to 7965
  139.9120  143.6709  152.3113 LP  0  0  0  0  0  0  0  0  0  0  0  0  # atno 17342 bound_to 10162
  139.7095  144.7622  151.1136 LP  0  0  0  0  0  0  0  0  0  0  0  0  # atno 17343 bound_to 10162
  156.3926  130.3901  149.7018 LP  0  0  0  0  0  0  0  0  0  0  0  0  # atno 17370 bound_to 10713
  156.4363  130.7839  151.2860 LP  0  0  0  0  0  0  0  0  0  0  0  0  # atno 17371 bound_to 10713
  140.3325  134.7916  157.4337 LP  0  0  0  0  0  0  0  0  0  0  0  0  # atno 17394 bound_to 11000
  140.1004  134.5480  155.8358 LP  0  0  0  0  0  0  0  0  0  0  0  0  # atno 17395 bound_to 11000

$$$$
