AV-unprocessed.smi:3031|AV-procd|sdf|11554|dock8
  -GOLD-   2272016513D 1   1.00000     0.00000
 Structure written by MMmdl.
 46 47  0  0  0  0  0  0  0  0  1 V2000
  151.9426  139.8108  158.2770 C   0  0  0  0  0  0  0  0  0  0  0  0
  151.3308  140.0969  156.9360 C   0  0  0  0  0  0  0  0  0  0  0  0
  151.6286  139.4811  155.6872 C   0  0  0  0  0  0  0  0  0  0  0  0
  150.9098  139.9688  154.6894 N   0  0  0  0  0  0  0  0  0  0  0  0
  150.1153  140.8970  155.2650 N   0  0  0  0  0  0  0  0  0  0  0  0
  149.1911  141.6646  154.4459 C   0  0  0  0  0  0  0  0  0  0  0  0
  147.8125  140.9853  154.2491 C   0  0  1  0  0  0  0  0  0  0  0  0
  146.7565  142.0271  153.8531 C   0  0  0  0  0  0  0  0  0  0  0  0
  147.8277  139.9271  153.2312 N   0  0  0  0  0  0  0  0  0  0  0  0
  146.5279  139.3749  152.8513 C   0  0  0  0  0  0  0  0  0  0  0  0
  146.6860  138.0540  152.0812 C   0  0  2  0  0  0  0  0  0  0  0  0
  146.7446  138.3769  150.7072 O   0  0  0  0  0  0  0  0  0  0  0  0
  145.4880  137.1045  152.3021 C   0  0  0  0  0  0  0  0  0  0  0  0
  145.5852  135.7971  151.6506 N   0  0  0  0  0  0  0  0  0  0  0  0
  144.2626  135.3012  151.2846 C   0  0  0  0  0  0  0  0  0  0  0  0
  144.3329  133.9296  150.5922 C   0  0  0  0  0  0  0  0  0  0  0  0
  144.9943  133.0017  151.4453 O   0  0  0  0  0  0  0  0  0  0  0  0
  146.3088  133.4214  151.7965 C   0  0  0  0  0  0  0  0  0  0  0  0
  146.2501  134.7970  152.4844 C   0  0  0  0  0  0  0  0  0  0  0  0
  150.3647  141.0085  156.6173 C   0  0  0  0  0  0  0  0  0  0  0  0
  152.6391  138.9729  158.2352 H   0  0  0  0  0  0  0  0  0  0  0  0
  151.1842  139.5605  159.0191 H   0  0  0  0  0  0  0  0  0  0  0  0
  152.4954  140.6695  158.6580 H   0  0  0  0  0  0  0  0  0  0  0  0
  152.3453  138.7008  155.4770 H   0  0  0  0  0  0  0  0  0  0  0  0
  149.0604  142.6244  154.9472 H   0  0  0  0  0  0  0  0  0  0  0  0
  149.6496  141.8869  153.4805 H   0  0  0  0  0  0  0  0  0  0  0  0
  147.4862  140.5593  155.1984 H   0  0  0  0  0  0  0  0  0  0  0  0
  146.6565  142.7974  154.6184 H   0  0  0  0  0  0  0  0  0  0  0  0
  145.7760  141.5668  153.7256 H   0  0  0  0  0  0  0  0  0  0  0  0
  147.0171  142.5210  152.9163 H   0  0  0  0  0  0  0  0  0  0  0  0
  148.3024  140.2673  152.4010 H   0  0  0  0  0  0  0  0  0  0  0  0
  145.9080  139.2015  153.7290 H   0  0  0  0  0  0  0  0  0  0  0  0
  145.9989  140.0954  152.2259 H   0  0  0  0  0  0  0  0  0  0  0  0
  147.6295  137.5897  152.3658 H   0  0  0  0  0  0  0  0  0  0  0  0
  145.8623  138.4923  150.3891 H   0  0  0  0  0  0  0  0  0  0  0  0
  145.3413  136.9518  153.3724 H   0  0  0  0  0  0  0  0  0  0  0  0
  144.5872  137.6130  151.9547 H   0  0  0  0  0  0  0  0  0  0  0  0
  143.6374  135.2225  152.1755 H   0  0  0  0  0  0  0  0  0  0  0  0
  143.7707  136.0132  150.6209 H   0  0  0  0  0  0  0  0  0  0  0  0
  143.3299  133.5622  150.3749 H   0  0  0  0  0  0  0  0  0  0  0  0
  144.8618  134.0028  149.6406 H   0  0  0  0  0  0  0  0  0  0  0  0
  146.7519  132.6825  152.4642 H   0  0  0  0  0  0  0  0  0  0  0  0
  146.9348  133.4631  150.9037 H   0  0  0  0  0  0  0  0  0  0  0  0
  147.2676  135.1085  152.7164 H   0  0  0  0  0  0  0  0  0  0  0  0
  145.7266  134.7015  153.4368 H   0  0  0  0  0  0  0  0  0  0  0  0
  149.8358  141.7172  157.2375 H   0  0  0  0  0  0  0  0  0  0  0  0
  1  2  1  0  0  0  0
  1 21  1  0  0  0  0
  1 22  1  0  0  0  0
  1 23  1  0  0  0  0
  2 20  2  0  0  0  0
  2  3  1  0  0  0  0
  3  4  2  0  0  0  0
  3 24  1  0  0  0  0
  4  5  1  0  0  0  0
  5  6  1  0  0  0  0
  5 20  1  0  0  0  0
  6  7  1  0  0  0  0
  6 25  1  0  0  0  0
  6 26  1  0  0  0  0
  7  8  1  0  0  0  0
  7  9  1  0  0  0  0
  7 27  1  0  0  0  0
  8 28  1  0  0  0  0
  8 29  1  0  0  0  0
  8 30  1  0  0  0  0
  9 10  1  0  0  0  0
  9 31  1  0  0  0  0
 10 11  1  0  0  0  0
 10 32  1  0  0  0  0
 10 33  1  0  0  0  0
 11 12  1  0  0  0  0
 11 13  1  0  0  0  0
 11 34  1  0  0  0  0
 12 35  1  0  0  0  0
 13 14  1  0  0  0  0
 13 36  1  0  0  0  0
 13 37  1  0  0  0  0
 14 19  1  0  0  0  0
 14 15  1  0  0  0  0
 15 16  1  0  0  0  0
 15 38  1  0  0  0  0
 15 39  1  0  0  0  0
 16 17  1  0  0  0  0
 16 40  1  0  0  0  0
 16 41  1  0  0  0  0
 17 18  1  0  0  0  0
 18 19  1  0  0  0  0
 18 42  1  0  0  0  0
 18 43  1  0  0  0  0
 19 44  1  0  0  0  0
 19 45  1  0  0  0  0
 20 46  1  0  0  0  0
M  END
> <s_m_source_file>
AV-unprocessed.smi

> <i_m_source_file_index>
3031

> <i_lp_mmshare_version>
43012

> <i_f3d_flags>
0

> <s_epik_input>
W0NIM11jMVtjSF1ubihbY0hdMSlbQ0gyXVtDQEhdKFtDSDNdKVtOSF1bQ0gyXVtDQEhdKFtPSF0pW0NIMl1OMltDSDJdW0NIMl1PW0NIMl1bQ0gyXTI=

> <s_epik_cmdline>
J2VwaWtfcHl0aG9uJywgJy1waCcsICc3LjAnLCAnLXRuJywgJzgnLCAnLW1hJywgJzIwMCcsICctbWV0YWxfYmluZGluZycsICctaW1hZScsICc8aW5maWxlLm1hZT4nLCAnLW9tYWUnLCAnPG91dGZpbGUubWFlPic=

> <r_lp_tautomer_probability>
1

> <r_epik_Ionization_Penalty>
2.8101

> <r_epik_Ionization_Penalty_Charging>
0

> <r_epik_Ionization_Penalty_Neutral>
2.8101

> <r_epik_State_Penalty>
2.12351

> <r_epik_Charging_Adjusted_Penalty>
2.12351

> <i_epik_Tot_Q>
0

> <i_epik_Tot_abs_Q>
0

> <r_epik_Metal_State_Penalty>
2.12345

> <b_epik_Metal_Only>
0

> <s_lp_Force_Field>
OPLS_2005

> <r_lp_Energy>
32.7569

> <b_lp_Chiralities_Consistent>
1

> <s_lp_Variant>
AV-unprocessed.smi:3031-14

> <Gold.Version>
5.8.1

> <Gold.Id.Protein>
6NUR|6NUR_protein|mol2

> <Gold.PLP.Fitness>
47.0059

> <Gold.PLP.PLP>
-37.8632

> <Gold.PLP.part.hbond>
-4.3876

> <Gold.PLP.part.metal>
0.0000

> <Gold.PLP.part.buried>
0.0996

> <Gold.PLP.part.nonpolar>
-32.6173

> <Gold.PLP.part.repulsive>
0.3677

> <Gold.PLP.ligand.clash>
0.0000

> <Gold.PLP.ligand.torsion>
1.4222

> <Gold.PLP.Chemscore.Hbond>
3.9673

> <Gold.PLP.Chemscore.CHOScore>
0.0000

> <Gold.PLP.Chemscore.Metal>
0.0000

> <Gold.Chemscore.Hbonds>
donor molecule, donor type, donor heavy atom, donor atom, acceptor molecule, acceptor atom, score
      L1  H     9    31       P1  7957  0.99
      L1  H    12    35       P1 10171  0.94
      P1  H  7954  7966       L1    12  0.96
      P1  H  7989  7998       L1     4  1.00

> <Gold.PLP.Chemscore.Internal.Correction>
0.0854

> <Gold.Rescore>
     Score         DG    S(hbond)    S(metal)    S(lipo)     H(rot)  DE(clash)    DE(int)     intcor
     18.87     -20.56       3.56        0.00      82.68       2.53       0.38       1.30       ----

> <Gold.Chemscore.Fitness>
18.8737

> <Gold.Chemscore.DG>
-20.5568

> <Gold.Chemscore.ZeroCoef>
-5.4800

> <Gold.Chemscore.Hbond>
3.5593

> <Gold.Chemscore.Metal>
0.0000

> <Gold.Chemscore.Lipo>
82.6829

> <Gold.Chemscore.Internal_Hbond>
0.0000

> <Gold.Chemscore.DEClash>
0.3830

> <Gold.Chemscore.DEInternal>
1.3001

> <Gold.Chemscore.Rot>
2.5333

> <Gold.Chemscore.Internal.Correction>
   9.000000E+99

> <Gold.Chemscore.Hbonds>
donor molecule, donor type, donor heavy atom, donor atom, acceptor molecule, acceptor atom, score
      L1  H     9    31       P1  7957  0.93
      L1  H    12    35       P1 10171  0.90
      P1  H  7954  7966       L1    12  0.85
      P1  H  7989  7998       L1     4  0.29

> <Gold.Chemscore.Hbond.Weighted>
-11.8881

> <Gold.Chemscore.Metal.Weighted>
-0.0000

> <Gold.Chemscore.Lipo.Weighted>
-9.6739

> <Gold.Chemscore.Internal_Hbond.Weighted>
0.0000

> <Gold.Chemscore.DEClash.Weighted>
0.3830

> <Gold.Chemscore.DEInternal.Weighted>
1.3001

> <Gold.Chemscore.Rot.Weighted>
6.4852

> <Gold.Chemscore.Internal.Correction.Weighted>
   9.000000E+99

> <Gold.Protein.RotatedTorsions>
[ 6907 6896 6895 6894 ] final   51.90 input  -60.11 | X-H torsion
[ 7974 7965 7964 7962 ] final   17.05 input  175.53 | X-H torsion
[ 8008 7997 7996 7995 ] final   59.34 input   59.86 | X-H torsion
[ 10167 10162 10161 10158 ] final  108.78 input  -65.29 | X-H torsion
[ 10718 10713 10712 10709 ] final  109.53 input   66.30 | X-H torsion
[ 10763 10752 10751 10750 ] final  -73.45 input  -60.55 | X-H torsion
[ 11005 11000 10999 10996 ] final   60.38 input  -57.11 | X-H torsion

> <Gold.Protein.ActiveResidues>
 VAL166  LYS551  ARG553  GLY616  TRP617  ASP618  TYR619  PRO620  LYS621  CYS622 
 ASP623  PHE694  ASN695  SER759  ASP760  ASP761  ALA762  ILE779  LEU786  VAL792 
 PHE793  MET794  SER795  GLU796  ALA797  LYS798  CYS799  TRP800  GLU811  SER814 

> <Gold.Protein.RotatedAtoms>
  152.3175  134.7421  160.0321 H   0  0  0  0  0  0  0  0  0  0  0  0  # atno 6907 bound_to 6896
  151.7881  133.3351  159.3499 H   0  0  0  0  0  0  0  0  0  0  0  0  # atno 6908 bound_to 6896
  150.7352  134.5799  159.5978 H   0  0  0  0  0  0  0  0  0  0  0  0  # atno 6909 bound_to 6896
  146.2230  139.8658  142.8596 H   0  0  0  0  0  0  0  0  0  0  0  0  # atno 7974 bound_to 7965
  155.5646  140.3489  155.4500 H   0  0  0  0  0  0  0  0  0  0  0  0  # atno 8008 bound_to 7997
  156.0489  140.1313  157.0098 H   0  0  0  0  0  0  0  0  0  0  0  0  # atno 8009 bound_to 7997
  154.4425  140.1009  156.6332 H   0  0  0  0  0  0  0  0  0  0  0  0  # atno 8010 bound_to 7997
  139.6819  144.7117  151.1500 H   0  0  0  0  0  0  0  0  0  0  0  0  # atno 10167 bound_to 10162
  157.6537  131.0915  150.6468 H   0  0  0  0  0  0  0  0  0  0  0  0  # atno 10718 bound_to 10713
  154.4597  135.5897  153.6247 H   0  0  0  0  0  0  0  0  0  0  0  0  # atno 10763 bound_to 10752
  152.9822  135.6041  154.3502 H   0  0  0  0  0  0  0  0  0  0  0  0  # atno 10764 bound_to 10752
  154.3373  135.2842  155.2420 H   0  0  0  0  0  0  0  0  0  0  0  0  # atno 10765 bound_to 10752
  140.0236  134.6116  155.9604 H   0  0  0  0  0  0  0  0  0  0  0  0  # atno 11005 bound_to 11000
  145.2658  141.0092  143.3800 LP  0  0  0  0  0  0  0  0  0  0  0  0  # atno 17320 bound_to 7965
  144.9262  139.4352  143.6517 LP  0  0  0  0  0  0  0  0  0  0  0  0  # atno 17321 bound_to 7965
  140.7655  143.5686  150.9020 LP  0  0  0  0  0  0  0  0  0  0  0  0  # atno 17342 bound_to 10162
  139.9359  143.6439  152.3065 LP  0  0  0  0  0  0  0  0  0  0  0  0  # atno 17343 bound_to 10162
  156.6776  130.4558  149.5637 LP  0  0  0  0  0  0  0  0  0  0  0  0  # atno 17370 bound_to 10713
  156.1952  130.6585  151.1106 LP  0  0  0  0  0  0  0  0  0  0  0  0  # atno 17371 bound_to 10713
  141.1789  133.6543  156.4939 LP  0  0  0  0  0  0  0  0  0  0  0  0  # atno 17394 bound_to 11000
  140.4344  134.7072  157.4959 LP  0  0  0  0  0  0  0  0  0  0  0  0  # atno 17395 bound_to 11000

$$$$
