AV-unprocessed.smi:263|AV-procd|sdf|2005|dock6
  -GOLD-   2262021203D 1   1.00000     0.00000
 Structure written by MMmdl.
 57 61  0  0  0  0  0  0  0  0  1 V2000
  148.0073  132.2833  152.5978 O   0  0  0  0  0  0  0  0  0  0  0  0
  146.6666  132.6669  152.8502 C   0  0  0  0  0  0  0  0  0  0  0  0
  146.5440  133.0105  154.3559 C   0  0  0  0  0  0  0  0  0  0  0  0
  147.2765  134.2027  154.7546 N   0  0  0  0  0  0  0  0  0  0  0  0
  146.7731  135.4788  154.8694 C   0  0  0  0  0  0  0  0  0  0  0  0
  147.6340  136.3852  155.2434 N   0  0  0  0  0  0  0  0  0  0  0  0
  148.8190  135.6787  155.4141 C   0  0  0  0  0  0  0  0  0  0  0  0
  150.1397  136.0383  155.8052 C   0  0  0  0  0  0  0  0  0  0  0  0
  150.4853  137.3078  156.1378 N   0  0  0  0  0  0  0  0  0  0  0  0
  150.6854  137.5278  157.5685 C   0  0  0  0  0  0  0  0  0  0  0  0
  150.6477  139.0283  157.9059 C   0  0  0  0  0  0  0  0  0  0  0  0
  151.6288  139.8478  157.0340 C   0  0  2  0  0  0  0  0  0  0  0  0
  152.9427  139.4704  157.4055 O   0  0  0  0  0  0  0  0  0  0  0  0
  151.5333  141.3684  157.3020 C   0  0  0  0  0  0  0  0  0  0  0  0
  150.2567  142.0019  156.7250 C   0  0  0  0  0  0  0  0  0  0  0  0
  150.1182  141.6991  155.2270 C   0  0  0  0  0  0  0  0  0  0  0  0
  150.1478  140.1870  154.9628 C   0  0  0  0  0  0  0  0  0  0  0  0
  151.4269  139.5284  155.5264 C   0  0  2  0  0  0  0  0  0  0  0  0
  151.4316  138.0064  155.2658 C   0  0  0  0  0  0  0  0  0  0  0  0
  151.0716  135.0480  155.8422 N   0  0  0  0  0  0  0  0  0  0  0  0
  150.7360  133.7925  155.5317 C   0  0  0  0  0  0  0  0  0  0  0  0
  149.5470  133.3138  155.1610 N   0  0  0  0  0  0  0  0  0  0  0  0
  148.6105  134.3038  155.1092 C   0  0  0  0  0  0  0  0  0  0  0  0
  146.3272  133.8649  151.9366 C   0  0  0  0  0  0  0  0  0  0  0  0
  146.2476  133.4579  150.4546 C   0  0  0  0  0  0  0  0  0  0  0  0
  145.3165  132.3958  150.2872 O   0  0  0  0  0  0  0  0  0  0  0  0
  145.7036  131.2146  150.9786 C   0  0  0  0  0  0  0  0  0  0  0  0
  145.7458  131.4825  152.4935 C   0  0  0  0  0  0  0  0  0  0  0  0
  148.0296  131.7664  151.8070 H   0  0  0  0  0  0  0  0  0  0  0  0
  145.4957  133.1608  154.6179 H   0  0  0  0  0  0  0  0  0  0  0  0
  146.8901  132.1752  154.9666 H   0  0  0  0  0  0  0  0  0  0  0  0
  145.7413  135.7194  154.6579 H   0  0  0  0  0  0  0  0  0  0  0  0
  149.9328  137.0100  158.1618 H   0  0  0  0  0  0  0  0  0  0  0  0
  151.6486  137.1035  157.8547 H   0  0  0  0  0  0  0  0  0  0  0  0
  149.6283  139.3850  157.7599 H   0  0  0  0  0  0  0  0  0  0  0  0
  150.8666  139.1737  158.9644 H   0  0  0  0  0  0  0  0  0  0  0  0
  153.0321  139.5750  158.3403 H   0  0  0  0  0  0  0  0  0  0  0  0
  151.5941  141.5688  158.3726 H   0  0  0  0  0  0  0  0  0  0  0  0
  152.3924  141.8701  156.8531 H   0  0  0  0  0  0  0  0  0  0  0  0
  149.3796  141.6363  157.2591 H   0  0  0  0  0  0  0  0  0  0  0  0
  150.2794  143.0808  156.8817 H   0  0  0  0  0  0  0  0  0  0  0  0
  149.1887  142.1239  154.8470 H   0  0  0  0  0  0  0  0  0  0  0  0
  150.9267  142.1837  154.6781 H   0  0  0  0  0  0  0  0  0  0  0  0
  149.2611  139.7284  155.4015 H   0  0  0  0  0  0  0  0  0  0  0  0
  150.0815  140.0063  153.8896 H   0  0  0  0  0  0  0  0  0  0  0  0
  152.2643  139.9565  154.9730 H   0  0  0  0  0  0  0  0  0  0  0  0
  152.4313  137.6054  155.4399 H   0  0  0  0  0  0  0  0  0  0  0  0
  151.1930  137.8147  154.2187 H   0  0  0  0  0  0  0  0  0  0  0  0
  151.5347  133.0679  155.5886 H   0  0  0  0  0  0  0  0  0  0  0  0
  145.3651  134.2836  152.2346 H   0  0  0  0  0  0  0  0  0  0  0  0
  147.0602  134.6639  152.0546 H   0  0  0  0  0  0  0  0  0  0  0  0
  145.9218  134.3070  149.8534 H   0  0  0  0  0  0  0  0  0  0  0  0
  147.2270  133.1619  150.0758 H   0  0  0  0  0  0  0  0  0  0  0  0
  144.9804  130.4286  150.7605 H   0  0  0  0  0  0  0  0  0  0  0  0
  146.6696  130.8632  150.6127 H   0  0  0  0  0  0  0  0  0  0  0  0
  146.0558  130.5816  153.0246 H   0  0  0  0  0  0  0  0  0  0  0  0
  144.7315  131.7003  152.8308 H   0  0  0  0  0  0  0  0  0  0  0  0
  1  2  1  0  0  0  0
  1 29  1  0  0  0  0
  2 28  1  0  0  0  0
  2  3  1  0  0  0  0
  2 24  1  0  0  0  0
  3  4  1  0  0  0  0
  3 30  1  0  0  0  0
  3 31  1  0  0  0  0
  4 23  1  0  0  0  0
  4  5  1  0  0  0  0
  5  6  2  0  0  0  0
  5 32  1  0  0  0  0
  6  7  1  0  0  0  0
  7 23  2  0  0  0  0
  7  8  1  0  0  0  0
  8  9  1  0  0  0  0
  8 20  2  0  0  0  0
  9 19  1  0  0  0  0
  9 10  1  0  0  0  0
 10 11  1  0  0  0  0
 10 33  1  0  0  0  0
 10 34  1  0  0  0  0
 11 12  1  0  0  0  0
 11 35  1  0  0  0  0
 11 36  1  0  0  0  0
 12 18  1  0  0  0  0
 12 13  1  0  0  0  0
 12 14  1  0  0  0  0
 13 37  1  0  0  0  0
 14 15  1  0  0  0  0
 14 38  1  0  0  0  0
 14 39  1  0  0  0  0
 15 16  1  0  0  0  0
 15 40  1  0  0  0  0
 15 41  1  0  0  0  0
 16 17  1  0  0  0  0
 16 42  1  0  0  0  0
 16 43  1  0  0  0  0
 17 18  1  0  0  0  0
 17 44  1  0  0  0  0
 17 45  1  0  0  0  0
 18 19  1  0  0  0  0
 18 46  1  0  0  0  0
 19 47  1  0  0  0  0
 19 48  1  0  0  0  0
 20 21  1  0  0  0  0
 21 22  2  0  0  0  0
 21 49  1  0  0  0  0
 22 23  1  0  0  0  0
 24 25  1  0  0  0  0
 24 50  1  0  0  0  0
 24 51  1  0  0  0  0
 25 26  1  0  0  0  0
 25 52  1  0  0  0  0
 25 53  1  0  0  0  0
 26 27  1  0  0  0  0
 27 28  1  0  0  0  0
 27 54  1  0  0  0  0
 27 55  1  0  0  0  0
 28 56  1  0  0  0  0
 28 57  1  0  0  0  0
M  END
> <s_m_source_file>
AV-unprocessed.smi

> <i_m_source_file_index>
263

> <i_lp_mmshare_version>
43012

> <i_f3d_flags>
0

> <s_epik_input>
W0NIMl0xW0NIMl1PW0NIMl1bQ0gyXUMxKFtPSF0pW0NIMl1uKFtjSF1uMiljKGMyMyluW2NIXW5jM04oW0NIMl1bQ0gyXTQpW0NIMl1bQ0BASF0oW0NAXTQ1W09IXSlbQ0gyXVtDSDJdW0NIMl1bQ0gyXTU=

> <s_epik_cmdline>
J2VwaWtfcHl0aG9uJywgJy1waCcsICc3LjAnLCAnLXRuJywgJzgnLCAnLW1hJywgJzIwMCcsICctbWV0YWxfYmluZGluZycsICctaW1hZScsICc8aW5maWxlLm1hZT4nLCAnLW9tYWUnLCAnPG91dGZpbGUubWFlPic=

> <r_lp_tautomer_probability>
1

> <r_epik_Ionization_Penalty>
0.00747493

> <r_epik_Ionization_Penalty_Charging>
0

> <r_epik_Ionization_Penalty_Neutral>
0.00747493

> <r_epik_State_Penalty>
0.00549307

> <r_epik_Charging_Adjusted_Penalty>
0.00549307

> <i_epik_Tot_Q>
0

> <i_epik_Tot_abs_Q>
0

> <r_epik_Metal_State_Penalty>
-0

> <b_epik_Metal_Only>
0

> <s_lp_Force_Field>
OPLS_2005

> <r_lp_Energy>
40.0447

> <b_lp_Chiralities_Consistent>
1

> <s_lp_Variant>
AV-unprocessed.smi:263-3

> <Gold.Version>
5.8.1

> <Gold.Id.Protein>
6NUR|6NUR_protein|mol2

> <Gold.PLP.Fitness>
43.7136

> <Gold.PLP.PLP>
-35.6158

> <Gold.PLP.part.hbond>
-3.0000

> <Gold.PLP.part.metal>
0.0000

> <Gold.PLP.part.buried>
-3.8043

> <Gold.PLP.part.nonpolar>
-25.6023

> <Gold.PLP.part.repulsive>
0.3020

> <Gold.PLP.ligand.clash>
0.0000

> <Gold.PLP.ligand.torsion>
0.5896

> <Gold.PLP.Chemscore.Hbond>
2.9672

> <Gold.PLP.Chemscore.CHOScore>
0.0000

> <Gold.PLP.Chemscore.Metal>
0.0000

> <Gold.Chemscore.Hbonds>
donor molecule, donor type, donor heavy atom, donor atom, acceptor molecule, acceptor atom, score
      L1  H     1    29       P1 10747  1.00
      P1  H  7997  8010       L1    13  1.00
      P1  H 10752 10764       L1    20  0.52

> <Gold.PLP.Chemscore.Internal.Correction>
0.3754

> <Gold.Rescore>
     Score         DG    S(hbond)    S(metal)    S(lipo)     H(rot)  DE(clash)    DE(int)     intcor
     16.42     -17.46       2.42        0.00      90.81       2.62       0.31       0.72       ----

> <Gold.Chemscore.Fitness>
16.4218

> <Gold.Chemscore.DG>
-17.4570

> <Gold.Chemscore.ZeroCoef>
-5.4800

> <Gold.Chemscore.Hbond>
2.4154

> <Gold.Chemscore.Metal>
0.0000

> <Gold.Chemscore.Lipo>
90.8132

> <Gold.Chemscore.Internal_Hbond>
0.0000

> <Gold.Chemscore.DEClash>
0.3124

> <Gold.Chemscore.DEInternal>
0.7228

> <Gold.Chemscore.Rot>
2.6232

> <Gold.Chemscore.Internal.Correction>
   9.000000E+99

> <Gold.Chemscore.Hbonds>
donor molecule, donor type, donor heavy atom, donor atom, acceptor molecule, acceptor atom, score
      L1  H     1    29       P1 10747  0.92
      P1  H  7997  8010       L1    13  0.35
      P1  H 10752 10764       L1    20  0.31

> <Gold.Chemscore.Hbond.Weighted>
-8.0673

> <Gold.Chemscore.Metal.Weighted>
-0.0000

> <Gold.Chemscore.Lipo.Weighted>
-10.6251

> <Gold.Chemscore.Internal_Hbond.Weighted>
0.0000

> <Gold.Chemscore.DEClash.Weighted>
0.3124

> <Gold.Chemscore.DEInternal.Weighted>
0.7228

> <Gold.Chemscore.Rot.Weighted>
6.7155

> <Gold.Chemscore.Internal.Correction.Weighted>
   9.000000E+99

> <Gold.Protein.RotatedTorsions>
[ 6907 6896 6895 6894 ] final   60.29 input  -60.11 | X-H torsion
[ 7974 7965 7964 7962 ] final   29.73 input  175.53 | X-H torsion
[ 8008 7997 7996 7995 ] final   46.59 input   59.86 | X-H torsion
[ 10167 10162 10161 10158 ] final   18.75 input  -65.29 | X-H torsion
[ 10718 10713 10712 10709 ] final  -83.28 input   66.30 | X-H torsion
[ 10763 10752 10751 10750 ] final  -38.48 input  -60.55 | X-H torsion
[ 11005 11000 10999 10996 ] final   83.18 input  -57.11 | X-H torsion

> <Gold.Protein.ActiveResidues>
 VAL166  LYS551  ARG553  GLY616  TRP617  ASP618  TYR619  PRO620  LYS621  CYS622 
 ASP623  PHE694  ASN695  SER759  ASP760  ASP761  ALA762  ILE779  LEU786  VAL792 
 PHE793  MET794  SER795  GLU796  ALA797  LYS798  CYS799  TRP800  GLU811  SER814 

> <Gold.Protein.RotatedAtoms>
  152.3990  134.6317  160.0077 H   0  0  0  0  0  0  0  0  0  0  0  0  # atno 6907 bound_to 6896
  151.6528  133.3314  159.3164 H   0  0  0  0  0  0  0  0  0  0  0  0  # atno 6908 bound_to 6896
  150.7893  134.6947  159.6561 H   0  0  0  0  0  0  0  0  0  0  0  0  # atno 6909 bound_to 6896
  146.1654  139.6882  142.9005 H   0  0  0  0  0  0  0  0  0  0  0  0  # atno 7974 bound_to 7965
  155.3551  140.3415  155.4240 H   0  0  0  0  0  0  0  0  0  0  0  0  # atno 8008 bound_to 7997
  156.1743  140.1642  156.8425 H   0  0  0  0  0  0  0  0  0  0  0  0  # atno 8009 bound_to 7997
  154.5266  140.0755  156.8252 H   0  0  0  0  0  0  0  0  0  0  0  0  # atno 8010 bound_to 7997
  140.5630  143.9302  150.6656 H   0  0  0  0  0  0  0  0  0  0  0  0  # atno 10167 bound_to 10162
  156.0021  130.4660  150.4233 H   0  0  0  0  0  0  0  0  0  0  0  0  # atno 10718 bound_to 10713
  153.9135  135.6790  153.4750 H   0  0  0  0  0  0  0  0  0  0  0  0  # atno 10763 bound_to 10752
  153.1066  135.4803  154.8959 H   0  0  0  0  0  0  0  0  0  0  0  0  # atno 10764 bound_to 10752
  154.7515  135.3186  154.8505 H   0  0  0  0  0  0  0  0  0  0  0  0  # atno 10765 bound_to 10752
  139.9039  134.8126  156.2274 H   0  0  0  0  0  0  0  0  0  0  0  0  # atno 11005 bound_to 11000
  145.4481  141.0426  143.2820 LP  0  0  0  0  0  0  0  0  0  0  0  0  # atno 17320 bound_to 7965
  144.8085  139.6006  143.7040 LP  0  0  0  0  0  0  0  0  0  0  0  0  # atno 17321 bound_to 7965
  140.2758  143.3424  152.1197 LP  0  0  0  0  0  0  0  0  0  0  0  0  # atno 17342 bound_to 10162
  139.5079  144.6841  151.5934 LP  0  0  0  0  0  0  0  0  0  0  0  0  # atno 17343 bound_to 10162
  157.2287  131.0499  151.2505 LP  0  0  0  0  0  0  0  0  0  0  0  0  # atno 17370 bound_to 10713
  157.3732  130.7192  149.6579 LP  0  0  0  0  0  0  0  0  0  0  0  0  # atno 17371 bound_to 10713
  141.0367  133.6959  156.1525 LP  0  0  0  0  0  0  0  0  0  0  0  0  # atno 17394 bound_to 11000
  140.7017  134.4557  157.5586 LP  0  0  0  0  0  0  0  0  0  0  0  0  # atno 17395 bound_to 11000

$$$$
