AV-unprocessed.smi:2093|AV-procd|sdf|8549|dock6
  -GOLD-   2272011273D 1   1.00000     0.00000
 Structure written by MMmdl.
 30 31  0  0  0  0  0  0  0  0  2 V2000
  151.5387  139.8465  158.0320 C   0  0  0  0  0  0  0  0  0  0  0  0
  151.8166  141.3290  157.7427 C   0  0  1  0  0  0  0  0  0  0  0  0
  150.9013  141.7800  156.6944 N   0  0  0  0  0  0  0  0  0  0  0  0
  150.6967  141.2013  155.5017 C   0  0  0  0  0  0  0  0  0  0  0  0
  151.3150  140.1795  155.1948 O   0  0  0  0  0  0  0  0  0  0  0  0
  149.7916  141.8495  154.7335 N   0  5  0  0  0  0  0  0  0  0  0  0
  148.9769  141.1537  153.9237 C   0  0  0  0  0  0  0  0  0  0  0  0
  148.9634  139.8165  153.8745 N   0  0  0  0  0  0  0  0  0  0  0  0
  148.0359  139.3039  152.9657 C   0  0  0  0  0  0  0  0  0  0  0  0
  147.3188  140.2728  152.3156 C   0  0  0  0  0  0  0  0  0  0  0  0
  147.7908  141.8681  152.8276 S   0  0  0  0  0  0  0  0  0  0  0  0
  151.6599  142.1963  159.0095 C   0  0  2  0  0  0  0  0  0  0  0  0
  152.1090  143.6497  158.8641 C   0  0  0  0  0  0  0  0  0  0  0  0
  152.3082  144.0683  160.3058 C   0  0  0  0  0  0  0  0  0  0  0  0
  152.7172  142.7662  160.9986 C   0  0  0  0  0  0  0  0  0  0  0  0
  152.5029  141.7231  160.0518 O   0  0  0  0  0  0  0  0  0  0  0  0
  152.2253  139.4553  158.7832 H   0  0  0  0  0  0  0  0  0  0  0  0
  151.6600  139.2421  157.1325 H   0  0  0  0  0  0  0  0  0  0  0  0
  150.5228  139.6970  158.3994 H   0  0  0  0  0  0  0  0  0  0  0  0
  152.8473  141.4050  157.3923 H   0  0  0  0  0  0  0  0  0  0  0  0
  150.3689  142.6146  156.8916 H   0  0  0  0  0  0  0  0  0  0  0  0
  147.9525  138.2339  152.8466 H   0  0  0  0  0  0  0  0  0  0  0  0
  146.5464  140.1475  151.5721 H   0  0  0  0  0  0  0  0  0  0  0  0
  150.6267  142.1683  159.3613 H   0  0  0  0  0  0  0  0  0  0  0  0
  153.0575  143.7023  158.3278 H   0  0  0  0  0  0  0  0  0  0  0  0
  151.3843  144.2718  158.3381 H   0  0  0  0  0  0  0  0  0  0  0  0
  153.0532  144.8574  160.4133 H   0  0  0  0  0  0  0  0  0  0  0  0
  151.3675  144.4319  160.7210 H   0  0  0  0  0  0  0  0  0  0  0  0
  153.7673  142.7776  161.2920 H   0  0  0  0  0  0  0  0  0  0  0  0
  152.1177  142.5942  161.8930 H   0  0  0  0  0  0  0  0  0  0  0  0
  1  2  1  0  0  0  0
  1 17  1  0  0  0  0
  1 18  1  0  0  0  0
  1 19  1  0  0  0  0
  2  3  1  0  0  0  0
  2 12  1  0  0  0  0
  2 20  1  0  0  0  0
  3  4  1  0  0  0  0
  3 21  1  0  0  0  0
  4  5  2  0  0  0  0
  4  6  1  0  0  0  0
  6  7  1  0  0  0  0
  7 11  1  0  0  0  0
  7  8  2  0  0  0  0
  8  9  1  0  0  0  0
  9 10  2  0  0  0  0
  9 22  1  0  0  0  0
 10 11  1  0  0  0  0
 10 23  1  0  0  0  0
 12 16  1  0  0  0  0
 12 13  1  0  0  0  0
 12 24  1  0  0  0  0
 13 14  1  0  0  0  0
 13 25  1  0  0  0  0
 13 26  1  0  0  0  0
 14 15  1  0  0  0  0
 14 27  1  0  0  0  0
 14 28  1  0  0  0  0
 15 16  1  0  0  0  0
 15 29  1  0  0  0  0
 15 30  1  0  0  0  0
M  CHG  1   6  -1
M  END
> <s_m_source_file>
AV-unprocessed.smi

> <i_m_source_file_index>
2093

> <i_lp_mmshare_version>
43012

> <i_f3d_flags>
0

> <s_epik_input>
TzFbQ0gyXVtDSDJdW0NIMl1bQ0BIXTFbQ0BIXShbQ0gzXSlbTkhdQyg9TylbTkhdYzJuW2NIXVtjSF1zMg==

> <s_epik_cmdline>
J2VwaWtfcHl0aG9uJywgJy1waCcsICc3LjAnLCAnLXRuJywgJzgnLCAnLW1hJywgJzIwMCcsICctbWV0YWxfYmluZGluZycsICctaW1hZScsICc8aW5maWxlLm1hZT4nLCAnLW9tYWUnLCAnPG91dGZpbGUubWFlPic=

> <r_lp_tautomer_probability>
0.999

> <r_epik_Ionization_Penalty>
8.26346

> <r_epik_Ionization_Penalty_Charging>
6.6559

> <r_epik_Ionization_Penalty_Neutral>
1.60756

> <r_epik_State_Penalty>
6.65607

> <r_epik_Charging_Adjusted_Penalty>
13.312

> <i_epik_Tot_Q>
-1

> <i_epik_Tot_abs_Q>
1

> <r_epik_Metal_State_Penalty>
2.5789

> <b_epik_Metal_Only>
1

> <s_lp_Force_Field>
OPLS_2005

> <r_lp_Energy>
13.6903

> <b_lp_Chiralities_Consistent>
1

> <s_lp_Variant>
AV-unprocessed.smi:2093-6

> <Gold.Version>
5.8.1

> <Gold.Id.Protein>
6NUR|6NUR_protein|mol2

> <Gold.PLP.Fitness>
40.1308

> <Gold.PLP.PLP>
-31.7637

> <Gold.PLP.part.hbond>
-1.0000

> <Gold.PLP.part.metal>
0.0000

> <Gold.PLP.part.buried>
-5.6126

> <Gold.PLP.part.nonpolar>
-24.8427

> <Gold.PLP.part.repulsive>
0.4065

> <Gold.PLP.ligand.clash>
0.0000

> <Gold.PLP.ligand.torsion>
0.3301

> <Gold.PLP.Chemscore.Hbond>
1.0000

> <Gold.PLP.Chemscore.CHOScore>
2.0000

> <Gold.PLP.Chemscore.Metal>
0.0000

> <Gold.Chemscore.Hbonds>
donor molecule, donor type, donor heavy atom, donor atom, acceptor molecule, acceptor atom, score
      P1  H  7989  7998       L1     5  0.50
      L1  C     9    22       P1  7948  1.00

> <Gold.PLP.Chemscore.Internal.Correction>
0.0274

> <Gold.Rescore>
     Score         DG    S(hbond)    S(metal)    S(lipo)     H(rot)  DE(clash)    DE(int)     intcor
     11.66     -14.70       0.95        0.00      79.52       1.28       0.10       2.93       ----

> <Gold.Chemscore.Fitness>
11.6633

> <Gold.Chemscore.DG>
-14.6981

> <Gold.Chemscore.ZeroCoef>
-5.4800

> <Gold.Chemscore.Hbond>
0.9539

> <Gold.Chemscore.Metal>
0.0000

> <Gold.Chemscore.Lipo>
79.5157

> <Gold.Chemscore.Internal_Hbond>
0.0000

> <Gold.Chemscore.DEClash>
0.1038

> <Gold.Chemscore.DEInternal>
2.9310

> <Gold.Chemscore.Rot>
1.2778

> <Gold.Chemscore.Internal.Correction>
   9.000000E+99

> <Gold.Chemscore.Hbonds>
donor molecule, donor type, donor heavy atom, donor atom, acceptor molecule, acceptor atom, score
      P1  H  7989  7998       L1     5  0.02

> <Gold.Chemscore.Hbond.Weighted>
-3.1859

> <Gold.Chemscore.Metal.Weighted>
-0.0000

> <Gold.Chemscore.Lipo.Weighted>
-9.3033

> <Gold.Chemscore.Internal_Hbond.Weighted>
0.0000

> <Gold.Chemscore.DEClash.Weighted>
0.1038

> <Gold.Chemscore.DEInternal.Weighted>
2.9310

> <Gold.Chemscore.Rot.Weighted>
3.2711

> <Gold.Chemscore.Internal.Correction.Weighted>
   9.000000E+99

> <Gold.Protein.RotatedTorsions>
[ 6907 6896 6895 6894 ] final    8.01 input  -60.11 | X-H torsion
[ 7974 7965 7964 7962 ] final   14.77 input  175.53 | X-H torsion
[ 8008 7997 7996 7995 ] final  134.41 input   59.86 | X-H torsion
[ 10167 10162 10161 10158 ] final   84.44 input  -65.29 | X-H torsion
[ 10718 10713 10712 10709 ] final  126.51 input   66.30 | X-H torsion
[ 10763 10752 10751 10750 ] final  -98.11 input  -60.55 | X-H torsion
[ 11005 11000 10999 10996 ] final   -1.06 input  -57.11 | X-H torsion

> <Gold.Protein.ActiveResidues>
 VAL166  LYS551  ARG553  GLY616  TRP617  ASP618  TYR619  PRO620  LYS621  CYS622 
 ASP623  PHE694  ASN695  SER759  ASP760  ASP761  ALA762  ILE779  LEU786  VAL792 
 PHE793  MET794  SER795  GLU796  ALA797  LYS798  CYS799  TRP800  GLU811  SER814 

> <Gold.Protein.RotatedAtoms>
  151.6991  135.0933  160.0247 H   0  0  0  0  0  0  0  0  0  0  0  0  # atno 6907 bound_to 6896
  152.3731  133.6441  159.6111 H   0  0  0  0  0  0  0  0  0  0  0  0  # atno 6908 bound_to 6896
  150.7689  133.9153  159.3423 H   0  0  0  0  0  0  0  0  0  0  0  0  # atno 6909 bound_to 6896
  146.2296  139.8993  142.8542 H   0  0  0  0  0  0  0  0  0  0  0  0  # atno 7974 bound_to 7965
  156.2999  140.2497  156.3413 H   0  0  0  0  0  0  0  0  0  0  0  0  # atno 8008 bound_to 7997
  154.9052  140.0405  157.1935 H   0  0  0  0  0  0  0  0  0  0  0  0  # atno 8009 bound_to 7997
  154.8460  140.2898  155.5633 H   0  0  0  0  0  0  0  0  0  0  0  0  # atno 8010 bound_to 7997
  139.9080  144.6289  150.8567 H   0  0  0  0  0  0  0  0  0  0  0  0  # atno 10167 bound_to 10162
  157.5413  131.1097  150.8854 H   0  0  0  0  0  0  0  0  0  0  0  0  # atno 10718 bound_to 10713
  154.7386  135.5021  153.9084 H   0  0  0  0  0  0  0  0  0  0  0  0  # atno 10763 bound_to 10752
  153.1020  135.6687  153.9663 H   0  0  0  0  0  0  0  0  0  0  0  0  # atno 10764 bound_to 10752
  153.9446  135.3064  155.3420 H   0  0  0  0  0  0  0  0  0  0  0  0  # atno 10765 bound_to 10752
  140.6432  133.9471  155.8337 H   0  0  0  0  0  0  0  0  0  0  0  0  # atno 11005 bound_to 11000
  145.2339  140.9984  143.3974 LP  0  0  0  0  0  0  0  0  0  0  0  0  # atno 17320 bound_to 7965
  144.9507  139.4086  143.6404 LP  0  0  0  0  0  0  0  0  0  0  0  0  # atno 17321 bound_to 7965
  140.7692  143.3387  151.2255 LP  0  0  0  0  0  0  0  0  0  0  0  0  # atno 17342 bound_to 10162
  139.6967  143.9601  152.2886 LP  0  0  0  0  0  0  0  0  0  0  0  0  # atno 17343 bound_to 10162
  156.9406  130.5383  149.5280 LP  0  0  0  0  0  0  0  0  0  0  0  0  # atno 17370 bound_to 10713
  156.0499  130.5570  150.8965 LP  0  0  0  0  0  0  0  0  0  0  0  0  # atno 17371 bound_to 10713
  141.0592  134.0372  157.3682 LP  0  0  0  0  0  0  0  0  0  0  0  0  # atno 17394 bound_to 11000
  139.9073  135.0182  156.7540 LP  0  0  0  0  0  0  0  0  0  0  0  0  # atno 17395 bound_to 11000

$$$$
