AV-unprocessed.smi:281|AV-procd|sdf|2103|dock1
  -GOLD-   2262021393D 1   1.00000     0.00000
 Structure written by MMmdl.
 55 59  0  0  0  0  0  0  0  0  1 V2000
  151.6308  133.8028  155.9694 C   0  0  0  0  0  0  0  0  0  0  0  0
  150.3121  134.4649  156.3809 C   0  0  2  0  0  0  0  0  0  0  0  0
  149.6138  135.1435  155.1926 C   0  0  0  0  0  0  0  0  0  0  0  0
  148.4237  135.8447  155.6550 N   0  0  0  0  0  0  0  0  0  0  0  0
  147.5513  136.2035  154.6791 C   0  0  0  0  0  0  0  0  0  0  0  0
  147.4140  137.5130  154.3375 N   0  0  0  0  0  0  0  0  0  0  0  0
  146.5647  137.8741  153.3716 C   0  0  0  0  0  0  0  0  0  0  0  0
  145.7634  137.1033  152.6345 N   0  0  0  0  0  0  0  0  0  0  0  0
  145.8846  135.7898  152.9807 C   0  0  0  0  0  0  0  0  0  0  0  0
  146.7499  135.2579  153.9785 C   0  0  0  0  0  0  0  0  0  0  0  0
  146.5979  133.8780  154.0479 N   0  0  0  0  0  0  0  0  0  0  0  0
  145.7037  133.6092  153.1365 C   0  0  0  0  0  0  0  0  0  0  0  0
  145.2091  134.7002  152.4580 N   0  0  0  0  0  0  0  0  0  0  0  0
  144.2065  134.6913  151.4027 C   0  0  0  0  0  0  0  0  0  0  0  0
  144.4676  133.6495  150.2844 C   0  0  2  0  0  0  0  0  0  0  0  0
  143.9921  134.1561  149.0510 O   0  0  0  0  0  0  0  0  0  0  0  0
  143.8325  132.2798  150.5393 C   0  0  0  0  0  0  0  0  0  0  0  0
  144.9973  131.4510  151.0612 C   0  0  0  0  0  0  0  0  0  0  0  0
  146.0731  131.9052  150.2604 O   0  0  0  0  0  0  0  0  0  0  0  0
  145.9693  133.3198  150.1590 C   0  0  0  0  0  0  0  0  0  0  0  0
  148.7073  136.8110  156.7122 C   0  0  0  0  0  0  0  0  0  0  0  0
  149.4629  136.1499  157.8885 C   0  0  2  0  0  0  0  0  0  0  0  0
  148.5823  135.2248  158.7413 C   0  0  0  0  0  0  0  0  0  0  0  0
  148.3750  135.9902  160.0413 C   0  0  0  0  0  0  0  0  0  0  0  0
  149.5994  136.6848  160.1862 O   0  0  0  0  0  0  0  0  0  0  0  0
  149.9189  137.2197  158.9104 C   0  0  1  0  0  0  0  0  0  0  0  0
  151.3995  137.6221  158.8498 C   0  0  0  0  0  0  0  0  0  0  0  0
  150.6011  135.4404  157.3828 O   0  0  0  0  0  0  0  0  0  0  0  0
  151.4659  133.0387  155.2094 H   0  0  0  0  0  0  0  0  0  0  0  0
  152.1084  133.3234  156.8243 H   0  0  0  0  0  0  0  0  0  0  0  0
  152.3301  134.5344  155.5640 H   0  0  0  0  0  0  0  0  0  0  0  0
  149.6576  133.6948  156.7909 H   0  0  0  0  0  0  0  0  0  0  0  0
  150.2855  135.8623  154.7211 H   0  0  0  0  0  0  0  0  0  0  0  0
  149.3717  134.3963  154.4379 H   0  0  0  0  0  0  0  0  0  0  0  0
  146.5196  138.9323  153.1603 H   0  0  0  0  0  0  0  0  0  0  0  0
  145.3728  132.6000  152.9384 H   0  0  0  0  0  0  0  0  0  0  0  0
  143.2342  134.5094  151.8628 H   0  0  0  0  0  0  0  0  0  0  0  0
  144.1565  135.6938  150.9758 H   0  0  0  0  0  0  0  0  0  0  0  0
  144.7271  134.2585  148.4660 H   0  0  0  0  0  0  0  0  0  0  0  0
  142.9888  132.2911  151.2272 H   0  0  0  0  0  0  0  0  0  0  0  0
  143.4817  131.8362  149.6059 H   0  0  0  0  0  0  0  0  0  0  0  0
  145.1967  131.6685  152.1118 H   0  0  0  0  0  0  0  0  0  0  0  0
  144.8361  130.3785  150.9514 H   0  0  0  0  0  0  0  0  0  0  0  0
  146.4133  133.6689  149.2256 H   0  0  0  0  0  0  0  0  0  0  0  0
  146.5404  133.7638  150.9756 H   0  0  0  0  0  0  0  0  0  0  0  0
  149.3124  137.6175  156.2951 H   0  0  0  0  0  0  0  0  0  0  0  0
  147.7794  137.2583  157.0723 H   0  0  0  0  0  0  0  0  0  0  0  0
  147.6407  134.9529  158.2634 H   0  0  0  0  0  0  0  0  0  0  0  0
  149.1146  134.3007  158.9699 H   0  0  0  0  0  0  0  0  0  0  0  0
  147.5522  136.7015  159.9530 H   0  0  0  0  0  0  0  0  0  0  0  0
  148.1785  135.3354  160.8904 H   0  0  0  0  0  0  0  0  0  0  0  0
  149.3111  138.1187  158.7906 H   0  0  0  0  0  0  0  0  0  0  0  0
  151.6580  138.0143  157.8658 H   0  0  0  0  0  0  0  0  0  0  0  0
  152.0534  136.7748  159.0585 H   0  0  0  0  0  0  0  0  0  0  0  0
  151.6200  138.3964  159.5845 H   0  0  0  0  0  0  0  0  0  0  0  0
  1  2  1  0  0  0  0
  1 29  1  0  0  0  0
  1 30  1  0  0  0  0
  1 31  1  0  0  0  0
  2 28  1  0  0  0  0
  2  3  1  0  0  0  0
  2 32  1  0  0  0  0
  3  4  1  0  0  0  0
  3 33  1  0  0  0  0
  3 34  1  0  0  0  0
  4  5  1  0  0  0  0
  4 21  1  0  0  0  0
  5 10  1  0  0  0  0
  5  6  2  0  0  0  0
  6  7  1  0  0  0  0
  7  8  2  0  0  0  0
  7 35  1  0  0  0  0
  8  9  1  0  0  0  0
  9 13  1  0  0  0  0
  9 10  2  0  0  0  0
 10 11  1  0  0  0  0
 11 12  2  0  0  0  0
 12 13  1  0  0  0  0
 12 36  1  0  0  0  0
 13 14  1  0  0  0  0
 14 15  1  0  0  0  0
 14 37  1  0  0  0  0
 14 38  1  0  0  0  0
 15 20  1  0  0  0  0
 15 16  1  0  0  0  0
 15 17  1  0  0  0  0
 16 39  1  0  0  0  0
 17 18  1  0  0  0  0
 17 40  1  0  0  0  0
 17 41  1  0  0  0  0
 18 19  1  0  0  0  0
 18 42  1  0  0  0  0
 18 43  1  0  0  0  0
 19 20  1  0  0  0  0
 20 44  1  0  0  0  0
 20 45  1  0  0  0  0
 21 22  1  0  0  0  0
 21 46  1  0  0  0  0
 21 47  1  0  0  0  0
 22 26  1  0  0  0  0
 22 23  1  0  0  0  0
 22 28  1  0  0  0  0
 23 24  1  0  0  0  0
 23 48  1  0  0  0  0
 23 49  1  0  0  0  0
 24 25  1  0  0  0  0
 24 50  1  0  0  0  0
 24 51  1  0  0  0  0
 25 26  1  0  0  0  0
 26 27  1  0  0  0  0
 26 52  1  0  0  0  0
 27 53  1  0  0  0  0
 27 54  1  0  0  0  0
 27 55  1  0  0  0  0
M  END
> <s_m_source_file>
AV-unprocessed.smi

> <i_m_source_file_index>
281

> <i_lp_mmshare_version>
43012

> <i_f3d_flags>
0

> <s_epik_input>
W0NIM11bQ0BASF0xT1tDSDJdW0NIMl1bQ0BAXTEyW0NIMl1OKFtDSDJdW0NASF0oTzIpW0NIM10pYyhuW2NIXW4zKWMoYzM0KW5bY0hdbjRbQ0gyXVtDQEBdNShbT0hdKVtDSDJdW0NIMl1PW0NIMl01

> <s_epik_cmdline>
J2VwaWtfcHl0aG9uJywgJy1waCcsICc3LjAnLCAnLXRuJywgJzgnLCAnLW1hJywgJzIwMCcsICctbWV0YWxfYmluZGluZycsICctaW1hZScsICc8aW5maWxlLm1hZT4nLCAnLW9tYWUnLCAnPG91dGZpbGUubWFlPic=

> <r_lp_tautomer_probability>
1

> <r_epik_Ionization_Penalty>
0.00571331

> <r_epik_Ionization_Penalty_Charging>
0

> <r_epik_Ionization_Penalty_Neutral>
0.00571331

> <r_epik_State_Penalty>
0.00399586

> <r_epik_Charging_Adjusted_Penalty>
0.00399586

> <i_epik_Tot_Q>
0

> <i_epik_Tot_abs_Q>
0

> <r_epik_Metal_State_Penalty>
-0

> <b_epik_Metal_Only>
0

> <s_lp_Force_Field>
OPLS_2005

> <r_lp_Energy>
53.0608

> <b_lp_Chiralities_Consistent>
1

> <s_lp_Variant>
AV-unprocessed.smi:281-3

> <Gold.Version>
5.8.1

> <Gold.Id.Protein>
6NUR|6NUR_protein|mol2

> <Gold.PLP.Fitness>
39.5929

> <Gold.PLP.PLP>
-34.4155

> <Gold.PLP.part.hbond>
-3.8088

> <Gold.PLP.part.metal>
0.0000

> <Gold.PLP.part.buried>
-7.3915

> <Gold.PLP.part.nonpolar>
-24.4921

> <Gold.PLP.part.repulsive>
0.5729

> <Gold.PLP.ligand.clash>
0.0000

> <Gold.PLP.ligand.torsion>
1.2223

> <Gold.PLP.Chemscore.Hbond>
2.4400

> <Gold.PLP.Chemscore.CHOScore>
0.0000

> <Gold.PLP.Chemscore.Metal>
0.0000

> <Gold.Chemscore.Hbonds>
donor molecule, donor type, donor heavy atom, donor atom, acceptor molecule, acceptor atom, score
      L1  H    16    39       P1  7921  1.00
      P1  H  6896  6907       L1    28  0.04
      P1  H  6931  6943       L1    25  0.09

> <Gold.PLP.Chemscore.Internal.Correction>
0.3020

> <Gold.Rescore>
     Score         DG    S(hbond)    S(metal)    S(lipo)     H(rot)  DE(clash)    DE(int)     intcor
     14.75     -16.49       2.43        0.00      70.50       2.09       0.01       1.72       ----

> <Gold.Chemscore.Fitness>
14.7546

> <Gold.Chemscore.DG>
-16.4884

> <Gold.Chemscore.ZeroCoef>
-5.4800

> <Gold.Chemscore.Hbond>
2.4302

> <Gold.Chemscore.Metal>
0.0000

> <Gold.Chemscore.Lipo>
70.5044

> <Gold.Chemscore.Internal_Hbond>
0.0000

> <Gold.Chemscore.DEClash>
0.0095

> <Gold.Chemscore.DEInternal>
1.7243

> <Gold.Chemscore.Rot>
2.0927

> <Gold.Chemscore.Internal.Correction>
   9.000000E+99

> <Gold.Chemscore.Hbonds>
donor molecule, donor type, donor heavy atom, donor atom, acceptor molecule, acceptor atom, score
      L1  H    16    39       P1  7921  1.00
      P1  H  6931  6943       L1    25  0.03

> <Gold.Chemscore.Hbond.Weighted>
-8.1168

> <Gold.Chemscore.Metal.Weighted>
-0.0000

> <Gold.Chemscore.Lipo.Weighted>
-8.2490

> <Gold.Chemscore.Internal_Hbond.Weighted>
0.0000

> <Gold.Chemscore.DEClash.Weighted>
0.0095

> <Gold.Chemscore.DEInternal.Weighted>
1.7243

> <Gold.Chemscore.Rot.Weighted>
5.3573

> <Gold.Chemscore.Internal.Correction.Weighted>
   9.000000E+99

> <Gold.Protein.RotatedTorsions>
[ 6907 6896 6895 6894 ] final  -73.18 input  -60.11 | X-H torsion
[ 7974 7965 7964 7962 ] final  131.65 input  175.53 | X-H torsion
[ 8008 7997 7996 7995 ] final -175.73 input   59.86 | X-H torsion
[ 10167 10162 10161 10158 ] final   53.88 input  -65.29 | X-H torsion
[ 10718 10713 10712 10709 ] final  152.05 input   66.30 | X-H torsion
[ 10763 10752 10751 10750 ] final   81.26 input  -60.55 | X-H torsion
[ 11005 11000 10999 10996 ] final  129.97 input  -57.11 | X-H torsion

> <Gold.Protein.ActiveResidues>
 VAL166  LYS551  ARG553  GLY616  TRP617  ASP618  TYR619  PRO620  LYS621  CYS622 
 ASP623  PHE694  ASN695  SER759  ASP760  ASP761  ALA762  ILE779  LEU786  VAL792 
 PHE793  MET794  SER795  GLU796  ALA797  LYS798  CYS799  TRP800  GLU811  SER814 

> <Gold.Protein.RotatedAtoms>
  150.7140  134.5055  159.5581 H   0  0  0  0  0  0  0  0  0  0  0  0  # atno 6907 bound_to 6896
  152.2643  134.7998  160.0434 H   0  0  0  0  0  0  0  0  0  0  0  0  # atno 6908 bound_to 6896
  151.8701  133.3438  159.3769 H   0  0  0  0  0  0  0  0  0  0  0  0  # atno 6909 bound_to 6896
  145.0051  139.4274  143.5273 H   0  0  0  0  0  0  0  0  0  0  0  0  # atno 7974 bound_to 7965
  155.9862  140.1191  157.0681 H   0  0  0  0  0  0  0  0  0  0  0  0  # atno 8008 bound_to 7997
  154.4197  140.1135  156.5570 H   0  0  0  0  0  0  0  0  0  0  0  0  # atno 8009 bound_to 7997
  155.6405  140.3473  155.4715 H   0  0  0  0  0  0  0  0  0  0  0  0  # atno 8010 bound_to 7997
  140.2361  144.3635  150.6397 H   0  0  0  0  0  0  0  0  0  0  0  0  # atno 10167 bound_to 10162
  157.2628  131.0801  151.1654 H   0  0  0  0  0  0  0  0  0  0  0  0  # atno 10718 bound_to 10713
  153.1102  135.4772  154.9022 H   0  0  0  0  0  0  0  0  0  0  0  0  # atno 10763 bound_to 10752
  154.7473  135.3097  154.8624 H   0  0  0  0  0  0  0  0  0  0  0  0  # atno 10764 bound_to 10752
  153.9216  135.6854  153.4801 H   0  0  0  0  0  0  0  0  0  0  0  0  # atno 10765 bound_to 10752
  139.9645  134.9594  156.9225 H   0  0  0  0  0  0  0  0  0  0  0  0  # atno 11005 bound_to 11000
  146.3459  139.9462  142.8734 LP  0  0  0  0  0  0  0  0  0  0  0  0  # atno 17320 bound_to 7965
  145.2100  140.9891  143.4106 LP  0  0  0  0  0  0  0  0  0  0  0  0  # atno 17321 bound_to 7965
  140.6149  143.2171  151.6812 LP  0  0  0  0  0  0  0  0  0  0  0  0  # atno 17342 bound_to 10162
  139.5093  144.3581  152.0589 LP  0  0  0  0  0  0  0  0  0  0  0  0  # atno 17343 bound_to 10162
  157.3157  130.6912  149.6240 LP  0  0  0  0  0  0  0  0  0  0  0  0  # atno 17370 bound_to 10713
  155.9664  130.4350  150.5074 LP  0  0  0  0  0  0  0  0  0  0  0  0  # atno 17371 bound_to 10713
  140.5427  134.0704  155.7346 LP  0  0  0  0  0  0  0  0  0  0  0  0  # atno 17394 bound_to 11000
  141.1324  133.9279  157.2507 LP  0  0  0  0  0  0  0  0  0  0  0  0  # atno 17395 bound_to 11000

$$$$
