AV-unprocessed.smi:103|AV-procd|sdf|987|dock5
  -GOLD-   2262017563D 1   1.00000     0.00000
 Structure written by MMmdl.
 53 55  0  0  0  0  0  0  0  0  1 V2000
  152.3014  141.2618  159.4796 C   0  0  0  0  0  0  0  0  0  0  0  0
  152.2482  139.9317  158.7396 C   0  0  0  0  0  0  0  0  0  0  0  0
  153.0626  139.6524  157.8596 O   0  0  0  0  0  0  0  0  0  0  0  0
  151.2428  139.1499  159.1617 O   0  0  0  0  0  0  0  0  0  0  0  0
  150.9962  137.9156  158.5088 C   0  0  0  0  0  0  0  0  0  0  0  0
  149.7608  137.2441  159.1254 C   0  0  2  0  0  0  0  0  0  0  0  0
  149.7857  135.8396  158.9196 O   0  0  0  0  0  0  0  0  0  0  0  0
  148.5012  135.3555  159.1361 C   0  0  2  0  0  0  0  0  0  0  0  0
  148.3375  134.0920  158.3557 N   0  0  0  0  0  0  0  0  0  0  0  0
  148.0073  132.8209  158.7807 C   0  0  0  0  0  0  0  0  0  0  0  0
  147.6999  132.3092  160.4671 S   0  0  0  0  0  0  0  0  0  0  0  0
  146.0996  131.4183  160.3083 C   0  0  0  0  0  0  0  0  0  0  0  0
  148.7557  131.3510  160.8275 O   0  0  0  0  0  0  0  0  0  0  0  0
  147.4993  133.5331  161.2589 O   0  0  0  0  0  0  0  0  0  0  0  0
  148.0044  131.8830  157.8722 N   0  0  0  0  0  0  0  0  0  0  0  0
  148.2960  132.5748  156.7047 C   0  0  0  0  0  0  0  0  0  0  0  0
  148.4296  132.2011  155.3438 C   0  0  0  0  0  0  0  0  0  0  0  0
  148.2727  130.9421  154.9122 N   0  0  0  0  0  0  0  0  0  0  0  0
  148.7288  133.1598  154.4361 N   0  0  0  0  0  0  0  0  0  0  0  0
  148.8912  134.4236  154.8412 C   0  0  0  0  0  0  0  0  0  0  0  0
  148.8020  134.9231  156.0767 N   0  0  0  0  0  0  0  0  0  0  0  0
  148.4988  133.9551  156.9915 C   0  0  0  0  0  0  0  0  0  0  0  0
  147.5354  136.4364  158.6251 C   0  0  1  0  0  0  0  0  0  0  0  0
  146.3488  136.5602  159.4145 O   0  0  0  0  0  0  0  0  0  0  0  0
  146.3544  136.8843  160.7268 C   0  0  0  0  0  0  0  0  0  0  0  0
  144.9888  136.6904  161.3712 C   0  0  0  0  0  0  0  0  0  0  0  0
  147.3181  137.2835  161.3794 O   0  0  0  0  0  0  0  0  0  0  0  0
  148.4118  137.6912  158.5359 C   0  0  2  0  0  0  0  0  0  0  0  0
  148.5464  138.0859  157.1744 O   0  0  0  0  0  0  0  0  0  0  0  0
  148.8682  139.3534  156.8637 C   0  0  0  0  0  0  0  0  0  0  0  0
  148.8788  139.5958  155.3608 C   0  0  0  0  0  0  0  0  0  0  0  0
  149.1283  140.2525  157.6634 O   0  0  0  0  0  0  0  0  0  0  0  0
  151.3030  141.6899  159.5675 H   0  0  0  0  0  0  0  0  0  0  0  0
  152.9347  141.9713  158.9463 H   0  0  0  0  0  0  0  0  0  0  0  0
  152.7080  141.1197  160.4810 H   0  0  0  0  0  0  0  0  0  0  0  0
  150.8184  138.1086  157.4498 H   0  0  0  0  0  0  0  0  0  0  0  0
  151.8669  137.2624  158.5835 H   0  0  0  0  0  0  0  0  0  0  0  0
  149.7457  137.4281  160.2008 H   0  0  0  0  0  0  0  0  0  0  0  0
  148.3910  135.0917  160.1856 H   0  0  0  0  0  0  0  0  0  0  0  0
  145.7935  131.0475  161.2861 H   0  0  0  0  0  0  0  0  0  0  0  0
  146.2120  130.5806  159.6210 H   0  0  0  0  0  0  0  0  0  0  0  0
  145.3413  132.1015  159.9259 H   0  0  0  0  0  0  0  0  0  0  0  0
  148.0484  130.2086  155.5693 H   0  0  0  0  0  0  0  0  0  0  0  0
  148.3770  130.7290  153.9307 H   0  0  0  0  0  0  0  0  0  0  0  0
  149.1290  135.1363  154.0654 H   0  0  0  0  0  0  0  0  0  0  0  0
  147.2175  136.1582  157.6196 H   0  0  0  0  0  0  0  0  0  0  0  0
  144.2261  137.2386  160.8179 H   0  0  0  0  0  0  0  0  0  0  0  0
  144.9956  137.0506  162.4001 H   0  0  0  0  0  0  0  0  0  0  0  0
  144.7222  135.6334  161.3767 H   0  0  0  0  0  0  0  0  0  0  0  0
  148.0165  138.5229  159.1211 H   0  0  0  0  0  0  0  0  0  0  0  0
  149.5791  138.9178  154.8727 H   0  0  0  0  0  0  0  0  0  0  0  0
  149.1789  140.6204  155.1404 H   0  0  0  0  0  0  0  0  0  0  0  0
  147.8854  139.4291  154.9438 H   0  0  0  0  0  0  0  0  0  0  0  0
  1  2  1  0  0  0  0
  1 33  1  0  0  0  0
  1 34  1  0  0  0  0
  1 35  1  0  0  0  0
  2  3  2  0  0  0  0
  2  4  1  0  0  0  0
  4  5  1  0  0  0  0
  5  6  1  0  0  0  0
  5 36  1  0  0  0  0
  5 37  1  0  0  0  0
  6 28  1  0  0  0  0
  6  7  1  0  0  0  0
  6 38  1  0  0  0  0
  7  8  1  0  0  0  0
  8  9  1  0  0  0  0
  8 23  1  0  0  0  0
  8 39  1  0  0  0  0
  9 22  1  0  0  0  0
  9 10  1  0  0  0  0
 10 11  1  0  0  0  0
 10 15  2  0  0  0  0
 11 12  1  0  0  0  0
 11 13  2  0  0  0  0
 11 14  2  0  0  0  0
 12 40  1  0  0  0  0
 12 41  1  0  0  0  0
 12 42  1  0  0  0  0
 15 16  1  0  0  0  0
 16 22  2  0  0  0  0
 16 17  1  0  0  0  0
 17 18  1  0  0  0  0
 17 19  2  0  0  0  0
 18 43  1  0  0  0  0
 18 44  1  0  0  0  0
 19 20  1  0  0  0  0
 20 21  2  0  0  0  0
 20 45  1  0  0  0  0
 21 22  1  0  0  0  0
 23 24  1  0  0  0  0
 23 28  1  0  0  0  0
 23 46  1  0  0  0  0
 24 25  1  0  0  0  0
 25 26  1  0  0  0  0
 25 27  2  0  0  0  0
 26 47  1  0  0  0  0
 26 48  1  0  0  0  0
 26 49  1  0  0  0  0
 28 29  1  0  0  0  0
 28 50  1  0  0  0  0
 29 30  1  0  0  0  0
 30 31  1  0  0  0  0
 30 32  2  0  0  0  0
 31 51  1  0  0  0  0
 31 52  1  0  0  0  0
 31 53  1  0  0  0  0
M  END
> <s_m_source_file>
AV-unprocessed.smi

> <i_m_source_file_index>
103

> <i_lp_mmshare_version>
43012

> <i_f3d_flags>
0

> <s_epik_input>
W0NIM11DKD1PKU9bQ0gyXVtDQEBIXTFPW0NASF0oW0NAQEhdKE9DKD1PKVtDSDNdKVtDQEhdMU9DKD1PKVtDSDNdKW4oYyhuMilTKD1PKSg9TylbQ0gzXSljKGMyMyluW2NIXW5jM1tOSDJd

> <s_epik_cmdline>
J2VwaWtfcHl0aG9uJywgJy1waCcsICc3LjAnLCAnLXRuJywgJzgnLCAnLW1hJywgJzIwMCcsICctbWV0YWxfYmluZGluZycsICctaW1hZScsICc8aW5maWxlLm1hZT4nLCAnLW9tYWUnLCAnPG91dGZpbGUubWFlPic=

> <r_lp_tautomer_probability>
1

> <r_epik_Ionization_Penalty>
1.51338e-05

> <r_epik_Ionization_Penalty_Charging>
0

> <r_epik_Ionization_Penalty_Neutral>
1.51338e-05

> <r_epik_State_Penalty>
-0

> <r_epik_Charging_Adjusted_Penalty>
0

> <i_epik_Tot_Q>
0

> <i_epik_Tot_abs_Q>
0

> <r_epik_Metal_State_Penalty>
-0

> <b_epik_Metal_Only>
0

> <s_epik_Chemistry_Notes>
This compound has an ester and may undergo hydrolysis at high or low pH. This compound contains an acetal/aminal-like group ( X-CH(R)-Y where X, Y are N, S, or O) that may be acid/base labile, releasing an aldehyde.

> <s_lp_Force_Field>
OPLS_2005

> <r_lp_Energy>
18.7655

> <b_lp_Chiralities_Consistent>
1

> <s_lp_Variant>
AV-unprocessed.smi:103-11

> <Gold.Version>
5.8.1

> <Gold.Id.Protein>
6NUR|6NUR_protein|mol2

> <Gold.PLP.Fitness>
37.6298

> <Gold.PLP.PLP>
-24.8679

> <Gold.PLP.part.hbond>
-4.1111

> <Gold.PLP.part.metal>
0.0000

> <Gold.PLP.part.buried>
-5.8068

> <Gold.PLP.part.nonpolar>
-15.4270

> <Gold.PLP.part.repulsive>
0.1112

> <Gold.PLP.ligand.clash>
0.0000

> <Gold.PLP.ligand.torsion>
1.7908

> <Gold.PLP.Chemscore.Hbond>
3.6740

> <Gold.PLP.Chemscore.CHOScore>
1.0000

> <Gold.PLP.Chemscore.Metal>
0.0000

> <Gold.Chemscore.Hbonds>
donor molecule, donor type, donor heavy atom, donor atom, acceptor molecule, acceptor atom, score
      P1  H  6896  6907       L1     7  1.00
      P1  H  6931  6943       L1    27  0.82
      P1  H  6934  6947       L1    27  0.82
      P1  H  7997  8008       L1     3  0.98
      L1  C    20    45       P1  7948  1.00

> <Gold.PLP.Chemscore.Internal.Correction>
2.3216

> <Gold.Rescore>
     Score         DG    S(hbond)    S(metal)    S(lipo)     H(rot)  DE(clash)    DE(int)     intcor
      4.92      -7.65       2.76        0.00      32.72       4.25       0.03       2.70       ----

> <Gold.Chemscore.Fitness>
4.9151

> <Gold.Chemscore.DG>
-7.6484

> <Gold.Chemscore.ZeroCoef>
-5.4800

> <Gold.Chemscore.Hbond>
2.7570

> <Gold.Chemscore.Metal>
0.0000

> <Gold.Chemscore.Lipo>
32.7224

> <Gold.Chemscore.Internal_Hbond>
0.0000

> <Gold.Chemscore.DEClash>
0.0343

> <Gold.Chemscore.DEInternal>
2.6990

> <Gold.Chemscore.Rot>
4.2456

> <Gold.Chemscore.Internal.Correction>
   9.000000E+99

> <Gold.Chemscore.Hbonds>
donor molecule, donor type, donor heavy atom, donor atom, acceptor molecule, acceptor atom, score
      P1  H  6896  6907       L1     7  0.25
      P1  H  6931  6943       L1    27  0.77
      P1  H  6934  6947       L1    27  0.14
      P1  H  7997  8008       L1     3  0.93

> <Gold.Chemscore.Hbond.Weighted>
-9.2085

> <Gold.Chemscore.Metal.Weighted>
-0.0000

> <Gold.Chemscore.Lipo.Weighted>
-3.8285

> <Gold.Chemscore.Internal_Hbond.Weighted>
0.0000

> <Gold.Chemscore.DEClash.Weighted>
0.0343

> <Gold.Chemscore.DEInternal.Weighted>
2.6990

> <Gold.Chemscore.Rot.Weighted>
10.8687

> <Gold.Chemscore.Internal.Correction.Weighted>
   9.000000E+99

> <Gold.Protein.RotatedTorsions>
[ 6907 6896 6895 6894 ] final  -73.34 input  -60.11 | X-H torsion
[ 7974 7965 7964 7962 ] final  -76.51 input  175.53 | X-H torsion
[ 8008 7997 7996 7995 ] final  -96.84 input   59.86 | X-H torsion
[ 10167 10162 10161 10158 ] final   -6.11 input  -65.29 | X-H torsion
[ 10718 10713 10712 10709 ] final   31.47 input   66.30 | X-H torsion
[ 10763 10752 10751 10750 ] final   80.21 input  -60.55 | X-H torsion
[ 11005 11000 10999 10996 ] final  163.58 input  -57.11 | X-H torsion

> <Gold.Protein.ActiveResidues>
 VAL166  LYS551  ARG553  GLY616  TRP617  ASP618  TYR619  PRO620  LYS621  CYS622 
 ASP623  PHE694  ASN695  SER759  ASP760  ASP761  ALA762  ILE779  LEU786  VAL792 
 PHE793  MET794  SER795  GLU796  ALA797  LYS798  CYS799  TRP800  GLU811  SER814 

> <Gold.Protein.RotatedAtoms>
  150.7134  134.5031  159.5570 H   0  0  0  0  0  0  0  0  0  0  0  0  # atno 6907 bound_to 6896
  152.2624  134.8017  160.0437 H   0  0  0  0  0  0  0  0  0  0  0  0  # atno 6908 bound_to 6896
  151.8726  133.3443  159.3776 H   0  0  0  0  0  0  0  0  0  0  0  0  # atno 6909 bound_to 6896
  145.6119  140.9384  143.1185 H   0  0  0  0  0  0  0  0  0  0  0  0  # atno 7974 bound_to 7965
  154.7797  140.0468  157.1117 H   0  0  0  0  0  0  0  0  0  0  0  0  # atno 8008 bound_to 7997
  154.9719  140.3090  155.4964 H   0  0  0  0  0  0  0  0  0  0  0  0  # atno 8009 bound_to 7997
  156.2934  140.2251  156.4812 H   0  0  0  0  0  0  0  0  0  0  0  0  # atno 8010 bound_to 7997
  140.6986  143.6231  150.8593 H   0  0  0  0  0  0  0  0  0  0  0  0  # atno 10167 bound_to 10162
  157.2729  130.7217  149.6514 H   0  0  0  0  0  0  0  0  0  0  0  0  # atno 10718 bound_to 10713
  153.1015  135.4811  154.8876 H   0  0  0  0  0  0  0  0  0  0  0  0  # atno 10763 bound_to 10752
  154.7384  135.3076  154.8773 H   0  0  0  0  0  0  0  0  0  0  0  0  # atno 10764 bound_to 10752
  153.9389  135.6836  153.4798 H   0  0  0  0  0  0  0  0  0  0  0  0  # atno 10765 bound_to 10752
  140.2372  134.8078  157.3375 H   0  0  0  0  0  0  0  0  0  0  0  0  # atno 11005 bound_to 11000
  144.7266  139.7855  143.7362 LP  0  0  0  0  0  0  0  0  0  0  0  0  # atno 17320 bound_to 7965
  146.1498  139.4578  143.0056 LP  0  0  0  0  0  0  0  0  0  0  0  0  # atno 17321 bound_to 7965
  139.9951  143.5804  152.2896 LP  0  0  0  0  0  0  0  0  0  0  0  0  # atno 17342 bound_to 10162
  139.6474  144.7659  151.2217 LP  0  0  0  0  0  0  0  0  0  0  0  0  # atno 17343 bound_to 10162
  155.9663  130.4362  150.5124 LP  0  0  0  0  0  0  0  0  0  0  0  0  # atno 17370 bound_to 10713
  157.3052  131.0653  151.2040 LP  0  0  0  0  0  0  0  0  0  0  0  0  # atno 17371 bound_to 10713
  140.1690  134.4633  155.7844 LP  0  0  0  0  0  0  0  0  0  0  0  0  # atno 17394 bound_to 11000
  141.2213  133.6933  156.7674 LP  0  0  0  0  0  0  0  0  0  0  0  0  # atno 17395 bound_to 11000

$$$$
