AV-unprocessed.smi:2124|AV-procd|sdf|8668|dock5
  -GOLD-   2272011413D 1   1.00000     0.00000
 Structure written by MMmdl.
 46 48  0  0  0  0  0  0  0  0  2 V2000
  148.5202  140.1442  153.7747 C   0  0  0  0  0  0  0  0  0  0  0  0
  149.4696  139.6761  154.8570 C   0  0  0  0  0  0  0  0  0  0  0  0
  148.9949  139.1248  155.9083 N   0  0  0  0  0  0  0  0  0  0  0  0
  149.8713  138.6876  156.9158 C   0  0  0  0  0  0  0  0  0  0  0  0
  149.2206  138.0451  158.1283 C   0  0  0  0  0  0  0  0  0  0  0  0
  151.2209  138.8405  156.7925 C   0  0  0  0  0  0  0  0  0  0  0  0
  152.2160  138.3841  157.8601 C   0  0  0  0  0  0  0  0  0  0  0  0
  153.0631  139.4796  158.5129 C   0  0  0  0  0  0  0  0  0  0  0  0
  154.2888  139.3772  158.5740 O   0  0  0  0  0  0  0  0  0  0  0  0
  152.3862  140.5280  159.0057 N   0  0  0  0  0  0  0  0  0  0  0  0
  152.9819  141.6843  159.6721 C   0  0  2  0  0  0  0  0  0  0  0  0
  153.7058  141.2132  160.9468 C   0  0  0  0  0  0  0  0  0  0  0  0
  151.8921  142.7420  159.9747 C   0  0  1  0  0  0  0  0  0  0  0  0
  152.4435  144.0193  160.6549 C   0  0  0  0  0  0  0  0  0  0  0  0
  151.9393  145.1534  159.7452 C   0  0  2  0  0  0  0  0  0  0  0  0
  150.4129  145.2885  159.8888 C   0  0  0  0  0  0  0  0  0  0  0  0
  149.8939  144.0372  159.1565 C   0  0  0  0  0  0  0  0  0  0  0  0
  151.1939  143.3328  158.7217 C   0  0  1  0  0  0  0  0  0  0  0  0
  152.0768  144.5241  158.3656 C   0  0  0  0  0  0  0  0  0  0  0  0
  151.7281  139.4747  155.5627 C   0  0  0  0  0  0  0  0  0  0  0  0
  152.9381  139.6215  155.3937 O   0  0  0  0  0  0  0  0  0  0  0  0
  150.8133  139.8803  154.6363 N   0  5  0  0  0  0  0  0  0  0  0  0
  147.5129  139.7616  153.9445 H   0  0  0  0  0  0  0  0  0  0  0  0
  148.8550  139.7961  152.7970 H   0  0  0  0  0  0  0  0  0  0  0  0
  148.4757  141.2334  153.7586 H   0  0  0  0  0  0  0  0  0  0  0  0
  149.3817  138.6571  159.0160 H   0  0  0  0  0  0  0  0  0  0  0  0
  149.6362  137.0536  158.3085 H   0  0  0  0  0  0  0  0  0  0  0  0
  148.1449  137.9349  157.9865 H   0  0  0  0  0  0  0  0  0  0  0  0
  151.7044  137.8264  158.6451 H   0  0  0  0  0  0  0  0  0  0  0  0
  152.8971  137.6627  157.4080 H   0  0  0  0  0  0  0  0  0  0  0  0
  151.3813  140.5283  158.9069 H   0  0  0  0  0  0  0  0  0  0  0  0
  153.7194  142.1332  159.0043 H   0  0  0  0  0  0  0  0  0  0  0  0
  154.1987  142.0390  161.4589 H   0  0  0  0  0  0  0  0  0  0  0  0
  154.4747  140.4756  160.7138 H   0  0  0  0  0  0  0  0  0  0  0  0
  153.0103  140.7549  161.6506 H   0  0  0  0  0  0  0  0  0  0  0  0
  151.1426  142.2771  160.6176 H   0  0  0  0  0  0  0  0  0  0  0  0
  152.0949  144.1246  161.6829 H   0  0  0  0  0  0  0  0  0  0  0  0
  153.5341  144.0247  160.6750 H   0  0  0  0  0  0  0  0  0  0  0  0
  152.4770  146.0926  159.8786 H   0  0  0  0  0  0  0  0  0  0  0  0
  150.0984  145.3218  160.9326 H   0  0  0  0  0  0  0  0  0  0  0  0
  150.0538  146.1952  159.4006 H   0  0  0  0  0  0  0  0  0  0  0  0
  149.2693  143.4093  159.7928 H   0  0  0  0  0  0  0  0  0  0  0  0
  149.3006  144.3233  158.2872 H   0  0  0  0  0  0  0  0  0  0  0  0
  151.0368  142.6240  157.9085 H   0  0  0  0  0  0  0  0  0  0  0  0
  151.6669  145.1423  157.5649 H   0  0  0  0  0  0  0  0  0  0  0  0
  153.1018  144.2484  158.1130 H   0  0  0  0  0  0  0  0  0  0  0  0
  1  2  1  0  0  0  0
  1 23  1  0  0  0  0
  1 24  1  0  0  0  0
  1 25  1  0  0  0  0
  2 22  1  0  0  0  0
  2  3  2  0  0  0  0
  3  4  1  0  0  0  0
  4  5  1  0  0  0  0
  4  6  2  0  0  0  0
  5 26  1  0  0  0  0
  5 27  1  0  0  0  0
  5 28  1  0  0  0  0
  6  7  1  0  0  0  0
  6 20  1  0  0  0  0
  7  8  1  0  0  0  0
  7 29  1  0  0  0  0
  7 30  1  0  0  0  0
  8  9  2  0  0  0  0
  8 10  1  0  0  0  0
 10 11  1  0  0  0  0
 10 31  1  0  0  0  0
 11 12  1  0  0  0  0
 11 13  1  0  0  0  0
 11 32  1  0  0  0  0
 12 33  1  0  0  0  0
 12 34  1  0  0  0  0
 12 35  1  0  0  0  0
 13 18  1  0  0  0  0
 13 14  1  0  0  0  0
 13 36  1  0  0  0  0
 14 15  1  0  0  0  0
 14 37  1  0  0  0  0
 14 38  1  0  0  0  0
 15 19  1  0  0  0  0
 15 16  1  0  0  0  0
 15 39  1  0  0  0  0
 16 17  1  0  0  0  0
 16 40  1  0  0  0  0
 16 41  1  0  0  0  0
 17 18  1  0  0  0  0
 17 42  1  0  0  0  0
 17 43  1  0  0  0  0
 18 19  1  0  0  0  0
 18 44  1  0  0  0  0
 19 45  1  0  0  0  0
 19 46  1  0  0  0  0
 20 21  2  0  0  0  0
 20 22  1  0  0  0  0
M  CHG  1  22  -1
M  END
> <s_m_source_file>
AV-unprocessed.smi

> <i_m_source_file_index>
2124

> <i_lp_mmshare_version>
43012

> <i_f3d_flags>
0

> <s_epik_input>
W0NIM11jMW5jKFtDSDNdKWMoYyg9TylbbkhdMSlbQ0gyXUMoPU8pW05IXVtDQEhdKFtDSDNdKVtDQEhdKFtDSDJdW0NASF0yMylbQ0BIXShbQ0gyXTMpW0NIMl1bQ0gyXTI=

> <s_epik_cmdline>
J2VwaWtfcHl0aG9uJywgJy1waCcsICc3LjAnLCAnLXRuJywgJzgnLCAnLW1hJywgJzIwMCcsICctbWV0YWxfYmluZGluZycsICctaW1hZScsICc8aW5maWxlLm1hZT4nLCAnLW9tYWUnLCAnPG91dGZpbGUubWFlPic=

> <r_lp_tautomer_probability>
0.839158

> <r_epik_Ionization_Penalty>
6.63797

> <r_epik_Ionization_Penalty_Charging>
7.48558e-08

> <r_epik_Ionization_Penalty_Neutral>
6.63797

> <r_epik_State_Penalty>
4.49496

> <r_epik_Charging_Adjusted_Penalty>
4.49496

> <i_epik_Tot_Q>
-1

> <i_epik_Tot_abs_Q>
1

> <r_epik_Metal_State_Penalty>
0.841241

> <b_epik_Metal_Only>
1

> <s_lp_Force_Field>
OPLS_2005

> <r_lp_Energy>
55.6811

> <b_lp_Chiralities_Consistent>
1

> <s_lp_Variant>
AV-unprocessed.smi:2124-19

> <Gold.Version>
5.8.1

> <Gold.Id.Protein>
6NUR|6NUR_protein|mol2

> <Gold.PLP.Fitness>
51.8450

> <Gold.PLP.PLP>
-43.0169

> <Gold.PLP.part.hbond>
-3.1443

> <Gold.PLP.part.metal>
0.0000

> <Gold.PLP.part.buried>
-4.5607

> <Gold.PLP.part.nonpolar>
-35.8176

> <Gold.PLP.part.repulsive>
0.2001

> <Gold.PLP.ligand.clash>
0.0000

> <Gold.PLP.ligand.torsion>
0.0977

> <Gold.PLP.Chemscore.Hbond>
3.0000

> <Gold.PLP.Chemscore.CHOScore>
0.0000

> <Gold.PLP.Chemscore.Metal>
0.0000

> <Gold.Chemscore.Hbonds>
donor molecule, donor type, donor heavy atom, donor atom, acceptor molecule, acceptor atom, score
      P1  H  7989  7998       L1    22  1.00
      P1  H  7997  8008       L1    21  1.00
      P1  H  7997  8010       L1     9  1.00

> <Gold.PLP.Chemscore.Internal.Correction>
0.0235

> <Gold.Rescore>
     Score         DG    S(hbond)    S(metal)    S(lipo)     H(rot)  DE(clash)    DE(int)     intcor
     22.87     -24.65       2.79        0.00     119.45       1.61       1.68       0.09       ----

> <Gold.Chemscore.Fitness>
22.8727

> <Gold.Chemscore.DG>
-24.6501

> <Gold.Chemscore.ZeroCoef>
-5.4800

> <Gold.Chemscore.Hbond>
2.7854

> <Gold.Chemscore.Metal>
0.0000

> <Gold.Chemscore.Lipo>
119.4505

> <Gold.Chemscore.Internal_Hbond>
0.0000

> <Gold.Chemscore.DEClash>
1.6838

> <Gold.Chemscore.DEInternal>
0.0936

> <Gold.Chemscore.Rot>
1.6051

> <Gold.Chemscore.Internal.Correction>
   9.000000E+99

> <Gold.Chemscore.Hbonds>
donor molecule, donor type, donor heavy atom, donor atom, acceptor molecule, acceptor atom, score
      P1  H  7989  7998       L1    22  0.65
      P1  H  7997  8008       L1    21  0.98
      P1  H  7997  8010       L1     9  0.93

> <Gold.Chemscore.Hbond.Weighted>
-9.3033

> <Gold.Chemscore.Metal.Weighted>
-0.0000

> <Gold.Chemscore.Lipo.Weighted>
-13.9757

> <Gold.Chemscore.Internal_Hbond.Weighted>
0.0000

> <Gold.Chemscore.DEClash.Weighted>
1.6838

> <Gold.Chemscore.DEInternal.Weighted>
0.0936

> <Gold.Chemscore.Rot.Weighted>
4.1090

> <Gold.Chemscore.Internal.Correction.Weighted>
   9.000000E+99

> <Gold.Protein.RotatedTorsions>
[ 6907 6896 6895 6894 ] final   -7.50 input  -60.11 | X-H torsion
[ 7974 7965 7964 7962 ] final    7.49 input  175.53 | X-H torsion
[ 8008 7997 7996 7995 ] final   -6.75 input   59.86 | X-H torsion
[ 10167 10162 10161 10158 ] final -125.72 input  -65.29 | X-H torsion
[ 10718 10713 10712 10709 ] final -154.81 input   66.30 | X-H torsion
[ 10763 10752 10751 10750 ] final  -17.67 input  -60.55 | X-H torsion
[ 11005 11000 10999 10996 ] final  -57.10 input  -57.11 | X-H torsion

> <Gold.Protein.ActiveResidues>
 VAL166  LYS551  ARG553  GLY616  TRP617  ASP618  TYR619  PRO620  LYS621  CYS622 
 ASP623  PHE694  ASN695  SER759  ASP760  ASP761  ALA762  ILE779  LEU786  VAL792 
 PHE793  MET794  SER795  GLU796  ALA797  LYS798  CYS799  TRP800  GLU811  SER814 

> <Gold.Protein.RotatedAtoms>
  151.4485  135.1027  159.9690 H   0  0  0  0  0  0  0  0  0  0  0  0  # atno 6907 bound_to 6896
  152.4897  133.8462  159.7188 H   0  0  0  0  0  0  0  0  0  0  0  0  # atno 6908 bound_to 6896
  150.9038  133.7024  159.2899 H   0  0  0  0  0  0  0  0  0  0  0  0  # atno 6909 bound_to 6896
  146.2426  140.0075  142.8410 H   0  0  0  0  0  0  0  0  0  0  0  0  # atno 7974 bound_to 7965
  154.5906  140.2425  155.7926 H   0  0  0  0  0  0  0  0  0  0  0  0  # atno 8008 bound_to 7997
  156.2244  140.2987  155.9986 H   0  0  0  0  0  0  0  0  0  0  0  0  # atno 8009 bound_to 7997
  155.2380  140.0406  157.2961 H   0  0  0  0  0  0  0  0  0  0  0  0  # atno 8010 bound_to 7997
  139.9791  143.5761  152.2385 H   0  0  0  0  0  0  0  0  0  0  0  0  # atno 10167 bound_to 10162
  156.5043  130.8405  151.2621 H   0  0  0  0  0  0  0  0  0  0  0  0  # atno 10718 bound_to 10713
  153.5774  135.7006  153.5478 H   0  0  0  0  0  0  0  0  0  0  0  0  # atno 10763 bound_to 10752
  153.3291  135.4052  155.1480 H   0  0  0  0  0  0  0  0  0  0  0  0  # atno 10764 bound_to 10752
  154.8623  135.3714  154.5300 H   0  0  0  0  0  0  0  0  0  0  0  0  # atno 10765 bound_to 10752
  141.1150  133.6610  156.4719 H   0  0  0  0  0  0  0  0  0  0  0  0  # atno 11005 bound_to 11000
  145.1358  140.9543  143.4518 LP  0  0  0  0  0  0  0  0  0  0  0  0  # atno 17320 bound_to 7965
  145.0343  139.3314  143.6008 LP  0  0  0  0  0  0  0  0  0  0  0  0  # atno 17321 bound_to 7965
  139.6423  144.7655  151.2314 LP  0  0  0  0  0  0  0  0  0  0  0  0  # atno 17342 bound_to 10162
  140.7495  143.6297  150.8435 LP  0  0  0  0  0  0  0  0  0  0  0  0  # atno 17343 bound_to 10162
  157.7459  130.9971  150.2804 LP  0  0  0  0  0  0  0  0  0  0  0  0  # atno 17370 bound_to 10713
  156.3302  130.3799  149.7497 LP  0  0  0  0  0  0  0  0  0  0  0  0  # atno 17371 bound_to 10713
  140.4672  134.6787  157.5112 LP  0  0  0  0  0  0  0  0  0  0  0  0  # atno 17394 bound_to 11000
  140.0066  134.6755  155.9446 LP  0  0  0  0  0  0  0  0  0  0  0  0  # atno 17395 bound_to 11000

$$$$
