AV-unprocessed.smi:3232|AV-procd|sdf|12339|dock2
  -GOLD-   2272018203D 1   1.00000     0.00000
 Structure written by MMmdl.
 40 41  0  0  0  0  0  0  0  0  2 V2000
  153.6484  141.8299  161.1529 C   0  0  0  0  0  0  0  0  0  0  0  0
  152.3829  142.0547  160.3147 C   0  0  0  0  0  0  0  0  0  0  0  0
  152.2856  143.4451  159.8084 N   0  3  2  0  0  0  0  0  0  0  0  0
  152.2377  144.4843  160.8583 C   0  0  0  0  0  0  0  0  0  0  0  0
  151.5917  145.6891  160.1878 C   0  0  0  0  0  0  0  0  0  0  0  0
  150.5519  145.0515  159.2730 C   0  0  0  0  0  0  0  0  0  0  0  0
  151.1449  143.6810  158.8869 C   0  0  1  0  0  0  0  0  0  0  0  0
  151.6159  143.6049  157.4197 C   0  0  0  0  0  0  0  0  0  0  0  0
  150.6400  142.9461  156.5579 N   0  0  0  0  0  0  0  0  0  0  0  0
  150.6633  141.6456  156.2236 C   0  0  0  0  0  0  0  0  0  0  0  0
  151.5256  140.8683  156.6354 O   0  0  0  0  0  0  0  0  0  0  0  0
  149.5348  141.1566  155.2986 C   0  0  2  0  0  0  0  0  0  0  0  0
  148.1268  141.4613  155.8497 C   0  0  0  0  0  0  0  0  0  0  0  0
  149.6981  139.7410  154.9891 N   0  0  0  0  0  0  0  0  0  0  0  0
  148.8629  138.7177  155.1817 C   0  0  0  0  0  0  0  0  0  0  0  0
  149.3246  137.5557  154.7423 N   0  0  0  0  0  0  0  0  0  0  0  0
  150.5326  137.9614  154.2504 C   0  0  0  0  0  0  0  0  0  0  0  0
  150.8023  139.2618  154.3638 N   0  0  0  0  0  0  0  0  0  0  0  0
  153.7243  140.7876  161.4631 H   0  0  0  0  0  0  0  0  0  0  0  0
  153.6464  142.4396  162.0566 H   0  0  0  0  0  0  0  0  0  0  0  0
  154.5464  142.0723  160.5840 H   0  0  0  0  0  0  0  0  0  0  0  0
  152.4044  141.3732  159.4632 H   0  0  0  0  0  0  0  0  0  0  0  0
  151.4930  141.8041  160.8940 H   0  0  0  0  0  0  0  0  0  0  0  0
  151.6124  144.1477  161.6870 H   0  0  0  0  0  0  0  0  0  0  0  0
  153.2292  144.7106  161.2518 H   0  0  0  0  0  0  0  0  0  0  0  0
  151.1590  146.3918  160.9004 H   0  0  0  0  0  0  0  0  0  0  0  0
  152.3325  146.2242  159.5920 H   0  0  0  0  0  0  0  0  0  0  0  0
  149.6249  144.9017  159.8283 H   0  0  0  0  0  0  0  0  0  0  0  0
  150.3173  145.6861  158.4179 H   0  0  0  0  0  0  0  0  0  0  0  0
  150.3800  142.9214  159.0595 H   0  0  0  0  0  0  0  0  0  0  0  0
  151.7889  144.6087  157.0300 H   0  0  0  0  0  0  0  0  0  0  0  0
  152.5717  143.0822  157.3514 H   0  0  0  0  0  0  0  0  0  0  0  0
  149.9016  143.5209  156.1779 H   0  0  0  0  0  0  0  0  0  0  0  0
  149.6389  141.7033  154.3600 H   0  0  0  0  0  0  0  0  0  0  0  0
  147.9876  142.5313  156.0079 H   0  0  0  0  0  0  0  0  0  0  0  0
  147.9424  140.9592  156.8005 H   0  0  0  0  0  0  0  0  0  0  0  0
  147.3574  141.1336  155.1500 H   0  0  0  0  0  0  0  0  0  0  0  0
  147.8949  138.8252  155.6490 H   0  0  0  0  0  0  0  0  0  0  0  0
  151.2312  137.2790  153.7889 H   0  0  0  0  0  0  0  0  0  0  0  0
  153.1184  143.6279  159.2670 H   0  0  0  0  0  0  0  0  0  0  0  0
  1  2  1  0  0  0  0
  1 19  1  0  0  0  0
  1 20  1  0  0  0  0
  1 21  1  0  0  0  0
  2  3  1  0  0  0  0
  2 22  1  0  0  0  0
  2 23  1  0  0  0  0
  3  7  1  0  0  0  0
  3  4  1  0  0  0  0
  3 40  1  0  0  0  0
  4  5  1  0  0  0  0
  4 24  1  0  0  0  0
  4 25  1  0  0  0  0
  5  6  1  0  0  0  0
  5 26  1  0  0  0  0
  5 27  1  0  0  0  0
  6  7  1  0  0  0  0
  6 28  1  0  0  0  0
  6 29  1  0  0  0  0
  7  8  1  0  0  0  0
  7 30  1  0  0  0  0
  8  9  1  0  0  0  0
  8 31  1  0  0  0  0
  8 32  1  0  0  0  0
  9 10  1  0  0  0  0
  9 33  1  0  0  0  0
 10 11  2  0  0  0  0
 10 12  1  0  0  0  0
 12 13  1  0  0  0  0
 12 14  1  0  0  0  0
 12 34  1  0  0  0  0
 13 35  1  0  0  0  0
 13 36  1  0  0  0  0
 13 37  1  0  0  0  0
 14 18  1  0  0  0  0
 14 15  1  0  0  0  0
 15 16  2  0  0  0  0
 15 38  1  0  0  0  0
 16 17  1  0  0  0  0
 17 18  2  0  0  0  0
 17 39  1  0  0  0  0
M  CHG  1   3   1
M  END
> <s_m_source_file>
AV-unprocessed.smi

> <i_m_source_file_index>
3232

> <i_lp_mmshare_version>
43012

> <i_f3d_flags>
0

> <s_epik_input>
W0NIM11bQ0gyXU4xW0NIMl1bQ0gyXVtDSDJdW0NASF0xW0NIMl1bTkhdQyg9TylbQ0BIXShbQ0gzXSluMltjSF1uW2NIXW4y

> <s_epik_cmdline>
J2VwaWtfcHl0aG9uJywgJy1waCcsICc3LjAnLCAnLXRuJywgJzgnLCAnLW1hJywgJzIwMCcsICctbWV0YWxfYmluZGluZycsICctaW1hZScsICc8aW5maWxlLm1hZT4nLCAnLW9tYWUnLCAnPG91dGZpbGUubWFlPic=

> <r_lp_tautomer_probability>
1

> <r_epik_Ionization_Penalty>
0.00177695

> <r_epik_Ionization_Penalty_Charging>
0.00176881

> <r_epik_Ionization_Penalty_Neutral>
8.13528e-06

> <r_epik_State_Penalty>
0.00119827

> <r_epik_Charging_Adjusted_Penalty>
0.00296709

> <i_epik_Tot_Q>
1

> <i_epik_Tot_abs_Q>
1

> <r_epik_Metal_State_Penalty>
-0

> <b_epik_Metal_Only>
0

> <s_lp_Force_Field>
OPLS_2005

> <r_lp_Energy>
33.6963

> <b_lp_Chiralities_Consistent>
1

> <s_lp_Variant>
AV-unprocessed.smi:3232-1

> <Gold.Version>
5.8.1

> <Gold.Id.Protein>
6NUR|6NUR_protein|mol2

> <Gold.PLP.Fitness>
45.6786

> <Gold.PLP.PLP>
-38.3913

> <Gold.PLP.part.hbond>
-2.0000

> <Gold.PLP.part.metal>
0.0000

> <Gold.PLP.part.buried>
-6.1907

> <Gold.PLP.part.nonpolar>
-32.3657

> <Gold.PLP.part.repulsive>
0.8849

> <Gold.PLP.ligand.clash>
0.0000

> <Gold.PLP.ligand.torsion>
0.7874

> <Gold.PLP.Chemscore.Hbond>
2.0000

> <Gold.PLP.Chemscore.CHOScore>
0.8999

> <Gold.PLP.Chemscore.Metal>
0.0000

> <Gold.Chemscore.Hbonds>
donor molecule, donor type, donor heavy atom, donor atom, acceptor molecule, acceptor atom, score
      L1  H     9    33       P1  8028  1.00
      P1  H  7989  7998       L1    18  1.00
      L1  C    17    39       P1  7949  0.74

> <Gold.PLP.Chemscore.Internal.Correction>
0.1625

> <Gold.Rescore>
     Score         DG    S(hbond)    S(metal)    S(lipo)     H(rot)  DE(clash)    DE(int)     intcor
     12.26     -15.65       1.90        0.00      86.99       2.49       1.29       2.10       ----

> <Gold.Chemscore.Fitness>
12.2572

> <Gold.Chemscore.DG>
-15.6471

> <Gold.Chemscore.ZeroCoef>
-5.4800

> <Gold.Chemscore.Hbond>
1.9039

> <Gold.Chemscore.Metal>
0.0000

> <Gold.Chemscore.Lipo>
86.9912

> <Gold.Chemscore.Internal_Hbond>
0.0000

> <Gold.Chemscore.DEClash>
1.2910

> <Gold.Chemscore.DEInternal>
2.0990

> <Gold.Chemscore.Rot>
2.4882

> <Gold.Chemscore.Internal.Correction>
   9.000000E+99

> <Gold.Chemscore.Hbonds>
donor molecule, donor type, donor heavy atom, donor atom, acceptor molecule, acceptor atom, score
      L1  H     9    33       P1  8028  1.00
      P1  H  7989  7998       L1    18  0.48

> <Gold.Chemscore.Hbond.Weighted>
-6.3589

> <Gold.Chemscore.Metal.Weighted>
-0.0000

> <Gold.Chemscore.Lipo.Weighted>
-10.1780

> <Gold.Chemscore.Internal_Hbond.Weighted>
0.0000

> <Gold.Chemscore.DEClash.Weighted>
1.2910

> <Gold.Chemscore.DEInternal.Weighted>
2.0990

> <Gold.Chemscore.Rot.Weighted>
6.3697

> <Gold.Chemscore.Internal.Correction.Weighted>
   9.000000E+99

> <Gold.Protein.RotatedTorsions>
[ 6907 6896 6895 6894 ] final -111.97 input  -60.11 | X-H torsion
[ 7974 7965 7964 7962 ] final -115.57 input  175.53 | X-H torsion
[ 8008 7997 7996 7995 ] final  112.98 input   59.86 | X-H torsion
[ 10167 10162 10161 10158 ] final  -19.03 input  -65.29 | X-H torsion
[ 10718 10713 10712 10709 ] final   51.07 input   66.30 | X-H torsion
[ 10763 10752 10751 10750 ] final -126.27 input  -60.55 | X-H torsion
[ 11005 11000 10999 10996 ] final  -83.44 input  -57.11 | X-H torsion

> <Gold.Protein.ActiveResidues>
 VAL166  LYS551  ARG553  GLY616  TRP617  ASP618  TYR619  PRO620  LYS621  CYS622 
 ASP623  PHE694  ASN695  SER759  ASP760  ASP761  ALA762  ILE779  LEU786  VAL792 
 PHE793  MET794  SER795  GLU796  ALA797  LYS798  CYS799  TRP800  GLU811  SER814 

> <Gold.Protein.RotatedAtoms>
  150.7726  133.9158  159.3382 H   0  0  0  0  0  0  0  0  0  0  0  0  # atno 6907 bound_to 6896
  151.7040  135.0923  160.0265 H   0  0  0  0  0  0  0  0  0  0  0  0  # atno 6908 bound_to 6896
  152.3750  133.6431  159.6152 H   0  0  0  0  0  0  0  0  0  0  0  0  # atno 6909 bound_to 6896
  145.1069  140.8587  143.3893 H   0  0  0  0  0  0  0  0  0  0  0  0  # atno 7974 bound_to 7965
  156.2228  140.2989  155.9993 H   0  0  0  0  0  0  0  0  0  0  0  0  # atno 8008 bound_to 7997
  155.2437  140.0423  157.2995 H   0  0  0  0  0  0  0  0  0  0  0  0  # atno 8009 bound_to 7997
  154.5867  140.2390  155.7985 H   0  0  0  0  0  0  0  0  0  0  0  0  # atno 8010 bound_to 7997
  140.7264  143.4858  151.0057 H   0  0  0  0  0  0  0  0  0  0  0  0  # atno 10167 bound_to 10162
  157.4945  130.8398  149.8242 H   0  0  0  0  0  0  0  0  0  0  0  0  # atno 10718 bound_to 10713
  154.8744  135.4001  154.3404 H   0  0  0  0  0  0  0  0  0  0  0  0  # atno 10763 bound_to 10752
  153.4204  135.7023  153.6303 H   0  0  0  0  0  0  0  0  0  0  0  0  # atno 10764 bound_to 10752
  153.4968  135.3736  155.2490 H   0  0  0  0  0  0  0  0  0  0  0  0  # atno 10765 bound_to 10752
  141.1657  133.7295  156.8721 H   0  0  0  0  0  0  0  0  0  0  0  0  # atno 11005 bound_to 11000
  145.0891  139.2903  143.5744 LP  0  0  0  0  0  0  0  0  0  0  0  0  # atno 17320 bound_to 7965
  146.3528  140.0423  142.8642 LP  0  0  0  0  0  0  0  0  0  0  0  0  # atno 17321 bound_to 7965
  139.8560  143.7377  152.3176 LP  0  0  0  0  0  0  0  0  0  0  0  0  # atno 17342 bound_to 10162
  139.7575  144.7516  151.0413 LP  0  0  0  0  0  0  0  0  0  0  0  0  # atno 17343 bound_to 10162
  156.0193  130.3801  150.2013 LP  0  0  0  0  0  0  0  0  0  0  0  0  # atno 17370 bound_to 10713
  157.0202  130.9977  151.3342 LP  0  0  0  0  0  0  0  0  0  0  0  0  # atno 17371 bound_to 10713
  140.1774  134.9057  157.2907 LP  0  0  0  0  0  0  0  0  0  0  0  0  # atno 17394 bound_to 11000
  140.2433  134.3769  155.7471 LP  0  0  0  0  0  0  0  0  0  0  0  0  # atno 17395 bound_to 11000

$$$$
