AV-unprocessed.smi:1337|AV-procd|sdf|5498|dock6
  -GOLD-   22720 5 83D 1   1.00000     0.00000
 Structure written by MMmdl.
 38 39  0  0  0  0  0  0  0  0  1 V2000
  153.8436  139.3507  158.0165 O   0  0  0  0  0  0  0  0  0  0  0  0
  152.8886  139.2695  158.7904 C   0  0  0  0  0  0  0  0  0  0  0  0
  151.7023  138.3458  158.4794 C   0  0  0  0  0  0  0  0  0  0  0  0
  151.5977  137.9976  157.0530 N   0  0  0  0  0  0  0  0  0  0  0  0
  151.5462  139.0542  156.1283 C   0  0  0  0  0  0  0  0  0  0  0  0
  151.4584  138.8134  154.8123 C   0  0  0  0  0  0  0  0  0  0  0  0
  151.4207  137.4020  154.4080 C   0  0  0  0  0  0  0  0  0  0  0  0
  151.4705  136.4366  155.2480 N   0  0  0  0  0  0  0  0  0  0  0  0
  151.5662  136.6921  156.6292 C   0  0  0  0  0  0  0  0  0  0  0  0
  151.6208  135.7687  157.4417 O   0  0  0  0  0  0  0  0  0  0  0  0
  152.8013  139.9791  159.9255 N   0  0  0  0  0  0  0  0  0  0  0  0
  153.8125  140.9126  160.4073 C   0  0  0  0  0  0  0  0  0  0  0  0
  153.1862  142.0367  161.2506 C   0  0  0  0  0  0  0  0  0  0  0  0
  152.6391  143.1731  160.4025 C   0  0  0  0  0  0  0  0  0  0  0  0
  152.0819  144.2687  160.9544 C   0  0  0  0  0  0  0  0  0  0  0  0
  151.5042  145.4260  160.1587 C   0  0  0  0  0  0  0  0  0  0  0  0
  151.3009  145.0728  158.6761 C   0  0  0  0  0  0  0  0  0  0  0  0
  152.5096  144.3106  158.1186 C   0  0  0  0  0  0  0  0  0  0  0  0
  152.7536  143.0020  158.8916 C   0  0  0  0  0  0  0  0  0  0  0  0
  151.7771  137.4377  159.0809 H   0  0  0  0  0  0  0  0  0  0  0  0
  150.7908  138.8398  158.8187 H   0  0  0  0  0  0  0  0  0  0  0  0
  151.5887  140.0474  156.5509 H   0  0  0  0  0  0  0  0  0  0  0  0
  151.4185  139.5771  154.0497 H   0  0  0  0  0  0  0  0  0  0  0  0
  151.3468  137.2258  153.3319 H   0  0  0  0  0  0  0  0  0  0  0  0
  151.9794  139.8584  160.4995 H   0  0  0  0  0  0  0  0  0  0  0  0
  154.5302  140.3484  161.0029 H   0  0  0  0  0  0  0  0  0  0  0  0
  154.3681  141.3304  159.5659 H   0  0  0  0  0  0  0  0  0  0  0  0
  152.3796  141.6306  161.8627 H   0  0  0  0  0  0  0  0  0  0  0  0
  153.9236  142.4405  161.9451 H   0  0  0  0  0  0  0  0  0  0  0  0
  152.0345  144.3641  162.0295 H   0  0  0  0  0  0  0  0  0  0  0  0
  150.5548  145.7289  160.6014 H   0  0  0  0  0  0  0  0  0  0  0  0
  152.1838  146.2732  160.2548 H   0  0  0  0  0  0  0  0  0  0  0  0
  150.4079  144.4556  158.5676 H   0  0  0  0  0  0  0  0  0  0  0  0
  151.1221  145.9795  158.0976 H   0  0  0  0  0  0  0  0  0  0  0  0
  152.3662  144.0954  157.0593 H   0  0  0  0  0  0  0  0  0  0  0  0
  153.3946  144.9444  158.1875 H   0  0  0  0  0  0  0  0  0  0  0  0
  153.7399  142.6099  158.6413 H   0  0  0  0  0  0  0  0  0  0  0  0
  152.0270  142.2518  158.5785 H   0  0  0  0  0  0  0  0  0  0  0  0
  1  2  2  0  0  0  0
  2  3  1  0  0  0  0
  2 11  1  0  0  0  0
  3  4  1  0  0  0  0
  3 20  1  0  0  0  0
  3 21  1  0  0  0  0
  4  9  1  0  0  0  0
  4  5  1  0  0  0  0
  5  6  2  0  0  0  0
  5 22  1  0  0  0  0
  6  7  1  0  0  0  0
  6 23  1  0  0  0  0
  7  8  2  0  0  0  0
  7 24  1  0  0  0  0
  8  9  1  0  0  0  0
  9 10  2  0  0  0  0
 11 12  1  0  0  0  0
 11 25  1  0  0  0  0
 12 13  1  0  0  0  0
 12 26  1  0  0  0  0
 12 27  1  0  0  0  0
 13 14  1  0  0  0  0
 13 28  1  0  0  0  0
 13 29  1  0  0  0  0
 14 19  1  0  0  0  0
 14 15  2  0  0  0  0
 15 16  1  0  0  0  0
 15 30  1  0  0  0  0
 16 17  1  0  0  0  0
 16 31  1  0  0  0  0
 16 32  1  0  0  0  0
 17 18  1  0  0  0  0
 17 33  1  0  0  0  0
 17 34  1  0  0  0  0
 18 19  1  0  0  0  0
 18 35  1  0  0  0  0
 18 36  1  0  0  0  0
 19 37  1  0  0  0  0
 19 38  1  0  0  0  0
M  END
> <s_m_source_file>
AV-unprocessed.smi

> <i_m_source_file_index>
1337

> <i_lp_mmshare_version>
43012

> <i_f3d_flags>
0

> <s_epik_input>
Tz1jMW5bY0hdW2NIXVtjSF1uMVtDSDJdQyg9TylbTkhdW0NIMl1bQ0gyXUMyPVtDSF1bQ0gyXVtDSDJdW0NIMl1bQ0gyXTI=

> <s_epik_cmdline>
J2VwaWtfcHl0aG9uJywgJy1waCcsICc3LjAnLCAnLXRuJywgJzgnLCAnLW1hJywgJzIwMCcsICctbWV0YWxfYmluZGluZycsICctaW1hZScsICc8aW5maWxlLm1hZT4nLCAnLW9tYWUnLCAnPG91dGZpbGUubWFlPic=

> <r_lp_tautomer_probability>
1

> <r_epik_Ionization_Penalty>
7.10509e-06

> <r_epik_Ionization_Penalty_Charging>
1.70435e-08

> <r_epik_Ionization_Penalty_Neutral>
7.08805e-06

> <r_epik_State_Penalty>
-0

> <r_epik_Charging_Adjusted_Penalty>
1.70435e-08

> <i_epik_Tot_Q>
0

> <i_epik_Tot_abs_Q>
0

> <r_epik_Metal_State_Penalty>
-0

> <b_epik_Metal_Only>
0

> <s_lp_Force_Field>
OPLS_2005

> <r_lp_Energy>
9.56824

> <b_lp_Chiralities_Consistent>
1

> <s_lp_Variant>
AV-unprocessed.smi:1337-1

> <Gold.Version>
5.8.1

> <Gold.Id.Protein>
6NUR|6NUR_protein|mol2

> <Gold.PLP.Fitness>
53.9025

> <Gold.PLP.PLP>
-46.1738

> <Gold.PLP.part.hbond>
-2.7394

> <Gold.PLP.part.metal>
0.0000

> <Gold.PLP.part.buried>
-5.6238

> <Gold.PLP.part.nonpolar>
-39.3327

> <Gold.PLP.part.repulsive>
0.2364

> <Gold.PLP.ligand.clash>
0.0000

> <Gold.PLP.ligand.torsion>
0.6413

> <Gold.PLP.Chemscore.Hbond>
1.9913

> <Gold.PLP.Chemscore.CHOScore>
1.0000

> <Gold.PLP.Chemscore.Metal>
0.0000

> <Gold.Chemscore.Hbonds>
donor molecule, donor type, donor heavy atom, donor atom, acceptor molecule, acceptor atom, score
      P1  H  7997  8009       L1     1  0.86
      P1  H 10752 10763       L1     8  1.00
      L1  C     7    24       P1  7949  1.00

> <Gold.PLP.Chemscore.Internal.Correction>
0.0376

> <Gold.Rescore>
     Score         DG    S(hbond)    S(metal)    S(lipo)     H(rot)  DE(clash)    DE(int)     intcor
     20.21     -21.08       1.83        0.00     122.38       1.89       0.00       0.88       ----

> <Gold.Chemscore.Fitness>
20.2065

> <Gold.Chemscore.DG>
-21.0829

> <Gold.Chemscore.ZeroCoef>
-5.4800

> <Gold.Chemscore.Hbond>
1.8345

> <Gold.Chemscore.Metal>
0.0000

> <Gold.Chemscore.Lipo>
122.3759

> <Gold.Chemscore.Internal_Hbond>
0.0000

> <Gold.Chemscore.DEClash>
0.0004

> <Gold.Chemscore.DEInternal>
0.8760

> <Gold.Chemscore.Rot>
1.8916

> <Gold.Chemscore.Internal.Correction>
   9.000000E+99

> <Gold.Chemscore.Hbonds>
donor molecule, donor type, donor heavy atom, donor atom, acceptor molecule, acceptor atom, score
      P1  H  7997  8009       L1     1  0.81
      P1  H 10752 10763       L1     8  0.22

> <Gold.Chemscore.Hbond.Weighted>
-6.1274

> <Gold.Chemscore.Metal.Weighted>
-0.0000

> <Gold.Chemscore.Lipo.Weighted>
-14.3180

> <Gold.Chemscore.Internal_Hbond.Weighted>
0.0000

> <Gold.Chemscore.DEClash.Weighted>
0.0004

> <Gold.Chemscore.DEInternal.Weighted>
0.8760

> <Gold.Chemscore.Rot.Weighted>
4.8425

> <Gold.Chemscore.Internal.Correction.Weighted>
   9.000000E+99

> <Gold.Protein.RotatedTorsions>
[ 6907 6896 6895 6894 ] final   58.59 input  -60.11 | X-H torsion
[ 7974 7965 7964 7962 ] final -133.60 input  175.53 | X-H torsion
[ 8008 7997 7996 7995 ] final  129.40 input   59.86 | X-H torsion
[ 10167 10162 10161 10158 ] final  -21.10 input  -65.29 | X-H torsion
[ 10718 10713 10712 10709 ] final -100.14 input   66.30 | X-H torsion
[ 10763 10752 10751 10750 ] final   64.91 input  -60.55 | X-H torsion
[ 11005 11000 10999 10996 ] final  -33.81 input  -57.11 | X-H torsion

> <Gold.Protein.ActiveResidues>
 VAL166  LYS551  ARG553  GLY616  TRP617  ASP618  TYR619  PRO620  LYS621  CYS622 
 ASP623  PHE694  ASN695  SER759  ASP760  ASP761  ALA762  ILE779  LEU786  VAL792 
 PHE793  MET794  SER795  GLU796  ALA797  LYS798  CYS799  TRP800  GLU811  SER814 

> <Gold.Protein.RotatedAtoms>
  152.3838  134.6549  160.0132 H   0  0  0  0  0  0  0  0  0  0  0  0  # atno 6907 bound_to 6896
  151.6804  133.3306  159.3226 H   0  0  0  0  0  0  0  0  0  0  0  0  # atno 6908 bound_to 6896
  150.7769  134.6722  159.6442 H   0  0  0  0  0  0  0  0  0  0  0  0  # atno 6909 bound_to 6896
  144.9178  140.6976  143.4984 H   0  0  0  0  0  0  0  0  0  0  0  0  # atno 7974 bound_to 7965
  156.2935  140.2621  156.2592 H   0  0  0  0  0  0  0  0  0  0  0  0  # atno 8008 bound_to 7997
  154.9805  140.0390  157.2294 H   0  0  0  0  0  0  0  0  0  0  0  0  # atno 8009 bound_to 7997
  154.7776  140.2789  155.6093 H   0  0  0  0  0  0  0  0  0  0  0  0  # atno 8010 bound_to 7997
  140.7280  143.4660  151.0313 H   0  0  0  0  0  0  0  0  0  0  0  0  # atno 10167 bound_to 10162
  156.0154  130.5314  150.6773 H   0  0  0  0  0  0  0  0  0  0  0  0  # atno 10718 bound_to 10713
  153.0075  135.5376  154.6585 H   0  0  0  0  0  0  0  0  0  0  0  0  # atno 10763 bound_to 10752
  154.5799  135.2849  155.0745 H   0  0  0  0  0  0  0  0  0  0  0  0  # atno 10764 bound_to 10752
  154.1878  135.6505  153.5104 H   0  0  0  0  0  0  0  0  0  0  0  0  # atno 10765 bound_to 10752
  140.9665  133.7134  156.1454 H   0  0  0  0  0  0  0  0  0  0  0  0  # atno 11005 bound_to 11000
  145.3346  139.1749  143.4518 LP  0  0  0  0  0  0  0  0  0  0  0  0  # atno 17320 bound_to 7965
  146.3190  140.3380  142.8645 LP  0  0  0  0  0  0  0  0  0  0  0  0  # atno 17321 bound_to 7965
  139.8348  143.7642  152.3180 LP  0  0  0  0  0  0  0  0  0  0  0  0  # atno 17342 bound_to 10162
  139.7771  144.7457  151.0142 LP  0  0  0  0  0  0  0  0  0  0  0  0  # atno 17343 bound_to 10162
  157.4483  131.0869  151.0873 LP  0  0  0  0  0  0  0  0  0  0  0  0  # atno 17370 bound_to 10713
  157.1396  130.6137  149.5551 LP  0  0  0  0  0  0  0  0  0  0  0  0  # atno 17371 bound_to 10713
  140.7391  134.4170  157.5557 LP  0  0  0  0  0  0  0  0  0  0  0  0  # atno 17394 bound_to 11000
  139.8896  134.8825  156.2410 LP  0  0  0  0  0  0  0  0  0  0  0  0  # atno 17395 bound_to 11000

$$$$
