AV-unprocessed.smi:1976|AV-procd|sdf|7986|dock4
  -GOLD-   2272010163D 1   1.00000     0.00000
 Structure written by MMmdl.
 45 47  0  0  0  0  0  0  0  0  2 V2000
  151.3730  139.7872  157.8079 O   0  0  0  0  0  0  0  0  0  0  0  0
  151.2645  140.7230  157.0142 C   0  0  0  0  0  0  0  0  0  0  0  0
  151.7145  142.1417  157.3924 C   0  0  0  0  0  0  0  0  0  0  0  0
  152.2264  142.2471  158.7692 N   0  0  0  0  0  0  0  0  0  0  0  0
  153.2153  141.3217  159.1570 C   0  0  0  0  0  0  0  0  0  0  0  0
  153.7684  141.3115  160.3849 C   0  0  0  0  0  0  0  0  0  0  0  0
  154.7885  140.2604  160.7938 C   0  0  0  0  0  0  0  0  0  0  0  0
  155.9071  140.4165  160.0873 F   0  0  0  0  0  0  0  0  0  0  0  0
  155.0953  140.3667  162.0869 F   0  0  0  0  0  0  0  0  0  0  0  0
  154.3266  139.0289  160.5728 F   0  0  0  0  0  0  0  0  0  0  0  0
  153.2693  142.2956  161.3254 C   0  0  0  0  0  0  0  0  0  0  0  0
  152.3146  143.1794  160.9747 C   0  0  0  0  0  0  0  0  0  0  0  0
  151.7366  143.1900  159.6291 C   0  0  0  0  0  0  0  0  0  0  0  0
  150.8643  143.9926  159.2960 O   0  0  0  0  0  0  0  0  0  0  0  0
  150.7734  140.5736  155.7749 N   0  0  0  0  0  0  0  0  0  0  0  0
  150.2855  139.3132  155.2218 C   0  0  1  0  0  0  0  0  0  0  0  0
  149.5540  138.4474  156.2390 C   0  0  0  0  0  0  0  0  0  0  0  0
  148.7685  137.4711  155.3571 C   0  0  0  0  0  0  0  0  0  0  0  0
  148.5267  138.1581  154.0643 N   0  3  1  0  0  0  0  0  0  0  0  0
  147.0917  138.2364  153.6801 C   0  0  0  0  0  0  0  0  0  0  0  0
  146.8754  139.2756  152.5699 C   0  0  0  0  0  0  0  0  0  0  0  0
  147.2780  140.6891  153.0322 C   0  0  0  0  0  0  0  0  0  0  0  0
  148.2923  140.6639  154.1919 C   0  0  0  0  0  0  0  0  0  0  0  0
  149.2572  139.4576  154.0827 C   0  0  1  0  0  0  0  0  0  0  0  0
  152.4762  142.4599  156.6790 H   0  0  0  0  0  0  0  0  0  0  0  0
  150.8819  142.8323  157.2452 H   0  0  0  0  0  0  0  0  0  0  0  0
  153.4886  140.6096  158.3918 H   0  0  0  0  0  0  0  0  0  0  0  0
  153.6691  142.3264  162.3283 H   0  0  0  0  0  0  0  0  0  0  0  0
  151.9660  143.8981  161.7018 H   0  0  0  0  0  0  0  0  0  0  0  0
  150.7214  141.3890  155.1811 H   0  0  0  0  0  0  0  0  0  0  0  0
  151.1389  138.7400  154.8528 H   0  0  0  0  0  0  0  0  0  0  0  0
  150.2283  137.9411  156.9306 H   0  0  0  0  0  0  0  0  0  0  0  0
  148.8629  139.0545  156.8256 H   0  0  0  0  0  0  0  0  0  0  0  0
  149.3698  136.5840  155.1555 H   0  0  0  0  0  0  0  0  0  0  0  0
  147.8520  137.1375  155.8459 H   0  0  0  0  0  0  0  0  0  0  0  0
  146.7570  137.2508  153.3547 H   0  0  0  0  0  0  0  0  0  0  0  0
  146.4838  138.5064  154.5455 H   0  0  0  0  0  0  0  0  0  0  0  0
  147.4708  138.9928  151.7006 H   0  0  0  0  0  0  0  0  0  0  0  0
  145.8361  139.2733  152.2401 H   0  0  0  0  0  0  0  0  0  0  0  0
  147.6945  141.2334  152.1837 H   0  0  0  0  0  0  0  0  0  0  0  0
  146.3955  141.2478  153.3464 H   0  0  0  0  0  0  0  0  0  0  0  0
  148.8374  141.6077  154.2044 H   0  0  0  0  0  0  0  0  0  0  0  0
  147.7556  140.6121  155.1405 H   0  0  0  0  0  0  0  0  0  0  0  0
  149.7939  139.5535  153.1377 H   0  0  0  0  0  0  0  0  0  0  0  0
  148.9834  137.5985  153.3580 H   0  0  0  0  0  0  0  0  0  0  0  0
  1  2  2  0  0  0  0
  2  3  1  0  0  0  0
  2 15  1  0  0  0  0
  3  4  1  0  0  0  0
  3 25  1  0  0  0  0
  3 26  1  0  0  0  0
  4 13  1  0  0  0  0
  4  5  1  0  0  0  0
  5  6  2  0  0  0  0
  5 27  1  0  0  0  0
  6  7  1  0  0  0  0
  6 11  1  0  0  0  0
  7  8  1  0  0  0  0
  7  9  1  0  0  0  0
  7 10  1  0  0  0  0
 11 12  2  0  0  0  0
 11 28  1  0  0  0  0
 12 13  1  0  0  0  0
 12 29  1  0  0  0  0
 13 14  2  0  0  0  0
 15 16  1  0  0  0  0
 15 30  1  0  0  0  0
 16 24  1  0  0  0  0
 16 17  1  0  0  0  0
 16 31  1  0  0  0  0
 17 18  1  0  0  0  0
 17 32  1  0  0  0  0
 17 33  1  0  0  0  0
 18 19  1  0  0  0  0
 18 34  1  0  0  0  0
 18 35  1  0  0  0  0
 19 24  1  0  0  0  0
 19 20  1  0  0  0  0
 19 45  1  0  0  0  0
 20 21  1  0  0  0  0
 20 36  1  0  0  0  0
 20 37  1  0  0  0  0
 21 22  1  0  0  0  0
 21 38  1  0  0  0  0
 21 39  1  0  0  0  0
 22 23  1  0  0  0  0
 22 40  1  0  0  0  0
 22 41  1  0  0  0  0
 23 24  1  0  0  0  0
 23 42  1  0  0  0  0
 23 43  1  0  0  0  0
 24 44  1  0  0  0  0
M  CHG  1  19   1
M  END
> <s_m_source_file>
AV-unprocessed.smi

> <i_m_source_file_index>
1976

> <i_lp_mmshare_version>
43012

> <i_f3d_flags>
0

> <s_epik_input>
W0NIMl0xW0NIMl1bQ0gyXVtDSDJdW0NASF0oTjEyKVtDQEBIXShbQ0gyXVtDSDJdMilbTkhdQyg9TylbQ0gyXW4zW2NIXWMoQyhGKShGKUYpW2NIXVtjSF1jMz1P

> <s_epik_cmdline>
J2VwaWtfcHl0aG9uJywgJy1waCcsICc3LjAnLCAnLXRuJywgJzgnLCAnLW1hJywgJzIwMCcsICctbWV0YWxfYmluZGluZycsICctaW1hZScsICc8aW5maWxlLm1hZT4nLCAnLW9tYWUnLCAnPG91dGZpbGUubWFlPic=

> <r_lp_tautomer_probability>
1

> <r_epik_Ionization_Penalty>
0.00171506

> <r_epik_Ionization_Penalty_Charging>
0.00171498

> <r_epik_Ionization_Penalty_Neutral>
7.81737e-08

> <r_epik_State_Penalty>
0.00115937

> <r_epik_Charging_Adjusted_Penalty>
0.00287436

> <i_epik_Tot_Q>
1

> <i_epik_Tot_abs_Q>
1

> <r_epik_Metal_State_Penalty>
-0

> <b_epik_Metal_Only>
0

> <s_lp_Force_Field>
OPLS_2005

> <r_lp_Energy>
52.608

> <b_lp_Chiralities_Consistent>
1

> <s_lp_Variant>
AV-unprocessed.smi:1976-4

> <Gold.Version>
5.8.1

> <Gold.Id.Protein>
6NUR|6NUR_protein|mol2

> <Gold.PLP.Fitness>
48.4376

> <Gold.PLP.PLP>
-43.4074

> <Gold.PLP.part.hbond>
-1.0000

> <Gold.PLP.part.metal>
0.0000

> <Gold.PLP.part.buried>
-3.0626

> <Gold.PLP.part.nonpolar>
-39.3602

> <Gold.PLP.part.repulsive>
0.2251

> <Gold.PLP.ligand.clash>
0.0000

> <Gold.PLP.ligand.torsion>
0.4792

> <Gold.PLP.Chemscore.Hbond>
1.9825

> <Gold.PLP.Chemscore.CHOScore>
0.0000

> <Gold.PLP.Chemscore.Metal>
0.0000

> <Gold.Chemscore.Hbonds>
donor molecule, donor type, donor heavy atom, donor atom, acceptor molecule, acceptor atom, score
      L1  H    19    45       P1  7948  2.00

> <Gold.PLP.Chemscore.Internal.Correction>
0.0409

> <Gold.Rescore>
     Score         DG    S(hbond)    S(metal)    S(lipo)     H(rot)  DE(clash)    DE(int)     intcor
     12.80     -16.26       0.92        0.00     100.38       1.58       0.10       3.35       ----

> <Gold.Chemscore.Fitness>
12.8017

> <Gold.Chemscore.DG>
-16.2585

> <Gold.Chemscore.ZeroCoef>
-5.4800

> <Gold.Chemscore.Hbond>
0.9242

> <Gold.Chemscore.Metal>
0.0000

> <Gold.Chemscore.Lipo>
100.3759

> <Gold.Chemscore.Internal_Hbond>
0.0000

> <Gold.Chemscore.DEClash>
0.1048

> <Gold.Chemscore.DEInternal>
3.3520

> <Gold.Chemscore.Rot>
1.5830

> <Gold.Chemscore.Internal.Correction>
   9.000000E+99

> <Gold.Chemscore.Hbonds>
donor molecule, donor type, donor heavy atom, donor atom, acceptor molecule, acceptor atom, score
      L1  H    19    45       P1  7948  0.92

> <Gold.Chemscore.Hbond.Weighted>
-3.0869

> <Gold.Chemscore.Metal.Weighted>
-0.0000

> <Gold.Chemscore.Lipo.Weighted>
-11.7440

> <Gold.Chemscore.Internal_Hbond.Weighted>
0.0000

> <Gold.Chemscore.DEClash.Weighted>
0.1048

> <Gold.Chemscore.DEInternal.Weighted>
3.3520

> <Gold.Chemscore.Rot.Weighted>
4.0524

> <Gold.Chemscore.Internal.Correction.Weighted>
   9.000000E+99

> <Gold.Protein.RotatedTorsions>
[ 6907 6896 6895 6894 ] final   64.30 input  -60.11 | X-H torsion
[ 7974 7965 7964 7962 ] final   50.01 input  175.53 | X-H torsion
[ 8008 7997 7996 7995 ] final   49.20 input   59.86 | X-H torsion
[ 10167 10162 10161 10158 ] final   18.49 input  -65.29 | X-H torsion
[ 10718 10713 10712 10709 ] final -150.46 input   66.30 | X-H torsion
[ 10763 10752 10751 10750 ] final  176.00 input  -60.55 | X-H torsion
[ 11005 11000 10999 10996 ] final  -93.60 input  -57.11 | X-H torsion

> <Gold.Protein.ActiveResidues>
 VAL166  LYS551  ARG553  GLY616  TRP617  ASP618  TYR619  PRO620  LYS621  CYS622 
 ASP623  PHE694  ASN695  SER759  ASP760  ASP761  ALA762  ILE779  LEU786  VAL792 
 PHE793  MET794  SER795  GLU796  ALA797  LYS798  CYS799  TRP800  GLU811  SER814 

> <Gold.Protein.RotatedAtoms>
  152.4321  134.5758  159.9933 H   0  0  0  0  0  0  0  0  0  0  0  0  # atno 6907 bound_to 6896
  151.5878  133.3364  159.3029 H   0  0  0  0  0  0  0  0  0  0  0  0  # atno 6908 bound_to 6896
  150.8215  134.7460  159.6841 H   0  0  0  0  0  0  0  0  0  0  0  0  # atno 6909 bound_to 6896
  146.0053  139.4484  142.9989 H   0  0  0  0  0  0  0  0  0  0  0  0  # atno 7974 bound_to 7965
  155.3982  140.3436  155.4255 H   0  0  0  0  0  0  0  0  0  0  0  0  # atno 8008 bound_to 7997
  156.1519  140.1573  156.8789 H   0  0  0  0  0  0  0  0  0  0  0  0  # atno 8009 bound_to 7997
  154.5060  140.0802  156.7875 H   0  0  0  0  0  0  0  0  0  0  0  0  # atno 8010 bound_to 7997
  140.5649  143.9269  150.6669 H   0  0  0  0  0  0  0  0  0  0  0  0  # atno 10167 bound_to 10162
  156.4464  130.8146  151.2377 H   0  0  0  0  0  0  0  0  0  0  0  0  # atno 10718 bound_to 10713
  154.4752  135.2772  155.1613 H   0  0  0  0  0  0  0  0  0  0  0  0  # atno 10763 bound_to 10752
  154.3345  135.6183  153.5571 H   0  0  0  0  0  0  0  0  0  0  0  0  # atno 10764 bound_to 10752
  152.9868  135.5773  154.5141 H   0  0  0  0  0  0  0  0  0  0  0  0  # atno 10765 bound_to 10752
  141.1493  133.7899  157.0182 H   0  0  0  0  0  0  0  0  0  0  0  0  # atno 11005 bound_to 11000
  145.7425  141.0003  143.1293 LP  0  0  0  0  0  0  0  0  0  0  0  0  # atno 17320 bound_to 7965
  144.6933  139.9116  143.7463 LP  0  0  0  0  0  0  0  0  0  0  0  0  # atno 17321 bound_to 7965
  140.2729  143.3443  152.1221 LP  0  0  0  0  0  0  0  0  0  0  0  0  # atno 17342 bound_to 10162
  139.5088  144.6856  151.5895 LP  0  0  0  0  0  0  0  0  0  0  0  0  # atno 17343 bound_to 10162
  157.7504  131.0152  150.3494 LP  0  0  0  0  0  0  0  0  0  0  0  0  # atno 17370 bound_to 10713
  156.3863  130.3889  149.7063 LP  0  0  0  0  0  0  0  0  0  0  0  0  # atno 17371 bound_to 10713
  140.0833  134.9635  157.1660 LP  0  0  0  0  0  0  0  0  0  0  0  0  # atno 17394 bound_to 11000
  140.3546  134.2561  155.7194 LP  0  0  0  0  0  0  0  0  0  0  0  0  # atno 17395 bound_to 11000

$$$$
