AV-unprocessed.smi:2438|AV-procd|sdf|9599|dock3
  -GOLD-   2272013233D 1   1.00000     0.00000
 Structure written by MMmdl.
 44 45  0  0  0  0  0  0  0  0  2 V2000
  149.9190  141.6409  157.4312 C   0  0  0  0  0  0  0  0  0  0  0  0
  150.2189  140.2146  157.4609 N   0  0  0  0  0  0  0  0  0  0  0  0
  151.5151  139.8424  158.0120 C   0  0  0  0  0  0  0  0  0  0  0  0
  149.8419  139.4642  156.3288 C   0  0  0  0  0  0  0  0  0  0  0  0
  150.4887  139.7001  155.1641 N   0  0  0  0  0  0  0  0  0  0  0  0
  150.1725  138.9947  154.0731 C   0  0  0  0  0  0  0  0  0  0  0  0
  149.2234  138.0496  154.0673 N   0  3  0  0  0  0  0  0  0  0  0  0
  148.5431  137.7773  155.2058 C   0  0  0  0  0  0  0  0  0  0  0  0
  148.8322  138.4746  156.4024 C   0  0  0  0  0  0  0  0  0  0  0  0
  148.1256  138.2618  157.6196 N   0  0  0  0  0  0  0  0  0  0  0  0
  146.9307  137.6733  157.7897 C   0  0  0  0  0  0  0  0  0  0  0  0
  146.2054  137.2668  156.8823 O   0  0  0  0  0  0  0  0  0  0  0  0
  146.6294  137.5581  159.0904 N   0  0  0  0  0  0  0  0  0  0  0  0
  145.4343  136.9113  159.6304 C   0  0  2  0  0  0  0  0  0  0  0  0
  144.8553  137.7448  160.7895 C   0  0  0  0  0  0  0  0  0  0  0  0
  145.7477  137.6953  162.0417 C   0  0  0  0  0  0  0  0  0  0  0  0
  146.0242  136.2476  162.4779 C   0  0  0  0  0  0  0  0  0  0  0  0
  146.6452  135.4163  161.3355 C   0  0  1  0  0  0  0  0  0  0  0  0
  146.9497  133.9681  161.7690 C   0  0  0  0  0  0  0  0  0  0  0  0
  147.7551  133.9492  162.8314 F   0  0  0  0  0  0  0  0  0  0  0  0
  145.8164  133.3363  162.0748 F   0  0  0  0  0  0  0  0  0  0  0  0
  147.5364  133.3077  160.7706 F   0  0  0  0  0  0  0  0  0  0  0  0
  145.7317  135.4667  160.0901 C   0  0  0  0  0  0  0  0  0  0  0  0
  148.9003  141.8179  157.0841 H   0  0  0  0  0  0  0  0  0  0  0  0
  150.6084  142.1714  156.7734 H   0  0  0  0  0  0  0  0  0  0  0  0
  150.0099  142.0657  158.4312 H   0  0  0  0  0  0  0  0  0  0  0  0
  151.6779  138.7647  157.9948 H   0  0  0  0  0  0  0  0  0  0  0  0
  151.5923  140.1752  159.0476 H   0  0  0  0  0  0  0  0  0  0  0  0
  152.3176  140.3134  157.4431 H   0  0  0  0  0  0  0  0  0  0  0  0
  150.6838  139.1770  153.1394 H   0  0  0  0  0  0  0  0  0  0  0  0
  147.7808  137.0202  155.1017 H   0  0  0  0  0  0  0  0  0  0  0  0
  148.6382  138.4813  158.4617 H   0  0  0  0  0  0  0  0  0  0  0  0
  147.2862  137.9244  159.7640 H   0  0  0  0  0  0  0  0  0  0  0  0
  144.6851  136.8772  158.8373 H   0  0  0  0  0  0  0  0  0  0  0  0
  144.7067  138.7788  160.4757 H   0  0  0  0  0  0  0  0  0  0  0  0
  143.8663  137.3617  161.0444 H   0  0  0  0  0  0  0  0  0  0  0  0
  146.6917  138.2040  161.8437 H   0  0  0  0  0  0  0  0  0  0  0  0
  145.2711  138.2418  162.8561 H   0  0  0  0  0  0  0  0  0  0  0  0
  146.6883  136.2526  163.3426 H   0  0  0  0  0  0  0  0  0  0  0  0
  145.0935  135.7844  162.8079 H   0  0  0  0  0  0  0  0  0  0  0  0
  147.5986  135.8767  161.0719 H   0  0  0  0  0  0  0  0  0  0  0  0
  144.7882  134.9688  160.3171 H   0  0  0  0  0  0  0  0  0  0  0  0
  146.1769  134.8980  159.2732 H   0  0  0  0  0  0  0  0  0  0  0  0
  149.0024  137.5370  153.2132 H   0  0  0  0  0  0  0  0  0  0  0  0
  1  2  1  0  0  0  0
  1 24  1  0  0  0  0
  1 25  1  0  0  0  0
  1 26  1  0  0  0  0
  2  3  1  0  0  0  0
  2  4  1  0  0  0  0
  3 27  1  0  0  0  0
  3 28  1  0  0  0  0
  3 29  1  0  0  0  0
  4  9  1  0  0  0  0
  4  5  2  0  0  0  0
  5  6  1  0  0  0  0
  6  7  2  0  0  0  0
  6 30  1  0  0  0  0
  7  8  1  0  0  0  0
  7 44  1  0  0  0  0
  8  9  2  0  0  0  0
  8 31  1  0  0  0  0
  9 10  1  0  0  0  0
 10 11  1  0  0  0  0
 10 32  1  0  0  0  0
 11 12  2  0  0  0  0
 11 13  1  0  0  0  0
 13 14  1  0  0  0  0
 13 33  1  0  0  0  0
 14 23  1  0  0  0  0
 14 15  1  0  0  0  0
 14 34  1  0  0  0  0
 15 16  1  0  0  0  0
 15 35  1  0  0  0  0
 15 36  1  0  0  0  0
 16 17  1  0  0  0  0
 16 37  1  0  0  0  0
 16 38  1  0  0  0  0
 17 18  1  0  0  0  0
 17 39  1  0  0  0  0
 17 40  1  0  0  0  0
 18 19  1  0  0  0  0
 18 23  1  0  0  0  0
 18 41  1  0  0  0  0
 19 20  1  0  0  0  0
 19 21  1  0  0  0  0
 19 22  1  0  0  0  0
 23 42  1  0  0  0  0
 23 43  1  0  0  0  0
M  CHG  1   7   1
M  END
> <s_m_source_file>
AV-unprocessed.smi

> <i_m_source_file_index>
2438

> <i_lp_mmshare_version>
43012

> <i_f3d_flags>
0

> <s_epik_input>
W0NIM11OKFtDSDNdKWMxbltjSF1uW2NIXWMxW05IXUMoPU8pW05IXVtDQEBIXTJbQ0gyXVtDSDJdW0NIMl1bQ0BASF0oQyhGKShGKUYpW0NIMl0y

> <s_epik_cmdline>
J2VwaWtfcHl0aG9uJywgJy1waCcsICc3LjAnLCAnLXRuJywgJzgnLCAnLW1hJywgJzIwMCcsICctbWV0YWxfYmluZGluZycsICctaW1hZScsICc8aW5maWxlLm1hZT4nLCAnLW9tYWUnLCAnPG91dGZpbGUubWFlPic=

> <r_lp_tautomer_probability>
0.999336

> <r_epik_Ionization_Penalty>
2.11643

> <r_epik_Ionization_Penalty_Charging>
2.11639

> <r_epik_Ionization_Penalty_Neutral>
4.47523e-05

> <r_epik_State_Penalty>
2.25369

> <r_epik_Charging_Adjusted_Penalty>
4.37008

> <i_epik_Tot_Q>
1

> <i_epik_Tot_abs_Q>
1

> <r_epik_Metal_State_Penalty>
2.27019

> <b_epik_Metal_Only>
0

> <s_lp_Force_Field>
OPLS_2005

> <r_lp_Energy>
15.0376

> <b_lp_Chiralities_Consistent>
1

> <s_lp_Variant>
AV-unprocessed.smi:2438-5

> <Gold.Version>
5.8.1

> <Gold.Id.Protein>
6NUR|6NUR_protein|mol2

> <Gold.PLP.Fitness>
32.6878

> <Gold.PLP.PLP>
-24.6151

> <Gold.PLP.part.hbond>
-1.0000

> <Gold.PLP.part.metal>
0.0000

> <Gold.PLP.part.buried>
-2.8210

> <Gold.PLP.part.nonpolar>
-20.4949

> <Gold.PLP.part.repulsive>
0.2733

> <Gold.PLP.ligand.clash>
0.0000

> <Gold.PLP.ligand.torsion>
0.5546

> <Gold.PLP.Chemscore.Hbond>
2.0000

> <Gold.PLP.Chemscore.CHOScore>
0.9285

> <Gold.PLP.Chemscore.Metal>
0.0000

> <Gold.Chemscore.Hbonds>
donor molecule, donor type, donor heavy atom, donor atom, acceptor molecule, acceptor atom, score
      L1  H     7    44       P1  7948  2.00
      L1  C     6    30       P1  7957  0.90

> <Gold.PLP.Chemscore.Internal.Correction>
0.3965

> <Gold.Rescore>
     Score         DG    S(hbond)    S(metal)    S(lipo)     H(rot)  DE(clash)    DE(int)     intcor
      8.76     -10.64       0.98        0.00      44.80       1.31       0.04       1.84       ----

> <Gold.Chemscore.Fitness>
8.7620

> <Gold.Chemscore.DG>
-10.6396

> <Gold.Chemscore.ZeroCoef>
-5.4800

> <Gold.Chemscore.Hbond>
0.9779

> <Gold.Chemscore.Metal>
0.0000

> <Gold.Chemscore.Lipo>
44.7972

> <Gold.Chemscore.Internal_Hbond>
0.0000

> <Gold.Chemscore.DEClash>
0.0405

> <Gold.Chemscore.DEInternal>
1.8371

> <Gold.Chemscore.Rot>
1.3078

> <Gold.Chemscore.Internal.Correction>
   9.000000E+99

> <Gold.Chemscore.Hbonds>
donor molecule, donor type, donor heavy atom, donor atom, acceptor molecule, acceptor atom, score
      L1  H     7    44       P1  7948  1.00

> <Gold.Chemscore.Hbond.Weighted>
-3.2663

> <Gold.Chemscore.Metal.Weighted>
-0.0000

> <Gold.Chemscore.Lipo.Weighted>
-5.2413

> <Gold.Chemscore.Internal_Hbond.Weighted>
0.0000

> <Gold.Chemscore.DEClash.Weighted>
0.0405

> <Gold.Chemscore.DEInternal.Weighted>
1.8371

> <Gold.Chemscore.Rot.Weighted>
3.3481

> <Gold.Chemscore.Internal.Correction.Weighted>
   9.000000E+99

> <Gold.Protein.RotatedTorsions>
[ 6907 6896 6895 6894 ] final  -13.07 input  -60.11 | X-H torsion
[ 7974 7965 7964 7962 ] final  -88.21 input  175.53 | X-H torsion
[ 8008 7997 7996 7995 ] final -151.11 input   59.86 | X-H torsion
[ 10167 10162 10161 10158 ] final -114.21 input  -65.29 | X-H torsion
[ 10718 10713 10712 10709 ] final   73.77 input   66.30 | X-H torsion
[ 10763 10752 10751 10750 ] final -169.79 input  -60.55 | X-H torsion
[ 11005 11000 10999 10996 ] final  176.41 input  -57.11 | X-H torsion

> <Gold.Protein.ActiveResidues>
 VAL166  LYS551  ARG553  GLY616  TRP617  ASP618  TYR619  PRO620  LYS621  CYS622 
 ASP623  PHE694  ASN695  SER759  ASP760  ASP761  ALA762  ILE779  LEU786  VAL792 
 PHE793  MET794  SER795  GLU796  ALA797  LYS798  CYS799  TRP800  GLU811  SER814 

> <Gold.Protein.RotatedAtoms>
  151.3606  135.0903  159.9432 H   0  0  0  0  0  0  0  0  0  0  0  0  # atno 6907 bound_to 6896
  152.5163  133.9262  159.7568 H   0  0  0  0  0  0  0  0  0  0  0  0  # atno 6908 bound_to 6896
  150.9655  133.6345  159.2776 H   0  0  0  0  0  0  0  0  0  0  0  0  # atno 6909 bound_to 6896
  145.4562  140.9561  143.1995 H   0  0  0  0  0  0  0  0  0  0  0  0  # atno 7974 bound_to 7965
  155.6343  140.0695  157.2639 H   0  0  0  0  0  0  0  0  0  0  0  0  # atno 8008 bound_to 7997
  154.4198  140.1762  156.1554 H   0  0  0  0  0  0  0  0  0  0  0  0  # atno 8009 bound_to 7997
  155.9908  140.3345  155.6754 H   0  0  0  0  0  0  0  0  0  0  0  0  # atno 8010 bound_to 7997
  140.1034  143.4592  152.1798 H   0  0  0  0  0  0  0  0  0  0  0  0  # atno 10167 bound_to 10162
  157.6562  130.9645  150.1116 H   0  0  0  0  0  0  0  0  0  0  0  0  # atno 10718 bound_to 10713
  154.6485  135.2908  155.0016 H   0  0  0  0  0  0  0  0  0  0  0  0  # atno 10763 bound_to 10752
  154.1117  135.6561  153.4890 H   0  0  0  0  0  0  0  0  0  0  0  0  # atno 10764 bound_to 10752
  153.0364  135.5266  154.7383 H   0  0  0  0  0  0  0  0  0  0  0  0  # atno 10765 bound_to 10752
  140.3728  134.7014  157.4403 H   0  0  0  0  0  0  0  0  0  0  0  0  # atno 11005 bound_to 11000
  144.8031  139.6103  143.7063 LP  0  0  0  0  0  0  0  0  0  0  0  0  # atno 17320 bound_to 7965
  146.2477  139.6132  142.9448 LP  0  0  0  0  0  0  0  0  0  0  0  0  # atno 17321 bound_to 7965
  139.5659  144.7434  151.4025 LP  0  0  0  0  0  0  0  0  0  0  0  0  # atno 17342 bound_to 10162
  140.6965  143.7735  150.7335 LP  0  0  0  0  0  0  0  0  0  0  0  0  # atno 17343 bound_to 10162
  156.2011  130.3660  149.8787 LP  0  0  0  0  0  0  0  0  0  0  0  0  # atno 17370 bound_to 10713
  156.6691  130.8813  151.3559 LP  0  0  0  0  0  0  0  0  0  0  0  0  # atno 17371 bound_to 10713
  140.0538  134.6092  155.8829 LP  0  0  0  0  0  0  0  0  0  0  0  0  # atno 17394 bound_to 11000
  141.1949  133.6585  156.5616 LP  0  0  0  0  0  0  0  0  0  0  0  0  # atno 17395 bound_to 11000

$$$$
