AV-unprocessed.smi:103|AV-procd|sdf|991|dock5
  -GOLD-   2262017573D 1   1.00000     0.00000
 Structure written by MMmdl.
 53 55  0  0  0  0  0  0  0  0  1 V2000
  146.9467  135.0404  161.3829 C   0  0  0  0  0  0  0  0  0  0  0  0
  147.4033  136.2763  160.6195 C   0  0  0  0  0  0  0  0  0  0  0  0
  148.0079  137.1909  161.1801 O   0  0  0  0  0  0  0  0  0  0  0  0
  147.0739  136.2251  159.3194 O   0  0  0  0  0  0  0  0  0  0  0  0
  147.8923  136.8714  158.3575 C   0  0  0  0  0  0  0  0  0  0  0  0
  149.3643  136.5049  158.6146 C   0  0  2  0  0  0  0  0  0  0  0  0
  149.9895  137.6258  159.2457 O   0  0  0  0  0  0  0  0  0  0  0  0
  151.0037  138.1465  158.4418 C   0  0  2  0  0  0  0  0  0  0  0  0
  151.0073  139.6440  158.5375 N   0  0  0  0  0  0  0  0  0  0  0  0
  152.0367  140.4858  158.9073 C   0  0  0  0  0  0  0  0  0  0  0  0
  153.6604  139.9915  159.4700 S   0  0  0  0  0  0  0  0  0  0  0  0
  154.4941  141.6172  159.6718 C   0  0  0  0  0  0  0  0  0  0  0  0
  153.4955  139.3670  160.7912 O   0  0  0  0  0  0  0  0  0  0  0  0
  154.2903  139.2509  158.3658 O   0  0  0  0  0  0  0  0  0  0  0  0
  151.7650  141.7614  158.9554 N   0  0  0  0  0  0  0  0  0  0  0  0
  150.4534  141.8189  158.5072 C   0  0  0  0  0  0  0  0  0  0  0  0
  149.5393  142.8771  158.2735 C   0  0  0  0  0  0  0  0  0  0  0  0
  149.8443  144.1656  158.4809 N   0  0  0  0  0  0  0  0  0  0  0  0
  148.3017  142.5747  157.8171 N   0  0  0  0  0  0  0  0  0  0  0  0
  147.9734  141.2972  157.6026 C   0  0  0  0  0  0  0  0  0  0  0  0
  148.7187  140.2038  157.7802 N   0  0  0  0  0  0  0  0  0  0  0  0
  149.9683  140.5065  158.2391 C   0  0  0  0  0  0  0  0  0  0  0  0
  150.7594  137.6308  157.0180 C   0  0  2  0  0  0  0  0  0  0  0  0
  149.8182  138.4438  156.3174 O   0  0  0  0  0  0  0  0  0  0  0  0
  150.2062  139.2200  155.2902 C   0  0  0  0  0  0  0  0  0  0  0  0
  149.0237  139.8422  154.5610 C   0  0  0  0  0  0  0  0  0  0  0  0
  151.3668  139.4521  154.9525 O   0  0  0  0  0  0  0  0  0  0  0  0
  150.1898  136.2623  157.3382 C   0  0  2  0  0  0  0  0  0  0  0  0
  149.4730  135.7169  156.2357 O   0  0  0  0  0  0  0  0  0  0  0  0
  150.1177  135.3986  155.1010 C   0  0  0  0  0  0  0  0  0  0  0  0
  149.4654  134.2323  154.3709 C   0  0  0  0  0  0  0  0  0  0  0  0
  151.1278  135.9490  154.6627 O   0  0  0  0  0  0  0  0  0  0  0  0
  147.2159  134.1355  160.8376 H   0  0  0  0  0  0  0  0  0  0  0  0
  145.8648  135.0569  161.5160 H   0  0  0  0  0  0  0  0  0  0  0  0
  147.4168  135.0028  162.3661 H   0  0  0  0  0  0  0  0  0  0  0  0
  147.5816  136.5366  157.3675 H   0  0  0  0  0  0  0  0  0  0  0  0
  147.7602  137.9529  158.3884 H   0  0  0  0  0  0  0  0  0  0  0  0
  149.4175  135.6297  159.2629 H   0  0  0  0  0  0  0  0  0  0  0  0
  151.9594  137.8239  158.8535 H   0  0  0  0  0  0  0  0  0  0  0  0
  155.5152  141.4608  160.0185 H   0  0  0  0  0  0  0  0  0  0  0  0
  153.9505  142.2190  160.3998 H   0  0  0  0  0  0  0  0  0  0  0  0
  154.5116  142.1367  158.7138 H   0  0  0  0  0  0  0  0  0  0  0  0
  150.7622  144.4169  158.8192 H   0  0  0  0  0  0  0  0  0  0  0  0
  149.1575  144.8822  158.2960 H   0  0  0  0  0  0  0  0  0  0  0  0
  146.9714  141.1250  157.2380 H   0  0  0  0  0  0  0  0  0  0  0  0
  151.7025  137.5460  156.4776 H   0  0  0  0  0  0  0  0  0  0  0  0
  148.3836  140.3740  155.2658 H   0  0  0  0  0  0  0  0  0  0  0  0
  148.4328  139.0689  154.0697 H   0  0  0  0  0  0  0  0  0  0  0  0
  149.3678  140.5490  153.8055 H   0  0  0  0  0  0  0  0  0  0  0  0
  151.0324  135.6151  157.5888 H   0  0  0  0  0  0  0  0  0  0  0  0
  148.3888  134.3853  154.2929 H   0  0  0  0  0  0  0  0  0  0  0  0
  149.6461  133.3021  154.9099 H   0  0  0  0  0  0  0  0  0  0  0  0
  149.8732  134.1345  153.3646 H   0  0  0  0  0  0  0  0  0  0  0  0
  1  2  1  0  0  0  0
  1 33  1  0  0  0  0
  1 34  1  0  0  0  0
  1 35  1  0  0  0  0
  2  3  2  0  0  0  0
  2  4  1  0  0  0  0
  4  5  1  0  0  0  0
  5  6  1  0  0  0  0
  5 36  1  0  0  0  0
  5 37  1  0  0  0  0
  6 28  1  0  0  0  0
  6  7  1  0  0  0  0
  6 38  1  0  0  0  0
  7  8  1  0  0  0  0
  8  9  1  0  0  0  0
  8 23  1  0  0  0  0
  8 39  1  0  0  0  0
  9 22  1  0  0  0  0
  9 10  1  0  0  0  0
 10 11  1  0  0  0  0
 10 15  2  0  0  0  0
 11 12  1  0  0  0  0
 11 13  2  0  0  0  0
 11 14  2  0  0  0  0
 12 40  1  0  0  0  0
 12 41  1  0  0  0  0
 12 42  1  0  0  0  0
 15 16  1  0  0  0  0
 16 22  2  0  0  0  0
 16 17  1  0  0  0  0
 17 18  1  0  0  0  0
 17 19  2  0  0  0  0
 18 43  1  0  0  0  0
 18 44  1  0  0  0  0
 19 20  1  0  0  0  0
 20 21  2  0  0  0  0
 20 45  1  0  0  0  0
 21 22  1  0  0  0  0
 23 24  1  0  0  0  0
 23 28  1  0  0  0  0
 23 46  1  0  0  0  0
 24 25  1  0  0  0  0
 25 26  1  0  0  0  0
 25 27  2  0  0  0  0
 26 47  1  0  0  0  0
 26 48  1  0  0  0  0
 26 49  1  0  0  0  0
 28 29  1  0  0  0  0
 28 50  1  0  0  0  0
 29 30  1  0  0  0  0
 30 31  1  0  0  0  0
 30 32  2  0  0  0  0
 31 51  1  0  0  0  0
 31 52  1  0  0  0  0
 31 53  1  0  0  0  0
M  END
> <s_m_source_file>
AV-unprocessed.smi

> <i_m_source_file_index>
103

> <i_lp_mmshare_version>
43012

> <i_f3d_flags>
0

> <s_epik_input>
W0NIM11DKD1PKU9bQ0gyXVtDQEBIXTFPW0NASF0oW0NAQEhdKE9DKD1PKVtDSDNdKVtDQEhdMU9DKD1PKVtDSDNdKW4oYyhuMilTKD1PKSg9TylbQ0gzXSljKGMyMyluW2NIXW5jM1tOSDJd

> <s_epik_cmdline>
J2VwaWtfcHl0aG9uJywgJy1waCcsICc3LjAnLCAnLXRuJywgJzgnLCAnLW1hJywgJzIwMCcsICctbWV0YWxfYmluZGluZycsICctaW1hZScsICc8aW5maWxlLm1hZT4nLCAnLW9tYWUnLCAnPG91dGZpbGUubWFlPic=

> <r_lp_tautomer_probability>
1

> <r_epik_Ionization_Penalty>
1.51338e-05

> <r_epik_Ionization_Penalty_Charging>
0

> <r_epik_Ionization_Penalty_Neutral>
1.51338e-05

> <r_epik_State_Penalty>
-0

> <r_epik_Charging_Adjusted_Penalty>
0

> <i_epik_Tot_Q>
0

> <i_epik_Tot_abs_Q>
0

> <r_epik_Metal_State_Penalty>
-0

> <b_epik_Metal_Only>
0

> <s_epik_Chemistry_Notes>
This compound has an ester and may undergo hydrolysis at high or low pH. This compound contains an acetal/aminal-like group ( X-CH(R)-Y where X, Y are N, S, or O) that may be acid/base labile, releasing an aldehyde.

> <s_lp_Force_Field>
OPLS_2005

> <r_lp_Energy>
16.3317

> <b_lp_Chiralities_Consistent>
1

> <s_lp_Variant>
AV-unprocessed.smi:103-15

> <Gold.Version>
5.8.1

> <Gold.Id.Protein>
6NUR|6NUR_protein|mol2

> <Gold.PLP.Fitness>
47.9555

> <Gold.PLP.PLP>
-35.2524

> <Gold.PLP.part.hbond>
-7.4941

> <Gold.PLP.part.metal>
0.0000

> <Gold.PLP.part.buried>
-5.8945

> <Gold.PLP.part.nonpolar>
-22.8645

> <Gold.PLP.part.repulsive>
0.8217

> <Gold.PLP.ligand.clash>
0.0000

> <Gold.PLP.ligand.torsion>
3.3526

> <Gold.PLP.Chemscore.Hbond>
5.6570

> <Gold.PLP.Chemscore.CHOScore>
0.0000

> <Gold.PLP.Chemscore.Metal>
0.0000

> <Gold.Chemscore.Hbonds>
donor molecule, donor type, donor heavy atom, donor atom, acceptor molecule, acceptor atom, score
      L1  H    18    44       P1  8029  1.00
      P1  H  6931  6943       L1     3  1.00
      P1  H  6934  6947       L1     3  0.70
      P1  H  7989  7998       L1    27  0.98
      P1  H  7997  8008       L1    14  0.89
      P1  H 10752 10765       L1    32  1.00

> <Gold.PLP.Chemscore.Internal.Correction>
2.4374

> <Gold.Rescore>
     Score         DG    S(hbond)    S(metal)    S(lipo)     H(rot)  DE(clash)    DE(int)     intcor
     10.36     -18.01       5.41        0.00      45.61       4.25       0.04       7.61       ----

> <Gold.Chemscore.Fitness>
10.3597

> <Gold.Chemscore.DG>
-18.0124

> <Gold.Chemscore.ZeroCoef>
-5.4800

> <Gold.Chemscore.Hbond>
5.4086

> <Gold.Chemscore.Metal>
0.0000

> <Gold.Chemscore.Lipo>
45.6098

> <Gold.Chemscore.Internal_Hbond>
0.0000

> <Gold.Chemscore.DEClash>
0.0423

> <Gold.Chemscore.DEInternal>
7.6103

> <Gold.Chemscore.Rot>
4.2456

> <Gold.Chemscore.Internal.Correction>
   9.000000E+99

> <Gold.Chemscore.Hbonds>
donor molecule, donor type, donor heavy atom, donor atom, acceptor molecule, acceptor atom, score
      L1  H    18    44       P1  8029  0.54
      P1  H  6931  6943       L1     3  0.95
      P1  H  6934  6947       L1     3  0.60
      P1  H  7989  7998       L1    27  0.86
      P1  H  7997  8008       L1    14  0.84
      P1  H 10752 10765       L1    32  1.00

> <Gold.Chemscore.Hbond.Weighted>
-18.0647

> <Gold.Chemscore.Metal.Weighted>
-0.0000

> <Gold.Chemscore.Lipo.Weighted>
-5.3363

> <Gold.Chemscore.Internal_Hbond.Weighted>
0.0000

> <Gold.Chemscore.DEClash.Weighted>
0.0423

> <Gold.Chemscore.DEInternal.Weighted>
7.6103

> <Gold.Chemscore.Rot.Weighted>
10.8687

> <Gold.Chemscore.Internal.Correction.Weighted>
   9.000000E+99

> <Gold.Protein.RotatedTorsions>
[ 6907 6896 6895 6894 ] final  -21.47 input  -60.11 | X-H torsion
[ 7974 7965 7964 7962 ] final -102.38 input  175.53 | X-H torsion
[ 8008 7997 7996 7995 ] final  -97.94 input   59.86 | X-H torsion
[ 10167 10162 10161 10158 ] final -175.20 input  -65.29 | X-H torsion
[ 10718 10713 10712 10709 ] final  129.35 input   66.30 | X-H torsion
[ 10763 10752 10751 10750 ] final  179.05 input  -60.55 | X-H torsion
[ 11005 11000 10999 10996 ] final  -81.28 input  -57.11 | X-H torsion

> <Gold.Protein.ActiveResidues>
 VAL166  LYS551  ARG553  GLY616  TRP617  ASP618  TYR619  PRO620  LYS621  CYS622 
 ASP623  PHE694  ASN695  SER759  ASP760  ASP761  ALA762  ILE779  LEU786  VAL792 
 PHE793  MET794  SER795  GLU796  ALA797  LYS798  CYS799  TRP800  GLU811  SER814 

> <Gold.Protein.RotatedAtoms>
  151.2329  135.0561  159.8994 H   0  0  0  0  0  0  0  0  0  0  0  0  # atno 6907 bound_to 6896
  152.5402  134.0518  159.8123 H   0  0  0  0  0  0  0  0  0  0  0  0  # atno 6908 bound_to 6896
  151.0700  133.5425  159.2659 H   0  0  0  0  0  0  0  0  0  0  0  0  # atno 6909 bound_to 6896
  145.2695  140.9294  143.2994 H   0  0  0  0  0  0  0  0  0  0  0  0  # atno 7974 bound_to 7965
  154.7945  140.0459  157.1226 H   0  0  0  0  0  0  0  0  0  0  0  0  # atno 8008 bound_to 7997
  154.9551  140.3070  155.5037 H   0  0  0  0  0  0  0  0  0  0  0  0  # atno 8009 bound_to 7997
  156.2954  140.2281  156.4632 H   0  0  0  0  0  0  0  0  0  0  0  0  # atno 8010 bound_to 7997
  139.5593  144.1909  152.1213 H   0  0  0  0  0  0  0  0  0  0  0  0  # atno 10167 bound_to 10162
  157.5162  131.1097  150.9220 H   0  0  0  0  0  0  0  0  0  0  0  0  # atno 10718 bound_to 10713
  154.5156  135.2791  155.1306 H   0  0  0  0  0  0  0  0  0  0  0  0  # atno 10763 bound_to 10752
  154.2884  135.6272  153.5379 H   0  0  0  0  0  0  0  0  0  0  0  0  # atno 10764 bound_to 10752
  152.9927  135.5668  154.5632 H   0  0  0  0  0  0  0  0  0  0  0  0  # atno 10765 bound_to 10752
  141.1667  133.7189  156.8398 H   0  0  0  0  0  0  0  0  0  0  0  0  # atno 11005 bound_to 11000
  144.9348  139.4257  143.6478 LP  0  0  0  0  0  0  0  0  0  0  0  0  # atno 17320 bound_to 7965
  146.3251  139.8277  142.8914 LP  0  0  0  0  0  0  0  0  0  0  0  0  # atno 17321 bound_to 7965
  140.1419  144.5194  150.6739 LP  0  0  0  0  0  0  0  0  0  0  0  0  # atno 17342 bound_to 10162
  140.6871  143.2356  151.5231 LP  0  0  0  0  0  0  0  0  0  0  0  0  # atno 17343 bound_to 10162
  156.9845  130.5540  149.5298 LP  0  0  0  0  0  0  0  0  0  0  0  0  # atno 17370 bound_to 10713
  156.0322  130.5412  150.8563 LP  0  0  0  0  0  0  0  0  0  0  0  0  # atno 17371 bound_to 10713
  140.1991  134.8910  157.3148 LP  0  0  0  0  0  0  0  0  0  0  0  0  # atno 17394 bound_to 11000
  140.2207  134.4027  155.7567 LP  0  0  0  0  0  0  0  0  0  0  0  0  # atno 17395 bound_to 11000

$$$$
