AV-unprocessed.smi:1376|AV-procd|sdf|5591|dock7
  -GOLD-   22720 5193D 1   1.00000     0.00000
 Structure written by MMmdl.
 42 43  0  0  0  0  0  0  0  0  1 V2000
  149.5888  140.7821  157.5513 O   0  0  0  0  0  0  0  0  0  0  0  0
  150.3627  141.4433  156.8581 C   0  0  0  0  0  0  0  0  0  0  0  0
  151.7743  141.7747  157.3614 C   0  0  0  0  0  0  0  0  0  0  0  0
  151.7784  142.7695  158.4467 N   0  0  0  0  0  0  0  0  0  0  0  0
  151.1846  144.0188  158.1773 C   0  0  0  0  0  0  0  0  0  0  0  0
  151.1365  144.9950  159.0974 C   0  0  0  0  0  0  0  0  0  0  0  0
  151.7157  144.7396  160.3947 C   0  0  0  0  0  0  0  0  0  0  0  0
  152.2822  143.5466  160.6645 C   0  0  0  0  0  0  0  0  0  0  0  0
  152.3345  142.4755  159.6628 C   0  0  0  0  0  0  0  0  0  0  0  0
  152.8477  141.3817  159.9013 O   0  0  0  0  0  0  0  0  0  0  0  0
  150.0374  141.9320  155.6518 N   0  0  0  0  0  0  0  0  0  0  0  0
  148.7606  141.7317  154.9731 C   0  0  1  0  0  0  0  0  0  0  0  0
  148.7218  140.3486  154.2934 C   0  0  0  0  0  0  0  0  0  0  0  0
  147.3543  140.0818  153.6451 C   0  0  0  0  0  0  0  0  0  0  0  0
  146.2156  140.2330  154.6656 C   0  0  0  0  0  0  0  0  0  0  0  0
  146.2393  141.6201  155.3300 C   0  0  1  0  0  0  0  0  0  0  0  0
  145.1994  141.6455  156.2993 O   0  0  0  0  0  0  0  0  0  0  0  0
  144.9167  142.9341  156.8284 C   0  0  0  0  0  0  0  0  0  0  0  0
  143.8625  143.6224  155.9536 C   0  0  0  0  0  0  0  0  0  0  0  0
  143.4891  144.7636  156.5314 F   0  0  0  0  0  0  0  0  0  0  0  0
  144.3692  143.8971  154.7521 F   0  0  0  0  0  0  0  0  0  0  0  0
  142.7917  142.8403  155.8202 F   0  0  0  0  0  0  0  0  0  0  0  0
  147.6110  141.8793  155.9871 C   0  0  0  0  0  0  0  0  0  0  0  0
  152.2731  140.8615  157.6924 H   0  0  0  0  0  0  0  0  0  0  0  0
  152.3615  142.1284  156.5131 H   0  0  0  0  0  0  0  0  0  0  0  0
  150.7683  144.1273  157.1862 H   0  0  0  0  0  0  0  0  0  0  0  0
  150.6733  145.9450  158.8746 H   0  0  0  0  0  0  0  0  0  0  0  0
  151.6933  145.5078  161.1537 H   0  0  0  0  0  0  0  0  0  0  0  0
  152.7095  143.3733  161.6413 H   0  0  0  0  0  0  0  0  0  0  0  0
  150.7330  142.4729  155.1589 H   0  0  0  0  0  0  0  0  0  0  0  0
  148.6333  142.5022  154.2098 H   0  0  0  0  0  0  0  0  0  0  0  0
  149.5050  140.2777  153.5377 H   0  0  0  0  0  0  0  0  0  0  0  0
  148.9301  139.5698  155.0286 H   0  0  0  0  0  0  0  0  0  0  0  0
  147.1997  140.7771  152.8191 H   0  0  0  0  0  0  0  0  0  0  0  0
  147.3367  139.0804  153.2139 H   0  0  0  0  0  0  0  0  0  0  0  0
  145.2553  140.0733  154.1743 H   0  0  0  0  0  0  0  0  0  0  0  0
  146.3050  139.4581  155.4283 H   0  0  0  0  0  0  0  0  0  0  0  0
  146.0492  142.3710  154.5608 H   0  0  0  0  0  0  0  0  0  0  0  0
  144.5504  142.8617  157.8524 H   0  0  0  0  0  0  0  0  0  0  0  0
  145.8265  143.5359  156.8494 H   0  0  0  0  0  0  0  0  0  0  0  0
  147.7544  141.1787  156.8111 H   0  0  0  0  0  0  0  0  0  0  0  0
  147.6432  142.8780  156.4221 H   0  0  0  0  0  0  0  0  0  0  0  0
  1  2  2  0  0  0  0
  2  3  1  0  0  0  0
  2 11  1  0  0  0  0
  3  4  1  0  0  0  0
  3 24  1  0  0  0  0
  3 25  1  0  0  0  0
  4  9  1  0  0  0  0
  4  5  1  0  0  0  0
  5  6  2  0  0  0  0
  5 26  1  0  0  0  0
  6  7  1  0  0  0  0
  6 27  1  0  0  0  0
  7  8  2  0  0  0  0
  7 28  1  0  0  0  0
  8  9  1  0  0  0  0
  8 29  1  0  0  0  0
  9 10  2  0  0  0  0
 11 12  1  0  0  0  0
 11 30  1  0  0  0  0
 12 23  1  0  0  0  0
 12 13  1  0  0  0  0
 12 31  1  0  0  0  0
 13 14  1  0  0  0  0
 13 32  1  0  0  0  0
 13 33  1  0  0  0  0
 14 15  1  0  0  0  0
 14 34  1  0  0  0  0
 14 35  1  0  0  0  0
 15 16  1  0  0  0  0
 15 36  1  0  0  0  0
 15 37  1  0  0  0  0
 16 17  1  0  0  0  0
 16 23  1  0  0  0  0
 16 38  1  0  0  0  0
 17 18  1  0  0  0  0
 18 19  1  0  0  0  0
 18 39  1  0  0  0  0
 18 40  1  0  0  0  0
 19 20  1  0  0  0  0
 19 21  1  0  0  0  0
 19 22  1  0  0  0  0
 23 41  1  0  0  0  0
 23 42  1  0  0  0  0
M  END
> <s_m_source_file>
AV-unprocessed.smi

> <i_m_source_file_index>
1376

> <i_lp_mmshare_version>
43012

> <i_f3d_flags>
0

> <s_epik_input>
Tz1jMVtjSF1bY0hdW2NIXVtjSF1uMVtDSDJdQyg9TylbTkhdW0NAQEhdMltDSDJdW0NIMl1bQ0gyXVtDQEhdKFtDSDJdMilPW0NIMl1DKEYpKEYpRg==

> <s_epik_cmdline>
J2VwaWtfcHl0aG9uJywgJy1waCcsICc3LjAnLCAnLXRuJywgJzgnLCAnLW1hJywgJzIwMCcsICctbWV0YWxfYmluZGluZycsICctaW1hZScsICc8aW5maWxlLm1hZT4nLCAnLW9tYWUnLCAnPG91dGZpbGUubWFlPic=

> <r_lp_tautomer_probability>
1

> <r_epik_Ionization_Penalty>
4.08567e-07

> <r_epik_Ionization_Penalty_Charging>
3.90028e-07

> <r_epik_Ionization_Penalty_Neutral>
1.85393e-08

> <r_epik_State_Penalty>
-0

> <r_epik_Charging_Adjusted_Penalty>
3.90028e-07

> <i_epik_Tot_Q>
0

> <i_epik_Tot_abs_Q>
0

> <r_epik_Metal_State_Penalty>
-0

> <b_epik_Metal_Only>
0

> <s_lp_Force_Field>
OPLS_2005

> <r_lp_Energy>
18.2113

> <b_lp_Chiralities_Consistent>
1

> <s_lp_Variant>
AV-unprocessed.smi:1376-2

> <Gold.Version>
5.8.1

> <Gold.Id.Protein>
6NUR|6NUR_protein|mol2

> <Gold.PLP.Fitness>
43.4665

> <Gold.PLP.PLP>
-41.7723

> <Gold.PLP.part.hbond>
-1.0000

> <Gold.PLP.part.metal>
0.0000

> <Gold.PLP.part.buried>
-2.8450

> <Gold.PLP.part.nonpolar>
-38.2429

> <Gold.PLP.part.repulsive>
0.2923

> <Gold.PLP.ligand.clash>
0.0035

> <Gold.PLP.ligand.torsion>
0.6759

> <Gold.PLP.Chemscore.Hbond>
0.0000

> <Gold.PLP.Chemscore.CHOScore>
1.0000

> <Gold.PLP.Chemscore.Metal>
0.0000

> <Gold.Chemscore.Hbonds>
donor molecule, donor type, donor heavy atom, donor atom, acceptor molecule, acceptor atom, score
      L1  C     5    26       P1  8028  1.00

> <Gold.PLP.Chemscore.Internal.Correction>
0.0495

> <Gold.Rescore>
     Score         DG    S(hbond)    S(metal)    S(lipo)     H(rot)  DE(clash)    DE(int)     intcor
      8.64     -10.76       0.00        0.00      92.83       2.18       0.17       1.95       ----

> <Gold.Chemscore.Fitness>
8.6423

> <Gold.Chemscore.DG>
-10.7606

> <Gold.Chemscore.ZeroCoef>
-5.4800

> <Gold.Chemscore.Hbond>
0.0000

> <Gold.Chemscore.Metal>
0.0000

> <Gold.Chemscore.Lipo>
92.8274

> <Gold.Chemscore.Internal_Hbond>
0.0000

> <Gold.Chemscore.DEClash>
0.1697

> <Gold.Chemscore.DEInternal>
1.9487

> <Gold.Chemscore.Rot>
2.1797

> <Gold.Chemscore.Internal.Correction>
   9.000000E+99

> <Gold.Chemscore.Hbond.Weighted>
-0.0000

> <Gold.Chemscore.Metal.Weighted>
-0.0000

> <Gold.Chemscore.Lipo.Weighted>
-10.8608

> <Gold.Chemscore.Internal_Hbond.Weighted>
0.0000

> <Gold.Chemscore.DEClash.Weighted>
0.1697

> <Gold.Chemscore.DEInternal.Weighted>
1.9487

> <Gold.Chemscore.Rot.Weighted>
5.5802

> <Gold.Chemscore.Internal.Correction.Weighted>
   9.000000E+99

> <Gold.Protein.RotatedTorsions>
[ 6907 6896 6895 6894 ] final  -47.51 input  -60.11 | X-H torsion
[ 7974 7965 7964 7962 ] final   87.62 input  175.53 | X-H torsion
[ 8008 7997 7996 7995 ] final  -42.64 input   59.86 | X-H torsion
[ 10167 10162 10161 10158 ] final -135.67 input  -65.29 | X-H torsion
[ 10718 10713 10712 10709 ] final  -12.53 input   66.30 | X-H torsion
[ 10763 10752 10751 10750 ] final -177.08 input  -60.55 | X-H torsion
[ 11005 11000 10999 10996 ] final  -39.91 input  -57.11 | X-H torsion

> <Gold.Protein.ActiveResidues>
 VAL166  LYS551  ARG553  GLY616  TRP617  ASP618  TYR619  PRO620  LYS621  CYS622 
 ASP623  PHE694  ASN695  SER759  ASP760  ASP761  ALA762  ILE779  LEU786  VAL792 
 PHE793  MET794  SER795  GLU796  ALA797  LYS798  CYS799  TRP800  GLU811  SER814 

> <Gold.Protein.RotatedAtoms>
  150.9001  134.8412  159.7353 H   0  0  0  0  0  0  0  0  0  0  0  0  # atno 6907 bound_to 6896
  152.4887  134.4516  159.9586 H   0  0  0  0  0  0  0  0  0  0  0  0  # atno 6908 bound_to 6896
  151.4569  133.3564  159.2838 H   0  0  0  0  0  0  0  0  0  0  0  0  # atno 6909 bound_to 6896
  145.5566  139.2300  143.2483 H   0  0  0  0  0  0  0  0  0  0  0  0  # atno 7974 bound_to 7965
  154.3998  140.1468  156.3388 H   0  0  0  0  0  0  0  0  0  0  0  0  # atno 8008 bound_to 7997
  155.8376  140.3463  155.5590 H   0  0  0  0  0  0  0  0  0  0  0  0  # atno 8009 bound_to 7997
  155.8122  140.0885  157.1888 H   0  0  0  0  0  0  0  0  0  0  0  0  # atno 8010 bound_to 7997
  139.8755  143.6904  152.2634 H   0  0  0  0  0  0  0  0  0  0  0  0  # atno 10167 bound_to 10162
  156.6433  130.4934  149.6087 H   0  0  0  0  0  0  0  0  0  0  0  0  # atno 10718 bound_to 10713
  154.5645  135.2823  155.0887 H   0  0  0  0  0  0  0  0  0  0  0  0  # atno 10763 bound_to 10752
  154.2284  135.6378  153.5171 H   0  0  0  0  0  0  0  0  0  0  0  0  # atno 10764 bound_to 10752
  153.0039  135.5531  154.6249 H   0  0  0  0  0  0  0  0  0  0  0  0  # atno 10765 bound_to 10752
  141.0136  133.6896  156.2250 H   0  0  0  0  0  0  0  0  0  0  0  0  # atno 11005 bound_to 11000
  146.1880  140.6390  142.9158 LP  0  0  0  0  0  0  0  0  0  0  0  0  # atno 17320 bound_to 7965
  144.7503  140.5175  143.6806 LP  0  0  0  0  0  0  0  0  0  0  0  0  # atno 17321 bound_to 7965
  139.7244  144.7596  151.0903 LP  0  0  0  0  0  0  0  0  0  0  0  0  # atno 17342 bound_to 10162
  140.7753  143.5167  150.9586 LP  0  0  0  0  0  0  0  0  0  0  0  0  # atno 17343 bound_to 10162
  156.2142  130.6697  151.1301 LP  0  0  0  0  0  0  0  0  0  0  0  0  # atno 17370 bound_to 10713
  157.7164  131.0707  150.6309 LP  0  0  0  0  0  0  0  0  0  0  0  0  # atno 17371 bound_to 10713
  140.6692  134.4885  157.5586 LP  0  0  0  0  0  0  0  0  0  0  0  0  # atno 17394 bound_to 11000
  139.9104  134.8357  156.1550 LP  0  0  0  0  0  0  0  0  0  0  0  0  # atno 17395 bound_to 11000

$$$$
