AV-unprocessed.smi:1111|AV-procd|sdf|4794|dock9
  -GOLD-   22720 3343D 1   1.00000     0.00000
 Structure written by MMmdl.
 33 34  0  0  0  0  0  0  0  0  2 V2000
  149.2535  141.2254  155.4510 C   0  0  0  0  0  0  0  0  0  0  0  0
  150.4658  140.4949  156.0667 C   0  0  1  0  0  0  0  0  0  0  0  0
  151.3402  141.4460  156.7669 N   0  0  0  0  0  0  0  0  0  0  0  0
  151.0406  142.2449  157.8063 C   0  0  0  0  0  0  0  0  0  0  0  0
  149.9405  142.2790  158.3557 O   0  0  0  0  0  0  0  0  0  0  0  0
  152.1652  143.1488  158.3109 C   0  0  0  0  0  0  0  0  0  0  0  0
  152.3362  143.0229  159.7610 N   0  0  0  0  0  0  0  0  0  0  0  0
  152.0702  143.9711  160.7158 C   0  0  0  0  0  0  0  0  0  0  0  0
  152.3848  143.4070  161.9253 C   0  0  0  0  0  0  0  0  0  0  0  0
  152.8313  142.1403  161.6581 N   0  3  0  0  0  0  0  0  0  0  0  0
  152.8019  141.9087  160.3416 C   0  0  0  0  0  0  0  0  0  0  0  0
  149.9821  139.4622  157.1133 C   0  0  0  0  0  0  0  0  0  0  0  0
  151.1158  138.4803  157.4356 C   0  0  0  0  0  0  0  0  0  0  0  0
  152.0879  138.3216  155.8935 S   0  0  0  0  0  0  0  0  0  0  0  0
  153.4826  138.6973  156.1715 O   0  0  0  0  0  0  0  0  0  0  0  0
  151.7622  137.0496  155.2313 O   0  0  0  0  0  0  0  0  0  0  0  0
  151.2536  139.6919  155.0057 C   0  0  0  0  0  0  0  0  0  0  0  0
  148.5477  140.5188  155.0129 H   0  0  0  0  0  0  0  0  0  0  0  0
  149.5483  141.9108  154.6566 H   0  0  0  0  0  0  0  0  0  0  0  0
  148.7141  141.8009  156.2038 H   0  0  0  0  0  0  0  0  0  0  0  0
  152.2800  141.5133  156.4039 H   0  0  0  0  0  0  0  0  0  0  0  0
  153.1110  142.8976  157.8278 H   0  0  0  0  0  0  0  0  0  0  0  0
  151.9460  144.1914  158.0754 H   0  0  0  0  0  0  0  0  0  0  0  0
  151.6863  144.9509  160.4703 H   0  0  0  0  0  0  0  0  0  0  0  0
  152.3262  143.8015  162.9293 H   0  0  0  0  0  0  0  0  0  0  0  0
  153.0981  141.0017  159.8450 H   0  0  0  0  0  0  0  0  0  0  0  0
  149.5987  139.9380  158.0169 H   0  0  0  0  0  0  0  0  0  0  0  0
  149.1535  138.8907  156.6922 H   0  0  0  0  0  0  0  0  0  0  0  0
  151.7719  138.8795  158.2092 H   0  0  0  0  0  0  0  0  0  0  0  0
  150.7542  137.5032  157.7558 H   0  0  0  0  0  0  0  0  0  0  0  0
  150.5711  139.2373  154.2870 H   0  0  0  0  0  0  0  0  0  0  0  0
  151.9842  140.2713  154.4419 H   0  0  0  0  0  0  0  0  0  0  0  0
  153.1401  141.4732  162.3542 H   0  0  0  0  0  0  0  0  0  0  0  0
  1  2  1  0  0  0  0
  1 18  1  0  0  0  0
  1 19  1  0  0  0  0
  1 20  1  0  0  0  0
  2 17  1  0  0  0  0
  2  3  1  0  0  0  0
  2 12  1  0  0  0  0
  3  4  1  0  0  0  0
  3 21  1  0  0  0  0
  4  5  2  0  0  0  0
  4  6  1  0  0  0  0
  6  7  1  0  0  0  0
  6 22  1  0  0  0  0
  6 23  1  0  0  0  0
  7 11  1  0  0  0  0
  7  8  1  0  0  0  0
  8  9  2  0  0  0  0
  8 24  1  0  0  0  0
  9 10  1  0  0  0  0
  9 25  1  0  0  0  0
 10 11  2  0  0  0  0
 10 33  1  0  0  0  0
 11 26  1  0  0  0  0
 12 13  1  0  0  0  0
 12 27  1  0  0  0  0
 12 28  1  0  0  0  0
 13 14  1  0  0  0  0
 13 29  1  0  0  0  0
 13 30  1  0  0  0  0
 14 15  2  0  0  0  0
 14 16  2  0  0  0  0
 14 17  1  0  0  0  0
 17 31  1  0  0  0  0
 17 32  1  0  0  0  0
M  CHG  1  10   1
M  END
> <s_m_source_file>
AV-unprocessed.smi

> <i_m_source_file_index>
1111

> <i_lp_mmshare_version>
43012

> <i_f3d_flags>
0

> <s_epik_input>
Tz1TKD1PKShbQ0gyXTEpW0NIMl1bQ0gyXVtDQEBdMShbQ0gzXSlbTkhdQyg9TylbQ0gyXW4yW2NIXVtjSF1uW2NIXTI=

> <s_epik_cmdline>
J2VwaWtfcHl0aG9uJywgJy1waCcsICc3LjAnLCAnLXRuJywgJzgnLCAnLW1hJywgJzIwMCcsICctbWV0YWxfYmluZGluZycsICctaW1hZScsICc8aW5maWxlLm1hZT4nLCAnLW9tYWUnLCAnPG91dGZpbGUubWFlPic=

> <r_lp_tautomer_probability>
1

> <r_epik_Ionization_Penalty>
0.638881

> <r_epik_Ionization_Penalty_Charging>
0

> <r_epik_Ionization_Penalty_Neutral>
0.638881

> <r_epik_State_Penalty>
0.656385

> <r_epik_Charging_Adjusted_Penalty>
0.656385

> <i_epik_Tot_Q>
1

> <i_epik_Tot_abs_Q>
1

> <r_epik_Metal_State_Penalty>
0.832701

> <b_epik_Metal_Only>
0

> <s_lp_Force_Field>
OPLS_2005

> <r_lp_Energy>
7.94824

> <b_lp_Chiralities_Consistent>
1

> <s_lp_Variant>
AV-unprocessed.smi:1111-3

> <Gold.Version>
5.8.1

> <Gold.Id.Protein>
6NUR|6NUR_protein|mol2

> <Gold.PLP.Fitness>
39.2323

> <Gold.PLP.PLP>
-33.5602

> <Gold.PLP.part.hbond>
-1.9533

> <Gold.PLP.part.metal>
0.0000

> <Gold.PLP.part.buried>
-4.2864

> <Gold.PLP.part.nonpolar>
-27.1972

> <Gold.PLP.part.repulsive>
0.3225

> <Gold.PLP.ligand.clash>
0.0000

> <Gold.PLP.ligand.torsion>
0.1593

> <Gold.PLP.Chemscore.Hbond>
1.9913

> <Gold.PLP.Chemscore.CHOScore>
0.0000

> <Gold.PLP.Chemscore.Metal>
0.0000

> <Gold.Chemscore.Hbonds>
donor molecule, donor type, donor heavy atom, donor atom, acceptor molecule, acceptor atom, score
      P1  H  7997  8009       L1    15  0.80
      P1  H 10752 10764       L1    16  1.00

> <Gold.PLP.Chemscore.Internal.Correction>
0.0169

> <Gold.Rescore>
     Score         DG    S(hbond)    S(metal)    S(lipo)     H(rot)  DE(clash)    DE(int)     intcor
     14.15     -14.26       1.90        0.00      59.59       1.78       0.00       0.11       ----

> <Gold.Chemscore.Fitness>
14.1502

> <Gold.Chemscore.DG>
-14.2609

> <Gold.Chemscore.ZeroCoef>
-5.4800

> <Gold.Chemscore.Hbond>
1.9048

> <Gold.Chemscore.Metal>
0.0000

> <Gold.Chemscore.Lipo>
59.5922

> <Gold.Chemscore.Internal_Hbond>
0.0000

> <Gold.Chemscore.DEClash>
0.0038

> <Gold.Chemscore.DEInternal>
0.1069

> <Gold.Chemscore.Rot>
1.7787

> <Gold.Chemscore.Internal.Correction>
   9.000000E+99

> <Gold.Chemscore.Hbonds>
donor molecule, donor type, donor heavy atom, donor atom, acceptor molecule, acceptor atom, score
      P1  H  7997  8009       L1    15  0.80
      P1  H 10752 10764       L1    16  0.95

> <Gold.Chemscore.Hbond.Weighted>
-6.3622

> <Gold.Chemscore.Metal.Weighted>
-0.0000

> <Gold.Chemscore.Lipo.Weighted>
-6.9723

> <Gold.Chemscore.Internal_Hbond.Weighted>
0.0000

> <Gold.Chemscore.DEClash.Weighted>
0.0038

> <Gold.Chemscore.DEInternal.Weighted>
0.1069

> <Gold.Chemscore.Rot.Weighted>
4.5536

> <Gold.Chemscore.Internal.Correction.Weighted>
   9.000000E+99

> <Gold.Protein.RotatedTorsions>
[ 6907 6896 6895 6894 ] final -121.13 input  -60.11 | X-H torsion
[ 7974 7965 7964 7962 ] final   25.89 input  175.53 | X-H torsion
[ 8008 7997 7996 7995 ] final -149.47 input   59.86 | X-H torsion
[ 10167 10162 10161 10158 ] final  -53.32 input  -65.29 | X-H torsion
[ 10718 10713 10712 10709 ] final   45.24 input   66.30 | X-H torsion
[ 10763 10752 10751 10750 ] final  -61.64 input  -60.55 | X-H torsion
[ 11005 11000 10999 10996 ] final   58.15 input  -57.11 | X-H torsion

> <Gold.Protein.ActiveResidues>
 VAL166  LYS551  ARG553  GLY616  TRP617  ASP618  TYR619  PRO620  LYS621  CYS622 
 ASP623  PHE694  ASN695  SER759  ASP760  ASP761  ALA762  ILE779  LEU786  VAL792 
 PHE793  MET794  SER795  GLU796  ALA797  LYS798  CYS799  TRP800  GLU811  SER814 

> <Gold.Protein.RotatedAtoms>
  150.8456  133.7867  159.3044 H   0  0  0  0  0  0  0  0  0  0  0  0  # atno 6907 bound_to 6896
  151.5555  135.1065  159.9969 H   0  0  0  0  0  0  0  0  0  0  0  0  # atno 6908 bound_to 6896
  152.4510  133.7587  159.6790 H   0  0  0  0  0  0  0  0  0  0  0  0  # atno 6909 bound_to 6896
  146.1865  139.7403  142.8862 H   0  0  0  0  0  0  0  0  0  0  0  0  # atno 7974 bound_to 7965
  155.6081  140.0669  157.2714 H   0  0  0  0  0  0  0  0  0  0  0  0  # atno 8008 bound_to 7997
  154.4261  140.1806  156.1291 H   0  0  0  0  0  0  0  0  0  0  0  0  # atno 8009 bound_to 7997
  156.0106  140.3327  155.6940 H   0  0  0  0  0  0  0  0  0  0  0  0  # atno 8010 bound_to 7997
  140.6491  143.2554  151.4775 H   0  0  0  0  0  0  0  0  0  0  0  0  # atno 10167 bound_to 10162
  157.4354  130.8049  149.7643 H   0  0  0  0  0  0  0  0  0  0  0  0  # atno 10718 bound_to 10713
  154.2876  135.6259  153.5372 H   0  0  0  0  0  0  0  0  0  0  0  0  # atno 10763 bound_to 10752
  152.9857  135.5648  154.5425 H   0  0  0  0  0  0  0  0  0  0  0  0  # atno 10764 bound_to 10752
  154.5029  135.2873  155.1381 H   0  0  0  0  0  0  0  0  0  0  0  0  # atno 10765 bound_to 10752
  140.0399  134.5889  155.9395 H   0  0  0  0  0  0  0  0  0  0  0  0  # atno 11005 bound_to 11000
  145.3922  141.0374  143.3118 LP  0  0  0  0  0  0  0  0  0  0  0  0  # atno 17320 bound_to 7965
  144.8407  139.5476  143.6901 LP  0  0  0  0  0  0  0  0  0  0  0  0  # atno 17321 bound_to 7965
  139.5704  144.1941  152.1828 LP  0  0  0  0  0  0  0  0  0  0  0  0  # atno 17342 bound_to 10162
  140.1236  144.5351  150.6847 LP  0  0  0  0  0  0  0  0  0  0  0  0  # atno 17343 bound_to 10162
  155.9928  130.3928  150.2925 LP  0  0  0  0  0  0  0  0  0  0  0  0  # atno 17370 bound_to 10713
  157.1085  131.0215  151.3057 LP  0  0  0  0  0  0  0  0  0  0  0  0  # atno 17371 bound_to 10713
  141.1877  133.6560  156.5294 LP  0  0  0  0  0  0  0  0  0  0  0  0  # atno 17394 bound_to 11000
  140.4086  134.7292  157.4822 LP  0  0  0  0  0  0  0  0  0  0  0  0  # atno 17395 bound_to 11000

$$$$
