AV-unprocessed.smi:618|AV-procd|sdf|3078|dock1
  -GOLD-   22720 0 03D 1   1.00000     0.00000
 Structure written by MMmdl.
 41 43  0  0  0  0  0  0  0  0  2 V2000
  149.0752  135.5186  156.3069 O   0  0  0  0  0  0  0  0  0  0  0  0
  148.9974  135.6600  155.0868 C   0  0  0  0  0  0  0  0  0  0  0  0
  148.2490  134.8729  154.3016 N   0  0  0  0  0  0  0  0  0  0  0  0
  147.4227  133.7662  154.7725 C   0  0  0  0  0  0  0  0  0  0  0  0
  145.9873  133.8488  154.2230 C   0  0  2  0  0  0  0  0  0  0  0  0
  145.7427  132.8339  153.0952 C   0  0  0  0  0  0  0  0  0  0  0  0
  144.3672  132.9532  152.5482 N   0  3  2  0  0  0  0  0  0  0  0  0
  144.1996  132.2032  151.2832 C   0  0  0  0  0  0  0  0  0  0  0  0
  144.3434  133.2253  150.1401 C   0  0  0  0  0  0  0  0  0  0  0  0
  144.5191  134.5868  150.8214 C   0  0  0  0  0  0  0  0  0  0  0  0
  143.9868  134.3481  152.2339 C   0  0  2  0  0  0  0  0  0  0  0  0
  144.4363  135.3619  153.3057 C   0  0  0  0  0  0  0  0  0  0  0  0
  145.7892  135.1479  153.6802 O   0  0  0  0  0  0  0  0  0  0  0  0
  149.6429  136.5934  154.3669 N   0  0  0  0  0  0  0  0  0  0  0  0
  150.5095  137.6217  154.8262 C   0  0  0  0  0  0  0  0  0  0  0  0
  151.4404  137.2994  155.8352 C   0  0  0  0  0  0  0  0  0  0  0  0
  152.3225  138.2935  156.2986 C   0  0  0  0  0  0  0  0  0  0  0  0
  152.2453  139.5770  155.7248 C   0  0  0  0  0  0  0  0  0  0  0  0
  151.3722  139.8990  154.7473 N   0  0  0  0  0  0  0  0  0  0  0  0
  150.5275  138.9409  154.3088 C   0  0  0  0  0  0  0  0  0  0  0  0
  148.2450  135.0541  153.3084 H   0  0  0  0  0  0  0  0  0  0  0  0
  147.8912  132.8317  154.4624 H   0  0  0  0  0  0  0  0  0  0  0  0
  147.4118  133.7598  155.8638 H   0  0  0  0  0  0  0  0  0  0  0  0
  145.2785  133.6688  155.0334 H   0  0  0  0  0  0  0  0  0  0  0  0
  146.4728  132.9935  152.3000 H   0  0  0  0  0  0  0  0  0  0  0  0
  145.8911  131.8174  153.4616 H   0  0  0  0  0  0  0  0  0  0  0  0
  144.9033  131.3742  151.1924 H   0  0  0  0  0  0  0  0  0  0  0  0
  143.1959  131.7764  151.2682 H   0  0  0  0  0  0  0  0  0  0  0  0
  145.1934  132.9965  149.4964 H   0  0  0  0  0  0  0  0  0  0  0  0
  143.4481  133.2193  149.5171 H   0  0  0  0  0  0  0  0  0  0  0  0
  145.5772  134.8502  150.8559 H   0  0  0  0  0  0  0  0  0  0  0  0
  143.9927  135.3889  150.3033 H   0  0  0  0  0  0  0  0  0  0  0  0
  142.8972  134.3771  152.1785 H   0  0  0  0  0  0  0  0  0  0  0  0
  144.3242  136.3804  152.9334 H   0  0  0  0  0  0  0  0  0  0  0  0
  143.8019  135.2834  154.1901 H   0  0  0  0  0  0  0  0  0  0  0  0
  149.5412  136.5300  153.3645 H   0  0  0  0  0  0  0  0  0  0  0  0
  151.4778  136.3044  156.2545 H   0  0  0  0  0  0  0  0  0  0  0  0
  153.0417  138.0774  157.0747 H   0  0  0  0  0  0  0  0  0  0  0  0
  152.9062  140.3645  156.0560 H   0  0  0  0  0  0  0  0  0  0  0  0
  149.8728  139.2520  153.5100 H   0  0  0  0  0  0  0  0  0  0  0  0
  143.7321  132.5896  153.2447 H   0  0  0  0  0  0  0  0  0  0  0  0
  1  2  2  0  0  0  0
  2  3  1  0  0  0  0
  2 14  1  0  0  0  0
  3  4  1  0  0  0  0
  3 21  1  0  0  0  0
  4  5  1  0  0  0  0
  4 22  1  0  0  0  0
  4 23  1  0  0  0  0
  5 13  1  0  0  0  0
  5  6  1  0  0  0  0
  5 24  1  0  0  0  0
  6  7  1  0  0  0  0
  6 25  1  0  0  0  0
  6 26  1  0  0  0  0
  7 11  1  0  0  0  0
  7  8  1  0  0  0  0
  7 41  1  0  0  0  0
  8  9  1  0  0  0  0
  8 27  1  0  0  0  0
  8 28  1  0  0  0  0
  9 10  1  0  0  0  0
  9 29  1  0  0  0  0
  9 30  1  0  0  0  0
 10 11  1  0  0  0  0
 10 31  1  0  0  0  0
 10 32  1  0  0  0  0
 11 12  1  0  0  0  0
 11 33  1  0  0  0  0
 12 13  1  0  0  0  0
 12 34  1  0  0  0  0
 12 35  1  0  0  0  0
 14 15  1  0  0  0  0
 14 36  1  0  0  0  0
 15 20  1  0  0  0  0
 15 16  2  0  0  0  0
 16 17  1  0  0  0  0
 16 37  1  0  0  0  0
 17 18  2  0  0  0  0
 17 38  1  0  0  0  0
 18 19  1  0  0  0  0
 18 39  1  0  0  0  0
 19 20  2  0  0  0  0
 20 40  1  0  0  0  0
M  CHG  1   7   1
M  END
> <s_m_source_file>
AV-unprocessed.smi

> <i_m_source_file_index>
618

> <i_lp_mmshare_version>
43012

> <i_f3d_flags>
0

> <s_epik_input>
W2NIXTFuW2NIXVtjSF1bY0hdYzFbTkhdQyg9TylbTkhdW0NIMl1bQ0BIXShbQ0gyXTIpT1tDSDJdW0NAQEhdKE4yMylbQ0gyXVtDSDJdW0NIMl0z

> <s_epik_cmdline>
J2VwaWtfcHl0aG9uJywgJy1waCcsICc3LjAnLCAnLXRuJywgJzgnLCAnLW1hJywgJzIwMCcsICctbWV0YWxfYmluZGluZycsICctaW1hZScsICc8aW5maWxlLm1hZT4nLCAnLW9tYWUnLCAnPG91dGZpbGUubWFlPic=

> <r_epik_Ionization_Penalty>
0.111044

> <r_epik_Ionization_Penalty_Charging>
0.10673

> <r_epik_Ionization_Penalty_Neutral>
0.00431361

> <r_epik_State_Penalty>
0.0978747

> <r_epik_Charging_Adjusted_Penalty>
0.204605

> <i_epik_Tot_Q>
1

> <i_epik_Tot_abs_Q>
1

> <r_epik_Metal_State_Penalty>
0.0947591

> <b_epik_Metal_Only>
0

> <s_lp_Force_Field>
OPLS_2005

> <r_lp_Energy>
38.4037

> <b_lp_Chiralities_Consistent>
1

> <s_lp_Variant>
AV-unprocessed.smi:618-5

> <Gold.Version>
5.8.1

> <Gold.Id.Protein>
6NUR|6NUR_protein|mol2

> <Gold.PLP.Fitness>
44.0067

> <Gold.PLP.PLP>
-28.2810

> <Gold.PLP.part.hbond>
-4.0236

> <Gold.PLP.part.metal>
0.0000

> <Gold.PLP.part.buried>
-5.4222

> <Gold.PLP.part.nonpolar>
-20.1442

> <Gold.PLP.part.repulsive>
0.1948

> <Gold.PLP.ligand.clash>
0.0000

> <Gold.PLP.ligand.torsion>
1.0068

> <Gold.PLP.Chemscore.Hbond>
4.9120

> <Gold.PLP.Chemscore.CHOScore>
1.0000

> <Gold.PLP.Chemscore.Metal>
0.0000

> <Gold.Chemscore.Hbonds>
donor molecule, donor type, donor heavy atom, donor atom, acceptor molecule, acceptor atom, score
      L1  H     3    21       P1  7948  0.91
      L1  H     7    41       P1 10957  1.98
      L1  H    14    36       P1  7948  1.00
      P1  H  7989  7998       L1    19  1.00
      L1  C    20    40       P1  7957  1.00

> <Gold.PLP.Chemscore.Internal.Correction>
0.0032

> <Gold.Rescore>
     Score         DG    S(hbond)    S(metal)    S(lipo)     H(rot)  DE(clash)    DE(int)     intcor
     18.50     -20.65       3.18        0.00      66.47       1.27       0.04       2.11       ----

> <Gold.Chemscore.Fitness>
18.5032

> <Gold.Chemscore.DG>
-20.6530

> <Gold.Chemscore.ZeroCoef>
-5.4800

> <Gold.Chemscore.Hbond>
3.1844

> <Gold.Chemscore.Metal>
0.0000

> <Gold.Chemscore.Lipo>
66.4704

> <Gold.Chemscore.Internal_Hbond>
0.0000

> <Gold.Chemscore.DEClash>
0.0354

> <Gold.Chemscore.DEInternal>
2.1144

> <Gold.Chemscore.Rot>
1.2656

> <Gold.Chemscore.Internal.Correction>
   9.000000E+99

> <Gold.Chemscore.Hbonds>
donor molecule, donor type, donor heavy atom, donor atom, acceptor molecule, acceptor atom, score
      L1  H     3    21       P1  7948  0.82
      L1  H     7    41       P1 10957  0.24
      L1  H    14    36       P1  7948  0.60
      P1  H  7989  7998       L1    19  0.54

> <Gold.Chemscore.Hbond.Weighted>
-10.6358

> <Gold.Chemscore.Metal.Weighted>
-0.0000

> <Gold.Chemscore.Lipo.Weighted>
-7.7770

> <Gold.Chemscore.Internal_Hbond.Weighted>
0.0000

> <Gold.Chemscore.DEClash.Weighted>
0.0354

> <Gold.Chemscore.DEInternal.Weighted>
2.1144

> <Gold.Chemscore.Rot.Weighted>
3.2399

> <Gold.Chemscore.Internal.Correction.Weighted>
   9.000000E+99

> <Gold.Protein.RotatedTorsions>
[ 6907 6896 6895 6894 ] final -135.21 input  -60.11 | X-H torsion
[ 7974 7965 7964 7962 ] final -160.35 input  175.53 | X-H torsion
[ 8008 7997 7996 7995 ] final  120.07 input   59.86 | X-H torsion
[ 10167 10162 10161 10158 ] final  164.95 input  -65.29 | X-H torsion
[ 10718 10713 10712 10709 ] final   90.47 input   66.30 | X-H torsion
[ 10763 10752 10751 10750 ] final  -52.39 input  -60.55 | X-H torsion
[ 11005 11000 10999 10996 ] final  112.58 input  -57.11 | X-H torsion

> <Gold.Protein.ActiveResidues>
 VAL166  LYS551  ARG553  GLY616  TRP617  ASP618  TYR619  PRO620  LYS621  CYS622 
 ASP623  PHE694  ASN695  SER759  ASP760  ASP761  ALA762  ILE779  LEU786  VAL792 
 PHE793  MET794  SER795  GLU796  ALA797  LYS798  CYS799  TRP800  GLU811  SER814 

> <Gold.Protein.RotatedAtoms>
  150.9951  133.6111  159.2702 H   0  0  0  0  0  0  0  0  0  0  0  0  # atno 6907 bound_to 6896
  151.3317  135.0842  159.9350 H   0  0  0  0  0  0  0  0  0  0  0  0  # atno 6908 bound_to 6896
  152.5257  133.9579  159.7757 H   0  0  0  0  0  0  0  0  0  0  0  0  # atno 6909 bound_to 6896
  144.7430  140.3555  143.6107 H   0  0  0  0  0  0  0  0  0  0  0  0  # atno 7974 bound_to 7965
  156.2626  140.2839  156.1092 H   0  0  0  0  0  0  0  0  0  0  0  0  # atno 8008 bound_to 7997
  155.1276  140.0393  157.2784 H   0  0  0  0  0  0  0  0  0  0  0  0  # atno 8009 bound_to 7997
  154.6624  140.2569  155.7101 H   0  0  0  0  0  0  0  0  0  0  0  0  # atno 8010 bound_to 7997
  139.4897  144.4183  151.9217 H   0  0  0  0  0  0  0  0  0  0  0  0  # atno 10167 bound_to 10162
  157.6959  131.0372  150.3583 H   0  0  0  0  0  0  0  0  0  0  0  0  # atno 10718 bound_to 10713
  154.1420  135.6503  153.4944 H   0  0  0  0  0  0  0  0  0  0  0  0  # atno 10763 bound_to 10752
  153.0163  135.5318  154.6895 H   0  0  0  0  0  0  0  0  0  0  0  0  # atno 10764 bound_to 10752
  154.6159  135.2959  155.0351 H   0  0  0  0  0  0  0  0  0  0  0  0  # atno 10765 bound_to 10752
  139.8931  134.9533  156.6608 H   0  0  0  0  0  0  0  0  0  0  0  0  # atno 11005 bound_to 11000
  145.7232  139.1715  143.2473 LP  0  0  0  0  0  0  0  0  0  0  0  0  # atno 17320 bound_to 7965
  146.1262  140.7246  142.9434 LP  0  0  0  0  0  0  0  0  0  0  0  0  # atno 17321 bound_to 7965
  140.3626  144.2954  150.5931 LP  0  0  0  0  0  0  0  0  0  0  0  0  # atno 17342 bound_to 10162
  140.5389  143.2227  151.8117 LP  0  0  0  0  0  0  0  0  0  0  0  0  # atno 17343 bound_to 10162
  156.4022  130.3918  149.6951 LP  0  0  0  0  0  0  0  0  0  0  0  0  # atno 17370 bound_to 10713
  156.4264  130.7794  151.2812 LP  0  0  0  0  0  0  0  0  0  0  0  0  # atno 17371 bound_to 10713
  140.7449  133.8946  155.8304 LP  0  0  0  0  0  0  0  0  0  0  0  0  # atno 17394 bound_to 11000
  141.0048  134.1101  157.4281 LP  0  0  0  0  0  0  0  0  0  0  0  0  # atno 17395 bound_to 11000

$$$$
