AV-unprocessed.smi:1296|AV-procd|sdf|5414|dock6
  -GOLD-   22720 4573D 1   1.00000     0.00000
 Structure written by MMmdl.
 36 36  0  0  0  0  0  0  0  0  1 V2000
  146.8801  138.7052  152.6878 C   0  0  0  0  0  0  0  0  0  0  0  0
  148.0077  139.1872  153.5749 C   0  0  0  0  0  0  0  0  0  0  0  0
  149.0861  138.3194  153.6246 N   0  0  0  0  0  0  0  0  0  0  0  0
  150.1619  138.6686  154.4219 C   0  0  0  0  0  0  0  0  0  0  0  0
  151.2982  137.6610  154.4258 C   0  0  0  0  0  0  0  0  0  0  0  0
  150.1663  139.8278  155.1276 C   0  0  0  0  0  0  0  0  0  0  0  0
  151.3323  140.2495  156.0215 C   0  0  0  0  0  0  0  0  0  0  0  0
  150.9926  140.5702  157.4795 C   0  0  0  0  0  0  0  0  0  0  0  0
  149.8424  140.4477  157.9014 O   0  0  0  0  0  0  0  0  0  0  0  0
  152.0149  140.9816  158.2423 N   0  0  0  0  0  0  0  0  0  0  0  0
  151.9067  141.3203  159.6555 C   0  0  0  0  0  0  0  0  0  0  0  0
  152.7077  142.5916  159.9979 C   0  0  0  0  0  0  0  0  0  0  0  0
  152.5055  143.0381  161.4565 C   0  0  0  0  0  0  0  0  0  0  0  0
  152.3585  143.7316  159.0299 C   0  0  0  0  0  0  0  0  0  0  0  0
  148.9903  140.7234  155.0216 C   0  0  0  0  0  0  0  0  0  0  0  0
  148.9433  141.7977  155.6193 O   0  0  0  0  0  0  0  0  0  0  0  0
  147.9193  140.3166  154.2093 N   0  0  0  0  0  0  0  0  0  0  0  0
  149.1242  137.4481  153.1158 H   0  0  0  0  0  0  0  0  0  0  0  0
  146.0819  139.4466  152.6340 H   0  0  0  0  0  0  0  0  0  0  0  0
  146.4594  137.7786  153.0792 H   0  0  0  0  0  0  0  0  0  0  0  0
  147.2427  138.5214  151.6761 H   0  0  0  0  0  0  0  0  0  0  0  0
  151.4471  137.2580  155.4277 H   0  0  0  0  0  0  0  0  0  0  0  0
  152.2263  138.1323  154.1016 H   0  0  0  0  0  0  0  0  0  0  0  0
  151.0962  136.8249  153.7552 H   0  0  0  0  0  0  0  0  0  0  0  0
  151.7978  141.1341  155.5864 H   0  0  0  0  0  0  0  0  0  0  0  0
  152.1149  139.4900  156.0078 H   0  0  0  0  0  0  0  0  0  0  0  0
  152.9290  141.0550  157.8199 H   0  0  0  0  0  0  0  0  0  0  0  0
  150.8537  141.4659  159.9015 H   0  0  0  0  0  0  0  0  0  0  0  0
  152.2607  140.4810  160.2567 H   0  0  0  0  0  0  0  0  0  0  0  0
  153.7669  142.3665  159.8648 H   0  0  0  0  0  0  0  0  0  0  0  0
  151.4562  143.2521  161.6625 H   0  0  0  0  0  0  0  0  0  0  0  0
  153.0768  143.9414  161.6722 H   0  0  0  0  0  0  0  0  0  0  0  0
  152.8336  142.2737  162.1610 H   0  0  0  0  0  0  0  0  0  0  0  0
  151.3063  144.0078  159.1067 H   0  0  0  0  0  0  0  0  0  0  0  0
  152.5528  143.4437  157.9965 H   0  0  0  0  0  0  0  0  0  0  0  0
  152.9523  144.6219  159.2390 H   0  0  0  0  0  0  0  0  0  0  0  0
  1 19  1  0  0  0  0
  1 20  1  0  0  0  0
  1 21  1  0  0  0  0
  1  2  1  0  0  0  0
  2  3  1  0  0  0  0
  2 17  2  0  0  0  0
  3  4  1  0  0  0  0
  3 18  1  0  0  0  0
  4  6  2  0  0  0  0
  4  5  1  0  0  0  0
  5 22  1  0  0  0  0
  5 23  1  0  0  0  0
  5 24  1  0  0  0  0
  6 15  1  0  0  0  0
  6  7  1  0  0  0  0
  7  8  1  0  0  0  0
  7 25  1  0  0  0  0
  7 26  1  0  0  0  0
  8  9  2  0  0  0  0
  8 10  1  0  0  0  0
 10 11  1  0  0  0  0
 10 27  1  0  0  0  0
 11 12  1  0  0  0  0
 11 28  1  0  0  0  0
 11 29  1  0  0  0  0
 12 13  1  0  0  0  0
 12 14  1  0  0  0  0
 12 30  1  0  0  0  0
 13 31  1  0  0  0  0
 13 32  1  0  0  0  0
 13 33  1  0  0  0  0
 14 34  1  0  0  0  0
 14 35  1  0  0  0  0
 14 36  1  0  0  0  0
 15 16  2  0  0  0  0
 15 17  1  0  0  0  0
M  END
> <s_m_source_file>
AV-unprocessed.smi

> <i_m_source_file_index>
1296

> <i_lp_mmshare_version>
43012

> <i_f3d_flags>
0

> <s_epik_input>
W0NIM11jMW5jKFtDSDNdKWMoYyg9TylbbkhdMSlbQ0gyXUMoPU8pW05IXVtDSDJdW0NIXShbQ0gzXSlbQ0gzXQ==

> <s_epik_cmdline>
J2VwaWtfcHl0aG9uJywgJy1waCcsICc3LjAnLCAnLXRuJywgJzgnLCAnLW1hJywgJzIwMCcsICctbWV0YWxfYmluZGluZycsICctaW1hZScsICc8aW5maWxlLm1hZT4nLCAnLW9tYWUnLCAnPG91dGZpbGUubWFlPic=

> <r_lp_tautomer_probability>
0.156392

> <r_epik_Ionization_Penalty>
0.0142343

> <r_epik_Ionization_Penalty_Charging>
0.0141145

> <r_epik_Ionization_Penalty_Neutral>
0.000119779

> <r_epik_State_Penalty>
1.52879

> <r_epik_Charging_Adjusted_Penalty>
1.5429

> <i_epik_Tot_Q>
0

> <i_epik_Tot_abs_Q>
0

> <r_epik_Metal_State_Penalty>
1.70685

> <b_epik_Metal_Only>
0

> <s_lp_Force_Field>
OPLS_2005

> <r_lp_Energy>
9.70595

> <b_lp_Chiralities_Consistent>
1

> <s_lp_Variant>
AV-unprocessed.smi:1296-2

> <Gold.Version>
5.8.1

> <Gold.Id.Protein>
6NUR|6NUR_protein|mol2

> <Gold.PLP.Fitness>
38.5199

> <Gold.PLP.PLP>
-35.8645

> <Gold.PLP.part.hbond>
-2.0000

> <Gold.PLP.part.metal>
0.0000

> <Gold.PLP.part.buried>
-2.4670

> <Gold.PLP.part.nonpolar>
-32.3490

> <Gold.PLP.part.repulsive>
1.1801

> <Gold.PLP.ligand.clash>
0.0000

> <Gold.PLP.ligand.torsion>
0.1795

> <Gold.PLP.Chemscore.Hbond>
1.0000

> <Gold.PLP.Chemscore.CHOScore>
0.0000

> <Gold.PLP.Chemscore.Metal>
0.0000

> <Gold.Chemscore.Hbonds>
donor molecule, donor type, donor heavy atom, donor atom, acceptor molecule, acceptor atom, score
      L1  H     3    18       P1  7948  1.00

> <Gold.PLP.Chemscore.Internal.Correction>
0.0144

> <Gold.Rescore>
     Score         DG    S(hbond)    S(metal)    S(lipo)     H(rot)  DE(clash)    DE(int)     intcor
     13.27     -13.51       0.93        0.00      79.85       1.73       0.05       0.19       ----

> <Gold.Chemscore.Fitness>
13.2683

> <Gold.Chemscore.DG>
-13.5107

> <Gold.Chemscore.ZeroCoef>
-5.4800

> <Gold.Chemscore.Hbond>
0.9329

> <Gold.Chemscore.Metal>
0.0000

> <Gold.Chemscore.Lipo>
79.8492

> <Gold.Chemscore.Internal_Hbond>
0.0000

> <Gold.Chemscore.DEClash>
0.0515

> <Gold.Chemscore.DEInternal>
0.1909

> <Gold.Chemscore.Rot>
1.7296

> <Gold.Chemscore.Internal.Correction>
   9.000000E+99

> <Gold.Chemscore.Hbonds>
donor molecule, donor type, donor heavy atom, donor atom, acceptor molecule, acceptor atom, score
      L1  H     3    18       P1  7948  1.00

> <Gold.Chemscore.Hbond.Weighted>
-3.1160

> <Gold.Chemscore.Metal.Weighted>
-0.0000

> <Gold.Chemscore.Lipo.Weighted>
-9.3424

> <Gold.Chemscore.Internal_Hbond.Weighted>
0.0000

> <Gold.Chemscore.DEClash.Weighted>
0.0515

> <Gold.Chemscore.DEInternal.Weighted>
0.1909

> <Gold.Chemscore.Rot.Weighted>
4.4277

> <Gold.Chemscore.Internal.Correction.Weighted>
   9.000000E+99

> <Gold.Protein.RotatedTorsions>
[ 6907 6896 6895 6894 ] final  -27.99 input  -60.11 | X-H torsion
[ 7974 7965 7964 7962 ] final  -67.22 input  175.53 | X-H torsion
[ 8008 7997 7996 7995 ] final   -4.37 input   59.86 | X-H torsion
[ 10167 10162 10161 10158 ] final -101.36 input  -65.29 | X-H torsion
[ 10718 10713 10712 10709 ] final -104.87 input   66.30 | X-H torsion
[ 10763 10752 10751 10750 ] final   80.09 input  -60.55 | X-H torsion
[ 11005 11000 10999 10996 ] final  -79.95 input  -57.11 | X-H torsion

> <Gold.Protein.ActiveResidues>
 VAL166  LYS551  ARG553  GLY616  TRP617  ASP618  TYR619  PRO620  LYS621  CYS622 
 ASP623  PHE694  ASN695  SER759  ASP760  ASP761  ALA762  ILE779  LEU786  VAL792 
 PHE793  MET794  SER795  GLU796  ALA797  LYS798  CYS799  TRP800  GLU811  SER814 

> <Gold.Protein.RotatedAtoms>
  151.1392  135.0171  159.8617 H   0  0  0  0  0  0  0  0  0  0  0  0  # atno 6907 bound_to 6896
  152.5452  134.1518  159.8532 H   0  0  0  0  0  0  0  0  0  0  0  0  # atno 6908 bound_to 6896
  151.1592  133.4810  159.2627 H   0  0  0  0  0  0  0  0  0  0  0  0  # atno 6909 bound_to 6896
  145.7319  140.8993  143.0575 H   0  0  0  0  0  0  0  0  0  0  0  0  # atno 7974 bound_to 7965
  154.6150  140.2486  155.7620 H   0  0  0  0  0  0  0  0  0  0  0  0  # atno 8008 bound_to 7997
  156.2394  140.2938  156.0350 H   0  0  0  0  0  0  0  0  0  0  0  0  # atno 8009 bound_to 7997
  155.1989  140.0393  157.2904 H   0  0  0  0  0  0  0  0  0  0  0  0  # atno 8010 bound_to 7997
  140.2421  143.3531  152.0792 H   0  0  0  0  0  0  0  0  0  0  0  0  # atno 10167 bound_to 10162
  156.0322  130.5536  150.7458 H   0  0  0  0  0  0  0  0  0  0  0  0  # atno 10718 bound_to 10713
  153.1005  135.4816  154.8857 H   0  0  0  0  0  0  0  0  0  0  0  0  # atno 10763 bound_to 10752
  154.7373  135.3074  154.8792 H   0  0  0  0  0  0  0  0  0  0  0  0  # atno 10764 bound_to 10752
  153.9410  135.6834  153.4798 H   0  0  0  0  0  0  0  0  0  0  0  0  # atno 10765 bound_to 10752
  141.1668  133.7128  156.8200 H   0  0  0  0  0  0  0  0  0  0  0  0  # atno 11005 bound_to 11000
  144.6891  139.9343  143.7473 LP  0  0  0  0  0  0  0  0  0  0  0  0  # atno 17320 bound_to 7965
  146.0529  139.3529  143.0628 LP  0  0  0  0  0  0  0  0  0  0  0  0  # atno 17321 bound_to 7965
  139.5074  144.6831  151.5957 LP  0  0  0  0  0  0  0  0  0  0  0  0  # atno 17342 bound_to 10162
  140.6106  143.9444  150.6450 LP  0  0  0  0  0  0  0  0  0  0  0  0  # atno 17343 bound_to 10162
  157.5015  131.0919  151.0309 LP  0  0  0  0  0  0  0  0  0  0  0  0  # atno 17370 bound_to 10713
  157.0688  130.5855  149.5399 LP  0  0  0  0  0  0  0  0  0  0  0  0  # atno 17371 bound_to 10713
  140.2126  134.8816  157.3291 LP  0  0  0  0  0  0  0  0  0  0  0  0  # atno 17394 bound_to 11000
  140.2071  134.4184  155.7632 LP  0  0  0  0  0  0  0  0  0  0  0  0  # atno 17395 bound_to 11000

$$$$
