AV-unprocessed.smi:2589|AV-procd|sdf|10151|dock3
  -GOLD-   2272014163D 1   1.00000     0.00000
 Structure written by MMmdl.
 41 42  0  0  0  0  0  0  0  0  1 V2000
  146.9740  134.9591  162.5320 C   0  0  0  0  0  0  0  0  0  0  0  0
  147.1424  136.1133  161.5506 C   0  0  0  0  0  0  0  0  0  0  0  0
  147.0052  137.2749  161.9327 O   0  0  0  0  0  0  0  0  0  0  0  0
  147.4431  135.7788  160.2863 N   0  0  0  0  0  0  0  0  0  0  0  0
  147.6695  136.7265  159.1982 C   0  0  0  0  0  0  0  0  0  0  0  0
  149.1383  136.7864  158.7628 C   0  0  0  0  0  0  0  0  0  0  0  0
  149.6745  135.8146  158.2286 O   0  0  0  0  0  0  0  0  0  0  0  0
  149.7711  137.9494  158.9782 N   0  0  0  0  0  0  0  0  0  0  0  0
  151.1598  138.2188  158.6231 C   0  0  0  0  0  0  0  0  0  0  0  0
  151.3370  138.6417  157.1663 C   0  0  0  0  0  0  0  0  0  0  0  0
  151.4113  137.6521  156.1615 C   0  0  0  0  0  0  0  0  0  0  0  0
  151.5616  138.0413  154.8184 C   0  0  0  0  0  0  0  0  0  0  0  0
  151.6285  139.4155  154.5270 C   0  0  0  0  0  0  0  0  0  0  0  0
  151.5561  140.3746  155.4724 N   0  0  0  0  0  0  0  0  0  0  0  0
  151.4123  140.0029  156.7680 C   0  0  0  0  0  0  0  0  0  0  0  0
  151.3625  141.0298  157.7237 N   0  0  0  0  0  0  0  0  0  0  0  0
  151.1232  142.3623  157.1839 C   0  0  0  0  0  0  0  0  0  0  0  0
  150.9271  143.3618  158.3369 C   0  0  0  0  0  0  0  0  0  0  0  0
  152.0590  143.3214  159.2023 O   0  0  0  0  0  0  0  0  0  0  0  0
  152.2502  142.0313  159.7776 C   0  0  0  0  0  0  0  0  0  0  0  0
  152.4764  140.9971  158.6619 C   0  0  0  0  0  0  0  0  0  0  0  0
  147.9237  134.4440  162.6772 H   0  0  0  0  0  0  0  0  0  0  0  0
  146.2441  134.2409  162.1578 H   0  0  0  0  0  0  0  0  0  0  0  0
  146.6300  135.3210  163.5012 H   0  0  0  0  0  0  0  0  0  0  0  0
  147.5449  134.7989  160.0654 H   0  0  0  0  0  0  0  0  0  0  0  0
  147.0691  136.4163  158.3432 H   0  0  0  0  0  0  0  0  0  0  0  0
  147.3179  137.7195  159.4843 H   0  0  0  0  0  0  0  0  0  0  0  0
  149.2573  138.6975  159.4208 H   0  0  0  0  0  0  0  0  0  0  0  0
  151.5125  139.0356  159.2529 H   0  0  0  0  0  0  0  0  0  0  0  0
  151.7724  137.3563  158.8865 H   0  0  0  0  0  0  0  0  0  0  0  0
  151.3514  136.6037  156.4151 H   0  0  0  0  0  0  0  0  0  0  0  0
  151.6219  137.3047  154.0310 H   0  0  0  0  0  0  0  0  0  0  0  0
  151.7428  139.7542  153.5079 H   0  0  0  0  0  0  0  0  0  0  0  0
  151.9684  142.6711  156.5672 H   0  0  0  0  0  0  0  0  0  0  0  0
  150.2411  142.3484  156.5427 H   0  0  0  0  0  0  0  0  0  0  0  0
  150.8149  144.3724  157.9444 H   0  0  0  0  0  0  0  0  0  0  0  0
  150.0195  143.1343  158.8985 H   0  0  0  0  0  0  0  0  0  0  0  0
  153.1135  142.0621  160.4424 H   0  0  0  0  0  0  0  0  0  0  0  0
  151.3866  141.7610  160.3877 H   0  0  0  0  0  0  0  0  0  0  0  0
  152.5770  139.9992  159.0891 H   0  0  0  0  0  0  0  0  0  0  0  0
  153.4058  141.2164  158.1343 H   0  0  0  0  0  0  0  0  0  0  0  0
  1  2  1  0  0  0  0
  1 22  1  0  0  0  0
  1 23  1  0  0  0  0
  1 24  1  0  0  0  0
  2  3  2  0  0  0  0
  2  4  1  0  0  0  0
  4  5  1  0  0  0  0
  4 25  1  0  0  0  0
  5  6  1  0  0  0  0
  5 26  1  0  0  0  0
  5 27  1  0  0  0  0
  6  7  2  0  0  0  0
  6  8  1  0  0  0  0
  8  9  1  0  0  0  0
  8 28  1  0  0  0  0
  9 10  1  0  0  0  0
  9 29  1  0  0  0  0
  9 30  1  0  0  0  0
 10 15  1  0  0  0  0
 10 11  2  0  0  0  0
 11 12  1  0  0  0  0
 11 31  1  0  0  0  0
 12 13  2  0  0  0  0
 12 32  1  0  0  0  0
 13 14  1  0  0  0  0
 13 33  1  0  0  0  0
 14 15  2  0  0  0  0
 15 16  1  0  0  0  0
 16 21  1  0  0  0  0
 16 17  1  0  0  0  0
 17 18  1  0  0  0  0
 17 34  1  0  0  0  0
 17 35  1  0  0  0  0
 18 19  1  0  0  0  0
 18 36  1  0  0  0  0
 18 37  1  0  0  0  0
 19 20  1  0  0  0  0
 20 21  1  0  0  0  0
 20 38  1  0  0  0  0
 20 39  1  0  0  0  0
 21 40  1  0  0  0  0
 21 41  1  0  0  0  0
M  END
> <s_m_source_file>
AV-unprocessed.smi

> <i_m_source_file_index>
2589

> <i_lp_mmshare_version>
43012

> <i_f3d_flags>
0

> <s_epik_input>
W0NIM11DKD1PKVtOSF1bQ0gyXUMoPU8pW05IXVtDSDJdYzFbY0hdW2NIXVtjSF1uYzFOMltDSDJdW0NIMl1PW0NIMl1bQ0gyXTI=

> <s_epik_cmdline>
J2VwaWtfcHl0aG9uJywgJy1waCcsICc3LjAnLCAnLXRuJywgJzgnLCAnLW1hJywgJzIwMCcsICctbWV0YWxfYmluZGluZycsICctaW1hZScsICc8aW5maWxlLm1hZT4nLCAnLW9tYWUnLCAnPG91dGZpbGUubWFlPic=

> <r_lp_tautomer_probability>
1

> <r_epik_Ionization_Penalty>
0.00462917

> <r_epik_Ionization_Penalty_Charging>
0

> <r_epik_Ionization_Penalty_Neutral>
0.00462917

> <r_epik_State_Penalty>
0.00334737

> <r_epik_Charging_Adjusted_Penalty>
0.00334737

> <i_epik_Tot_Q>
0

> <i_epik_Tot_abs_Q>
0

> <r_epik_Metal_State_Penalty>
-0

> <b_epik_Metal_Only>
0

> <s_lp_Force_Field>
OPLS_2005

> <r_lp_Energy>
14.0488

> <b_lp_Chiralities_Consistent>
1

> <s_lp_Variant>
AV-unprocessed.smi:2589-1

> <Gold.Version>
5.8.1

> <Gold.Id.Protein>
6NUR|6NUR_protein|mol2

> <Gold.PLP.Fitness>
40.6549

> <Gold.PLP.PLP>
-34.7358

> <Gold.PLP.part.hbond>
-4.0000

> <Gold.PLP.part.metal>
0.0000

> <Gold.PLP.part.buried>
-4.1693

> <Gold.PLP.part.nonpolar>
-27.2571

> <Gold.PLP.part.repulsive>
0.6679

> <Gold.PLP.ligand.clash>
0.0000

> <Gold.PLP.ligand.torsion>
0.7778

> <Gold.PLP.Chemscore.Hbond>
2.4373

> <Gold.PLP.Chemscore.CHOScore>
0.0000

> <Gold.PLP.Chemscore.Metal>
0.0000

> <Gold.Chemscore.Hbonds>
donor molecule, donor type, donor heavy atom, donor atom, acceptor molecule, acceptor atom, score
      P1  H  6896  6908       L1     7  0.89
      P1  H  6931  6943       L1     3  0.36
      P1  H  6934  6947       L1     3  0.83

> <Gold.PLP.Chemscore.Internal.Correction>
0.1630

> <Gold.Rescore>
     Score         DG    S(hbond)    S(metal)    S(lipo)     H(rot)  DE(clash)    DE(int)     intcor
     15.97     -16.95       2.49        0.00      76.74       2.28       0.09       0.90       ----

> <Gold.Chemscore.Fitness>
15.9690

> <Gold.Chemscore.DG>
-16.9540

> <Gold.Chemscore.ZeroCoef>
-5.4800

> <Gold.Chemscore.Hbond>
2.4922

> <Gold.Chemscore.Metal>
0.0000

> <Gold.Chemscore.Lipo>
76.7377

> <Gold.Chemscore.Internal_Hbond>
0.0000

> <Gold.Chemscore.DEClash>
0.0859

> <Gold.Chemscore.DEInternal>
0.8991

> <Gold.Chemscore.Rot>
2.2766

> <Gold.Chemscore.Internal.Correction>
   9.000000E+99

> <Gold.Chemscore.Hbonds>
donor molecule, donor type, donor heavy atom, donor atom, acceptor molecule, acceptor atom, score
      P1  H  6896  6908       L1     7  0.59
      P1  H  6931  6943       L1     3  0.25
      P1  H  6934  6947       L1     3  0.78

> <Gold.Chemscore.Hbond.Weighted>
-8.3238

> <Gold.Chemscore.Metal.Weighted>
-0.0000

> <Gold.Chemscore.Lipo.Weighted>
-8.9783

> <Gold.Chemscore.Internal_Hbond.Weighted>
0.0000

> <Gold.Chemscore.DEClash.Weighted>
0.0859

> <Gold.Chemscore.DEInternal.Weighted>
0.8991

> <Gold.Chemscore.Rot.Weighted>
5.8281

> <Gold.Chemscore.Internal.Correction.Weighted>
   9.000000E+99

> <Gold.Protein.RotatedTorsions>
[ 6907 6896 6895 6894 ] final -175.05 input  -60.11 | X-H torsion
[ 7974 7965 7964 7962 ] final  173.92 input  175.53 | X-H torsion
[ 8008 7997 7996 7995 ] final  118.57 input   59.86 | X-H torsion
[ 10167 10162 10161 10158 ] final   20.84 input  -65.29 | X-H torsion
[ 10718 10713 10712 10709 ] final  -10.01 input   66.30 | X-H torsion
[ 10763 10752 10751 10750 ] final  128.13 input  -60.55 | X-H torsion
[ 11005 11000 10999 10996 ] final  170.80 input  -57.11 | X-H torsion

> <Gold.Protein.ActiveResidues>
 VAL166  LYS551  ARG553  GLY616  TRP617  ASP618  TYR619  PRO620  LYS621  CYS622 
 ASP623  PHE694  ASN695  SER759  ASP760  ASP761  ALA762  ILE779  LEU786  VAL792 
 PHE793  MET794  SER795  GLU796  ALA797  LYS798  CYS799  TRP800  GLU811  SER814 

> <Gold.Protein.RotatedAtoms>
  151.5823  133.3376  159.3010 H   0  0  0  0  0  0  0  0  0  0  0  0  # atno 6907 bound_to 6896
  150.8306  134.7561  159.6862 H   0  0  0  0  0  0  0  0  0  0  0  0  # atno 6908 bound_to 6896
  152.4390  134.5635  159.9952 H   0  0  0  0  0  0  0  0  0  0  0  0  # atno 6909 bound_to 6896
  144.7233  139.9719  143.6437 H   0  0  0  0  0  0  0  0  0  0  0  0  # atno 7974 bound_to 7965
  156.2553  140.2872  156.0855 H   0  0  0  0  0  0  0  0  0  0  0  0  # atno 8008 bound_to 7997
  155.1520  140.0397  157.2840 H   0  0  0  0  0  0  0  0  0  0  0  0  # atno 8009 bound_to 7997
  154.6454  140.2532  155.7281 H   0  0  0  0  0  0  0  0  0  0  0  0  # atno 8010 bound_to 7997
  140.5473  143.9572  150.6555 H   0  0  0  0  0  0  0  0  0  0  0  0  # atno 10167 bound_to 10162
  156.6797  130.5033  149.5975 H   0  0  0  0  0  0  0  0  0  0  0  0  # atno 10718 bound_to 10713
  153.7206  135.3254  155.3265 H   0  0  0  0  0  0  0  0  0  0  0  0  # atno 10763 bound_to 10752
  154.8357  135.4498  154.1222 H   0  0  0  0  0  0  0  0  0  0  0  0  # atno 10764 bound_to 10752
  153.2341  135.6963  153.7937 H   0  0  0  0  0  0  0  0  0  0  0  0  # atno 10765 bound_to 10752
  140.3122  134.7507  157.4000 H   0  0  0  0  0  0  0  0  0  0  0  0  # atno 11005 bound_to 11000
  146.0556  139.3553  143.0613 LP  0  0  0  0  0  0  0  0  0  0  0  0  # atno 17320 bound_to 7965
  145.8159  140.9703  143.0924 LP  0  0  0  0  0  0  0  0  0  0  0  0  # atno 17321 bound_to 7965
  140.2988  143.3274  152.0991 LP  0  0  0  0  0  0  0  0  0  0  0  0  # atno 17342 bound_to 10162
  139.5012  144.6709  151.6244 LP  0  0  0  0  0  0  0  0  0  0  0  0  # atno 17343 bound_to 10162
  156.1877  130.6539  151.1025 LP  0  0  0  0  0  0  0  0  0  0  0  0  # atno 17370 bound_to 10713
  157.7048  131.0761  150.6703 LP  0  0  0  0  0  0  0  0  0  0  0  0  # atno 17371 bound_to 10713
  140.1015  134.5467  155.8349 LP  0  0  0  0  0  0  0  0  0  0  0  0  # atno 17394 bound_to 11000
  141.2105  133.6696  156.6518 LP  0  0  0  0  0  0  0  0  0  0  0  0  # atno 17395 bound_to 11000

$$$$
