AV-unprocessed.smi:2340|AV-procd|sdf|9346|dock3
  -GOLD-   2272012563D 1   1.00000     0.00000
 Structure written by MMmdl.
 40 41  0  0  0  0  0  0  0  0  1 V2000
  146.4898  130.2163  155.8422 C   0  0  0  0  0  0  0  0  0  0  0  0
  147.3200  131.3418  156.3734 C   0  0  0  0  0  0  0  0  0  0  0  0
  148.1177  131.3243  157.4902 C   0  0  0  0  0  0  0  0  0  0  0  0
  148.9134  132.8529  157.7439 S   0  0  0  0  0  0  0  0  0  0  0  0
  148.1180  133.4721  156.3001 C   0  0  0  0  0  0  0  0  0  0  0  0
  148.3341  134.8607  155.7785 C   0  0  2  0  0  0  0  0  0  0  0  0
  148.9706  135.7827  156.8282 C   0  0  0  0  0  0  0  0  0  0  0  0
  147.0713  135.4694  155.1273 C   0  0  0  0  0  0  0  0  0  0  0  0
  147.0387  135.2941  153.6780 N   0  0  0  0  0  0  0  0  0  0  0  0
  146.0302  134.7406  152.9923 C   0  0  0  0  0  0  0  0  0  0  0  0
  145.0262  134.2529  153.5120 O   0  0  0  0  0  0  0  0  0  0  0  0
  146.2344  134.8088  151.6706 N   0  0  0  0  0  0  0  0  0  0  0  0
  145.2910  134.3477  150.6538 C   0  0  1  0  0  0  0  0  0  0  0  0
  144.9731  132.8597  150.8191 C   0  0  0  0  0  0  0  0  0  0  0  0
  143.4488  132.8011  150.8276 C   0  0  0  0  0  0  0  0  0  0  0  0
  143.0748  134.0571  151.3652 O   0  0  0  0  0  0  0  0  0  0  0  0
  143.9110  135.0326  150.7608 C   0  0  1  0  0  0  0  0  0  0  0  0
  143.8404  136.3542  151.5430 C   0  0  0  0  0  0  0  0  0  0  0  0
  147.3314  132.5694  155.7061 N   0  0  0  0  0  0  0  0  0  0  0  0
  146.5446  129.3403  156.4890 H   0  0  0  0  0  0  0  0  0  0  0  0
  146.8256  129.9149  154.8499 H   0  0  0  0  0  0  0  0  0  0  0  0
  145.4409  130.5033  155.7645 H   0  0  0  0  0  0  0  0  0  0  0  0
  148.2862  130.5076  158.1764 H   0  0  0  0  0  0  0  0  0  0  0  0
  149.0749  134.7659  154.9835 H   0  0  0  0  0  0  0  0  0  0  0  0
  149.9127  135.3717  157.1919 H   0  0  0  0  0  0  0  0  0  0  0  0
  148.3126  135.9189  157.6869 H   0  0  0  0  0  0  0  0  0  0  0  0
  149.1791  136.7676  156.4099 H   0  0  0  0  0  0  0  0  0  0  0  0
  146.1840  134.9780  155.5277 H   0  0  0  0  0  0  0  0  0  0  0  0
  146.9785  136.5266  155.3806 H   0  0  0  0  0  0  0  0  0  0  0  0
  147.8191  135.6680  153.1579 H   0  0  0  0  0  0  0  0  0  0  0  0
  147.0894  135.2313  151.3395 H   0  0  0  0  0  0  0  0  0  0  0  0
  145.7066  134.5454  149.6641 H   0  0  0  0  0  0  0  0  0  0  0  0
  145.4043  132.2481  150.0261 H   0  0  0  0  0  0  0  0  0  0  0  0
  145.3528  132.4810  151.7697 H   0  0  0  0  0  0  0  0  0  0  0  0
  143.0569  132.7069  149.8137 H   0  0  0  0  0  0  0  0  0  0  0  0
  143.0619  131.9749  151.4245 H   0  0  0  0  0  0  0  0  0  0  0  0
  143.5318  135.2047  149.7518 H   0  0  0  0  0  0  0  0  0  0  0  0
  144.5062  137.1019  151.1117 H   0  0  0  0  0  0  0  0  0  0  0  0
  144.1141  136.2184  152.5897 H   0  0  0  0  0  0  0  0  0  0  0  0
  142.8289  136.7601  151.5213 H   0  0  0  0  0  0  0  0  0  0  0  0
  1  2  1  0  0  0  0
  1 20  1  0  0  0  0
  1 21  1  0  0  0  0
  1 22  1  0  0  0  0
  2 19  1  0  0  0  0
  2  3  2  0  0  0  0
  3  4  1  0  0  0  0
  3 23  1  0  0  0  0
  4  5  1  0  0  0  0
  5  6  1  0  0  0  0
  5 19  2  0  0  0  0
  6  7  1  0  0  0  0
  6  8  1  0  0  0  0
  6 24  1  0  0  0  0
  7 25  1  0  0  0  0
  7 26  1  0  0  0  0
  7 27  1  0  0  0  0
  8  9  1  0  0  0  0
  8 28  1  0  0  0  0
  8 29  1  0  0  0  0
  9 10  1  0  0  0  0
  9 30  1  0  0  0  0
 10 11  2  0  0  0  0
 10 12  1  0  0  0  0
 12 13  1  0  0  0  0
 12 31  1  0  0  0  0
 13 17  1  0  0  0  0
 13 14  1  0  0  0  0
 13 32  1  0  0  0  0
 14 15  1  0  0  0  0
 14 33  1  0  0  0  0
 14 34  1  0  0  0  0
 15 16  1  0  0  0  0
 15 35  1  0  0  0  0
 15 36  1  0  0  0  0
 16 17  1  0  0  0  0
 17 18  1  0  0  0  0
 17 37  1  0  0  0  0
 18 38  1  0  0  0  0
 18 39  1  0  0  0  0
 18 40  1  0  0  0  0
M  END
> <s_m_source_file>
AV-unprocessed.smi

> <i_m_source_file_index>
2340

> <i_lp_mmshare_version>
43012

> <i_f3d_flags>
0

> <s_epik_input>
W0NIM11jMVtjSF1zYyhuMSlbQ0BIXShbQ0gzXSlbQ0gyXVtOSF1DKD1PKVtOSF1bQ0BASF0yW0NIMl1bQ0gyXU9bQ0BIXTJbQ0gzXQ==

> <s_epik_cmdline>
J2VwaWtfcHl0aG9uJywgJy1waCcsICc3LjAnLCAnLXRuJywgJzgnLCAnLW1hJywgJzIwMCcsICctbWV0YWxfYmluZGluZycsICctaW1hZScsICc8aW5maWxlLm1hZT4nLCAnLW9tYWUnLCAnPG91dGZpbGUubWFlPic=

> <r_epik_Ionization_Penalty>
0.00156622

> <r_epik_Ionization_Penalty_Charging>
0

> <r_epik_Ionization_Penalty_Neutral>
0.00156622

> <r_epik_State_Penalty>
0.00101902

> <r_epik_Charging_Adjusted_Penalty>
0.00101902

> <i_epik_Tot_Q>
0

> <i_epik_Tot_abs_Q>
0

> <r_epik_Metal_State_Penalty>
-0

> <b_epik_Metal_Only>
0

> <s_lp_Force_Field>
OPLS_2005

> <r_lp_Energy>
5.02478

> <b_lp_Chiralities_Consistent>
1

> <s_lp_Variant>
AV-unprocessed.smi:2340-3

> <Gold.Version>
5.8.1

> <Gold.Id.Protein>
6NUR|6NUR_protein|mol2

> <Gold.PLP.Fitness>
36.3439

> <Gold.PLP.PLP>
-32.4808

> <Gold.PLP.part.hbond>
-2.0000

> <Gold.PLP.part.metal>
0.0000

> <Gold.PLP.part.buried>
-5.5909

> <Gold.PLP.part.nonpolar>
-24.9159

> <Gold.PLP.part.repulsive>
0.4561

> <Gold.PLP.ligand.clash>
0.0000

> <Gold.PLP.ligand.torsion>
1.1260

> <Gold.PLP.Chemscore.Hbond>
1.9920

> <Gold.PLP.Chemscore.CHOScore>
0.0000

> <Gold.PLP.Chemscore.Metal>
0.0000

> <Gold.Chemscore.Hbonds>
donor molecule, donor type, donor heavy atom, donor atom, acceptor molecule, acceptor atom, score
      L1  H     9    30       P1  7948  1.00
      L1  H    12    31       P1  7948  0.75

> <Gold.PLP.Chemscore.Internal.Correction>
0.1391

> <Gold.Rescore>
     Score         DG    S(hbond)    S(metal)    S(lipo)     H(rot)  DE(clash)    DE(int)     intcor
     13.22     -16.08       1.81        0.00      72.49       1.53       0.01       2.85       ----

> <Gold.Chemscore.Fitness>
13.2238

> <Gold.Chemscore.DG>
-16.0814

> <Gold.Chemscore.ZeroCoef>
-5.4800

> <Gold.Chemscore.Hbond>
1.8093

> <Gold.Chemscore.Metal>
0.0000

> <Gold.Chemscore.Lipo>
72.4939

> <Gold.Chemscore.Internal_Hbond>
0.0000

> <Gold.Chemscore.DEClash>
0.0052

> <Gold.Chemscore.DEInternal>
2.8523

> <Gold.Chemscore.Rot>
1.5325

> <Gold.Chemscore.Internal.Correction>
   9.000000E+99

> <Gold.Chemscore.Hbonds>
donor molecule, donor type, donor heavy atom, donor atom, acceptor molecule, acceptor atom, score
      L1  H     9    30       P1  7948  1.00
      L1  H    12    31       P1  7948  0.59

> <Gold.Chemscore.Hbond.Weighted>
-6.0429

> <Gold.Chemscore.Metal.Weighted>
-0.0000

> <Gold.Chemscore.Lipo.Weighted>
-8.4818

> <Gold.Chemscore.Internal_Hbond.Weighted>
0.0000

> <Gold.Chemscore.DEClash.Weighted>
0.0052

> <Gold.Chemscore.DEInternal.Weighted>
2.8523

> <Gold.Chemscore.Rot.Weighted>
3.9233

> <Gold.Chemscore.Internal.Correction.Weighted>
   9.000000E+99

> <Gold.Protein.RotatedTorsions>
[ 6907 6896 6895 6894 ] final  133.65 input  -60.11 | X-H torsion
[ 7974 7965 7964 7962 ] final   43.28 input  175.53 | X-H torsion
[ 8008 7997 7996 7995 ] final  145.79 input   59.86 | X-H torsion
[ 10167 10162 10161 10158 ] final -154.27 input  -65.29 | X-H torsion
[ 10718 10713 10712 10709 ] final  -50.32 input   66.30 | X-H torsion
[ 10763 10752 10751 10750 ] final  -14.18 input  -60.55 | X-H torsion
[ 11005 11000 10999 10996 ] final   -8.47 input  -57.11 | X-H torsion

> <Gold.Protein.ActiveResidues>
 VAL166  LYS551  ARG553  GLY616  TRP617  ASP618  TYR619  PRO620  LYS621  CYS622 
 ASP623  PHE694  ASN695  SER759  ASP760  ASP761  ALA762  ILE779  LEU786  VAL792 
 PHE793  MET794  SER795  GLU796  ALA797  LYS798  CYS799  TRP800  GLU811  SER814 

> <Gold.Protein.RotatedAtoms>
  152.3197  133.5840  159.5735 H   0  0  0  0  0  0  0  0  0  0  0  0  # atno 6907 bound_to 6896
  150.7365  134.0030  159.3653 H   0  0  0  0  0  0  0  0  0  0  0  0  # atno 6908 bound_to 6896
  151.7915  135.0735  160.0439 H   0  0  0  0  0  0  0  0  0  0  0  0  # atno 6909 bound_to 6896
  146.0669  139.5204  142.9623 H   0  0  0  0  0  0  0  0  0  0  0  0  # atno 7974 bound_to 7965
  156.2873  140.2200  156.5271 H   0  0  0  0  0  0  0  0  0  0  0  0  # atno 8008 bound_to 7997
  154.7479  140.0482  157.0890 H   0  0  0  0  0  0  0  0  0  0  0  0  # atno 8009 bound_to 7997
  155.0147  140.3117  155.4819 H   0  0  0  0  0  0  0  0  0  0  0  0  # atno 8010 bound_to 7997
  139.7027  143.9237  152.2435 H   0  0  0  0  0  0  0  0  0  0  0  0  # atno 10167 bound_to 10162
  156.1811  130.4150  149.9505 H   0  0  0  0  0  0  0  0  0  0  0  0  # atno 10718 bound_to 10713
  153.5245  135.7015  153.5714 H   0  0  0  0  0  0  0  0  0  0  0  0  # atno 10763 bound_to 10752
  153.3749  135.3935  155.1815 H   0  0  0  0  0  0  0  0  0  0  0  0  # atno 10764 bound_to 10752
  154.8691  135.3821  154.4736 H   0  0  0  0  0  0  0  0  0  0  0  0  # atno 10765 bound_to 10752
  140.7238  133.8806  155.8840 H   0  0  0  0  0  0  0  0  0  0  0  0  # atno 11005 bound_to 11000
  145.6461  141.0273  143.1785 LP  0  0  0  0  0  0  0  0  0  0  0  0  # atno 17320 bound_to 7965
  144.7208  139.8038  143.7383 LP  0  0  0  0  0  0  0  0  0  0  0  0  # atno 17321 bound_to 7965
  139.9084  144.6871  150.8589 LP  0  0  0  0  0  0  0  0  0  0  0  0  # atno 17342 bound_to 10162
  140.7714  143.3462  151.2107 LP  0  0  0  0  0  0  0  0  0  0  0  0  # atno 17343 bound_to 10162
  156.7275  130.9030  151.3623 LP  0  0  0  0  0  0  0  0  0  0  0  0  # atno 17370 bound_to 10713
  157.6869  130.9194  150.0410 LP  0  0  0  0  0  0  0  0  0  0  0  0  # atno 17371 bound_to 10713
  140.9981  134.1188  157.4344 LP  0  0  0  0  0  0  0  0  0  0  0  0  # atno 17394 bound_to 11000
  139.8842  135.0060  156.6352 LP  0  0  0  0  0  0  0  0  0  0  0  0  # atno 17395 bound_to 11000

$$$$
