AV-unprocessed.smi:37|AV-procd|sdf|314|dock3
  -GOLD-   2262016133D 1   1.00000     0.00000
 Structure written by MMmdl.
 44 45  0  0  0  0  0  0  0  0  1 V2000
  146.9542  135.0238  162.7170 C   0  0  0  0  0  0  0  0  0  0  0  0
  147.6688  134.8859  161.3648 C   0  0  0  0  0  0  0  0  0  0  0  0
  147.8948  136.2208  160.6520 C   0  0  0  0  0  0  0  0  0  0  0  0
  147.4314  137.2827  161.0717 O   0  0  0  0  0  0  0  0  0  0  0  0
  148.6427  136.0756  159.5489 O   0  0  0  0  0  0  0  0  0  0  0  0
  148.4627  136.9551  158.4511 C   0  0  0  0  0  0  0  0  0  0  0  0
  149.5927  137.9916  158.4393 C   0  0  1  0  0  0  0  0  0  0  0  0
  150.7663  137.4332  159.0266 O   0  0  0  0  0  0  0  0  0  0  0  0
  151.9038  137.9075  158.3702 C   0  0  2  0  0  0  0  0  0  0  0  0
  152.7993  138.5680  159.3927 N   0  0  0  0  0  0  0  0  0  0  0  0
  152.8926  139.9515  159.4564 C   0  0  0  0  0  0  0  0  0  0  0  0
  153.6530  140.5994  160.3699 C   0  0  0  0  0  0  0  0  0  0  0  0
  153.6935  141.9425  160.3664 F   0  0  0  0  0  0  0  0  0  0  0  0
  154.4256  139.8526  161.3580 C   0  0  0  0  0  0  0  0  0  0  0  0
  155.1450  140.3480  162.2228 O   0  0  0  0  0  0  0  0  0  0  0  0
  154.2954  138.4639  161.2619 N   0  0  0  0  0  0  0  0  0  0  0  0
  153.5140  137.7834  160.3259 C   0  0  0  0  0  0  0  0  0  0  0  0
  153.4819  136.5539  160.3368 O   0  0  0  0  0  0  0  0  0  0  0  0
  151.4469  138.9021  157.3024 C   0  0  1  0  0  0  0  0  0  0  0  0
  152.5719  138.7968  155.6640 Br  0  0  0  0  0  0  0  0  0  0  0  0
  150.0289  138.4425  157.0405 C   0  0  2  0  0  0  0  0  0  0  0  0
  149.2578  139.5327  156.5506 O   0  0  0  0  0  0  0  0  0  0  0  0
  149.5808  140.1319  155.3907 C   0  0  0  0  0  0  0  0  0  0  0  0
  150.5206  139.8211  154.6570 O   0  0  0  0  0  0  0  0  0  0  0  0
  148.6226  141.2757  155.0531 C   0  0  0  0  0  0  0  0  0  0  0  0
  147.8664  141.0732  153.7312 C   0  0  0  0  0  0  0  0  0  0  0  0
  154.8115  137.9056  161.9262 H   0  0  0  0  0  0  0  0  0  0  0  0
  146.8247  134.0473  163.1834 H   0  0  0  0  0  0  0  0  0  0  0  0
  145.9646  135.4675  162.6015 H   0  0  0  0  0  0  0  0  0  0  0  0
  147.5261  135.6452  163.4071 H   0  0  0  0  0  0  0  0  0  0  0  0
  148.6362  134.4047  161.5097 H   0  0  0  0  0  0  0  0  0  0  0  0
  147.0894  134.2372  160.7075 H   0  0  0  0  0  0  0  0  0  0  0  0
  148.4854  136.3691  157.5316 H   0  0  0  0  0  0  0  0  0  0  0  0
  147.4932  137.4535  158.4984 H   0  0  0  0  0  0  0  0  0  0  0  0
  149.3156  138.8574  159.0431 H   0  0  0  0  0  0  0  0  0  0  0  0
  152.4172  137.0417  157.9512 H   0  0  0  0  0  0  0  0  0  0  0  0
  152.3364  140.5472  158.7478 H   0  0  0  0  0  0  0  0  0  0  0  0
  151.4720  139.9230  157.6856 H   0  0  0  0  0  0  0  0  0  0  0  0
  150.0492  137.5903  156.3592 H   0  0  0  0  0  0  0  0  0  0  0  0
  147.9083  141.3805  155.8701 H   0  0  0  0  0  0  0  0  0  0  0  0
  149.1931  142.2037  155.0119 H   0  0  0  0  0  0  0  0  0  0  0  0
  147.1911  141.9080  153.5444 H   0  0  0  0  0  0  0  0  0  0  0  0
  147.2665  140.1627  153.7514 H   0  0  0  0  0  0  0  0  0  0  0  0
  148.5519  141.0091  152.8854 H   0  0  0  0  0  0  0  0  0  0  0  0
  1  2  1  0  0  0  0
  1 28  1  0  0  0  0
  1 29  1  0  0  0  0
  1 30  1  0  0  0  0
  2  3  1  0  0  0  0
  2 31  1  0  0  0  0
  2 32  1  0  0  0  0
  3  4  2  0  0  0  0
  3  5  1  0  0  0  0
  5  6  1  0  0  0  0
  6  7  1  0  0  0  0
  6 33  1  0  0  0  0
  6 34  1  0  0  0  0
  7 21  1  0  0  0  0
  7  8  1  0  0  0  0
  7 35  1  0  0  0  0
  8  9  1  0  0  0  0
  9 10  1  0  0  0  0
  9 19  1  0  0  0  0
  9 36  1  0  0  0  0
 10 17  1  0  0  0  0
 10 11  1  0  0  0  0
 11 12  2  0  0  0  0
 11 37  1  0  0  0  0
 12 13  1  0  0  0  0
 12 14  1  0  0  0  0
 14 15  2  0  0  0  0
 14 16  1  0  0  0  0
 16 27  1  0  0  0  0
 16 17  1  0  0  0  0
 17 18  2  0  0  0  0
 19 20  1  0  0  0  0
 19 21  1  0  0  0  0
 19 38  1  0  0  0  0
 21 22  1  0  0  0  0
 21 39  1  0  0  0  0
 22 23  1  0  0  0  0
 23 24  2  0  0  0  0
 23 25  1  0  0  0  0
 25 26  1  0  0  0  0
 25 40  1  0  0  0  0
 25 41  1  0  0  0  0
 26 42  1  0  0  0  0
 26 43  1  0  0  0  0
 26 44  1  0  0  0  0
M  END
> <s_m_source_file>
AV-unprocessed.smi

> <i_m_source_file_index>
37

> <i_lp_mmshare_version>
43012

> <i_f3d_flags>
0

> <s_epik_input>
W0NIM11bQ0gyXUMoPU8pT1tDSDJdW0NAQEhdMU9bQ0BASF0objJbY0hdYyhGKWMoPU8pW25IXWMyPU8pW0NAQEhdKEJyKVtDQEhdMU9DKD1PKVtDSDJdW0NIM10=

> <s_epik_cmdline>
J2VwaWtfcHl0aG9uJywgJy1waCcsICc3LjAnLCAnLXRuJywgJzgnLCAnLW1hJywgJzIwMCcsICctbWV0YWxfYmluZGluZycsICctaW1hZScsICc8aW5maWxlLm1hZT4nLCAnLW9tYWUnLCAnPG91dGZpbGUubWFlPic=

> <r_lp_tautomer_probability>
0.999537

> <r_epik_Ionization_Penalty>
0.104106

> <r_epik_Ionization_Penalty_Charging>
0.104106

> <r_epik_Ionization_Penalty_Neutral>
3.94675e-16

> <r_epik_State_Penalty>
0.0940182

> <r_epik_Charging_Adjusted_Penalty>
0.198124

> <i_epik_Tot_Q>
0

> <i_epik_Tot_abs_Q>
0

> <r_epik_Metal_State_Penalty>
3.05314

> <b_epik_Metal_Only>
0

> <s_epik_Chemistry_Notes>
This compound has an ester and may undergo hydrolysis at high or low pH. This compound contains an acetal/aminal-like group ( X-CH(R)-Y where X, Y are N, S, or O) that may be acid/base labile, releasing an aldehyde.

> <s_lp_Force_Field>
OPLS_2005

> <r_lp_Energy>
22.7414

> <b_lp_Chiralities_Consistent>
1

> <s_lp_Variant>
AV-unprocessed.smi:37-12

> <Gold.Version>
5.8.1

> <Gold.Id.Protein>
6NUR|6NUR_protein|mol2

> <Gold.PLP.Fitness>
51.7492

> <Gold.PLP.PLP>
-42.8544

> <Gold.PLP.part.hbond>
-4.1827

> <Gold.PLP.part.metal>
0.0000

> <Gold.PLP.part.buried>
-7.3303

> <Gold.PLP.part.nonpolar>
-31.4799

> <Gold.PLP.part.repulsive>
0.0761

> <Gold.PLP.ligand.clash>
0.0000

> <Gold.PLP.ligand.torsion>
1.4473

> <Gold.PLP.Chemscore.Hbond>
3.8560

> <Gold.PLP.Chemscore.CHOScore>
0.0000

> <Gold.PLP.Chemscore.Metal>
0.0000

> <Gold.Chemscore.Hbonds>
donor molecule, donor type, donor heavy atom, donor atom, acceptor molecule, acceptor atom, score
      P1  H  6896  6907       L1    18  0.89
      P1  H  6931  6943       L1     4  0.78
      P1  H  6934  6947       L1     4  1.00
      P1  H  7989  7998       L1    24  1.00

> <Gold.PLP.Chemscore.Internal.Correction>
0.2212

> <Gold.Rescore>
     Score         DG    S(hbond)    S(metal)    S(lipo)     H(rot)  DE(clash)    DE(int)     intcor
     14.10     -17.05       3.72        0.00      65.66       3.33       0.01       2.94       ----

> <Gold.Chemscore.Fitness>
14.1029

> <Gold.Chemscore.DG>
-17.0489

> <Gold.Chemscore.ZeroCoef>
-5.4800

> <Gold.Chemscore.Hbond>
3.7162

> <Gold.Chemscore.Metal>
0.0000

> <Gold.Chemscore.Lipo>
65.6616

> <Gold.Chemscore.Internal_Hbond>
0.0000

> <Gold.Chemscore.DEClash>
0.0073

> <Gold.Chemscore.DEInternal>
2.9387

> <Gold.Chemscore.Rot>
3.3303

> <Gold.Chemscore.Internal.Correction>
   9.000000E+99

> <Gold.Chemscore.Hbonds>
donor molecule, donor type, donor heavy atom, donor atom, acceptor molecule, acceptor atom, score
      P1  H  6896  6907       L1    18  0.87
      P1  H  6931  6943       L1     4  0.37
      P1  H  6934  6947       L1     4  0.95
      P1  H  7989  7998       L1    24  1.00

> <Gold.Chemscore.Hbond.Weighted>
-12.4121

> <Gold.Chemscore.Metal.Weighted>
-0.0000

> <Gold.Chemscore.Lipo.Weighted>
-7.6824

> <Gold.Chemscore.Internal_Hbond.Weighted>
0.0000

> <Gold.Chemscore.DEClash.Weighted>
0.0073

> <Gold.Chemscore.DEInternal.Weighted>
2.9387

> <Gold.Chemscore.Rot.Weighted>
8.5256

> <Gold.Chemscore.Internal.Correction.Weighted>
   9.000000E+99

> <Gold.Protein.RotatedTorsions>
[ 6907 6896 6895 6894 ] final   39.53 input  -60.11 | X-H torsion
[ 7974 7965 7964 7962 ] final  -37.40 input  175.53 | X-H torsion
[ 8008 7997 7996 7995 ] final  140.95 input   59.86 | X-H torsion
[ 10167 10162 10161 10158 ] final  164.65 input  -65.29 | X-H torsion
[ 10718 10713 10712 10709 ] final  -66.82 input   66.30 | X-H torsion
[ 10763 10752 10751 10750 ] final  -14.19 input  -60.55 | X-H torsion
[ 11005 11000 10999 10996 ] final  -85.70 input  -57.11 | X-H torsion

> <Gold.Protein.ActiveResidues>
 VAL166  LYS551  ARG553  GLY616  TRP617  ASP618  TYR619  PRO620  LYS621  CYS622 
 ASP623  PHE694  ASN695  SER759  ASP760  ASP761  ALA762  ILE779  LEU786  VAL792 
 PHE793  MET794  SER795  GLU796  ALA797  LYS798  CYS799  TRP800  GLU811  SER814 

> <Gold.Protein.RotatedAtoms>
  152.1708  134.8836  160.0534 H   0  0  0  0  0  0  0  0  0  0  0  0  # atno 6907 bound_to 6896
  151.9796  133.3748  159.4110 H   0  0  0  0  0  0  0  0  0  0  0  0  # atno 6908 bound_to 6896
  150.6901  134.3975  159.5148 H   0  0  0  0  0  0  0  0  0  0  0  0  # atno 6909 bound_to 6896
  146.0578  140.6391  142.9011 H   0  0  0  0  0  0  0  0  0  0  0  0  # atno 7974 bound_to 7965
  156.2972  140.2328  156.4486 H   0  0  0  0  0  0  0  0  0  0  0  0  # atno 8008 bound_to 7997
  154.8122  140.0442  157.1371 H   0  0  0  0  0  0  0  0  0  0  0  0  # atno 8009 bound_to 7997
  154.9410  140.3029  155.5124 H   0  0  0  0  0  0  0  0  0  0  0  0  # atno 8010 bound_to 7997
  139.4892  144.4214  151.9182 H   0  0  0  0  0  0  0  0  0  0  0  0  # atno 10167 bound_to 10162
  156.0591  130.4268  150.1764 H   0  0  0  0  0  0  0  0  0  0  0  0  # atno 10718 bound_to 10713
  153.5246  135.7015  153.5714 H   0  0  0  0  0  0  0  0  0  0  0  0  # atno 10763 bound_to 10752
  153.3748  135.3935  155.1814 H   0  0  0  0  0  0  0  0  0  0  0  0  # atno 10764 bound_to 10752
  154.8691  135.3820  154.4738 H   0  0  0  0  0  0  0  0  0  0  0  0  # atno 10765 bound_to 10752
  141.1638  133.7414  156.9054 H   0  0  0  0  0  0  0  0  0  0  0  0  # atno 11005 bound_to 11000
  144.7158  140.4203  143.7045 LP  0  0  0  0  0  0  0  0  0  0  0  0  # atno 17320 bound_to 7965
  145.6612  139.1582  143.2807 LP  0  0  0  0  0  0  0  0  0  0  0  0  # atno 17321 bound_to 7965
  140.3658  144.2917  150.5927 LP  0  0  0  0  0  0  0  0  0  0  0  0  # atno 17342 bound_to 10162
  140.5363  143.2232  151.8158 LP  0  0  0  0  0  0  0  0  0  0  0  0  # atno 17343 bound_to 10162
  156.9835  130.9871  151.3431 LP  0  0  0  0  0  0  0  0  0  0  0  0  # atno 17370 bound_to 10713
  157.5586  130.8230  149.8236 LP  0  0  0  0  0  0  0  0  0  0  0  0  # atno 17371 bound_to 10713
  140.1554  134.9202  157.2646 LP  0  0  0  0  0  0  0  0  0  0  0  0  # atno 17394 bound_to 11000
  140.2674  134.3500  155.7385 LP  0  0  0  0  0  0  0  0  0  0  0  0  # atno 17395 bound_to 11000

$$$$
