AV-unprocessed.smi:53|AV-procd|sdf|513|dock9
  -GOLD-   2262016383D 1   1.00000     0.00000
 Structure written by MMmdl.
 30 31  0  0  0  0  0  0  0  0  1 V2000
  152.7228  138.9300  154.9020 N   0  0  0  0  0  0  0  0  0  0  0  0
  151.3994  138.9886  154.6967 C   0  0  0  0  0  0  0  0  0  0  0  0
  150.6150  137.7756  154.6339 C   0  0  0  0  0  0  0  0  0  0  0  0
  149.2873  137.9183  154.4269 C   0  0  0  0  0  0  0  0  0  0  0  0
  148.6908  139.1634  154.2882 N   0  0  0  0  0  0  0  0  0  0  0  0
  147.2002  139.2854  154.0530 C   0  0  2  0  0  0  0  0  0  0  0  0
  146.5428  138.4396  154.9421 O   0  0  0  0  0  0  0  0  0  0  0  0
  145.3320  138.0069  154.3418 C   0  0  2  0  0  0  0  0  0  0  0  0
  144.8263  136.7343  155.0385 C   0  0  0  0  0  0  0  0  0  0  0  0
  145.7965  135.7130  154.9483 O   0  0  0  0  0  0  0  0  0  0  0  0
  145.7432  137.7834  152.8820 C   0  0  1  0  0  0  0  0  0  0  0  0
  144.6232  137.9269  152.0306 O   0  0  0  0  0  0  0  0  0  0  0  0
  146.7670  138.8862  152.6234 C   0  0  2  0  0  0  0  0  0  0  0  0
  147.8190  138.4075  151.8041 O   0  0  0  0  0  0  0  0  0  0  0  0
  149.4870  140.3325  154.3346 C   0  0  0  0  0  0  0  0  0  0  0  0
  149.0060  141.4540  154.1771 O   0  0  0  0  0  0  0  0  0  0  0  0
  150.8294  140.1691  154.5489 N   0  0  0  0  0  0  0  0  0  0  0  0
  146.9127  140.3067  154.3095 H   0  0  0  0  0  0  0  0  0  0  0  0
  144.5966  138.8124  154.4029 H   0  0  0  0  0  0  0  0  0  0  0  0
  146.1937  136.7963  152.7639 H   0  0  0  0  0  0  0  0  0  0  0  0
  146.3129  139.7617  152.1567 H   0  0  0  0  0  0  0  0  0  0  0  0
  153.2686  139.7784  154.9419 H   0  0  0  0  0  0  0  0  0  0  0  0
  153.1730  138.0330  155.0155 H   0  0  0  0  0  0  0  0  0  0  0  0
  151.0377  136.7870  154.7416 H   0  0  0  0  0  0  0  0  0  0  0  0
  148.6838  137.0242  154.3640 H   0  0  0  0  0  0  0  0  0  0  0  0
  144.6569  136.9292  156.0979 H   0  0  0  0  0  0  0  0  0  0  0  0
  143.8788  136.3995  154.6152 H   0  0  0  0  0  0  0  0  0  0  0  0
  146.6419  136.0826  155.1526 H   0  0  0  0  0  0  0  0  0  0  0  0
  144.2939  138.8088  152.1121 H   0  0  0  0  0  0  0  0  0  0  0  0
  148.2167  137.6655  152.2341 H   0  0  0  0  0  0  0  0  0  0  0  0
  1  2  1  0  0  0  0
  1 22  1  0  0  0  0
  1 23  1  0  0  0  0
  2 17  2  0  0  0  0
  2  3  1  0  0  0  0
  3  4  2  0  0  0  0
  3 24  1  0  0  0  0
  4  5  1  0  0  0  0
  4 25  1  0  0  0  0
  5  6  1  0  0  0  0
  5 15  1  0  0  0  0
  6 18  1  0  0  0  0
  6 13  1  0  0  0  0
  6  7  1  0  0  0  0
  7  8  1  0  0  0  0
  8 19  1  0  0  0  0
  8  9  1  0  0  0  0
  8 11  1  0  0  0  0
  9 10  1  0  0  0  0
  9 26  1  0  0  0  0
  9 27  1  0  0  0  0
 10 28  1  0  0  0  0
 11 20  1  0  0  0  0
 11 12  1  0  0  0  0
 11 13  1  0  0  0  0
 12 29  1  0  0  0  0
 13 21  1  0  0  0  0
 13 14  1  0  0  0  0
 14 30  1  0  0  0  0
 15 16  2  0  0  0  0
 15 17  1  0  0  0  0
M  END
> <s_m_source_file>
AV-unprocessed.smi

> <i_m_source_file_index>
53

> <i_lp_mmshare_version>
43012

> <i_f3d_flags>
0

> <s_epik_input>
W05IMl1jMVtjSF1bY0hdbihjKD1PKW4xKVtDQEBIXTJPW0NASF0oW0NIMl1bT0hdKVtDQEBIXShbT0hdKVtDQEBIXTJbT0hd

> <s_epik_cmdline>
J2VwaWtfcHl0aG9uJywgJy1waCcsICc3LjAnLCAnLXRuJywgJzgnLCAnLW1hJywgJzIwMCcsICctbWV0YWxfYmluZGluZycsICctaW1hZScsICc8aW5maWxlLm1hZT4nLCAnLW9tYWUnLCAnPG91dGZpbGUubWFlPic=

> <r_lp_tautomer_probability>
0.99996

> <r_epik_Ionization_Penalty>
0.00069087

> <r_epik_Ionization_Penalty_Charging>
2.61959e-08

> <r_epik_Ionization_Penalty_Neutral>
0.000690844

> <r_epik_State_Penalty>
1.15523e-05

> <r_epik_Charging_Adjusted_Penalty>
1.15785e-05

> <i_epik_Tot_Q>
0

> <i_epik_Tot_abs_Q>
0

> <r_epik_Metal_State_Penalty>
-0

> <b_epik_Metal_Only>
0

> <s_epik_Chemistry_Notes>
This compound contains an acetal/aminal-like group ( X-CH(R)-Y where X, Y are N, S, or O) that may be acid/base labile, releasing an aldehyde.

> <s_lp_Force_Field>
OPLS_2005

> <r_lp_Energy>
35.6127

> <b_lp_Chiralities_Consistent>
1

> <s_lp_Variant>
AV-unprocessed.smi:53-1

> <Gold.Version>
5.8.1

> <Gold.Id.Protein>
6NUR|6NUR_protein|mol2

> <Gold.PLP.Fitness>
36.6600

> <Gold.PLP.PLP>
-24.0012

> <Gold.PLP.part.hbond>
-5.9778

> <Gold.PLP.part.metal>
0.0000

> <Gold.PLP.part.buried>
-1.4003

> <Gold.PLP.part.nonpolar>
-16.3292

> <Gold.PLP.part.repulsive>
0.5578

> <Gold.PLP.ligand.clash>
0.0000

> <Gold.PLP.ligand.torsion>
0.3640

> <Gold.PLP.Chemscore.Hbond>
4.0423

> <Gold.PLP.Chemscore.CHOScore>
0.3313

> <Gold.PLP.Chemscore.Metal>
0.0000

> <Gold.Chemscore.Hbonds>
donor molecule, donor type, donor heavy atom, donor atom, acceptor molecule, acceptor atom, score
      L1  H    12    29       P1 10175  1.00
      L1  H    14    30       P1  7948  0.77
      P1  H  7954  7966       L1    14  0.86
      P1  H  7989  7998       L1    17  0.91
      P1  H  8011  8017       L1    16  0.34
      L1  C     4    25       P1  7948  0.36

> <Gold.PLP.Chemscore.Internal.Correction>
0.2659

> <Gold.Rescore>
     Score         DG    S(hbond)    S(metal)    S(lipo)     H(rot)  DE(clash)    DE(int)     intcor
      8.95     -10.02       3.35        0.00      24.41       3.71       0.53       0.54       ----

> <Gold.Chemscore.Fitness>
8.9510

> <Gold.Chemscore.DG>
-10.0232

> <Gold.Chemscore.ZeroCoef>
-5.4800

> <Gold.Chemscore.Hbond>
3.3483

> <Gold.Chemscore.Metal>
0.0000

> <Gold.Chemscore.Lipo>
24.4121

> <Gold.Chemscore.Internal_Hbond>
0.0000

> <Gold.Chemscore.DEClash>
0.5279

> <Gold.Chemscore.DEInternal>
0.5444

> <Gold.Chemscore.Rot>
3.7095

> <Gold.Chemscore.Internal.Correction>
   9.000000E+99

> <Gold.Chemscore.Hbonds>
donor molecule, donor type, donor heavy atom, donor atom, acceptor molecule, acceptor atom, score
      L1  H    12    29       P1 10175  1.00
      L1  H    14    30       P1  7948  0.75
      P1  H  7954  7966       L1    14  0.16
      P1  H  7989  7998       L1    17  0.38
      P1  H  8011  8017       L1    16  0.28

> <Gold.Chemscore.Hbond.Weighted>
-11.1834

> <Gold.Chemscore.Metal.Weighted>
-0.0000

> <Gold.Chemscore.Lipo.Weighted>
-2.8562

> <Gold.Chemscore.Internal_Hbond.Weighted>
0.0000

> <Gold.Chemscore.DEClash.Weighted>
0.5279

> <Gold.Chemscore.DEInternal.Weighted>
0.5444

> <Gold.Chemscore.Rot.Weighted>
9.4964

> <Gold.Chemscore.Internal.Correction.Weighted>
   9.000000E+99

> <Gold.Protein.RotatedTorsions>
[ 6907 6896 6895 6894 ] final  -54.45 input  -60.11 | X-H torsion
[ 7974 7965 7964 7962 ] final  -20.76 input  175.53 | X-H torsion
[ 8008 7997 7996 7995 ] final  -23.06 input   59.86 | X-H torsion
[ 10167 10162 10161 10158 ] final   22.45 input  -65.29 | X-H torsion
[ 10718 10713 10712 10709 ] final  -56.31 input   66.30 | X-H torsion
[ 10763 10752 10751 10750 ] final   41.76 input  -60.55 | X-H torsion
[ 11005 11000 10999 10996 ] final  157.66 input  -57.11 | X-H torsion

> <Gold.Protein.ActiveResidues>
 VAL166  LYS551  ARG553  GLY616  TRP617  ASP618  TYR619  PRO620  LYS621  CYS622 
 ASP623  PHE694  ASN695  SER759  ASP760  ASP761  ALA762  ILE779  LEU786  VAL792 
 PHE793  MET794  SER795  GLU796  ALA797  LYS798  CYS799  TRP800  GLU811  SER814 

> <Gold.Protein.RotatedAtoms>
  150.8337  134.7602  159.6874 H   0  0  0  0  0  0  0  0  0  0  0  0  # atno 6907 bound_to 6896
  152.4438  134.5534  159.9883 H   0  0  0  0  0  0  0  0  0  0  0  0  # atno 6908 bound_to 6896
  151.5689  133.3355  159.3021 H   0  0  0  0  0  0  0  0  0  0  0  0  # atno 6909 bound_to 6896
  146.1771  140.4246  142.8509 H   0  0  0  0  0  0  0  0  0  0  0  0  # atno 7974 bound_to 7965
  154.4607  140.1991  156.0252 H   0  0  0  0  0  0  0  0  0  0  0  0  # atno 8008 bound_to 7997
  156.0834  140.3268  155.7695 H   0  0  0  0  0  0  0  0  0  0  0  0  # atno 8009 bound_to 7997
  155.5074  140.0559  157.2920 H   0  0  0  0  0  0  0  0  0  0  0  0  # atno 8010 bound_to 7997
  140.5347  143.9780  150.6485 H   0  0  0  0  0  0  0  0  0  0  0  0  # atno 10167 bound_to 10162
  156.1299  130.4160  150.0288 H   0  0  0  0  0  0  0  0  0  0  0  0  # atno 10718 bound_to 10713
  152.9900  135.6152  154.2840 H   0  0  0  0  0  0  0  0  0  0  0  0  # atno 10763 bound_to 10752
  154.2568  135.2783  155.2796 H   0  0  0  0  0  0  0  0  0  0  0  0  # atno 10764 bound_to 10752
  154.5241  135.5806  153.6762 H   0  0  0  0  0  0  0  0  0  0  0  0  # atno 10765 bound_to 10752
  140.1791  134.8488  157.2782 H   0  0  0  0  0  0  0  0  0  0  0  0  # atno 11005 bound_to 11000
  144.8253  140.6618  143.6326 LP  0  0  0  0  0  0  0  0  0  0  0  0  # atno 17320 bound_to 7965
  145.4182  139.1568  143.4088 LP  0  0  0  0  0  0  0  0  0  0  0  0  # atno 17321 bound_to 7965
  140.3165  143.3164  152.0827 LP  0  0  0  0  0  0  0  0  0  0  0  0  # atno 17342 bound_to 10162
  139.4967  144.6602  151.6482 LP  0  0  0  0  0  0  0  0  0  0  0  0  # atno 17343 bound_to 10162
  156.8203  130.9356  151.3641 LP  0  0  0  0  0  0  0  0  0  0  0  0  # atno 17370 bound_to 10713
  157.6477  130.8858  149.9572 LP  0  0  0  0  0  0  0  0  0  0  0  0  # atno 17371 bound_to 10713
  140.2288  134.3934  155.7531 LP  0  0  0  0  0  0  0  0  0  0  0  0  # atno 17394 bound_to 11000
  141.2222  133.7204  156.8607 LP  0  0  0  0  0  0  0  0  0  0  0  0  # atno 17395 bound_to 11000

$$$$
