AV-unprocessed.smi:2532|AV-procd|sdf|9971|dock2
  -GOLD-   2272014 13D 1   1.00000     0.00000
 Structure written by MMmdl.
 37 39  0  0  0  0  0  0  0  0  2 V2000
  149.1130  138.7078  157.6646 O   0  0  0  0  0  0  0  0  0  0  0  0
  150.1454  138.8347  158.6223 C   0  0  1  0  0  0  0  0  0  0  0  0
  150.4657  137.4369  159.1737 C   0  0  0  0  0  0  0  0  0  0  0  0
  149.5933  137.1642  160.2570 O   0  0  0  0  0  0  0  0  0  0  0  0
  148.3742  136.5667  159.8472 C   0  0  0  0  0  0  0  0  0  0  0  0
  147.9223  135.6657  160.9512 C   0  0  0  0  0  0  0  0  0  0  0  0
  147.6559  134.3226  160.8676 C   0  0  0  0  0  0  0  0  0  0  0  0
  147.2602  133.7479  162.1112 C   0  0  0  0  0  0  0  0  0  0  0  0
  147.2393  134.6581  163.1340 C   0  0  0  0  0  0  0  0  0  0  0  0
  147.7060  136.2449  162.5869 S   0  0  0  0  0  0  0  0  0  0  0  0
  151.3744  139.4918  157.9635 C   0  0  0  0  0  0  0  0  0  0  0  0
  151.2014  140.9362  157.7492 N   0  0  0  0  0  0  0  0  0  0  0  0
  150.5003  141.5910  156.7843 C   0  0  0  0  0  0  0  0  0  0  0  0
  150.6437  142.9271  157.0056 N   0  3  0  0  0  0  0  0  0  0  0  0
  151.4491  143.1300  158.1281 C   0  0  0  0  0  0  0  0  0  0  0  0
  151.8765  144.3037  158.7413 C   0  0  0  0  0  0  0  0  0  0  0  0
  152.7001  144.1607  159.8771 C   0  0  0  0  0  0  0  0  0  0  0  0
  153.0687  142.8889  160.3616 C   0  0  0  0  0  0  0  0  0  0  0  0
  152.6291  141.7058  159.7322 C   0  0  0  0  0  0  0  0  0  0  0  0
  151.8131  141.8549  158.6109 C   0  0  0  0  0  0  0  0  0  0  0  0
  148.5820  137.9612  157.8981 H   0  0  0  0  0  0  0  0  0  0  0  0
  149.7964  139.4760  159.4330 H   0  0  0  0  0  0  0  0  0  0  0  0
  150.3883  136.6766  158.3940 H   0  0  0  0  0  0  0  0  0  0  0  0
  151.4905  137.4132  159.5478 H   0  0  0  0  0  0  0  0  0  0  0  0
  147.6234  137.3335  159.6496 H   0  0  0  0  0  0  0  0  0  0  0  0
  148.5170  135.9911  158.9316 H   0  0  0  0  0  0  0  0  0  0  0  0
  147.7285  133.7373  159.9628 H   0  0  0  0  0  0  0  0  0  0  0  0
  147.0111  132.7018  162.2109 H   0  0  0  0  0  0  0  0  0  0  0  0
  146.9832  134.4945  164.1705 H   0  0  0  0  0  0  0  0  0  0  0  0
  152.2475  139.3696  158.6054 H   0  0  0  0  0  0  0  0  0  0  0  0
  151.6235  139.0112  157.0172 H   0  0  0  0  0  0  0  0  0  0  0  0
  149.9334  141.1333  155.9864 H   0  0  0  0  0  0  0  0  0  0  0  0
  151.5968  145.2794  158.3714 H   0  0  0  0  0  0  0  0  0  0  0  0
  153.0574  145.0443  160.3859 H   0  0  0  0  0  0  0  0  0  0  0  0
  153.7027  142.8182  161.2336 H   0  0  0  0  0  0  0  0  0  0  0  0
  152.9234  140.7375  160.1085 H   0  0  0  0  0  0  0  0  0  0  0  0
  150.2230  143.6455  156.4303 H   0  0  0  0  0  0  0  0  0  0  0  0
  1  2  1  0  0  0  0
  1 21  1  0  0  0  0
  2  3  1  0  0  0  0
  2 11  1  0  0  0  0
  2 22  1  0  0  0  0
  3  4  1  0  0  0  0
  3 23  1  0  0  0  0
  3 24  1  0  0  0  0
  4  5  1  0  0  0  0
  5  6  1  0  0  0  0
  5 25  1  0  0  0  0
  5 26  1  0  0  0  0
  6 10  1  0  0  0  0
  6  7  2  0  0  0  0
  7  8  1  0  0  0  0
  7 27  1  0  0  0  0
  8  9  2  0  0  0  0
  8 28  1  0  0  0  0
  9 10  1  0  0  0  0
  9 29  1  0  0  0  0
 11 12  1  0  0  0  0
 11 30  1  0  0  0  0
 11 31  1  0  0  0  0
 12 20  1  0  0  0  0
 12 13  1  0  0  0  0
 13 14  2  0  0  0  0
 13 32  1  0  0  0  0
 14 15  1  0  0  0  0
 14 37  1  0  0  0  0
 15 20  2  0  0  0  0
 15 16  1  0  0  0  0
 16 17  2  0  0  0  0
 16 33  1  0  0  0  0
 17 18  1  0  0  0  0
 17 34  1  0  0  0  0
 18 19  2  0  0  0  0
 18 35  1  0  0  0  0
 19 20  1  0  0  0  0
 19 36  1  0  0  0  0
M  CHG  1  14   1
M  END
> <s_m_source_file>
AV-unprocessed.smi

> <i_m_source_file_index>
2532

> <i_lp_mmshare_version>
43012

> <i_f3d_flags>
0

> <s_epik_input>
W2NIXTFbY0hdW2NIXVtjSF1jKGMxMiluKFtjSF1uMilbQ0gyXVtDQEhdKFtPSF0pW0NIMl1PW0NIMl1jM1tjSF1bY0hdW2NIXXMz

> <s_epik_cmdline>
J2VwaWtfcHl0aG9uJywgJy1waCcsICc3LjAnLCAnLXRuJywgJzgnLCAnLW1hJywgJzIwMCcsICctbWV0YWxfYmluZGluZycsICctaW1hZScsICc8aW5maWxlLm1hZT4nLCAnLW9tYWUnLCAnPG91dGZpbGUubWFlPic=

> <r_epik_Ionization_Penalty>
1.31758

> <r_epik_Ionization_Penalty_Charging>
1.31758

> <r_epik_Ionization_Penalty_Neutral>
1.26231e-06

> <r_epik_State_Penalty>
1.39289

> <r_epik_Charging_Adjusted_Penalty>
2.71047

> <i_epik_Tot_Q>
1

> <i_epik_Tot_abs_Q>
1

> <r_epik_Metal_State_Penalty>
5.42637

> <b_epik_Metal_Only>
0

> <s_lp_Force_Field>
OPLS_2005

> <r_lp_Energy>
15.1458

> <b_lp_Chiralities_Consistent>
1

> <s_lp_Variant>
AV-unprocessed.smi:2532-4

> <Gold.Version>
5.8.1

> <Gold.Id.Protein>
6NUR|6NUR_protein|mol2

> <Gold.PLP.Fitness>
54.2440

> <Gold.PLP.PLP>
-49.4511

> <Gold.PLP.part.hbond>
-2.0000

> <Gold.PLP.part.metal>
0.0000

> <Gold.PLP.part.buried>
-6.2673

> <Gold.PLP.part.nonpolar>
-42.9922

> <Gold.PLP.part.repulsive>
0.0659

> <Gold.PLP.ligand.clash>
0.0000

> <Gold.PLP.ligand.torsion>
1.0629

> <Gold.PLP.Chemscore.Hbond>
2.2704

> <Gold.PLP.Chemscore.CHOScore>
0.0000

> <Gold.PLP.Chemscore.Metal>
0.0000

> <Gold.Chemscore.Hbonds>
donor molecule, donor type, donor heavy atom, donor atom, acceptor molecule, acceptor atom, score
      L1  H    14    37       P1  8028  2.00
      P1  H  6931  6943       L1     4  0.38

> <Gold.PLP.Chemscore.Internal.Correction>
0.1075

> <Gold.Rescore>
     Score         DG    S(hbond)    S(metal)    S(lipo)     H(rot)  DE(clash)    DE(int)     intcor
     17.75     -18.95       1.41        0.00     128.77       2.46       0.16       1.04       ----

> <Gold.Chemscore.Fitness>
17.7502

> <Gold.Chemscore.DG>
-18.9472

> <Gold.Chemscore.ZeroCoef>
-5.4800

> <Gold.Chemscore.Hbond>
1.4074

> <Gold.Chemscore.Metal>
0.0000

> <Gold.Chemscore.Lipo>
128.7713

> <Gold.Chemscore.Internal_Hbond>
0.0000

> <Gold.Chemscore.DEClash>
0.1596

> <Gold.Chemscore.DEInternal>
1.0374

> <Gold.Chemscore.Rot>
2.4608

> <Gold.Chemscore.Internal.Correction>
   9.000000E+99

> <Gold.Chemscore.Hbonds>
donor molecule, donor type, donor heavy atom, donor atom, acceptor molecule, acceptor atom, score
      L1  H    14    37       P1  8028  1.00
      P1  H  6931  6943       L1     4  0.16

> <Gold.Chemscore.Hbond.Weighted>
-4.7006

> <Gold.Chemscore.Metal.Weighted>
-0.0000

> <Gold.Chemscore.Lipo.Weighted>
-15.0662

> <Gold.Chemscore.Internal_Hbond.Weighted>
0.0000

> <Gold.Chemscore.DEClash.Weighted>
0.1596

> <Gold.Chemscore.DEInternal.Weighted>
1.0374

> <Gold.Chemscore.Rot.Weighted>
6.2996

> <Gold.Chemscore.Internal.Correction.Weighted>
   9.000000E+99

> <Gold.Protein.RotatedTorsions>
[ 6907 6896 6895 6894 ] final   49.36 input  -60.11 | X-H torsion
[ 7974 7965 7964 7962 ] final    3.76 input  175.53 | X-H torsion
[ 8008 7997 7996 7995 ] final  -86.84 input   59.86 | X-H torsion
[ 10167 10162 10161 10158 ] final  -42.57 input  -65.29 | X-H torsion
[ 10718 10713 10712 10709 ] final  -88.62 input   66.30 | X-H torsion
[ 10763 10752 10751 10750 ] final   73.71 input  -60.55 | X-H torsion
[ 11005 11000 10999 10996 ] final  123.15 input  -57.11 | X-H torsion

> <Gold.Protein.ActiveResidues>
 VAL166  LYS551  ARG553  GLY616  TRP617  ASP618  TYR619  PRO620  LYS621  CYS622 
 ASP623  PHE694  ASN695  SER759  ASP760  ASP761  ALA762  ILE779  LEU786  VAL792 
 PHE793  MET794  SER795  GLU796  ALA797  LYS798  CYS799  TRP800  GLU811  SER814 

> <Gold.Protein.RotatedAtoms>
  152.2899  134.7733  160.0379 H   0  0  0  0  0  0  0  0  0  0  0  0  # atno 6907 bound_to 6896
  151.8283  133.3399  159.3613 H   0  0  0  0  0  0  0  0  0  0  0  0  # atno 6908 bound_to 6896
  150.7226  134.5436  159.5804 H   0  0  0  0  0  0  0  0  0  0  0  0  # atno 6909 bound_to 6896
  146.2445  140.0636  142.8367 H   0  0  0  0  0  0  0  0  0  0  0  0  # atno 7974 bound_to 7965
  154.6564  140.0573  157.0013 H   0  0  0  0  0  0  0  0  0  0  0  0  # atno 8008 bound_to 7997
  155.1294  140.3255  155.4459 H   0  0  0  0  0  0  0  0  0  0  0  0  # atno 8009 bound_to 7997
  156.2599  140.1983  156.6413 H   0  0  0  0  0  0  0  0  0  0  0  0  # atno 8010 bound_to 7997
  140.6964  143.3030  151.3228 H   0  0  0  0  0  0  0  0  0  0  0  0  # atno 10167 bound_to 10162
  155.9983  130.4842  150.5047 H   0  0  0  0  0  0  0  0  0  0  0  0  # atno 10718 bound_to 10713
  153.0539  135.5053  154.7934 H   0  0  0  0  0  0  0  0  0  0  0  0  # atno 10763 bound_to 10752
  154.6775  135.2963  154.9661 H   0  0  0  0  0  0  0  0  0  0  0  0  # atno 10764 bound_to 10752
  154.0458  135.6710  153.4847 H   0  0  0  0  0  0  0  0  0  0  0  0  # atno 10765 bound_to 10752
  139.9299  134.9641  156.8216 H   0  0  0  0  0  0  0  0  0  0  0  0  # atno 11005 bound_to 11000
  145.0878  140.9264  143.4787 LP  0  0  0  0  0  0  0  0  0  0  0  0  # atno 17320 bound_to 7965
  145.0802  139.2965  143.5787 LP  0  0  0  0  0  0  0  0  0  0  0  0  # atno 17321 bound_to 7965
  139.6425  144.0512  152.2566 LP  0  0  0  0  0  0  0  0  0  0  0  0  # atno 17342 bound_to 10162
  140.0022  144.6285  150.7720 LP  0  0  0  0  0  0  0  0  0  0  0  0  # atno 17343 bound_to 10162
  157.3027  131.0648  151.2057 LP  0  0  0  0  0  0  0  0  0  0  0  0  # atno 17370 bound_to 10713
  157.3030  130.6852  149.6174 LP  0  0  0  0  0  0  0  0  0  0  0  0  # atno 17371 bound_to 10713
  140.6230  133.9976  155.7627 LP  0  0  0  0  0  0  0  0  0  0  0  0  # atno 17394 bound_to 11000
  141.0882  133.9958  157.3280 LP  0  0  0  0  0  0  0  0  0  0  0  0  # atno 17395 bound_to 11000

$$$$
