AV-unprocessed.smi:1172|AV-procd|sdf|4943|dock3
  -GOLD-   22720 3523D 1   1.00000     0.00000
 Structure written by MMmdl.
 36 37  0  0  0  0  0  0  0  0  1 V2000
  151.7019  145.2592  159.2420 N   0  0  0  0  0  0  0  0  0  0  0  0
  151.5985  143.9410  159.4318 C   0  0  0  0  0  0  0  0  0  0  0  0
  150.9253  143.4593  160.3402 O   0  0  0  0  0  0  0  0  0  0  0  0
  152.3573  143.0329  158.4621 C   0  0  0  0  0  0  0  0  0  0  0  0
  151.4561  142.1094  157.7958 N   0  0  0  0  0  0  0  0  0  0  0  0
  150.3196  142.4023  157.0672 C   0  0  0  0  0  0  0  0  0  0  0  0
  149.8251  141.1985  156.6517 C   0  0  0  0  0  0  0  0  0  0  0  0
  148.6750  140.9162  155.8717 N   0  0  0  0  0  0  0  0  0  0  0  0
  148.5897  140.8168  154.5311 C   0  0  0  0  0  0  0  0  0  0  0  0
  149.5422  141.0302  153.7800 O   0  0  0  0  0  0  0  0  0  0  0  0
  147.3498  140.5064  154.0724 N   0  0  0  0  0  0  0  0  0  0  0  0
  146.2136  140.0370  154.8862 C   0  0  0  0  0  0  0  0  0  0  0  0
  146.0429  138.5216  154.6718 C   0  0  0  0  0  0  0  0  0  0  0  0
  145.8515  138.1968  153.1784 C   0  0  0  0  0  0  0  0  0  0  0  0
  146.9430  138.8562  152.3111 C   0  0  1  0  0  0  0  0  0  0  0  0
  146.6251  138.6898  150.9459 O   0  0  0  0  0  0  0  0  0  0  0  0
  147.0703  140.3571  152.6375 C   0  0  0  0  0  0  0  0  0  0  0  0
  150.7141  140.2179  157.1630 C   0  0  0  0  0  0  0  0  0  0  0  0
  151.6980  140.7755  157.8519 N   0  0  0  0  0  0  0  0  0  0  0  0
  151.2162  145.8922  159.8608 H   0  0  0  0  0  0  0  0  0  0  0  0
  152.2629  145.6195  158.4838 H   0  0  0  0  0  0  0  0  0  0  0  0
  152.8747  143.6249  157.7057 H   0  0  0  0  0  0  0  0  0  0  0  0
  153.1197  142.4720  159.0054 H   0  0  0  0  0  0  0  0  0  0  0  0
  149.9802  143.4170  156.9204 H   0  0  0  0  0  0  0  0  0  0  0  0
  147.8239  140.7511  156.3887 H   0  0  0  0  0  0  0  0  0  0  0  0
  146.3107  140.2495  155.9507 H   0  0  0  0  0  0  0  0  0  0  0  0
  145.3092  140.5599  154.5717 H   0  0  0  0  0  0  0  0  0  0  0  0
  146.9216  137.9984  155.0513 H   0  0  0  0  0  0  0  0  0  0  0  0
  145.1915  138.1541  155.2452 H   0  0  0  0  0  0  0  0  0  0  0  0
  145.8447  137.1169  153.0260 H   0  0  0  0  0  0  0  0  0  0  0  0
  144.8710  138.5588  152.8649 H   0  0  0  0  0  0  0  0  0  0  0  0
  147.8994  138.3648  152.4964 H   0  0  0  0  0  0  0  0  0  0  0  0
  145.6854  138.7115  150.8507 H   0  0  0  0  0  0  0  0  0  0  0  0
  146.1423  140.8786  152.3968 H   0  0  0  0  0  0  0  0  0  0  0  0
  147.8362  140.8170  152.0108 H   0  0  0  0  0  0  0  0  0  0  0  0
  150.6805  139.1433  157.0598 H   0  0  0  0  0  0  0  0  0  0  0  0
  1  2  1  0  0  0  0
  1 20  1  0  0  0  0
  1 21  1  0  0  0  0
  2  3  2  0  0  0  0
  2  4  1  0  0  0  0
  4  5  1  0  0  0  0
  4 22  1  0  0  0  0
  4 23  1  0  0  0  0
  5 19  1  0  0  0  0
  5  6  1  0  0  0  0
  6  7  2  0  0  0  0
  6 24  1  0  0  0  0
  7  8  1  0  0  0  0
  7 18  1  0  0  0  0
  8  9  1  0  0  0  0
  8 25  1  0  0  0  0
  9 10  2  0  0  0  0
  9 11  1  0  0  0  0
 11 17  1  0  0  0  0
 11 12  1  0  0  0  0
 12 13  1  0  0  0  0
 12 26  1  0  0  0  0
 12 27  1  0  0  0  0
 13 14  1  0  0  0  0
 13 28  1  0  0  0  0
 13 29  1  0  0  0  0
 14 15  1  0  0  0  0
 14 30  1  0  0  0  0
 14 31  1  0  0  0  0
 15 16  1  0  0  0  0
 15 17  1  0  0  0  0
 15 32  1  0  0  0  0
 16 33  1  0  0  0  0
 17 34  1  0  0  0  0
 17 35  1  0  0  0  0
 18 19  2  0  0  0  0
 18 36  1  0  0  0  0
M  END
> <s_m_source_file>
AV-unprocessed.smi

> <i_m_source_file_index>
1172

> <i_lp_mmshare_version>
43012

> <i_f3d_flags>
0

> <s_epik_input>
W05IMl1DKD1PKVtDSDJdbjFbY0hdYyhbY0hdbjEpW05IXUMoPU8pTjJbQ0gyXVtDSDJdW0NIMl1bQ0BASF0oW09IXSlbQ0gyXTI=

> <s_epik_cmdline>
J2VwaWtfcHl0aG9uJywgJy1waCcsICc3LjAnLCAnLXRuJywgJzgnLCAnLW1hJywgJzIwMCcsICctbWV0YWxfYmluZGluZycsICctaW1hZScsICc8aW5maWxlLm1hZT4nLCAnLW9tYWUnLCAnPG91dGZpbGUubWFlPic=

> <r_lp_tautomer_probability>
1

> <r_epik_Ionization_Penalty>
4.44977e-05

> <r_epik_Ionization_Penalty_Charging>
0

> <r_epik_Ionization_Penalty_Neutral>
4.44977e-05

> <r_epik_State_Penalty>
-0

> <r_epik_Charging_Adjusted_Penalty>
0

> <i_epik_Tot_Q>
0

> <i_epik_Tot_abs_Q>
0

> <r_epik_Metal_State_Penalty>
-0

> <b_epik_Metal_Only>
0

> <s_lp_Force_Field>
OPLS_2005

> <r_lp_Energy>
33.3056

> <b_lp_Chiralities_Consistent>
1

> <s_lp_Variant>
AV-unprocessed.smi:1172-1

> <Gold.Version>
5.8.1

> <Gold.Id.Protein>
6NUR|6NUR_protein|mol2

> <Gold.PLP.Fitness>
39.1322

> <Gold.PLP.PLP>
-28.3849

> <Gold.PLP.part.hbond>
-5.3384

> <Gold.PLP.part.metal>
0.0000

> <Gold.PLP.part.buried>
-1.6817

> <Gold.PLP.part.nonpolar>
-23.7373

> <Gold.PLP.part.repulsive>
2.6146

> <Gold.PLP.ligand.clash>
0.0000

> <Gold.PLP.ligand.torsion>
0.8111

> <Gold.PLP.Chemscore.Hbond>
3.1045

> <Gold.PLP.Chemscore.CHOScore>
1.0000

> <Gold.PLP.Chemscore.Metal>
0.0000

> <Gold.Chemscore.Hbonds>
donor molecule, donor type, donor heavy atom, donor atom, acceptor molecule, acceptor atom, score
      L1  H    16    33       P1 10171  0.88
      P1  H  7954  7966       L1    16  0.92
      P1  H  7989  7998       L1    10  0.31
      P1  H  8011  8017       L1    10  0.94
      L1  C     6    24       P1  8028  1.00

> <Gold.PLP.Chemscore.Internal.Correction>
0.0560

> <Gold.Rescore>
     Score         DG    S(hbond)    S(metal)    S(lipo)     H(rot)  DE(clash)    DE(int)     intcor
     12.63     -15.88       2.85        0.00      55.51       2.20       2.44       0.80       ----

> <Gold.Chemscore.Fitness>
12.6346

> <Gold.Chemscore.DG>
-15.8831

> <Gold.Chemscore.ZeroCoef>
-5.4800

> <Gold.Chemscore.Hbond>
2.8537

> <Gold.Chemscore.Metal>
0.0000

> <Gold.Chemscore.Lipo>
55.5117

> <Gold.Chemscore.Internal_Hbond>
0.0000

> <Gold.Chemscore.DEClash>
2.4450

> <Gold.Chemscore.DEInternal>
0.8035

> <Gold.Chemscore.Rot>
2.1966

> <Gold.Chemscore.Internal.Correction>
   9.000000E+99

> <Gold.Chemscore.Hbonds>
donor molecule, donor type, donor heavy atom, donor atom, acceptor molecule, acceptor atom, score
      L1  H    16    33       P1 10171  0.84
      P1  H  7954  7966       L1    16  0.71
      P1  H  7989  7998       L1    10  0.29
      P1  H  8011  8017       L1    10  0.87

> <Gold.Chemscore.Hbond.Weighted>
-9.5315

> <Gold.Chemscore.Metal.Weighted>
-0.0000

> <Gold.Chemscore.Lipo.Weighted>
-6.4949

> <Gold.Chemscore.Internal_Hbond.Weighted>
0.0000

> <Gold.Chemscore.DEClash.Weighted>
2.4450

> <Gold.Chemscore.DEInternal.Weighted>
0.8035

> <Gold.Chemscore.Rot.Weighted>
5.6232

> <Gold.Chemscore.Internal.Correction.Weighted>
   9.000000E+99

> <Gold.Protein.RotatedTorsions>
[ 6907 6896 6895 6894 ] final  -47.86 input  -60.11 | X-H torsion
[ 7974 7965 7964 7962 ] final   66.94 input  175.53 | X-H torsion
[ 8008 7997 7996 7995 ] final  -64.32 input   59.86 | X-H torsion
[ 10167 10162 10161 10158 ] final  -89.62 input  -65.29 | X-H torsion
[ 10718 10713 10712 10709 ] final  144.32 input   66.30 | X-H torsion
[ 10763 10752 10751 10750 ] final -151.25 input  -60.55 | X-H torsion
[ 11005 11000 10999 10996 ] final -157.08 input  -57.11 | X-H torsion

> <Gold.Protein.ActiveResidues>
 VAL166  LYS551  ARG553  GLY616  TRP617  ASP618  TYR619  PRO620  LYS621  CYS622 
 ASP623  PHE694  ASN695  SER759  ASP760  ASP761  ALA762  ILE779  LEU786  VAL792 
 PHE793  MET794  SER795  GLU796  ALA797  LYS798  CYS799  TRP800  GLU811  SER814 

> <Gold.Protein.RotatedAtoms>
  150.8965  134.8374  159.7329 H   0  0  0  0  0  0  0  0  0  0  0  0  # atno 6907 bound_to 6896
  152.4868  134.4568  159.9602 H   0  0  0  0  0  0  0  0  0  0  0  0  # atno 6908 bound_to 6896
  151.4625  133.3550  159.2846 H   0  0  0  0  0  0  0  0  0  0  0  0  # atno 6909 bound_to 6896
  145.8206  139.3082  143.1045 H   0  0  0  0  0  0  0  0  0  0  0  0  # atno 7974 bound_to 7965
  154.4605  140.0956  156.6879 H   0  0  0  0  0  0  0  0  0  0  0  0  # atno 8008 bound_to 7997
  155.5009  140.3473  155.4352 H   0  0  0  0  0  0  0  0  0  0  0  0  # atno 8009 bound_to 7997
  156.0860  140.1385  156.9641 H   0  0  0  0  0  0  0  0  0  0  0  0  # atno 8010 bound_to 7997
  140.3630  143.2832  151.9592 H   0  0  0  0  0  0  0  0  0  0  0  0  # atno 10167 bound_to 10162
  157.3585  131.0961  151.0936 H   0  0  0  0  0  0  0  0  0  0  0  0  # atno 10718 bound_to 10713
  154.8069  135.3264  154.7407 H   0  0  0  0  0  0  0  0  0  0  0  0  # atno 10763 bound_to 10752
  153.8064  135.6899  153.4852 H   0  0  0  0  0  0  0  0  0  0  0  0  # atno 10764 bound_to 10752
  153.1821  135.4583  154.9986 H   0  0  0  0  0  0  0  0  0  0  0  0  # atno 10765 bound_to 10752
  140.6685  134.4273  157.5232 H   0  0  0  0  0  0  0  0  0  0  0  0  # atno 11005 bound_to 11000
  145.9679  140.8784  143.0177 LP  0  0  0  0  0  0  0  0  0  0  0  0  # atno 17320 bound_to 7965
  144.6748  140.1904  143.7397 LP  0  0  0  0  0  0  0  0  0  0  0  0  # atno 17321 bound_to 7965
  139.4812  144.5976  151.7663 LP  0  0  0  0  0  0  0  0  0  0  0  0  # atno 17342 bound_to 10162
  140.5109  144.1027  150.5995 LP  0  0  0  0  0  0  0  0  0  0  0  0  # atno 17343 bound_to 10162
  157.2085  130.6427  149.5765 LP  0  0  0  0  0  0  0  0  0  0  0  0  # atno 17370 bound_to 10713
  155.9733  130.4668  150.6301 LP  0  0  0  0  0  0  0  0  0  0  0  0  # atno 17371 bound_to 10713
  139.8989  134.8603  156.1981 LP  0  0  0  0  0  0  0  0  0  0  0  0  # atno 17394 bound_to 11000
  141.0410  133.6938  156.1598 LP  0  0  0  0  0  0  0  0  0  0  0  0  # atno 17395 bound_to 11000

$$$$
