AV-unprocessed.smi:1643|AV-procd|sdf|6576|dock1
  -GOLD-   22720 7263D 1   1.00000     0.00000
 Structure written by MMmdl.
 53 55  0  0  0  0  0  0  0  0  1 V2000
  143.8682  140.6232  159.0709 C   0  0  0  0  0  0  0  0  0  0  0  0
  145.0519  141.5534  158.7943 C   0  0  0  0  0  0  0  0  0  0  0  0
  145.8367  141.7864  159.7140 O   0  0  0  0  0  0  0  0  0  0  0  0
  145.1942  142.0881  157.5578 N   0  0  0  0  0  0  0  0  0  0  0  0
  144.2846  141.7617  156.4537 C   0  0  0  0  0  0  0  0  0  0  0  0
  144.8228  140.5665  155.6500 C   0  0  0  0  0  0  0  0  0  0  0  0
  146.2559  140.7484  155.1066 C   0  0  0  0  0  0  0  0  0  0  0  0
  147.2884  140.7719  156.1523 N   0  0  0  0  0  0  0  0  0  0  0  0
  148.5519  140.1798  155.7062 C   0  0  0  0  0  0  0  0  0  0  0  0
  149.3138  140.9869  154.6346 C   0  0  2  0  0  0  0  0  0  0  0  0
  150.0848  140.0902  153.8584 O   0  0  0  0  0  0  0  0  0  0  0  0
  150.2520  142.0276  155.2739 C   0  0  0  0  0  0  0  0  0  0  0  0
  150.9819  141.4899  156.4076 N   0  0  0  0  0  0  0  0  0  0  0  0
  151.4742  140.2438  156.5461 C   0  0  0  0  0  0  0  0  0  0  0  0
  152.1183  139.9667  157.6765 N   0  0  0  0  0  0  0  0  0  0  0  0
  152.0297  141.1726  158.3514 C   0  0  0  0  0  0  0  0  0  0  0  0
  152.5135  141.5509  159.6229 C   0  0  0  0  0  0  0  0  0  0  0  0
  152.3010  142.8565  160.1204 C   0  0  0  0  0  0  0  0  0  0  0  0
  152.8341  143.2191  161.4955 C   0  0  0  0  0  0  0  0  0  0  0  0
  151.5975  143.8089  159.3398 C   0  0  0  0  0  0  0  0  0  0  0  0
  151.3538  145.2165  159.8547 C   0  0  0  0  0  0  0  0  0  0  0  0
  151.1102  143.4484  158.0662 C   0  0  0  0  0  0  0  0  0  0  0  0
  151.3247  142.1453  157.5844 C   0  0  0  0  0  0  0  0  0  0  0  0
  147.5349  142.1314  156.6568 C   0  0  0  0  0  0  0  0  0  0  0  0
  146.3145  142.9424  157.1482 C   0  0  0  0  0  0  0  0  0  0  0  0
  142.9224  141.1182  158.8516 H   0  0  0  0  0  0  0  0  0  0  0  0
  143.8507  140.3268  160.1201 H   0  0  0  0  0  0  0  0  0  0  0  0
  143.9411  139.7164  158.4704 H   0  0  0  0  0  0  0  0  0  0  0  0
  143.2826  141.5371  156.8226 H   0  0  0  0  0  0  0  0  0  0  0  0
  144.1522  142.6199  155.7942 H   0  0  0  0  0  0  0  0  0  0  0  0
  144.7860  139.6663  156.2654 H   0  0  0  0  0  0  0  0  0  0  0  0
  144.1495  140.3810  154.8129 H   0  0  0  0  0  0  0  0  0  0  0  0
  146.4329  139.9231  154.4194 H   0  0  0  0  0  0  0  0  0  0  0  0
  146.3209  141.6453  154.4887 H   0  0  0  0  0  0  0  0  0  0  0  0
  149.1954  140.0291  156.5744 H   0  0  0  0  0  0  0  0  0  0  0  0
  148.3692  139.1834  155.3005 H   0  0  0  0  0  0  0  0  0  0  0  0
  148.6257  141.5033  153.9666 H   0  0  0  0  0  0  0  0  0  0  0  0
  149.7015  140.0344  152.9965 H   0  0  0  0  0  0  0  0  0  0  0  0
  150.9789  142.3798  154.5408 H   0  0  0  0  0  0  0  0  0  0  0  0
  149.6895  142.9038  155.6004 H   0  0  0  0  0  0  0  0  0  0  0  0
  151.3572  139.4999  155.7713 H   0  0  0  0  0  0  0  0  0  0  0  0
  153.0501  140.8254  160.2167 H   0  0  0  0  0  0  0  0  0  0  0  0
  152.0217  143.5380  162.1487 H   0  0  0  0  0  0  0  0  0  0  0  0
  153.5593  144.0298  161.4220 H   0  0  0  0  0  0  0  0  0  0  0  0
  153.3284  142.3698  161.9677 H   0  0  0  0  0  0  0  0  0  0  0  0
  150.8364  145.8269  159.1136 H   0  0  0  0  0  0  0  0  0  0  0  0
  152.2980  145.7077  160.0913 H   0  0  0  0  0  0  0  0  0  0  0  0
  150.7400  145.1911  160.7554 H   0  0  0  0  0  0  0  0  0  0  0  0
  150.5729  144.1632  157.4604 H   0  0  0  0  0  0  0  0  0  0  0  0
  148.2354  142.0600  157.4896 H   0  0  0  0  0  0  0  0  0  0  0  0
  148.0521  142.7173  155.8956 H   0  0  0  0  0  0  0  0  0  0  0  0
  145.9957  143.6030  156.3416 H   0  0  0  0  0  0  0  0  0  0  0  0
  146.6119  143.6261  157.9438 H   0  0  0  0  0  0  0  0  0  0  0  0
  1  2  1  0  0  0  0
  1 26  1  0  0  0  0
  1 27  1  0  0  0  0
  1 28  1  0  0  0  0
  2  3  2  0  0  0  0
  2  4  1  0  0  0  0
  4 25  1  0  0  0  0
  4  5  1  0  0  0  0
  5  6  1  0  0  0  0
  5 29  1  0  0  0  0
  5 30  1  0  0  0  0
  6  7  1  0  0  0  0
  6 31  1  0  0  0  0
  6 32  1  0  0  0  0
  7  8  1  0  0  0  0
  7 33  1  0  0  0  0
  7 34  1  0  0  0  0
  8  9  1  0  0  0  0
  8 24  1  0  0  0  0
  9 10  1  0  0  0  0
  9 35  1  0  0  0  0
  9 36  1  0  0  0  0
 10 11  1  0  0  0  0
 10 12  1  0  0  0  0
 10 37  1  0  0  0  0
 11 38  1  0  0  0  0
 12 13  1  0  0  0  0
 12 39  1  0  0  0  0
 12 40  1  0  0  0  0
 13 23  1  0  0  0  0
 13 14  1  0  0  0  0
 14 15  2  0  0  0  0
 14 41  1  0  0  0  0
 15 16  1  0  0  0  0
 16 23  2  0  0  0  0
 16 17  1  0  0  0  0
 17 18  2  0  0  0  0
 17 42  1  0  0  0  0
 18 19  1  0  0  0  0
 18 20  1  0  0  0  0
 19 43  1  0  0  0  0
 19 44  1  0  0  0  0
 19 45  1  0  0  0  0
 20 21  1  0  0  0  0
 20 22  2  0  0  0  0
 21 46  1  0  0  0  0
 21 47  1  0  0  0  0
 21 48  1  0  0  0  0
 22 23  1  0  0  0  0
 22 49  1  0  0  0  0
 24 25  1  0  0  0  0
 24 50  1  0  0  0  0
 24 51  1  0  0  0  0
 25 52  1  0  0  0  0
 25 53  1  0  0  0  0
M  END
> <s_m_source_file>
AV-unprocessed.smi

> <i_m_source_file_index>
1643

> <i_lp_mmshare_version>
43012

> <i_f3d_flags>
0

> <s_epik_input>
W0NIM11DKD1PKU4xW0NIMl1bQ0gyXVtDSDJdTihbQ0gyXVtDSDJdMSlbQ0gyXVtDQEhdKFtPSF0pW0NIMl1uKFtjSF1uMiljKGMyMylbY0hdYyhbQ0gzXSljKFtjSF0zKVtDSDNd

> <s_epik_cmdline>
J2VwaWtfcHl0aG9uJywgJy1waCcsICc3LjAnLCAnLXRuJywgJzgnLCAnLW1hJywgJzIwMCcsICctbWV0YWxfYmluZGluZycsICctaW1hZScsICc8aW5maWxlLm1hZT4nLCAnLW9tYWUnLCAnPG91dGZpbGUubWFlPic=

> <r_epik_Ionization_Penalty>
1.17666

> <r_epik_Ionization_Penalty_Charging>
0

> <r_epik_Ionization_Penalty_Neutral>
1.17666

> <r_epik_State_Penalty>
1.20405

> <r_epik_Charging_Adjusted_Penalty>
1.20405

> <i_epik_Tot_Q>
0

> <i_epik_Tot_abs_Q>
0

> <r_epik_Metal_State_Penalty>
1.13307

> <b_epik_Metal_Only>
0

> <s_lp_Force_Field>
OPLS_2005

> <r_lp_Energy>
48.9616

> <b_lp_Chiralities_Consistent>
1

> <s_lp_Variant>
AV-unprocessed.smi:1643-5

> <Gold.Version>
5.8.1

> <Gold.Id.Protein>
6NUR|6NUR_protein|mol2

> <Gold.PLP.Fitness>
47.3847

> <Gold.PLP.PLP>
-40.2893

> <Gold.PLP.part.hbond>
-3.0000

> <Gold.PLP.part.metal>
0.0000

> <Gold.PLP.part.buried>
-4.6818

> <Gold.PLP.part.nonpolar>
-32.0981

> <Gold.PLP.part.repulsive>
0.0264

> <Gold.PLP.ligand.clash>
0.0000

> <Gold.PLP.ligand.torsion>
0.8299

> <Gold.PLP.Chemscore.Hbond>
2.8960

> <Gold.PLP.Chemscore.CHOScore>
0.0000

> <Gold.PLP.Chemscore.Metal>
0.0000

> <Gold.Chemscore.Hbonds>
donor molecule, donor type, donor heavy atom, donor atom, acceptor molecule, acceptor atom, score
      L1  H    11    38       P1  7957  1.00
      P1  H  6934  6946       L1     3  1.00
      P1  H  7989  7998       L1    11  0.85

> <Gold.PLP.Chemscore.Internal.Correction>
0.0672

> <Gold.Rescore>
     Score         DG    S(hbond)    S(metal)    S(lipo)     H(rot)  DE(clash)    DE(int)     intcor
     17.02     -19.37       2.00        0.00     106.80       2.07       0.54       1.81       ----

> <Gold.Chemscore.Fitness>
17.0172

> <Gold.Chemscore.DG>
-19.3655

> <Gold.Chemscore.ZeroCoef>
-5.4800

> <Gold.Chemscore.Hbond>
1.9990

> <Gold.Chemscore.Metal>
0.0000

> <Gold.Chemscore.Lipo>
106.7990

> <Gold.Chemscore.Internal_Hbond>
0.0000

> <Gold.Chemscore.DEClash>
0.5389

> <Gold.Chemscore.DEInternal>
1.8095

> <Gold.Chemscore.Rot>
2.0650

> <Gold.Chemscore.Internal.Correction>
   9.000000E+99

> <Gold.Chemscore.Hbonds>
donor molecule, donor type, donor heavy atom, donor atom, acceptor molecule, acceptor atom, score
      L1  H    11    38       P1  7957  0.99
      P1  H  6934  6946       L1     3  1.00
      P1  H  7989  7998       L1    11  0.14

> <Gold.Chemscore.Hbond.Weighted>
-6.6765

> <Gold.Chemscore.Metal.Weighted>
-0.0000

> <Gold.Chemscore.Lipo.Weighted>
-12.4955

> <Gold.Chemscore.Internal_Hbond.Weighted>
0.0000

> <Gold.Chemscore.DEClash.Weighted>
0.5389

> <Gold.Chemscore.DEInternal.Weighted>
1.8095

> <Gold.Chemscore.Rot.Weighted>
5.2865

> <Gold.Chemscore.Internal.Correction.Weighted>
   9.000000E+99

> <Gold.Protein.RotatedTorsions>
[ 6907 6896 6895 6894 ] final -148.82 input  -60.11 | X-H torsion
[ 7974 7965 7964 7962 ] final   53.35 input  175.53 | X-H torsion
[ 8008 7997 7996 7995 ] final  -95.45 input   59.86 | X-H torsion
[ 10167 10162 10161 10158 ] final  118.65 input  -65.29 | X-H torsion
[ 10718 10713 10712 10709 ] final  -47.38 input   66.30 | X-H torsion
[ 10763 10752 10751 10750 ] final  -64.73 input  -60.55 | X-H torsion
[ 11005 11000 10999 10996 ] final  -38.87 input  -57.11 | X-H torsion

> <Gold.Protein.ActiveResidues>
 VAL166  LYS551  ARG553  GLY616  TRP617  ASP618  TYR619  PRO620  LYS621  CYS622 
 ASP623  PHE694  ASN695  SER759  ASP760  ASP761  ALA762  ILE779  LEU786  VAL792 
 PHE793  MET794  SER795  GLU796  ALA797  LYS798  CYS799  TRP800  GLU811  SER814 

> <Gold.Protein.RotatedAtoms>
  151.1753  133.4758  159.2593 H   0  0  0  0  0  0  0  0  0  0  0  0  # atno 6907 bound_to 6896
  151.1314  135.0132  159.8594 H   0  0  0  0  0  0  0  0  0  0  0  0  # atno 6908 bound_to 6896
  152.5460  134.1656  159.8628 H   0  0  0  0  0  0  0  0  0  0  0  0  # atno 6909 bound_to 6896
  145.9720  139.4158  143.0184 H   0  0  0  0  0  0  0  0  0  0  0  0  # atno 7974 bound_to 7965
  154.7615  140.0480  157.0978 H   0  0  0  0  0  0  0  0  0  0  0  0  # atno 8008 bound_to 7997
  154.9931  140.3115  155.4878 H   0  0  0  0  0  0  0  0  0  0  0  0  # atno 8009 bound_to 7997
  156.2905  140.2215  156.5037 H   0  0  0  0  0  0  0  0  0  0  0  0  # atno 8010 bound_to 7997
  139.6098  144.7079  151.2871 H   0  0  0  0  0  0  0  0  0  0  0  0  # atno 10167 bound_to 10162
  156.2090  130.4160  149.9140 H   0  0  0  0  0  0  0  0  0  0  0  0  # atno 10718 bound_to 10713
  154.3344  135.6170  153.5567 H   0  0  0  0  0  0  0  0  0  0  0  0  # atno 10763 bound_to 10752
  152.9809  135.5754  154.4924 H   0  0  0  0  0  0  0  0  0  0  0  0  # atno 10764 bound_to 10752
  154.4617  135.2856  155.1685 H   0  0  0  0  0  0  0  0  0  0  0  0  # atno 10765 bound_to 10752
  141.0060  133.6931  156.2111 H   0  0  0  0  0  0  0  0  0  0  0  0  # atno 11005 bound_to 11000
  145.7892  140.9822  143.1058 LP  0  0  0  0  0  0  0  0  0  0  0  0  # atno 17320 bound_to 7965
  144.6839  139.9661  143.7481 LP  0  0  0  0  0  0  0  0  0  0  0  0  # atno 17321 bound_to 7965
  140.7311  143.6862  150.7959 LP  0  0  0  0  0  0  0  0  0  0  0  0  # atno 17342 bound_to 10162
  140.0455  143.5303  152.2698 LP  0  0  0  0  0  0  0  0  0  0  0  0  # atno 17343 bound_to 10162
  156.6824  130.8863  151.3577 LP  0  0  0  0  0  0  0  0  0  0  0  0  # atno 17370 bound_to 10713
  157.7028  130.9352  150.0838 LP  0  0  0  0  0  0  0  0  0  0  0  0  # atno 17371 bound_to 10713
  140.6812  134.4765  157.5589 LP  0  0  0  0  0  0  0  0  0  0  0  0  # atno 17394 bound_to 11000
  139.9064  134.8441  156.1692 LP  0  0  0  0  0  0  0  0  0  0  0  0  # atno 17395 bound_to 11000

$$$$
