AV-unprocessed.smi:61|AV-procd|sdf|597|dock4
  -GOLD-   2262016493D 1   1.00000     0.00000
 Structure written by MMmdl.
 28 29  0  0  0  0  0  0  0  0  1 V2000
  152.8299  138.8839  155.3188 N   0  0  0  0  0  0  0  0  0  0  0  0
  151.9420  139.8531  155.7162 C   0  0  0  0  0  0  0  0  0  0  0  0
  150.8686  140.0313  154.9457 N   0  0  0  0  0  0  0  0  0  0  0  0
  149.9965  140.9836  155.3388 C   0  0  0  0  0  0  0  0  0  0  0  0
  150.2074  141.7509  156.5023 C   0  0  0  0  0  0  0  0  0  0  0  0
  151.3809  141.4786  157.2452 C   0  0  0  0  0  0  0  0  0  0  0  0
  151.6725  142.2037  158.4201 N   0  0  0  0  0  0  0  0  0  0  0  0
  151.1196  143.5508  158.5193 C   0  0  0  0  0  0  0  0  0  0  0  0
  152.1771  144.3975  159.2327 C   0  0  0  0  0  0  0  0  0  0  0  0
  153.0207  143.3681  159.9764 C   0  0  0  0  0  0  0  0  0  0  0  0
  153.0003  142.1618  159.0314 C   0  0  1  0  0  0  0  0  0  0  0  0
  153.2948  140.8277  159.7473 C   0  0  0  0  0  0  0  0  0  0  0  0
  153.7116  139.8573  158.8106 O   0  0  0  0  0  0  0  0  0  0  0  0
  152.2437  140.5173  156.8332 N   0  0  0  0  0  0  0  0  0  0  0  0
  153.6621  138.7009  155.8605 H   0  0  0  0  0  0  0  0  0  0  0  0
  152.6757  138.3697  154.4639 H   0  0  0  0  0  0  0  0  0  0  0  0
  149.1231  141.1343  154.7221 H   0  0  0  0  0  0  0  0  0  0  0  0
  149.4958  142.5046  156.8053 H   0  0  0  0  0  0  0  0  0  0  0  0
  150.8746  143.9772  157.5453 H   0  0  0  0  0  0  0  0  0  0  0  0
  150.2035  143.5067  159.1091 H   0  0  0  0  0  0  0  0  0  0  0  0
  152.7950  144.9110  158.4948 H   0  0  0  0  0  0  0  0  0  0  0  0
  151.7437  145.1505  159.8912 H   0  0  0  0  0  0  0  0  0  0  0  0
  154.0297  143.7215  160.1906 H   0  0  0  0  0  0  0  0  0  0  0  0
  152.5417  143.1195  160.9247 H   0  0  0  0  0  0  0  0  0  0  0  0
  153.7389  142.3248  158.2448 H   0  0  0  0  0  0  0  0  0  0  0  0
  154.0694  140.9549  160.5044 H   0  0  0  0  0  0  0  0  0  0  0  0
  152.4122  140.4432  160.2574 H   0  0  0  0  0  0  0  0  0  0  0  0
  153.0394  139.1965  158.7445 H   0  0  0  0  0  0  0  0  0  0  0  0
  1  2  1  0  0  0  0
  1 15  1  0  0  0  0
  1 16  1  0  0  0  0
  2 14  1  0  0  0  0
  2  3  2  0  0  0  0
  3  4  1  0  0  0  0
  4  5  2  0  0  0  0
  4 17  1  0  0  0  0
  5  6  1  0  0  0  0
  5 18  1  0  0  0  0
  6  7  1  0  0  0  0
  6 14  2  0  0  0  0
  7 11  1  0  0  0  0
  7  8  1  0  0  0  0
  8  9  1  0  0  0  0
  8 19  1  0  0  0  0
  8 20  1  0  0  0  0
  9 10  1  0  0  0  0
  9 21  1  0  0  0  0
  9 22  1  0  0  0  0
 10 11  1  0  0  0  0
 10 23  1  0  0  0  0
 10 24  1  0  0  0  0
 11 12  1  0  0  0  0
 11 25  1  0  0  0  0
 12 13  1  0  0  0  0
 12 26  1  0  0  0  0
 12 27  1  0  0  0  0
 13 28  1  0  0  0  0
M  END
> <s_m_source_file>
AV-unprocessed.smi

> <i_m_source_file_index>
61

> <i_lp_mmshare_version>
43012

> <i_f3d_flags>
0

> <s_epik_input>
W05IMl1jMW5bY0hdW2NIXWMobjEpTjJbQ0gyXVtDSDJdW0NIMl1bQ0BIXTJbQ0gyXVtPSF0=

> <s_epik_cmdline>
J2VwaWtfcHl0aG9uJywgJy1waCcsICc3LjAnLCAnLXRuJywgJzgnLCAnLW1hJywgJzIwMCcsICctbWV0YWxfYmluZGluZycsICctaW1hZScsICc8aW5maWxlLm1hZT4nLCAnLW9tYWUnLCAnPG91dGZpbGUubWFlPic=

> <r_lp_tautomer_probability>
1

> <r_epik_Ionization_Penalty>
0.76024

> <r_epik_Ionization_Penalty_Charging>
0

> <r_epik_Ionization_Penalty_Neutral>
0.76024

> <r_epik_State_Penalty>
0.587668

> <r_epik_Charging_Adjusted_Penalty>
0.587668

> <i_epik_Tot_Q>
0

> <i_epik_Tot_abs_Q>
0

> <r_epik_Metal_State_Penalty>
0.307814

> <b_epik_Metal_Only>
0

> <s_lp_Force_Field>
OPLS_2005

> <r_lp_Energy>
20.8196

> <b_lp_Chiralities_Consistent>
1

> <s_lp_Variant>
AV-unprocessed.smi:61-3

> <Gold.Version>
5.8.1

> <Gold.Id.Protein>
6NUR|6NUR_protein|mol2

> <Gold.PLP.Fitness>
34.1193

> <Gold.PLP.PLP>
-29.2312

> <Gold.PLP.part.hbond>
-2.7874

> <Gold.PLP.part.metal>
0.0000

> <Gold.PLP.part.buried>
-2.7831

> <Gold.PLP.part.nonpolar>
-24.0486

> <Gold.PLP.part.repulsive>
0.2952

> <Gold.PLP.ligand.clash>
0.0000

> <Gold.PLP.ligand.torsion>
0.7336

> <Gold.PLP.Chemscore.Hbond>
2.0000

> <Gold.PLP.Chemscore.CHOScore>
0.0000

> <Gold.PLP.Chemscore.Metal>
0.0000

> <Gold.Chemscore.Hbonds>
donor molecule, donor type, donor heavy atom, donor atom, acceptor molecule, acceptor atom, score
      P1  H  7989  7998       L1     3  1.00
      P1  H  7997  8008       L1    13  1.00

> <Gold.PLP.Chemscore.Internal.Correction>
0.3552

> <Gold.Rescore>
     Score         DG    S(hbond)    S(metal)    S(lipo)     H(rot)  DE(clash)    DE(int)     intcor
      9.44     -11.88       0.98        0.00      69.56       1.96       0.13       2.31       ----

> <Gold.Chemscore.Fitness>
9.4372

> <Gold.Chemscore.DG>
-11.8795

> <Gold.Chemscore.ZeroCoef>
-5.4800

> <Gold.Chemscore.Hbond>
0.9788

> <Gold.Chemscore.Metal>
0.0000

> <Gold.Chemscore.Lipo>
69.5552

> <Gold.Chemscore.Internal_Hbond>
0.0000

> <Gold.Chemscore.DEClash>
0.1303

> <Gold.Chemscore.DEInternal>
2.3120

> <Gold.Chemscore.Rot>
1.9561

> <Gold.Chemscore.Internal.Correction>
   9.000000E+99

> <Gold.Chemscore.Hbonds>
donor molecule, donor type, donor heavy atom, donor atom, acceptor molecule, acceptor atom, score
      P1  H  7989  7998       L1     3  0.07
      P1  H  7997  8008       L1    13  0.88

> <Gold.Chemscore.Hbond.Weighted>
-3.2692

> <Gold.Chemscore.Metal.Weighted>
-0.0000

> <Gold.Chemscore.Lipo.Weighted>
-8.1380

> <Gold.Chemscore.Internal_Hbond.Weighted>
0.0000

> <Gold.Chemscore.DEClash.Weighted>
0.1303

> <Gold.Chemscore.DEInternal.Weighted>
2.3120

> <Gold.Chemscore.Rot.Weighted>
5.0077

> <Gold.Chemscore.Internal.Correction.Weighted>
   9.000000E+99

> <Gold.Protein.RotatedTorsions>
[ 6907 6896 6895 6894 ] final -136.21 input  -60.11 | X-H torsion
[ 7974 7965 7964 7962 ] final  -58.36 input  175.53 | X-H torsion
[ 8008 7997 7996 7995 ] final -105.67 input   59.86 | X-H torsion
[ 10167 10162 10161 10158 ] final -148.49 input  -65.29 | X-H torsion
[ 10718 10713 10712 10709 ] final  -21.78 input   66.30 | X-H torsion
[ 10763 10752 10751 10750 ] final  -42.86 input  -60.55 | X-H torsion
[ 11005 11000 10999 10996 ] final -160.45 input  -57.11 | X-H torsion

> <Gold.Protein.ActiveResidues>
 VAL166  LYS551  ARG553  GLY616  TRP617  ASP618  TYR619  PRO620  LYS621  CYS622 
 ASP623  PHE694  ASN695  SER759  ASP760  ASP761  ALA762  ILE779  LEU786  VAL792 
 PHE793  MET794  SER795  GLU796  ALA797  LYS798  CYS799  TRP800  GLU811  SER814 

> <Gold.Protein.RotatedAtoms>
  151.0073  133.5999  159.2686 H   0  0  0  0  0  0  0  0  0  0  0  0  # atno 6907 bound_to 6896
  151.3163  135.0806  159.9300 H   0  0  0  0  0  0  0  0  0  0  0  0  # atno 6908 bound_to 6896
  152.5290  133.9728  159.7824 H   0  0  0  0  0  0  0  0  0  0  0  0  # atno 6909 bound_to 6896
  145.8402  140.8422  143.0038 H   0  0  0  0  0  0  0  0  0  0  0  0  # atno 7974 bound_to 7965
  154.9032  140.0412  157.1905 H   0  0  0  0  0  0  0  0  0  0  0  0  # atno 8008 bound_to 7997
  154.8422  140.2916  155.5630 H   0  0  0  0  0  0  0  0  0  0  0  0  # atno 8009 bound_to 7997
  156.2992  140.2480  156.3367 H   0  0  0  0  0  0  0  0  0  0  0  0  # atno 8010 bound_to 7997
  139.7527  143.8494  152.2590 H   0  0  0  0  0  0  0  0  0  0  0  0  # atno 10167 bound_to 10162
  156.5135  130.4615  149.6635 H   0  0  0  0  0  0  0  0  0  0  0  0  # atno 10718 bound_to 10713
  153.9861  135.6711  153.4752 H   0  0  0  0  0  0  0  0  0  0  0  0  # atno 10763 bound_to 10752
  153.0726  135.4966  154.8334 H   0  0  0  0  0  0  0  0  0  0  0  0  # atno 10764 bound_to 10752
  154.7136  135.3102  154.9120 H   0  0  0  0  0  0  0  0  0  0  0  0  # atno 10765 bound_to 10752
  140.6314  134.4647  157.5229 H   0  0  0  0  0  0  0  0  0  0  0  0  # atno 11005 bound_to 11000
  144.6734  140.0801  143.7469 LP  0  0  0  0  0  0  0  0  0  0  0  0  # atno 17320 bound_to 7965
  145.9473  139.2709  143.1233 LP  0  0  0  0  0  0  0  0  0  0  0  0  # atno 17321 bound_to 7965
  139.8477  144.7179  150.9252 LP  0  0  0  0  0  0  0  0  0  0  0  0  # atno 17342 bound_to 10162
  140.7799  143.3926  151.1283 LP  0  0  0  0  0  0  0  0  0  0  0  0  # atno 17343 bound_to 10162
  156.3218  130.7284  151.2197 LP  0  0  0  0  0  0  0  0  0  0  0  0  # atno 17370 bound_to 10713
  157.7447  131.0454  150.4839 LP  0  0  0  0  0  0  0  0  0  0  0  0  # atno 17371 bound_to 10713
  139.9115  134.8336  156.1514 LP  0  0  0  0  0  0  0  0  0  0  0  0  # atno 17394 bound_to 11000
  141.0672  133.6813  156.2069 LP  0  0  0  0  0  0  0  0  0  0  0  0  # atno 17395 bound_to 11000

$$$$
