AV-unprocessed.smi:1509|AV-procd|sdf|6093|dock9
  -GOLD-   22720 6223D 1   1.00000     0.00000
 Structure written by MMmdl.
 42 43  0  0  0  0  0  0  0  0  2 V2000
  146.6767  131.9010  151.9796 C   0  0  0  0  0  0  0  0  0  0  0  0
  146.5452  133.3856  151.6118 C   0  0  1  0  0  0  0  0  0  0  0  0
  145.2917  133.6436  150.7591 C   0  0  0  0  0  0  0  0  0  0  0  0
  145.1683  135.1372  150.4325 C   0  0  0  0  0  0  0  0  0  0  0  0
  145.1862  135.9842  151.7149 C   0  0  0  0  0  0  0  0  0  0  0  0
  146.4110  135.7188  152.5127 N   0  3  1  0  0  0  0  0  0  0  0  0
  146.5253  136.6202  153.6871 C   0  0  0  0  0  0  0  0  0  0  0  0
  146.1628  138.0750  153.3438 C   0  0  0  0  0  0  0  0  0  0  0  0
  147.0448  138.6455  152.2209 C   0  0  0  0  0  0  0  0  0  0  0  0
  148.1408  139.4468  152.7525 N   0  0  0  0  0  0  0  0  0  0  0  0
  148.9182  139.0958  153.7899 C   0  0  0  0  0  0  0  0  0  0  0  0
  148.7646  138.0529  154.4250 O   0  0  0  0  0  0  0  0  0  0  0  0
  150.0297  140.0718  154.1837 C   0  0  0  0  0  0  0  0  0  0  0  0
  151.3215  139.4137  154.2576 N   0  0  0  0  0  0  0  0  0  0  0  0
  151.7444  138.2539  153.7503 C   0  0  0  0  0  0  0  0  0  0  0  0
  153.0089  138.0157  154.0626 N   0  0  0  0  0  0  0  0  0  0  0  0
  153.3623  139.1256  154.8123 N   0  0  0  0  0  0  0  0  0  0  0  0
  152.3653  139.9590  154.9309 N   0  0  0  0  0  0  0  0  0  0  0  0
  146.5294  134.2790  152.8687 C   0  0  0  0  0  0  0  0  0  0  0  0
  145.8311  131.5643  152.5804 H   0  0  0  0  0  0  0  0  0  0  0  0
  147.5858  131.7165  152.5526 H   0  0  0  0  0  0  0  0  0  0  0  0
  146.7190  131.2773  151.0863 H   0  0  0  0  0  0  0  0  0  0  0  0
  147.4198  133.6551  151.0177 H   0  0  0  0  0  0  0  0  0  0  0  0
  145.3352  133.0642  149.8362 H   0  0  0  0  0  0  0  0  0  0  0  0
  144.4013  133.3110  151.2946 H   0  0  0  0  0  0  0  0  0  0  0  0
  145.9899  135.4397  149.7817 H   0  0  0  0  0  0  0  0  0  0  0  0
  144.2488  135.3222  149.8762 H   0  0  0  0  0  0  0  0  0  0  0  0
  145.1429  137.0398  151.4435 H   0  0  0  0  0  0  0  0  0  0  0  0
  144.3024  135.7747  152.3198 H   0  0  0  0  0  0  0  0  0  0  0  0
  145.8422  136.2825  154.4679 H   0  0  0  0  0  0  0  0  0  0  0  0
  147.5293  136.5569  154.1097 H   0  0  0  0  0  0  0  0  0  0  0  0
  145.1183  138.1468  153.0416 H   0  0  0  0  0  0  0  0  0  0  0  0
  146.2679  138.6890  154.2394 H   0  0  0  0  0  0  0  0  0  0  0  0
  147.4397  137.8424  151.5958 H   0  0  0  0  0  0  0  0  0  0  0  0
  146.4479  139.2812  151.5666 H   0  0  0  0  0  0  0  0  0  0  0  0
  148.3342  140.3221  152.2872 H   0  0  0  0  0  0  0  0  0  0  0  0
  150.0845  140.8796  153.4530 H   0  0  0  0  0  0  0  0  0  0  0  0
  149.8077  140.5261  155.1507 H   0  0  0  0  0  0  0  0  0  0  0  0
  151.1301  137.5882  153.1619 H   0  0  0  0  0  0  0  0  0  0  0  0
  145.7003  133.9978  153.5204 H   0  0  0  0  0  0  0  0  0  0  0  0
  147.4441  134.1093  153.4358 H   0  0  0  0  0  0  0  0  0  0  0  0
  147.1896  135.9385  151.9075 H   0  0  0  0  0  0  0  0  0  0  0  0
  1  2  1  0  0  0  0
  1 20  1  0  0  0  0
  1 21  1  0  0  0  0
  1 22  1  0  0  0  0
  2 19  1  0  0  0  0
  2  3  1  0  0  0  0
  2 23  1  0  0  0  0
  3  4  1  0  0  0  0
  3 24  1  0  0  0  0
  3 25  1  0  0  0  0
  4  5  1  0  0  0  0
  4 26  1  0  0  0  0
  4 27  1  0  0  0  0
  5  6  1  0  0  0  0
  5 28  1  0  0  0  0
  5 29  1  0  0  0  0
  6  7  1  0  0  0  0
  6 19  1  0  0  0  0
  6 42  1  0  0  0  0
  7  8  1  0  0  0  0
  7 30  1  0  0  0  0
  7 31  1  0  0  0  0
  8  9  1  0  0  0  0
  8 32  1  0  0  0  0
  8 33  1  0  0  0  0
  9 10  1  0  0  0  0
  9 34  1  0  0  0  0
  9 35  1  0  0  0  0
 10 11  1  0  0  0  0
 10 36  1  0  0  0  0
 11 12  2  0  0  0  0
 11 13  1  0  0  0  0
 13 14  1  0  0  0  0
 13 37  1  0  0  0  0
 13 38  1  0  0  0  0
 14 18  1  0  0  0  0
 14 15  1  0  0  0  0
 15 16  2  0  0  0  0
 15 39  1  0  0  0  0
 16 17  1  0  0  0  0
 17 18  2  0  0  0  0
 19 40  1  0  0  0  0
 19 41  1  0  0  0  0
M  CHG  1   6   1
M  END
> <s_m_source_file>
AV-unprocessed.smi

> <i_m_source_file_index>
1509

> <i_lp_mmshare_version>
43012

> <i_f3d_flags>
0

> <s_epik_input>
W0NIM11bQ0BASF0xW0NIMl1bQ0gyXVtDSDJdTihbQ0gyXTEpW0NIMl1bQ0gyXVtDSDJdW05IXUMoPU8pW0NIMl1uMltjSF1ubm4y

> <s_epik_cmdline>
J2VwaWtfcHl0aG9uJywgJy1waCcsICc3LjAnLCAnLXRuJywgJzgnLCAnLW1hJywgJzIwMCcsICctbWV0YWxfYmluZGluZycsICctaW1hZScsICc8aW5maWxlLm1hZT4nLCAnLW9tYWUnLCAnPG91dGZpbGUubWFlPic=

> <r_lp_tautomer_probability>
1

> <r_epik_Ionization_Penalty>
0.00044216

> <r_epik_Ionization_Penalty_Charging>
0.000440775

> <r_epik_Ionization_Penalty_Neutral>
1.38512e-06

> <r_epik_State_Penalty>
0.000271914

> <r_epik_Charging_Adjusted_Penalty>
0.000712689

> <i_epik_Tot_Q>
1

> <i_epik_Tot_abs_Q>
1

> <r_epik_Metal_State_Penalty>
-0

> <b_epik_Metal_Only>
0

> <s_lp_Force_Field>
OPLS_2005

> <r_lp_Energy>
20.7135

> <b_lp_Chiralities_Consistent>
1

> <s_lp_Variant>
AV-unprocessed.smi:1509-4

> <Gold.Version>
5.8.1

> <Gold.Id.Protein>
6NUR|6NUR_protein|mol2

> <Gold.PLP.Fitness>
45.8282

> <Gold.PLP.PLP>
-33.4152

> <Gold.PLP.part.hbond>
-5.0000

> <Gold.PLP.part.metal>
0.0000

> <Gold.PLP.part.buried>
-3.1510

> <Gold.PLP.part.nonpolar>
-25.3622

> <Gold.PLP.part.repulsive>
0.2956

> <Gold.PLP.ligand.clash>
0.0000

> <Gold.PLP.ligand.torsion>
0.7646

> <Gold.PLP.Chemscore.Hbond>
3.5300

> <Gold.PLP.Chemscore.CHOScore>
1.1028

> <Gold.PLP.Chemscore.Metal>
0.0000

> <Gold.Chemscore.Hbonds>
donor molecule, donor type, donor heavy atom, donor atom, acceptor molecule, acceptor atom, score
      L1  H     6    42       P1  7948  1.82
      L1  H    10    36       P1  7957  0.16
      P1  H  7997  8010       L1    17  0.70
      P1  H 10752 10765       L1    16  0.10
      L1  C    15    39       P1  7948  0.02
      L1  C    15    39       P1  7949  1.00

> <Gold.PLP.Chemscore.Internal.Correction>
0.0438

> <Gold.Rescore>
     Score         DG    S(hbond)    S(metal)    S(lipo)     H(rot)  DE(clash)    DE(int)     intcor
      6.71     -11.41       2.15        0.00      54.16       2.97       0.01       4.69       ----

> <Gold.Chemscore.Fitness>
6.7143

> <Gold.Chemscore.DG>
-11.4149

> <Gold.Chemscore.ZeroCoef>
-5.4800

> <Gold.Chemscore.Hbond>
2.1546

> <Gold.Chemscore.Metal>
0.0000

> <Gold.Chemscore.Lipo>
54.1572

> <Gold.Chemscore.Internal_Hbond>
0.0000

> <Gold.Chemscore.DEClash>
0.0115

> <Gold.Chemscore.DEInternal>
4.6890

> <Gold.Chemscore.Rot>
2.9680

> <Gold.Chemscore.Internal.Correction>
   9.000000E+99

> <Gold.Chemscore.Hbonds>
donor molecule, donor type, donor heavy atom, donor atom, acceptor molecule, acceptor atom, score
      L1  H     6    42       P1  7948  0.90
      L1  H    10    36       P1  7957  0.17
      P1  H  7997  8010       L1    17  0.07
      P1  H 10752 10765       L1    16  0.03

> <Gold.Chemscore.Hbond.Weighted>
-7.1965

> <Gold.Chemscore.Metal.Weighted>
-0.0000

> <Gold.Chemscore.Lipo.Weighted>
-6.3364

> <Gold.Chemscore.Internal_Hbond.Weighted>
0.0000

> <Gold.Chemscore.DEClash.Weighted>
0.0115

> <Gold.Chemscore.DEInternal.Weighted>
4.6890

> <Gold.Chemscore.Rot.Weighted>
7.5980

> <Gold.Chemscore.Internal.Correction.Weighted>
   9.000000E+99

> <Gold.Protein.RotatedTorsions>
[ 6907 6896 6895 6894 ] final   -1.25 input  -60.11 | X-H torsion
[ 7974 7965 7964 7962 ] final   69.11 input  175.53 | X-H torsion
[ 8008 7997 7996 7995 ] final  112.68 input   59.86 | X-H torsion
[ 10167 10162 10161 10158 ] final -164.72 input  -65.29 | X-H torsion
[ 10718 10713 10712 10709 ] final  -29.57 input   66.30 | X-H torsion
[ 10763 10752 10751 10750 ] final  158.69 input  -60.55 | X-H torsion
[ 11005 11000 10999 10996 ] final  106.00 input  -57.11 | X-H torsion

> <Gold.Protein.ActiveResidues>
 VAL166  LYS551  ARG553  GLY616  TRP617  ASP618  TYR619  PRO620  LYS621  CYS622 
 ASP623  PHE694  ASN695  SER759  ASP760  ASP761  ALA762  ILE779  LEU786  VAL792 
 PHE793  MET794  SER795  GLU796  ALA797  LYS798  CYS799  TRP800  GLU811  SER814 

> <Gold.Protein.RotatedAtoms>
  151.5491  135.1067  159.9945 H   0  0  0  0  0  0  0  0  0  0  0  0  # atno 6907 bound_to 6896
  152.4500  133.7606  159.6755 H   0  0  0  0  0  0  0  0  0  0  0  0  # atno 6908 bound_to 6896
  150.8425  133.7846  159.3079 H   0  0  0  0  0  0  0  0  0  0  0  0  # atno 6909 bound_to 6896
  145.7944  139.2950  143.1191 H   0  0  0  0  0  0  0  0  0  0  0  0  # atno 7974 bound_to 7965
  156.2208  140.2995  155.9948 H   0  0  0  0  0  0  0  0  0  0  0  0  # atno 8008 bound_to 7997
  155.2486  140.0425  157.3001 H   0  0  0  0  0  0  0  0  0  0  0  0  # atno 8009 bound_to 7997
  154.5838  140.2382  155.8024 H   0  0  0  0  0  0  0  0  0  0  0  0  # atno 8010 bound_to 7997
  139.6231  144.0585  152.1950 H   0  0  0  0  0  0  0  0  0  0  0  0  # atno 10167 bound_to 10162
  156.4108  130.4407  149.7254 H   0  0  0  0  0  0  0  0  0  0  0  0  # atno 10718 bound_to 10713
  154.2200  135.2782  155.2928 H   0  0  0  0  0  0  0  0  0  0  0  0  # atno 10763 bound_to 10752
  154.5709  135.5618  153.7098 H   0  0  0  0  0  0  0  0  0  0  0  0  # atno 10764 bound_to 10752
  153.0044  135.6321  154.2340 H   0  0  0  0  0  0  0  0  0  0  0  0  # atno 10765 bound_to 10752
  139.8809  134.9355  156.5600 H   0  0  0  0  0  0  0  0  0  0  0  0  # atno 11005 bound_to 11000
  145.9943  140.8575  143.0050 LP  0  0  0  0  0  0  0  0  0  0  0  0  # atno 17320 bound_to 7965
  144.6777  140.2261  143.7361 LP  0  0  0  0  0  0  0  0  0  0  0  0  # atno 17321 bound_to 7965
  140.0232  144.6137  150.7549 LP  0  0  0  0  0  0  0  0  0  0  0  0  # atno 17342 bound_to 10162
  140.7394  143.2791  151.3652 LP  0  0  0  0  0  0  0  0  0  0  0  0  # atno 17343 bound_to 10162
  156.4233  130.7779  151.2797 LP  0  0  0  0  0  0  0  0  0  0  0  0  # atno 17370 bound_to 10713
  157.7507  131.0176  150.3592 LP  0  0  0  0  0  0  0  0  0  0  0  0  # atno 17371 bound_to 10713
  140.8176  133.8379  155.8866 LP  0  0  0  0  0  0  0  0  0  0  0  0  # atno 17394 bound_to 11000
  140.9448  134.1854  157.4771 LP  0  0  0  0  0  0  0  0  0  0  0  0  # atno 17395 bound_to 11000

$$$$
