AV-unprocessed.smi:1207|AV-procd|sdf|5049|dock5
  -GOLD-   22720 4 73D 1   1.00000     0.00000
 Structure written by MMmdl.
 51 53  0  0  0  0  0  0  0  0  1 V2000
  152.5576  142.8637  161.9279 C   0  0  0  0  0  0  0  0  0  0  0  0
  152.1150  142.5468  160.5102 C   0  0  0  0  0  0  0  0  0  0  0  0
  152.5009  141.3184  159.9282 C   0  0  0  0  0  0  0  0  0  0  0  0
  152.1105  140.9858  158.6124 C   0  0  0  0  0  0  0  0  0  0  0  0
  152.3734  139.8567  157.8557 N   0  0  0  0  0  0  0  0  0  0  0  0
  151.7399  140.1412  156.7217 C   0  0  0  0  0  0  0  0  0  0  0  0
  151.0960  141.3221  156.6539 N   0  0  0  0  0  0  0  0  0  0  0  0
  150.3425  141.8403  155.5256 C   0  0  0  0  0  0  0  0  0  0  0  0
  149.3865  140.7936  154.9228 C   0  0  2  0  0  0  0  0  0  0  0  0
  150.1203  139.9162  154.0909 O   0  0  0  0  0  0  0  0  0  0  0  0
  148.2824  141.4579  154.0742 C   0  0  0  0  0  0  0  0  0  0  0  0
  147.0652  141.8318  154.7990 N   0  0  0  0  0  0  0  0  0  0  0  0
  146.2451  140.6475  155.0399 C   0  0  0  0  0  0  0  0  0  0  0  0
  146.2932  142.8677  154.1051 C   0  0  0  0  0  0  0  0  0  0  0  0
  145.2708  143.5308  154.9931 C   0  0  0  0  0  0  0  0  0  0  0  0
  144.2942  144.5032  154.6349 C   0  0  0  0  0  0  0  0  0  0  0  0
  144.0314  145.1076  153.2857 C   0  0  0  0  0  0  0  0  0  0  0  0
  143.5614  144.8730  155.6721 N   0  0  0  0  0  0  0  0  0  0  0  0
  144.0440  144.1425  156.7624 O   0  0  0  0  0  0  0  0  0  0  0  0
  145.0617  143.3535  156.3332 C   0  0  0  0  0  0  0  0  0  0  0  0
  145.7184  142.4871  157.3544 C   0  0  0  0  0  0  0  0  0  0  0  0
  151.3148  141.9222  157.8896 C   0  0  0  0  0  0  0  0  0  0  0  0
  150.9255  143.1480  158.4577 C   0  0  0  0  0  0  0  0  0  0  0  0
  151.3263  143.4658  159.7724 C   0  0  0  0  0  0  0  0  0  0  0  0
  150.9036  144.7939  160.3747 C   0  0  0  0  0  0  0  0  0  0  0  0
  153.1316  142.0431  162.3589 H   0  0  0  0  0  0  0  0  0  0  0  0
  151.6931  143.0388  162.5686 H   0  0  0  0  0  0  0  0  0  0  0  0
  153.1855  143.7548  161.9412 H   0  0  0  0  0  0  0  0  0  0  0  0
  153.1029  140.6189  160.4892 H   0  0  0  0  0  0  0  0  0  0  0  0
  151.7438  139.4517  155.8901 H   0  0  0  0  0  0  0  0  0  0  0  0
  149.7785  142.7095  155.8664 H   0  0  0  0  0  0  0  0  0  0  0  0
  151.0434  142.2017  154.7717 H   0  0  0  0  0  0  0  0  0  0  0  0
  148.9592  140.2139  155.7393 H   0  0  0  0  0  0  0  0  0  0  0  0
  150.1099  140.2633  153.2119 H   0  0  0  0  0  0  0  0  0  0  0  0
  148.6885  142.3424  153.5811 H   0  0  0  0  0  0  0  0  0  0  0  0
  148.0255  140.7662  153.2702 H   0  0  0  0  0  0  0  0  0  0  0  0
  145.3676  140.8870  155.6406 H   0  0  0  0  0  0  0  0  0  0  0  0
  146.8093  139.8900  155.5846 H   0  0  0  0  0  0  0  0  0  0  0  0
  145.9050  140.2068  154.1018 H   0  0  0  0  0  0  0  0  0  0  0  0
  146.9598  143.6381  153.7236 H   0  0  0  0  0  0  0  0  0  0  0  0
  145.8218  142.4365  153.2210 H   0  0  0  0  0  0  0  0  0  0  0  0
  144.8527  145.7577  152.9844 H   0  0  0  0  0  0  0  0  0  0  0  0
  143.1174  145.7022  153.2794 H   0  0  0  0  0  0  0  0  0  0  0  0
  143.9256  144.3328  152.5265 H   0  0  0  0  0  0  0  0  0  0  0  0
  146.8031  142.5243  157.2523 H   0  0  0  0  0  0  0  0  0  0  0  0
  145.4049  141.4497  157.2360 H   0  0  0  0  0  0  0  0  0  0  0  0
  145.4631  142.8056  158.3653 H   0  0  0  0  0  0  0  0  0  0  0  0
  150.3269  143.8394  157.8830 H   0  0  0  0  0  0  0  0  0  0  0  0
  150.3275  145.3872  159.6641 H   0  0  0  0  0  0  0  0  0  0  0  0
  151.7771  145.3773  160.6657 H   0  0  0  0  0  0  0  0  0  0  0  0
  150.2839  144.6326  161.2570 H   0  0  0  0  0  0  0  0  0  0  0  0
  1  2  1  0  0  0  0
  1 26  1  0  0  0  0
  1 27  1  0  0  0  0
  1 28  1  0  0  0  0
  2 24  1  0  0  0  0
  2  3  2  0  0  0  0
  3  4  1  0  0  0  0
  3 29  1  0  0  0  0
  4 22  2  0  0  0  0
  4  5  1  0  0  0  0
  5  6  2  0  0  0  0
  6  7  1  0  0  0  0
  6 30  1  0  0  0  0
  7  8  1  0  0  0  0
  7 22  1  0  0  0  0
  8  9  1  0  0  0  0
  8 31  1  0  0  0  0
  8 32  1  0  0  0  0
  9 10  1  0  0  0  0
  9 11  1  0  0  0  0
  9 33  1  0  0  0  0
 10 34  1  0  0  0  0
 11 12  1  0  0  0  0
 11 35  1  0  0  0  0
 11 36  1  0  0  0  0
 12 13  1  0  0  0  0
 12 14  1  0  0  0  0
 13 37  1  0  0  0  0
 13 38  1  0  0  0  0
 13 39  1  0  0  0  0
 14 15  1  0  0  0  0
 14 40  1  0  0  0  0
 14 41  1  0  0  0  0
 15 20  2  0  0  0  0
 15 16  1  0  0  0  0
 16 17  1  0  0  0  0
 16 18  2  0  0  0  0
 17 42  1  0  0  0  0
 17 43  1  0  0  0  0
 17 44  1  0  0  0  0
 18 19  1  0  0  0  0
 19 20  1  0  0  0  0
 20 21  1  0  0  0  0
 21 45  1  0  0  0  0
 21 46  1  0  0  0  0
 21 47  1  0  0  0  0
 22 23  1  0  0  0  0
 23 24  2  0  0  0  0
 23 48  1  0  0  0  0
 24 25  1  0  0  0  0
 25 49  1  0  0  0  0
 25 50  1  0  0  0  0
 25 51  1  0  0  0  0
M  END
> <s_m_source_file>
AV-unprocessed.smi

> <i_m_source_file_index>
1207

> <i_lp_mmshare_version>
43012

> <i_f3d_flags>
0

> <s_epik_input>
W0NIM11jKFtjSF0xKWMoW0NIM10pW2NIXWMoYzEyKW4oW2NIXW4yKVtDSDJdW0NASF0oW09IXSlbQ0gyXU4oW0NIM10pW0NIMl1jM2MoW0NIM10pbm9jM1tDSDNd

> <s_epik_cmdline>
J2VwaWtfcHl0aG9uJywgJy1waCcsICc3LjAnLCAnLXRuJywgJzgnLCAnLW1hJywgJzIwMCcsICctbWV0YWxfYmluZGluZycsICctaW1hZScsICc8aW5maWxlLm1hZT4nLCAnLW9tYWUnLCAnPG91dGZpbGUubWFlPic=

> <r_epik_Ionization_Penalty>
0.374039

> <r_epik_Ionization_Penalty_Charging>
0

> <r_epik_Ionization_Penalty_Neutral>
0.374039

> <r_epik_State_Penalty>
0.350767

> <r_epik_Charging_Adjusted_Penalty>
0.350767

> <i_epik_Tot_Q>
0

> <i_epik_Tot_abs_Q>
0

> <r_epik_Metal_State_Penalty>
0.343187

> <b_epik_Metal_Only>
0

> <s_lp_Force_Field>
OPLS_2005

> <r_lp_Energy>
17.2157

> <b_lp_Chiralities_Consistent>
1

> <s_lp_Variant>
AV-unprocessed.smi:1207-1

> <Gold.Version>
5.8.1

> <Gold.Id.Protein>
6NUR|6NUR_protein|mol2

> <Gold.PLP.Fitness>
55.2675

> <Gold.PLP.PLP>
-50.9366

> <Gold.PLP.part.hbond>
-3.0000

> <Gold.PLP.part.metal>
0.0000

> <Gold.PLP.part.buried>
-7.7053

> <Gold.PLP.part.nonpolar>
-40.5704

> <Gold.PLP.part.repulsive>
0.2241

> <Gold.PLP.ligand.clash>
0.0000

> <Gold.PLP.ligand.torsion>
1.0029

> <Gold.PLP.Chemscore.Hbond>
2.0000

> <Gold.PLP.Chemscore.CHOScore>
0.0000

> <Gold.PLP.Chemscore.Metal>
0.0000

> <Gold.Chemscore.Hbonds>
donor molecule, donor type, donor heavy atom, donor atom, acceptor molecule, acceptor atom, score
      L1  H    10    34       P1  7957  0.78
      P1  H  7997  8010       L1     5  0.17

> <Gold.PLP.Chemscore.Internal.Correction>
0.3366

> <Gold.Rescore>
     Score         DG    S(hbond)    S(metal)    S(lipo)     H(rot)  DE(clash)    DE(int)     intcor
     15.31     -17.63       1.07        0.00     125.31       2.38       0.20       2.12       ----

> <Gold.Chemscore.Fitness>
15.3104

> <Gold.Chemscore.DG>
-17.6254

> <Gold.Chemscore.ZeroCoef>
-5.4800

> <Gold.Chemscore.Hbond>
1.0674

> <Gold.Chemscore.Metal>
0.0000

> <Gold.Chemscore.Lipo>
125.3136

> <Gold.Chemscore.Internal_Hbond>
0.0000

> <Gold.Chemscore.DEClash>
0.1960

> <Gold.Chemscore.DEInternal>
2.1190

> <Gold.Chemscore.Rot>
2.3756

> <Gold.Chemscore.Internal.Correction>
   9.000000E+99

> <Gold.Chemscore.Hbonds>
donor molecule, donor type, donor heavy atom, donor atom, acceptor molecule, acceptor atom, score
      L1  H    10    34       P1  7957  0.72
      P1  H  7997  8010       L1     5  0.01

> <Gold.Chemscore.Hbond.Weighted>
-3.5653

> <Gold.Chemscore.Metal.Weighted>
-0.0000

> <Gold.Chemscore.Lipo.Weighted>
-14.6617

> <Gold.Chemscore.Internal_Hbond.Weighted>
0.0000

> <Gold.Chemscore.DEClash.Weighted>
0.1960

> <Gold.Chemscore.DEInternal.Weighted>
2.1190

> <Gold.Chemscore.Rot.Weighted>
6.0816

> <Gold.Chemscore.Internal.Correction.Weighted>
   9.000000E+99

> <Gold.Protein.RotatedTorsions>
[ 6907 6896 6895 6894 ] final   65.94 input  -60.11 | X-H torsion
[ 7974 7965 7964 7962 ] final  -42.33 input  175.53 | X-H torsion
[ 8008 7997 7996 7995 ] final   40.57 input   59.86 | X-H torsion
[ 10167 10162 10161 10158 ] final  -90.39 input  -65.29 | X-H torsion
[ 10718 10713 10712 10709 ] final   83.35 input   66.30 | X-H torsion
[ 10763 10752 10751 10750 ] final -115.76 input  -60.55 | X-H torsion
[ 11005 11000 10999 10996 ] final   64.88 input  -57.11 | X-H torsion

> <Gold.Protein.ActiveResidues>
 VAL166  LYS551  ARG553  GLY616  TRP617  ASP618  TYR619  PRO620  LYS621  CYS622 
 ASP623  PHE694  ASN695  SER759  ASP760  ASP761  ALA762  ILE779  LEU786  VAL792 
 PHE793  MET794  SER795  GLU796  ALA797  LYS798  CYS799  TRP800  GLU811  SER814 

> <Gold.Protein.RotatedAtoms>
  152.4444  134.5524  159.9870 H   0  0  0  0  0  0  0  0  0  0  0  0  # atno 6907 bound_to 6896
  151.5613  133.3397  159.2979 H   0  0  0  0  0  0  0  0  0  0  0  0  # atno 6908 bound_to 6896
  150.8357  134.7662  159.6955 H   0  0  0  0  0  0  0  0  0  0  0  0  # atno 6909 bound_to 6896
  146.0126  140.6946  142.9217 H   0  0  0  0  0  0  0  0  0  0  0  0  # atno 7974 bound_to 7965
  155.2553  140.3355  155.4278 H   0  0  0  0  0  0  0  0  0  0  0  0  # atno 8008 bound_to 7997
  156.2198  140.1804  156.7547 H   0  0  0  0  0  0  0  0  0  0  0  0  # atno 8009 bound_to 7997
  154.5808  140.0654  156.9085 H   0  0  0  0  0  0  0  0  0  0  0  0  # atno 8010 bound_to 7997
  140.3553  143.2870  151.9678 H   0  0  0  0  0  0  0  0  0  0  0  0  # atno 10167 bound_to 10162
  157.6877  131.0087  150.2511 H   0  0  0  0  0  0  0  0  0  0  0  0  # atno 10718 bound_to 10713
  154.8494  135.4370  154.1714 H   0  0  0  0  0  0  0  0  0  0  0  0  # atno 10763 bound_to 10752
  153.2826  135.6955  153.7376 H   0  0  0  0  0  0  0  0  0  0  0  0  # atno 10764 bound_to 10752
  153.6574  135.3441  155.3092 H   0  0  0  0  0  0  0  0  0  0  0  0  # atno 10765 bound_to 10752
  139.9930  134.6561  156.0058 H   0  0  0  0  0  0  0  0  0  0  0  0  # atno 11005 bound_to 11000
  144.6958  140.3425  143.7196 LP  0  0  0  0  0  0  0  0  0  0  0  0  # atno 17320 bound_to 7965
  145.7319  139.1738  143.2426 LP  0  0  0  0  0  0  0  0  0  0  0  0  # atno 17321 bound_to 7965
  139.4821  144.6040  151.7554 LP  0  0  0  0  0  0  0  0  0  0  0  0  # atno 17342 bound_to 10162
  140.5179  144.0924  150.6014 LP  0  0  0  0  0  0  0  0  0  0  0  0  # atno 17343 bound_to 10162
  156.3107  130.3771  149.7664 LP  0  0  0  0  0  0  0  0  0  0  0  0  # atno 17370 bound_to 10713
  156.5265  130.8238  151.3222 LP  0  0  0  0  0  0  0  0  0  0  0  0  # atno 17371 bound_to 10713
  141.1582  133.6541  156.4230 LP  0  0  0  0  0  0  0  0  0  0  0  0  # atno 17394 bound_to 11000
  140.4871  134.6610  157.5195 LP  0  0  0  0  0  0  0  0  0  0  0  0  # atno 17395 bound_to 11000

$$$$
