AV-unprocessed.smi:1093|AV-procd|sdf|4741|dock9
  -GOLD-   22720 3273D 1   1.00000     0.00000
 Structure written by MMmdl.
 48 49  0  0  0  0  0  0  0  0  3 V2000
  141.4588  137.5990  153.2904 C   0  0  0  0  0  0  0  0  0  0  0  0
  142.8703  137.5693  153.8944 C   0  0  0  0  0  0  0  0  0  0  0  0
  143.9343  137.6722  152.8637 N   0  3  2  0  0  0  0  0  0  0  0  0
  143.9943  136.4652  151.9988 C   0  0  0  0  0  0  0  0  0  0  0  0
  145.0023  136.6516  150.8531 C   0  0  0  0  0  0  0  0  0  0  0  0
  146.3942  137.0030  151.3936 C   0  0  0  0  0  0  0  0  0  0  0  0
  146.3074  138.2340  152.3130 C   0  0  2  0  0  0  0  0  0  0  0  0
  147.6111  138.5325  152.9007 N   0  0  0  0  0  0  0  0  0  0  0  0
  147.8435  139.4799  153.8210 C   0  0  0  0  0  0  0  0  0  0  0  0
  146.9659  140.2154  154.2719 O   0  0  0  0  0  0  0  0  0  0  0  0
  149.1442  139.5249  154.1585 N   0  0  0  0  0  0  0  0  0  0  0  0
  149.7814  140.3615  155.1155 C   0  0  0  0  0  0  0  0  0  0  0  0
  150.8052  139.7985  155.9057 C   0  0  0  0  0  0  0  0  0  0  0  0
  151.4542  140.5846  156.8798 C   0  0  0  0  0  0  0  0  0  0  0  0
  151.0693  141.9350  157.0672 C   0  0  0  0  0  0  0  0  0  0  0  0
  151.6688  142.7848  158.0218 N   0  0  0  0  0  0  0  0  0  0  0  0
  151.4557  144.2243  157.9439 C   0  0  0  0  0  0  0  0  0  0  0  0
  152.3847  142.2085  159.1548 C   0  0  0  0  0  0  0  0  0  0  0  0
  150.0717  142.4274  156.2927 N   0  3  0  0  0  0  0  0  0  0  0  0
  149.4252  141.7114  155.3477 C   0  0  0  0  0  0  0  0  0  0  0  0
  145.2704  138.0035  153.4290 C   0  0  0  0  0  0  0  0  0  0  0  0
  140.7091  137.4237  154.0624 H   0  0  0  0  0  0  0  0  0  0  0  0
  141.3380  136.8242  152.5328 H   0  0  0  0  0  0  0  0  0  0  0  0
  141.2281  138.5595  152.8312 H   0  0  0  0  0  0  0  0  0  0  0  0
  142.9892  138.3593  154.6371 H   0  0  0  0  0  0  0  0  0  0  0  0
  142.9794  136.6247  154.4290 H   0  0  0  0  0  0  0  0  0  0  0  0
  144.2647  135.5966  152.6016 H   0  0  0  0  0  0  0  0  0  0  0  0
  143.0092  136.2636  151.5760 H   0  0  0  0  0  0  0  0  0  0  0  0
  145.0549  135.7437  150.2514 H   0  0  0  0  0  0  0  0  0  0  0  0
  144.6575  137.4441  150.1874 H   0  0  0  0  0  0  0  0  0  0  0  0
  146.7983  136.1521  151.9443 H   0  0  0  0  0  0  0  0  0  0  0  0
  147.0771  137.1915  150.5644 H   0  0  0  0  0  0  0  0  0  0  0  0
  145.9780  139.0917  151.7230 H   0  0  0  0  0  0  0  0  0  0  0  0
  148.3925  137.9791  152.5803 H   0  0  0  0  0  0  0  0  0  0  0  0
  149.7585  138.9123  153.6424 H   0  0  0  0  0  0  0  0  0  0  0  0
  151.0988  138.7680  155.7672 H   0  0  0  0  0  0  0  0  0  0  0  0
  152.2382  140.1347  157.4703 H   0  0  0  0  0  0  0  0  0  0  0  0
  151.8463  144.6208  157.0059 H   0  0  0  0  0  0  0  0  0  0  0  0
  151.9594  144.7446  158.7587 H   0  0  0  0  0  0  0  0  0  0  0  0
  150.3923  144.4578  158.0060 H   0  0  0  0  0  0  0  0  0  0  0  0
  153.2110  141.5858  158.8104 H   0  0  0  0  0  0  0  0  0  0  0  0
  151.7152  141.5950  159.7583 H   0  0  0  0  0  0  0  0  0  0  0  0
  152.7995  142.9839  159.7991 H   0  0  0  0  0  0  0  0  0  0  0  0
  148.6445  142.2483  154.8305 H   0  0  0  0  0  0  0  0  0  0  0  0
  145.2048  138.9033  154.0402 H   0  0  0  0  0  0  0  0  0  0  0  0
  145.5943  137.1966  154.0888 H   0  0  0  0  0  0  0  0  0  0  0  0
  143.6718  138.4374  152.2588 H   0  0  0  0  0  0  0  0  0  0  0  0
  149.7891  143.3975  156.4327 H   0  0  0  0  0  0  0  0  0  0  0  0
  1  2  1  0  0  0  0
  1 22  1  0  0  0  0
  1 23  1  0  0  0  0
  1 24  1  0  0  0  0
  2  3  1  0  0  0  0
  2 25  1  0  0  0  0
  2 26  1  0  0  0  0
  3 21  1  0  0  0  0
  3  4  1  0  0  0  0
  3 47  1  0  0  0  0
  4  5  1  0  0  0  0
  4 27  1  0  0  0  0
  4 28  1  0  0  0  0
  5  6  1  0  0  0  0
  5 29  1  0  0  0  0
  5 30  1  0  0  0  0
  6  7  1  0  0  0  0
  6 31  1  0  0  0  0
  6 32  1  0  0  0  0
  7  8  1  0  0  0  0
  7 21  1  0  0  0  0
  7 33  1  0  0  0  0
  8  9  1  0  0  0  0
  8 34  1  0  0  0  0
  9 10  2  0  0  0  0
  9 11  1  0  0  0  0
 11 12  1  0  0  0  0
 11 35  1  0  0  0  0
 12 20  1  0  0  0  0
 12 13  2  0  0  0  0
 13 14  1  0  0  0  0
 13 36  1  0  0  0  0
 14 15  2  0  0  0  0
 14 37  1  0  0  0  0
 15 16  1  0  0  0  0
 15 19  1  0  0  0  0
 16 17  1  0  0  0  0
 16 18  1  0  0  0  0
 17 38  1  0  0  0  0
 17 39  1  0  0  0  0
 17 40  1  0  0  0  0
 18 41  1  0  0  0  0
 18 42  1  0  0  0  0
 18 43  1  0  0  0  0
 19 20  2  0  0  0  0
 19 48  1  0  0  0  0
 20 44  1  0  0  0  0
 21 45  1  0  0  0  0
 21 46  1  0  0  0  0
M  CHG  1   3   1
M  CHG  1  19   1
M  END
> <s_m_source_file>
AV-unprocessed.smi

> <i_m_source_file_index>
1093

> <i_lp_mmshare_version>
43012

> <i_f3d_flags>
0

> <s_epik_input>
W0NIM11bQ0gyXU4xW0NIMl1bQ0gyXVtDSDJdW0NASF0oW0NIMl0xKVtOSF1DKD1PKVtOSF1jMltjSF1bY0hdYyhOKFtDSDNdKVtDSDNdKW5bY0hdMg==

> <s_epik_cmdline>
J2VwaWtfcHl0aG9uJywgJy1waCcsICc3LjAnLCAnLXRuJywgJzgnLCAnLW1hJywgJzIwMCcsICctbWV0YWxfYmluZGluZycsICctaW1hZScsICc8aW5maWxlLm1hZT4nLCAnLW9tYWUnLCAnPG91dGZpbGUubWFlPic=

> <r_lp_tautomer_probability>
0.999994

> <r_epik_Ionization_Penalty>
0.346711

> <r_epik_Ionization_Penalty_Charging>
0.346691

> <r_epik_Ionization_Penalty_Neutral>
1.93006e-05

> <r_epik_State_Penalty>
0.339838

> <r_epik_Charging_Adjusted_Penalty>
0.68653

> <i_epik_Tot_Q>
2

> <i_epik_Tot_abs_Q>
2

> <r_epik_Metal_State_Penalty>
0.600835

> <b_epik_Metal_Only>
0

> <s_lp_Force_Field>
OPLS_2005

> <r_lp_Energy>
27.882

> <b_lp_Chiralities_Consistent>
1

> <s_lp_Variant>
AV-unprocessed.smi:1093-4

> <Gold.Version>
5.8.1

> <Gold.Id.Protein>
6NUR|6NUR_protein|mol2

> <Gold.PLP.Fitness>
45.4617

> <Gold.PLP.PLP>
-33.9037

> <Gold.PLP.part.hbond>
-5.1388

> <Gold.PLP.part.metal>
0.0000

> <Gold.PLP.part.buried>
5.3217

> <Gold.PLP.part.nonpolar>
-35.0568

> <Gold.PLP.part.repulsive>
0.3884

> <Gold.PLP.ligand.clash>
0.0000

> <Gold.PLP.ligand.torsion>
0.5459

> <Gold.PLP.Chemscore.Hbond>
4.2080

> <Gold.PLP.Chemscore.CHOScore>
0.0000

> <Gold.PLP.Chemscore.Metal>
0.0000

> <Gold.Chemscore.Hbonds>
donor molecule, donor type, donor heavy atom, donor atom, acceptor molecule, acceptor atom, score
      L1  H     3    47       P1 10175  1.41
      L1  H     8    34       P1  7948  0.93
      L1  H    19    48       P1  8028  1.70

> <Gold.PLP.Chemscore.Internal.Correction>
0.0258

> <Gold.Rescore>
     Score         DG    S(hbond)    S(metal)    S(lipo)     H(rot)  DE(clash)    DE(int)     intcor
     15.46     -21.13       2.46        0.00      89.81       1.19       3.37       2.30       ----

> <Gold.Chemscore.Fitness>
15.4626

> <Gold.Chemscore.DG>
-21.1314

> <Gold.Chemscore.ZeroCoef>
-5.4800

> <Gold.Chemscore.Hbond>
2.4558

> <Gold.Chemscore.Metal>
0.0000

> <Gold.Chemscore.Lipo>
89.8112

> <Gold.Chemscore.Internal_Hbond>
0.0000

> <Gold.Chemscore.DEClash>
3.3667

> <Gold.Chemscore.DEInternal>
2.3021

> <Gold.Chemscore.Rot>
1.1949

> <Gold.Chemscore.Internal.Correction>
   9.000000E+99

> <Gold.Chemscore.Hbonds>
donor molecule, donor type, donor heavy atom, donor atom, acceptor molecule, acceptor atom, score
      L1  H     3    47       P1 10175  0.67
      L1  H     8    34       P1  7948  0.89
      L1  H    19    48       P1  8028  0.85

> <Gold.Chemscore.Hbond.Weighted>
-8.2025

> <Gold.Chemscore.Metal.Weighted>
-0.0000

> <Gold.Chemscore.Lipo.Weighted>
-10.5079

> <Gold.Chemscore.Internal_Hbond.Weighted>
0.0000

> <Gold.Chemscore.DEClash.Weighted>
3.3667

> <Gold.Chemscore.DEInternal.Weighted>
2.3021

> <Gold.Chemscore.Rot.Weighted>
3.0590

> <Gold.Chemscore.Internal.Correction.Weighted>
   9.000000E+99

> <Gold.Protein.RotatedTorsions>
[ 6907 6896 6895 6894 ] final   32.84 input  -60.11 | X-H torsion
[ 7974 7965 7964 7962 ] final  133.56 input  175.53 | X-H torsion
[ 8008 7997 7996 7995 ] final   42.61 input   59.86 | X-H torsion
[ 10167 10162 10161 10158 ] final -104.83 input  -65.29 | X-H torsion
[ 10718 10713 10712 10709 ] final   31.68 input   66.30 | X-H torsion
[ 10763 10752 10751 10750 ] final  127.58 input  -60.55 | X-H torsion
[ 11005 11000 10999 10996 ] final -102.55 input  -57.11 | X-H torsion

> <Gold.Protein.ActiveResidues>
 VAL166  LYS551  ARG553  GLY616  TRP617  ASP618  TYR619  PRO620  LYS621  CYS622 
 ASP623  PHE694  ASN695  SER759  ASP760  ASP761  ALA762  ILE779  LEU786  VAL792 
 PHE793  MET794  SER795  GLU796  ALA797  LYS798  CYS799  TRP800  GLU811  SER814 

> <Gold.Protein.RotatedAtoms>
  152.0801  134.9477  160.0573 H   0  0  0  0  0  0  0  0  0  0  0  0  # atno 6907 bound_to 6896
  152.0769  133.4129  159.4492 H   0  0  0  0  0  0  0  0  0  0  0  0  # atno 6908 bound_to 6896
  150.6836  134.2947  159.4725 H   0  0  0  0  0  0  0  0  0  0  0  0  # atno 6909 bound_to 6896
  144.9852  139.4463  143.5366 H   0  0  0  0  0  0  0  0  0  0  0  0  # atno 7974 bound_to 7965
  155.2890  140.3377  155.4253 H   0  0  0  0  0  0  0  0  0  0  0  0  # atno 8008 bound_to 7997
  156.2055  140.1749  156.7849 H   0  0  0  0  0  0  0  0  0  0  0  0  # atno 8009 bound_to 7997
  154.5615  140.0686  156.8810 H   0  0  0  0  0  0  0  0  0  0  0  0  # atno 8010 bound_to 7997
  140.2050  143.3789  152.1098 H   0  0  0  0  0  0  0  0  0  0  0  0  # atno 10167 bound_to 10162
  157.2756  130.7229  149.6528 H   0  0  0  0  0  0  0  0  0  0  0  0  # atno 10718 bound_to 10713
  153.7118  135.3267  155.3248 H   0  0  0  0  0  0  0  0  0  0  0  0  # atno 10763 bound_to 10752
  154.8382  135.4478  154.1306 H   0  0  0  0  0  0  0  0  0  0  0  0  # atno 10764 bound_to 10752
  153.2402  135.6970  153.7871 H   0  0  0  0  0  0  0  0  0  0  0  0  # atno 10765 bound_to 10752
  141.1184  133.8567  157.1374 H   0  0  0  0  0  0  0  0  0  0  0  0  # atno 11005 bound_to 11000
  146.3418  139.9150  142.8775 LP  0  0  0  0  0  0  0  0  0  0  0  0  # atno 17320 bound_to 7965
  145.2363  140.9992  143.3961 LP  0  0  0  0  0  0  0  0  0  0  0  0  # atno 17321 bound_to 7965
  139.5202  144.7030  151.5439 LP  0  0  0  0  0  0  0  0  0  0  0  0  # atno 17342 bound_to 10162
  140.6363  143.8977  150.6651 LP  0  0  0  0  0  0  0  0  0  0  0  0  # atno 17343 bound_to 10162
  155.9663  130.4354  150.5090 LP  0  0  0  0  0  0  0  0  0  0  0  0  # atno 17370 bound_to 10713
  157.3023  131.0647  151.2059 LP  0  0  0  0  0  0  0  0  0  0  0  0  # atno 17371 bound_to 10713
  140.0123  134.9983  157.0421 LP  0  0  0  0  0  0  0  0  0  0  0  0  # atno 17394 bound_to 11000
  140.4579  134.1515  155.7188 LP  0  0  0  0  0  0  0  0  0  0  0  0  # atno 17395 bound_to 11000

$$$$
