AV-unprocessed.smi:229|AV-procd|sdf|1750|dock9
  -GOLD-   2262020273D 1   1.00000     0.00000
 Structure written by MMmdl.
 58 62  0  0  0  0  0  0  0  0  1 V2000
  153.3600  142.5960  162.6302 C   0  0  0  0  0  0  0  0  0  0  0  0
  153.7889  141.5768  161.5665 C   0  0  0  0  0  0  0  0  0  0  0  0
  153.1916  141.8461  160.1755 C   0  0  1  0  0  0  0  0  0  0  0  0
  152.6581  140.5708  159.4971 C   0  0  0  0  0  0  0  0  0  0  0  0
  151.9735  140.9112  158.2566 N   0  0  0  0  0  0  0  0  0  0  0  0
  151.7526  139.8638  157.4231 C   0  0  0  0  0  0  0  0  0  0  0  0
  152.4605  139.7513  156.2670 N   0  0  0  0  0  0  0  0  0  0  0  0
  152.2424  138.7253  155.4390 C   0  0  0  0  0  0  0  0  0  0  0  0
  151.3816  137.7146  155.5712 N   0  0  0  0  0  0  0  0  0  0  0  0
  150.6758  137.8165  156.7335 C   0  0  0  0  0  0  0  0  0  0  0  0
  150.7964  138.8484  157.7063 C   0  0  0  0  0  0  0  0  0  0  0  0
  149.9255  138.6063  158.7627 N   0  0  0  0  0  0  0  0  0  0  0  0
  149.3279  137.4931  158.4351 C   0  0  0  0  0  0  0  0  0  0  0  0
  149.7222  136.9480  157.2349 N   0  0  0  0  0  0  0  0  0  0  0  0
  149.2391  135.7135  156.6434 C   0  0  0  0  0  0  0  0  0  0  0  0
  150.3058  134.5978  156.6204 C   0  0  1  0  0  0  0  0  0  0  0  0
  150.2972  133.9826  157.8934 O   0  0  0  0  0  0  0  0  0  0  0  0
  150.0764  133.5220  155.5353 C   0  0  2  0  0  0  0  0  0  0  0  0
  149.7625  134.0696  154.1420 C   0  0  0  0  0  0  0  0  0  0  0  0
  149.0535  132.9103  153.4608 C   0  0  0  0  0  0  0  0  0  0  0  0
  148.5789  132.0356  154.6240 C   0  0  0  0  0  0  0  0  0  0  0  0
  148.8983  132.7727  155.7953 O   0  0  0  0  0  0  0  0  0  0  0  0
  150.8937  141.8726  158.4523 C   0  0  0  0  0  0  0  0  0  0  0  0
  151.4163  143.1427  159.1546 C   0  0  1  0  0  0  0  0  0  0  0  0
  152.2355  144.0655  158.2572 C   0  0  0  0  0  0  0  0  0  0  0  0
  152.0892  145.4049  158.9625 C   0  0  0  0  0  0  0  0  0  0  0  0
  150.7350  145.4193  159.3879 O   0  0  0  0  0  0  0  0  0  0  0  0
  150.2791  144.0824  159.5865 C   0  0  0  0  0  0  0  0  0  0  0  0
  152.1188  142.7740  160.3481 O   0  0  0  0  0  0  0  0  0  0  0  0
  153.7626  142.3262  163.6067 H   0  0  0  0  0  0  0  0  0  0  0  0
  152.2744  142.6383  162.7197 H   0  0  0  0  0  0  0  0  0  0  0  0
  153.7178  143.5980  162.3940 H   0  0  0  0  0  0  0  0  0  0  0  0
  154.8772  141.5468  161.5028 H   0  0  0  0  0  0  0  0  0  0  0  0
  153.4779  140.5851  161.8967 H   0  0  0  0  0  0  0  0  0  0  0  0
  153.9664  142.2932  159.5537 H   0  0  0  0  0  0  0  0  0  0  0  0
  153.4785  139.8783  159.3143 H   0  0  0  0  0  0  0  0  0  0  0  0
  151.9554  140.0602  160.1570 H   0  0  0  0  0  0  0  0  0  0  0  0
  152.8447  138.7116  154.5427 H   0  0  0  0  0  0  0  0  0  0  0  0
  148.5848  137.0307  159.0683 H   0  0  0  0  0  0  0  0  0  0  0  0
  148.3647  135.3876  157.2087 H   0  0  0  0  0  0  0  0  0  0  0  0
  148.8913  135.9270  155.6318 H   0  0  0  0  0  0  0  0  0  0  0  0
  151.2921  135.0419  156.4799 H   0  0  0  0  0  0  0  0  0  0  0  0
  149.8721  133.1422  157.8188 H   0  0  0  0  0  0  0  0  0  0  0  0
  150.9319  132.8456  155.4819 H   0  0  0  0  0  0  0  0  0  0  0  0
  149.0841  134.9206  154.2177 H   0  0  0  0  0  0  0  0  0  0  0  0
  150.6532  134.3947  153.6036 H   0  0  0  0  0  0  0  0  0  0  0  0
  148.2253  133.2587  152.8432 H   0  0  0  0  0  0  0  0  0  0  0  0
  149.7388  132.3518  152.8222 H   0  0  0  0  0  0  0  0  0  0  0  0
  147.5106  131.8227  154.5803 H   0  0  0  0  0  0  0  0  0  0  0  0
  149.1157  131.0861  154.6379 H   0  0  0  0  0  0  0  0  0  0  0  0
  150.4380  142.1336  157.4960 H   0  0  0  0  0  0  0  0  0  0  0  0
  150.1169  141.4088  159.0624 H   0  0  0  0  0  0  0  0  0  0  0  0
  153.2736  143.7703  158.1149 H   0  0  0  0  0  0  0  0  0  0  0  0
  151.7784  144.1293  157.2687 H   0  0  0  0  0  0  0  0  0  0  0  0
  152.7422  145.4539  159.8350 H   0  0  0  0  0  0  0  0  0  0  0  0
  152.3162  146.2516  158.3146 H   0  0  0  0  0  0  0  0  0  0  0  0
  149.3946  143.9409  158.9644 H   0  0  0  0  0  0  0  0  0  0  0  0
  149.9792  143.9200  160.6224 H   0  0  0  0  0  0  0  0  0  0  0  0
  1  2  1  0  0  0  0
  1 30  1  0  0  0  0
  1 31  1  0  0  0  0
  1 32  1  0  0  0  0
  2  3  1  0  0  0  0
  2 33  1  0  0  0  0
  2 34  1  0  0  0  0
  3 29  1  0  0  0  0
  3  4  1  0  0  0  0
  3 35  1  0  0  0  0
  4  5  1  0  0  0  0
  4 36  1  0  0  0  0
  4 37  1  0  0  0  0
  5  6  1  0  0  0  0
  5 23  1  0  0  0  0
  6 11  1  0  0  0  0
  6  7  2  0  0  0  0
  7  8  1  0  0  0  0
  8  9  2  0  0  0  0
  8 38  1  0  0  0  0
  9 10  1  0  0  0  0
 10 14  1  0  0  0  0
 10 11  2  0  0  0  0
 11 12  1  0  0  0  0
 12 13  2  0  0  0  0
 13 14  1  0  0  0  0
 13 39  1  0  0  0  0
 14 15  1  0  0  0  0
 15 16  1  0  0  0  0
 15 40  1  0  0  0  0
 15 41  1  0  0  0  0
 16 17  1  0  0  0  0
 16 18  1  0  0  0  0
 16 42  1  0  0  0  0
 17 43  1  0  0  0  0
 18 22  1  0  0  0  0
 18 19  1  0  0  0  0
 18 44  1  0  0  0  0
 19 20  1  0  0  0  0
 19 45  1  0  0  0  0
 19 46  1  0  0  0  0
 20 21  1  0  0  0  0
 20 47  1  0  0  0  0
 20 48  1  0  0  0  0
 21 22  1  0  0  0  0
 21 49  1  0  0  0  0
 21 50  1  0  0  0  0
 23 24  1  0  0  0  0
 23 51  1  0  0  0  0
 23 52  1  0  0  0  0
 24 28  1  0  0  0  0
 24 25  1  0  0  0  0
 24 29  1  0  0  0  0
 25 26  1  0  0  0  0
 25 53  1  0  0  0  0
 25 54  1  0  0  0  0
 26 27  1  0  0  0  0
 26 55  1  0  0  0  0
 26 56  1  0  0  0  0
 27 28  1  0  0  0  0
 28 57  1  0  0  0  0
 28 58  1  0  0  0  0
M  END
> <s_m_source_file>
AV-unprocessed.smi

> <i_m_source_file_index>
229

> <i_lp_mmshare_version>
43012

> <i_f3d_flags>
0

> <s_epik_input>
W0NIMl0xT1tDSDJdW0NIMl1bQ0BdMTJbQ0gyXU4oW0NIMl1bQ0BIXShPMilbQ0gyXVtDSDNdKWMobltjSF1uMyljKGMzNCluW2NIXW40W0NIMl1bQ0BIXShbT0hdKVtDQEBIXTVbQ0gyXVtDSDJdW0NIMl1PNQ==

> <s_epik_cmdline>
J2VwaWtfcHl0aG9uJywgJy1waCcsICc3LjAnLCAnLXRuJywgJzgnLCAnLW1hJywgJzIwMCcsICctbWV0YWxfYmluZGluZycsICctaW1hZScsICc8aW5maWxlLm1hZT4nLCAnLW9tYWUnLCAnPG91dGZpbGUubWFlPic=

> <r_lp_tautomer_probability>
1

> <r_epik_Ionization_Penalty>
0.00318402

> <r_epik_Ionization_Penalty_Charging>
0

> <r_epik_Ionization_Penalty_Neutral>
0.00318402

> <r_epik_State_Penalty>
0.00215642

> <r_epik_Charging_Adjusted_Penalty>
0.00215642

> <i_epik_Tot_Q>
0

> <i_epik_Tot_abs_Q>
0

> <r_epik_Metal_State_Penalty>
-0

> <b_epik_Metal_Only>
0

> <s_lp_Force_Field>
OPLS_2005

> <r_lp_Energy>
55.6403

> <b_lp_Chiralities_Consistent>
1

> <s_lp_Variant>
AV-unprocessed.smi:229-4

> <Gold.Version>
5.8.1

> <Gold.Id.Protein>
6NUR|6NUR_protein|mol2

> <Gold.PLP.Fitness>
54.4927

> <Gold.PLP.PLP>
-50.5862

> <Gold.PLP.part.hbond>
-2.4563

> <Gold.PLP.part.metal>
0.0000

> <Gold.PLP.part.buried>
-8.1650

> <Gold.PLP.part.nonpolar>
-40.2357

> <Gold.PLP.part.repulsive>
0.2508

> <Gold.PLP.ligand.clash>
0.0000

> <Gold.PLP.ligand.torsion>
1.1996

> <Gold.PLP.Chemscore.Hbond>
1.9920

> <Gold.PLP.Chemscore.CHOScore>
0.0000

> <Gold.PLP.Chemscore.Metal>
0.0000

> <Gold.Chemscore.Hbonds>
donor molecule, donor type, donor heavy atom, donor atom, acceptor molecule, acceptor atom, score
      P1  H  6896  6907       L1    17  0.69
      P1  H  7997  8008       L1     7  1.00

> <Gold.PLP.Chemscore.Internal.Correction>
0.3298

> <Gold.Rescore>
     Score         DG    S(hbond)    S(metal)    S(lipo)     H(rot)  DE(clash)    DE(int)     intcor
     18.85     -19.96       1.91        0.00     123.04       2.46       0.04       1.07       ----

> <Gold.Chemscore.Fitness>
18.8456

> <Gold.Chemscore.DG>
-19.9569

> <Gold.Chemscore.ZeroCoef>
-5.4800

> <Gold.Chemscore.Hbond>
1.9092

> <Gold.Chemscore.Metal>
0.0000

> <Gold.Chemscore.Lipo>
123.0389

> <Gold.Chemscore.Internal_Hbond>
0.0000

> <Gold.Chemscore.DEClash>
0.0436

> <Gold.Chemscore.DEInternal>
1.0677

> <Gold.Chemscore.Rot>
2.4591

> <Gold.Chemscore.Internal.Correction>
   9.000000E+99

> <Gold.Chemscore.Hbonds>
donor molecule, donor type, donor heavy atom, donor atom, acceptor molecule, acceptor atom, score
      P1  H  6896  6907       L1    17  0.15
      P1  H  7997  8008       L1     7  0.69

> <Gold.Chemscore.Hbond.Weighted>
-6.3767

> <Gold.Chemscore.Metal.Weighted>
-0.0000

> <Gold.Chemscore.Lipo.Weighted>
-14.3955

> <Gold.Chemscore.Internal_Hbond.Weighted>
0.0000

> <Gold.Chemscore.DEClash.Weighted>
0.0436

> <Gold.Chemscore.DEInternal.Weighted>
1.0677

> <Gold.Chemscore.Rot.Weighted>
6.2953

> <Gold.Chemscore.Internal.Correction.Weighted>
   9.000000E+99

> <Gold.Protein.RotatedTorsions>
[ 6907 6896 6895 6894 ] final -116.26 input  -60.11 | X-H torsion
[ 7974 7965 7964 7962 ] final   11.77 input  175.53 | X-H torsion
[ 8008 7997 7996 7995 ] final  -53.01 input   59.86 | X-H torsion
[ 10167 10162 10161 10158 ] final   -6.38 input  -65.29 | X-H torsion
[ 10718 10713 10712 10709 ] final -165.79 input   66.30 | X-H torsion
[ 10763 10752 10751 10750 ] final  -65.96 input  -60.55 | X-H torsion
[ 11005 11000 10999 10996 ] final   37.96 input  -57.11 | X-H torsion

> <Gold.Protein.ActiveResidues>
 VAL166  LYS551  ARG553  GLY616  TRP617  ASP618  TYR619  PRO620  LYS621  CYS622 
 ASP623  PHE694  ASN695  SER759  ASP760  ASP761  ALA762  ILE779  LEU786  VAL792 
 PHE793  MET794  SER795  GLU796  ALA797  LYS798  CYS799  TRP800  GLU811  SER814 

> <Gold.Protein.RotatedAtoms>
  150.8042  133.8542  159.3213 H   0  0  0  0  0  0  0  0  0  0  0  0  # atno 6907 bound_to 6896
  151.6346  135.1017  160.0138 H   0  0  0  0  0  0  0  0  0  0  0  0  # atno 6908 bound_to 6896
  152.4131  133.6956  159.6450 H   0  0  0  0  0  0  0  0  0  0  0  0  # atno 6909 bound_to 6896
  146.2364  139.9436  142.8480 H   0  0  0  0  0  0  0  0  0  0  0  0  # atno 7974 bound_to 7965
  154.4121  140.1210  156.5084 H   0  0  0  0  0  0  0  0  0  0  0  0  # atno 8008 bound_to 7997
  155.6823  140.3496  155.4841 H   0  0  0  0  0  0  0  0  0  0  0  0  # atno 8009 bound_to 7997
  155.9540  140.1110  157.0942 H   0  0  0  0  0  0  0  0  0  0  0  0  # atno 8010 bound_to 7997
  140.6995  143.6200  150.8621 H   0  0  0  0  0  0  0  0  0  0  0  0  # atno 10167 bound_to 10162
  156.6585  130.9036  151.3025 H   0  0  0  0  0  0  0  0  0  0  0  0  # atno 10718 bound_to 10713
  154.3528  135.6133  153.5651 H   0  0  0  0  0  0  0  0  0  0  0  0  # atno 10763 bound_to 10752
  152.9797  135.5796  154.4724 H   0  0  0  0  0  0  0  0  0  0  0  0  # atno 10764 bound_to 10752
  154.4448  135.2851  155.1800 H   0  0  0  0  0  0  0  0  0  0  0  0  # atno 10765 bound_to 10752
  140.2173  134.3683  155.8021 H   0  0  0  0  0  0  0  0  0  0  0  0  # atno 11005 bound_to 11000
  145.1929  140.9820  143.4200 LP  0  0  0  0  0  0  0  0  0  0  0  0  # atno 17320 bound_to 7965
  144.9841  139.3754  143.6247 LP  0  0  0  0  0  0  0  0  0  0  0  0  # atno 17321 bound_to 7965
  139.9921  143.5835  152.2906 LP  0  0  0  0  0  0  0  0  0  0  0  0  # atno 17342 bound_to 10162
  139.6494  144.7660  151.2178 LP  0  0  0  0  0  0  0  0  0  0  0  0  # atno 17343 bound_to 10162
  157.7117  130.9449  150.1113 LP  0  0  0  0  0  0  0  0  0  0  0  0  # atno 17370 bound_to 10713
  156.2029  130.3661  149.8765 LP  0  0  0  0  0  0  0  0  0  0  0  0  # atno 17371 bound_to 10713
  141.2224  133.7175  156.8517 LP  0  0  0  0  0  0  0  0  0  0  0  0  # atno 17394 bound_to 11000
  140.1887  134.8981  157.3034 LP  0  0  0  0  0  0  0  0  0  0  0  0  # atno 17395 bound_to 11000

$$$$
