AV-unprocessed.smi:1643|AV-procd|sdf|6580|dock6
  -GOLD-   22720 7263D 1   1.00000     0.00000
 Structure written by MMmdl.
 55 57  0  0  0  0  0  0  0  0  3 V2000
  153.6758  141.9449  160.7289 C   0  0  0  0  0  0  0  0  0  0  0  0
  152.4803  142.8952  160.8395 C   0  0  0  0  0  0  0  0  0  0  0  0
  151.8907  142.9598  161.9182 O   0  0  0  0  0  0  0  0  0  0  0  0
  152.1206  143.6355  159.7620 N   0  0  0  0  0  0  0  0  0  0  0  0
  151.0504  144.6406  159.8535 C   0  0  0  0  0  0  0  0  0  0  0  0
  149.7089  144.1162  159.2967 C   0  0  0  0  0  0  0  0  0  0  0  0
  149.8114  142.8938  158.3587 C   0  0  0  0  0  0  0  0  0  0  0  0
  150.5707  143.1361  157.1011 N   0  3  2  0  0  0  0  0  0  0  0  0
  150.6998  141.9084  156.2706 C   0  0  0  0  0  0  0  0  0  0  0  0
  149.4046  141.6225  155.4905 C   0  0  1  0  0  0  0  0  0  0  0  0
  149.2441  142.5869  154.4681 O   0  0  0  0  0  0  0  0  0  0  0  0
  149.4090  140.2175  154.8563 C   0  0  0  0  0  0  0  0  0  0  0  0
  148.0680  139.7719  154.4551 N   0  0  0  0  0  0  0  0  0  0  0  0
  147.3219  140.1028  153.3657 C   0  0  0  0  0  0  0  0  0  0  0  0
  146.1458  139.4214  153.4517 N   0  3  0  0  0  0  0  0  0  0  0  0
  146.1413  138.6429  154.6111 C   0  0  0  0  0  0  0  0  0  0  0  0
  145.1789  137.7842  155.1286 C   0  0  0  0  0  0  0  0  0  0  0  0
  145.4839  137.1313  156.3444 C   0  0  0  0  0  0  0  0  0  0  0  0
  144.4551  136.1831  156.9360 C   0  0  0  0  0  0  0  0  0  0  0  0
  146.7224  137.3519  157.0012 C   0  0  0  0  0  0  0  0  0  0  0  0
  147.0397  136.6445  158.3078 C   0  0  0  0  0  0  0  0  0  0  0  0
  147.6883  138.2293  156.4584 C   0  0  0  0  0  0  0  0  0  0  0  0
  147.3719  138.8631  155.2594 C   0  0  0  0  0  0  0  0  0  0  0  0
  151.8522  143.8904  157.2304 C   0  0  0  0  0  0  0  0  0  0  0  0
  152.7449  143.4812  158.4326 C   0  0  0  0  0  0  0  0  0  0  0  0
  154.5419  142.4512  160.3020 H   0  0  0  0  0  0  0  0  0  0  0  0
  153.4277  141.0827  160.1099 H   0  0  0  0  0  0  0  0  0  0  0  0
  153.9623  141.5757  161.7142 H   0  0  0  0  0  0  0  0  0  0  0  0
  150.9046  144.9912  160.8767 H   0  0  0  0  0  0  0  0  0  0  0  0
  151.3588  145.5412  159.3237 H   0  0  0  0  0  0  0  0  0  0  0  0
  149.0817  143.8285  160.1414 H   0  0  0  0  0  0  0  0  0  0  0  0
  149.1768  144.9282  158.7999 H   0  0  0  0  0  0  0  0  0  0  0  0
  150.2400  142.0457  158.8952 H   0  0  0  0  0  0  0  0  0  0  0  0
  148.8028  142.5842  158.0819 H   0  0  0  0  0  0  0  0  0  0  0  0
  151.5559  141.9707  155.5964 H   0  0  0  0  0  0  0  0  0  0  0  0
  150.9052  141.0509  156.9136 H   0  0  0  0  0  0  0  0  0  0  0  0
  148.5558  141.7042  156.1709 H   0  0  0  0  0  0  0  0  0  0  0  0
  149.3242  143.4487  154.8483 H   0  0  0  0  0  0  0  0  0  0  0  0
  150.0411  140.2015  153.9672 H   0  0  0  0  0  0  0  0  0  0  0  0
  149.8242  139.4782  155.5423 H   0  0  0  0  0  0  0  0  0  0  0  0
  147.6084  140.7840  152.5776 H   0  0  0  0  0  0  0  0  0  0  0  0
  144.2379  137.6214  154.6232 H   0  0  0  0  0  0  0  0  0  0  0  0
  144.8708  135.1800  157.0346 H   0  0  0  0  0  0  0  0  0  0  0  0
  143.5670  136.1147  156.3071 H   0  0  0  0  0  0  0  0  0  0  0  0
  144.1399  136.5265  157.9216 H   0  0  0  0  0  0  0  0  0  0  0  0
  148.0169  136.9369  158.6932 H   0  0  0  0  0  0  0  0  0  0  0  0
  147.0474  135.5637  158.1653 H   0  0  0  0  0  0  0  0  0  0  0  0
  146.2967  136.8891  159.0674 H   0  0  0  0  0  0  0  0  0  0  0  0
  148.6312  138.3957  156.9577 H   0  0  0  0  0  0  0  0  0  0  0  0
  152.4274  143.7852  156.3099 H   0  0  0  0  0  0  0  0  0  0  0  0
  151.6181  144.9536  157.2643 H   0  0  0  0  0  0  0  0  0  0  0  0
  153.6607  144.0732  158.4181 H   0  0  0  0  0  0  0  0  0  0  0  0
  153.0458  142.4468  158.2669 H   0  0  0  0  0  0  0  0  0  0  0  0
  149.9792  143.7465  156.5551 H   0  0  0  0  0  0  0  0  0  0  0  0
  145.4025  139.4839  152.7674 H   0  0  0  0  0  0  0  0  0  0  0  0
  1  2  1  0  0  0  0
  1 26  1  0  0  0  0
  1 27  1  0  0  0  0
  1 28  1  0  0  0  0
  2  3  2  0  0  0  0
  2  4  1  0  0  0  0
  4 25  1  0  0  0  0
  4  5  1  0  0  0  0
  5  6  1  0  0  0  0
  5 29  1  0  0  0  0
  5 30  1  0  0  0  0
  6  7  1  0  0  0  0
  6 31  1  0  0  0  0
  6 32  1  0  0  0  0
  7  8  1  0  0  0  0
  7 33  1  0  0  0  0
  7 34  1  0  0  0  0
  8  9  1  0  0  0  0
  8 24  1  0  0  0  0
  8 54  1  0  0  0  0
  9 10  1  0  0  0  0
  9 35  1  0  0  0  0
  9 36  1  0  0  0  0
 10 11  1  0  0  0  0
 10 12  1  0  0  0  0
 10 37  1  0  0  0  0
 11 38  1  0  0  0  0
 12 13  1  0  0  0  0
 12 39  1  0  0  0  0
 12 40  1  0  0  0  0
 13 23  1  0  0  0  0
 13 14  1  0  0  0  0
 14 15  2  0  0  0  0
 14 41  1  0  0  0  0
 15 16  1  0  0  0  0
 15 55  1  0  0  0  0
 16 23  2  0  0  0  0
 16 17  1  0  0  0  0
 17 18  2  0  0  0  0
 17 42  1  0  0  0  0
 18 19  1  0  0  0  0
 18 20  1  0  0  0  0
 19 43  1  0  0  0  0
 19 44  1  0  0  0  0
 19 45  1  0  0  0  0
 20 21  1  0  0  0  0
 20 22  2  0  0  0  0
 21 46  1  0  0  0  0
 21 47  1  0  0  0  0
 21 48  1  0  0  0  0
 22 23  1  0  0  0  0
 22 49  1  0  0  0  0
 24 25  1  0  0  0  0
 24 50  1  0  0  0  0
 24 51  1  0  0  0  0
 25 52  1  0  0  0  0
 25 53  1  0  0  0  0
M  CHG  1   8   1
M  CHG  1  15   1
M  END
> <s_m_source_file>
AV-unprocessed.smi

> <i_m_source_file_index>
1643

> <i_lp_mmshare_version>
43012

> <i_f3d_flags>
0

> <s_epik_input>
W0NIM11DKD1PKU4xW0NIMl1bQ0gyXVtDSDJdTihbQ0gyXVtDSDJdMSlbQ0gyXVtDQEhdKFtPSF0pW0NIMl1uKFtjSF1uMiljKGMyMylbY0hdYyhbQ0gzXSljKFtjSF0zKVtDSDNd

> <s_epik_cmdline>
J2VwaWtfcHl0aG9uJywgJy1waCcsICc3LjAnLCAnLXRuJywgJzgnLCAnLW1hJywgJzIwMCcsICctbWV0YWxfYmluZGluZycsICctaW1hZScsICc8aW5maWxlLm1hZT4nLCAnLW9tYWUnLCAnPG91dGZpbGUubWFlPic=

> <r_epik_Ionization_Penalty>
1.2865

> <r_epik_Ionization_Penalty_Charging>
1.2865

> <r_epik_Ionization_Penalty_Neutral>
2.89706e-06

> <r_epik_State_Penalty>
1.3566

> <r_epik_Charging_Adjusted_Penalty>
2.6431

> <i_epik_Tot_Q>
2

> <i_epik_Tot_abs_Q>
2

> <r_epik_Metal_State_Penalty>
5.37339

> <b_epik_Metal_Only>
0

> <s_lp_Force_Field>
OPLS_2005

> <r_lp_Energy>
57.2213

> <b_lp_Chiralities_Consistent>
1

> <s_lp_Variant>
AV-unprocessed.smi:1643-9

> <Gold.Version>
5.8.1

> <Gold.Id.Protein>
6NUR|6NUR_protein|mol2

> <Gold.PLP.Fitness>
55.0593

> <Gold.PLP.PLP>
-38.9626

> <Gold.PLP.part.hbond>
-4.6955

> <Gold.PLP.part.metal>
0.0000

> <Gold.PLP.part.buried>
-3.7757

> <Gold.PLP.part.nonpolar>
-30.8688

> <Gold.PLP.part.repulsive>
0.5260

> <Gold.PLP.ligand.clash>
0.0000

> <Gold.PLP.ligand.torsion>
0.7534

> <Gold.PLP.Chemscore.Hbond>
5.1403

> <Gold.PLP.Chemscore.CHOScore>
0.6944

> <Gold.PLP.Chemscore.Metal>
0.0000

> <Gold.Chemscore.Hbonds>
donor molecule, donor type, donor heavy atom, donor atom, acceptor molecule, acceptor atom, score
      L1  H     8    54       P1  8028  2.00
      L1  H    11    38       P1  8028  1.00
      L1  H    15    55       P1 10175  1.60
      P1  H  6933  6945       L1     3  0.43
      P1  H  8011  8017       L1    11  0.04
      L1  C    14    41       P1  7957  0.70

> <Gold.PLP.Chemscore.Internal.Correction>
0.0994

> <Gold.Rescore>
     Score         DG    S(hbond)    S(metal)    S(lipo)     H(rot)  DE(clash)    DE(int)     intcor
     20.35     -21.35       3.72        0.00      77.03       2.17       0.24       0.75       ----

> <Gold.Chemscore.Fitness>
20.3510

> <Gold.Chemscore.DG>
-21.3505

> <Gold.Chemscore.ZeroCoef>
-5.4800

> <Gold.Chemscore.Hbond>
3.7200

> <Gold.Chemscore.Metal>
0.0000

> <Gold.Chemscore.Lipo>
77.0281

> <Gold.Chemscore.Internal_Hbond>
0.0000

> <Gold.Chemscore.DEClash>
0.2450

> <Gold.Chemscore.DEInternal>
0.7546

> <Gold.Chemscore.Rot>
2.1744

> <Gold.Chemscore.Internal.Correction>
   9.000000E+99

> <Gold.Chemscore.Hbonds>
donor molecule, donor type, donor heavy atom, donor atom, acceptor molecule, acceptor atom, score
      L1  H     8    54       P1  8028  1.00
      L1  H    11    38       P1  8028  0.94
      L1  H    15    55       P1 10175  0.76
      P1  H  6933  6945       L1     3  0.40
      P1  H  8011  8017       L1    11  0.05

> <Gold.Chemscore.Hbond.Weighted>
-12.4248

> <Gold.Chemscore.Metal.Weighted>
-0.0000

> <Gold.Chemscore.Lipo.Weighted>
-9.0123

> <Gold.Chemscore.Internal_Hbond.Weighted>
0.0000

> <Gold.Chemscore.DEClash.Weighted>
0.2450

> <Gold.Chemscore.DEInternal.Weighted>
0.7546

> <Gold.Chemscore.Rot.Weighted>
5.5666

> <Gold.Chemscore.Internal.Correction.Weighted>
   9.000000E+99

> <Gold.Protein.RotatedTorsions>
[ 6907 6896 6895 6894 ] final -168.94 input  -60.11 | X-H torsion
[ 7974 7965 7964 7962 ] final  -94.49 input  175.53 | X-H torsion
[ 8008 7997 7996 7995 ] final   52.50 input   59.86 | X-H torsion
[ 10167 10162 10161 10158 ] final -144.97 input  -65.29 | X-H torsion
[ 10718 10713 10712 10709 ] final  -96.25 input   66.30 | X-H torsion
[ 10763 10752 10751 10750 ] final  133.33 input  -60.55 | X-H torsion
[ 11005 11000 10999 10996 ] final  -14.41 input  -57.11 | X-H torsion

> <Gold.Protein.ActiveResidues>
 VAL166  LYS551  ARG553  GLY616  TRP617  ASP618  TYR619  PRO620  LYS621  CYS622 
 ASP623  PHE694  ASN695  SER759  ASP760  ASP761  ALA762  ILE779  LEU786  VAL792 
 PHE793  MET794  SER795  GLU796  ALA797  LYS798  CYS799  TRP800  GLU811  SER814 

> <Gold.Protein.RotatedAtoms>
  151.4837  133.3540  159.2841 H   0  0  0  0  0  0  0  0  0  0  0  0  # atno 6907 bound_to 6896
  150.8880  134.8283  159.7284 H   0  0  0  0  0  0  0  0  0  0  0  0  # atno 6908 bound_to 6896
  152.4805  134.4743  159.9697 H   0  0  0  0  0  0  0  0  0  0  0  0  # atno 6909 bound_to 6896
  145.3726  140.9507  143.2439 H   0  0  0  0  0  0  0  0  0  0  0  0  # atno 7974 bound_to 7965
  155.4528  140.3459  155.4303 H   0  0  0  0  0  0  0  0  0  0  0  0  # atno 8008 bound_to 7997
  156.1210  140.1487  156.9234 H   0  0  0  0  0  0  0  0  0  0  0  0  # atno 8009 bound_to 7997
  154.4823  140.0866  156.7385 H   0  0  0  0  0  0  0  0  0  0  0  0  # atno 8010 bound_to 7997
  139.7849  143.8047  152.2643 H   0  0  0  0  0  0  0  0  0  0  0  0  # atno 10167 bound_to 10162
  156.0058  130.5143  150.6198 H   0  0  0  0  0  0  0  0  0  0  0  0  # atno 10718 bound_to 10713
  153.8054  135.3136  155.3395 H   0  0  0  0  0  0  0  0  0  0  0  0  # atno 10763 bound_to 10752
  154.8072  135.4690  154.0426 H   0  0  0  0  0  0  0  0  0  0  0  0  # atno 10764 bound_to 10752
  153.1788  135.6890  153.8595 H   0  0  0  0  0  0  0  0  0  0  0  0  # atno 10765 bound_to 10752
  140.7862  133.8324  155.9337 H   0  0  0  0  0  0  0  0  0  0  0  0  # atno 11005 bound_to 11000
  144.8565  139.5241  143.6832 LP  0  0  0  0  0  0  0  0  0  0  0  0  # atno 17320 bound_to 7965
  146.2878  139.7054  142.9182 LP  0  0  0  0  0  0  0  0  0  0  0  0  # atno 17321 bound_to 7965
  139.8121  144.7331  150.9683 LP  0  0  0  0  0  0  0  0  0  0  0  0  # atno 17342 bound_to 10162
  140.7819  143.4240  151.0797 LP  0  0  0  0  0  0  0  0  0  0  0  0  # atno 17343 bound_to 10162
  157.4015  131.0810  151.1304 LP  0  0  0  0  0  0  0  0  0  0  0  0  # atno 17370 bound_to 10713
  157.1964  130.6375  149.5722 LP  0  0  0  0  0  0  0  0  0  0  0  0  # atno 17371 bound_to 10713
  140.9435  134.1871  157.4781 LP  0  0  0  0  0  0  0  0  0  0  0  0  # atno 17394 bound_to 11000
  139.8736  134.9881  156.5397 LP  0  0  0  0  0  0  0  0  0  0  0  0  # atno 17395 bound_to 11000

$$$$
