AV-unprocessed.smi:2858|AV-procd|sdf|10999|dock10
  -GOLD-   2272015453D 1   1.00000     0.00000
 Structure written by MMmdl.
 40 41  0  0  0  0  0  0  0  0  2 V2000
  143.6251  136.5145  152.1229 O   0  0  0  0  0  0  0  0  0  0  0  0
  144.1533  137.2725  152.9323 C   0  0  0  0  0  0  0  0  0  0  0  0
  145.5586  137.8255  152.6498 C   0  0  0  0  0  0  0  0  0  0  0  0
  145.9269  138.9964  153.4874 N   0  3  2  0  0  0  0  0  0  0  0  0
  147.3289  139.4270  153.2609 C   0  0  0  0  0  0  0  0  0  0  0  0
  147.7022  140.6716  154.0837 C   0  0  0  0  0  0  0  0  0  0  0  0
  149.2209  140.9089  154.1238 C   0  0  0  0  0  0  0  0  0  0  0  0
  149.5805  141.9318  155.0992 N   0  0  0  0  0  0  0  0  0  0  0  0
  150.4165  141.7469  156.1313 C   0  0  0  0  0  0  0  0  0  0  0  0
  150.9675  140.6719  156.3720 O   0  0  0  0  0  0  0  0  0  0  0  0
  150.5494  142.8681  156.8609 N   0  0  0  0  0  0  0  0  0  0  0  0
  151.3068  143.0539  158.0472 C   0  0  0  0  0  0  0  0  0  0  0  0
  151.4080  144.3382  158.6410 C   0  0  0  0  0  0  0  0  0  0  0  0
  152.1416  144.4914  159.8331 C   0  0  0  0  0  0  0  0  0  0  0  0
  152.7460  143.3598  160.4084 C   0  0  0  0  0  0  0  0  0  0  0  0
  152.5802  142.1203  159.7640 C   0  0  0  0  0  0  0  0  0  0  0  0
  151.8758  141.9692  158.6221 N   0  0  0  0  0  0  0  0  0  0  0  0
  145.5951  138.7770  154.9158 C   0  0  0  0  0  0  0  0  0  0  0  0
  144.0840  138.5361  155.0791 C   0  0  0  0  0  0  0  0  0  0  0  0
  143.5368  137.6334  154.0694 N   0  0  0  0  0  0  0  0  0  0  0  0
  146.2761  137.0205  152.8164 H   0  0  0  0  0  0  0  0  0  0  0  0
  145.6234  138.0998  151.5960 H   0  0  0  0  0  0  0  0  0  0  0  0
  148.0099  138.6013  153.4728 H   0  0  0  0  0  0  0  0  0  0  0  0
  147.4579  139.6704  152.2050 H   0  0  0  0  0  0  0  0  0  0  0  0
  147.2106  141.5489  153.6609 H   0  0  0  0  0  0  0  0  0  0  0  0
  147.3307  140.5712  155.1029 H   0  0  0  0  0  0  0  0  0  0  0  0
  149.7479  139.9800  154.3490 H   0  0  0  0  0  0  0  0  0  0  0  0
  149.5734  141.2360  153.1451 H   0  0  0  0  0  0  0  0  0  0  0  0
  149.1691  142.8459  154.9762 H   0  0  0  0  0  0  0  0  0  0  0  0
  149.9552  143.6421  156.6027 H   0  0  0  0  0  0  0  0  0  0  0  0
  150.9252  145.2017  158.2090 H   0  0  0  0  0  0  0  0  0  0  0  0
  152.2331  145.4606  160.3008 H   0  0  0  0  0  0  0  0  0  0  0  0
  153.3157  143.4386  161.3225 H   0  0  0  0  0  0  0  0  0  0  0  0
  153.0213  141.2256  160.1772 H   0  0  0  0  0  0  0  0  0  0  0  0
  146.1550  137.9161  155.2849 H   0  0  0  0  0  0  0  0  0  0  0  0
  145.8885  139.6290  155.5277 H   0  0  0  0  0  0  0  0  0  0  0  0
  143.8673  138.1426  156.0726 H   0  0  0  0  0  0  0  0  0  0  0  0
  143.5515  139.4842  154.9945 H   0  0  0  0  0  0  0  0  0  0  0  0
  142.6152  137.2579  154.2443 H   0  0  0  0  0  0  0  0  0  0  0  0
  145.3401  139.7555  153.1717 H   0  0  0  0  0  0  0  0  0  0  0  0
  1  2  2  0  0  0  0
  2 20  1  0  0  0  0
  2  3  1  0  0  0  0
  3  4  1  0  0  0  0
  3 21  1  0  0  0  0
  3 22  1  0  0  0  0
  4  5  1  0  0  0  0
  4 18  1  0  0  0  0
  4 40  1  0  0  0  0
  5  6  1  0  0  0  0
  5 23  1  0  0  0  0
  5 24  1  0  0  0  0
  6  7  1  0  0  0  0
  6 25  1  0  0  0  0
  6 26  1  0  0  0  0
  7  8  1  0  0  0  0
  7 27  1  0  0  0  0
  7 28  1  0  0  0  0
  8  9  1  0  0  0  0
  8 29  1  0  0  0  0
  9 10  2  0  0  0  0
  9 11  1  0  0  0  0
 11 12  1  0  0  0  0
 11 30  1  0  0  0  0
 12 17  1  0  0  0  0
 12 13  2  0  0  0  0
 13 14  1  0  0  0  0
 13 31  1  0  0  0  0
 14 15  2  0  0  0  0
 14 32  1  0  0  0  0
 15 16  1  0  0  0  0
 15 33  1  0  0  0  0
 16 17  2  0  0  0  0
 16 34  1  0  0  0  0
 18 19  1  0  0  0  0
 18 35  1  0  0  0  0
 18 36  1  0  0  0  0
 19 20  1  0  0  0  0
 19 37  1  0  0  0  0
 19 38  1  0  0  0  0
 20 39  1  0  0  0  0
M  CHG  1   4   1
M  END
> <s_m_source_file>
AV-unprocessed.smi

> <i_m_source_file_index>
2858

> <i_lp_mmshare_version>
43012

> <i_f3d_flags>
0

> <s_epik_input>
Tz1DMVtDSDJdTihbQ0gyXVtDSDJdW05IXTEpW0NIMl1bQ0gyXVtDSDJdW05IXUMoPU8pW05IXWMyW2NIXVtjSF1bY0hdW2NIXW4y

> <s_epik_cmdline>
J2VwaWtfcHl0aG9uJywgJy1waCcsICc3LjAnLCAnLXRuJywgJzgnLCAnLW1hJywgJzIwMCcsICctbWV0YWxfYmluZGluZycsICctaW1hZScsICc8aW5maWxlLm1hZT4nLCAnLW9tYWUnLCAnPG91dGZpbGUubWFlPic=

> <r_epik_Ionization_Penalty>
0.11034

> <r_epik_Ionization_Penalty_Charging>
0.110189

> <r_epik_Ionization_Penalty_Neutral>
0.000150894

> <r_epik_State_Penalty>
0.0999426

> <r_epik_Charging_Adjusted_Penalty>
0.210132

> <i_epik_Tot_Q>
1

> <i_epik_Tot_abs_Q>
1

> <r_epik_Metal_State_Penalty>
0.172915

> <b_epik_Metal_Only>
0

> <s_lp_Force_Field>
OPLS_2005

> <r_lp_Energy>
23.7119

> <b_lp_Chiralities_Consistent>
1

> <s_lp_Variant>
AV-unprocessed.smi:2858-1

> <Gold.Version>
5.8.1

> <Gold.Id.Protein>
6NUR|6NUR_protein|mol2

> <Gold.PLP.Fitness>
47.7236

> <Gold.PLP.PLP>
-35.9585

> <Gold.PLP.part.hbond>
-3.0000

> <Gold.PLP.part.metal>
0.0000

> <Gold.PLP.part.buried>
-2.4948

> <Gold.PLP.part.nonpolar>
-30.0462

> <Gold.PLP.part.repulsive>
0.4666

> <Gold.PLP.ligand.clash>
0.0000

> <Gold.PLP.ligand.torsion>
0.0964

> <Gold.PLP.Chemscore.Hbond>
3.9760

> <Gold.PLP.Chemscore.CHOScore>
0.0000

> <Gold.PLP.Chemscore.Metal>
0.0000

> <Gold.Chemscore.Hbonds>
donor molecule, donor type, donor heavy atom, donor atom, acceptor molecule, acceptor atom, score
      L1  H     4    40       P1 10175  2.00
      L1  H     8    29       P1  8028  1.00
      L1  H    11    30       P1  8028  1.00

> <Gold.PLP.Chemscore.Internal.Correction>
0.0299

> <Gold.Rescore>
     Score         DG    S(hbond)    S(metal)    S(lipo)     H(rot)  DE(clash)    DE(int)     intcor
     17.01     -18.95       2.93        0.00      77.02       2.08       0.38       1.56       ----

> <Gold.Chemscore.Fitness>
17.0124

> <Gold.Chemscore.DG>
-18.9545

> <Gold.Chemscore.ZeroCoef>
-5.4800

> <Gold.Chemscore.Hbond>
2.9289

> <Gold.Chemscore.Metal>
0.0000

> <Gold.Chemscore.Lipo>
77.0162

> <Gold.Chemscore.Internal_Hbond>
0.0000

> <Gold.Chemscore.DEClash>
0.3828

> <Gold.Chemscore.DEInternal>
1.5592

> <Gold.Chemscore.Rot>
2.0777

> <Gold.Chemscore.Internal.Correction>
   9.000000E+99

> <Gold.Chemscore.Hbonds>
donor molecule, donor type, donor heavy atom, donor atom, acceptor molecule, acceptor atom, score
      L1  H     4    40       P1 10175  0.96
      L1  H     8    29       P1  8028  0.91
      L1  H    11    30       P1  8028  1.00

> <Gold.Chemscore.Hbond.Weighted>
-9.7824

> <Gold.Chemscore.Metal.Weighted>
-0.0000

> <Gold.Chemscore.Lipo.Weighted>
-9.0109

> <Gold.Chemscore.Internal_Hbond.Weighted>
0.0000

> <Gold.Chemscore.DEClash.Weighted>
0.3828

> <Gold.Chemscore.DEInternal.Weighted>
1.5592

> <Gold.Chemscore.Rot.Weighted>
5.3188

> <Gold.Chemscore.Internal.Correction.Weighted>
   9.000000E+99

> <Gold.Protein.RotatedTorsions>
[ 6907 6896 6895 6894 ] final  -59.10 input  -60.11 | X-H torsion
[ 7974 7965 7964 7962 ] final  120.95 input  175.53 | X-H torsion
[ 8008 7997 7996 7995 ] final  -55.17 input   59.86 | X-H torsion
[ 10167 10162 10161 10158 ] final  -51.76 input  -65.29 | X-H torsion
[ 10718 10713 10712 10709 ] final   98.60 input   66.30 | X-H torsion
[ 10763 10752 10751 10750 ] final -167.12 input  -60.55 | X-H torsion
[ 11005 11000 10999 10996 ] final   92.70 input  -57.11 | X-H torsion

> <Gold.Protein.ActiveResidues>
 VAL166  LYS551  ARG553  GLY616  TRP617  ASP618  TYR619  PRO620  LYS621  CYS622 
 ASP623  PHE694  ASN695  SER759  ASP760  ASP761  ALA762  ILE779  LEU786  VAL792 
 PHE793  MET794  SER795  GLU796  ALA797  LYS798  CYS799  TRP800  GLU811  SER814 

> <Gold.Protein.RotatedAtoms>
  150.7956  134.7013  159.6551 H   0  0  0  0  0  0  0  0  0  0  0  0  # atno 6907 bound_to 6896
  152.4068  134.6190  160.0055 H   0  0  0  0  0  0  0  0  0  0  0  0  # atno 6908 bound_to 6896
  151.6445  133.3287  159.3174 H   0  0  0  0  0  0  0  0  0  0  0  0  # atno 6909 bound_to 6896
  145.1251  139.3363  143.4694 H   0  0  0  0  0  0  0  0  0  0  0  0  # atno 7974 bound_to 7965
  154.4186  140.1159  156.5434 H   0  0  0  0  0  0  0  0  0  0  0  0  # atno 8008 bound_to 7997
  155.6484  140.3496  155.4720 H   0  0  0  0  0  0  0  0  0  0  0  0  # atno 8009 bound_to 7997
  155.9813  140.1160  157.0714 H   0  0  0  0  0  0  0  0  0  0  0  0  # atno 8010 bound_to 7997
  140.6572  143.2608  151.4551 H   0  0  0  0  0  0  0  0  0  0  0  0  # atno 10167 bound_to 10162
  157.6892  131.0645  150.4821 H   0  0  0  0  0  0  0  0  0  0  0  0  # atno 10718 bound_to 10713
  154.6765  135.2947  154.9672 H   0  0  0  0  0  0  0  0  0  0  0  0  # atno 10763 bound_to 10752
  154.0681  135.6622  153.4824 H   0  0  0  0  0  0  0  0  0  0  0  0  # atno 10764 bound_to 10752
  153.0519  135.5168  154.7786 H   0  0  0  0  0  0  0  0  0  0  0  0  # atno 10765 bound_to 10752
  139.8820  134.8748  156.3610 H   0  0  0  0  0  0  0  0  0  0  0  0  # atno 11005 bound_to 11000
  146.3518  140.1227  142.8600 LP  0  0  0  0  0  0  0  0  0  0  0  0  # atno 17320 bound_to 7965
  145.0697  140.9146  143.4889 LP  0  0  0  0  0  0  0  0  0  0  0  0  # atno 17321 bound_to 7965
  139.5797  144.1738  152.1951 LP  0  0  0  0  0  0  0  0  0  0  0  0  # atno 17342 bound_to 10162
  140.1060  144.5499  150.6957 LP  0  0  0  0  0  0  0  0  0  0  0  0  # atno 17343 bound_to 10162
  156.5153  130.4149  149.6279 LP  0  0  0  0  0  0  0  0  0  0  0  0  # atno 17370 bound_to 10713
  156.3204  130.7277  151.2188 LP  0  0  0  0  0  0  0  0  0  0  0  0  # atno 17371 bound_to 10713
  140.9529  133.7439  156.0296 LP  0  0  0  0  0  0  0  0  0  0  0  0  # atno 17394 bound_to 11000
  140.8084  134.3428  157.5419 LP  0  0  0  0  0  0  0  0  0  0  0  0  # atno 17395 bound_to 11000

$$$$
