AV-unprocessed.smi:2871|AV-procd|sdf|11032|dock2
  -GOLD-   2272015493D 1   1.00000     0.00000
 Structure written by MMmdl.
 38 40  0  0  0  0  0  0  0  0  1 V2000
  151.4524  144.4687  159.2781 C   0  0  0  0  0  0  0  0  0  0  0  0
  152.2145  143.5772  160.1426 N   0  0  0  0  0  0  0  0  0  0  0  0
  152.5181  143.9691  161.5148 C   0  0  0  0  0  0  0  0  0  0  0  0
  152.6476  142.3221  159.6614 C   0  0  0  0  0  0  0  0  0  0  0  0
  153.8802  141.7481  160.0583 C   0  0  0  0  0  0  0  0  0  0  0  0
  154.2089  140.4892  159.5065 C   0  0  0  0  0  0  0  0  0  0  0  0
  155.5040  139.7691  159.8502 C   0  0  0  0  0  0  0  0  0  0  0  0
  155.6002  139.5268  161.1581 F   0  0  0  0  0  0  0  0  0  0  0  0
  155.5577  138.6066  159.1999 F   0  0  0  0  0  0  0  0  0  0  0  0
  156.5452  140.5163  159.4824 F   0  0  0  0  0  0  0  0  0  0  0  0
  153.3832  139.8599  158.6403 N   0  0  0  0  0  0  0  0  0  0  0  0
  152.2462  140.4802  158.3278 C   0  0  0  0  0  0  0  0  0  0  0  0
  151.4294  139.8126  157.4342 N   0  0  0  0  0  0  0  0  0  0  0  0
  151.7628  138.5424  156.7989 C   0  0  2  0  0  0  0  0  0  0  0  0
  151.8329  138.6311  155.2727 C   0  0  0  0  0  0  0  0  0  0  0  0
  150.8837  137.5011  154.8485 C   0  0  2  0  0  0  0  0  0  0  0  0
  149.4147  137.8915  155.0552 C   0  0  0  0  0  0  0  0  0  0  0  0
  149.2904  137.8376  156.5766 C   0  0  0  0  0  0  0  0  0  0  0  0
  150.7128  137.4312  156.9981 C   0  0  1  0  0  0  0  0  0  0  0  0
  151.0582  136.5837  155.9155 O   0  0  0  0  0  0  0  0  0  0  0  0
  151.8421  141.6663  158.7920 N   0  0  0  0  0  0  0  0  0  0  0  0
  152.0359  144.7373  158.3971 H   0  0  0  0  0  0  0  0  0  0  0  0
  151.1868  145.3911  159.7949 H   0  0  0  0  0  0  0  0  0  0  0  0
  150.5275  143.9920  158.9526 H   0  0  0  0  0  0  0  0  0  0  0  0
  153.5957  143.9883  161.6800 H   0  0  0  0  0  0  0  0  0  0  0  0
  152.0731  143.2658  162.2193 H   0  0  0  0  0  0  0  0  0  0  0  0
  152.1284  144.9614  161.7415 H   0  0  0  0  0  0  0  0  0  0  0  0
  154.5491  142.2390  160.7486 H   0  0  0  0  0  0  0  0  0  0  0  0
  150.5022  140.1861  157.2924 H   0  0  0  0  0  0  0  0  0  0  0  0
  152.7278  138.2006  157.1756 H   0  0  0  0  0  0  0  0  0  0  0  0
  151.5213  139.5970  154.8724 H   0  0  0  0  0  0  0  0  0  0  0  0
  152.8497  138.4355  154.9302 H   0  0  0  0  0  0  0  0  0  0  0  0
  151.0970  137.0907  153.8611 H   0  0  0  0  0  0  0  0  0  0  0  0
  149.1832  138.8749  154.6449 H   0  0  0  0  0  0  0  0  0  0  0  0
  148.7497  137.1619  154.5919 H   0  0  0  0  0  0  0  0  0  0  0  0
  148.9687  138.7838  157.0120 H   0  0  0  0  0  0  0  0  0  0  0  0
  148.5713  137.0723  156.8704 H   0  0  0  0  0  0  0  0  0  0  0  0
  150.7609  136.9451  157.9730 H   0  0  0  0  0  0  0  0  0  0  0  0
  1  2  1  0  0  0  0
  1 22  1  0  0  0  0
  1 23  1  0  0  0  0
  1 24  1  0  0  0  0
  2  3  1  0  0  0  0
  2  4  1  0  0  0  0
  3 25  1  0  0  0  0
  3 26  1  0  0  0  0
  3 27  1  0  0  0  0
  4 21  1  0  0  0  0
  4  5  2  0  0  0  0
  5  6  1  0  0  0  0
  5 28  1  0  0  0  0
  6  7  1  0  0  0  0
  6 11  2  0  0  0  0
  7  8  1  0  0  0  0
  7  9  1  0  0  0  0
  7 10  1  0  0  0  0
 11 12  1  0  0  0  0
 12 13  1  0  0  0  0
 12 21  2  0  0  0  0
 13 14  1  0  0  0  0
 13 29  1  0  0  0  0
 14 19  1  0  0  0  0
 14 15  1  0  0  0  0
 14 30  1  0  0  0  0
 15 16  1  0  0  0  0
 15 31  1  0  0  0  0
 15 32  1  0  0  0  0
 16 20  1  0  0  0  0
 16 17  1  0  0  0  0
 16 33  1  0  0  0  0
 17 18  1  0  0  0  0
 17 34  1  0  0  0  0
 17 35  1  0  0  0  0
 18 19  1  0  0  0  0
 18 36  1  0  0  0  0
 18 37  1  0  0  0  0
 19 20  1  0  0  0  0
 19 38  1  0  0  0  0
M  END
> <s_m_source_file>
AV-unprocessed.smi

> <i_m_source_file_index>
2871

> <i_lp_mmshare_version>
43012

> <i_f3d_flags>
0

> <s_epik_input>
W0NIM11OKFtDSDNdKWMxW2NIXWMoQyhGKShGKUYpbmMobjEpW05IXVtDQEhdKFtDSDJdW0NAQEhdMjMpW0NAQEhdKE8zKVtDSDJdW0NIMl0y

> <s_epik_cmdline>
J2VwaWtfcHl0aG9uJywgJy1waCcsICc3LjAnLCAnLXRuJywgJzgnLCAnLW1hJywgJzIwMCcsICctbWV0YWxfYmluZGluZycsICctaW1hZScsICc8aW5maWxlLm1hZT4nLCAnLW9tYWUnLCAnPG91dGZpbGUubWFlPic=

> <r_lp_tautomer_probability>
1

> <r_epik_Ionization_Penalty>
0.00695968

> <r_epik_Ionization_Penalty_Charging>
0

> <r_epik_Ionization_Penalty_Neutral>
0.00695968

> <r_epik_State_Penalty>
0.0050343

> <r_epik_Charging_Adjusted_Penalty>
0.0050343

> <i_epik_Tot_Q>
0

> <i_epik_Tot_abs_Q>
0

> <r_epik_Metal_State_Penalty>
-0

> <b_epik_Metal_Only>
0

> <s_lp_Force_Field>
OPLS_2005

> <r_lp_Energy>
33.2945

> <b_lp_Chiralities_Consistent>
1

> <s_lp_Variant>
AV-unprocessed.smi:2871-3

> <Gold.Version>
5.8.1

> <Gold.Id.Protein>
6NUR|6NUR_protein|mol2

> <Gold.PLP.Fitness>
48.2656

> <Gold.PLP.PLP>
-43.2264

> <Gold.PLP.part.hbond>
-2.0000

> <Gold.PLP.part.metal>
0.0000

> <Gold.PLP.part.buried>
-5.6745

> <Gold.PLP.part.nonpolar>
-36.6045

> <Gold.PLP.part.repulsive>
0.1992

> <Gold.PLP.ligand.clash>
0.0000

> <Gold.PLP.ligand.torsion>
0.5090

> <Gold.PLP.Chemscore.Hbond>
2.0000

> <Gold.PLP.Chemscore.CHOScore>
0.0000

> <Gold.PLP.Chemscore.Metal>
0.0000

> <Gold.Chemscore.Hbonds>
donor molecule, donor type, donor heavy atom, donor atom, acceptor molecule, acceptor atom, score
      P1  H  7997  8008       L1    11  0.45

> <Gold.PLP.Chemscore.Internal.Correction>
0.0572

> <Gold.Rescore>
     Score         DG    S(hbond)    S(metal)    S(lipo)     H(rot)  DE(clash)    DE(int)     intcor
     16.97     -17.76       1.24        0.00      91.37       1.00       0.56       0.23       ----

> <Gold.Chemscore.Fitness>
16.9738

> <Gold.Chemscore.DG>
-17.7647

> <Gold.Chemscore.ZeroCoef>
-5.4800

> <Gold.Chemscore.Hbond>
1.2437

> <Gold.Chemscore.Metal>
0.0000

> <Gold.Chemscore.Lipo>
91.3748

> <Gold.Chemscore.Internal_Hbond>
0.0000

> <Gold.Chemscore.DEClash>
0.5567

> <Gold.Chemscore.DEInternal>
0.2342

> <Gold.Chemscore.Rot>
1.0000

> <Gold.Chemscore.Internal.Correction>
   9.000000E+99

> <Gold.Chemscore.Hbonds>
donor molecule, donor type, donor heavy atom, donor atom, acceptor molecule, acceptor atom, score
      P1  H  7997  8008       L1    11  0.01

> <Gold.Chemscore.Hbond.Weighted>
-4.1538

> <Gold.Chemscore.Metal.Weighted>
-0.0000

> <Gold.Chemscore.Lipo.Weighted>
-10.6909

> <Gold.Chemscore.Internal_Hbond.Weighted>
0.0000

> <Gold.Chemscore.DEClash.Weighted>
0.5567

> <Gold.Chemscore.DEInternal.Weighted>
0.2342

> <Gold.Chemscore.Rot.Weighted>
2.5600

> <Gold.Chemscore.Internal.Correction.Weighted>
   9.000000E+99

> <Gold.Protein.RotatedTorsions>
[ 6907 6896 6895 6894 ] final -126.13 input  -60.11 | X-H torsion
[ 7974 7965 7964 7962 ] final   14.56 input  175.53 | X-H torsion
[ 8008 7997 7996 7995 ] final -103.47 input   59.86 | X-H torsion
[ 10167 10162 10161 10158 ] final    2.56 input  -65.29 | X-H torsion
[ 10718 10713 10712 10709 ] final -171.05 input   66.30 | X-H torsion
[ 10763 10752 10751 10750 ] final   71.05 input  -60.55 | X-H torsion
[ 11005 11000 10999 10996 ] final  -23.31 input  -57.11 | X-H torsion

> <Gold.Protein.ActiveResidues>
 VAL166  LYS551  ARG553  GLY616  TRP617  ASP618  TYR619  PRO620  LYS621  CYS622 
 ASP623  PHE694  ASN695  SER759  ASP760  ASP761  ALA762  ILE779  LEU786  VAL792 
 PHE793  MET794  SER795  GLU796  ALA797  LYS798  CYS799  TRP800  GLU811  SER814 

> <Gold.Protein.RotatedAtoms>
  150.8937  133.7209  159.2897 H   0  0  0  0  0  0  0  0  0  0  0  0  # atno 6907 bound_to 6896
  151.4750  135.1047  159.9771 H   0  0  0  0  0  0  0  0  0  0  0  0  # atno 6908 bound_to 6896
  152.4836  133.8268  159.7138 H   0  0  0  0  0  0  0  0  0  0  0  0  # atno 6909 bound_to 6896
  146.2302  139.9023  142.8537 H   0  0  0  0  0  0  0  0  0  0  0  0  # atno 7974 bound_to 7965
  154.8714  140.0422  157.1727 H   0  0  0  0  0  0  0  0  0  0  0  0  # atno 8008 bound_to 7997
  154.8735  140.2962  155.5446 H   0  0  0  0  0  0  0  0  0  0  0  0  # atno 8009 bound_to 7997
  156.2999  140.2424  156.3727 H   0  0  0  0  0  0  0  0  0  0  0  0  # atno 8010 bound_to 7997
  140.6629  143.7257  150.7772 H   0  0  0  0  0  0  0  0  0  0  0  0  # atno 10167 bound_to 10162
  156.7352  130.9321  151.3107 H   0  0  0  0  0  0  0  0  0  0  0  0  # atno 10718 bound_to 10713
  153.0377  135.5151  154.7535 H   0  0  0  0  0  0  0  0  0  0  0  0  # atno 10763 bound_to 10752
  154.6498  135.2923  155.0003 H   0  0  0  0  0  0  0  0  0  0  0  0  # atno 10764 bound_to 10752
  154.0891  135.6653  153.4902 H   0  0  0  0  0  0  0  0  0  0  0  0  # atno 10765 bound_to 10752
  140.8739  133.7701  156.0220 H   0  0  0  0  0  0  0  0  0  0  0  0  # atno 11005 bound_to 11000
  145.2311  140.9973  143.3990 LP  0  0  0  0  0  0  0  0  0  0  0  0  # atno 17320 bound_to 7965
  144.9529  139.4063  143.6393 LP  0  0  0  0  0  0  0  0  0  0  0  0  # atno 17321 bound_to 7965
  140.0928  143.4861  152.2469 LP  0  0  0  0  0  0  0  0  0  0  0  0  # atno 17342 bound_to 10162
  139.5868  144.7534  151.3500 LP  0  0  0  0  0  0  0  0  0  0  0  0  # atno 17343 bound_to 10162
  157.6842  130.9169  150.0343 LP  0  0  0  0  0  0  0  0  0  0  0  0  # atno 17370 bound_to 10713
  156.1502  130.3642  149.9450 LP  0  0  0  0  0  0  0  0  0  0  0  0  # atno 17371 bound_to 10713
  140.8541  134.2919  157.5263 LP  0  0  0  0  0  0  0  0  0  0  0  0  # atno 17394 bound_to 11000
  139.8714  134.9483  156.3993 LP  0  0  0  0  0  0  0  0  0  0  0  0  # atno 17395 bound_to 11000

$$$$
