AV-unprocessed.smi:1020|AV-procd|sdf|4453|dock5
  -GOLD-   22720 2423D 1   1.00000     0.00000
 Structure written by MMmdl.
 46 47  0  0  0  0  0  0  0  0  1 V2000
  147.4839  133.7508  162.3716 C   0  0  0  0  0  0  0  0  0  0  0  0
  146.5992  135.0025  162.3820 C   0  0  0  0  0  0  0  0  0  0  0  0
  145.1710  134.6796  162.8481 C   0  0  0  0  0  0  0  0  0  0  0  0
  146.5834  135.5128  161.0555 O   0  0  0  0  0  0  0  0  0  0  0  0
  147.8384  135.9901  160.5904 C   0  0  0  0  0  0  0  0  0  0  0  0
  147.7098  136.4150  159.1220 C   0  0  0  0  0  0  0  0  0  0  0  0
  148.9381  137.0864  158.6030 C   0  0  0  0  0  0  0  0  0  0  0  0
  148.9965  138.1740  157.8384 N   0  0  0  0  0  0  0  0  0  0  0  0
  150.3372  138.2690  157.6191 C   0  0  0  0  0  0  0  0  0  0  0  0
  150.9497  139.3514  156.7876 C   0  0  0  0  0  0  0  0  0  0  0  0
  151.8507  140.2461  157.6413 C   0  0  0  0  0  0  0  0  0  0  0  0
  152.8906  139.7940  158.1204 O   0  0  0  0  0  0  0  0  0  0  0  0
  151.4416  141.5123  157.8228 N   0  0  0  0  0  0  0  0  0  0  0  0
  152.1313  142.5160  158.6266 C   0  0  0  0  0  0  0  0  0  0  0  0
  152.1394  142.1048  160.1136 C   0  0  0  0  0  0  0  0  0  0  0  0
  152.7853  143.1851  160.9955 C   0  0  0  0  0  0  0  0  0  0  0  0
  152.0978  144.5458  160.8043 C   0  0  0  0  0  0  0  0  0  0  0  0
  152.0954  144.9624  159.3250 C   0  0  0  0  0  0  0  0  0  0  0  0
  151.4465  143.8835  158.4426 C   0  0  0  0  0  0  0  0  0  0  0  0
  151.0847  137.3304  158.1893 N   0  0  0  0  0  0  0  0  0  0  0  0
  150.1453  136.5206  158.8435 O   0  0  0  0  0  0  0  0  0  0  0  0
  147.5508  133.3057  163.3645 H   0  0  0  0  0  0  0  0  0  0  0  0
  148.4954  133.9976  162.0513 H   0  0  0  0  0  0  0  0  0  0  0  0
  147.0941  132.9944  161.6897 H   0  0  0  0  0  0  0  0  0  0  0  0
  147.0516  135.7284  163.0598 H   0  0  0  0  0  0  0  0  0  0  0  0
  145.1774  134.2387  163.8453 H   0  0  0  0  0  0  0  0  0  0  0  0
  144.6886  133.9707  162.1744 H   0  0  0  0  0  0  0  0  0  0  0  0
  144.5483  135.5727  162.8930 H   0  0  0  0  0  0  0  0  0  0  0  0
  148.1746  136.8376  161.1876 H   0  0  0  0  0  0  0  0  0  0  0  0
  148.5917  135.2059  160.6822 H   0  0  0  0  0  0  0  0  0  0  0  0
  147.4998  135.5432  158.5012 H   0  0  0  0  0  0  0  0  0  0  0  0
  146.8643  137.0933  159.0036 H   0  0  0  0  0  0  0  0  0  0  0  0
  151.5298  138.9036  155.9795 H   0  0  0  0  0  0  0  0  0  0  0  0
  150.1686  139.9540  156.3218 H   0  0  0  0  0  0  0  0  0  0  0  0
  150.5746  141.7958  157.3889 H   0  0  0  0  0  0  0  0  0  0  0  0
  153.1625  142.6026  158.2780 H   0  0  0  0  0  0  0  0  0  0  0  0
  151.1172  141.9274  160.4512 H   0  0  0  0  0  0  0  0  0  0  0  0
  152.6754  141.1636  160.2422 H   0  0  0  0  0  0  0  0  0  0  0  0
  152.7358  142.8867  162.0431 H   0  0  0  0  0  0  0  0  0  0  0  0
  153.8443  143.2723  160.7484 H   0  0  0  0  0  0  0  0  0  0  0  0
  151.0719  144.4918  161.1705 H   0  0  0  0  0  0  0  0  0  0  0  0
  152.6011  145.3049  161.4038 H   0  0  0  0  0  0  0  0  0  0  0  0
  151.5653  145.9079  159.2061 H   0  0  0  0  0  0  0  0  0  0  0  0
  153.1195  145.1382  158.9929 H   0  0  0  0  0  0  0  0  0  0  0  0
  151.4943  144.1883  157.3966 H   0  0  0  0  0  0  0  0  0  0  0  0
  150.3873  143.8036  158.6928 H   0  0  0  0  0  0  0  0  0  0  0  0
  1  2  1  0  0  0  0
  1 22  1  0  0  0  0
  1 23  1  0  0  0  0
  1 24  1  0  0  0  0
  2  3  1  0  0  0  0
  2  4  1  0  0  0  0
  2 25  1  0  0  0  0
  3 26  1  0  0  0  0
  3 27  1  0  0  0  0
  3 28  1  0  0  0  0
  4  5  1  0  0  0  0
  5  6  1  0  0  0  0
  5 29  1  0  0  0  0
  5 30  1  0  0  0  0
  6  7  1  0  0  0  0
  6 31  1  0  0  0  0
  6 32  1  0  0  0  0
  7 21  1  0  0  0  0
  7  8  2  0  0  0  0
  8  9  1  0  0  0  0
  9 10  1  0  0  0  0
  9 20  2  0  0  0  0
 10 11  1  0  0  0  0
 10 33  1  0  0  0  0
 10 34  1  0  0  0  0
 11 12  2  0  0  0  0
 11 13  1  0  0  0  0
 13 14  1  0  0  0  0
 13 35  1  0  0  0  0
 14 19  1  0  0  0  0
 14 15  1  0  0  0  0
 14 36  1  0  0  0  0
 15 16  1  0  0  0  0
 15 37  1  0  0  0  0
 15 38  1  0  0  0  0
 16 17  1  0  0  0  0
 16 39  1  0  0  0  0
 16 40  1  0  0  0  0
 17 18  1  0  0  0  0
 17 41  1  0  0  0  0
 17 42  1  0  0  0  0
 18 19  1  0  0  0  0
 18 43  1  0  0  0  0
 18 44  1  0  0  0  0
 19 45  1  0  0  0  0
 19 46  1  0  0  0  0
 20 21  1  0  0  0  0
M  END
> <s_m_source_file>
AV-unprocessed.smi

> <i_m_source_file_index>
1020

> <i_lp_mmshare_version>
43012

> <i_f3d_flags>
0

> <s_epik_input>
W0NIM11bQ0hdKFtDSDNdKU9bQ0gyXVtDSDJdYzFuYyhubzEpW0NIMl1DKD1PKVtOSF1bQ0hdMltDSDJdW0NIMl1bQ0gyXVtDSDJdW0NIMl0y

> <s_epik_cmdline>
J2VwaWtfcHl0aG9uJywgJy1waCcsICc3LjAnLCAnLXRuJywgJzgnLCAnLW1hJywgJzIwMCcsICctbWV0YWxfYmluZGluZycsICctaW1hZScsICc8aW5maWxlLm1hZT4nLCAnLW9tYWUnLCAnPG91dGZpbGUubWFlPic=

> <r_lp_tautomer_probability>
1

> <r_epik_Ionization_Penalty>
6.23671e-08

> <r_epik_Ionization_Penalty_Charging>
0

> <r_epik_Ionization_Penalty_Neutral>
6.23671e-08

> <r_epik_State_Penalty>
-0

> <r_epik_Charging_Adjusted_Penalty>
0

> <i_epik_Tot_Q>
0

> <i_epik_Tot_abs_Q>
0

> <r_epik_Metal_State_Penalty>
-0

> <b_epik_Metal_Only>
0

> <s_lp_Force_Field>
OPLS_2005

> <r_lp_Energy>
5.58856

> <b_lp_Chiralities_Consistent>
1

> <s_lp_Variant>
AV-unprocessed.smi:1020-1

> <Gold.Version>
5.8.1

> <Gold.Id.Protein>
6NUR|6NUR_protein|mol2

> <Gold.PLP.Fitness>
48.6300

> <Gold.PLP.PLP>
-43.1640

> <Gold.PLP.part.hbond>
-2.0000

> <Gold.PLP.part.metal>
0.0000

> <Gold.PLP.part.buried>
-6.7657

> <Gold.PLP.part.nonpolar>
-34.6685

> <Gold.PLP.part.repulsive>
0.0681

> <Gold.PLP.ligand.clash>
0.0000

> <Gold.PLP.ligand.torsion>
0.3312

> <Gold.PLP.Chemscore.Hbond>
1.9920

> <Gold.PLP.Chemscore.CHOScore>
0.0000

> <Gold.PLP.Chemscore.Metal>
0.0000

> <Gold.Chemscore.Hbonds>
donor molecule, donor type, donor heavy atom, donor atom, acceptor molecule, acceptor atom, score
      P1  H  6896  6909       L1    21  1.00
      P1  H  7997  8010       L1    12  0.94

> <Gold.PLP.Chemscore.Internal.Correction>
0.1524

> <Gold.Rescore>
     Score         DG    S(hbond)    S(metal)    S(lipo)     H(rot)  DE(clash)    DE(int)     intcor
     18.96     -19.46       1.95        0.00     109.63       2.10       0.04       0.47       ----

> <Gold.Chemscore.Fitness>
18.9550

> <Gold.Chemscore.DG>
-19.4646

> <Gold.Chemscore.ZeroCoef>
-5.4800

> <Gold.Chemscore.Hbond>
1.9549

> <Gold.Chemscore.Metal>
0.0000

> <Gold.Chemscore.Lipo>
109.6284

> <Gold.Chemscore.Internal_Hbond>
0.0000

> <Gold.Chemscore.DEClash>
0.0398

> <Gold.Chemscore.DEInternal>
0.4697

> <Gold.Chemscore.Rot>
2.0982

> <Gold.Chemscore.Internal.Correction>
   9.000000E+99

> <Gold.Chemscore.Hbonds>
donor molecule, donor type, donor heavy atom, donor atom, acceptor molecule, acceptor atom, score
      P1  H  6896  6909       L1    21  0.90
      P1  H  7997  8010       L1    12  0.66

> <Gold.Chemscore.Hbond.Weighted>
-6.5293

> <Gold.Chemscore.Metal.Weighted>
-0.0000

> <Gold.Chemscore.Lipo.Weighted>
-12.8265

> <Gold.Chemscore.Internal_Hbond.Weighted>
0.0000

> <Gold.Chemscore.DEClash.Weighted>
0.0398

> <Gold.Chemscore.DEInternal.Weighted>
0.4697

> <Gold.Chemscore.Rot.Weighted>
5.3713

> <Gold.Chemscore.Internal.Correction.Weighted>
   9.000000E+99

> <Gold.Protein.RotatedTorsions>
[ 6907 6896 6895 6894 ] final   71.62 input  -60.11 | X-H torsion
[ 7974 7965 7964 7962 ] final  105.37 input  175.53 | X-H torsion
[ 8008 7997 7996 7995 ] final   51.47 input   59.86 | X-H torsion
[ 10167 10162 10161 10158 ] final  135.49 input  -65.29 | X-H torsion
[ 10718 10713 10712 10709 ] final   28.33 input   66.30 | X-H torsion
[ 10763 10752 10751 10750 ] final    3.48 input  -60.55 | X-H torsion
[ 11005 11000 10999 10996 ] final  113.58 input  -57.11 | X-H torsion

> <Gold.Protein.ActiveResidues>
 VAL166  LYS551  ARG553  GLY616  TRP617  ASP618  TYR619  PRO620  LYS621  CYS622 
 ASP623  PHE694  ASN695  SER759  ASP760  ASP761  ALA762  ILE779  LEU786  VAL792 
 PHE793  MET794  SER795  GLU796  ALA797  LYS798  CYS799  TRP800  GLU811  SER814 

> <Gold.Protein.RotatedAtoms>
  152.4820  134.4693  159.9630 H   0  0  0  0  0  0  0  0  0  0  0  0  # atno 6907 bound_to 6896
  151.4697  133.3566  159.2829 H   0  0  0  0  0  0  0  0  0  0  0  0  # atno 6908 bound_to 6896
  150.8900  134.8329  159.7347 H   0  0  0  0  0  0  0  0  0  0  0  0  # atno 6909 bound_to 6896
  145.3205  139.2514  143.3714 H   0  0  0  0  0  0  0  0  0  0  0  0  # atno 7974 bound_to 7965
  155.4358  140.3452  155.4285 H   0  0  0  0  0  0  0  0  0  0  0  0  # atno 8008 bound_to 7997
  156.1309  140.1514  156.9098 H   0  0  0  0  0  0  0  0  0  0  0  0  # atno 8009 bound_to 7997
  154.4894  140.0846  156.7540 H   0  0  0  0  0  0  0  0  0  0  0  0  # atno 8010 bound_to 7997
  139.5215  144.6514  151.5291 H   0  0  0  0  0  0  0  0  0  0  0  0  # atno 10167 bound_to 10162
  157.2320  130.7028  149.6318 H   0  0  0  0  0  0  0  0  0  0  0  0  # atno 10718 bound_to 10713
  153.2828  135.6942  153.7369 H   0  0  0  0  0  0  0  0  0  0  0  0  # atno 10763 bound_to 10752
  153.6350  135.3403  155.3054 H   0  0  0  0  0  0  0  0  0  0  0  0  # atno 10764 bound_to 10752
  154.8500  135.4418  154.1886 H   0  0  0  0  0  0  0  0  0  0  0  0  # atno 10765 bound_to 10752
  139.8957  134.9552  156.6761 H   0  0  0  0  0  0  0  0  0  0  0  0  # atno 11005 bound_to 11000
  146.3084  140.3762  142.8679 LP  0  0  0  0  0  0  0  0  0  0  0  0  # atno 17320 bound_to 7965
  144.8943  140.7563  143.5907 LP  0  0  0  0  0  0  0  0  0  0  0  0  # atno 17321 bound_to 7965
  140.6320  143.9057  150.6614 LP  0  0  0  0  0  0  0  0  0  0  0  0  # atno 17342 bound_to 10162
  140.2364  143.3696  152.1523 LP  0  0  0  0  0  0  0  0  0  0  0  0  # atno 17343 bound_to 10162
  155.9675  130.4486  150.5625 LP  0  0  0  0  0  0  0  0  0  0  0  0  # atno 17370 bound_to 10713
  157.3468  131.0726  151.1744 LP  0  0  0  0  0  0  0  0  0  0  0  0  # atno 17371 bound_to 10713
  140.7336  133.9038  155.8228 LP  0  0  0  0  0  0  0  0  0  0  0  0  # atno 17394 bound_to 11000
  141.0134  134.0989  157.4198 LP  0  0  0  0  0  0  0  0  0  0  0  0  # atno 17395 bound_to 11000

$$$$
