AV-unprocessed.smi:1047|AV-procd|sdf|4592|dock2
  -GOLD-   22720 3 73D 1   1.00000     0.00000
 Structure written by MMmdl.
 55 57  0  0  0  0  0  0  0  0  1 V2000
  143.7824  133.8322  150.9161 C   0  0  0  0  0  0  0  0  0  0  0  0
  144.6144  135.0995  150.6735 C   0  0  0  0  0  0  0  0  0  0  0  0
  144.7874  135.9560  151.8454 N   0  0  0  0  0  0  0  0  0  0  0  0
  145.3062  135.1959  152.9766 C   0  0  0  0  0  0  0  0  0  0  0  0
  145.4970  136.0788  154.2208 C   0  0  0  0  0  0  0  0  0  0  0  0
  146.3576  137.1672  153.9012 O   0  0  0  0  0  0  0  0  0  0  0  0
  145.8646  137.9746  152.8351 C   0  0  1  0  0  0  0  0  0  0  0  0
  146.8714  139.1114  152.6038 C   0  0  0  0  0  0  0  0  0  0  0  0
  148.1748  138.7960  153.1809 N   0  0  0  0  0  0  0  0  0  0  0  0
  148.3695  139.3571  154.5145 C   0  0  0  0  0  0  0  0  0  0  0  0
  149.3358  140.5531  154.4832 C   0  0  2  0  0  0  0  0  0  0  0  0
  149.1547  141.2387  153.2597 O   0  0  0  0  0  0  0  0  0  0  0  0
  150.8043  140.0993  154.5922 C   0  0  0  0  0  0  0  0  0  0  0  0
  151.2316  139.9087  155.9674 N   0  0  0  0  0  0  0  0  0  0  0  0
  151.4562  138.7354  156.5890 C   0  0  0  0  0  0  0  0  0  0  0  0
  151.8515  138.7835  157.8578 N   0  0  0  0  0  0  0  0  0  0  0  0
  151.8869  140.1485  158.0866 C   0  0  0  0  0  0  0  0  0  0  0  0
  152.2343  140.8742  159.2472 C   0  0  0  0  0  0  0  0  0  0  0  0
  152.1989  142.2868  159.2567 C   0  0  0  0  0  0  0  0  0  0  0  0
  152.5828  143.0269  160.5259 C   0  0  0  0  0  0  0  0  0  0  0  0
  151.8078  142.9953  158.0921 C   0  0  0  0  0  0  0  0  0  0  0  0
  151.7563  144.5129  158.0804 C   0  0  0  0  0  0  0  0  0  0  0  0
  151.4600  142.2860  156.9234 C   0  0  0  0  0  0  0  0  0  0  0  0
  151.5023  140.8806  156.9252 C   0  0  0  0  0  0  0  0  0  0  0  0
  145.6774  137.0858  151.5871 C   0  0  0  0  0  0  0  0  0  0  0  0
  143.7920  133.1936  150.0326 H   0  0  0  0  0  0  0  0  0  0  0  0
  142.7407  134.0631  151.1361 H   0  0  0  0  0  0  0  0  0  0  0  0
  144.1837  133.2523  151.7475 H   0  0  0  0  0  0  0  0  0  0  0  0
  145.5971  134.7812  150.3233 H   0  0  0  0  0  0  0  0  0  0  0  0
  144.1757  135.6727  149.8555 H   0  0  0  0  0  0  0  0  0  0  0  0
  144.6259  134.3780  153.2169 H   0  0  0  0  0  0  0  0  0  0  0  0
  146.2609  134.7395  152.7098 H   0  0  0  0  0  0  0  0  0  0  0  0
  144.5378  136.4552  154.5800 H   0  0  0  0  0  0  0  0  0  0  0  0
  145.9387  135.5008  155.0325 H   0  0  0  0  0  0  0  0  0  0  0  0
  144.9052  138.3978  153.1402 H   0  0  0  0  0  0  0  0  0  0  0  0
  146.9836  139.2690  151.5304 H   0  0  0  0  0  0  0  0  0  0  0  0
  146.4851  140.0447  153.0151 H   0  0  0  0  0  0  0  0  0  0  0  0
  148.9103  139.1203  152.5612 H   0  0  0  0  0  0  0  0  0  0  0  0
  147.4048  139.6940  154.8960 H   0  0  0  0  0  0  0  0  0  0  0  0
  148.7251  138.5950  155.2095 H   0  0  0  0  0  0  0  0  0  0  0  0
  149.1140  141.2345  155.3061 H   0  0  0  0  0  0  0  0  0  0  0  0
  149.0570  140.5980  152.5718 H   0  0  0  0  0  0  0  0  0  0  0  0
  150.9465  139.1570  154.0613 H   0  0  0  0  0  0  0  0  0  0  0  0
  151.4658  140.8247  154.1166 H   0  0  0  0  0  0  0  0  0  0  0  0
  151.3228  137.7922  156.0796 H   0  0  0  0  0  0  0  0  0  0  0  0
  152.5301  140.3338  160.1341 H   0  0  0  0  0  0  0  0  0  0  0  0
  153.4228  143.6960  160.3386 H   0  0  0  0  0  0  0  0  0  0  0  0
  152.8763  142.3359  161.3169 H   0  0  0  0  0  0  0  0  0  0  0  0
  151.7433  143.6181  160.8920 H   0  0  0  0  0  0  0  0  0  0  0  0
  151.4031  144.8912  157.1209 H   0  0  0  0  0  0  0  0  0  0  0  0
  152.7471  144.9302  158.2613 H   0  0  0  0  0  0  0  0  0  0  0  0
  151.0793  144.8791  158.8524 H   0  0  0  0  0  0  0  0  0  0  0  0
  151.1592  142.8127  156.0298 H   0  0  0  0  0  0  0  0  0  0  0  0
  146.6493  136.7201  151.2516 H   0  0  0  0  0  0  0  0  0  0  0  0
  145.2792  137.6979  150.7784 H   0  0  0  0  0  0  0  0  0  0  0  0
  1  2  1  0  0  0  0
  1 26  1  0  0  0  0
  1 27  1  0  0  0  0
  1 28  1  0  0  0  0
  2  3  1  0  0  0  0
  2 29  1  0  0  0  0
  2 30  1  0  0  0  0
  3 25  1  0  0  0  0
  3  4  1  0  0  0  0
  4  5  1  0  0  0  0
  4 31  1  0  0  0  0
  4 32  1  0  0  0  0
  5  6  1  0  0  0  0
  5 33  1  0  0  0  0
  5 34  1  0  0  0  0
  6  7  1  0  0  0  0
  7  8  1  0  0  0  0
  7 25  1  0  0  0  0
  7 35  1  0  0  0  0
  8  9  1  0  0  0  0
  8 36  1  0  0  0  0
  8 37  1  0  0  0  0
  9 10  1  0  0  0  0
  9 38  1  0  0  0  0
 10 11  1  0  0  0  0
 10 39  1  0  0  0  0
 10 40  1  0  0  0  0
 11 12  1  0  0  0  0
 11 13  1  0  0  0  0
 11 41  1  0  0  0  0
 12 42  1  0  0  0  0
 13 14  1  0  0  0  0
 13 43  1  0  0  0  0
 13 44  1  0  0  0  0
 14 24  1  0  0  0  0
 14 15  1  0  0  0  0
 15 16  2  0  0  0  0
 15 45  1  0  0  0  0
 16 17  1  0  0  0  0
 17 24  2  0  0  0  0
 17 18  1  0  0  0  0
 18 19  2  0  0  0  0
 18 46  1  0  0  0  0
 19 20  1  0  0  0  0
 19 21  1  0  0  0  0
 20 47  1  0  0  0  0
 20 48  1  0  0  0  0
 20 49  1  0  0  0  0
 21 22  1  0  0  0  0
 21 23  2  0  0  0  0
 22 50  1  0  0  0  0
 22 51  1  0  0  0  0
 22 52  1  0  0  0  0
 23 24  1  0  0  0  0
 23 53  1  0  0  0  0
 25 54  1  0  0  0  0
 25 55  1  0  0  0  0
M  END
> <s_m_source_file>
AV-unprocessed.smi

> <i_m_source_file_index>
1047

> <i_lp_mmshare_version>
43012

> <i_f3d_flags>
0

> <s_epik_input>
W0NIM11bQ0gyXU4xW0NIMl1bQ0gyXU9bQ0BIXShbQ0gyXTEpW0NIMl1bTkhdW0NIMl1bQ0BIXShbT0hdKVtDSDJdbihbY0hdbjIpYyhjMjMpW2NIXWMoW0NIM10pYyhbY0hdMylbQ0gzXQ==

> <s_epik_cmdline>
J2VwaWtfcHl0aG9uJywgJy1waCcsICc3LjAnLCAnLXRuJywgJzgnLCAnLW1hJywgJzIwMCcsICctbWV0YWxfYmluZGluZycsICctaW1hZScsICc8aW5maWxlLm1hZT4nLCAnLW9tYWUnLCAnPG91dGZpbGUubWFlPic=

> <r_epik_Ionization_Penalty>
2.74124

> <r_epik_Ionization_Penalty_Charging>
0

> <r_epik_Ionization_Penalty_Neutral>
2.74124

> <r_epik_State_Penalty>
2.37482

> <r_epik_Charging_Adjusted_Penalty>
2.37482

> <i_epik_Tot_Q>
0

> <i_epik_Tot_abs_Q>
0

> <r_epik_Metal_State_Penalty>
2.25944

> <b_epik_Metal_Only>
0

> <s_lp_Force_Field>
OPLS_2005

> <r_lp_Energy>
35.4924

> <b_lp_Chiralities_Consistent>
1

> <s_lp_Variant>
AV-unprocessed.smi:1047-33

> <Gold.Version>
5.8.1

> <Gold.Id.Protein>
6NUR|6NUR_protein|mol2

> <Gold.PLP.Fitness>
51.3298

> <Gold.PLP.PLP>
-46.1852

> <Gold.PLP.part.hbond>
-4.4999

> <Gold.PLP.part.metal>
0.0000

> <Gold.PLP.part.buried>
-0.5683

> <Gold.PLP.part.nonpolar>
-39.9933

> <Gold.PLP.part.repulsive>
0.2677

> <Gold.PLP.ligand.clash>
0.0000

> <Gold.PLP.ligand.torsion>
1.8936

> <Gold.PLP.Chemscore.Hbond>
2.9280

> <Gold.PLP.Chemscore.CHOScore>
0.0000

> <Gold.PLP.Chemscore.Metal>
0.0000

> <Gold.Chemscore.Hbonds>
donor molecule, donor type, donor heavy atom, donor atom, acceptor molecule, acceptor atom, score
      L1  H     9    38       P1  7957  1.00
      L1  H    12    42       P1  7957  0.93
      P1  H  8011  8017       L1    12  0.80

> <Gold.PLP.Chemscore.Internal.Correction>
0.1478

> <Gold.Rescore>
     Score         DG    S(hbond)    S(metal)    S(lipo)     H(rot)  DE(clash)    DE(int)     intcor
     18.14     -21.87       2.22        0.00     131.86       2.52       1.87       1.86       ----

> <Gold.Chemscore.Fitness>
18.1412

> <Gold.Chemscore.DG>
-21.8691

> <Gold.Chemscore.ZeroCoef>
-5.4800

> <Gold.Chemscore.Hbond>
2.2221

> <Gold.Chemscore.Metal>
0.0000

> <Gold.Chemscore.Lipo>
131.8635

> <Gold.Chemscore.Internal_Hbond>
0.0000

> <Gold.Chemscore.DEClash>
1.8689

> <Gold.Chemscore.DEInternal>
1.8590

> <Gold.Chemscore.Rot>
2.5237

> <Gold.Chemscore.Internal.Correction>
   9.000000E+99

> <Gold.Chemscore.Hbonds>
donor molecule, donor type, donor heavy atom, donor atom, acceptor molecule, acceptor atom, score
      L1  H     9    38       P1  7957  0.98
      L1  H    12    42       P1  7957  0.89
      P1  H  8011  8017       L1    12  0.11

> <Gold.Chemscore.Hbond.Weighted>
-7.4217

> <Gold.Chemscore.Metal.Weighted>
-0.0000

> <Gold.Chemscore.Lipo.Weighted>
-15.4280

> <Gold.Chemscore.Internal_Hbond.Weighted>
0.0000

> <Gold.Chemscore.DEClash.Weighted>
1.8689

> <Gold.Chemscore.DEInternal.Weighted>
1.8590

> <Gold.Chemscore.Rot.Weighted>
6.4607

> <Gold.Chemscore.Internal.Correction.Weighted>
   9.000000E+99

> <Gold.Protein.RotatedTorsions>
[ 6907 6896 6895 6894 ] final  -37.96 input  -60.11 | X-H torsion
[ 7974 7965 7964 7962 ] final  -84.78 input  175.53 | X-H torsion
[ 8008 7997 7996 7995 ] final   72.92 input   59.86 | X-H torsion
[ 10167 10162 10161 10158 ] final   68.46 input  -65.29 | X-H torsion
[ 10718 10713 10712 10709 ] final   98.65 input   66.30 | X-H torsion
[ 10763 10752 10751 10750 ] final  171.85 input  -60.55 | X-H torsion
[ 11005 11000 10999 10996 ] final   26.22 input  -57.11 | X-H torsion

> <Gold.Protein.ActiveResidues>
 VAL166  LYS551  ARG553  GLY616  TRP617  ASP618  TYR619  PRO620  LYS621  CYS622 
 ASP623  PHE694  ASN695  SER759  ASP760  ASP761  ALA762  ILE779  LEU786  VAL792 
 PHE793  MET794  SER795  GLU796  ALA797  LYS798  CYS799  TRP800  GLU811  SER814 

> <Gold.Protein.RotatedAtoms>
  151.0082  134.9376  159.7992 H   0  0  0  0  0  0  0  0  0  0  0  0  # atno 6907 bound_to 6896
  152.5296  134.3063  159.9107 H   0  0  0  0  0  0  0  0  0  0  0  0  # atno 6908 bound_to 6896
  151.3069  133.4056  159.2678 H   0  0  0  0  0  0  0  0  0  0  0  0  # atno 6909 bound_to 6896
  145.5021  140.9546  143.1754 H   0  0  0  0  0  0  0  0  0  0  0  0  # atno 7974 bound_to 7965
  155.7760  140.3483  155.5272 H   0  0  0  0  0  0  0  0  0  0  0  0  # atno 8008 bound_to 7997
  155.8775  140.0996  157.1529 H   0  0  0  0  0  0  0  0  0  0  0  0  # atno 8009 bound_to 7997
  154.4022  140.1329  156.4142 H   0  0  0  0  0  0  0  0  0  0  0  0  # atno 8010 bound_to 7997
  140.0785  144.5092  150.7178 H   0  0  0  0  0  0  0  0  0  0  0  0  # atno 10167 bound_to 10162
  157.6891  131.0646  150.4828 H   0  0  0  0  0  0  0  0  0  0  0  0  # atno 10718 bound_to 10713
  154.4177  135.2757  155.1996 H   0  0  0  0  0  0  0  0  0  0  0  0  # atno 10763 bound_to 10752
  154.3955  135.6056  153.5870 H   0  0  0  0  0  0  0  0  0  0  0  0  # atno 10764 bound_to 10752
  152.9832  135.5913  154.4468 H   0  0  0  0  0  0  0  0  0  0  0  0  # atno 10765 bound_to 10752
  140.3393  134.2350  155.7692 H   0  0  0  0  0  0  0  0  0  0  0  0  # atno 11005 bound_to 11000
  144.7774  139.6599  143.7169 LP  0  0  0  0  0  0  0  0  0  0  0  0  # atno 17320 bound_to 7965
  146.2220  139.5652  142.9612 LP  0  0  0  0  0  0  0  0  0  0  0  0  # atno 17321 bound_to 7965
  140.7090  143.2490  151.4639 LP  0  0  0  0  0  0  0  0  0  0  0  0  # atno 17342 bound_to 10162
  139.5794  144.1745  152.1947 LP  0  0  0  0  0  0  0  0  0  0  0  0  # atno 17343 bound_to 10162
  156.5159  130.4150  149.6276 LP  0  0  0  0  0  0  0  0  0  0  0  0  # atno 17370 bound_to 10713
  156.3198  130.7274  151.2184 LP  0  0  0  0  0  0  0  0  0  0  0  0  # atno 17371 bound_to 10713
  141.2043  133.7891  157.0296 LP  0  0  0  0  0  0  0  0  0  0  0  0  # atno 17394 bound_to 11000
  140.0794  134.9657  157.1599 LP  0  0  0  0  0  0  0  0  0  0  0  0  # atno 17395 bound_to 11000

$$$$
