AV-unprocessed.smi:232|AV-procd|sdf|1767|dock9
  -GOLD-   2262020303D 1   1.00000     0.00000
 Structure written by MMmdl.
 52 55  0  0  0  0  0  0  0  0  1 V2000
  152.7278  144.7160  158.1157 C   0  0  0  0  0  0  0  0  0  0  0  0
  151.6913  144.1733  159.1091 C   0  0  0  0  0  0  0  0  0  0  0  0
  151.7668  142.6544  159.3873 C   0  0  2  0  0  0  0  0  0  0  0  0
  153.1863  142.2233  159.7661 C   0  0  0  0  0  0  0  0  0  0  0  0
  153.1942  140.7364  159.4342 C   0  0  0  0  0  0  0  0  0  0  0  0
  152.3051  140.6344  158.1877 C   0  0  1  0  0  0  0  0  0  0  0  0
  151.5817  139.2724  158.1131 C   0  0  0  0  0  0  0  0  0  0  0  0
  151.4392  141.8187  158.2317 N   0  0  0  0  0  0  0  0  0  0  0  0
  150.1695  141.7213  157.7711 C   0  0  0  0  0  0  0  0  0  0  0  0
  149.1336  142.1393  158.5443 N   0  0  0  0  0  0  0  0  0  0  0  0
  147.8786  142.0226  158.1003 C   0  0  0  0  0  0  0  0  0  0  0  0
  147.4461  141.5192  156.9421 N   0  0  0  0  0  0  0  0  0  0  0  0
  148.4854  141.0949  156.1672 C   0  0  0  0  0  0  0  0  0  0  0  0
  149.8661  141.1614  156.5019 C   0  0  0  0  0  0  0  0  0  0  0  0
  150.6344  140.6418  155.4681 N   0  0  0  0  0  0  0  0  0  0  0  0
  149.7560  140.2838  154.5719 C   0  0  0  0  0  0  0  0  0  0  0  0
  148.4405  140.4986  154.9192 N   0  0  0  0  0  0  0  0  0  0  0  0
  147.2690  140.1902  154.1178 C   0  0  0  0  0  0  0  0  0  0  0  0
  147.2402  138.7364  153.5916 C   0  0  2  0  0  0  0  0  0  0  0  0
  148.1137  138.7160  152.4810 O   0  0  0  0  0  0  0  0  0  0  0  0
  145.8631  138.2331  153.0982 C   0  0  2  0  0  0  0  0  0  0  0  0
  144.8549  137.8422  154.1840 C   0  0  0  0  0  0  0  0  0  0  0  0
  143.9694  136.8009  153.5180 C   0  0  0  0  0  0  0  0  0  0  0  0
  144.7383  136.4201  152.2534 C   0  0  0  0  0  0  0  0  0  0  0  0
  146.0266  136.9879  152.4338 O   0  0  0  0  0  0  0  0  0  0  0  0
  152.5110  145.7545  157.8654 H   0  0  0  0  0  0  0  0  0  0  0  0
  152.7241  144.1437  157.1880 H   0  0  0  0  0  0  0  0  0  0  0  0
  153.7355  144.6906  158.5285 H   0  0  0  0  0  0  0  0  0  0  0  0
  151.7566  144.7280  160.0460 H   0  0  0  0  0  0  0  0  0  0  0  0
  150.7043  144.3934  158.7009 H   0  0  0  0  0  0  0  0  0  0  0  0
  151.1024  142.3974  160.2136 H   0  0  0  0  0  0  0  0  0  0  0  0
  153.9208  142.7375  159.1442 H   0  0  0  0  0  0  0  0  0  0  0  0
  153.4263  142.4272  160.8099 H   0  0  0  0  0  0  0  0  0  0  0  0
  154.1975  140.3426  159.2702 H   0  0  0  0  0  0  0  0  0  0  0  0
  152.7504  140.1843  160.2642 H   0  0  0  0  0  0  0  0  0  0  0  0
  152.9338  140.7451  157.3036 H   0  0  0  0  0  0  0  0  0  0  0  0
  152.2998  138.4535  158.1610 H   0  0  0  0  0  0  0  0  0  0  0  0
  151.0274  139.1546  157.1823 H   0  0  0  0  0  0  0  0  0  0  0  0
  150.8824  139.1457  158.9403 H   0  0  0  0  0  0  0  0  0  0  0  0
  147.1112  142.3798  158.7708 H   0  0  0  0  0  0  0  0  0  0  0  0
  150.0451  139.8397  153.6304 H   0  0  0  0  0  0  0  0  0  0  0  0
  146.3698  140.4014  154.6982 H   0  0  0  0  0  0  0  0  0  0  0  0
  147.2660  140.8894  153.2802 H   0  0  0  0  0  0  0  0  0  0  0  0
  147.6381  138.0589  154.3479 H   0  0  0  0  0  0  0  0  0  0  0  0
  148.4427  137.8366  152.3737 H   0  0  0  0  0  0  0  0  0  0  0  0
  145.4069  138.9547  152.4170 H   0  0  0  0  0  0  0  0  0  0  0  0
  145.3679  137.3852  155.0310 H   0  0  0  0  0  0  0  0  0  0  0  0
  144.2824  138.6932  154.5519 H   0  0  0  0  0  0  0  0  0  0  0  0
  143.8234  135.9419  154.1737 H   0  0  0  0  0  0  0  0  0  0  0  0
  142.9877  137.2046  153.2677 H   0  0  0  0  0  0  0  0  0  0  0  0
  144.7991  135.3415  152.1064 H   0  0  0  0  0  0  0  0  0  0  0  0
  144.2712  136.8602  151.3710 H   0  0  0  0  0  0  0  0  0  0  0  0
  1  2  1  0  0  0  0
  1 26  1  0  0  0  0
  1 27  1  0  0  0  0
  1 28  1  0  0  0  0
  2  3  1  0  0  0  0
  2 29  1  0  0  0  0
  2 30  1  0  0  0  0
  3  8  1  0  0  0  0
  3  4  1  0  0  0  0
  3 31  1  0  0  0  0
  4  5  1  0  0  0  0
  4 32  1  0  0  0  0
  4 33  1  0  0  0  0
  5  6  1  0  0  0  0
  5 34  1  0  0  0  0
  5 35  1  0  0  0  0
  6  7  1  0  0  0  0
  6  8  1  0  0  0  0
  6 36  1  0  0  0  0
  7 37  1  0  0  0  0
  7 38  1  0  0  0  0
  7 39  1  0  0  0  0
  8  9  1  0  0  0  0
  9 14  1  0  0  0  0
  9 10  2  0  0  0  0
 10 11  1  0  0  0  0
 11 12  2  0  0  0  0
 11 40  1  0  0  0  0
 12 13  1  0  0  0  0
 13 17  1  0  0  0  0
 13 14  2  0  0  0  0
 14 15  1  0  0  0  0
 15 16  2  0  0  0  0
 16 17  1  0  0  0  0
 16 41  1  0  0  0  0
 17 18  1  0  0  0  0
 18 19  1  0  0  0  0
 18 42  1  0  0  0  0
 18 43  1  0  0  0  0
 19 20  1  0  0  0  0
 19 21  1  0  0  0  0
 19 44  1  0  0  0  0
 20 45  1  0  0  0  0
 21 25  1  0  0  0  0
 21 22  1  0  0  0  0
 21 46  1  0  0  0  0
 22 23  1  0  0  0  0
 22 47  1  0  0  0  0
 22 48  1  0  0  0  0
 23 24  1  0  0  0  0
 23 49  1  0  0  0  0
 23 50  1  0  0  0  0
 24 25  1  0  0  0  0
 24 51  1  0  0  0  0
 24 52  1  0  0  0  0
M  END
> <s_m_source_file>
AV-unprocessed.smi

> <i_m_source_file_index>
232

> <i_lp_mmshare_version>
43012

> <i_f3d_flags>
0

> <s_epik_input>
W0NIM11bQ0gyXVtDQEBIXTFbQ0gyXVtDSDJdW0NAQEhdKFtDSDNdKU4xYyhuW2NIXW4yKWMoYzIzKW5bY0hdbjNbQ0gyXVtDQEhdKFtPSF0pW0NAQEhdNFtDSDJdW0NIMl1bQ0gyXU80

> <s_epik_cmdline>
J2VwaWtfcHl0aG9uJywgJy1waCcsICc3LjAnLCAnLXRuJywgJzgnLCAnLW1hJywgJzIwMCcsICctbWV0YWxfYmluZGluZycsICctaW1hZScsICc8aW5maWxlLm1hZT4nLCAnLW9tYWUnLCAnPG91dGZpbGUubWFlPic=

> <r_lp_tautomer_probability>
1

> <r_epik_Ionization_Penalty>
0.00258048

> <r_epik_Ionization_Penalty_Charging>
0

> <r_epik_Ionization_Penalty_Neutral>
0.00258048

> <r_epik_State_Penalty>
0.00168551

> <r_epik_Charging_Adjusted_Penalty>
0.00168551

> <i_epik_Tot_Q>
0

> <i_epik_Tot_abs_Q>
0

> <r_epik_Metal_State_Penalty>
-0

> <b_epik_Metal_Only>
0

> <s_lp_Force_Field>
OPLS_2005

> <r_lp_Energy>
58.3797

> <b_lp_Chiralities_Consistent>
1

> <s_lp_Variant>
AV-unprocessed.smi:232-1

> <Gold.Version>
5.8.1

> <Gold.Id.Protein>
6NUR|6NUR_protein|mol2

> <Gold.PLP.Fitness>
46.7272

> <Gold.PLP.PLP>
-42.0135

> <Gold.PLP.part.hbond>
-2.4295

> <Gold.PLP.part.metal>
0.0000

> <Gold.PLP.part.buried>
-5.6681

> <Gold.PLP.part.nonpolar>
-35.1331

> <Gold.PLP.part.repulsive>
0.6416

> <Gold.PLP.ligand.clash>
0.0000

> <Gold.PLP.ligand.torsion>
0.9217

> <Gold.PLP.Chemscore.Hbond>
1.0000

> <Gold.PLP.Chemscore.CHOScore>
1.0000

> <Gold.PLP.Chemscore.Metal>
0.0000

> <Gold.Chemscore.Hbonds>
donor molecule, donor type, donor heavy atom, donor atom, acceptor molecule, acceptor atom, score
      L1  H    20    45       P1  7948  1.00
      L1  C    16    41       P1  7957  1.00

> <Gold.PLP.Chemscore.Internal.Correction>
0.5572

> <Gold.Rescore>
     Score         DG    S(hbond)    S(metal)    S(lipo)     H(rot)  DE(clash)    DE(int)     intcor
     12.86     -14.63       1.00        0.00      97.28       2.18       0.06       1.71       ----

> <Gold.Chemscore.Fitness>
12.8582

> <Gold.Chemscore.DG>
-14.6273

> <Gold.Chemscore.ZeroCoef>
-5.4800

> <Gold.Chemscore.Hbond>
1.0000

> <Gold.Chemscore.Metal>
0.0000

> <Gold.Chemscore.Lipo>
97.2795

> <Gold.Chemscore.Internal_Hbond>
0.0000

> <Gold.Chemscore.DEClash>
0.0551

> <Gold.Chemscore.DEInternal>
1.7140

> <Gold.Chemscore.Rot>
2.1775

> <Gold.Chemscore.Internal.Correction>
   9.000000E+99

> <Gold.Chemscore.Hbonds>
donor molecule, donor type, donor heavy atom, donor atom, acceptor molecule, acceptor atom, score
      L1  H    20    45       P1  7948  1.00

> <Gold.Chemscore.Hbond.Weighted>
-3.3400

> <Gold.Chemscore.Metal.Weighted>
-0.0000

> <Gold.Chemscore.Lipo.Weighted>
-11.3817

> <Gold.Chemscore.Internal_Hbond.Weighted>
0.0000

> <Gold.Chemscore.DEClash.Weighted>
0.0551

> <Gold.Chemscore.DEInternal.Weighted>
1.7140

> <Gold.Chemscore.Rot.Weighted>
5.5744

> <Gold.Chemscore.Internal.Correction.Weighted>
   9.000000E+99

> <Gold.Protein.RotatedTorsions>
[ 6907 6896 6895 6894 ] final  -29.43 input  -60.11 | X-H torsion
[ 7974 7965 7964 7962 ] final  109.12 input  175.53 | X-H torsion
[ 8008 7997 7996 7995 ] final  -29.88 input   59.86 | X-H torsion
[ 10167 10162 10161 10158 ] final  154.09 input  -65.29 | X-H torsion
[ 10718 10713 10712 10709 ] final  -34.90 input   66.30 | X-H torsion
[ 10763 10752 10751 10750 ] final  -55.97 input  -60.55 | X-H torsion
[ 11005 11000 10999 10996 ] final  -48.49 input  -57.11 | X-H torsion

> <Gold.Protein.ActiveResidues>
 VAL166  LYS551  ARG553  GLY616  TRP617  ASP618  TYR619  PRO620  LYS621  CYS622 
 ASP623  PHE694  ASN695  SER759  ASP760  ASP761  ALA762  ILE779  LEU786  VAL792 
 PHE793  MET794  SER795  GLU796  ALA797  LYS798  CYS799  TRP800  GLU811  SER814 

> <Gold.Protein.RotatedAtoms>
  151.1193  135.0070  159.8530 H   0  0  0  0  0  0  0  0  0  0  0  0  # atno 6907 bound_to 6896
  152.5447  134.1742  159.8619 H   0  0  0  0  0  0  0  0  0  0  0  0  # atno 6908 bound_to 6896
  151.1799  133.4687  159.2627 H   0  0  0  0  0  0  0  0  0  0  0  0  # atno 6909 bound_to 6896
  145.2719  139.2663  143.3961 H   0  0  0  0  0  0  0  0  0  0  0  0  # atno 7974 bound_to 7965
  154.4272  140.1806  156.1318 H   0  0  0  0  0  0  0  0  0  0  0  0  # atno 8008 bound_to 7997
  156.0062  140.3355  155.6869 H   0  0  0  0  0  0  0  0  0  0  0  0  # atno 8009 bound_to 7997
  155.6175  140.0656  157.2679 H   0  0  0  0  0  0  0  0  0  0  0  0  # atno 8010 bound_to 7997
  139.4824  144.5216  151.7866 H   0  0  0  0  0  0  0  0  0  0  0  0  # atno 10167 bound_to 10162
  156.3450  130.4299  149.7754 H   0  0  0  0  0  0  0  0  0  0  0  0  # atno 10718 bound_to 10713
  154.1992  135.6414  153.5082 H   0  0  0  0  0  0  0  0  0  0  0  0  # atno 10763 bound_to 10752
  153.0016  135.5447  154.6333 H   0  0  0  0  0  0  0  0  0  0  0  0  # atno 10764 bound_to 10752
  154.5742  135.2919  155.0770 H   0  0  0  0  0  0  0  0  0  0  0  0  # atno 10765 bound_to 10752
  141.0703  133.6681  156.3448 H   0  0  0  0  0  0  0  0  0  0  0  0  # atno 11005 bound_to 11000
  146.3244  140.3164  142.8630 LP  0  0  0  0  0  0  0  0  0  0  0  0  # atno 17320 bound_to 7965
  144.9327  140.7993  143.5679 LP  0  0  0  0  0  0  0  0  0  0  0  0  # atno 17321 bound_to 7965
  140.4731  144.1558  150.5921 LP  0  0  0  0  0  0  0  0  0  0  0  0  # atno 17342 bound_to 10162
  140.4360  143.2547  151.9534 LP  0  0  0  0  0  0  0  0  0  0  0  0  # atno 17343 bound_to 10162
  156.4976  130.8114  151.3120 LP  0  0  0  0  0  0  0  0  0  0  0  0  # atno 17370 bound_to 10713
  157.7452  130.9955  150.2746 LP  0  0  0  0  0  0  0  0  0  0  0  0  # atno 17371 bound_to 10713
  140.5686  134.5862  157.5452 LP  0  0  0  0  0  0  0  0  0  0  0  0  # atno 17394 bound_to 11000
  139.9517  134.7605  156.0433 LP  0  0  0  0  0  0  0  0  0  0  0  0  # atno 17395 bound_to 11000

$$$$
