AV-unprocessed.smi:1796|AV-procd|sdf|7254|dock3
  -GOLD-   22720 8503D 1   1.00000     0.00000
 Structure written by MMmdl.
 42 43  0  0  0  0  0  0  0  0  1 V2000
  151.0055  137.5893  154.4372 C   0  0  0  0  0  0  0  0  0  0  0  0
  150.6988  139.0624  154.7171 C   0  0  0  0  0  0  0  0  0  0  0  0
  151.6454  139.8462  154.7895 O   0  0  0  0  0  0  0  0  0  0  0  0
  149.4111  139.4520  154.8779 N   0  0  0  0  0  0  0  0  0  0  0  0
  148.9603  140.8359  155.0754 C   0  0  0  0  0  0  0  0  0  0  0  0
  148.2362  141.3052  153.8013 C   0  0  0  0  0  0  0  0  0  0  0  0
  147.0699  140.3611  153.4524 C   0  0  0  0  0  0  0  0  0  0  0  0
  147.5202  138.8809  153.4229 C   0  0  2  0  0  0  0  0  0  0  0  0
  146.3315  137.9320  153.2282 C   0  0  0  0  0  0  0  0  0  0  0  0
  145.2629  138.1511  153.8000 O   0  0  0  0  0  0  0  0  0  0  0  0
  146.5427  136.8642  152.4417 N   0  0  0  0  0  0  0  0  0  0  0  0
  145.5953  135.7738  152.2135 C   0  0  1  0  0  0  0  0  0  0  0  0
  144.2043  136.3650  151.9478 C   0  0  0  0  0  0  0  0  0  0  0  0
  146.0608  134.8811  151.0427 C   0  0  0  0  0  0  0  0  0  0  0  0
  145.2134  133.7157  150.8547 N   0  0  0  0  0  0  0  0  0  0  0  0
  144.4004  133.4122  149.7831 C   0  0  0  0  0  0  0  0  0  0  0  0
  143.7808  132.2288  150.0653 C   0  0  0  0  0  0  0  0  0  0  0  0
  144.2882  131.8789  151.3478 C   0  0  0  0  0  0  0  0  0  0  0  0
  145.1496  132.7676  151.8154 N   0  0  0  0  0  0  0  0  0  0  0  0
  148.2792  138.5299  154.7228 C   0  0  0  0  0  0  0  0  0  0  0  0
  150.6300  136.9556  155.2411 H   0  0  0  0  0  0  0  0  0  0  0  0
  152.0815  137.4280  154.3619 H   0  0  0  0  0  0  0  0  0  0  0  0
  150.5549  137.2737  153.4959 H   0  0  0  0  0  0  0  0  0  0  0  0
  148.2770  140.8712  155.9252 H   0  0  0  0  0  0  0  0  0  0  0  0
  149.7642  141.5279  155.3220 H   0  0  0  0  0  0  0  0  0  0  0  0
  147.8657  142.3220  153.9331 H   0  0  0  0  0  0  0  0  0  0  0  0
  148.9431  141.3373  152.9710 H   0  0  0  0  0  0  0  0  0  0  0  0
  146.2814  140.4967  154.1944 H   0  0  0  0  0  0  0  0  0  0  0  0
  146.6393  140.6450  152.4913 H   0  0  0  0  0  0  0  0  0  0  0  0
  148.2057  138.7523  152.5828 H   0  0  0  0  0  0  0  0  0  0  0  0
  147.4528  136.7688  152.0145 H   0  0  0  0  0  0  0  0  0  0  0  0
  145.5155  135.1578  153.1110 H   0  0  0  0  0  0  0  0  0  0  0  0
  143.4664  135.5766  151.7965 H   0  0  0  0  0  0  0  0  0  0  0  0
  144.2025  136.9954  151.0579 H   0  0  0  0  0  0  0  0  0  0  0  0
  143.8678  136.9724  152.7886 H   0  0  0  0  0  0  0  0  0  0  0  0
  146.0507  135.4508  150.1127 H   0  0  0  0  0  0  0  0  0  0  0  0
  147.0912  134.5549  151.1948 H   0  0  0  0  0  0  0  0  0  0  0  0
  144.3255  134.0614  148.9231 H   0  0  0  0  0  0  0  0  0  0  0  0
  143.0708  131.6959  149.4505 H   0  0  0  0  0  0  0  0  0  0  0  0
  144.0579  131.0116  151.9485 H   0  0  0  0  0  0  0  0  0  0  0  0
  148.5932  137.4848  154.7048 H   0  0  0  0  0  0  0  0  0  0  0  0
  147.6225  138.6227  155.5897 H   0  0  0  0  0  0  0  0  0  0  0  0
  1  2  1  0  0  0  0
  1 21  1  0  0  0  0
  1 22  1  0  0  0  0
  1 23  1  0  0  0  0
  2  3  2  0  0  0  0
  2  4  1  0  0  0  0
  4 20  1  0  0  0  0
  4  5  1  0  0  0  0
  5  6  1  0  0  0  0
  5 24  1  0  0  0  0
  5 25  1  0  0  0  0
  6  7  1  0  0  0  0
  6 26  1  0  0  0  0
  6 27  1  0  0  0  0
  7  8  1  0  0  0  0
  7 28  1  0  0  0  0
  7 29  1  0  0  0  0
  8  9  1  0  0  0  0
  8 20  1  0  0  0  0
  8 30  1  0  0  0  0
  9 10  2  0  0  0  0
  9 11  1  0  0  0  0
 11 12  1  0  0  0  0
 11 31  1  0  0  0  0
 12 13  1  0  0  0  0
 12 14  1  0  0  0  0
 12 32  1  0  0  0  0
 13 33  1  0  0  0  0
 13 34  1  0  0  0  0
 13 35  1  0  0  0  0
 14 15  1  0  0  0  0
 14 36  1  0  0  0  0
 14 37  1  0  0  0  0
 15 19  1  0  0  0  0
 15 16  1  0  0  0  0
 16 17  2  0  0  0  0
 16 38  1  0  0  0  0
 17 18  1  0  0  0  0
 17 39  1  0  0  0  0
 18 19  2  0  0  0  0
 18 40  1  0  0  0  0
 20 41  1  0  0  0  0
 20 42  1  0  0  0  0
M  END
> <s_m_source_file>
AV-unprocessed.smi

> <i_m_source_file_index>
1796

> <i_lp_mmshare_version>
43012

> <i_f3d_flags>
0

> <s_epik_input>
W0NIM11DKD1PKU4xW0NIMl1bQ0gyXVtDSDJdW0NASF0oW0NIMl0xKUMoPU8pW05IXVtDQEhdKFtDSDNdKVtDSDJdbjJbY0hdW2NIXVtjSF1uMg==

> <s_epik_cmdline>
J2VwaWtfcHl0aG9uJywgJy1waCcsICc3LjAnLCAnLXRuJywgJzgnLCAnLW1hJywgJzIwMCcsICctbWV0YWxfYmluZGluZycsICctaW1hZScsICc8aW5maWxlLm1hZT4nLCAnLW9tYWUnLCAnPG91dGZpbGUubWFlPic=

> <r_lp_tautomer_probability>
1

> <r_epik_Ionization_Penalty>
0.000315051

> <r_epik_Ionization_Penalty_Charging>
0

> <r_epik_Ionization_Penalty_Neutral>
0.000315051

> <r_epik_State_Penalty>
-0

> <r_epik_Charging_Adjusted_Penalty>
0

> <i_epik_Tot_Q>
0

> <i_epik_Tot_abs_Q>
0

> <r_epik_Metal_State_Penalty>
-0

> <b_epik_Metal_Only>
0

> <s_lp_Force_Field>
OPLS_2005

> <r_lp_Energy>
22.8322

> <b_lp_Chiralities_Consistent>
1

> <s_lp_Variant>
AV-unprocessed.smi:1796-4

> <Gold.Version>
5.8.1

> <Gold.Id.Protein>
6NUR|6NUR_protein|mol2

> <Gold.PLP.Fitness>
44.2419

> <Gold.PLP.PLP>
-37.0697

> <Gold.PLP.part.hbond>
-1.9305

> <Gold.PLP.part.metal>
0.0000

> <Gold.PLP.part.buried>
-4.6237

> <Gold.PLP.part.nonpolar>
-31.1103

> <Gold.PLP.part.repulsive>
0.3605

> <Gold.PLP.ligand.clash>
0.0000

> <Gold.PLP.ligand.torsion>
0.8266

> <Gold.PLP.Chemscore.Hbond>
2.0000

> <Gold.PLP.Chemscore.CHOScore>
0.9304

> <Gold.PLP.Chemscore.Metal>
0.0000

> <Gold.Chemscore.Hbonds>
donor molecule, donor type, donor heavy atom, donor atom, acceptor molecule, acceptor atom, score
      L1  H    11    31       P1  7948  1.00
      P1  H  7989  7998       L1     3  1.00
      L1  C    16    38       P1  7921  0.91

> <Gold.PLP.Chemscore.Internal.Correction>
0.0340

> <Gold.Rescore>
     Score         DG    S(hbond)    S(metal)    S(lipo)     H(rot)  DE(clash)    DE(int)     intcor
     15.08     -17.32       1.96        0.00      81.05       1.63       0.09       2.15       ----

> <Gold.Chemscore.Fitness>
15.0836

> <Gold.Chemscore.DG>
-17.3180

> <Gold.Chemscore.ZeroCoef>
-5.4800

> <Gold.Chemscore.Hbond>
1.9571

> <Gold.Chemscore.Metal>
0.0000

> <Gold.Chemscore.Lipo>
81.0538

> <Gold.Chemscore.Internal_Hbond>
0.0000

> <Gold.Chemscore.DEClash>
0.0865

> <Gold.Chemscore.DEInternal>
2.1478

> <Gold.Chemscore.Rot>
1.6336

> <Gold.Chemscore.Internal.Correction>
   9.000000E+99

> <Gold.Chemscore.Hbonds>
donor molecule, donor type, donor heavy atom, donor atom, acceptor molecule, acceptor atom, score
      L1  H    11    31       P1  7948  0.97
      P1  H  7989  7998       L1     3  0.77

> <Gold.Chemscore.Hbond.Weighted>
-6.5368

> <Gold.Chemscore.Metal.Weighted>
-0.0000

> <Gold.Chemscore.Lipo.Weighted>
-9.4833

> <Gold.Chemscore.Internal_Hbond.Weighted>
0.0000

> <Gold.Chemscore.DEClash.Weighted>
0.0865

> <Gold.Chemscore.DEInternal.Weighted>
2.1478

> <Gold.Chemscore.Rot.Weighted>
4.1821

> <Gold.Chemscore.Internal.Correction.Weighted>
   9.000000E+99

> <Gold.Protein.RotatedTorsions>
[ 6907 6896 6895 6894 ] final  157.41 input  -60.11 | X-H torsion
[ 7974 7965 7964 7962 ] final  158.85 input  175.53 | X-H torsion
[ 8008 7997 7996 7995 ] final  -13.17 input   59.86 | X-H torsion
[ 10167 10162 10161 10158 ] final  100.40 input  -65.29 | X-H torsion
[ 10718 10713 10712 10709 ] final  -40.71 input   66.30 | X-H torsion
[ 10763 10752 10751 10750 ] final  -35.78 input  -60.55 | X-H torsion
[ 11005 11000 10999 10996 ] final -168.95 input  -57.11 | X-H torsion

> <Gold.Protein.ActiveResidues>
 VAL166  LYS551  ARG553  GLY616  TRP617  ASP618  TYR619  PRO620  LYS621  CYS622 
 ASP623  PHE694  ASN695  SER759  ASP760  ASP761  ALA762  ILE779  LEU786  VAL792 
 PHE793  MET794  SER795  GLU796  ALA797  LYS798  CYS799  TRP800  GLU811  SER814 

> <Gold.Protein.RotatedAtoms>
  152.0155  133.3878  159.4236 H   0  0  0  0  0  0  0  0  0  0  0  0  # atno 6907 bound_to 6896
  150.6895  134.3683  159.4990 H   0  0  0  0  0  0  0  0  0  0  0  0  # atno 6908 bound_to 6896
  152.1450  134.9033  160.0602 H   0  0  0  0  0  0  0  0  0  0  0  0  # atno 6909 bound_to 6896
  144.7822  139.7536  143.6255 H   0  0  0  0  0  0  0  0  0  0  0  0  # atno 7974 bound_to 7965
  154.5315  140.2257  155.8796 H   0  0  0  0  0  0  0  0  0  0  0  0  # atno 8008 bound_to 7997
  156.1769  140.3109  155.9039 H   0  0  0  0  0  0  0  0  0  0  0  0  # atno 8009 bound_to 7997
  155.3441  140.0452  157.3036 H   0  0  0  0  0  0  0  0  0  0  0  0  # atno 8010 bound_to 7997
  139.7530  144.6978  151.0403 H   0  0  0  0  0  0  0  0  0  0  0  0  # atno 10167 bound_to 10162
  156.2783  130.4214  149.8364 H   0  0  0  0  0  0  0  0  0  0  0  0  # atno 10718 bound_to 10713
  153.8689  135.6833  153.4776 H   0  0  0  0  0  0  0  0  0  0  0  0  # atno 10763 bound_to 10752
  153.1299  135.4702  154.9330 H   0  0  0  0  0  0  0  0  0  0  0  0  # atno 10764 bound_to 10752
  154.7724  135.3242  154.8113 H   0  0  0  0  0  0  0  0  0  0  0  0  # atno 10765 bound_to 10752
  140.5363  134.5567  157.5088 H   0  0  0  0  0  0  0  0  0  0  0  0  # atno 11005 bound_to 11000
  146.2036  139.5347  142.9727 LP  0  0  0  0  0  0  0  0  0  0  0  0  # atno 17320 bound_to 7965
  145.6018  141.0354  143.2014 LP  0  0  0  0  0  0  0  0  0  0  0  0  # atno 17321 bound_to 7965
  140.7800  143.4786  151.0049 LP  0  0  0  0  0  0  0  0  0  0  0  0  # atno 17342 bound_to 10162
  139.8473  143.7484  152.3179 LP  0  0  0  0  0  0  0  0  0  0  0  0  # atno 17343 bound_to 10162
  156.5820  130.8470  151.3385 LP  0  0  0  0  0  0  0  0  0  0  0  0  # atno 17370 bound_to 10713
  157.7306  130.9688  150.1842 LP  0  0  0  0  0  0  0  0  0  0  0  0  # atno 17371 bound_to 10713
  139.9527  134.7588  156.0410 LP  0  0  0  0  0  0  0  0  0  0  0  0  # atno 17394 bound_to 11000
  141.1253  133.6601  156.3320 LP  0  0  0  0  0  0  0  0  0  0  0  0  # atno 17395 bound_to 11000

$$$$
