AV-unprocessed.smi:1763|AV-procd|sdf|7129|dock6
  -GOLD-   22720 8363D 1   1.00000     0.00000
 Structure written by MMmdl.
 43 44  0  0  0  0  0  0  0  0  2 V2000
  141.8080  138.3974  154.7365 C   0  0  0  0  0  0  0  0  0  0  0  0
  142.6012  139.6172  154.7508 N   0  0  0  0  0  0  0  0  0  0  0  0
  143.0597  140.2045  155.8648 C   0  0  0  0  0  0  0  0  0  0  0  0
  142.8464  139.7663  156.9959 O   0  0  0  0  0  0  0  0  0  0  0  0
  143.8665  141.4921  155.6684 C   0  0  0  0  0  0  0  0  0  0  0  0
  145.1115  141.2852  154.8847 N   0  3  2  0  0  0  0  0  0  0  0  0
  146.1148  140.4746  155.6210 C   0  0  0  0  0  0  0  0  0  0  0  0
  147.3370  140.1588  154.7388 C   0  0  0  0  0  0  0  0  0  0  0  0
  147.9801  141.4330  154.1648 C   0  0  2  0  0  0  0  0  0  0  0  0
  148.6634  142.1792  155.2213 N   0  0  0  0  0  0  0  0  0  0  0  0
  149.6558  141.7047  155.9891 C   0  0  0  0  0  0  0  0  0  0  0  0
  150.1190  140.5703  155.8713 O   0  0  0  0  0  0  0  0  0  0  0  0
  150.0615  142.6239  156.8829 N   0  0  0  0  0  0  0  0  0  0  0  0
  151.0860  142.5054  157.8595 C   0  0  0  0  0  0  0  0  0  0  0  0
  151.6165  143.7309  158.3219 C   0  0  0  0  0  0  0  0  0  0  0  0
  152.6369  143.7218  159.2926 C   0  0  0  0  0  0  0  0  0  0  0  0
  153.1021  142.4859  159.7754 C   0  0  0  0  0  0  0  0  0  0  0  0
  152.5211  141.3120  159.2611 C   0  0  0  0  0  0  0  0  0  0  0  0
  151.5429  141.3184  158.3311 N   0  0  0  0  0  0  0  0  0  0  0  0
  146.9021  142.2815  153.4605 C   0  0  0  0  0  0  0  0  0  0  0  0
  145.6970  142.5547  154.3768 C   0  0  0  0  0  0  0  0  0  0  0  0
  141.5387  138.1410  153.7118 H   0  0  0  0  0  0  0  0  0  0  0  0
  140.8880  138.5243  155.3085 H   0  0  0  0  0  0  0  0  0  0  0  0
  142.3696  137.5639  155.1599 H   0  0  0  0  0  0  0  0  0  0  0  0
  142.8115  140.0402  153.8580 H   0  0  0  0  0  0  0  0  0  0  0  0
  143.2520  142.2623  155.1990 H   0  0  0  0  0  0  0  0  0  0  0  0
  144.1164  141.8561  156.6659 H   0  0  0  0  0  0  0  0  0  0  0  0
  146.4219  141.0061  156.5230 H   0  0  0  0  0  0  0  0  0  0  0  0
  145.6616  139.5376  155.9469 H   0  0  0  0  0  0  0  0  0  0  0  0
  148.0716  139.5860  155.3062 H   0  0  0  0  0  0  0  0  0  0  0  0
  147.0231  139.5157  153.9153 H   0  0  0  0  0  0  0  0  0  0  0  0
  148.7294  141.1335  153.4297 H   0  0  0  0  0  0  0  0  0  0  0  0
  148.3423  143.1205  155.3954 H   0  0  0  0  0  0  0  0  0  0  0  0
  149.5803  143.5108  156.8664 H   0  0  0  0  0  0  0  0  0  0  0  0
  151.2477  144.6723  157.9407 H   0  0  0  0  0  0  0  0  0  0  0  0
  153.0543  144.6477  159.6599 H   0  0  0  0  0  0  0  0  0  0  0  0
  153.8833  142.4383  160.5197 H   0  0  0  0  0  0  0  0  0  0  0  0
  152.8500  140.3426  159.6047 H   0  0  0  0  0  0  0  0  0  0  0  0
  147.3215  143.2229  153.1039 H   0  0  0  0  0  0  0  0  0  0  0  0
  146.5578  141.7528  152.5707 H   0  0  0  0  0  0  0  0  0  0  0  0
  144.9476  143.1166  153.8185 H   0  0  0  0  0  0  0  0  0  0  0  0
  145.9961  143.1830  155.2171 H   0  0  0  0  0  0  0  0  0  0  0  0
  144.8452  140.7408  154.0761 H   0  0  0  0  0  0  0  0  0  0  0  0
  1  2  1  0  0  0  0
  1 22  1  0  0  0  0
  1 23  1  0  0  0  0
  1 24  1  0  0  0  0
  2  3  1  0  0  0  0
  2 25  1  0  0  0  0
  3  4  2  0  0  0  0
  3  5  1  0  0  0  0
  5  6  1  0  0  0  0
  5 26  1  0  0  0  0
  5 27  1  0  0  0  0
  6 21  1  0  0  0  0
  6  7  1  0  0  0  0
  6 43  1  0  0  0  0
  7  8  1  0  0  0  0
  7 28  1  0  0  0  0
  7 29  1  0  0  0  0
  8  9  1  0  0  0  0
  8 30  1  0  0  0  0
  8 31  1  0  0  0  0
  9 10  1  0  0  0  0
  9 20  1  0  0  0  0
  9 32  1  0  0  0  0
 10 11  1  0  0  0  0
 10 33  1  0  0  0  0
 11 12  2  0  0  0  0
 11 13  1  0  0  0  0
 13 14  1  0  0  0  0
 13 34  1  0  0  0  0
 14 19  1  0  0  0  0
 14 15  2  0  0  0  0
 15 16  1  0  0  0  0
 15 35  1  0  0  0  0
 16 17  2  0  0  0  0
 16 36  1  0  0  0  0
 17 18  1  0  0  0  0
 17 37  1  0  0  0  0
 18 19  2  0  0  0  0
 18 38  1  0  0  0  0
 20 21  1  0  0  0  0
 20 39  1  0  0  0  0
 20 40  1  0  0  0  0
 21 41  1  0  0  0  0
 21 42  1  0  0  0  0
M  CHG  1   6   1
M  END
> <s_m_source_file>
AV-unprocessed.smi

> <i_m_source_file_index>
1763

> <i_lp_mmshare_version>
43012

> <i_f3d_flags>
0

> <s_epik_input>
W0NIM11bTkhdQyg9TylbQ0gyXU4xW0NIMl1bQ0gyXVtDSF0oW0NIMl1bQ0gyXTEpW05IXUMoPU8pW05IXWMyW2NIXVtjSF1bY0hdW2NIXW4y

> <s_epik_cmdline>
J2VwaWtfcHl0aG9uJywgJy1waCcsICc3LjAnLCAnLXRuJywgJzgnLCAnLW1hJywgJzIwMCcsICctbWV0YWxfYmluZGluZycsICctaW1hZScsICc8aW5maWxlLm1hZT4nLCAnLW9tYWUnLCAnPG91dGZpbGUubWFlPic=

> <r_epik_Ionization_Penalty>
0.838902

> <r_epik_Ionization_Penalty_Charging>
0.838844

> <r_epik_Ionization_Penalty_Neutral>
5.81242e-05

> <r_epik_State_Penalty>
0.8734

> <r_epik_Charging_Adjusted_Penalty>
1.71224

> <i_epik_Tot_Q>
1

> <i_epik_Tot_abs_Q>
1

> <r_epik_Metal_State_Penalty>
0.877921

> <b_epik_Metal_Only>
0

> <s_lp_Force_Field>
OPLS_2005

> <r_lp_Energy>
15.7472

> <b_lp_Chiralities_Consistent>
1

> <s_lp_Variant>
AV-unprocessed.smi:1763-3

> <Gold.Version>
5.8.1

> <Gold.Id.Protein>
6NUR|6NUR_protein|mol2

> <Gold.PLP.Fitness>
48.8763

> <Gold.PLP.PLP>
-34.3852

> <Gold.PLP.part.hbond>
-4.0000

> <Gold.PLP.part.metal>
0.0000

> <Gold.PLP.part.buried>
-6.1293

> <Gold.PLP.part.nonpolar>
-25.3603

> <Gold.PLP.part.repulsive>
0.3027

> <Gold.PLP.ligand.clash>
0.0000

> <Gold.PLP.ligand.torsion>
0.1840

> <Gold.PLP.Chemscore.Hbond>
4.9440

> <Gold.PLP.Chemscore.CHOScore>
0.0000

> <Gold.PLP.Chemscore.Metal>
0.0000

> <Gold.Chemscore.Hbonds>
donor molecule, donor type, donor heavy atom, donor atom, acceptor molecule, acceptor atom, score
      L1  H     2    25       P1 10175  1.00
      L1  H     6    43       P1 10175  1.95
      L1  H    10    33       P1  8028  0.88
      L1  H    13    34       P1  8028  0.82

> <Gold.PLP.Chemscore.Internal.Correction>
0.0270

> <Gold.Rescore>
     Score         DG    S(hbond)    S(metal)    S(lipo)     H(rot)  DE(clash)    DE(int)     intcor
     20.01     -22.71       3.76        0.00      77.69       1.73       1.38       1.32       ----

> <Gold.Chemscore.Fitness>
20.0051

> <Gold.Chemscore.DG>
-22.7061

> <Gold.Chemscore.ZeroCoef>
-5.4800

> <Gold.Chemscore.Hbond>
3.7605

> <Gold.Chemscore.Metal>
0.0000

> <Gold.Chemscore.Lipo>
77.6907

> <Gold.Chemscore.Internal_Hbond>
0.0000

> <Gold.Chemscore.DEClash>
1.3822

> <Gold.Chemscore.DEInternal>
1.3188

> <Gold.Chemscore.Rot>
1.7280

> <Gold.Chemscore.Internal.Correction>
   9.000000E+99

> <Gold.Chemscore.Hbonds>
donor molecule, donor type, donor heavy atom, donor atom, acceptor molecule, acceptor atom, score
      L1  H     2    25       P1 10175  0.99
      L1  H     6    43       P1 10175  0.89
      L1  H    10    33       P1  8028  0.85
      L1  H    13    34       P1  8028  0.80

> <Gold.Chemscore.Hbond.Weighted>
-12.5600

> <Gold.Chemscore.Metal.Weighted>
-0.0000

> <Gold.Chemscore.Lipo.Weighted>
-9.0898

> <Gold.Chemscore.Internal_Hbond.Weighted>
0.0000

> <Gold.Chemscore.DEClash.Weighted>
1.3822

> <Gold.Chemscore.DEInternal.Weighted>
1.3188

> <Gold.Chemscore.Rot.Weighted>
4.4237

> <Gold.Chemscore.Internal.Correction.Weighted>
   9.000000E+99

> <Gold.Protein.RotatedTorsions>
[ 6907 6896 6895 6894 ] final  -29.69 input  -60.11 | X-H torsion
[ 7974 7965 7964 7962 ] final -109.05 input  175.53 | X-H torsion
[ 8008 7997 7996 7995 ] final -119.87 input   59.86 | X-H torsion
[ 10167 10162 10161 10158 ] final  167.43 input  -65.29 | X-H torsion
[ 10718 10713 10712 10709 ] final   16.09 input   66.30 | X-H torsion
[ 10763 10752 10751 10750 ] final -127.30 input  -60.55 | X-H torsion
[ 11005 11000 10999 10996 ] final  125.70 input  -57.11 | X-H torsion

> <Gold.Protein.ActiveResidues>
 VAL166  LYS551  ARG553  GLY616  TRP617  ASP618  TYR619  PRO620  LYS621  CYS622 
 ASP623  PHE694  ASN695  SER759  ASP760  ASP761  ALA762  ILE779  LEU786  VAL792 
 PHE793  MET794  SER795  GLU796  ALA797  LYS798  CYS799  TRP800  GLU811  SER814 

> <Gold.Protein.RotatedAtoms>
  151.1158  135.0052  159.8514 H   0  0  0  0  0  0  0  0  0  0  0  0  # atno 6907 bound_to 6896
  152.5445  134.1782  159.8634 H   0  0  0  0  0  0  0  0  0  0  0  0  # atno 6908 bound_to 6896
  151.1836  133.4665  159.2627 H   0  0  0  0  0  0  0  0  0  0  0  0  # atno 6909 bound_to 6896
  145.1853  140.8990  143.3456 H   0  0  0  0  0  0  0  0  0  0  0  0  # atno 7974 bound_to 7965
  155.1226  140.0399  157.2754 H   0  0  0  0  0  0  0  0  0  0  0  0  # atno 8008 bound_to 7997
  154.6602  140.2589  155.7091 H   0  0  0  0  0  0  0  0  0  0  0  0  # atno 8009 bound_to 7997
  156.2616  140.2818  156.1071 H   0  0  0  0  0  0  0  0  0  0  0  0  # atno 8010 bound_to 7997
  139.4945  144.3922  151.9504 H   0  0  0  0  0  0  0  0  0  0  0  0  # atno 10167 bound_to 10162
  157.0629  130.6316  149.5790 H   0  0  0  0  0  0  0  0  0  0  0  0  # atno 10718 bound_to 10713
  154.8751  135.3966  154.3572 H   0  0  0  0  0  0  0  0  0  0  0  0  # atno 10763 bound_to 10752
  153.4349  135.7026  153.6212 H   0  0  0  0  0  0  0  0  0  0  0  0  # atno 10764 bound_to 10752
  153.4817  135.3767  155.2415 H   0  0  0  0  0  0  0  0  0  0  0  0  # atno 10765 bound_to 10752
  139.9419  134.9634  156.8597 H   0  0  0  0  0  0  0  0  0  0  0  0  # atno 11005 bound_to 11000
  145.0095  139.3523  143.6127 LP  0  0  0  0  0  0  0  0  0  0  0  0  # atno 17320 bound_to 7965
  146.3446  139.9352  142.8748 LP  0  0  0  0  0  0  0  0  0  0  0  0  # atno 17321 bound_to 7965
  140.3360  144.3260  150.5977 LP  0  0  0  0  0  0  0  0  0  0  0  0  # atno 17342 bound_to 10162
  140.5605  143.2193  151.7772 LP  0  0  0  0  0  0  0  0  0  0  0  0  # atno 17343 bound_to 10162
  155.9973  130.5044  150.7529 LP  0  0  0  0  0  0  0  0  0  0  0  0  # atno 17370 bound_to 10713
  157.4940  131.0913  151.0393 LP  0  0  0  0  0  0  0  0  0  0  0  0  # atno 17371 bound_to 10713
  140.5930  134.0244  155.7507 LP  0  0  0  0  0  0  0  0  0  0  0  0  # atno 17394 bound_to 11000
  141.1057  133.9697  157.3001 LP  0  0  0  0  0  0  0  0  0  0  0  0  # atno 17395 bound_to 11000

$$$$
