AV-unprocessed.smi:3056|AV-procd|sdf|11653|dock4
  -GOLD-   2272017 53D 1   1.00000     0.00000
 Structure written by MMmdl.
 47 48  0  0  0  0  0  0  0  0  1 V2000
  151.8308  144.5294  160.9600 C   0  0  0  0  0  0  0  0  0  0  0  0
  152.4449  143.2342  160.5134 C   0  0  0  0  0  0  0  0  0  0  0  0
  152.3318  142.6026  159.2425 C   0  0  0  0  0  0  0  0  0  0  0  0
  153.0005  141.4632  159.1729 N   0  0  0  0  0  0  0  0  0  0  0  0
  153.5663  141.3260  160.3915 N   0  0  0  0  0  0  0  0  0  0  0  0
  154.3905  140.1598  160.6833 C   0  0  2  0  0  0  0  0  0  0  0  0
  155.6175  140.1566  159.7520 C   0  0  0  0  0  0  0  0  0  0  0  0
  153.5699  138.8449  160.6027 C   0  0  2  0  0  0  0  0  0  0  0  0
  154.3225  137.6256  161.1770 C   0  0  0  0  0  0  0  0  0  0  0  0
  153.2505  138.5802  159.1983 N   0  0  0  0  0  0  0  0  0  0  0  0
  152.5492  137.3048  158.9585 C   0  0  0  0  0  0  0  0  0  0  0  0
  152.3712  136.9313  157.4723 C   0  0  0  0  0  0  0  0  0  0  0  0
  152.9391  135.9266  157.0396 O   0  0  0  0  0  0  0  0  0  0  0  0
  151.5977  137.7129  156.6815 N   0  0  0  0  0  0  0  0  0  0  0  0
  151.4962  137.5340  155.2315 C   0  0  0  0  0  0  0  0  0  0  0  0
  152.1428  138.7592  154.5601 C   0  0  0  0  0  0  0  0  0  0  0  0
  151.4972  139.9518  155.0047 O   0  0  0  0  0  0  0  0  0  0  0  0
  151.5343  140.1304  156.4211 C   0  0  1  0  0  0  0  0  0  0  0  0
  150.8205  141.4439  156.7579 C   0  0  0  0  0  0  0  0  0  0  0  0
  150.8674  138.9142  157.0935 C   0  0  0  0  0  0  0  0  0  0  0  0
  153.2417  142.3802  161.2213 C   0  0  0  0  0  0  0  0  0  0  0  0
  151.1875  144.9594  160.1921 H   0  0  0  0  0  0  0  0  0  0  0  0
  152.5915  145.2736  161.1959 H   0  0  0  0  0  0  0  0  0  0  0  0
  151.2202  144.3979  161.8535 H   0  0  0  0  0  0  0  0  0  0  0  0
  151.7859  142.9372  158.3728 H   0  0  0  0  0  0  0  0  0  0  0  0
  154.7556  140.2675  161.7071 H   0  0  0  0  0  0  0  0  0  0  0  0
  156.3188  139.3642  160.0134 H   0  0  0  0  0  0  0  0  0  0  0  0
  156.1595  141.1006  159.8173 H   0  0  0  0  0  0  0  0  0  0  0  0
  155.3280  140.0111  158.7108 H   0  0  0  0  0  0  0  0  0  0  0  0
  152.6588  138.9874  161.1842 H   0  0  0  0  0  0  0  0  0  0  0  0
  154.5498  137.7544  162.2350 H   0  0  0  0  0  0  0  0  0  0  0  0
  155.2664  137.4640  160.6554 H   0  0  0  0  0  0  0  0  0  0  0  0
  153.7390  136.7090  161.0964 H   0  0  0  0  0  0  0  0  0  0  0  0
  152.7213  139.3552  158.8242 H   0  0  0  0  0  0  0  0  0  0  0  0
  153.1167  136.5068  159.4377 H   0  0  0  0  0  0  0  0  0  0  0  0
  151.5806  137.3438  159.4547 H   0  0  0  0  0  0  0  0  0  0  0  0
  151.9795  136.6225  154.8778 H   0  0  0  0  0  0  0  0  0  0  0  0
  150.4471  137.4528  154.9436 H   0  0  0  0  0  0  0  0  0  0  0  0
  153.2090  138.8078  154.7876 H   0  0  0  0  0  0  0  0  0  0  0  0
  152.0500  138.6899  153.4763 H   0  0  0  0  0  0  0  0  0  0  0  0
  152.5746  140.2054  156.7435 H   0  0  0  0  0  0  0  0  0  0  0  0
  150.8324  141.6325  157.8317 H   0  0  0  0  0  0  0  0  0  0  0  0
  149.7803  141.4222  156.4323 H   0  0  0  0  0  0  0  0  0  0  0  0
  151.3060  142.2878  156.2673 H   0  0  0  0  0  0  0  0  0  0  0  0
  149.8294  138.8297  156.7675 H   0  0  0  0  0  0  0  0  0  0  0  0
  150.8174  139.0490  158.1728 H   0  0  0  0  0  0  0  0  0  0  0  0
  153.6046  142.4361  162.2373 H   0  0  0  0  0  0  0  0  0  0  0  0
  1  2  1  0  0  0  0
  1 22  1  0  0  0  0
  1 23  1  0  0  0  0
  1 24  1  0  0  0  0
  2 21  2  0  0  0  0
  2  3  1  0  0  0  0
  3  4  2  0  0  0  0
  3 25  1  0  0  0  0
  4  5  1  0  0  0  0
  5  6  1  0  0  0  0
  5 21  1  0  0  0  0
  6  7  1  0  0  0  0
  6  8  1  0  0  0  0
  6 26  1  0  0  0  0
  7 27  1  0  0  0  0
  7 28  1  0  0  0  0
  7 29  1  0  0  0  0
  8  9  1  0  0  0  0
  8 10  1  0  0  0  0
  8 30  1  0  0  0  0
  9 31  1  0  0  0  0
  9 32  1  0  0  0  0
  9 33  1  0  0  0  0
 10 11  1  0  0  0  0
 10 34  1  0  0  0  0
 11 12  1  0  0  0  0
 11 35  1  0  0  0  0
 11 36  1  0  0  0  0
 12 13  2  0  0  0  0
 12 14  1  0  0  0  0
 14 20  1  0  0  0  0
 14 15  1  0  0  0  0
 15 16  1  0  0  0  0
 15 37  1  0  0  0  0
 15 38  1  0  0  0  0
 16 17  1  0  0  0  0
 16 39  1  0  0  0  0
 16 40  1  0  0  0  0
 17 18  1  0  0  0  0
 18 19  1  0  0  0  0
 18 20  1  0  0  0  0
 18 41  1  0  0  0  0
 19 42  1  0  0  0  0
 19 43  1  0  0  0  0
 19 44  1  0  0  0  0
 20 45  1  0  0  0  0
 20 46  1  0  0  0  0
 21 47  1  0  0  0  0
M  END
> <s_m_source_file>
AV-unprocessed.smi

> <i_m_source_file_index>
3056

> <i_lp_mmshare_version>
43012

> <i_f3d_flags>
0

> <s_epik_input>
W0NIM11jMVtjSF1ubihbY0hdMSlbQ0BIXShbQ0gzXSlbQ0BIXShbQ0gzXSlbTkhdW0NIMl1DKD1PKU4yW0NIMl1bQ0gyXU9bQ0BASF0oW0NIM10pW0NIMl0y

> <s_epik_cmdline>
J2VwaWtfcHl0aG9uJywgJy1waCcsICc3LjAnLCAnLXRuJywgJzgnLCAnLW1hJywgJzIwMCcsICctbWV0YWxfYmluZGluZycsICctaW1hZScsICc8aW5maWxlLm1hZT4nLCAnLW9tYWUnLCAnPG91dGZpbGUubWFlPic=

> <r_lp_tautomer_probability>
1

> <r_epik_Ionization_Penalty>
0.667689

> <r_epik_Ionization_Penalty_Charging>
0

> <r_epik_Ionization_Penalty_Neutral>
0.667689

> <r_epik_State_Penalty>
0.684601

> <r_epik_Charging_Adjusted_Penalty>
0.684601

> <i_epik_Tot_Q>
0

> <i_epik_Tot_abs_Q>
0

> <r_epik_Metal_State_Penalty>
0.681448

> <b_epik_Metal_Only>
0

> <s_lp_Force_Field>
OPLS_2005

> <r_lp_Energy>
29.7123

> <b_lp_Chiralities_Consistent>
1

> <s_lp_Variant>
AV-unprocessed.smi:3056-9

> <Gold.Version>
5.8.1

> <Gold.Id.Protein>
6NUR|6NUR_protein|mol2

> <Gold.PLP.Fitness>
47.3295

> <Gold.PLP.PLP>
-41.6065

> <Gold.PLP.part.hbond>
-2.0000

> <Gold.PLP.part.metal>
0.0000

> <Gold.PLP.part.buried>
-5.6547

> <Gold.PLP.part.nonpolar>
-34.6273

> <Gold.PLP.part.repulsive>
0.0566

> <Gold.PLP.ligand.clash>
0.0000

> <Gold.PLP.ligand.torsion>
0.1776

> <Gold.PLP.Chemscore.Hbond>
2.0000

> <Gold.PLP.Chemscore.CHOScore>
0.0000

> <Gold.PLP.Chemscore.Metal>
0.0000

> <Gold.Chemscore.Hbonds>
donor molecule, donor type, donor heavy atom, donor atom, acceptor molecule, acceptor atom, score
      P1  H  7989  7998       L1    17  0.85
      P1  H 10752 10763       L1    13  1.00

> <Gold.PLP.Chemscore.Internal.Correction>
0.0782

> <Gold.Rescore>
     Score         DG    S(hbond)    S(metal)    S(lipo)     H(rot)  DE(clash)    DE(int)     intcor
     20.55     -20.95       1.92        0.00     114.12       1.68       0.14       0.26       ----

> <Gold.Chemscore.Fitness>
20.5512

> <Gold.Chemscore.DG>
-20.9499

> <Gold.Chemscore.ZeroCoef>
-5.4800

> <Gold.Chemscore.Hbond>
1.9211

> <Gold.Chemscore.Metal>
0.0000

> <Gold.Chemscore.Lipo>
114.1234

> <Gold.Chemscore.Internal_Hbond>
0.0000

> <Gold.Chemscore.DEClash>
0.1379

> <Gold.Chemscore.DEInternal>
0.2608

> <Gold.Chemscore.Rot>
1.6793

> <Gold.Chemscore.Internal.Correction>
   9.000000E+99

> <Gold.Chemscore.Hbonds>
donor molecule, donor type, donor heavy atom, donor atom, acceptor molecule, acceptor atom, score
      P1  H  7989  7998       L1    17  0.14
      P1  H 10752 10763       L1    13  0.98

> <Gold.Chemscore.Hbond.Weighted>
-6.4165

> <Gold.Chemscore.Metal.Weighted>
-0.0000

> <Gold.Chemscore.Lipo.Weighted>
-13.3524

> <Gold.Chemscore.Internal_Hbond.Weighted>
0.0000

> <Gold.Chemscore.DEClash.Weighted>
0.1379

> <Gold.Chemscore.DEInternal.Weighted>
0.2608

> <Gold.Chemscore.Rot.Weighted>
4.2990

> <Gold.Chemscore.Internal.Correction.Weighted>
   9.000000E+99

> <Gold.Protein.RotatedTorsions>
[ 6907 6896 6895 6894 ] final   59.45 input  -60.11 | X-H torsion
[ 7974 7965 7964 7962 ] final  -48.05 input  175.53 | X-H torsion
[ 8008 7997 7996 7995 ] final   94.20 input   59.86 | X-H torsion
[ 10167 10162 10161 10158 ] final  -87.91 input  -65.29 | X-H torsion
[ 10718 10713 10712 10709 ] final -131.21 input   66.30 | X-H torsion
[ 10763 10752 10751 10750 ] final  133.57 input  -60.55 | X-H torsion
[ 11005 11000 10999 10996 ] final  -19.69 input  -57.11 | X-H torsion

> <Gold.Protein.ActiveResidues>
 VAL166  LYS551  ARG553  GLY616  TRP617  ASP618  TYR619  PRO620  LYS621  CYS622 
 ASP623  PHE694  ASN695  SER759  ASP760  ASP761  ALA762  ILE779  LEU786  VAL792 
 PHE793  MET794  SER795  GLU796  ALA797  LYS798  CYS799  TRP800  GLU811  SER814 

> <Gold.Protein.RotatedAtoms>
  152.3916  134.6432  160.0105 H   0  0  0  0  0  0  0  0  0  0  0  0  # atno 6907 bound_to 6896
  151.6664  133.3309  159.3194 H   0  0  0  0  0  0  0  0  0  0  0  0  # atno 6908 bound_to 6896
  150.7831  134.6836  159.6502 H   0  0  0  0  0  0  0  0  0  0  0  0  # atno 6909 bound_to 6896
  145.9552  140.7534  142.9485 H   0  0  0  0  0  0  0  0  0  0  0  0  # atno 7974 bound_to 7965
  156.0553  140.3303  155.7398 H   0  0  0  0  0  0  0  0  0  0  0  0  # atno 8008 bound_to 7997
  155.5538  140.0612  157.2861 H   0  0  0  0  0  0  0  0  0  0  0  0  # atno 8009 bound_to 7997
  154.4455  140.1889  156.0702 H   0  0  0  0  0  0  0  0  0  0  0  0  # atno 8010 bound_to 7997
  140.3799  143.2754  151.9397 H   0  0  0  0  0  0  0  0  0  0  0  0  # atno 10167 bound_to 10162
  156.2221  130.6985  151.0767 H   0  0  0  0  0  0  0  0  0  0  0  0  # atno 10718 bound_to 10713
  153.8093  135.3131  155.3399 H   0  0  0  0  0  0  0  0  0  0  0  0  # atno 10763 bound_to 10752
  154.8058  135.4699  154.0391 H   0  0  0  0  0  0  0  0  0  0  0  0  # atno 10764 bound_to 10752
  153.1764  135.6886  153.8626 H   0  0  0  0  0  0  0  0  0  0  0  0  # atno 10765 bound_to 10752
  140.8391  133.7940  155.9841 H   0  0  0  0  0  0  0  0  0  0  0  0  # atno 11005 bound_to 11000
  144.6803  140.2500  143.7333 LP  0  0  0  0  0  0  0  0  0  0  0  0  # atno 17320 bound_to 7965
  145.8117  139.2006  143.1989 LP  0  0  0  0  0  0  0  0  0  0  0  0  # atno 17321 bound_to 7965
  139.4796  144.5829  151.7903 LP  0  0  0  0  0  0  0  0  0  0  0  0  # atno 17342 bound_to 10162
  140.4948  144.1256  150.5958 LP  0  0  0  0  0  0  0  0  0  0  0  0  # atno 17343 bound_to 10162
  157.7092  131.0742  150.6559 LP  0  0  0  0  0  0  0  0  0  0  0  0  # atno 17370 bound_to 10713
  156.6623  130.4515  149.5684 LP  0  0  0  0  0  0  0  0  0  0  0  0  # atno 17371 bound_to 10713
  140.8915  134.2490  157.5092 LP  0  0  0  0  0  0  0  0  0  0  0  0  # atno 17394 bound_to 11000
  139.8703  134.9663  156.4559 LP  0  0  0  0  0  0  0  0  0  0  0  0  # atno 17395 bound_to 11000

$$$$
