AV-unprocessed.smi:2642|AV-procd|sdf|10274|dock1
  -GOLD-   2272014283D 1   1.00000     0.00000
 Structure written by MMmdl.
 32 33  0  0  0  0  0  0  0  0  1 V2000
  144.4758  136.7333  151.8697 O   0  0  0  0  0  0  0  0  0  0  0  0
  145.6663  136.4239  151.8270 C   0  0  0  0  0  0  0  0  0  0  0  0
  146.6585  137.2583  152.1685 N   0  0  0  0  0  0  0  0  0  0  0  0
  146.4713  138.6285  152.6304 C   0  0  0  0  0  0  0  0  0  0  0  0
  147.6591  139.0976  153.4902 C   0  0  0  0  0  0  0  0  0  0  0  0
  147.3814  140.3900  154.1212 N   0  0  0  0  0  0  0  0  0  0  0  0
  146.1997  140.7300  154.6525 C   0  0  0  0  0  0  0  0  0  0  0  0
  145.1738  140.0521  154.6954 O   0  0  0  0  0  0  0  0  0  0  0  0
  146.3155  142.1264  155.2234 C   0  0  0  0  0  0  0  0  0  0  0  0
  147.7001  142.3976  154.9015 N   0  0  0  0  0  0  0  0  0  0  0  0
  148.2878  141.3733  154.2695 C   0  0  0  0  0  0  0  0  0  0  0  0
  149.4602  141.3491  153.8979 O   0  0  0  0  0  0  0  0  0  0  0  0
  146.1465  135.2367  151.4184 N   0  0  0  0  0  0  0  0  0  0  0  0
  145.4224  134.0871  151.0009 C   0  0  0  0  0  0  0  0  0  0  0  0
  146.0120  132.9486  150.3994 C   0  0  0  0  0  0  0  0  0  0  0  0
  145.1824  131.8800  150.0084 C   0  0  0  0  0  0  0  0  0  0  0  0
  143.7955  131.9899  150.2266 C   0  0  0  0  0  0  0  0  0  0  0  0
  143.2186  133.0735  150.7874 N   0  0  0  0  0  0  0  0  0  0  0  0
  144.0202  134.0946  151.1586 C   0  0  0  0  0  0  0  0  0  0  0  0
  147.6091  136.9256  152.0996 H   0  0  0  0  0  0  0  0  0  0  0  0
  146.3291  139.2927  151.7759 H   0  0  0  0  0  0  0  0  0  0  0  0
  145.5493  138.6709  153.2110 H   0  0  0  0  0  0  0  0  0  0  0  0
  147.8868  138.3506  154.2527 H   0  0  0  0  0  0  0  0  0  0  0  0
  148.5596  139.1760  152.8783 H   0  0  0  0  0  0  0  0  0  0  0  0
  145.6414  142.8236  154.7249 H   0  0  0  0  0  0  0  0  0  0  0  0
  146.1422  142.1376  156.2999 H   0  0  0  0  0  0  0  0  0  0  0  0
  148.1607  143.2647  155.1377 H   0  0  0  0  0  0  0  0  0  0  0  0
  147.1511  135.1628  151.3514 H   0  0  0  0  0  0  0  0  0  0  0  0
  147.0729  132.8797  150.2167 H   0  0  0  0  0  0  0  0  0  0  0  0
  145.6001  130.9975  149.5470 H   0  0  0  0  0  0  0  0  0  0  0  0
  143.1312  131.1890  149.9372 H   0  0  0  0  0  0  0  0  0  0  0  0
  143.5232  134.9460  151.6005 H   0  0  0  0  0  0  0  0  0  0  0  0
  1  2  2  0  0  0  0
  2  3  1  0  0  0  0
  2 13  1  0  0  0  0
  3  4  1  0  0  0  0
  3 20  1  0  0  0  0
  4  5  1  0  0  0  0
  4 21  1  0  0  0  0
  4 22  1  0  0  0  0
  5  6  1  0  0  0  0
  5 23  1  0  0  0  0
  5 24  1  0  0  0  0
  6 11  1  0  0  0  0
  6  7  1  0  0  0  0
  7  8  2  0  0  0  0
  7  9  1  0  0  0  0
  9 10  1  0  0  0  0
  9 25  1  0  0  0  0
  9 26  1  0  0  0  0
 10 11  1  0  0  0  0
 10 27  1  0  0  0  0
 11 12  2  0  0  0  0
 13 14  1  0  0  0  0
 13 28  1  0  0  0  0
 14 19  1  0  0  0  0
 14 15  2  0  0  0  0
 15 16  1  0  0  0  0
 15 29  1  0  0  0  0
 16 17  2  0  0  0  0
 16 30  1  0  0  0  0
 17 18  1  0  0  0  0
 17 31  1  0  0  0  0
 18 19  2  0  0  0  0
 19 32  1  0  0  0  0
M  END
> <s_m_source_file>
AV-unprocessed.smi

> <i_m_source_file_index>
2642

> <i_lp_mmshare_version>
43012

> <i_f3d_flags>
0

> <s_epik_input>
W2NIXTFuW2NIXVtjSF1bY0hdYzFbTkhdQyg9TylbTkhdW0NIMl1bQ0gyXU4yQyg9TylbQ0gyXVtOSF1DMj1P

> <s_epik_cmdline>
J2VwaWtfcHl0aG9uJywgJy1waCcsICc3LjAnLCAnLXRuJywgJzgnLCAnLW1hJywgJzIwMCcsICctbWV0YWxfYmluZGluZycsICctaW1hZScsICc8aW5maWxlLm1hZT4nLCAnLW9tYWUnLCAnPG91dGZpbGUubWFlPic=

> <r_lp_tautomer_probability>
1

> <r_epik_Ionization_Penalty>
0.00464634

> <r_epik_Ionization_Penalty_Charging>
0

> <r_epik_Ionization_Penalty_Neutral>
0.00464634

> <r_epik_State_Penalty>
0.00329662

> <r_epik_Charging_Adjusted_Penalty>
0.00329662

> <i_epik_Tot_Q>
0

> <i_epik_Tot_abs_Q>
0

> <r_epik_Metal_State_Penalty>
0.029405

> <b_epik_Metal_Only>
0

> <s_lp_Force_Field>
OPLS_2005

> <r_lp_Energy>
19.2502

> <b_lp_Chiralities_Consistent>
1

> <s_lp_Variant>
AV-unprocessed.smi:2642-1

> <Gold.Version>
5.8.1

> <Gold.Id.Protein>
6NUR|6NUR_protein|mol2

> <Gold.PLP.Fitness>
44.1825

> <Gold.PLP.PLP>
-31.4494

> <Gold.PLP.part.hbond>
-4.9857

> <Gold.PLP.part.metal>
0.0000

> <Gold.PLP.part.buried>
-6.4942

> <Gold.PLP.part.nonpolar>
-23.1360

> <Gold.PLP.part.repulsive>
2.4942

> <Gold.PLP.ligand.clash>
0.0000

> <Gold.PLP.ligand.torsion>
0.4978

> <Gold.PLP.Chemscore.Hbond>
3.5793

> <Gold.PLP.Chemscore.CHOScore>
0.9950

> <Gold.PLP.Chemscore.Metal>
0.0000

> <Gold.Chemscore.Hbonds>
donor molecule, donor type, donor heavy atom, donor atom, acceptor molecule, acceptor atom, score
      L1  H     3    20       P1  7948  0.96
      L1  H    10    27       P1  8028  1.00
      L1  H    13    28       P1  7948  0.69
      P1  H  7989  7998       L1    12  0.13
      P1  H  8011  8017       L1    12  0.78
      L1  C    17    31       P1 10952  1.00

> <Gold.PLP.Chemscore.Internal.Correction>
0.0056

> <Gold.Rescore>
     Score         DG    S(hbond)    S(metal)    S(lipo)     H(rot)  DE(clash)    DE(int)     intcor
     15.04     -18.46       3.37        0.00      57.02       1.93       0.17       3.25       ----

> <Gold.Chemscore.Fitness>
15.0370

> <Gold.Chemscore.DG>
-18.4557

> <Gold.Chemscore.ZeroCoef>
-5.4800

> <Gold.Chemscore.Hbond>
3.3693

> <Gold.Chemscore.Metal>
0.0000

> <Gold.Chemscore.Lipo>
57.0216

> <Gold.Chemscore.Internal_Hbond>
0.0000

> <Gold.Chemscore.DEClash>
0.1712

> <Gold.Chemscore.DEInternal>
3.2475

> <Gold.Chemscore.Rot>
1.9334

> <Gold.Chemscore.Internal.Correction>
   9.000000E+99

> <Gold.Chemscore.Hbonds>
donor molecule, donor type, donor heavy atom, donor atom, acceptor molecule, acceptor atom, score
      L1  H     3    20       P1  7948  0.91
      L1  H    10    27       P1  8028  0.93
      L1  H    13    28       P1  7948  0.56
      P1  H  7989  7998       L1    12  0.14
      P1  H  8011  8017       L1    12  0.68

> <Gold.Chemscore.Hbond.Weighted>
-11.2535

> <Gold.Chemscore.Metal.Weighted>
-0.0000

> <Gold.Chemscore.Lipo.Weighted>
-6.6715

> <Gold.Chemscore.Internal_Hbond.Weighted>
0.0000

> <Gold.Chemscore.DEClash.Weighted>
0.1712

> <Gold.Chemscore.DEInternal.Weighted>
3.2475

> <Gold.Chemscore.Rot.Weighted>
4.9494

> <Gold.Chemscore.Internal.Correction.Weighted>
   9.000000E+99

> <Gold.Protein.RotatedTorsions>
[ 6907 6896 6895 6894 ] final   26.01 input  -60.11 | X-H torsion
[ 7974 7965 7964 7962 ] final   63.94 input  175.53 | X-H torsion
[ 8008 7997 7996 7995 ] final  -17.19 input   59.86 | X-H torsion
[ 10167 10162 10161 10158 ] final  152.41 input  -65.29 | X-H torsion
[ 10718 10713 10712 10709 ] final   20.27 input   66.30 | X-H torsion
[ 10763 10752 10751 10750 ] final -168.33 input  -60.55 | X-H torsion
[ 11005 11000 10999 10996 ] final  101.58 input  -57.11 | X-H torsion

> <Gold.Protein.ActiveResidues>
 VAL166  LYS551  ARG553  GLY616  TRP617  ASP618  TYR619  PRO620  LYS621  CYS622 
 ASP623  PHE694  ASN695  SER759  ASP760  ASP761  ALA762  ILE779  LEU786  VAL792 
 PHE793  MET794  SER795  GLU796  ALA797  LYS798  CYS799  TRP800  GLU811  SER814 

> <Gold.Protein.RotatedAtoms>
  151.9811  135.0028  160.0557 H   0  0  0  0  0  0  0  0  0  0  0  0  # atno 6907 bound_to 6896
  152.1695  133.4630  159.4910 H   0  0  0  0  0  0  0  0  0  0  0  0  # atno 6908 bound_to 6896
  150.6899  134.1888  159.4320 H   0  0  0  0  0  0  0  0  0  0  0  0  # atno 6909 bound_to 6896
  145.8560  139.3284  143.0847 H   0  0  0  0  0  0  0  0  0  0  0  0  # atno 7974 bound_to 7965
  154.4996  140.2149  155.9373 H   0  0  0  0  0  0  0  0  0  0  0  0  # atno 8008 bound_to 7997
  156.1417  140.3178  155.8473 H   0  0  0  0  0  0  0  0  0  0  0  0  # atno 8009 bound_to 7997
  155.4108  140.0490  157.3022 H   0  0  0  0  0  0  0  0  0  0  0  0  # atno 8010 bound_to 7997
  139.4833  144.5360  151.7644 H   0  0  0  0  0  0  0  0  0  0  0  0  # atno 10167 bound_to 10162
  157.1221  130.6554  149.5927 H   0  0  0  0  0  0  0  0  0  0  0  0  # atno 10718 bound_to 10713
  154.6640  135.2929  154.9829 H   0  0  0  0  0  0  0  0  0  0  0  0  # atno 10763 bound_to 10752
  154.0879  135.6595  153.4852 H   0  0  0  0  0  0  0  0  0  0  0  0  # atno 10764 bound_to 10752
  153.0446  135.5213  154.7604 H   0  0  0  0  0  0  0  0  0  0  0  0  # atno 10765 bound_to 10752
  139.8774  134.9189  156.4929 H   0  0  0  0  0  0  0  0  0  0  0  0  # atno 11005 bound_to 11000
  145.9303  140.9053  143.0359 LP  0  0  0  0  0  0  0  0  0  0  0  0  # atno 17320 bound_to 7965
  144.6727  140.1410  143.7437 LP  0  0  0  0  0  0  0  0  0  0  0  0  # atno 17321 bound_to 7965
  140.4893  144.1335  150.5947 LP  0  0  0  0  0  0  0  0  0  0  0  0  # atno 17342 bound_to 10162
  140.4190  143.2621  151.9739 LP  0  0  0  0  0  0  0  0  0  0  0  0  # atno 17343 bound_to 10162
  155.9826  130.4841  150.6890 LP  0  0  0  0  0  0  0  0  0  0  0  0  # atno 17370 bound_to 10713
  157.4467  131.0867  151.0888 LP  0  0  0  0  0  0  0  0  0  0  0  0  # atno 17371 bound_to 10713
  140.8646  133.8034  155.9300 LP  0  0  0  0  0  0  0  0  0  0  0  0  # atno 17394 bound_to 11000
  140.9015  134.2372  157.5039 LP  0  0  0  0  0  0  0  0  0  0  0  0  # atno 17395 bound_to 11000

$$$$
