AV-unprocessed.smi:2436|AV-procd|sdf|9593|dock6
  -GOLD-   2272013223D 1   1.00000     0.00000
 Structure written by MMmdl.
 36 37  0  0  0  0  0  0  0  0  1 V2000
  145.1041  135.2040  150.5430 C   0  0  0  0  0  0  0  0  0  0  0  0
  146.0353  134.3973  151.4612 C   0  0  0  0  0  0  0  0  0  0  0  0
  145.9044  132.8697  151.3139 C   0  0  0  0  0  0  0  0  0  0  0  0
  147.0691  132.1926  151.8928 N   0  0  0  0  0  0  0  0  0  0  0  0
  147.5746  132.3822  153.1223 C   0  0  0  0  0  0  0  0  0  0  0  0
  147.0993  133.1701  153.9406 O   0  0  0  0  0  0  0  0  0  0  0  0
  148.6527  131.6054  153.3274 N   0  0  0  0  0  0  0  0  0  0  0  0
  149.4601  131.5183  154.4923 C   0  0  0  0  0  0  0  0  0  0  0  0
  149.4509  132.6549  155.3317 C   0  0  0  0  0  0  0  0  0  0  0  0
  150.2420  132.6105  156.4980 C   0  0  0  0  0  0  0  0  0  0  0  0
  150.2626  133.7008  157.3427 O   0  0  0  0  0  0  0  0  0  0  0  0
  149.6015  134.8887  156.9220 C   0  0  0  0  0  0  0  0  0  0  0  0
  150.9821  131.5175  156.8039 N   0  0  0  0  0  0  0  0  0  0  0  0
  150.9238  130.4948  155.9502 C   0  0  0  0  0  0  0  0  0  0  0  0
  150.2105  130.4385  154.8239 N   0  0  0  0  0  0  0  0  0  0  0  0
  144.5798  132.2043  151.7481 C   0  0  0  0  0  0  0  0  0  0  0  0
  144.1229  132.2839  150.2894 C   0  0  0  0  0  0  0  0  0  0  0  0
  145.6070  132.2960  149.9136 C   0  0  0  0  0  0  0  0  0  0  0  0
  145.2151  136.2724  150.7276 H   0  0  0  0  0  0  0  0  0  0  0  0
  144.0582  134.9479  150.7116 H   0  0  0  0  0  0  0  0  0  0  0  0
  145.3278  135.0302  149.4903 H   0  0  0  0  0  0  0  0  0  0  0  0
  147.0646  134.7072  151.2794 H   0  0  0  0  0  0  0  0  0  0  0  0
  145.8298  134.6863  152.4923 H   0  0  0  0  0  0  0  0  0  0  0  0
  147.5327  131.5221  151.2973 H   0  0  0  0  0  0  0  0  0  0  0  0
  148.9266  131.0060  152.5631 H   0  0  0  0  0  0  0  0  0  0  0  0
  148.8636  133.5302  155.0944 H   0  0  0  0  0  0  0  0  0  0  0  0
  149.6993  135.6499  157.6959 H   0  0  0  0  0  0  0  0  0  0  0  0
  148.5363  134.7166  156.7609 H   0  0  0  0  0  0  0  0  0  0  0  0
  150.0422  135.2880  156.0074 H   0  0  0  0  0  0  0  0  0  0  0  0
  151.5140  129.6245  156.1951 H   0  0  0  0  0  0  0  0  0  0  0  0
  144.6914  131.1738  152.0915 H   0  0  0  0  0  0  0  0  0  0  0  0
  143.9787  132.7920  152.4426 H   0  0  0  0  0  0  0  0  0  0  0  0
  143.5679  131.4145  149.9363 H   0  0  0  0  0  0  0  0  0  0  0  0
  143.6127  133.2182  150.0494 H   0  0  0  0  0  0  0  0  0  0  0  0
  145.8528  132.9538  149.0797 H   0  0  0  0  0  0  0  0  0  0  0  0
  146.0018  131.2903  149.7552 H   0  0  0  0  0  0  0  0  0  0  0  0
  1  2  1  0  0  0  0
  1 19  1  0  0  0  0
  1 20  1  0  0  0  0
  1 21  1  0  0  0  0
  2  3  1  0  0  0  0
  2 22  1  0  0  0  0
  2 23  1  0  0  0  0
  3 18  1  0  0  0  0
  3  4  1  0  0  0  0
  3 16  1  0  0  0  0
  4  5  1  0  0  0  0
  4 24  1  0  0  0  0
  5  6  2  0  0  0  0
  5  7  1  0  0  0  0
  7  8  1  0  0  0  0
  7 25  1  0  0  0  0
  8 15  1  0  0  0  0
  8  9  2  0  0  0  0
  9 10  1  0  0  0  0
  9 26  1  0  0  0  0
 10 11  1  0  0  0  0
 10 13  2  0  0  0  0
 11 12  1  0  0  0  0
 12 27  1  0  0  0  0
 12 28  1  0  0  0  0
 12 29  1  0  0  0  0
 13 14  1  0  0  0  0
 14 15  2  0  0  0  0
 14 30  1  0  0  0  0
 16 17  1  0  0  0  0
 16 31  1  0  0  0  0
 16 32  1  0  0  0  0
 17 18  1  0  0  0  0
 17 33  1  0  0  0  0
 17 34  1  0  0  0  0
 18 35  1  0  0  0  0
 18 36  1  0  0  0  0
M  END
> <s_m_source_file>
AV-unprocessed.smi

> <i_m_source_file_index>
2436

> <i_lp_mmshare_version>
43012

> <i_f3d_flags>
0

> <s_epik_input>
W0NIMl0xW0NIMl1bQ0gyXUMxKFtDSDJdW0NIM10pW05IXUMoPU8pW05IXWMyW2NIXWMoT1tDSDNdKW5bY0hdbjI=

> <s_epik_cmdline>
J2VwaWtfcHl0aG9uJywgJy1waCcsICc3LjAnLCAnLXRuJywgJzgnLCAnLW1hJywgJzIwMCcsICctbWV0YWxfYmluZGluZycsICctaW1hZScsICc8aW5maWxlLm1hZT4nLCAnLW9tYWUnLCAnPG91dGZpbGUubWFlPic=

> <r_lp_tautomer_probability>
1

> <r_epik_Ionization_Penalty>
2.8431e-05

> <r_epik_Ionization_Penalty_Charging>
0

> <r_epik_Ionization_Penalty_Neutral>
2.8431e-05

> <r_epik_State_Penalty>
-0

> <r_epik_Charging_Adjusted_Penalty>
0

> <i_epik_Tot_Q>
0

> <i_epik_Tot_abs_Q>
0

> <r_epik_Metal_State_Penalty>
-0

> <b_epik_Metal_Only>
0

> <s_lp_Force_Field>
OPLS_2005

> <r_lp_Energy>
14.8333

> <b_lp_Chiralities_Consistent>
1

> <s_lp_Variant>
AV-unprocessed.smi:2436-1

> <Gold.Version>
5.8.1

> <Gold.Id.Protein>
6NUR|6NUR_protein|mol2

> <Gold.PLP.Fitness>
39.6799

> <Gold.PLP.PLP>
-31.6650

> <Gold.PLP.part.hbond>
-3.0000

> <Gold.PLP.part.metal>
0.0000

> <Gold.PLP.part.buried>
-5.1854

> <Gold.PLP.part.nonpolar>
-24.6404

> <Gold.PLP.part.repulsive>
0.1684

> <Gold.PLP.ligand.clash>
0.1384

> <Gold.PLP.ligand.torsion>
0.6004

> <Gold.PLP.Chemscore.Hbond>
2.9840

> <Gold.PLP.Chemscore.CHOScore>
0.0000

> <Gold.PLP.Chemscore.Metal>
0.0000

> <Gold.Chemscore.Hbonds>
donor molecule, donor type, donor heavy atom, donor atom, acceptor molecule, acceptor atom, score
      L1  H     4    24       P1 10747  1.00
      L1  H     7    25       P1 10747  0.37
      P1  H  6896  6908       L1    11  0.91

> <Gold.PLP.Chemscore.Internal.Correction>
0.4020

> <Gold.Rescore>
     Score         DG    S(hbond)    S(metal)    S(lipo)     H(rot)  DE(clash)    DE(int)     intcor
     11.38     -14.56       1.99        0.00      55.19       1.57       0.12       3.06       ----

> <Gold.Chemscore.Fitness>
11.3849

> <Gold.Chemscore.DG>
-14.5635

> <Gold.Chemscore.ZeroCoef>
-5.4800

> <Gold.Chemscore.Hbond>
1.9922

> <Gold.Chemscore.Metal>
0.0000

> <Gold.Chemscore.Lipo>
55.1882

> <Gold.Chemscore.Internal_Hbond>
0.0000

> <Gold.Chemscore.DEClash>
0.1214

> <Gold.Chemscore.DEInternal>
3.0572

> <Gold.Chemscore.Rot>
1.5732

> <Gold.Chemscore.Internal.Correction>
   9.000000E+99

> <Gold.Chemscore.Hbonds>
donor molecule, donor type, donor heavy atom, donor atom, acceptor molecule, acceptor atom, score
      L1  H     4    24       P1 10747  0.98
      L1  H     7    25       P1 10747  0.20
      P1  H  6896  6908       L1    11  0.81

> <Gold.Chemscore.Hbond.Weighted>
-6.6539

> <Gold.Chemscore.Metal.Weighted>
-0.0000

> <Gold.Chemscore.Lipo.Weighted>
-6.4570

> <Gold.Chemscore.Internal_Hbond.Weighted>
0.0000

> <Gold.Chemscore.DEClash.Weighted>
0.1214

> <Gold.Chemscore.DEInternal.Weighted>
3.0572

> <Gold.Chemscore.Rot.Weighted>
4.0274

> <Gold.Chemscore.Internal.Correction.Weighted>
   9.000000E+99

> <Gold.Protein.RotatedTorsions>
[ 6907 6896 6895 6894 ] final  106.48 input  -60.11 | X-H torsion
[ 7974 7965 7964 7962 ] final  112.16 input  175.53 | X-H torsion
[ 8008 7997 7996 7995 ] final   74.68 input   59.86 | X-H torsion
[ 10167 10162 10161 10158 ] final  103.04 input  -65.29 | X-H torsion
[ 10718 10713 10712 10709 ] final    0.99 input   66.30 | X-H torsion
[ 10763 10752 10751 10750 ] final  -41.86 input  -60.55 | X-H torsion
[ 11005 11000 10999 10996 ] final   51.11 input  -57.11 | X-H torsion

> <Gold.Protein.ActiveResidues>
 VAL166  LYS551  ARG553  GLY616  TRP617  ASP618  TYR619  PRO620  LYS621  CYS622 
 ASP623  PHE694  ASN695  SER759  ASP760  ASP761  ALA762  ILE779  LEU786  VAL792 
 PHE793  MET794  SER795  GLU796  ALA797  LYS798  CYS799  TRP800  GLU811  SER814 

> <Gold.Protein.RotatedAtoms>
  152.5192  133.9374  159.7609 H   0  0  0  0  0  0  0  0  0  0  0  0  # atno 6907 bound_to 6896
  150.9712  133.6334  159.2744 H   0  0  0  0  0  0  0  0  0  0  0  0  # atno 6908 bound_to 6896
  151.3545  135.0897  159.9467 H   0  0  0  0  0  0  0  0  0  0  0  0  # atno 6909 bound_to 6896
  145.2331  139.2811  143.4158 H   0  0  0  0  0  0  0  0  0  0  0  0  # atno 7974 bound_to 7965
  155.8018  140.3476  155.5407 H   0  0  0  0  0  0  0  0  0  0  0  0  # atno 8008 bound_to 7997
  155.8530  140.0959  157.1683 H   0  0  0  0  0  0  0  0  0  0  0  0  # atno 8009 bound_to 7997
  154.4008  140.1373  156.3855 H   0  0  0  0  0  0  0  0  0  0  0  0  # atno 8010 bound_to 7997
  139.7298  144.7039  151.0741 H   0  0  0  0  0  0  0  0  0  0  0  0  # atno 10167 bound_to 10162
  156.8416  130.5523  149.5677 H   0  0  0  0  0  0  0  0  0  0  0  0  # atno 10718 bound_to 10713
  153.9695  135.6730  153.4747 H   0  0  0  0  0  0  0  0  0  0  0  0  # atno 10763 bound_to 10752
  153.0800  135.4928  154.8479 H   0  0  0  0  0  0  0  0  0  0  0  0  # atno 10764 bound_to 10752
  154.7227  135.3120  154.8981 H   0  0  0  0  0  0  0  0  0  0  0  0  # atno 10765 bound_to 10752
  140.0960  134.5145  155.8807 H   0  0  0  0  0  0  0  0  0  0  0  0  # atno 11005 bound_to 11000
  146.3348  140.2671  142.8604 LP  0  0  0  0  0  0  0  0  0  0  0  0  # atno 17320 bound_to 7965
  144.9658  140.8320  143.5485 LP  0  0  0  0  0  0  0  0  0  0  0  0  # atno 17321 bound_to 7965
  140.7769  143.5058  150.9713 LP  0  0  0  0  0  0  0  0  0  0  0  0  # atno 17342 bound_to 10162
  139.8746  143.7148  152.3163 LP  0  0  0  0  0  0  0  0  0  0  0  0  # atno 17343 bound_to 10162
  156.0877  130.5871  150.9678 LP  0  0  0  0  0  0  0  0  0  0  0  0  # atno 17370 bound_to 10713
  157.6352  131.0917  150.8362 LP  0  0  0  0  0  0  0  0  0  0  0  0  # atno 17371 bound_to 10713
  141.2092  133.6681  156.6423 LP  0  0  0  0  0  0  0  0  0  0  0  0  # atno 17394 bound_to 11000
  140.3286  134.7948  157.4308 LP  0  0  0  0  0  0  0  0  0  0  0  0  # atno 17395 bound_to 11000

$$$$
