AV-unprocessed.smi:3256|AV-procd|sdf|12465|dock6
  -GOLD-   2272018363D 1   1.00000     0.00000
 Structure written by MMmdl.
 36 37  0  0  0  0  0  0  0  0  1 V2000
  150.0106  135.1132  156.2634 O   0  0  0  0  0  0  0  0  0  0  0  0
  149.6631  135.3782  155.1134 C   0  0  0  0  0  0  0  0  0  0  0  0
  148.9961  134.5221  154.3261 N   0  0  0  0  0  0  0  0  0  0  0  0
  148.5966  133.1677  154.6944 C   0  0  0  0  0  0  0  0  0  0  0  0
  148.2781  132.3123  153.4526 C   0  0  0  0  0  0  0  0  0  0  0  0
  146.9944  132.5866  152.8067 N   0  0  0  0  0  0  0  0  0  0  0  0
  146.3386  131.3505  152.3950 C   0  0  0  0  0  0  0  0  0  0  0  0
  144.9825  131.6176  151.7194 C   0  0  0  0  0  0  0  0  0  0  0  0
  145.1681  132.4843  150.6054 O   0  0  0  0  0  0  0  0  0  0  0  0
  145.7681  133.7235  150.9683 C   0  0  0  0  0  0  0  0  0  0  0  0
  147.1253  133.4626  151.6441 C   0  0  0  0  0  0  0  0  0  0  0  0
  149.8977  136.5359  154.4713 N   0  0  0  0  0  0  0  0  0  0  0  0
  150.5542  137.7104  154.9326 C   0  0  0  0  0  0  0  0  0  0  0  0
  151.3916  137.7781  156.0734 C   0  0  0  0  0  0  0  0  0  0  0  0
  151.9695  139.0147  156.4204 C   0  0  0  0  0  0  0  0  0  0  0  0
  151.6871  140.1386  155.6206 C   0  0  0  0  0  0  0  0  0  0  0  0
  150.8872  140.0911  154.5352 N   0  0  0  0  0  0  0  0  0  0  0  0
  150.3378  138.9022  154.2081 C   0  0  0  0  0  0  0  0  0  0  0  0
  148.7560  134.8256  153.3939 H   0  0  0  0  0  0  0  0  0  0  0  0
  149.3358  132.6930  155.3400 H   0  0  0  0  0  0  0  0  0  0  0  0
  147.6939  133.2549  155.2994 H   0  0  0  0  0  0  0  0  0  0  0  0
  149.0807  132.4318  152.7236 H   0  0  0  0  0  0  0  0  0  0  0  0
  148.3094  131.2645  153.7549 H   0  0  0  0  0  0  0  0  0  0  0  0
  146.9826  130.8011  151.7066 H   0  0  0  0  0  0  0  0  0  0  0  0
  146.1867  130.7062  153.2617 H   0  0  0  0  0  0  0  0  0  0  0  0
  144.5399  130.6830  151.3747 H   0  0  0  0  0  0  0  0  0  0  0  0
  144.2806  132.0652  152.4248 H   0  0  0  0  0  0  0  0  0  0  0  0
  145.9009  134.3308  150.0729 H   0  0  0  0  0  0  0  0  0  0  0  0
  145.1049  134.2757  151.6358 H   0  0  0  0  0  0  0  0  0  0  0  0
  147.5578  134.4194  151.9339 H   0  0  0  0  0  0  0  0  0  0  0  0
  147.8091  133.0170  150.9199 H   0  0  0  0  0  0  0  0  0  0  0  0
  149.5815  136.5748  153.5135 H   0  0  0  0  0  0  0  0  0  0  0  0
  151.5995  136.9222  156.6948 H   0  0  0  0  0  0  0  0  0  0  0  0
  152.6129  139.1001  157.2836 H   0  0  0  0  0  0  0  0  0  0  0  0
  152.1121  141.1018  155.8608 H   0  0  0  0  0  0  0  0  0  0  0  0
  149.7021  138.9036  153.3345 H   0  0  0  0  0  0  0  0  0  0  0  0
  1  2  2  0  0  0  0
  2  3  1  0  0  0  0
  2 12  1  0  0  0  0
  3  4  1  0  0  0  0
  3 19  1  0  0  0  0
  4  5  1  0  0  0  0
  4 20  1  0  0  0  0
  4 21  1  0  0  0  0
  5  6  1  0  0  0  0
  5 22  1  0  0  0  0
  5 23  1  0  0  0  0
  6 11  1  0  0  0  0
  6  7  1  0  0  0  0
  7  8  1  0  0  0  0
  7 24  1  0  0  0  0
  7 25  1  0  0  0  0
  8  9  1  0  0  0  0
  8 26  1  0  0  0  0
  8 27  1  0  0  0  0
  9 10  1  0  0  0  0
 10 11  1  0  0  0  0
 10 28  1  0  0  0  0
 10 29  1  0  0  0  0
 11 30  1  0  0  0  0
 11 31  1  0  0  0  0
 12 13  1  0  0  0  0
 12 32  1  0  0  0  0
 13 18  1  0  0  0  0
 13 14  2  0  0  0  0
 14 15  1  0  0  0  0
 14 33  1  0  0  0  0
 15 16  2  0  0  0  0
 15 34  1  0  0  0  0
 16 17  1  0  0  0  0
 16 35  1  0  0  0  0
 17 18  2  0  0  0  0
 18 36  1  0  0  0  0
M  END
> <s_m_source_file>
AV-unprocessed.smi

> <i_m_source_file_index>
3256

> <i_lp_mmshare_version>
43012

> <i_f3d_flags>
0

> <s_epik_input>
W2NIXTFuW2NIXVtjSF1bY0hdYzFbTkhdQyg9TylbTkhdW0NIMl1bQ0gyXU4yW0NIMl1bQ0gyXU9bQ0gyXVtDSDJdMg==

> <s_epik_cmdline>
J2VwaWtfcHl0aG9uJywgJy1waCcsICc3LjAnLCAnLXRuJywgJzgnLCAnLW1hJywgJzIwMCcsICctbWV0YWxfYmluZGluZycsICctaW1hZScsICc8aW5maWxlLm1hZT4nLCAnLW9tYWUnLCAnPG91dGZpbGUubWFlPic=

> <r_epik_Ionization_Penalty>
0.270703

> <r_epik_Ionization_Penalty_Charging>
0

> <r_epik_Ionization_Penalty_Neutral>
0.270703

> <r_epik_State_Penalty>
0.268226

> <r_epik_Charging_Adjusted_Penalty>
0.268226

> <i_epik_Tot_Q>
0

> <i_epik_Tot_abs_Q>
0

> <r_epik_Metal_State_Penalty>
0.26483

> <b_epik_Metal_Only>
0

> <s_lp_Force_Field>
OPLS_2005

> <r_lp_Energy>
28.1533

> <b_lp_Chiralities_Consistent>
1

> <s_lp_Variant>
AV-unprocessed.smi:3256-1

> <Gold.Version>
5.8.1

> <Gold.Id.Protein>
6NUR|6NUR_protein|mol2

> <Gold.PLP.Fitness>
41.6072

> <Gold.PLP.PLP>
-31.2446

> <Gold.PLP.part.hbond>
-3.6282

> <Gold.PLP.part.metal>
0.0000

> <Gold.PLP.part.buried>
-3.5646

> <Gold.PLP.part.nonpolar>
-23.6660

> <Gold.PLP.part.repulsive>
0.4236

> <Gold.PLP.ligand.clash>
0.0000

> <Gold.PLP.ligand.torsion>
0.8126

> <Gold.PLP.Chemscore.Hbond>
2.9920

> <Gold.PLP.Chemscore.CHOScore>
1.0000

> <Gold.PLP.Chemscore.Metal>
0.0000

> <Gold.Chemscore.Hbonds>
donor molecule, donor type, donor heavy atom, donor atom, acceptor molecule, acceptor atom, score
      L1  H     3    19       P1  7948  0.93
      L1  H    12    32       P1  7948  1.00
      P1  H  7989  7998       L1    17  0.91
      L1  C    18    36       P1  7957  1.00

> <Gold.PLP.Chemscore.Internal.Correction>
0.0118

> <Gold.Rescore>
     Score         DG    S(hbond)    S(metal)    S(lipo)     H(rot)  DE(clash)    DE(int)     intcor
     16.09     -18.09       2.64        0.00      65.25       1.49       0.01       1.99       ----

> <Gold.Chemscore.Fitness>
16.0949

> <Gold.Chemscore.DG>
-18.0927

> <Gold.Chemscore.ZeroCoef>
-5.4800

> <Gold.Chemscore.Hbond>
2.6363

> <Gold.Chemscore.Metal>
0.0000

> <Gold.Chemscore.Lipo>
65.2501

> <Gold.Chemscore.Internal_Hbond>
0.0000

> <Gold.Chemscore.DEClash>
0.0126

> <Gold.Chemscore.DEInternal>
1.9852

> <Gold.Chemscore.Rot>
1.4949

> <Gold.Chemscore.Internal.Correction>
   9.000000E+99

> <Gold.Chemscore.Hbonds>
donor molecule, donor type, donor heavy atom, donor atom, acceptor molecule, acceptor atom, score
      L1  H     3    19       P1  7948  0.38
      L1  H    12    32       P1  7948  0.65
      P1  H  7989  7998       L1    17  0.38

> <Gold.Chemscore.Hbond.Weighted>
-8.8053

> <Gold.Chemscore.Metal.Weighted>
-0.0000

> <Gold.Chemscore.Lipo.Weighted>
-7.6343

> <Gold.Chemscore.Internal_Hbond.Weighted>
0.0000

> <Gold.Chemscore.DEClash.Weighted>
0.0126

> <Gold.Chemscore.DEInternal.Weighted>
1.9852

> <Gold.Chemscore.Rot.Weighted>
3.8269

> <Gold.Chemscore.Internal.Correction.Weighted>
   9.000000E+99

> <Gold.Protein.RotatedTorsions>
[ 6907 6896 6895 6894 ] final  -54.64 input  -60.11 | X-H torsion
[ 7974 7965 7964 7962 ] final -107.41 input  175.53 | X-H torsion
[ 8008 7997 7996 7995 ] final   47.30 input   59.86 | X-H torsion
[ 10167 10162 10161 10158 ] final   96.68 input  -65.29 | X-H torsion
[ 10718 10713 10712 10709 ] final  -47.52 input   66.30 | X-H torsion
[ 10763 10752 10751 10750 ] final -166.17 input  -60.55 | X-H torsion
[ 11005 11000 10999 10996 ] final -159.19 input  -57.11 | X-H torsion

> <Gold.Protein.ActiveResidues>
 VAL166  LYS551  ARG553  GLY616  TRP617  ASP618  TYR619  PRO620  LYS621  CYS622 
 ASP623  PHE694  ASN695  SER759  ASP760  ASP761  ALA762  ILE779  LEU786  VAL792 
 PHE793  MET794  SER795  GLU796  ALA797  LYS798  CYS799  TRP800  GLU811  SER814 

> <Gold.Protein.RotatedAtoms>
  150.8321  134.7578  159.6861 H   0  0  0  0  0  0  0  0  0  0  0  0  # atno 6907 bound_to 6896
  152.4424  134.5561  159.9890 H   0  0  0  0  0  0  0  0  0  0  0  0  # atno 6908 bound_to 6896
  151.5720  133.3351  159.3027 H   0  0  0  0  0  0  0  0  0  0  0  0  # atno 6909 bound_to 6896
  145.2057  140.9075  143.3344 H   0  0  0  0  0  0  0  0  0  0  0  0  # atno 7974 bound_to 7965
  155.3667  140.3421  155.4242 H   0  0  0  0  0  0  0  0  0  0  0  0  # atno 8008 bound_to 7997
  156.1684  140.1623  156.8525 H   0  0  0  0  0  0  0  0  0  0  0  0  # atno 8009 bound_to 7997
  154.5208  140.0767  156.8151 H   0  0  0  0  0  0  0  0  0  0  0  0  # atno 8010 bound_to 7997
  139.7871  144.6866  150.9942 H   0  0  0  0  0  0  0  0  0  0  0  0  # atno 10167 bound_to 10162
  156.2076  130.4159  149.9157 H   0  0  0  0  0  0  0  0  0  0  0  0  # atno 10718 bound_to 10713
  154.6859  135.2962  154.9548 H   0  0  0  0  0  0  0  0  0  0  0  0  # atno 10763 bound_to 10752
  154.0527  135.6642  153.4806 H   0  0  0  0  0  0  0  0  0  0  0  0  # atno 10764 bound_to 10752
  153.0579  135.5133  154.7926 H   0  0  0  0  0  0  0  0  0  0  0  0  # atno 10765 bound_to 10752
  140.6453  134.4508  157.5234 H   0  0  0  0  0  0  0  0  0  0  0  0  # atno 11005 bound_to 11000
  144.9905  139.3694  143.6217 LP  0  0  0  0  0  0  0  0  0  0  0  0  # atno 17320 bound_to 7965
  146.3408  139.9085  142.8784 LP  0  0  0  0  0  0  0  0  0  0  0  0  # atno 17321 bound_to 7965
  140.7820  143.4420  151.0538 LP  0  0  0  0  0  0  0  0  0  0  0  0  # atno 17342 bound_to 10162
  139.8098  143.7967  152.3170 LP  0  0  0  0  0  0  0  0  0  0  0  0  # atno 17343 bound_to 10162
  156.6846  130.8871  151.3580 LP  0  0  0  0  0  0  0  0  0  0  0  0  # atno 17370 bound_to 10713
  157.7021  130.9344  150.0816 LP  0  0  0  0  0  0  0  0  0  0  0  0  # atno 17371 bound_to 10713
  139.9065  134.8437  156.1686 LP  0  0  0  0  0  0  0  0  0  0  0  0  # atno 17394 bound_to 11000
  141.0577  133.6857  156.1892 LP  0  0  0  0  0  0  0  0  0  0  0  0  # atno 17395 bound_to 11000

$$$$
