AV-unprocessed.smi:787|AV-procd|sdf|3727|dock5
  -GOLD-   22720 1153D 1   1.00000     0.00000
 Structure written by MMmdl.
 47 49  0  0  0  0  0  0  0  0  2 V2000
  146.4001  142.2498  157.4233 C   0  0  0  0  0  0  0  0  0  0  0  0
  147.0163  141.6822  156.2347 N   0  0  0  0  0  0  0  0  0  0  0  0
  148.4089  141.5445  156.1499 C   0  0  0  0  0  0  0  0  0  0  0  0
  149.2074  142.2129  157.0140 N   0  0  0  0  0  0  0  0  0  0  0  0
  150.5315  142.0447  156.9031 C   0  0  0  0  0  0  0  0  0  0  0  0
  151.2170  141.2872  156.0328 N   0  0  0  0  0  0  0  0  0  0  0  0
  150.4355  140.6232  155.1706 C   0  0  0  0  0  0  0  0  0  0  0  0
  150.8704  139.7726  154.1689 N   0  0  0  0  0  0  0  0  0  0  0  0
  149.7210  139.3905  153.6194 C   0  0  0  0  0  0  0  0  0  0  0  0
  148.5850  139.9028  154.1333 N   0  0  0  0  0  0  0  0  0  0  0  0
  147.2315  139.6371  153.6768 C   0  0  0  0  0  0  0  0  0  0  0  0
  147.1633  138.4934  152.6444 C   0  0  2  0  0  0  0  0  0  0  0  0
  147.2245  139.0681  151.3552 O   0  0  0  0  0  0  0  0  0  0  0  0
  145.8881  137.6271  152.7467 C   0  0  0  0  0  0  0  0  0  0  0  0
  146.0220  136.3595  151.9862 N   0  3  2  0  0  0  0  0  0  0  0  0
  145.7121  136.5308  150.5481 C   0  0  0  0  0  0  0  0  0  0  0  0
  145.2774  135.2294  152.5987 C   0  0  0  0  0  0  0  0  0  0  0  0
  145.3220  133.9971  151.7151 C   0  0  0  0  0  0  0  0  0  0  0  0
  144.1357  133.4629  151.1685 C   0  0  0  0  0  0  0  0  0  0  0  0
  144.1882  132.3207  150.3459 C   0  0  0  0  0  0  0  0  0  0  0  0
  145.4255  131.7083  150.0682 C   0  0  0  0  0  0  0  0  0  0  0  0
  146.6107  132.2371  150.6145 C   0  0  0  0  0  0  0  0  0  0  0  0
  146.5594  133.3791  151.4371 C   0  0  0  0  0  0  0  0  0  0  0  0
  149.0110  140.7194  155.1790 C   0  0  0  0  0  0  0  0  0  0  0  0
  145.3162  142.2643  157.3091 H   0  0  0  0  0  0  0  0  0  0  0  0
  146.7403  143.2730  157.5846 H   0  0  0  0  0  0  0  0  0  0  0  0
  146.6421  141.6561  158.3054 H   0  0  0  0  0  0  0  0  0  0  0  0
  146.4247  141.3249  155.4987 H   0  0  0  0  0  0  0  0  0  0  0  0
  151.1308  142.5953  157.6130 H   0  0  0  0  0  0  0  0  0  0  0  0
  149.7049  138.7056  152.7841 H   0  0  0  0  0  0  0  0  0  0  0  0
  146.6162  139.3972  154.5457 H   0  0  0  0  0  0  0  0  0  0  0  0
  146.8253  140.5577  153.2558 H   0  0  0  0  0  0  0  0  0  0  0  0
  148.0468  137.8682  152.7599 H   0  0  0  0  0  0  0  0  0  0  0  0
  147.9076  139.7218  151.3444 H   0  0  0  0  0  0  0  0  0  0  0  0
  145.6515  137.3824  153.7830 H   0  0  0  0  0  0  0  0  0  0  0  0
  145.0427  138.2070  152.3729 H   0  0  0  0  0  0  0  0  0  0  0  0
  144.6693  136.8168  150.4046 H   0  0  0  0  0  0  0  0  0  0  0  0
  145.8933  135.6094  149.9945 H   0  0  0  0  0  0  0  0  0  0  0  0
  146.3424  137.3034  150.1066 H   0  0  0  0  0  0  0  0  0  0  0  0
  145.7051  134.9552  153.5631 H   0  0  0  0  0  0  0  0  0  0  0  0
  144.2460  135.5213  152.8027 H   0  0  0  0  0  0  0  0  0  0  0  0
  143.1827  133.9272  151.3755 H   0  0  0  0  0  0  0  0  0  0  0  0
  143.2792  131.9138  149.9276 H   0  0  0  0  0  0  0  0  0  0  0  0
  145.4652  130.8327  149.4371 H   0  0  0  0  0  0  0  0  0  0  0  0
  147.5595  131.7666  150.4020 H   0  0  0  0  0  0  0  0  0  0  0  0
  147.4725  133.7808  151.8518 H   0  0  0  0  0  0  0  0  0  0  0  0
  147.0021  136.1184  152.0362 H   0  0  0  0  0  0  0  0  0  0  0  0
  1  2  1  0  0  0  0
  1 25  1  0  0  0  0
  1 26  1  0  0  0  0
  1 27  1  0  0  0  0
  2  3  1  0  0  0  0
  2 28  1  0  0  0  0
  3 24  1  0  0  0  0
  3  4  2  0  0  0  0
  4  5  1  0  0  0  0
  5  6  2  0  0  0  0
  5 29  1  0  0  0  0
  6  7  1  0  0  0  0
  7 24  2  0  0  0  0
  7  8  1  0  0  0  0
  8  9  2  0  0  0  0
  9 10  1  0  0  0  0
  9 30  1  0  0  0  0
 10 11  1  0  0  0  0
 10 24  1  0  0  0  0
 11 12  1  0  0  0  0
 11 31  1  0  0  0  0
 11 32  1  0  0  0  0
 12 13  1  0  0  0  0
 12 14  1  0  0  0  0
 12 33  1  0  0  0  0
 13 34  1  0  0  0  0
 14 15  1  0  0  0  0
 14 35  1  0  0  0  0
 14 36  1  0  0  0  0
 15 16  1  0  0  0  0
 15 17  1  0  0  0  0
 15 47  1  0  0  0  0
 16 37  1  0  0  0  0
 16 38  1  0  0  0  0
 16 39  1  0  0  0  0
 17 18  1  0  0  0  0
 17 40  1  0  0  0  0
 17 41  1  0  0  0  0
 18 23  1  0  0  0  0
 18 19  2  0  0  0  0
 19 20  1  0  0  0  0
 19 42  1  0  0  0  0
 20 21  2  0  0  0  0
 20 43  1  0  0  0  0
 21 22  1  0  0  0  0
 21 44  1  0  0  0  0
 22 23  2  0  0  0  0
 22 45  1  0  0  0  0
 23 46  1  0  0  0  0
M  CHG  1  15   1
M  END
> <s_m_source_file>
AV-unprocessed.smi

> <i_m_source_file_index>
787

> <i_lp_mmshare_version>
43012

> <i_f3d_flags>
0

> <s_epik_input>
bjFbY0hdbmMoW05IXVtDSDNdKWMoYzEyKW4oW2NIXW4yKVtDSDJdW0NASF0oW09IXSlbQ0gyXU4oW0NIM10pW0NIMl1jM1tjSF1bY0hdW2NIXVtjSF1bY0hdMw==

> <s_epik_cmdline>
J2VwaWtfcHl0aG9uJywgJy1waCcsICc3LjAnLCAnLXRuJywgJzgnLCAnLW1hJywgJzIwMCcsICctbWV0YWxfYmluZGluZycsICctaW1hZScsICc8aW5maWxlLm1hZT4nLCAnLW9tYWUnLCAnPG91dGZpbGUubWFlPic=

> <r_lp_tautomer_probability>
0.999987

> <r_epik_Ionization_Penalty>
0.0526284

> <r_epik_Ionization_Penalty_Charging>
0.0475377

> <r_epik_Ionization_Penalty_Neutral>
0.00509065

> <r_epik_State_Penalty>
0.0404888

> <r_epik_Charging_Adjusted_Penalty>
0.0880265

> <i_epik_Tot_Q>
1

> <i_epik_Tot_abs_Q>
1

> <r_epik_Metal_State_Penalty>
0.040507

> <b_epik_Metal_Only>
0

> <s_lp_Force_Field>
OPLS_2005

> <r_lp_Energy>
15.7703

> <b_lp_Chiralities_Consistent>
1

> <s_lp_Variant>
AV-unprocessed.smi:787-3

> <Gold.Version>
5.8.1

> <Gold.Id.Protein>
6NUR|6NUR_protein|mol2

> <Gold.PLP.Fitness>
50.9561

> <Gold.PLP.PLP>
-36.1430

> <Gold.PLP.part.hbond>
-3.9829

> <Gold.PLP.part.metal>
0.0000

> <Gold.PLP.part.buried>
3.4514

> <Gold.PLP.part.nonpolar>
-35.7599

> <Gold.PLP.part.repulsive>
0.4647

> <Gold.PLP.ligand.clash>
0.0000

> <Gold.PLP.ligand.torsion>
1.0972

> <Gold.PLP.Chemscore.Hbond>
4.3679

> <Gold.PLP.Chemscore.CHOScore>
1.1859

> <Gold.PLP.Chemscore.Metal>
0.0000

> <Gold.Chemscore.Hbonds>
donor molecule, donor type, donor heavy atom, donor atom, acceptor molecule, acceptor atom, score
      L1  H    13    34       P1  7957  0.93
      L1  H    15    47       P1  7948  2.00
      P1  H  7954  7966       L1    13  0.44
      P1  H  7989  7998       L1     8  0.58
      L1  C     9    30       P1  7948  0.58
      L1  C     9    30       P1  7957  0.45

> <Gold.PLP.Chemscore.Internal.Correction>
0.3462

> <Gold.Rescore>
     Score         DG    S(hbond)    S(metal)    S(lipo)     H(rot)  DE(clash)    DE(int)     intcor
     10.13     -12.98       1.89        0.00      80.02       3.19       1.65       1.20       ----

> <Gold.Chemscore.Fitness>
10.1262

> <Gold.Chemscore.DG>
-12.9752

> <Gold.Chemscore.ZeroCoef>
-5.4800

> <Gold.Chemscore.Hbond>
1.8883

> <Gold.Chemscore.Metal>
0.0000

> <Gold.Chemscore.Lipo>
80.0175

> <Gold.Chemscore.Internal_Hbond>
0.0000

> <Gold.Chemscore.DEClash>
1.6516

> <Gold.Chemscore.DEInternal>
1.1975

> <Gold.Chemscore.Rot>
3.1928

> <Gold.Chemscore.Internal.Correction>
   9.000000E+99

> <Gold.Chemscore.Hbonds>
donor molecule, donor type, donor heavy atom, donor atom, acceptor molecule, acceptor atom, score
      L1  H    13    34       P1  7957  0.89
      L1  H    15    47       P1  7948  0.99
      P1  H  7954  7966       L1    13  0.03
      P1  H  7989  7998       L1     8  0.05

> <Gold.Chemscore.Hbond.Weighted>
-6.3068

> <Gold.Chemscore.Metal.Weighted>
-0.0000

> <Gold.Chemscore.Lipo.Weighted>
-9.3621

> <Gold.Chemscore.Internal_Hbond.Weighted>
0.0000

> <Gold.Chemscore.DEClash.Weighted>
1.6516

> <Gold.Chemscore.DEInternal.Weighted>
1.1975

> <Gold.Chemscore.Rot.Weighted>
8.1736

> <Gold.Chemscore.Internal.Correction.Weighted>
   9.000000E+99

> <Gold.Protein.RotatedTorsions>
[ 6907 6896 6895 6894 ] final   41.01 input  -60.11 | X-H torsion
[ 7974 7965 7964 7962 ] final   72.04 input  175.53 | X-H torsion
[ 8008 7997 7996 7995 ] final -165.85 input   59.86 | X-H torsion
[ 10167 10162 10161 10158 ] final  169.70 input  -65.29 | X-H torsion
[ 10718 10713 10712 10709 ] final   96.93 input   66.30 | X-H torsion
[ 10763 10752 10751 10750 ] final -134.05 input  -60.55 | X-H torsion
[ 11005 11000 10999 10996 ] final -113.32 input  -57.11 | X-H torsion

> <Gold.Protein.ActiveResidues>
 VAL166  LYS551  ARG553  GLY616  TRP617  ASP618  TYR619  PRO620  LYS621  CYS622 
 ASP623  PHE694  ASN695  SER759  ASP760  ASP761  ALA762  ILE779  LEU786  VAL792 
 PHE793  MET794  SER795  GLU796  ALA797  LYS798  CYS799  TRP800  GLU811  SER814 

> <Gold.Protein.RotatedAtoms>
  152.1899  134.8681  160.0518 H   0  0  0  0  0  0  0  0  0  0  0  0  # atno 6907 bound_to 6896
  151.9574  133.3679  159.4030 H   0  0  0  0  0  0  0  0  0  0  0  0  # atno 6908 bound_to 6896
  150.6933  134.4200  159.5244 H   0  0  0  0  0  0  0  0  0  0  0  0  # atno 6909 bound_to 6896
  145.7584  139.2790  143.1391 H   0  0  0  0  0  0  0  0  0  0  0  0  # atno 7974 bound_to 7965
  155.8556  140.0970  157.1646 H   0  0  0  0  0  0  0  0  0  0  0  0  # atno 8008 bound_to 7997
  154.3987  140.1375  156.3960 H   0  0  0  0  0  0  0  0  0  0  0  0  # atno 8009 bound_to 7997
  155.7913  140.3455  155.5353 H   0  0  0  0  0  0  0  0  0  0  0  0  # atno 8010 bound_to 7997
  139.4999  144.3677  151.9757 H   0  0  0  0  0  0  0  0  0  0  0  0  # atno 10167 bound_to 10162
  157.6920  131.0593  150.4567 H   0  0  0  0  0  0  0  0  0  0  0  0  # atno 10718 bound_to 10713
  154.8724  135.3746  154.4673 H   0  0  0  0  0  0  0  0  0  0  0  0  # atno 10763 bound_to 10752
  153.5336  135.7027  153.5676 H   0  0  0  0  0  0  0  0  0  0  0  0  # atno 10764 bound_to 10752
  153.3869  135.3982  155.1861 H   0  0  0  0  0  0  0  0  0  0  0  0  # atno 10765 bound_to 10752
  141.0622  133.9517  157.2646 H   0  0  0  0  0  0  0  0  0  0  0  0  # atno 11005 bound_to 11000
  146.0288  140.8277  142.9886 LP  0  0  0  0  0  0  0  0  0  0  0  0  # atno 17320 bound_to 7965
  144.6835  140.2738  143.7302 LP  0  0  0  0  0  0  0  0  0  0  0  0  # atno 17321 bound_to 7965
  140.3114  144.3534  150.6033 LP  0  0  0  0  0  0  0  0  0  0  0  0  # atno 17342 bound_to 10162
  140.5796  143.2174  151.7453 LP  0  0  0  0  0  0  0  0  0  0  0  0  # atno 17343 bound_to 10162
  156.4914  130.4096  149.6404 LP  0  0  0  0  0  0  0  0  0  0  0  0  # atno 17370 bound_to 10713
  156.3413  130.7384  151.2329 LP  0  0  0  0  0  0  0  0  0  0  0  0  # atno 17371 bound_to 10713
  139.9443  135.0186  156.8803 LP  0  0  0  0  0  0  0  0  0  0  0  0  # atno 17394 bound_to 11000
  140.5846  134.0319  155.7477 LP  0  0  0  0  0  0  0  0  0  0  0  0  # atno 17395 bound_to 11000

$$$$
