AV-unprocessed.smi:743|AV-procd|sdf|3560|dock5
  -GOLD-   22720 0553D 1   1.00000     0.00000
 Structure written by MMmdl.
 29 30  0  0  0  0  0  0  0  0  2 V2000
  142.4553  137.2293  153.0143 C   0  0  0  0  0  0  0  0  0  0  0  0
  143.6835  136.6013  152.5763 N   0  0  0  0  0  0  0  0  0  0  0  0
  143.8517  135.5834  151.6636 C   0  0  0  0  0  0  0  0  0  0  0  0
  145.1921  135.3176  151.5802 C   0  0  0  0  0  0  0  0  0  0  0  0
  145.9243  134.2901  150.7400 C   0  0  2  0  0  0  0  0  0  0  0  0
  145.0139  133.6565  149.7823 N   0  0  0  0  0  0  0  0  0  0  0  0
  144.3968  132.4687  149.9268 C   0  0  0  0  0  0  0  0  0  0  0  0
  143.5595  132.0804  149.1165 O   0  0  0  0  0  0  0  0  0  0  0  0
  144.7863  131.5568  151.1028 C   0  0  0  0  0  0  0  0  0  0  0  0
  145.6092  132.2522  152.2026 C   0  0  0  0  0  0  0  0  0  0  0  0
  146.6379  133.2171  151.5979 C   0  0  2  0  0  0  0  0  0  0  0  0
  147.5105  133.8053  152.6313 N   0  3  0  0  0  0  0  0  0  0  0  0
  145.7629  136.2566  152.4880 C   0  0  0  0  0  0  0  0  0  0  0  0
  144.8605  137.0152  153.0862 N   0  0  0  0  0  0  0  0  0  0  0  0
  147.2921  132.6378  150.9443 H   0  0  0  0  0  0  0  0  0  0  0  0
  141.6006  136.7619  152.5245 H   0  0  0  0  0  0  0  0  0  0  0  0
  142.4721  138.2898  152.7612 H   0  0  0  0  0  0  0  0  0  0  0  0
  142.3481  137.1193  154.0939 H   0  0  0  0  0  0  0  0  0  0  0  0
  143.0109  135.1314  151.1575 H   0  0  0  0  0  0  0  0  0  0  0  0
  146.6841  134.7955  150.1424 H   0  0  0  0  0  0  0  0  0  0  0  0
  144.7656  134.2060  148.9718 H   0  0  0  0  0  0  0  0  0  0  0  0
  143.8885  131.1120  151.5330 H   0  0  0  0  0  0  0  0  0  0  0  0
  145.3688  130.7335  150.6880 H   0  0  0  0  0  0  0  0  0  0  0  0
  144.9414  132.7854  152.8808 H   0  0  0  0  0  0  0  0  0  0  0  0
  146.1138  131.4968  152.8058 H   0  0  0  0  0  0  0  0  0  0  0  0
  148.0056  134.5950  152.2417 H   0  0  0  0  0  0  0  0  0  0  0  0
  148.1756  133.1137  152.9467 H   0  0  0  0  0  0  0  0  0  0  0  0
  146.8044  136.4031  152.7337 H   0  0  0  0  0  0  0  0  0  0  0  0
  146.9489  134.1127  153.4127 H   0  0  0  0  0  0  0  0  0  0  0  0
  1  2  1  0  0  0  0
  1 16  1  0  0  0  0
  1 17  1  0  0  0  0
  1 18  1  0  0  0  0
  2 14  1  0  0  0  0
  2  3  1  0  0  0  0
  3  4  2  0  0  0  0
  3 19  1  0  0  0  0
  4  5  1  0  0  0  0
  4 13  1  0  0  0  0
  5 11  1  0  0  0  0
  5  6  1  0  0  0  0
  5 20  1  0  0  0  0
  6  7  1  0  0  0  0
  6 21  1  0  0  0  0
  7  8  2  0  0  0  0
  7  9  1  0  0  0  0
  9 10  1  0  0  0  0
  9 22  1  0  0  0  0
  9 23  1  0  0  0  0
 10 11  1  0  0  0  0
 10 24  1  0  0  0  0
 10 25  1  0  0  0  0
 11 15  1  0  0  0  0
 11 12  1  0  0  0  0
 12 26  1  0  0  0  0
 12 27  1  0  0  0  0
 12 29  1  0  0  0  0
 13 14  2  0  0  0  0
 13 28  1  0  0  0  0
M  CHG  1  12   1
M  END
> <s_m_source_file>
AV-unprocessed.smi

> <i_m_source_file_index>
743

> <i_lp_mmshare_version>
43012

> <i_f3d_flags>
0

> <s_epik_input>
W0NIM11uMVtjSF1jKFtjSF1uMSlbQ0BASF0yW05IXUMoPU8pW0NIMl1bQ0gyXVtDQEBIXTJbTkgyXQ==

> <s_epik_cmdline>
J2VwaWtfcHl0aG9uJywgJy1waCcsICc3LjAnLCAnLXRuJywgJzgnLCAnLW1hJywgJzIwMCcsICctbWV0YWxfYmluZGluZycsICctaW1hZScsICc8aW5maWxlLm1hZT4nLCAnLW9tYWUnLCAnPG91dGZpbGUubWFlPic=

> <r_lp_tautomer_probability>
1

> <r_epik_Ionization_Penalty>
0.00878543

> <r_epik_Ionization_Penalty_Charging>
0.00874185

> <r_epik_Ionization_Penalty_Neutral>
4.35793e-05

> <r_epik_State_Penalty>
0.00660351

> <r_epik_Charging_Adjusted_Penalty>
0.0153454

> <i_epik_Tot_Q>
1

> <i_epik_Tot_abs_Q>
1

> <r_epik_Metal_State_Penalty>
0.00660727

> <b_epik_Metal_Only>
0

> <s_lp_Force_Field>
OPLS_2005

> <r_lp_Energy>
11.1602

> <b_lp_Chiralities_Consistent>
1

> <s_lp_Variant>
AV-unprocessed.smi:743-1

> <Gold.Version>
5.8.1

> <Gold.Id.Protein>
6NUR|6NUR_protein|mol2

> <Gold.PLP.Fitness>
40.2487

> <Gold.PLP.PLP>
-26.4951

> <Gold.PLP.part.hbond>
-3.0000

> <Gold.PLP.part.metal>
0.0000

> <Gold.PLP.part.buried>
-5.7528

> <Gold.PLP.part.nonpolar>
-18.5307

> <Gold.PLP.part.repulsive>
0.5446

> <Gold.PLP.ligand.clash>
0.0000

> <Gold.PLP.ligand.torsion>
0.0958

> <Gold.PLP.Chemscore.Hbond>
3.3600

> <Gold.PLP.Chemscore.CHOScore>
1.2821

> <Gold.PLP.Chemscore.Metal>
0.0000

> <Gold.Chemscore.Hbonds>
donor molecule, donor type, donor heavy atom, donor atom, acceptor molecule, acceptor atom, score
      L1  H     6    21       P1  7921  0.45
      L1  H    12    26       P1  7948  2.00
      P1  H 10785 10796       L1     8  0.90
      L1  C     3    19       P1 10186  0.28
      L1  C    13    28       P1  7948  1.00

> <Gold.PLP.Chemscore.Internal.Correction>
0.0189

> <Gold.Rescore>
     Score         DG    S(hbond)    S(metal)    S(lipo)     H(rot)  DE(clash)    DE(int)     intcor
     14.00     -14.95       2.12        0.00      42.36       1.00       0.01       0.94       ----

> <Gold.Chemscore.Fitness>
14.0039

> <Gold.Chemscore.DG>
-14.9528

> <Gold.Chemscore.ZeroCoef>
-5.4800

> <Gold.Chemscore.Hbond>
2.1189

> <Gold.Chemscore.Metal>
0.0000

> <Gold.Chemscore.Lipo>
42.3565

> <Gold.Chemscore.Internal_Hbond>
0.0000

> <Gold.Chemscore.DEClash>
0.0089

> <Gold.Chemscore.DEInternal>
0.9400

> <Gold.Chemscore.Rot>
1.0000

> <Gold.Chemscore.Internal.Correction>
   9.000000E+99

> <Gold.Chemscore.Hbonds>
donor molecule, donor type, donor heavy atom, donor atom, acceptor molecule, acceptor atom, score
      L1  H     6    21       P1  7921  0.42
      L1  H    12    26       P1  7948  0.35
      P1  H 10785 10796       L1     8  0.84

> <Gold.Chemscore.Hbond.Weighted>
-7.0771

> <Gold.Chemscore.Metal.Weighted>
-0.0000

> <Gold.Chemscore.Lipo.Weighted>
-4.9557

> <Gold.Chemscore.Internal_Hbond.Weighted>
0.0000

> <Gold.Chemscore.DEClash.Weighted>
0.0089

> <Gold.Chemscore.DEInternal.Weighted>
0.9400

> <Gold.Chemscore.Rot.Weighted>
2.5600

> <Gold.Chemscore.Internal.Correction.Weighted>
   9.000000E+99

> <Gold.Protein.RotatedTorsions>
[ 6907 6896 6895 6894 ] final    1.72 input  -60.11 | X-H torsion
[ 7974 7965 7964 7962 ] final   16.90 input  175.53 | X-H torsion
[ 8008 7997 7996 7995 ] final -150.94 input   59.86 | X-H torsion
[ 10167 10162 10161 10158 ] final -161.55 input  -65.29 | X-H torsion
[ 10718 10713 10712 10709 ] final  -69.38 input   66.30 | X-H torsion
[ 10763 10752 10751 10750 ] final  165.26 input  -60.55 | X-H torsion
[ 11005 11000 10999 10996 ] final  -79.57 input  -57.11 | X-H torsion

> <Gold.Protein.ActiveResidues>
 VAL166  LYS551  ARG553  GLY616  TRP617  ASP618  TYR619  PRO620  LYS621  CYS622 
 ASP623  PHE694  ASN695  SER759  ASP760  ASP761  ALA762  ILE779  LEU786  VAL792 
 PHE793  MET794  SER795  GLU796  ALA797  LYS798  CYS799  TRP800  GLU811  SER814 

> <Gold.Protein.RotatedAtoms>
  151.5973  135.1049  160.0052 H   0  0  0  0  0  0  0  0  0  0  0  0  # atno 6907 bound_to 6896
  152.4276  133.7217  159.6548 H   0  0  0  0  0  0  0  0  0  0  0  0  # atno 6908 bound_to 6896
  150.8166  133.8255  159.3180 H   0  0  0  0  0  0  0  0  0  0  0  0  # atno 6909 bound_to 6896
  146.2235  139.8680  142.8592 H   0  0  0  0  0  0  0  0  0  0  0  0  # atno 7974 bound_to 7965
  155.6315  140.0692  157.2647 H   0  0  0  0  0  0  0  0  0  0  0  0  # atno 8008 bound_to 7997
  154.4205  140.1766  156.1526 H   0  0  0  0  0  0  0  0  0  0  0  0  # atno 8009 bound_to 7997
  155.9929  140.3343  155.6773 H   0  0  0  0  0  0  0  0  0  0  0  0  # atno 8010 bound_to 7997
  139.6457  144.0176  152.2125 H   0  0  0  0  0  0  0  0  0  0  0  0  # atno 10167 bound_to 10162
  156.0458  130.4311  150.2139 H   0  0  0  0  0  0  0  0  0  0  0  0  # atno 10718 bound_to 10713
  154.3214  135.2756  155.2518 H   0  0  0  0  0  0  0  0  0  0  0  0  # atno 10763 bound_to 10752
  154.4870  135.5843  153.6434 H   0  0  0  0  0  0  0  0  0  0  0  0  # atno 10764 bound_to 10752
  152.9876  135.6125  154.3399 H   0  0  0  0  0  0  0  0  0  0  0  0  # atno 10765 bound_to 10752
  141.1667  133.7111  156.8142 H   0  0  0  0  0  0  0  0  0  0  0  0  # atno 11005 bound_to 11000
  145.2637  141.0085  143.3812 LP  0  0  0  0  0  0  0  0  0  0  0  0  # atno 17320 bound_to 7965
  144.9278  139.4334  143.6510 LP  0  0  0  0  0  0  0  0  0  0  0  0  # atno 17321 bound_to 7965
  139.9877  144.6383  150.7842 LP  0  0  0  0  0  0  0  0  0  0  0  0  # atno 17342 bound_to 10162
  140.7513  143.2971  151.3177 LP  0  0  0  0  0  0  0  0  0  0  0  0  # atno 17343 bound_to 10162
  157.0228  130.9984  151.3334 LP  0  0  0  0  0  0  0  0  0  0  0  0  # atno 17370 bound_to 10713
  157.5332  130.8072  149.7941 LP  0  0  0  0  0  0  0  0  0  0  0  0  # atno 17371 bound_to 10713
  140.2165  134.8788  157.3331 LP  0  0  0  0  0  0  0  0  0  0  0  0  # atno 17394 bound_to 11000
  140.2032  134.4229  155.7652 LP  0  0  0  0  0  0  0  0  0  0  0  0  # atno 17395 bound_to 11000

$$$$
