AV-unprocessed.smi:1524|AV-procd|sdf|6140|dock6
  -GOLD-   22720 6283D 1   1.00000     0.00000
 Structure written by MMmdl.
 34 35  0  0  0  0  0  0  0  0  2 V2000
  146.2506  137.0182  154.0205 O   0  0  0  0  0  0  0  0  0  0  0  0
  145.6671  137.7051  153.1848 C   0  0  0  0  0  0  0  0  0  0  0  0
  144.7542  137.2519  152.3015 N   0  0  0  0  0  0  0  0  0  0  0  0
  144.3015  135.9425  152.0692 C   0  0  0  0  0  0  0  0  0  0  0  0
  145.0288  134.9628  151.4642 C   0  0  0  0  0  0  0  0  0  0  0  0
  144.4943  133.6259  151.2356 C   0  0  0  0  0  0  0  0  0  0  0  0
  145.2628  132.4984  150.5710 C   0  0  0  0  0  0  0  0  0  0  0  0
  146.5480  132.8278  150.4482 F   0  0  0  0  0  0  0  0  0  0  0  0
  145.1898  131.3918  151.3099 F   0  0  0  0  0  0  0  0  0  0  0  0
  144.7803  132.2272  149.3583 F   0  0  0  0  0  0  0  0  0  0  0  0
  143.1949  133.4951  151.6831 C   0  0  0  0  0  0  0  0  0  0  0  0
  142.4044  134.4131  152.2813 N   0  5  0  0  0  0  0  0  0  0  0  0
  142.9154  135.6585  152.4960 C   0  0  0  0  0  0  0  0  0  0  0  0
  142.2492  136.5441  153.0337 O   0  0  0  0  0  0  0  0  0  0  0  0
  145.8920  139.0297  153.1050 N   0  0  0  0  0  0  0  0  0  0  0  0
  146.8088  139.8477  153.9031 C   0  0  0  0  0  0  0  0  0  0  0  0
  146.8571  141.2948  153.3794 C   0  0  0  0  0  0  0  0  0  0  0  0
  147.9479  142.1012  154.1027 C   0  0  0  0  0  0  0  0  0  0  0  0
  149.2087  141.4551  153.9617 O   0  0  0  0  0  0  0  0  0  0  0  0
  149.2343  140.1596  154.5507 C   0  0  0  0  0  0  0  0  0  0  0  0
  148.2200  139.2429  153.8475 C   0  0  0  0  0  0  0  0  0  0  0  0
  144.3030  137.9514  151.7302 H   0  0  0  0  0  0  0  0  0  0  0  0
  146.0287  135.1555  151.1129 H   0  0  0  0  0  0  0  0  0  0  0  0
  142.7208  132.5010  151.5366 H   0  0  0  0  0  0  0  0  0  0  0  0
  145.3378  139.5338  152.4281 H   0  0  0  0  0  0  0  0  0  0  0  0
  146.4888  139.8518  154.9467 H   0  0  0  0  0  0  0  0  0  0  0  0
  147.0644  141.2938  152.3084 H   0  0  0  0  0  0  0  0  0  0  0  0
  145.8909  141.7837  153.5092 H   0  0  0  0  0  0  0  0  0  0  0  0
  148.0164  143.1025  153.6771 H   0  0  0  0  0  0  0  0  0  0  0  0
  147.7052  142.2214  155.1596 H   0  0  0  0  0  0  0  0  0  0  0  0
  150.2395  139.7490  154.4542 H   0  0  0  0  0  0  0  0  0  0  0  0
  149.0209  140.2292  155.6185 H   0  0  0  0  0  0  0  0  0  0  0  0
  148.2270  138.2550  154.3096 H   0  0  0  0  0  0  0  0  0  0  0  0
  148.5250  139.1040  152.8090 H   0  0  0  0  0  0  0  0  0  0  0  0
  1  2  2  0  0  0  0
  2  3  1  0  0  0  0
  2 15  1  0  0  0  0
  3  4  1  0  0  0  0
  3 22  1  0  0  0  0
  4 13  1  0  0  0  0
  4  5  2  0  0  0  0
  5  6  1  0  0  0  0
  5 23  1  0  0  0  0
  6  7  1  0  0  0  0
  6 11  2  0  0  0  0
  7  8  1  0  0  0  0
  7  9  1  0  0  0  0
  7 10  1  0  0  0  0
 11 12  1  0  0  0  0
 11 24  1  0  0  0  0
 12 13  1  0  0  0  0
 13 14  2  0  0  0  0
 15 16  1  0  0  0  0
 15 25  1  0  0  0  0
 16 21  1  0  0  0  0
 16 17  1  0  0  0  0
 16 26  1  0  0  0  0
 17 18  1  0  0  0  0
 17 27  1  0  0  0  0
 17 28  1  0  0  0  0
 18 19  1  0  0  0  0
 18 29  1  0  0  0  0
 18 30  1  0  0  0  0
 19 20  1  0  0  0  0
 20 21  1  0  0  0  0
 20 31  1  0  0  0  0
 20 32  1  0  0  0  0
 21 33  1  0  0  0  0
 21 34  1  0  0  0  0
M  CHG  1  12  -1
M  END
> <s_m_source_file>
AV-unprocessed.smi

> <i_m_source_file_index>
1524

> <i_lp_mmshare_version>
43012

> <i_f3d_flags>
0

> <s_epik_input>
W0NIMl0xW0NIMl1PW0NIMl1bQ0gyXVtDSF0xW05IXUMoPU8pW05IXWMyW2NIXWMoQyhGKShGKUYpW2NIXVtuSF1jMj1P

> <s_epik_cmdline>
J2VwaWtfcHl0aG9uJywgJy1waCcsICc3LjAnLCAnLXRuJywgJzgnLCAnLW1hJywgJzIwMCcsICctbWV0YWxfYmluZGluZycsICctaW1hZScsICc8aW5maWxlLm1hZT4nLCAnLW9tYWUnLCAnPG91dGZpbGUubWFlPic=

> <r_lp_tautomer_probability>
1

> <r_epik_Ionization_Penalty>
3.17101

> <r_epik_Ionization_Penalty_Charging>
0.175581

> <r_epik_Ionization_Penalty_Neutral>
2.99543

> <r_epik_State_Penalty>
2.99161

> <r_epik_Charging_Adjusted_Penalty>
3.16719

> <i_epik_Tot_Q>
-1

> <i_epik_Tot_abs_Q>
1

> <r_epik_Metal_State_Penalty>
0.453119

> <b_epik_Metal_Only>
1

> <s_lp_Force_Field>
OPLS_2005

> <r_lp_Energy>
32.5819

> <b_lp_Chiralities_Consistent>
1

> <s_lp_Variant>
AV-unprocessed.smi:1524-2

> <Gold.Version>
5.8.1

> <Gold.Id.Protein>
6NUR|6NUR_protein|mol2

> <Gold.PLP.Fitness>
41.9275

> <Gold.PLP.PLP>
-37.3393

> <Gold.PLP.part.hbond>
-4.0000

> <Gold.PLP.part.metal>
0.0000

> <Gold.PLP.part.buried>
-1.7751

> <Gold.PLP.part.nonpolar>
-30.4445

> <Gold.PLP.part.repulsive>
0.9447

> <Gold.PLP.ligand.clash>
0.0000

> <Gold.PLP.ligand.torsion>
1.0069

> <Gold.PLP.Chemscore.Hbond>
2.1994

> <Gold.PLP.Chemscore.CHOScore>
0.0000

> <Gold.PLP.Chemscore.Metal>
0.0000

> <Gold.Chemscore.Hbonds>
donor molecule, donor type, donor heavy atom, donor atom, acceptor molecule, acceptor atom, score
      L1  H     3    22       P1 10171  0.87
      L1  H    15    25       P1 10175  0.72
      P1  H  8011  8017       L1    19  0.61

> <Gold.PLP.Chemscore.Internal.Correction>
0.0036

> <Gold.Rescore>
     Score         DG    S(hbond)    S(metal)    S(lipo)     H(rot)  DE(clash)    DE(int)     intcor
     14.81     -17.20       2.07        0.00      63.03       1.00       0.60       1.79       ----

> <Gold.Chemscore.Fitness>
14.8081

> <Gold.Chemscore.DG>
-17.1995

> <Gold.Chemscore.ZeroCoef>
-5.4800

> <Gold.Chemscore.Hbond>
2.0675

> <Gold.Chemscore.Metal>
0.0000

> <Gold.Chemscore.Lipo>
63.0262

> <Gold.Chemscore.Internal_Hbond>
0.0000

> <Gold.Chemscore.DEClash>
0.6001

> <Gold.Chemscore.DEInternal>
1.7913

> <Gold.Chemscore.Rot>
1.0000

> <Gold.Chemscore.Internal.Correction>
   9.000000E+99

> <Gold.Chemscore.Hbonds>
donor molecule, donor type, donor heavy atom, donor atom, acceptor molecule, acceptor atom, score
      L1  H     3    22       P1 10171  0.81
      L1  H    15    25       P1 10175  0.72
      P1  H  8011  8017       L1    19  0.10

> <Gold.Chemscore.Hbond.Weighted>
-6.9055

> <Gold.Chemscore.Metal.Weighted>
-0.0000

> <Gold.Chemscore.Lipo.Weighted>
-7.3741

> <Gold.Chemscore.Internal_Hbond.Weighted>
0.0000

> <Gold.Chemscore.DEClash.Weighted>
0.6001

> <Gold.Chemscore.DEInternal.Weighted>
1.7913

> <Gold.Chemscore.Rot.Weighted>
2.5600

> <Gold.Chemscore.Internal.Correction.Weighted>
   9.000000E+99

> <Gold.Protein.RotatedTorsions>
[ 6907 6896 6895 6894 ] final  -53.39 input  -60.11 | X-H torsion
[ 7974 7965 7964 7962 ] final  144.91 input  175.53 | X-H torsion
[ 8008 7997 7996 7995 ] final  163.76 input   59.86 | X-H torsion
[ 10167 10162 10161 10158 ] final   21.75 input  -65.29 | X-H torsion
[ 10718 10713 10712 10709 ] final -133.97 input   66.30 | X-H torsion
[ 10763 10752 10751 10750 ] final  -50.02 input  -60.55 | X-H torsion
[ 11005 11000 10999 10996 ] final   -5.26 input  -57.11 | X-H torsion

> <Gold.Protein.ActiveResidues>
 VAL166  LYS551  ARG553  GLY616  TRP617  ASP618  TYR619  PRO620  LYS621  CYS622 
 ASP623  PHE694  ASN695  SER759  ASP760  ASP761  ALA762  ILE779  LEU786  VAL792 
 PHE793  MET794  SER795  GLU796  ALA797  LYS798  CYS799  TRP800  GLU811  SER814 

> <Gold.Protein.RotatedAtoms>
  150.8431  134.7731  159.6948 H   0  0  0  0  0  0  0  0  0  0  0  0  # atno 6907 bound_to 6896
  152.4514  134.5381  159.9841 H   0  0  0  0  0  0  0  0  0  0  0  0  # atno 6908 bound_to 6896
  151.5517  133.3378  159.2990 H   0  0  0  0  0  0  0  0  0  0  0  0  # atno 6909 bound_to 6896
  144.8796  139.5719  143.5849 H   0  0  0  0  0  0  0  0  0  0  0  0  # atno 7974 bound_to 7965
  156.1932  140.1715  156.8049 H   0  0  0  0  0  0  0  0  0  0  0  0  # atno 8008 bound_to 7997
  154.5497  140.0720  156.8680 H   0  0  0  0  0  0  0  0  0  0  0  0  # atno 8009 bound_to 7997
  155.3052  140.3364  155.4248 H   0  0  0  0  0  0  0  0  0  0  0  0  # atno 8010 bound_to 7997
  140.5402  143.9690  150.6515 H   0  0  0  0  0  0  0  0  0  0  0  0  # atno 10167 bound_to 10162
  156.2505  130.7150  151.1047 H   0  0  0  0  0  0  0  0  0  0  0  0  # atno 10718 bound_to 10713
  154.1036  135.6559  153.4872 H   0  0  0  0  0  0  0  0  0  0  0  0  # atno 10763 bound_to 10752
  153.0280  135.5231  154.7262 H   0  0  0  0  0  0  0  0  0  0  0  0  # atno 10764 bound_to 10752
  154.6421  135.2989  155.0060 H   0  0  0  0  0  0  0  0  0  0  0  0  # atno 10765 bound_to 10752
  140.6892  133.9086  155.8606 H   0  0  0  0  0  0  0  0  0  0  0  0  # atno 11005 bound_to 11000
  146.2986  139.7354  142.9108 LP  0  0  0  0  0  0  0  0  0  0  0  0  # atno 17320 bound_to 7965
  145.3979  141.0381  143.3087 LP  0  0  0  0  0  0  0  0  0  0  0  0  # atno 17321 bound_to 7965
  140.3088  143.3211  152.0899 LP  0  0  0  0  0  0  0  0  0  0  0  0  # atno 17342 bound_to 10162
  139.4986  144.6649  151.6378 LP  0  0  0  0  0  0  0  0  0  0  0  0  # atno 17343 bound_to 10162
  157.7212  131.0680  150.6126 LP  0  0  0  0  0  0  0  0  0  0  0  0  # atno 17370 bound_to 10713
  156.6205  130.4404  149.5824 LP  0  0  0  0  0  0  0  0  0  0  0  0  # atno 17371 bound_to 10713
  141.0255  134.0829  157.4073 LP  0  0  0  0  0  0  0  0  0  0  0  0  # atno 17394 bound_to 11000
  139.8928  135.0127  156.6867 LP  0  0  0  0  0  0  0  0  0  0  0  0  # atno 17395 bound_to 11000

$$$$
