AV-unprocessed.smi:2477|AV-procd|sdf|9761|dock2
  -GOLD-   2272013403D 1   1.00000     0.00000
 Structure written by MMmdl.
 51 53  0  0  0  0  0  0  0  0  1 V2000
  145.8869  130.6503  151.3554 C   0  0  0  0  0  0  0  0  0  0  0  0
  145.4014  131.9909  151.0179 N   0  0  0  0  0  0  0  0  0  0  0  0
  144.2447  132.0828  150.2260 C   0  0  0  0  0  0  0  0  0  0  0  0
  143.7303  133.2673  149.8683 C   0  0  0  0  0  0  0  0  0  0  0  0
  144.3939  134.4681  150.3163 C   0  0  0  0  0  0  0  0  0  0  0  0
  145.5132  134.4032  151.0816 C   0  0  0  0  0  0  0  0  0  0  0  0
  146.2288  135.5137  151.5650 N   0  0  0  0  0  0  0  0  0  0  0  0
  145.7897  136.6289  152.1768 C   0  0  0  0  0  0  0  0  0  0  0  0
  144.6188  136.9020  152.4381 O   0  0  0  0  0  0  0  0  0  0  0  0
  146.8165  137.4305  152.4916 N   0  0  0  0  0  0  0  0  0  0  0  0
  146.7093  138.7074  153.1921 C   0  0  2  0  0  0  0  0  0  0  0  0
  147.1114  139.8569  152.2484 C   0  0  0  0  0  0  0  0  0  0  0  0
  147.0258  141.2181  152.9559 C   0  0  0  0  0  0  0  0  0  0  0  0
  147.8802  141.2356  154.2323 C   0  0  0  0  0  0  0  0  0  0  0  0
  147.4905  140.0899  155.1812 C   0  0  0  0  0  0  0  0  0  0  0  0
  147.5574  138.7167  154.4870 C   0  0  2  0  0  0  0  0  0  0  0  0
  148.9215  138.4513  154.1716 O   0  0  0  0  0  0  0  0  0  0  0  0
  149.7099  137.9593  155.2490 C   0  0  0  0  0  0  0  0  0  0  0  0
  150.1936  139.1101  156.1372 C   0  0  0  0  0  0  0  0  0  0  0  0
  151.3721  139.7276  155.3775 C   0  0  0  0  0  0  0  0  0  0  0  0
  151.9170  138.6223  154.4594 C   0  0  0  0  0  0  0  0  0  0  0  0
  151.0080  137.4039  154.6640 C   0  0  0  0  0  0  0  0  0  0  0  0
  146.0718  133.0925  151.4692 C   0  0  0  0  0  0  0  0  0  0  0  0
  147.0867  132.9807  152.1616 O   0  0  0  0  0  0  0  0  0  0  0  0
  145.2480  129.8587  150.9625 H   0  0  0  0  0  0  0  0  0  0  0  0
  145.9351  130.5200  152.4377 H   0  0  0  0  0  0  0  0  0  0  0  0
  146.8869  130.4929  150.9489 H   0  0  0  0  0  0  0  0  0  0  0  0
  143.8065  131.1405  149.9303 H   0  0  0  0  0  0  0  0  0  0  0  0
  142.8406  133.3227  149.2586 H   0  0  0  0  0  0  0  0  0  0  0  0
  143.9575  135.4043  150.0120 H   0  0  0  0  0  0  0  0  0  0  0  0
  147.2280  135.4481  151.4341 H   0  0  0  0  0  0  0  0  0  0  0  0
  147.7475  137.1281  152.2456 H   0  0  0  0  0  0  0  0  0  0  0  0
  145.6632  138.8590  153.4662 H   0  0  0  0  0  0  0  0  0  0  0  0
  148.1277  139.7012  151.8836 H   0  0  0  0  0  0  0  0  0  0  0  0
  146.4660  139.8612  151.3694 H   0  0  0  0  0  0  0  0  0  0  0  0
  147.3511  142.0093  152.2799 H   0  0  0  0  0  0  0  0  0  0  0  0
  145.9868  141.4344  153.2080 H   0  0  0  0  0  0  0  0  0  0  0  0
  148.9349  141.1503  153.9677 H   0  0  0  0  0  0  0  0  0  0  0  0
  147.7677  142.1932  154.7414 H   0  0  0  0  0  0  0  0  0  0  0  0
  148.1385  140.0972  156.0582 H   0  0  0  0  0  0  0  0  0  0  0  0
  146.4773  140.2572  155.5486 H   0  0  0  0  0  0  0  0  0  0  0  0
  147.1650  137.9710  155.1812 H   0  0  0  0  0  0  0  0  0  0  0  0
  149.1728  137.1929  155.8096 H   0  0  0  0  0  0  0  0  0  0  0  0
  149.4166  139.8381  156.3698 H   0  0  0  0  0  0  0  0  0  0  0  0
  150.5500  138.7041  157.0848 H   0  0  0  0  0  0  0  0  0  0  0  0
  151.0241  140.5664  154.7732 H   0  0  0  0  0  0  0  0  0  0  0  0
  152.1334  140.1093  156.0585 H   0  0  0  0  0  0  0  0  0  0  0  0
  151.8769  138.9530  153.4208 H   0  0  0  0  0  0  0  0  0  0  0  0
  152.9562  138.3811  154.6854 H   0  0  0  0  0  0  0  0  0  0  0  0
  151.4684  136.7300  155.3878 H   0  0  0  0  0  0  0  0  0  0  0  0
  150.8485  136.8370  153.7461 H   0  0  0  0  0  0  0  0  0  0  0  0
  1  2  1  0  0  0  0
  1 25  1  0  0  0  0
  1 26  1  0  0  0  0
  1 27  1  0  0  0  0
  2 23  1  0  0  0  0
  2  3  1  0  0  0  0
  3  4  2  0  0  0  0
  3 28  1  0  0  0  0
  4  5  1  0  0  0  0
  4 29  1  0  0  0  0
  5  6  2  0  0  0  0
  5 30  1  0  0  0  0
  6  7  1  0  0  0  0
  6 23  1  0  0  0  0
  7  8  1  0  0  0  0
  7 31  1  0  0  0  0
  8  9  2  0  0  0  0
  8 10  1  0  0  0  0
 10 11  1  0  0  0  0
 10 32  1  0  0  0  0
 11 16  1  0  0  0  0
 11 12  1  0  0  0  0
 11 33  1  0  0  0  0
 12 13  1  0  0  0  0
 12 34  1  0  0  0  0
 12 35  1  0  0  0  0
 13 14  1  0  0  0  0
 13 36  1  0  0  0  0
 13 37  1  0  0  0  0
 14 15  1  0  0  0  0
 14 38  1  0  0  0  0
 14 39  1  0  0  0  0
 15 16  1  0  0  0  0
 15 40  1  0  0  0  0
 15 41  1  0  0  0  0
 16 17  1  0  0  0  0
 16 42  1  0  0  0  0
 17 18  1  0  0  0  0
 18 22  1  0  0  0  0
 18 19  1  0  0  0  0
 18 43  1  0  0  0  0
 19 20  1  0  0  0  0
 19 44  1  0  0  0  0
 19 45  1  0  0  0  0
 20 21  1  0  0  0  0
 20 46  1  0  0  0  0
 20 47  1  0  0  0  0
 21 22  1  0  0  0  0
 21 48  1  0  0  0  0
 21 49  1  0  0  0  0
 22 50  1  0  0  0  0
 22 51  1  0  0  0  0
 23 24  2  0  0  0  0
M  END
> <s_m_source_file>
AV-unprocessed.smi

> <i_m_source_file_index>
2477

> <i_lp_mmshare_version>
43012

> <i_f3d_flags>
0

> <s_epik_input>
W0NIM11uMVtjSF1bY0hdW2NIXWMoYzE9TylbTkhdQyg9TylbTkhdW0NAQEhdMltDSDJdW0NIMl1bQ0gyXVtDSDJdW0NASF0yT1tDSF0zW0NIMl1bQ0gyXVtDSDJdW0NIMl0z

> <s_epik_cmdline>
J2VwaWtfcHl0aG9uJywgJy1waCcsICc3LjAnLCAnLXRuJywgJzgnLCAnLW1hJywgJzIwMCcsICctbWV0YWxfYmluZGluZycsICctaW1hZScsICc8aW5maWxlLm1hZT4nLCAnLW9tYWUnLCAnPG91dGZpbGUubWFlPic=

> <r_lp_tautomer_probability>
1

> <r_epik_Ionization_Penalty>
2.40753e-05

> <r_epik_Ionization_Penalty_Charging>
4.84018e-06

> <r_epik_Ionization_Penalty_Neutral>
1.92352e-05

> <r_epik_State_Penalty>
-0

> <r_epik_Charging_Adjusted_Penalty>
4.84018e-06

> <i_epik_Tot_Q>
0

> <i_epik_Tot_abs_Q>
0

> <r_epik_Metal_State_Penalty>
-0

> <b_epik_Metal_Only>
0

> <s_lp_Force_Field>
OPLS_2005

> <r_lp_Energy>
42.349

> <b_lp_Chiralities_Consistent>
1

> <s_lp_Variant>
AV-unprocessed.smi:2477-3

> <Gold.Version>
5.8.1

> <Gold.Id.Protein>
6NUR|6NUR_protein|mol2

> <Gold.PLP.Fitness>
43.2564

> <Gold.PLP.PLP>
-38.9562

> <Gold.PLP.part.hbond>
-1.9476

> <Gold.PLP.part.metal>
0.0000

> <Gold.PLP.part.buried>
-1.7103

> <Gold.PLP.part.nonpolar>
-35.6604

> <Gold.PLP.part.repulsive>
0.6890

> <Gold.PLP.ligand.clash>
0.0000

> <Gold.PLP.ligand.torsion>
0.7989

> <Gold.PLP.Chemscore.Hbond>
1.9440

> <Gold.PLP.Chemscore.CHOScore>
0.0000

> <Gold.PLP.Chemscore.Metal>
0.0000

> <Gold.Chemscore.Hbonds>
donor molecule, donor type, donor heavy atom, donor atom, acceptor molecule, acceptor atom, score
      L1  H     7    31       P1  7948  0.94
      L1  H    10    32       P1  7948  1.00

> <Gold.PLP.Chemscore.Internal.Correction>
0.0661

> <Gold.Rescore>
     Score         DG    S(hbond)    S(metal)    S(lipo)     H(rot)  DE(clash)    DE(int)     intcor
     18.89     -20.01       1.95        0.00      98.11       1.36       0.23       0.89       ----

> <Gold.Chemscore.Fitness>
18.8909

> <Gold.Chemscore.DG>
-20.0096

> <Gold.Chemscore.ZeroCoef>
-5.4800

> <Gold.Chemscore.Hbond>
1.9532

> <Gold.Chemscore.Metal>
0.0000

> <Gold.Chemscore.Lipo>
98.1058

> <Gold.Chemscore.Internal_Hbond>
0.0000

> <Gold.Chemscore.DEClash>
0.2335

> <Gold.Chemscore.DEInternal>
0.8853

> <Gold.Chemscore.Rot>
1.3564

> <Gold.Chemscore.Internal.Correction>
   9.000000E+99

> <Gold.Chemscore.Hbonds>
donor molecule, donor type, donor heavy atom, donor atom, acceptor molecule, acceptor atom, score
      L1  H     7    31       P1  7948  0.86
      L1  H    10    32       P1  7948  0.93

> <Gold.Chemscore.Hbond.Weighted>
-6.5236

> <Gold.Chemscore.Metal.Weighted>
-0.0000

> <Gold.Chemscore.Lipo.Weighted>
-11.4784

> <Gold.Chemscore.Internal_Hbond.Weighted>
0.0000

> <Gold.Chemscore.DEClash.Weighted>
0.2335

> <Gold.Chemscore.DEInternal.Weighted>
0.8853

> <Gold.Chemscore.Rot.Weighted>
3.4724

> <Gold.Chemscore.Internal.Correction.Weighted>
   9.000000E+99

> <Gold.Protein.RotatedTorsions>
[ 6907 6896 6895 6894 ] final -164.22 input  -60.11 | X-H torsion
[ 7974 7965 7964 7962 ] final   98.21 input  175.53 | X-H torsion
[ 8008 7997 7996 7995 ] final  144.57 input   59.86 | X-H torsion
[ 10167 10162 10161 10158 ] final   34.54 input  -65.29 | X-H torsion
[ 10718 10713 10712 10709 ] final   42.16 input   66.30 | X-H torsion
[ 10763 10752 10751 10750 ] final   94.90 input  -60.55 | X-H torsion
[ 11005 11000 10999 10996 ] final   80.30 input  -57.11 | X-H torsion

> <Gold.Protein.ActiveResidues>
 VAL166  LYS551  ARG553  GLY616  TRP617  ASP618  TYR619  PRO620  LYS621  CYS622 
 ASP623  PHE694  ASN695  SER759  ASP760  ASP761  ALA762  ILE779  LEU786  VAL792 
 PHE793  MET794  SER795  GLU796  ALA797  LYS798  CYS799  TRP800  GLU811  SER814 

> <Gold.Protein.RotatedAtoms>
  151.4084  133.3735  159.2740 H   0  0  0  0  0  0  0  0  0  0  0  0  # atno 6907 bound_to 6896
  150.9381  134.8794  159.7605 H   0  0  0  0  0  0  0  0  0  0  0  0  # atno 6908 bound_to 6896
  152.5059  134.4033  159.9476 H   0  0  0  0  0  0  0  0  0  0  0  0  # atno 6909 bound_to 6896
  145.4152  139.2328  143.3226 H   0  0  0  0  0  0  0  0  0  0  0  0  # atno 7974 bound_to 7965
  156.2905  140.2232  156.5074 H   0  0  0  0  0  0  0  0  0  0  0  0  # atno 8008 bound_to 7997
  154.7638  140.0471  157.1017 H   0  0  0  0  0  0  0  0  0  0  0  0  # atno 8009 bound_to 7997
  154.9958  140.3095  155.4890 H   0  0  0  0  0  0  0  0  0  0  0  0  # atno 8010 bound_to 7997
  140.4305  144.1331  150.6159 H   0  0  0  0  0  0  0  0  0  0  0  0  # atno 10167 bound_to 10162
  157.4017  130.7864  149.7354 H   0  0  0  0  0  0  0  0  0  0  0  0  # atno 10718 bound_to 10713
  153.2469  135.4273  155.0757 H   0  0  0  0  0  0  0  0  0  0  0  0  # atno 10763 bound_to 10752
  154.8365  135.3416  154.6568 H   0  0  0  0  0  0  0  0  0  0  0  0  # atno 10764 bound_to 10752
  153.6990  135.7029  153.5125 H   0  0  0  0  0  0  0  0  0  0  0  0  # atno 10765 bound_to 10752
  139.9139  134.7910  156.1892 H   0  0  0  0  0  0  0  0  0  0  0  0  # atno 11005 bound_to 11000
  146.2685  140.4869  142.8824 LP  0  0  0  0  0  0  0  0  0  0  0  0  # atno 17320 bound_to 7965
  144.8282  140.6664  143.6308 LP  0  0  0  0  0  0  0  0  0  0  0  0  # atno 17321 bound_to 7965
  140.4432  143.2517  151.9446 LP  0  0  0  0  0  0  0  0  0  0  0  0  # atno 17342 bound_to 10162
  139.4785  144.5634  151.8203 LP  0  0  0  0  0  0  0  0  0  0  0  0  # atno 17343 bound_to 10162
  155.9825  130.4009  150.3412 LP  0  0  0  0  0  0  0  0  0  0  0  0  # atno 17370 bound_to 10713
  157.1541  131.0328  151.2871 LP  0  0  0  0  0  0  0  0  0  0  0  0  # atno 17371 bound_to 10713
  141.0594  133.6849  156.1924 LP  0  0  0  0  0  0  0  0  0  0  0  0  # atno 17394 bound_to 11000
  140.6684  134.4893  157.5586 LP  0  0  0  0  0  0  0  0  0  0  0  0  # atno 17395 bound_to 11000

$$$$
