AV-unprocessed.smi:2229|AV-procd|sdf|9029|dock3
  -GOLD-   2272012233D 1   1.00000     0.00000
 Structure written by MMmdl.
 44 45  0  0  0  0  0  0  0  0  1 V2000
  152.5112  144.8086  158.7725 C   0  0  0  0  0  0  0  0  0  0  0  0
  151.9100  143.3953  158.8026 C   0  0  0  0  0  0  0  0  0  0  0  0
  152.8975  142.4051  159.4436 C   0  0  0  0  0  0  0  0  0  0  0  0
  151.4644  142.9628  157.3899 C   0  0  0  0  0  0  0  0  0  0  0  0
  150.9109  141.5290  157.3277 C   0  0  0  0  0  0  0  0  0  0  0  0
  150.4622  141.0888  155.9140 C   0  0  2  0  0  0  0  0  0  0  0  0
  149.1198  141.6826  155.4723 C   0  0  0  0  0  0  0  0  0  0  0  0
  148.6709  140.7814  154.3268 C   0  0  0  0  0  0  0  0  0  0  0  0
  149.1008  139.3767  154.7520 C   0  0  0  0  0  0  0  0  0  0  0  0
  150.3045  139.5608  155.7001 C   0  0  2  0  0  0  0  0  0  0  0  0
  150.0970  138.8655  156.9658 N   0  0  0  0  0  0  0  0  0  0  0  0
  151.0424  138.4640  157.8290 C   0  0  0  0  0  0  0  0  0  0  0  0
  152.2460  138.5817  157.6051 O   0  0  0  0  0  0  0  0  0  0  0  0
  150.5754  137.8580  159.1642 C   0  0  0  0  0  0  0  0  0  0  0  0
  151.6467  137.2531  159.9653 N   0  0  0  0  0  0  0  0  0  0  0  0
  151.8928  137.5951  161.2790 C   0  0  0  0  0  0  0  0  0  0  0  0
  152.8349  136.8816  161.7945 N   0  0  0  0  0  0  0  0  0  0  0  0
  153.1864  136.0725  160.7667 N   0  0  0  0  0  0  0  0  0  0  0  0
  152.4845  136.2692  159.6494 C   0  0  0  0  0  0  0  0  0  0  0  0
  152.5780  135.6618  158.5847 O   0  0  0  0  0  0  0  0  0  0  0  0
  153.9191  135.3908  160.9034 H   0  0  0  0  0  0  0  0  0  0  0  0
  153.4115  144.8430  158.1581 H   0  0  0  0  0  0  0  0  0  0  0  0
  152.7792  145.1439  159.7748 H   0  0  0  0  0  0  0  0  0  0  0  0
  151.8026  145.5308  158.3659 H   0  0  0  0  0  0  0  0  0  0  0  0
  151.0236  143.4363  159.4371 H   0  0  0  0  0  0  0  0  0  0  0  0
  153.7849  142.2736  158.8238 H   0  0  0  0  0  0  0  0  0  0  0  0
  152.4460  141.4252  159.5963 H   0  0  0  0  0  0  0  0  0  0  0  0
  153.2259  142.7586  160.4213 H   0  0  0  0  0  0  0  0  0  0  0  0
  150.6918  143.6515  157.0469 H   0  0  0  0  0  0  0  0  0  0  0  0
  152.2947  143.0671  156.6901 H   0  0  0  0  0  0  0  0  0  0  0  0
  151.6806  140.8399  157.6753 H   0  0  0  0  0  0  0  0  0  0  0  0
  150.0776  141.4392  158.0260 H   0  0  0  0  0  0  0  0  0  0  0  0
  151.2163  141.4291  155.2022 H   0  0  0  0  0  0  0  0  0  0  0  0
  148.3969  141.6269  156.2878 H   0  0  0  0  0  0  0  0  0  0  0  0
  149.1999  142.7262  155.1674 H   0  0  0  0  0  0  0  0  0  0  0  0
  147.6003  140.8510  154.1321 H   0  0  0  0  0  0  0  0  0  0  0  0
  149.1941  141.0647  153.4127 H   0  0  0  0  0  0  0  0  0  0  0  0
  148.2714  138.8902  155.2682 H   0  0  0  0  0  0  0  0  0  0  0  0
  149.3502  138.7542  153.8923 H   0  0  0  0  0  0  0  0  0  0  0  0
  151.2135  139.1749  155.2348 H   0  0  0  0  0  0  0  0  0  0  0  0
  149.1354  138.7146  157.2335 H   0  0  0  0  0  0  0  0  0  0  0  0
  150.0941  138.6444  159.7475 H   0  0  0  0  0  0  0  0  0  0  0  0
  149.8020  137.1156  158.9599 H   0  0  0  0  0  0  0  0  0  0  0  0
  151.3048  138.3846  161.7503 H   0  0  0  0  0  0  0  0  0  0  0  0
  1  2  1  0  0  0  0
  1 22  1  0  0  0  0
  1 23  1  0  0  0  0
  1 24  1  0  0  0  0
  2  3  1  0  0  0  0
  2  4  1  0  0  0  0
  2 25  1  0  0  0  0
  3 26  1  0  0  0  0
  3 27  1  0  0  0  0
  3 28  1  0  0  0  0
  4  5  1  0  0  0  0
  4 29  1  0  0  0  0
  4 30  1  0  0  0  0
  5  6  1  0  0  0  0
  5 31  1  0  0  0  0
  5 32  1  0  0  0  0
  6 10  1  0  0  0  0
  6  7  1  0  0  0  0
  6 33  1  0  0  0  0
  7  8  1  0  0  0  0
  7 34  1  0  0  0  0
  7 35  1  0  0  0  0
  8  9  1  0  0  0  0
  8 36  1  0  0  0  0
  8 37  1  0  0  0  0
  9 10  1  0  0  0  0
  9 38  1  0  0  0  0
  9 39  1  0  0  0  0
 10 11  1  0  0  0  0
 10 40  1  0  0  0  0
 11 12  1  0  0  0  0
 11 41  1  0  0  0  0
 12 13  2  0  0  0  0
 12 14  1  0  0  0  0
 14 15  1  0  0  0  0
 14 42  1  0  0  0  0
 14 43  1  0  0  0  0
 15 19  1  0  0  0  0
 15 16  1  0  0  0  0
 16 17  2  0  0  0  0
 16 44  1  0  0  0  0
 17 18  1  0  0  0  0
 18 21  1  0  0  0  0
 18 19  1  0  0  0  0
 19 20  2  0  0  0  0
M  END
> <s_m_source_file>
AV-unprocessed.smi

> <i_m_source_file_index>
2229

> <i_lp_mmshare_version>
43012

> <i_f3d_flags>
0

> <s_epik_input>
W0NIM11bQ0hdKFtDSDNdKVtDSDJdW0NIMl1bQ0BASF0xW0NIMl1bQ0gyXVtDSDJdW0NASF0xW05IXUMoPU8pW0NIMl1uMltjSF1uW25IXWMyPU8=

> <s_epik_cmdline>
J2VwaWtfcHl0aG9uJywgJy1waCcsICc3LjAnLCAnLXRuJywgJzgnLCAnLW1hJywgJzIwMCcsICctbWV0YWxfYmluZGluZycsICctaW1hZScsICc8aW5maWxlLm1hZT4nLCAnLW9tYWUnLCAnPG91dGZpbGUubWFlPic=

> <r_lp_tautomer_probability>
1

> <r_epik_Ionization_Penalty>
4.14174e-05

> <r_epik_Ionization_Penalty_Charging>
4.13165e-05

> <r_epik_Ionization_Penalty_Neutral>
1.00911e-07

> <r_epik_State_Penalty>
-0

> <r_epik_Charging_Adjusted_Penalty>
4.13165e-05

> <i_epik_Tot_Q>
0

> <i_epik_Tot_abs_Q>
0

> <r_epik_Metal_State_Penalty>
0.0399369

> <b_epik_Metal_Only>
0

> <s_lp_Force_Field>
OPLS_2005

> <r_lp_Energy>
36.2175

> <b_lp_Chiralities_Consistent>
1

> <s_lp_Variant>
AV-unprocessed.smi:2229-3

> <Gold.Version>
5.8.1

> <Gold.Id.Protein>
6NUR|6NUR_protein|mol2

> <Gold.PLP.Fitness>
41.9152

> <Gold.PLP.PLP>
-37.0034

> <Gold.PLP.part.hbond>
-2.0000

> <Gold.PLP.part.metal>
0.0000

> <Gold.PLP.part.buried>
-2.1198

> <Gold.PLP.part.nonpolar>
-32.3999

> <Gold.PLP.part.repulsive>
0.0854

> <Gold.PLP.ligand.clash>
0.0000

> <Gold.PLP.ligand.torsion>
0.5814

> <Gold.PLP.Chemscore.Hbond>
2.0000

> <Gold.PLP.Chemscore.CHOScore>
0.0000

> <Gold.PLP.Chemscore.Metal>
0.0000

> <Gold.PLP.Chemscore.Internal.Correction>
0.0747

> <Gold.Rescore>
     Score         DG    S(hbond)    S(metal)    S(lipo)     H(rot)  DE(clash)    DE(int)     intcor
     15.50     -16.28       2.00        0.00      92.92       2.64       0.09       0.69       ----

> <Gold.Chemscore.Fitness>
15.4979

> <Gold.Chemscore.DG>
-16.2776

> <Gold.Chemscore.ZeroCoef>
-5.4800

> <Gold.Chemscore.Hbond>
1.9987

> <Gold.Chemscore.Metal>
0.0000

> <Gold.Chemscore.Lipo>
92.9225

> <Gold.Chemscore.Internal_Hbond>
0.0000

> <Gold.Chemscore.DEClash>
0.0922

> <Gold.Chemscore.DEInternal>
0.6875

> <Gold.Chemscore.Rot>
2.6368

> <Gold.Chemscore.Internal.Correction>
   9.000000E+99

> <Gold.Chemscore.Hbond.Weighted>
-6.6758

> <Gold.Chemscore.Metal.Weighted>
-0.0000

> <Gold.Chemscore.Lipo.Weighted>
-10.8719

> <Gold.Chemscore.Internal_Hbond.Weighted>
0.0000

> <Gold.Chemscore.DEClash.Weighted>
0.0922

> <Gold.Chemscore.DEInternal.Weighted>
0.6875

> <Gold.Chemscore.Rot.Weighted>
6.7501

> <Gold.Chemscore.Internal.Correction.Weighted>
   9.000000E+99

> <Gold.Protein.RotatedTorsions>
[ 6907 6896 6895 6894 ] final   91.27 input  -60.11 | X-H torsion
[ 7974 7965 7964 7962 ] final  -98.33 input  175.53 | X-H torsion
[ 8008 7997 7996 7995 ] final  171.74 input   59.86 | X-H torsion
[ 10167 10162 10161 10158 ] final  165.00 input  -65.29 | X-H torsion
[ 10718 10713 10712 10709 ] final -177.34 input   66.30 | X-H torsion
[ 10763 10752 10751 10750 ] final  -94.53 input  -60.55 | X-H torsion
[ 11005 11000 10999 10996 ] final   39.31 input  -57.11 | X-H torsion

> <Gold.Protein.ActiveResidues>
 VAL166  LYS551  ARG553  GLY616  TRP617  ASP618  TYR619  PRO620  LYS621  CYS622 
 ASP623  PHE694  ASN695  SER759  ASP760  ASP761  ALA762  ILE779  LEU786  VAL792 
 PHE793  MET794  SER795  GLU796  ALA797  LYS798  CYS799  TRP800  GLU811  SER814 

> <Gold.Protein.RotatedAtoms>
  152.5449  134.1683  159.8586 H   0  0  0  0  0  0  0  0  0  0  0  0  # atno 6907 bound_to 6896
  151.1696  133.4786  159.2601 H   0  0  0  0  0  0  0  0  0  0  0  0  # atno 6908 bound_to 6896
  151.1289  135.0131  159.8628 H   0  0  0  0  0  0  0  0  0  0  0  0  # atno 6909 bound_to 6896
  145.3221  140.9424  143.2710 H   0  0  0  0  0  0  0  0  0  0  0  0  # atno 7974 bound_to 7965
  156.1242  140.1504  156.9161 H   0  0  0  0  0  0  0  0  0  0  0  0  # atno 8008 bound_to 7997
  154.4858  140.0865  156.7525 H   0  0  0  0  0  0  0  0  0  0  0  0  # atno 8009 bound_to 7997
  155.4374  140.3429  155.4288 H   0  0  0  0  0  0  0  0  0  0  0  0  # atno 8010 bound_to 7997
  139.4898  144.4177  151.9224 H   0  0  0  0  0  0  0  0  0  0  0  0  # atno 10167 bound_to 10162
  156.8280  130.9643  151.3108 H   0  0  0  0  0  0  0  0  0  0  0  0  # atno 10718 bound_to 10713
  154.7063  135.5154  153.8600 H   0  0  0  0  0  0  0  0  0  0  0  0  # atno 10763 bound_to 10752
  153.0744  135.6611  154.0186 H   0  0  0  0  0  0  0  0  0  0  0  0  # atno 10764 bound_to 10752
  154.0036  135.3008  155.3379 H   0  0  0  0  0  0  0  0  0  0  0  0  # atno 10765 bound_to 10752
  140.2040  134.3835  155.8081 H   0  0  0  0  0  0  0  0  0  0  0  0  # atno 11005 bound_to 11000
  144.8931  139.4748  143.6668 LP  0  0  0  0  0  0  0  0  0  0  0  0  # atno 17320 bound_to 7965
  146.3078  139.7641  142.9043 LP  0  0  0  0  0  0  0  0  0  0  0  0  # atno 17321 bound_to 7965
  140.3620  144.2961  150.5932 LP  0  0  0  0  0  0  0  0  0  0  0  0  # atno 17342 bound_to 10162
  140.5394  143.2226  151.8109 LP  0  0  0  0  0  0  0  0  0  0  0  0  # atno 17343 bound_to 10162
  157.6422  130.8815  149.9470 LP  0  0  0  0  0  0  0  0  0  0  0  0  # atno 17370 bound_to 10713
  156.0951  130.3660  150.0322 LP  0  0  0  0  0  0  0  0  0  0  0  0  # atno 17371 bound_to 10713
  141.2227  133.7109  156.8306 LP  0  0  0  0  0  0  0  0  0  0  0  0  # atno 17394 bound_to 11000
  140.2023  134.8888  157.3182 LP  0  0  0  0  0  0  0  0  0  0  0  0  # atno 17395 bound_to 11000

$$$$
