AV-unprocessed.smi:2754|AV-procd|sdf|10615|dock1
  -GOLD-   2272015 63D 1   1.00000     0.00000
 Structure written by MMmdl.
 28 29  0  0  0  0  0  0  0  0  2 V2000
  149.9158  138.3731  153.2026 N   0  0  0  0  0  0  0  0  0  0  0  0
  150.6169  138.4350  154.3814 C   0  0  0  0  0  0  0  0  0  0  0  0
  150.9983  137.2715  154.9116 N   0  0  0  0  0  0  0  0  0  0  0  0
  151.6864  137.3285  156.0725 C   0  0  0  0  0  0  0  0  0  0  0  0
  151.9909  138.5561  156.6957 C   0  0  0  0  0  0  0  0  0  0  0  0
  151.5361  139.7206  156.0395 C   0  0  0  0  0  0  0  0  0  0  0  0
  151.8040  141.1063  156.6098 C   0  0  2  0  0  0  0  0  0  0  0  0
  152.0282  141.0766  158.1345 C   0  0  0  0  0  0  0  0  0  0  0  0
  152.2867  142.4942  158.6679 C   0  0  0  0  0  0  0  0  0  0  0  0
  151.1584  143.4526  158.2520 C   0  0  0  0  0  0  0  0  0  0  0  0
  150.9902  143.4555  156.7823 N   0  3  0  0  0  0  0  0  0  0  0  0
  150.6982  142.1140  156.2302 C   0  0  0  0  0  0  0  0  0  0  0  0
  150.8466  139.6531  154.8768 N   0  0  0  0  0  0  0  0  0  0  0  0
  149.6013  139.2211  152.7535 H   0  0  0  0  0  0  0  0  0  0  0  0
  149.8047  137.4934  152.7200 H   0  0  0  0  0  0  0  0  0  0  0  0
  151.9970  136.3893  156.5060 H   0  0  0  0  0  0  0  0  0  0  0  0
  152.5415  138.5937  157.6242 H   0  0  0  0  0  0  0  0  0  0  0  0
  152.7312  141.4605  156.1560 H   0  0  0  0  0  0  0  0  0  0  0  0
  151.1540  140.6573  158.6347 H   0  0  0  0  0  0  0  0  0  0  0  0
  152.8690  140.4272  158.3803 H   0  0  0  0  0  0  0  0  0  0  0  0
  152.3766  142.4726  159.7544 H   0  0  0  0  0  0  0  0  0  0  0  0
  153.2402  142.8619  158.2863 H   0  0  0  0  0  0  0  0  0  0  0  0
  150.2181  143.1602  158.7214 H   0  0  0  0  0  0  0  0  0  0  0  0
  151.3804  144.4663  158.5865 H   0  0  0  0  0  0  0  0  0  0  0  0
  150.2345  144.0806  156.5399 H   0  0  0  0  0  0  0  0  0  0  0  0
  150.6115  142.1917  155.1460 H   0  0  0  0  0  0  0  0  0  0  0  0
  149.7284  141.7835  156.6049 H   0  0  0  0  0  0  0  0  0  0  0  0
  151.8428  143.7978  156.3628 H   0  0  0  0  0  0  0  0  0  0  0  0
  1  2  1  0  0  0  0
  1 14  1  0  0  0  0
  1 15  1  0  0  0  0
  2 13  1  0  0  0  0
  2  3  2  0  0  0  0
  3  4  1  0  0  0  0
  4  5  2  0  0  0  0
  4 16  1  0  0  0  0
  5  6  1  0  0  0  0
  5 17  1  0  0  0  0
  6  7  1  0  0  0  0
  6 13  2  0  0  0  0
  7 12  1  0  0  0  0
  7  8  1  0  0  0  0
  7 18  1  0  0  0  0
  8  9  1  0  0  0  0
  8 19  1  0  0  0  0
  8 20  1  0  0  0  0
  9 10  1  0  0  0  0
  9 21  1  0  0  0  0
  9 22  1  0  0  0  0
 10 11  1  0  0  0  0
 10 23  1  0  0  0  0
 10 24  1  0  0  0  0
 11 12  1  0  0  0  0
 11 25  1  0  0  0  0
 11 28  1  0  0  0  0
 12 26  1  0  0  0  0
 12 27  1  0  0  0  0
M  CHG  1  11   1
M  END
> <s_m_source_file>
AV-unprocessed.smi

> <i_m_source_file_index>
2754

> <i_lp_mmshare_version>
43012

> <i_f3d_flags>
0

> <s_epik_input>
W05IMl1jMW5bY0hdW2NIXWMobjEpW0NAQEhdMltDSDJdW0NIMl1bQ0gyXVtOSF1bQ0gyXTI=

> <s_epik_cmdline>
J2VwaWtfcHl0aG9uJywgJy1waCcsICc3LjAnLCAnLXRuJywgJzgnLCAnLW1hJywgJzIwMCcsICctbWV0YWxfYmluZGluZycsICctaW1hZScsICc8aW5maWxlLm1hZT4nLCAnLW9tYWUnLCAnPG91dGZpbGUubWFlPic=

> <r_lp_tautomer_probability>
1

> <r_epik_Ionization_Penalty>
0.000528025

> <r_epik_Ionization_Penalty_Charging>
0.000372054

> <r_epik_Ionization_Penalty_Neutral>
0.000155972

> <r_epik_State_Penalty>
-0

> <r_epik_Charging_Adjusted_Penalty>
0.000372054

> <i_epik_Tot_Q>
1

> <i_epik_Tot_abs_Q>
1

> <r_epik_Metal_State_Penalty>
-0

> <b_epik_Metal_Only>
0

> <s_lp_Force_Field>
OPLS_2005

> <r_lp_Energy>
4.9837

> <b_lp_Chiralities_Consistent>
1

> <s_lp_Variant>
AV-unprocessed.smi:2754-1

> <Gold.Version>
5.8.1

> <Gold.Id.Protein>
6NUR|6NUR_protein|mol2

> <Gold.PLP.Fitness>
35.0675

> <Gold.PLP.PLP>
-22.0212

> <Gold.PLP.part.hbond>
-4.5252

> <Gold.PLP.part.metal>
0.0000

> <Gold.PLP.part.buried>
-3.0426

> <Gold.PLP.part.nonpolar>
-14.1401

> <Gold.PLP.part.repulsive>
0.3303

> <Gold.PLP.ligand.clash>
0.0000

> <Gold.PLP.ligand.torsion>
0.7184

> <Gold.PLP.Chemscore.Hbond>
4.8160

> <Gold.PLP.Chemscore.CHOScore>
0.0000

> <Gold.PLP.Chemscore.Metal>
0.0000

> <Gold.Chemscore.Hbonds>
donor molecule, donor type, donor heavy atom, donor atom, acceptor molecule, acceptor atom, score
      L1  H     1    14       P1  7957  0.80
      L1  H     1    15       P1  7948  1.00
      L1  H    11    25       P1  8028  2.00
      P1  H  7989  7998       L1    13  1.00

> <Gold.PLP.Chemscore.Internal.Correction>
0.0351

> <Gold.Rescore>
     Score         DG    S(hbond)    S(metal)    S(lipo)     H(rot)  DE(clash)    DE(int)     intcor
     19.26     -20.93       3.26        0.00      60.81       1.00       0.97       0.69       ----

> <Gold.Chemscore.Fitness>
19.2638

> <Gold.Chemscore.DG>
-20.9260

> <Gold.Chemscore.ZeroCoef>
-5.4800

> <Gold.Chemscore.Hbond>
3.2607

> <Gold.Chemscore.Metal>
0.0000

> <Gold.Chemscore.Lipo>
60.8135

> <Gold.Chemscore.Internal_Hbond>
0.0000

> <Gold.Chemscore.DEClash>
0.9719

> <Gold.Chemscore.DEInternal>
0.6903

> <Gold.Chemscore.Rot>
1.0000

> <Gold.Chemscore.Internal.Correction>
   9.000000E+99

> <Gold.Chemscore.Hbonds>
donor molecule, donor type, donor heavy atom, donor atom, acceptor molecule, acceptor atom, score
      L1  H     1    14       P1  7957  0.79
      L1  H     1    15       P1  7948  0.25
      L1  H    11    25       P1  8028  1.00
      P1  H  7989  7998       L1    13  0.59

> <Gold.Chemscore.Hbond.Weighted>
-10.8908

> <Gold.Chemscore.Metal.Weighted>
-0.0000

> <Gold.Chemscore.Lipo.Weighted>
-7.1152

> <Gold.Chemscore.Internal_Hbond.Weighted>
0.0000

> <Gold.Chemscore.DEClash.Weighted>
0.9719

> <Gold.Chemscore.DEInternal.Weighted>
0.6903

> <Gold.Chemscore.Rot.Weighted>
2.5600

> <Gold.Chemscore.Internal.Correction.Weighted>
   9.000000E+99

> <Gold.Protein.RotatedTorsions>
[ 6907 6896 6895 6894 ] final -159.36 input  -60.11 | X-H torsion
[ 7974 7965 7964 7962 ] final -163.68 input  175.53 | X-H torsion
[ 8008 7997 7996 7995 ] final    0.05 input   59.86 | X-H torsion
[ 10167 10162 10161 10158 ] final   83.50 input  -65.29 | X-H torsion
[ 10718 10713 10712 10709 ] final   19.33 input   66.30 | X-H torsion
[ 10763 10752 10751 10750 ] final  -83.81 input  -60.55 | X-H torsion
[ 11005 11000 10999 10996 ] final   -9.81 input  -57.11 | X-H torsion

> <Gold.Protein.ActiveResidues>
 VAL166  LYS551  ARG553  GLY616  TRP617  ASP618  TYR619  PRO620  LYS621  CYS622 
 ASP623  PHE694  ASN695  SER759  ASP760  ASP761  ALA762  ILE779  LEU786  VAL792 
 PHE793  MET794  SER795  GLU796  ALA797  LYS798  CYS799  TRP800  GLU811  SER814 

> <Gold.Protein.RotatedAtoms>
  151.3324  133.3995  159.2663 H   0  0  0  0  0  0  0  0  0  0  0  0  # atno 6907 bound_to 6896
  150.9944  134.9272  159.7929 H   0  0  0  0  0  0  0  0  0  0  0  0  # atno 6908 bound_to 6896
  152.5257  134.3289  159.9228 H   0  0  0  0  0  0  0  0  0  0  0  0  # atno 6909 bound_to 6896
  144.7319  140.3071  143.6194 H   0  0  0  0  0  0  0  0  0  0  0  0  # atno 7974 bound_to 7965
  154.6637  140.2596  155.7081 H   0  0  0  0  0  0  0  0  0  0  0  0  # atno 8008 bound_to 7997
  156.2629  140.2843  156.1040 H   0  0  0  0  0  0  0  0  0  0  0  0  # atno 8009 bound_to 7997
  155.1271  140.0378  157.2755 H   0  0  0  0  0  0  0  0  0  0  0  0  # atno 8010 bound_to 7997
  139.9178  144.6232  150.8471 H   0  0  0  0  0  0  0  0  0  0  0  0  # atno 10167 bound_to 10162
  157.1089  130.6500  149.5892 H   0  0  0  0  0  0  0  0  0  0  0  0  # atno 10718 bound_to 10713
  154.5921  135.5543  153.7289 H   0  0  0  0  0  0  0  0  0  0  0  0  # atno 10763 bound_to 10752
  153.0121  135.6346  154.1834 H   0  0  0  0  0  0  0  0  0  0  0  0  # atno 10764 bound_to 10752
  154.1775  135.2889  155.3042 H   0  0  0  0  0  0  0  0  0  0  0  0  # atno 10765 bound_to 10752
  140.7381  133.8693  155.8946 H   0  0  0  0  0  0  0  0  0  0  0  0  # atno 11005 bound_to 11000
  145.7702  139.1854  143.2217 LP  0  0  0  0  0  0  0  0  0  0  0  0  # atno 17320 bound_to 7965
  146.0917  140.7648  142.9592 LP  0  0  0  0  0  0  0  0  0  0  0  0  # atno 17321 bound_to 7965
  140.7670  143.3319  151.2392 LP  0  0  0  0  0  0  0  0  0  0  0  0  # atno 17342 bound_to 10162
  139.6888  143.9728  152.2848 LP  0  0  0  0  0  0  0  0  0  0  0  0  # atno 17343 bound_to 10162
  155.9855  130.4886  150.7036 LP  0  0  0  0  0  0  0  0  0  0  0  0  # atno 17370 bound_to 10713
  157.4577  131.0879  151.0779 LP  0  0  0  0  0  0  0  0  0  0  0  0  # atno 17371 bound_to 10713
  140.9861  134.1341  157.4451 LP  0  0  0  0  0  0  0  0  0  0  0  0  # atno 17394 bound_to 11000
  139.8812  135.0026  156.6135 LP  0  0  0  0  0  0  0  0  0  0  0  0  # atno 17395 bound_to 11000

$$$$
