AV-unprocessed.smi:158|AV-procd|sdf|1328|dock8
  -GOLD-   2262019 23D 1   1.00000     0.00000
 Structure written by MMmdl.
 31 33  0  0  0  0  0  0  0  0  1 V2000
  154.0961  137.1635  156.9501 N   0  0  0  0  0  0  0  0  0  0  0  0
  153.1835  138.1416  156.8667 C   0  0  0  0  0  0  0  0  0  0  0  0
  153.1442  139.0719  157.8492 N   0  0  0  0  0  0  0  0  0  0  0  0
  152.2491  140.0670  157.8036 C   0  0  0  0  0  0  0  0  0  0  0  0
  152.2909  141.1944  159.1076 Cl  0  0  0  0  0  0  0  0  0  0  0  0
  151.3254  140.2852  156.8610 N   0  0  0  0  0  0  0  0  0  0  0  0
  151.3632  139.3476  155.8708 C   0  0  0  0  0  0  0  0  0  0  0  0
  152.2590  138.2485  155.7993 C   0  0  0  0  0  0  0  0  0  0  0  0
  152.0075  137.5084  154.6520 N   0  0  0  0  0  0  0  0  0  0  0  0
  151.0172  138.1411  154.0801 C   0  0  0  0  0  0  0  0  0  0  0  0
  150.5621  139.2561  154.7543 N   0  0  0  0  0  0  0  0  0  0  0  0
  149.4642  140.2070  154.3930 C   0  0  1  0  0  0  0  0  0  0  0  0
  148.8851  139.7812  153.1952 O   0  0  0  0  0  0  0  0  0  0  0  0
  147.6893  139.0580  153.4736 C   0  0  2  0  0  0  0  0  0  0  0  0
  146.7918  138.9601  152.2282 C   0  0  0  0  0  0  0  0  0  0  0  0
  147.3928  138.1189  151.2670 O   0  0  0  0  0  0  0  0  0  0  0  0
  147.1075  139.8466  154.6532 C   0  0  2  0  0  0  0  0  0  0  0  0
  146.4615  141.0244  154.2003 O   0  0  0  0  0  0  0  0  0  0  0  0
  148.3591  140.1617  155.4605 C   0  0  2  0  0  0  0  0  0  0  0  0
  148.2817  141.3146  156.1279 F   0  0  0  0  0  0  0  0  0  0  0  0
  149.9526  141.1755  154.2787 H   0  0  0  0  0  0  0  0  0  0  0  0
  147.9487  138.0578  153.8267 H   0  0  0  0  0  0  0  0  0  0  0  0
  146.3923  139.2565  155.2271 H   0  0  0  0  0  0  0  0  0  0  0  0
  148.5614  139.3692  156.1831 H   0  0  0  0  0  0  0  0  0  0  0  0
  154.1441  136.4589  156.2281 H   0  0  0  0  0  0  0  0  0  0  0  0
  154.7346  137.1337  157.7319 H   0  0  0  0  0  0  0  0  0  0  0  0
  150.5931  137.8039  153.1452 H   0  0  0  0  0  0  0  0  0  0  0  0
  145.8298  138.5194  152.4916 H   0  0  0  0  0  0  0  0  0  0  0  0
  146.5953  139.9432  151.7991 H   0  0  0  0  0  0  0  0  0  0  0  0
  147.6883  137.3318  151.6986 H   0  0  0  0  0  0  0  0  0  0  0  0
  145.8352  140.7882  153.5334 H   0  0  0  0  0  0  0  0  0  0  0  0
  1  2  1  0  0  0  0
  1 25  1  0  0  0  0
  1 26  1  0  0  0  0
  2  8  1  0  0  0  0
  2  3  2  0  0  0  0
  3  4  1  0  0  0  0
  4  5  1  0  0  0  0
  4  6  2  0  0  0  0
  6  7  1  0  0  0  0
  7 11  1  0  0  0  0
  7  8  2  0  0  0  0
  8  9  1  0  0  0  0
  9 10  2  0  0  0  0
 10 11  1  0  0  0  0
 10 27  1  0  0  0  0
 11 12  1  0  0  0  0
 12 21  1  0  0  0  0
 12 19  1  0  0  0  0
 12 13  1  0  0  0  0
 13 14  1  0  0  0  0
 14 22  1  0  0  0  0
 14 15  1  0  0  0  0
 14 17  1  0  0  0  0
 15 16  1  0  0  0  0
 15 28  1  0  0  0  0
 15 29  1  0  0  0  0
 16 30  1  0  0  0  0
 17 23  1  0  0  0  0
 17 18  1  0  0  0  0
 17 19  1  0  0  0  0
 18 31  1  0  0  0  0
 19 24  1  0  0  0  0
 19 20  1  0  0  0  0
M  END
> <s_m_source_file>
AV-unprocessed.smi

> <i_m_source_file_index>
158

> <i_lp_mmshare_version>
43012

> <i_f3d_flags>
0

> <s_epik_input>
Q2xjKG4xKW5jKFtOSDJdKWMoYzEyKW5bY0hdbjJbQ0BASF0zT1tDQEhdKFtDSDJdW09IXSlbQ0BASF0oW09IXSlbQ0BASF0zRg==

> <s_epik_cmdline>
J2VwaWtfcHl0aG9uJywgJy1waCcsICc3LjAnLCAnLXRuJywgJzgnLCAnLW1hJywgJzIwMCcsICctbWV0YWxfYmluZGluZycsICctaW1hZScsICc8aW5maWxlLm1hZT4nLCAnLW9tYWUnLCAnPG91dGZpbGUubWFlPic=

> <r_lp_tautomer_probability>
1

> <r_epik_Ionization_Penalty>
6.51543e-05

> <r_epik_Ionization_Penalty_Charging>
0

> <r_epik_Ionization_Penalty_Neutral>
6.51543e-05

> <r_epik_State_Penalty>
-0

> <r_epik_Charging_Adjusted_Penalty>
0

> <i_epik_Tot_Q>
0

> <i_epik_Tot_abs_Q>
0

> <r_epik_Metal_State_Penalty>
-0

> <b_epik_Metal_Only>
0

> <s_epik_Chemistry_Notes>
This compound contains an acetal/aminal-like group ( X-CH(R)-Y where X, Y are N, S, or O) that may be acid/base labile, releasing an aldehyde.

> <s_lp_Force_Field>
OPLS_2005

> <r_lp_Energy>
37.0626

> <b_lp_Chiralities_Consistent>
1

> <s_lp_Variant>
AV-unprocessed.smi:158-6

> <Gold.Version>
5.8.1

> <Gold.Id.Protein>
6NUR|6NUR_protein|mol2

> <Gold.PLP.Fitness>
39.3027

> <Gold.PLP.PLP>
-25.7945

> <Gold.PLP.part.hbond>
-4.7086

> <Gold.PLP.part.metal>
0.0000

> <Gold.PLP.part.buried>
-2.8200

> <Gold.PLP.part.nonpolar>
-22.6451

> <Gold.PLP.part.repulsive>
6.3378

> <Gold.PLP.ligand.clash>
0.0000

> <Gold.PLP.ligand.torsion>
0.0369

> <Gold.PLP.Chemscore.Hbond>
3.3739

> <Gold.PLP.Chemscore.CHOScore>
1.1470

> <Gold.PLP.Chemscore.Metal>
0.0000

> <Gold.Chemscore.Hbonds>
donor molecule, donor type, donor heavy atom, donor atom, acceptor molecule, acceptor atom, score
      L1  H    16    30       P1  7948  0.88
      L1  H    18    31       P1 10175  0.05
      P1  H  7954  7966       L1    16  0.80
      P1  H  7997  8008       L1     3  0.63
      P1  H 10752 10764       L1     9  0.72
      L1  C    10    27       P1  7948  0.51
      L1  C    10    27       P1  7949  0.61

> <Gold.PLP.Chemscore.Internal.Correction>
0.0190

> <Gold.Rescore>
     Score         DG    S(hbond)    S(metal)    S(lipo)     H(rot)  DE(clash)    DE(int)     intcor
      7.94     -10.07       2.52        0.00      35.65       3.12       2.08       0.05       ----

> <Gold.Chemscore.Fitness>
7.9371

> <Gold.Chemscore.DG>
-10.0715

> <Gold.Chemscore.ZeroCoef>
-5.4800

> <Gold.Chemscore.Hbond>
2.5197

> <Gold.Chemscore.Metal>
0.0000

> <Gold.Chemscore.Lipo>
35.6462

> <Gold.Chemscore.Internal_Hbond>
0.0000

> <Gold.Chemscore.DEClash>
2.0835

> <Gold.Chemscore.DEInternal>
0.0509

> <Gold.Chemscore.Rot>
3.1230

> <Gold.Chemscore.Internal.Correction>
   9.000000E+99

> <Gold.Chemscore.Hbonds>
donor molecule, donor type, donor heavy atom, donor atom, acceptor molecule, acceptor atom, score
      L1  H    16    30       P1  7948  0.86
      L1  H    18    31       P1 10175  0.08
      P1  H  7954  7966       L1    16  0.12
      P1  H  7997  8008       L1     3  0.02
      P1  H 10752 10764       L1     9  0.67

> <Gold.Chemscore.Hbond.Weighted>
-8.4159

> <Gold.Chemscore.Metal.Weighted>
-0.0000

> <Gold.Chemscore.Lipo.Weighted>
-4.1706

> <Gold.Chemscore.Internal_Hbond.Weighted>
0.0000

> <Gold.Chemscore.DEClash.Weighted>
2.0835

> <Gold.Chemscore.DEInternal.Weighted>
0.0509

> <Gold.Chemscore.Rot.Weighted>
7.9950

> <Gold.Chemscore.Internal.Correction.Weighted>
   9.000000E+99

> <Gold.Protein.RotatedTorsions>
[ 6907 6896 6895 6894 ] final -161.40 input  -60.11 | X-H torsion
[ 7974 7965 7964 7962 ] final -138.58 input  175.53 | X-H torsion
[ 8008 7997 7996 7995 ] final -104.89 input   59.86 | X-H torsion
[ 10167 10162 10161 10158 ] final    8.34 input  -65.29 | X-H torsion
[ 10718 10713 10712 10709 ] final   70.66 input   66.30 | X-H torsion
[ 10763 10752 10751 10750 ] final  -76.57 input  -60.55 | X-H torsion
[ 11005 11000 10999 10996 ] final -176.72 input  -57.11 | X-H torsion

> <Gold.Protein.ActiveResidues>
 VAL166  LYS551  ARG553  GLY616  TRP617  ASP618  TYR619  PRO620  LYS621  CYS622 
 ASP623  PHE694  ASN695  SER759  ASP760  ASP761  ALA762  ILE779  LEU786  VAL792 
 PHE793  MET794  SER795  GLU796  ALA797  LYS798  CYS799  TRP800  GLU811  SER814 

> <Gold.Protein.RotatedAtoms>
  151.3641  133.3879  159.2692 H   0  0  0  0  0  0  0  0  0  0  0  0  # atno 6907 bound_to 6896
  150.9703  134.9078  159.7794 H   0  0  0  0  0  0  0  0  0  0  0  0  # atno 6908 bound_to 6896
  152.5182  134.3602  159.9334 H   0  0  0  0  0  0  0  0  0  0  0  0  # atno 6909 bound_to 6896
  144.8747  140.6419  143.5244 H   0  0  0  0  0  0  0  0  0  0  0  0  # atno 7974 bound_to 7965
  154.8919  140.0415  157.1843 H   0  0  0  0  0  0  0  0  0  0  0  0  # atno 8008 bound_to 7997
  154.8532  140.2932  155.5564 H   0  0  0  0  0  0  0  0  0  0  0  0  # atno 8009 bound_to 7997
  156.2996  140.2461  156.3494 H   0  0  0  0  0  0  0  0  0  0  0  0  # atno 8010 bound_to 7997
  140.6320  143.7973  150.7308 H   0  0  0  0  0  0  0  0  0  0  0  0  # atno 10167 bound_to 10162
  157.6412  130.9489  150.0682 H   0  0  0  0  0  0  0  0  0  0  0  0  # atno 10718 bound_to 10713
  154.5016  135.5793  153.6535 H   0  0  0  0  0  0  0  0  0  0  0  0  # atno 10763 bound_to 10752
  152.9880  135.6137  154.2995 H   0  0  0  0  0  0  0  0  0  0  0  0  # atno 10764 bound_to 10752
  154.2903  135.2849  155.2637 H   0  0  0  0  0  0  0  0  0  0  0  0  # atno 10765 bound_to 10752
  140.4489  134.6362  157.4792 H   0  0  0  0  0  0  0  0  0  0  0  0  # atno 11005 bound_to 11000
  145.4065  139.1588  143.4149 LP  0  0  0  0  0  0  0  0  0  0  0  0  # atno 17320 bound_to 7965
  146.2954  140.4166  142.8723 LP  0  0  0  0  0  0  0  0  0  0  0  0  # atno 17321 bound_to 7965
  140.1586  143.4295  152.2083 LP  0  0  0  0  0  0  0  0  0  0  0  0  # atno 17342 bound_to 10162
  139.5533  144.7354  151.4369 LP  0  0  0  0  0  0  0  0  0  0  0  0  # atno 17343 bound_to 10162
  156.1694  130.3646  149.9186 LP  0  0  0  0  0  0  0  0  0  0  0  0  # atno 17370 bound_to 10713
  156.7165  130.8990  151.3614 LP  0  0  0  0  0  0  0  0  0  0  0  0  # atno 17371 bound_to 10713
  140.0020  134.6822  155.9515 LP  0  0  0  0  0  0  0  0  0  0  0  0  # atno 17394 bound_to 11000
  141.1673  133.6537  156.4524 LP  0  0  0  0  0  0  0  0  0  0  0  0  # atno 17395 bound_to 11000

$$$$
