AV-unprocessed.smi:1800|AV-procd|sdf|7265|dock7
  -GOLD-   22720 8523D 1   1.00000     0.00000
 Structure written by MMmdl.
 35 36  0  0  0  0  0  0  0  0  2 V2000
  152.3395  139.2428  155.1025 C   0  0  0  0  0  0  0  0  0  0  0  0
  151.5681  139.8081  156.3031 C   0  0  2  0  0  0  0  0  0  0  0  0
  150.6344  140.9748  155.8902 C   0  0  0  0  0  0  0  0  0  0  0  0
  149.6007  140.6074  154.9258 N   0  0  0  0  0  0  0  0  0  0  0  0
  148.5802  141.3861  154.4124 C   0  0  0  0  0  0  0  0  0  0  0  0
  147.8605  140.6057  153.5537 C   0  0  0  0  0  0  0  0  0  0  0  0
  148.5155  139.3444  153.6149 C   0  0  0  0  0  0  0  0  0  0  0  0
  149.5439  139.3425  154.4465 N   0  0  0  0  0  0  0  0  0  0  0  0
  152.5228  140.2604  157.3059 N   0  5  0  0  0  0  0  0  0  0  0  0
  151.9998  140.6862  158.7810 S   0  0  0  0  0  0  0  0  0  0  0  0
  150.6928  141.3637  158.7462 O   0  0  0  0  0  0  0  0  0  0  0  0
  152.1558  139.5968  159.7585 O   0  0  0  0  0  0  0  0  0  0  0  0
  153.2617  141.9772  159.2214 C   0  0  0  0  0  0  0  0  0  0  0  0
  153.9803  141.6389  160.5313 C   0  0  0  0  0  0  0  0  0  0  0  0
  153.0481  142.1436  161.6349 C   0  0  0  0  0  0  0  0  0  0  0  0
  152.2879  143.3321  161.0285 C   0  0  0  0  0  0  0  0  0  0  0  0
  152.6024  143.3293  159.5247 C   0  0  0  0  0  0  0  0  0  0  0  0
  151.6555  138.8782  154.3358 H   0  0  0  0  0  0  0  0  0  0  0  0
  152.9735  138.4067  155.4001 H   0  0  0  0  0  0  0  0  0  0  0  0
  152.9775  139.9999  154.6445 H   0  0  0  0  0  0  0  0  0  0  0  0
  150.9401  139.0010  156.6830 H   0  0  0  0  0  0  0  0  0  0  0  0
  150.1591  141.4105  156.7711 H   0  0  0  0  0  0  0  0  0  0  0  0
  151.2268  141.7730  155.4414 H   0  0  0  0  0  0  0  0  0  0  0  0
  148.4606  142.4224  154.6917 H   0  0  0  0  0  0  0  0  0  0  0  0
  146.9995  140.8935  152.9693 H   0  0  0  0  0  0  0  0  0  0  0  0
  148.2722  138.4341  153.0874 H   0  0  0  0  0  0  0  0  0  0  0  0
  153.9701  142.0403  158.3952 H   0  0  0  0  0  0  0  0  0  0  0  0
  154.2212  140.5811  160.6372 H   0  0  0  0  0  0  0  0  0  0  0  0
  154.9210  142.1889  160.5758 H   0  0  0  0  0  0  0  0  0  0  0  0
  152.3421  141.3575  161.9060 H   0  0  0  0  0  0  0  0  0  0  0  0
  153.5934  142.4171  162.5384 H   0  0  0  0  0  0  0  0  0  0  0  0
  151.2168  143.2257  161.2034 H   0  0  0  0  0  0  0  0  0  0  0  0
  152.5988  144.2737  161.4818 H   0  0  0  0  0  0  0  0  0  0  0  0
  153.3126  144.1277  159.3071 H   0  0  0  0  0  0  0  0  0  0  0  0
  151.7191  143.5134  158.9124 H   0  0  0  0  0  0  0  0  0  0  0  0
  1  2  1  0  0  0  0
  1 18  1  0  0  0  0
  1 19  1  0  0  0  0
  1 20  1  0  0  0  0
  2  3  1  0  0  0  0
  2  9  1  0  0  0  0
  2 21  1  0  0  0  0
  3  4  1  0  0  0  0
  3 22  1  0  0  0  0
  3 23  1  0  0  0  0
  4  8  1  0  0  0  0
  4  5  1  0  0  0  0
  5  6  2  0  0  0  0
  5 24  1  0  0  0  0
  6  7  1  0  0  0  0
  6 25  1  0  0  0  0
  7  8  2  0  0  0  0
  7 26  1  0  0  0  0
  9 10  1  0  0  0  0
 10 11  2  0  0  0  0
 10 12  2  0  0  0  0
 10 13  1  0  0  0  0
 13 17  1  0  0  0  0
 13 14  1  0  0  0  0
 13 27  1  0  0  0  0
 14 15  1  0  0  0  0
 14 28  1  0  0  0  0
 14 29  1  0  0  0  0
 15 16  1  0  0  0  0
 15 30  1  0  0  0  0
 15 31  1  0  0  0  0
 16 17  1  0  0  0  0
 16 32  1  0  0  0  0
 16 33  1  0  0  0  0
 17 34  1  0  0  0  0
 17 35  1  0  0  0  0
M  CHG  1   9  -1
M  END
> <s_m_source_file>
AV-unprocessed.smi

> <i_m_source_file_index>
1800

> <i_lp_mmshare_version>
43012

> <i_f3d_flags>
0

> <s_epik_input>
bjFbY0hdW2NIXVtjSF1uMVtDSDJdW0NAQEhdKFtDSDNdKVtOSF1TKD1PKSg9TylbQ0hdMltDSDJdW0NIMl1bQ0gyXVtDSDJdMg==

> <s_epik_cmdline>
J2VwaWtfcHl0aG9uJywgJy1waCcsICc3LjAnLCAnLXRuJywgJzgnLCAnLW1hJywgJzIwMCcsICctbWV0YWxfYmluZGluZycsICctaW1hZScsICc8aW5maWxlLm1hZT4nLCAnLW9tYWUnLCAnPG91dGZpbGUubWFlPic=

> <r_lp_tautomer_probability>
1

> <r_epik_Ionization_Penalty>
6.58538

> <r_epik_Ionization_Penalty_Charging>
6.58536

> <r_epik_Ionization_Penalty_Neutral>
2.3841e-05

> <r_epik_State_Penalty>
6.58535

> <r_epik_Charging_Adjusted_Penalty>
13.1707

> <i_epik_Tot_Q>
-1

> <i_epik_Tot_abs_Q>
1

> <r_epik_Metal_State_Penalty>
2.50999

> <b_epik_Metal_Only>
1

> <s_lp_Force_Field>
OPLS_2005

> <r_lp_Energy>
15.5641

> <b_lp_Chiralities_Consistent>
1

> <s_lp_Variant>
AV-unprocessed.smi:1800-3

> <Gold.Version>
5.8.1

> <Gold.Id.Protein>
6NUR|6NUR_protein|mol2

> <Gold.PLP.Fitness>
47.5824

> <Gold.PLP.PLP>
-36.3529

> <Gold.PLP.part.hbond>
-1.0000

> <Gold.PLP.part.metal>
0.0000

> <Gold.PLP.part.buried>
3.2554

> <Gold.PLP.part.nonpolar>
-37.6959

> <Gold.PLP.part.repulsive>
0.1512

> <Gold.PLP.ligand.clash>
0.0000

> <Gold.PLP.ligand.torsion>
0.7134

> <Gold.PLP.Chemscore.Hbond>
1.9520

> <Gold.PLP.Chemscore.CHOScore>
1.9039

> <Gold.PLP.Chemscore.Metal>
0.0000

> <Gold.Chemscore.Hbonds>
donor molecule, donor type, donor heavy atom, donor atom, acceptor molecule, acceptor atom, score
      P1  H  7997  8009       L1     9  2.00
      L1  C     5    24       P1  8028  1.00
      L1  C     7    26       P1  7948  0.85

> <Gold.PLP.Chemscore.Internal.Correction>
1.0886

> <Gold.Rescore>
     Score         DG    S(hbond)    S(metal)    S(lipo)     H(rot)  DE(clash)    DE(int)     intcor
     13.61     -15.92       0.89        0.00      97.01       1.51       0.24       2.07       ----

> <Gold.Chemscore.Fitness>
13.6059

> <Gold.Chemscore.DG>
-15.9165

> <Gold.Chemscore.ZeroCoef>
-5.4800

> <Gold.Chemscore.Hbond>
0.8872

> <Gold.Chemscore.Metal>
0.0000

> <Gold.Chemscore.Lipo>
97.0137

> <Gold.Chemscore.Internal_Hbond>
0.0000

> <Gold.Chemscore.DEClash>
0.2357

> <Gold.Chemscore.DEInternal>
2.0748

> <Gold.Chemscore.Rot>
1.5146

> <Gold.Chemscore.Internal.Correction>
   9.000000E+99

> <Gold.Chemscore.Hbonds>
donor molecule, donor type, donor heavy atom, donor atom, acceptor molecule, acceptor atom, score
      P1  H  7997  8009       L1     9  0.73

> <Gold.Chemscore.Hbond.Weighted>
-2.9632

> <Gold.Chemscore.Metal.Weighted>
-0.0000

> <Gold.Chemscore.Lipo.Weighted>
-11.3506

> <Gold.Chemscore.Internal_Hbond.Weighted>
0.0000

> <Gold.Chemscore.DEClash.Weighted>
0.2357

> <Gold.Chemscore.DEInternal.Weighted>
2.0748

> <Gold.Chemscore.Rot.Weighted>
3.8773

> <Gold.Chemscore.Internal.Correction.Weighted>
   9.000000E+99

> <Gold.Protein.RotatedTorsions>
[ 6907 6896 6895 6894 ] final   98.26 input  -60.11 | X-H torsion
[ 7974 7965 7964 7962 ] final   -1.13 input  175.53 | X-H torsion
[ 8008 7997 7996 7995 ] final -178.80 input   59.86 | X-H torsion
[ 10167 10162 10161 10158 ] final   91.46 input  -65.29 | X-H torsion
[ 10718 10713 10712 10709 ] final   28.88 input   66.30 | X-H torsion
[ 10763 10752 10751 10750 ] final -154.79 input  -60.55 | X-H torsion
[ 11005 11000 10999 10996 ] final -153.48 input  -57.11 | X-H torsion

> <Gold.Protein.ActiveResidues>
 VAL166  LYS551  ARG553  GLY616  TRP617  ASP618  TYR619  PRO620  LYS621  CYS622 
 ASP623  PHE694  ASN695  SER759  ASP760  ASP761  ALA762  ILE779  LEU786  VAL792 
 PHE793  MET794  SER795  GLU796  ALA797  LYS798  CYS799  TRP800  GLU811  SER814 

> <Gold.Protein.RotatedAtoms>
  152.5412  134.0608  159.8150 H   0  0  0  0  0  0  0  0  0  0  0  0  # atno 6907 bound_to 6896
  151.0736  133.5438  159.2632 H   0  0  0  0  0  0  0  0  0  0  0  0  # atno 6908 bound_to 6896
  151.2292  135.0556  159.9035 H   0  0  0  0  0  0  0  0  0  0  0  0  # atno 6909 bound_to 6896
  146.2420  140.1373  142.8336 H   0  0  0  0  0  0  0  0  0  0  0  0  # atno 7974 bound_to 7965
  156.0231  140.1265  157.0337 H   0  0  0  0  0  0  0  0  0  0  0  0  # atno 8008 bound_to 7997
  154.4319  140.1064  156.6062 H   0  0  0  0  0  0  0  0  0  0  0  0  # atno 8009 bound_to 7997
  155.5916  140.3469  155.4570 H   0  0  0  0  0  0  0  0  0  0  0  0  # atno 8010 bound_to 7997
  139.8372  144.6659  150.9327 H   0  0  0  0  0  0  0  0  0  0  0  0  # atno 10167 bound_to 10162
  157.2393  130.7061  149.6351 H   0  0  0  0  0  0  0  0  0  0  0  0  # atno 10718 bound_to 10713
  154.7833  135.3182  154.7941 H   0  0  0  0  0  0  0  0  0  0  0  0  # atno 10763 bound_to 10752
  153.8647  135.6850  153.4784 H   0  0  0  0  0  0  0  0  0  0  0  0  # atno 10764 bound_to 10752
  153.1477  135.4712  154.9528 H   0  0  0  0  0  0  0  0  0  0  0  0  # atno 10765 bound_to 10752
  140.7077  134.3867  157.5202 H   0  0  0  0  0  0  0  0  0  0  0  0  # atno 11005 bound_to 11000
  145.0276  140.8844  143.5129 LP  0  0  0  0  0  0  0  0  0  0  0  0  # atno 17320 bound_to 7965
  145.1432  139.2559  143.5479 LP  0  0  0  0  0  0  0  0  0  0  0  0  # atno 17321 bound_to 7965
  140.7801  143.3946  151.1252 LP  0  0  0  0  0  0  0  0  0  0  0  0  # atno 17342 bound_to 10162
  139.7595  143.8657  152.3097 LP  0  0  0  0  0  0  0  0  0  0  0  0  # atno 17343 bound_to 10162
  155.9671  130.4463  150.5536 LP  0  0  0  0  0  0  0  0  0  0  0  0  # atno 17370 bound_to 10713
  157.3396  131.0714  151.1798 LP  0  0  0  0  0  0  0  0  0  0  0  0  # atno 17371 bound_to 10713
  139.8880  134.8868  156.2499 LP  0  0  0  0  0  0  0  0  0  0  0  0  # atno 17394 bound_to 11000
  141.0111  133.7095  156.1113 LP  0  0  0  0  0  0  0  0  0  0  0  0  # atno 17395 bound_to 11000

$$$$
