AV-unprocessed.smi:3185|AV-procd|sdf|12171|dock3
  -GOLD-   2272018 03D 1   1.00000     0.00000
 Structure written by MMmdl.
 37 38  0  0  0  0  0  0  0  0  1 V2000
  151.7988  146.4854  160.0664 N   0  0  0  0  0  0  0  0  0  0  0  0
  152.0394  145.4397  159.6344 C   0  0  0  0  0  0  0  0  0  0  0  0
  152.3452  144.1104  159.0850 C   0  0  0  0  0  0  0  0  0  0  0  0
  151.1398  143.4661  158.3922 C   0  0  0  0  0  0  0  0  0  0  0  0
  151.4742  142.0820  157.8251 C   0  0  0  0  0  0  0  0  0  0  0  0
  150.2926  141.2354  157.8871 N   0  0  0  0  0  0  0  0  0  0  0  0
  149.2956  141.5904  156.8811 C   0  0  2  0  0  0  0  0  0  0  0  0
  148.0125  140.7844  157.1659 C   0  0  0  0  0  0  0  0  0  0  0  0
  146.9100  141.1196  156.1504 C   0  0  0  0  0  0  0  0  0  0  0  0
  147.3774  140.8701  154.7091 C   0  0  0  0  0  0  0  0  0  0  0  0
  148.6764  141.6371  154.3971 C   0  0  0  0  0  0  0  0  0  0  0  0
  149.8104  141.3990  155.4233 C   0  0  2  0  0  0  0  0  0  0  0  0
  150.5243  140.1389  155.2010 N   0  0  0  0  0  0  0  0  0  0  0  0
  150.2471  139.1788  154.2479 C   0  0  0  0  0  0  0  0  0  0  0  0
  151.1692  138.1811  154.3813 C   0  0  0  0  0  0  0  0  0  0  0  0
  151.9867  138.6222  155.4572 C   0  0  0  0  0  0  0  0  0  0  0  0
  151.6015  139.7908  155.9408 N   0  0  0  0  0  0  0  0  0  0  0  0
  153.1734  144.2212  158.3844 H   0  0  0  0  0  0  0  0  0  0  0  0
  152.6945  143.4825  159.9049 H   0  0  0  0  0  0  0  0  0  0  0  0
  150.3169  143.3840  159.1035 H   0  0  0  0  0  0  0  0  0  0  0  0
  150.7936  144.1193  157.5896 H   0  0  0  0  0  0  0  0  0  0  0  0
  151.8088  142.1716  156.7909 H   0  0  0  0  0  0  0  0  0  0  0  0
  152.2893  141.6407  158.3979 H   0  0  0  0  0  0  0  0  0  0  0  0
  150.5487  140.2633  157.7847 H   0  0  0  0  0  0  0  0  0  0  0  0
  149.0427  142.6430  157.0173 H   0  0  0  0  0  0  0  0  0  0  0  0
  148.2140  139.7133  157.1513 H   0  0  0  0  0  0  0  0  0  0  0  0
  147.6526  141.0083  158.1709 H   0  0  0  0  0  0  0  0  0  0  0  0
  146.0196  140.5261  156.3596 H   0  0  0  0  0  0  0  0  0  0  0  0
  146.6178  142.1645  156.2628 H   0  0  0  0  0  0  0  0  0  0  0  0
  147.5144  139.8020  154.5461 H   0  0  0  0  0  0  0  0  0  0  0  0
  146.5963  141.1776  154.0134 H   0  0  0  0  0  0  0  0  0  0  0  0
  149.0209  141.3934  153.3915 H   0  0  0  0  0  0  0  0  0  0  0  0
  148.4446  142.7028  154.3817 H   0  0  0  0  0  0  0  0  0  0  0  0
  150.5422  142.1851  155.2341 H   0  0  0  0  0  0  0  0  0  0  0  0
  149.4246  139.2857  153.5562 H   0  0  0  0  0  0  0  0  0  0  0  0
  151.2483  137.2759  153.7980 H   0  0  0  0  0  0  0  0  0  0  0  0
  152.8435  138.1332  155.8967 H   0  0  0  0  0  0  0  0  0  0  0  0
  1  2  3  0  0  0  0
  2  3  1  0  0  0  0
  3  4  1  0  0  0  0
  3 18  1  0  0  0  0
  3 19  1  0  0  0  0
  4  5  1  0  0  0  0
  4 20  1  0  0  0  0
  4 21  1  0  0  0  0
  5  6  1  0  0  0  0
  5 22  1  0  0  0  0
  5 23  1  0  0  0  0
  6  7  1  0  0  0  0
  6 24  1  0  0  0  0
  7 12  1  0  0  0  0
  7  8  1  0  0  0  0
  7 25  1  0  0  0  0
  8  9  1  0  0  0  0
  8 26  1  0  0  0  0
  8 27  1  0  0  0  0
  9 10  1  0  0  0  0
  9 28  1  0  0  0  0
  9 29  1  0  0  0  0
 10 11  1  0  0  0  0
 10 30  1  0  0  0  0
 10 31  1  0  0  0  0
 11 12  1  0  0  0  0
 11 32  1  0  0  0  0
 11 33  1  0  0  0  0
 12 13  1  0  0  0  0
 12 34  1  0  0  0  0
 13 17  1  0  0  0  0
 13 14  1  0  0  0  0
 14 15  2  0  0  0  0
 14 35  1  0  0  0  0
 15 16  1  0  0  0  0
 15 36  1  0  0  0  0
 16 17  2  0  0  0  0
 16 37  1  0  0  0  0
M  END
> <s_m_source_file>
AV-unprocessed.smi

> <i_m_source_file_index>
3185

> <i_lp_mmshare_version>
43012

> <i_f3d_flags>
0

> <s_epik_input>
TiNDW0NIMl1bQ0gyXVtDSDJdW05IXVtDQEBIXTFbQ0gyXVtDSDJdW0NIMl1bQ0gyXVtDQEhdMW4yW2NIXVtjSF1bY0hdbjI=

> <s_epik_cmdline>
J2VwaWtfcHl0aG9uJywgJy1waCcsICc3LjAnLCAnLXRuJywgJzgnLCAnLW1hJywgJzIwMCcsICctbWV0YWxfYmluZGluZycsICctaW1hZScsICc8aW5maWxlLm1hZT4nLCAnLW9tYWUnLCAnPG91dGZpbGUubWFlPic=

> <r_lp_tautomer_probability>
1

> <r_epik_Ionization_Penalty>
2.21326

> <r_epik_Ionization_Penalty_Charging>
0

> <r_epik_Ionization_Penalty_Neutral>
2.21326

> <r_epik_State_Penalty>
2.35651

> <r_epik_Charging_Adjusted_Penalty>
2.35651

> <i_epik_Tot_Q>
0

> <i_epik_Tot_abs_Q>
0

> <r_epik_Metal_State_Penalty>
2.3555

> <b_epik_Metal_Only>
0

> <s_lp_Force_Field>
OPLS_2005

> <r_lp_Energy>
17.6064

> <b_lp_Chiralities_Consistent>
1

> <s_lp_Variant>
AV-unprocessed.smi:3185-7

> <Gold.Version>
5.8.1

> <Gold.Id.Protein>
6NUR|6NUR_protein|mol2

> <Gold.PLP.Fitness>
38.3118

> <Gold.PLP.PLP>
-36.0753

> <Gold.PLP.part.hbond>
-2.0000

> <Gold.PLP.part.metal>
0.0000

> <Gold.PLP.part.buried>
-2.8918

> <Gold.PLP.part.nonpolar>
-31.4161

> <Gold.PLP.part.repulsive>
0.2544

> <Gold.PLP.ligand.clash>
0.0000

> <Gold.PLP.ligand.torsion>
0.3102

> <Gold.PLP.Chemscore.Hbond>
0.0000

> <Gold.PLP.Chemscore.CHOScore>
0.9162

> <Gold.PLP.Chemscore.Metal>
0.0000

> <Gold.Chemscore.Hbonds>
donor molecule, donor type, donor heavy atom, donor atom, acceptor molecule, acceptor atom, score
      L1  C    14    35       P1  7957  0.91

> <Gold.PLP.Chemscore.Internal.Correction>
0.1083

> <Gold.Rescore>
     Score         DG    S(hbond)    S(metal)    S(lipo)     H(rot)  DE(clash)    DE(int)     intcor
      7.93     -10.77       0.00        0.00      84.87       1.81       0.36       2.48       ----

> <Gold.Chemscore.Fitness>
7.9340

> <Gold.Chemscore.DG>
-10.7738

> <Gold.Chemscore.ZeroCoef>
-5.4800

> <Gold.Chemscore.Hbond>
0.0000

> <Gold.Chemscore.Metal>
0.0000

> <Gold.Chemscore.Lipo>
84.8721

> <Gold.Chemscore.Internal_Hbond>
0.0000

> <Gold.Chemscore.DEClash>
0.3602

> <Gold.Chemscore.DEInternal>
2.4797

> <Gold.Chemscore.Rot>
1.8110

> <Gold.Chemscore.Internal.Correction>
   9.000000E+99

> <Gold.Chemscore.Hbond.Weighted>
-0.0000

> <Gold.Chemscore.Metal.Weighted>
-0.0000

> <Gold.Chemscore.Lipo.Weighted>
-9.9300

> <Gold.Chemscore.Internal_Hbond.Weighted>
0.0000

> <Gold.Chemscore.DEClash.Weighted>
0.3602

> <Gold.Chemscore.DEInternal.Weighted>
2.4797

> <Gold.Chemscore.Rot.Weighted>
4.6362

> <Gold.Chemscore.Internal.Correction.Weighted>
   9.000000E+99

> <Gold.Protein.RotatedTorsions>
[ 6907 6896 6895 6894 ] final  -59.72 input  -60.11 | X-H torsion
[ 7974 7965 7964 7962 ] final  109.31 input  175.53 | X-H torsion
[ 8008 7997 7996 7995 ] final   92.99 input   59.86 | X-H torsion
[ 10167 10162 10161 10158 ] final -135.42 input  -65.29 | X-H torsion
[ 10718 10713 10712 10709 ] final  -20.96 input   66.30 | X-H torsion
[ 10763 10752 10751 10750 ] final  143.86 input  -60.55 | X-H torsion
[ 11005 11000 10999 10996 ] final  -66.53 input  -57.11 | X-H torsion

> <Gold.Protein.ActiveResidues>
 VAL166  LYS551  ARG553  GLY616  TRP617  ASP618  TYR619  PRO620  LYS621  CYS622 
 ASP623  PHE694  ASN695  SER759  ASP760  ASP761  ALA762  ILE779  LEU786  VAL792 
 PHE793  MET794  SER795  GLU796  ALA797  LYS798  CYS799  TRP800  GLU811  SER814 

> <Gold.Protein.RotatedAtoms>
  150.7909  134.6932  159.6508 H   0  0  0  0  0  0  0  0  0  0  0  0  # atno 6907 bound_to 6896
  152.4015  134.6276  160.0077 H   0  0  0  0  0  0  0  0  0  0  0  0  # atno 6908 bound_to 6896
  151.6546  133.3282  159.3196 H   0  0  0  0  0  0  0  0  0  0  0  0  # atno 6909 bound_to 6896
  145.2695  139.2672  143.3974 H   0  0  0  0  0  0  0  0  0  0  0  0  # atno 7974 bound_to 7965
  156.0417  140.3318  155.7251 H   0  0  0  0  0  0  0  0  0  0  0  0  # atno 8008 bound_to 7997
  155.5735  140.0630  157.2818 H   0  0  0  0  0  0  0  0  0  0  0  0  # atno 8009 bound_to 7997
  154.4396  140.1856  156.0891 H   0  0  0  0  0  0  0  0  0  0  0  0  # atno 8010 bound_to 7997
  139.8780  143.6874  152.2631 H   0  0  0  0  0  0  0  0  0  0  0  0  # atno 10167 bound_to 10162
  156.5247  130.4641  149.6578 H   0  0  0  0  0  0  0  0  0  0  0  0  # atno 10718 bound_to 10713
  153.9794  135.2943  155.3421 H   0  0  0  0  0  0  0  0  0  0  0  0  # atno 10763 bound_to 10752
  154.7278  135.5081  153.8917 H   0  0  0  0  0  0  0  0  0  0  0  0  # atno 10764 bound_to 10752
  153.0862  135.6694  154.0059 H   0  0  0  0  0  0  0  0  0  0  0  0  # atno 10765 bound_to 10752
  141.1484  133.6701  156.6154 H   0  0  0  0  0  0  0  0  0  0  0  0  # atno 11005 bound_to 11000
  146.3251  140.3133  142.8628 LP  0  0  0  0  0  0  0  0  0  0  0  0  # atno 17320 bound_to 7965
  144.9348  140.8014  143.5667 LP  0  0  0  0  0  0  0  0  0  0  0  0  # atno 17321 bound_to 7965
  139.7222  144.7600  151.0937 LP  0  0  0  0  0  0  0  0  0  0  0  0  # atno 17342 bound_to 10162
  140.7749  143.5193  150.9556 LP  0  0  0  0  0  0  0  0  0  0  0  0  # atno 17343 bound_to 10162
  156.3116  130.7232  151.2126 LP  0  0  0  0  0  0  0  0  0  0  0  0  # atno 17370 bound_to 10713
  157.7431  131.0479  150.4971 LP  0  0  0  0  0  0  0  0  0  0  0  0  # atno 17371 bound_to 10713
  140.3582  134.7710  157.4515 LP  0  0  0  0  0  0  0  0  0  0  0  0  # atno 17394 bound_to 11000
  140.0806  134.5736  155.8544 LP  0  0  0  0  0  0  0  0  0  0  0  0  # atno 17395 bound_to 11000

$$$$
