AV-unprocessed.smi:749|AV-procd|sdf|3587|dock5
  -GOLD-   22720 0583D 1   1.00000     0.00000
 Structure written by MMmdl.
 42 43  0  0  0  0  0  0  0  0  2 V2000
  146.1467  132.4110  151.6638 C   0  0  0  0  0  0  0  0  0  0  0  0
  147.1918  132.3476  152.6866 N   0  0  0  0  0  0  0  0  0  0  0  0
  147.8908  133.6177  152.9356 C   0  0  0  0  0  0  0  0  0  0  0  0
  148.7130  133.6406  154.2356 C   0  0  2  0  0  0  0  0  0  0  0  0
  149.5979  134.8015  154.2352 N   0  0  0  0  0  0  0  0  0  0  0  0
  150.5714  135.0687  155.1280 C   0  0  0  0  0  0  0  0  0  0  0  0
  150.7697  134.2759  156.0478 O   0  0  0  0  0  0  0  0  0  0  0  0
  151.2892  136.2114  154.9609 N   0  5  0  0  0  0  0  0  0  0  0  0
  150.7127  137.4076  154.7489 C   0  0  0  0  0  0  0  0  0  0  0  0
  149.3352  137.7107  154.9216 C   0  0  0  0  0  0  0  0  0  0  0  0
  149.2537  139.0317  154.5760 C   0  0  0  0  0  0  0  0  0  0  0  0
  148.1175  140.0130  154.5015 C   0  0  0  0  0  0  0  0  0  0  0  0
  147.0790  139.5712  153.4511 C   0  0  0  0  0  0  0  0  0  0  0  0
  148.6496  141.4023  154.1035 C   0  0  0  0  0  0  0  0  0  0  0  0
  147.4141  140.1108  155.8682 C   0  0  0  0  0  0  0  0  0  0  0  0
  150.4872  139.4956  154.2311 O   0  0  0  0  0  0  0  0  0  0  0  0
  151.4146  138.4545  154.3515 N   0  0  0  0  0  0  0  0  0  0  0  0
  149.5165  132.3416  154.3583 C   0  0  0  0  0  0  0  0  0  0  0  0
  148.5769  131.1301  154.3720 C   0  0  0  0  0  0  0  0  0  0  0  0
  147.5042  131.1662  153.2726 C   0  0  0  0  0  0  0  0  0  0  0  0
  146.9366  130.1126  152.9816 O   0  0  0  0  0  0  0  0  0  0  0  0
  145.1783  132.1468  152.0907 H   0  0  0  0  0  0  0  0  0  0  0  0
  146.3606  131.7193  150.8477 H   0  0  0  0  0  0  0  0  0  0  0  0
  146.0556  133.4072  151.2290 H   0  0  0  0  0  0  0  0  0  0  0  0
  148.5468  133.7975  152.0819 H   0  0  0  0  0  0  0  0  0  0  0  0
  147.1738  134.4398  152.9541 H   0  0  0  0  0  0  0  0  0  0  0  0
  148.0220  133.7142  155.0776 H   0  0  0  0  0  0  0  0  0  0  0  0
  149.4648  135.4683  153.4891 H   0  0  0  0  0  0  0  0  0  0  0  0
  148.5361  137.0578  155.2389 H   0  0  0  0  0  0  0  0  0  0  0  0
  146.2478  140.2747  153.3921 H   0  0  0  0  0  0  0  0  0  0  0  0
  146.6615  138.5926  153.6914 H   0  0  0  0  0  0  0  0  0  0  0  0
  147.5212  139.5052  152.4562 H   0  0  0  0  0  0  0  0  0  0  0  0
  149.1540  141.3698  153.1369 H   0  0  0  0  0  0  0  0  0  0  0  0
  149.3661  141.7801  154.8338 H   0  0  0  0  0  0  0  0  0  0  0  0
  147.8428  142.1324  154.0300 H   0  0  0  0  0  0  0  0  0  0  0  0
  146.5787  140.8112  155.8377 H   0  0  0  0  0  0  0  0  0  0  0  0
  148.0977  140.4528  156.6462 H   0  0  0  0  0  0  0  0  0  0  0  0
  147.0209  139.1425  156.1805 H   0  0  0  0  0  0  0  0  0  0  0  0
  150.2199  132.2558  153.5288 H   0  0  0  0  0  0  0  0  0  0  0  0
  150.1135  132.3469  155.2711 H   0  0  0  0  0  0  0  0  0  0  0  0
  149.1568  130.2109  154.2829 H   0  0  0  0  0  0  0  0  0  0  0  0
  148.0625  131.0819  155.3324 H   0  0  0  0  0  0  0  0  0  0  0  0
  1  2  1  0  0  0  0
  1 22  1  0  0  0  0
  1 23  1  0  0  0  0
  1 24  1  0  0  0  0
  2 20  1  0  0  0  0
  2  3  1  0  0  0  0
  3  4  1  0  0  0  0
  3 25  1  0  0  0  0
  3 26  1  0  0  0  0
  4  5  1  0  0  0  0
  4 18  1  0  0  0  0
  4 27  1  0  0  0  0
  5  6  1  0  0  0  0
  5 28  1  0  0  0  0
  6  7  2  0  0  0  0
  6  8  1  0  0  0  0
  8  9  1  0  0  0  0
  9 17  2  0  0  0  0
  9 10  1  0  0  0  0
 10 11  2  0  0  0  0
 10 29  1  0  0  0  0
 11 12  1  0  0  0  0
 11 16  1  0  0  0  0
 12 13  1  0  0  0  0
 12 14  1  0  0  0  0
 12 15  1  0  0  0  0
 13 30  1  0  0  0  0
 13 31  1  0  0  0  0
 13 32  1  0  0  0  0
 14 33  1  0  0  0  0
 14 34  1  0  0  0  0
 14 35  1  0  0  0  0
 15 36  1  0  0  0  0
 15 37  1  0  0  0  0
 15 38  1  0  0  0  0
 16 17  1  0  0  0  0
 18 19  1  0  0  0  0
 18 39  1  0  0  0  0
 18 40  1  0  0  0  0
 19 20  1  0  0  0  0
 19 41  1  0  0  0  0
 19 42  1  0  0  0  0
 20 21  2  0  0  0  0
M  CHG  1   8  -1
M  END
> <s_m_source_file>
AV-unprocessed.smi

> <i_m_source_file_index>
749

> <i_lp_mmshare_version>
43012

> <i_f3d_flags>
0

> <s_epik_input>
Tz1DMVtDSDJdW0NIMl1bQ0BASF0oW0NIMl1OMVtDSDNdKVtOSF1DKD1PKVtOSF1jMltjSF1jKG9uMilDKFtDSDNdKShbQ0gzXSlbQ0gzXQ==

> <s_epik_cmdline>
J2VwaWtfcHl0aG9uJywgJy1waCcsICc3LjAnLCAnLXRuJywgJzgnLCAnLW1hJywgJzIwMCcsICctbWV0YWxfYmluZGluZycsICctaW1hZScsICc8aW5maWxlLm1hZT4nLCAnLW9tYWUnLCAnPG91dGZpbGUubWFlPic=

> <r_lp_tautomer_probability>
1

> <r_epik_Ionization_Penalty>
6.47858

> <r_epik_Ionization_Penalty_Charging>
6.47844

> <r_epik_Ionization_Penalty_Neutral>
0.000138814

> <r_epik_State_Penalty>
6.47843

> <r_epik_Charging_Adjusted_Penalty>
12.9569

> <i_epik_Tot_Q>
-1

> <i_epik_Tot_abs_Q>
1

> <r_epik_Metal_State_Penalty>
2.40644

> <b_epik_Metal_Only>
1

> <s_lp_Force_Field>
OPLS_2005

> <r_lp_Energy>
10.0372

> <b_lp_Chiralities_Consistent>
1

> <s_lp_Variant>
AV-unprocessed.smi:749-4

> <Gold.Version>
5.8.1

> <Gold.Id.Protein>
6NUR|6NUR_protein|mol2

> <Gold.PLP.Fitness>
41.5911

> <Gold.PLP.PLP>
-30.9930

> <Gold.PLP.part.hbond>
-3.0000

> <Gold.PLP.part.metal>
0.0000

> <Gold.PLP.part.buried>
-2.8050

> <Gold.PLP.part.nonpolar>
-26.4720

> <Gold.PLP.part.repulsive>
0.6366

> <Gold.PLP.ligand.clash>
0.0000

> <Gold.PLP.ligand.torsion>
0.5643

> <Gold.PLP.Chemscore.Hbond>
3.9000

> <Gold.PLP.Chemscore.CHOScore>
0.0000

> <Gold.PLP.Chemscore.Metal>
0.0000

> <Gold.Chemscore.Hbonds>
donor molecule, donor type, donor heavy atom, donor atom, acceptor molecule, acceptor atom, score
      L1  H     5    28       P1  7948  0.85
      P1  H  7989  7998       L1    16  1.00
      P1  H 10752 10765       L1     8  2.00

> <Gold.PLP.Chemscore.Internal.Correction>
0.0268

> <Gold.Rescore>
     Score         DG    S(hbond)    S(metal)    S(lipo)     H(rot)  DE(clash)    DE(int)     intcor
     13.93     -16.11       2.30        0.00      51.99       1.22       0.37       1.81       ----

> <Gold.Chemscore.Fitness>
13.9329

> <Gold.Chemscore.DG>
-16.1079

> <Gold.Chemscore.ZeroCoef>
-5.4800

> <Gold.Chemscore.Hbond>
2.2956

> <Gold.Chemscore.Metal>
0.0000

> <Gold.Chemscore.Lipo>
51.9932

> <Gold.Chemscore.Internal_Hbond>
0.0000

> <Gold.Chemscore.DEClash>
0.3693

> <Gold.Chemscore.DEInternal>
1.8057

> <Gold.Chemscore.Rot>
1.2198

> <Gold.Chemscore.Internal.Correction>
   9.000000E+99

> <Gold.Chemscore.Hbonds>
donor molecule, donor type, donor heavy atom, donor atom, acceptor molecule, acceptor atom, score
      L1  H     5    28       P1  7948  0.15
      P1  H  7989  7998       L1    16  0.25
      P1  H 10752 10765       L1     8  0.40

> <Gold.Chemscore.Hbond.Weighted>
-7.6675

> <Gold.Chemscore.Metal.Weighted>
-0.0000

> <Gold.Chemscore.Lipo.Weighted>
-6.0832

> <Gold.Chemscore.Internal_Hbond.Weighted>
0.0000

> <Gold.Chemscore.DEClash.Weighted>
0.3693

> <Gold.Chemscore.DEInternal.Weighted>
1.8057

> <Gold.Chemscore.Rot.Weighted>
3.1228

> <Gold.Chemscore.Internal.Correction.Weighted>
   9.000000E+99

> <Gold.Protein.RotatedTorsions>
[ 6907 6896 6895 6894 ] final  154.76 input  -60.11 | X-H torsion
[ 7974 7965 7964 7962 ] final  -14.53 input  175.53 | X-H torsion
[ 8008 7997 7996 7995 ] final  151.58 input   59.86 | X-H torsion
[ 10167 10162 10161 10158 ] final  -86.68 input  -65.29 | X-H torsion
[ 10718 10713 10712 10709 ] final  -21.17 input   66.30 | X-H torsion
[ 10763 10752 10751 10750 ] final  176.25 input  -60.55 | X-H torsion
[ 11005 11000 10999 10996 ] final  -38.44 input  -57.11 | X-H torsion

> <Gold.Protein.ActiveResidues>
 VAL166  LYS551  ARG553  GLY616  TRP617  ASP618  TYR619  PRO620  LYS621  CYS622 
 ASP623  PHE694  ASN695  SER759  ASP760  ASP761  ALA762  ILE779  LEU786  VAL792 
 PHE793  MET794  SER795  GLU796  ALA797  LYS798  CYS799  TRP800  GLU811  SER814 

> <Gold.Protein.RotatedAtoms>
  152.0538  133.4031  159.4388 H   0  0  0  0  0  0  0  0  0  0  0  0  # atno 6907 bound_to 6896
  150.6869  134.3277  159.4823 H   0  0  0  0  0  0  0  0  0  0  0  0  # atno 6908 bound_to 6896
  152.1091  134.9287  160.0618 H   0  0  0  0  0  0  0  0  0  0  0  0  # atno 6909 bound_to 6896
  146.2070  140.3361  142.8403 H   0  0  0  0  0  0  0  0  0  0  0  0  # atno 7974 bound_to 7965
  156.2667  140.2044  156.6198 H   0  0  0  0  0  0  0  0  0  0  0  0  # atno 8008 bound_to 7997
  154.6766  140.0544  157.0246 H   0  0  0  0  0  0  0  0  0  0  0  0  # atno 8009 bound_to 7997
  155.1060  140.3211  155.4537 H   0  0  0  0  0  0  0  0  0  0  0  0  # atno 8010 bound_to 7997
  140.3918  143.2701  151.9255 H   0  0  0  0  0  0  0  0  0  0  0  0  # atno 10167 bound_to 10162
  156.5217  130.4634  149.6593 H   0  0  0  0  0  0  0  0  0  0  0  0  # atno 10718 bound_to 10713
  154.4786  135.2774  155.1588 H   0  0  0  0  0  0  0  0  0  0  0  0  # atno 10763 bound_to 10752
  154.3308  135.6190  153.5554 H   0  0  0  0  0  0  0  0  0  0  0  0  # atno 10764 bound_to 10752
  152.9872  135.5765  154.5182 H   0  0  0  0  0  0  0  0  0  0  0  0  # atno 10765 bound_to 10752
  141.0027  133.6947  156.2053 H   0  0  0  0  0  0  0  0  0  0  0  0  # atno 11005 bound_to 11000
  144.8818  140.7410  143.5982 LP  0  0  0  0  0  0  0  0  0  0  0  0  # atno 17320 bound_to 7965
  145.3282  139.1767  143.4551 LP  0  0  0  0  0  0  0  0  0  0  0  0  # atno 17321 bound_to 7965
  139.4788  144.5720  151.8072 LP  0  0  0  0  0  0  0  0  0  0  0  0  # atno 17342 bound_to 10162
  140.4832  144.1419  150.5936 LP  0  0  0  0  0  0  0  0  0  0  0  0  # atno 17343 bound_to 10162
  156.3143  130.7246  151.2145 LP  0  0  0  0  0  0  0  0  0  0  0  0  # atno 17370 bound_to 10713
  157.7435  131.0473  150.4936 LP  0  0  0  0  0  0  0  0  0  0  0  0  # atno 17371 bound_to 10713
  140.6862  134.4714  157.5589 LP  0  0  0  0  0  0  0  0  0  0  0  0  # atno 17394 bound_to 11000
  139.9047  134.8475  156.1753 LP  0  0  0  0  0  0  0  0  0  0  0  0  # atno 17395 bound_to 11000

$$$$
