AV-unprocessed.smi:1196|AV-procd|sdf|4996|dock3
  -GOLD-   22720 4 03D 1   1.00000     0.00000
 Structure written by MMmdl.
 37 38  0  0  0  0  0  0  0  0  1 V2000
  150.3598  141.8553  155.9943 C   0  0  0  0  0  0  0  0  0  0  0  0
  150.9520  140.9206  157.0606 C   0  0  2  0  0  0  0  0  0  0  0  0
  152.1823  141.5513  157.7417 C   0  0  0  0  0  0  0  0  0  0  0  0
  151.9060  142.8735  158.2754 N   0  0  0  0  0  0  0  0  0  0  0  0
  152.7949  143.7913  158.7947 C   0  0  0  0  0  0  0  0  0  0  0  0
  152.0730  144.8863  159.1742 C   0  0  0  0  0  0  0  0  0  0  0  0
  150.7338  144.5407  158.8393 C   0  0  0  0  0  0  0  0  0  0  0  0
  150.6374  143.3364  158.2995 N   0  0  0  0  0  0  0  0  0  0  0  0
  151.3150  139.6406  156.4541 N   0  0  0  0  0  0  0  0  0  0  0  0
  152.1070  139.4833  155.3824 C   0  0  0  0  0  0  0  0  0  0  0  0
  152.6375  140.4238  154.7908 O   0  0  0  0  0  0  0  0  0  0  0  0
  152.3230  138.0426  154.9089 C   0  0  0  0  0  0  0  0  0  0  0  0
  151.0153  137.3395  154.4948 C   0  0  0  0  0  0  0  0  0  0  0  0
  151.1618  135.8091  154.3829 C   0  0  2  0  0  0  0  0  0  0  0  0
  149.9173  135.1480  154.0285 N   0  0  0  0  0  0  0  0  0  0  0  0
  149.5262  134.2614  154.9540 C   0  0  0  0  0  0  0  0  0  0  0  0
  148.5164  133.5632  154.9029 O   0  0  0  0  0  0  0  0  0  0  0  0
  150.4272  134.2716  155.9421 N   0  0  0  0  0  0  0  0  0  0  0  0
  151.4131  135.1399  155.7227 C   0  0  0  0  0  0  0  0  0  0  0  0
  152.3686  135.3764  156.4592 O   0  0  0  0  0  0  0  0  0  0  0  0
  150.0680  142.8109  156.4308 H   0  0  0  0  0  0  0  0  0  0  0  0
  149.4708  141.4203  155.5365 H   0  0  0  0  0  0  0  0  0  0  0  0
  151.0788  142.0580  155.1998 H   0  0  0  0  0  0  0  0  0  0  0  0
  150.1898  140.7554  157.8245 H   0  0  0  0  0  0  0  0  0  0  0  0
  152.5417  140.9149  158.5516 H   0  0  0  0  0  0  0  0  0  0  0  0
  153.0034  141.6395  157.0288 H   0  0  0  0  0  0  0  0  0  0  0  0
  153.8544  143.5898  158.8530 H   0  0  0  0  0  0  0  0  0  0  0  0
  152.4446  145.7957  159.6225 H   0  0  0  0  0  0  0  0  0  0  0  0
  149.8352  145.1254  158.9710 H   0  0  0  0  0  0  0  0  0  0  0  0
  150.9227  138.8117  156.8759 H   0  0  0  0  0  0  0  0  0  0  0  0
  153.0227  138.0455  154.0719 H   0  0  0  0  0  0  0  0  0  0  0  0
  152.8025  137.4870  155.7154 H   0  0  0  0  0  0  0  0  0  0  0  0
  150.2380  137.5630  155.2275 H   0  0  0  0  0  0  0  0  0  0  0  0
  150.6652  137.7489  153.5453 H   0  0  0  0  0  0  0  0  0  0  0  0
  151.9464  135.5346  153.6767 H   0  0  0  0  0  0  0  0  0  0  0  0
  149.4162  135.3404  153.1736 H   0  0  0  0  0  0  0  0  0  0  0  0
  150.3619  133.6928  156.7667 H   0  0  0  0  0  0  0  0  0  0  0  0
  1  2  1  0  0  0  0
  1 21  1  0  0  0  0
  1 22  1  0  0  0  0
  1 23  1  0  0  0  0
  2  3  1  0  0  0  0
  2  9  1  0  0  0  0
  2 24  1  0  0  0  0
  3  4  1  0  0  0  0
  3 25  1  0  0  0  0
  3 26  1  0  0  0  0
  4  8  1  0  0  0  0
  4  5  1  0  0  0  0
  5  6  2  0  0  0  0
  5 27  1  0  0  0  0
  6  7  1  0  0  0  0
  6 28  1  0  0  0  0
  7  8  2  0  0  0  0
  7 29  1  0  0  0  0
  9 10  1  0  0  0  0
  9 30  1  0  0  0  0
 10 11  2  0  0  0  0
 10 12  1  0  0  0  0
 12 13  1  0  0  0  0
 12 31  1  0  0  0  0
 12 32  1  0  0  0  0
 13 14  1  0  0  0  0
 13 33  1  0  0  0  0
 13 34  1  0  0  0  0
 14 19  1  0  0  0  0
 14 15  1  0  0  0  0
 14 35  1  0  0  0  0
 15 16  1  0  0  0  0
 15 36  1  0  0  0  0
 16 17  2  0  0  0  0
 16 18  1  0  0  0  0
 18 19  1  0  0  0  0
 18 37  1  0  0  0  0
 19 20  2  0  0  0  0
M  END
> <s_m_source_file>
AV-unprocessed.smi

> <i_m_source_file_index>
1196

> <i_lp_mmshare_version>
43012

> <i_f3d_flags>
0

> <s_epik_input>
bjFbY0hdW2NIXVtjSF1uMVtDSDJdW0NAQEhdKFtDSDNdKVtOSF1DKD1PKVtDSDJdW0NIMl1bQ0BASF0yW05IXUMoPU8pW05IXUMyPU8=

> <s_epik_cmdline>
J2VwaWtfcHl0aG9uJywgJy1waCcsICc3LjAnLCAnLXRuJywgJzgnLCAnLW1hJywgJzIwMCcsICctbWV0YWxfYmluZGluZycsICctaW1hZScsICc8aW5maWxlLm1hZT4nLCAnLW9tYWUnLCAnPG91dGZpbGUubWFlPic=

> <r_lp_tautomer_probability>
1

> <r_epik_Ionization_Penalty>
0.00815973

> <r_epik_Ionization_Penalty_Charging>
0

> <r_epik_Ionization_Penalty_Neutral>
0.00815973

> <r_epik_State_Penalty>
0.00583796

> <r_epik_Charging_Adjusted_Penalty>
0.00583796

> <i_epik_Tot_Q>
0

> <i_epik_Tot_abs_Q>
0

> <r_epik_Metal_State_Penalty>
0.409204

> <b_epik_Metal_Only>
0

> <s_lp_Force_Field>
OPLS_2005

> <r_lp_Energy>
19.6523

> <b_lp_Chiralities_Consistent>
1

> <s_lp_Variant>
AV-unprocessed.smi:1196-1

> <Gold.Version>
5.8.1

> <Gold.Id.Protein>
6NUR|6NUR_protein|mol2

> <Gold.PLP.Fitness>
45.0419

> <Gold.PLP.PLP>
-34.7892

> <Gold.PLP.part.hbond>
-4.0000

> <Gold.PLP.part.metal>
0.0000

> <Gold.PLP.part.buried>
-4.3207

> <Gold.PLP.part.nonpolar>
-28.1350

> <Gold.PLP.part.repulsive>
0.3283

> <Gold.PLP.ligand.clash>
0.0000

> <Gold.PLP.ligand.torsion>
0.2208

> <Gold.PLP.Chemscore.Hbond>
2.5312

> <Gold.PLP.Chemscore.CHOScore>
1.0000

> <Gold.PLP.Chemscore.Metal>
0.0000

> <Gold.Chemscore.Hbonds>
donor molecule, donor type, donor heavy atom, donor atom, acceptor molecule, acceptor atom, score
      L1  H    15    36       P1  7948  0.60
      P1  H  7989  7998       L1    11  0.34
      P1  H  7997  8009       L1    11  0.40
      L1  C     7    29       P1  8029  0.59

> <Gold.PLP.Chemscore.Internal.Correction>
0.1006

> <Gold.Rescore>
     Score         DG    S(hbond)    S(metal)    S(lipo)     H(rot)  DE(clash)    DE(int)     intcor
     13.04     -15.61       2.62        0.00      76.36       2.96       0.05       2.51       ----

> <Gold.Chemscore.Fitness>
13.0441

> <Gold.Chemscore.DG>
-15.6065

> <Gold.Chemscore.ZeroCoef>
-5.4800

> <Gold.Chemscore.Hbond>
2.6239

> <Gold.Chemscore.Metal>
0.0000

> <Gold.Chemscore.Lipo>
76.3589

> <Gold.Chemscore.Internal_Hbond>
0.0000

> <Gold.Chemscore.DEClash>
0.0480

> <Gold.Chemscore.DEInternal>
2.5144

> <Gold.Chemscore.Rot>
2.9575

> <Gold.Chemscore.Internal.Correction>
   9.000000E+99

> <Gold.Chemscore.Hbonds>
donor molecule, donor type, donor heavy atom, donor atom, acceptor molecule, acceptor atom, score
      L1  H    15    36       P1  7948  0.04
      P1  H  7989  7998       L1    11  0.24
      P1  H  7997  8009       L1    11  0.02

> <Gold.Chemscore.Hbond.Weighted>
-8.7639

> <Gold.Chemscore.Metal.Weighted>
-0.0000

> <Gold.Chemscore.Lipo.Weighted>
-8.9340

> <Gold.Chemscore.Internal_Hbond.Weighted>
0.0000

> <Gold.Chemscore.DEClash.Weighted>
0.0480

> <Gold.Chemscore.DEInternal.Weighted>
2.5144

> <Gold.Chemscore.Rot.Weighted>
7.5713

> <Gold.Chemscore.Internal.Correction.Weighted>
   9.000000E+99

> <Gold.Protein.RotatedTorsions>
[ 6907 6896 6895 6894 ] final   52.56 input  -60.11 | X-H torsion
[ 7974 7965 7964 7962 ] final  154.80 input  175.53 | X-H torsion
[ 8008 7997 7996 7995 ] final -141.42 input   59.86 | X-H torsion
[ 10167 10162 10161 10158 ] final  162.43 input  -65.29 | X-H torsion
[ 10718 10713 10712 10709 ] final    0.02 input   66.30 | X-H torsion
[ 10763 10752 10751 10750 ] final  175.34 input  -60.55 | X-H torsion
[ 11005 11000 10999 10996 ] final  -51.66 input  -57.11 | X-H torsion

> <Gold.Protein.ActiveResidues>
 VAL166  LYS551  ARG553  GLY616  TRP617  ASP618  TYR619  PRO620  LYS621  CYS622 
 ASP623  PHE694  ASN695  SER759  ASP760  ASP761  ALA762  ILE779  LEU786  VAL792 
 PHE793  MET794  SER795  GLU796  ALA797  LYS798  CYS799  TRP800  GLU811  SER814 

> <Gold.Protein.RotatedAtoms>
  152.3246  134.7337  160.0304 H   0  0  0  0  0  0  0  0  0  0  0  0  # atno 6907 bound_to 6896
  151.7774  133.3341  159.3470 H   0  0  0  0  0  0  0  0  0  0  0  0  # atno 6908 bound_to 6896
  150.7388  134.5894  159.6024 H   0  0  0  0  0  0  0  0  0  0  0  0  # atno 6909 bound_to 6896
  144.8065  139.6982  143.6159 H   0  0  0  0  0  0  0  0  0  0  0  0  # atno 7974 bound_to 7965
  155.4775  140.0557  157.2971 H   0  0  0  0  0  0  0  0  0  0  0  0  # atno 8008 bound_to 7997
  154.4673  140.2024  156.0037 H   0  0  0  0  0  0  0  0  0  0  0  0  # atno 8009 bound_to 7997
  156.0997  140.3221  155.7930 H   0  0  0  0  0  0  0  0  0  0  0  0  # atno 8010 bound_to 7997
  139.4860  144.4438  151.8918 H   0  0  0  0  0  0  0  0  0  0  0  0  # atno 10167 bound_to 10162
  156.8272  130.5476  149.5690 H   0  0  0  0  0  0  0  0  0  0  0  0  # atno 10718 bound_to 10713
  154.4663  135.2769  155.1676 H   0  0  0  0  0  0  0  0  0  0  0  0  # atno 10763 bound_to 10752
  154.3443  135.6163  153.5615 H   0  0  0  0  0  0  0  0  0  0  0  0  # atno 10764 bound_to 10752
  152.9859  135.5796  154.5035 H   0  0  0  0  0  0  0  0  0  0  0  0  # atno 10765 bound_to 10752
  141.0883  133.6638  156.3910 H   0  0  0  0  0  0  0  0  0  0  0  0  # atno 11005 bound_to 11000
  146.2357  139.5901  142.9525 LP  0  0  0  0  0  0  0  0  0  0  0  0  # atno 17320 bound_to 7965
  145.5425  141.0420  143.2323 LP  0  0  0  0  0  0  0  0  0  0  0  0  # atno 17321 bound_to 7965
  140.3891  144.2638  150.5901 LP  0  0  0  0  0  0  0  0  0  0  0  0  # atno 17342 bound_to 10162
  140.5162  143.2277  151.8459 LP  0  0  0  0  0  0  0  0  0  0  0  0  # atno 17343 bound_to 10162
  156.0955  130.5929  150.9806 LP  0  0  0  0  0  0  0  0  0  0  0  0  # atno 17370 bound_to 10713
  157.6426  131.0908  150.8220 LP  0  0  0  0  0  0  0  0  0  0  0  0  # atno 17371 bound_to 10713
  140.5312  134.6211  157.5350 LP  0  0  0  0  0  0  0  0  0  0  0  0  # atno 17394 bound_to 11000
  139.9704  134.7302  156.0053 LP  0  0  0  0  0  0  0  0  0  0  0  0  # atno 17395 bound_to 11000

$$$$
