AV-unprocessed.smi:3088|AV-procd|sdf|11769|dock3
  -GOLD-   2272017153D 1   1.00000     0.00000
 Structure written by MMmdl.
 30 31  0  0  0  0  0  0  0  0  3 V2000
  146.5857  140.2508  152.7869 N   0  3  0  0  0  0  0  0  0  0  0  0
  147.3887  140.3054  154.0206 C   0  0  0  0  0  0  0  0  0  0  0  0
  148.2975  141.5430  154.0453 C   0  0  0  0  0  0  0  0  0  0  0  0
  149.4312  141.3998  155.0169 C   0  0  0  0  0  0  0  0  0  0  0  0
  150.2652  140.3090  155.0543 C   0  0  0  0  0  0  0  0  0  0  0  0
  151.4820  140.4432  156.2892 S   0  0  0  0  0  0  0  0  0  0  0  0
  150.8393  141.9888  156.7603 C   0  0  0  0  0  0  0  0  0  0  0  0
  151.3053  142.7881  157.7355 N   0  0  0  0  0  0  0  0  0  0  0  0
  151.6257  144.1763  157.4481 C   0  0  0  0  0  0  0  0  0  0  0  0
  152.3637  144.6682  158.6922 C   0  0  0  0  0  0  0  0  0  0  0  0
  153.0974  143.4169  159.1743 C   0  0  0  0  0  0  0  0  0  0  0  0
  152.1584  142.2658  158.7958 C   0  0  0  0  0  0  0  0  0  0  0  0
  149.7913  142.3268  155.9921 N   0  3  0  0  0  0  0  0  0  0  0  0
  145.6108  140.3904  153.0120 H   0  0  0  0  0  0  0  0  0  0  0  0
  146.7013  139.3496  152.3457 H   0  0  0  0  0  0  0  0  0  0  0  0
  146.7133  140.3138  154.8767 H   0  0  0  0  0  0  0  0  0  0  0  0
  147.9848  139.3946  154.0883 H   0  0  0  0  0  0  0  0  0  0  0  0
  148.6952  141.7209  153.0453 H   0  0  0  0  0  0  0  0  0  0  0  0
  147.7030  142.4246  154.2901 H   0  0  0  0  0  0  0  0  0  0  0  0
  150.2387  139.4302  154.4265 H   0  0  0  0  0  0  0  0  0  0  0  0
  152.2751  144.2307  156.5731 H   0  0  0  0  0  0  0  0  0  0  0  0
  150.7291  144.7654  157.2519 H   0  0  0  0  0  0  0  0  0  0  0  0
  153.0322  145.5045  158.4863 H   0  0  0  0  0  0  0  0  0  0  0  0
  151.6450  144.9880  159.4481 H   0  0  0  0  0  0  0  0  0  0  0  0
  154.0376  143.3154  158.6302 H   0  0  0  0  0  0  0  0  0  0  0  0
  153.3293  143.4421  160.2395 H   0  0  0  0  0  0  0  0  0  0  0  0
  151.5308  141.9871  159.6428 H   0  0  0  0  0  0  0  0  0  0  0  0
  152.7246  141.3864  158.4866 H   0  0  0  0  0  0  0  0  0  0  0  0
  146.8893  140.9761  152.1530 H   0  0  0  0  0  0  0  0  0  0  0  0
  149.2944  143.1994  156.1198 H   0  0  0  0  0  0  0  0  0  0  0  0
  1  2  1  0  0  0  0
  1 14  1  0  0  0  0
  1 15  1  0  0  0  0
  1 29  1  0  0  0  0
  2  3  1  0  0  0  0
  2 16  1  0  0  0  0
  2 17  1  0  0  0  0
  3  4  1  0  0  0  0
  3 18  1  0  0  0  0
  3 19  1  0  0  0  0
  4 13  1  0  0  0  0
  4  5  2  0  0  0  0
  5  6  1  0  0  0  0
  5 20  1  0  0  0  0
  6  7  1  0  0  0  0
  7  8  1  0  0  0  0
  7 13  2  0  0  0  0
  8 12  1  0  0  0  0
  8  9  1  0  0  0  0
  9 10  1  0  0  0  0
  9 21  1  0  0  0  0
  9 22  1  0  0  0  0
 10 11  1  0  0  0  0
 10 23  1  0  0  0  0
 10 24  1  0  0  0  0
 11 12  1  0  0  0  0
 11 25  1  0  0  0  0
 11 26  1  0  0  0  0
 12 27  1  0  0  0  0
 12 28  1  0  0  0  0
 13 30  1  0  0  0  0
M  CHG  1   1   1
M  CHG  1  13   1
M  END
> <s_m_source_file>
AV-unprocessed.smi

> <i_m_source_file_index>
3088

> <i_lp_mmshare_version>
43012

> <i_f3d_flags>
0

> <s_epik_input>
W05IMl1bQ0gyXVtDSDJdYzFbY0hdc2MobjEpTjJbQ0gyXVtDSDJdW0NIMl1bQ0gyXTI=

> <s_epik_cmdline>
J2VwaWtfcHl0aG9uJywgJy1waCcsICc3LjAnLCAnLXRuJywgJzgnLCAnLW1hJywgJzIwMCcsICctbWV0YWxfYmluZGluZycsICctaW1hZScsICc8aW5maWxlLm1hZT4nLCAnLW9tYWUnLCAnPG91dGZpbGUubWFlPic=

> <r_lp_tautomer_probability>
1

> <r_epik_Ionization_Penalty>
2.98301

> <r_epik_Ionization_Penalty_Charging>
2.98301

> <r_epik_Ionization_Penalty_Neutral>
1.48168e-07

> <r_epik_State_Penalty>
2.62742

> <r_epik_Charging_Adjusted_Penalty>
5.61042

> <i_epik_Tot_Q>
2

> <i_epik_Tot_abs_Q>
2

> <r_epik_Metal_State_Penalty>
6.71243

> <b_epik_Metal_Only>
0

> <s_lp_Force_Field>
OPLS_2005

> <r_lp_Energy>
37.3398

> <b_lp_Chiralities_Consistent>
1

> <s_lp_Variant>
AV-unprocessed.smi:3088-2

> <Gold.Version>
5.8.1

> <Gold.Id.Protein>
6NUR|6NUR_protein|mol2

> <Gold.PLP.Fitness>
46.7180

> <Gold.PLP.PLP>
-35.9233

> <Gold.PLP.part.hbond>
-2.0000

> <Gold.PLP.part.metal>
0.0000

> <Gold.PLP.part.buried>
-2.0310

> <Gold.PLP.part.nonpolar>
-32.6839

> <Gold.PLP.part.repulsive>
0.1473

> <Gold.PLP.ligand.clash>
0.0000

> <Gold.PLP.ligand.torsion>
0.7295

> <Gold.PLP.Chemscore.Hbond>
4.0000

> <Gold.PLP.Chemscore.CHOScore>
0.0000

> <Gold.PLP.Chemscore.Metal>
0.0000

> <Gold.Chemscore.Hbonds>
donor molecule, donor type, donor heavy atom, donor atom, acceptor molecule, acceptor atom, score
      L1  H     1    14       P1 10175  2.00
      L1  H    13    30       P1  8028  2.00

> <Gold.PLP.Chemscore.Internal.Correction>
0.2537

> <Gold.Rescore>
     Score         DG    S(hbond)    S(metal)    S(lipo)     H(rot)  DE(clash)    DE(int)     intcor
     17.96     -18.56       1.96        0.00      85.22       1.34       0.00       0.60       ----

> <Gold.Chemscore.Fitness>
17.9601

> <Gold.Chemscore.DG>
-18.5622

> <Gold.Chemscore.ZeroCoef>
-5.4800

> <Gold.Chemscore.Hbond>
1.9558

> <Gold.Chemscore.Metal>
0.0000

> <Gold.Chemscore.Lipo>
85.2202

> <Gold.Chemscore.Internal_Hbond>
0.0000

> <Gold.Chemscore.DEClash>
0.0000

> <Gold.Chemscore.DEInternal>
0.6021

> <Gold.Chemscore.Rot>
1.3363

> <Gold.Chemscore.Internal.Correction>
   9.000000E+99

> <Gold.Chemscore.Hbonds>
donor molecule, donor type, donor heavy atom, donor atom, acceptor molecule, acceptor atom, score
      L1  H     1    14       P1 10175  0.85
      L1  H    13    30       P1  8028  0.97

> <Gold.Chemscore.Hbond.Weighted>
-6.5324

> <Gold.Chemscore.Metal.Weighted>
-0.0000

> <Gold.Chemscore.Lipo.Weighted>
-9.9708

> <Gold.Chemscore.Internal_Hbond.Weighted>
0.0000

> <Gold.Chemscore.DEClash.Weighted>
0.0000

> <Gold.Chemscore.DEInternal.Weighted>
0.6021

> <Gold.Chemscore.Rot.Weighted>
3.4210

> <Gold.Chemscore.Internal.Correction.Weighted>
   9.000000E+99

> <Gold.Protein.RotatedTorsions>
[ 6907 6896 6895 6894 ] final -159.19 input  -60.11 | X-H torsion
[ 7974 7965 7964 7962 ] final   38.32 input  175.53 | X-H torsion
[ 8008 7997 7996 7995 ] final  151.72 input   59.86 | X-H torsion
[ 10167 10162 10161 10158 ] final -114.07 input  -65.29 | X-H torsion
[ 10718 10713 10712 10709 ] final   74.40 input   66.30 | X-H torsion
[ 10763 10752 10751 10750 ] final  -23.24 input  -60.55 | X-H torsion
[ 11005 11000 10999 10996 ] final    6.59 input  -57.11 | X-H torsion

> <Gold.Protein.ActiveResidues>
 VAL166  LYS551  ARG553  GLY616  TRP617  ASP618  TYR619  PRO620  LYS621  CYS622 
 ASP623  PHE694  ASN695  SER759  ASP760  ASP761  ALA762  ILE779  LEU786  VAL792 
 PHE793  MET794  SER795  GLU796  ALA797  LYS798  CYS799  TRP800  GLU811  SER814 

> <Gold.Protein.RotatedAtoms>
  151.3298  133.4005  159.2661 H   0  0  0  0  0  0  0  0  0  0  0  0  # atno 6907 bound_to 6896
  150.9965  134.9288  159.7940 H   0  0  0  0  0  0  0  0  0  0  0  0  # atno 6908 bound_to 6896
  152.5263  134.3263  159.9219 H   0  0  0  0  0  0  0  0  0  0  0  0  # atno 6909 bound_to 6896
  146.1071  139.5786  142.9376 H   0  0  0  0  0  0  0  0  0  0  0  0  # atno 7974 bound_to 7965
  156.2661  140.2040  156.6220 H   0  0  0  0  0  0  0  0  0  0  0  0  # atno 8008 bound_to 7997
  154.6749  140.0546  157.0229 H   0  0  0  0  0  0  0  0  0  0  0  0  # atno 8009 bound_to 7997
  155.1083  140.3213  155.4531 H   0  0  0  0  0  0  0  0  0  0  0  0  # atno 8010 bound_to 7997
  140.1050  143.4579  152.1788 H   0  0  0  0  0  0  0  0  0  0  0  0  # atno 10167 bound_to 10162
  157.6590  130.9676  150.1205 H   0  0  0  0  0  0  0  0  0  0  0  0  # atno 10718 bound_to 10713
  153.6647  135.6974  153.5166 H   0  0  0  0  0  0  0  0  0  0  0  0  # atno 10763 bound_to 10752
  153.2604  135.4246  155.0888 H   0  0  0  0  0  0  0  0  0  0  0  0  # atno 10764 bound_to 10752
  154.8443  135.3553  154.6191 H   0  0  0  0  0  0  0  0  0  0  0  0  # atno 10765 bound_to 10752
  140.5578  134.0222  155.7960 H   0  0  0  0  0  0  0  0  0  0  0  0  # atno 11005 bound_to 11000
  145.5739  141.0391  143.2159 LP  0  0  0  0  0  0  0  0  0  0  0  0  # atno 17320 bound_to 7965
  144.7480  139.7269  143.7284 LP  0  0  0  0  0  0  0  0  0  0  0  0  # atno 17321 bound_to 7965
  139.5650  144.7430  151.4047 LP  0  0  0  0  0  0  0  0  0  0  0  0  # atno 17342 bound_to 10162
  140.6957  143.7754  150.7323 LP  0  0  0  0  0  0  0  0  0  0  0  0  # atno 17343 bound_to 10162
  156.2078  130.3664  149.8708 LP  0  0  0  0  0  0  0  0  0  0  0  0  # atno 17370 bound_to 10713
  156.6594  130.8776  151.3545 LP  0  0  0  0  0  0  0  0  0  0  0  0  # atno 17371 bound_to 10713
  141.1133  133.9581  157.2870 LP  0  0  0  0  0  0  0  0  0  0  0  0  # atno 17394 bound_to 11000
  139.9423  135.0189  156.8746 LP  0  0  0  0  0  0  0  0  0  0  0  0  # atno 17395 bound_to 11000

$$$$
