AV-unprocessed.smi:1872|AV-procd|sdf|7604|dock4
  -GOLD-   22720 9323D 1   1.00000     0.00000
 Structure written by MMmdl.
 39 41  0  0  0  0  0  0  0  0  1 V2000
  152.0993  139.0397  155.7310 C   0  0  0  0  0  0  0  0  0  0  0  0
  152.1106  140.0465  156.8377 C   0  0  0  0  0  0  0  0  0  0  0  0
  152.9118  139.9302  157.8967 N   0  0  0  0  0  0  0  0  0  0  0  0
  152.5995  141.0541  158.6374 C   0  0  0  0  0  0  0  0  0  0  0  0
  153.1096  141.5099  159.8743 C   0  0  0  0  0  0  0  0  0  0  0  0
  152.6307  142.7065  160.4467 C   0  0  0  0  0  0  0  0  0  0  0  0
  151.6367  143.4629  159.7927 C   0  0  0  0  0  0  0  0  0  0  0  0
  151.1151  143.0271  158.5595 C   0  0  0  0  0  0  0  0  0  0  0  0
  151.5971  141.8324  157.9917 C   0  0  0  0  0  0  0  0  0  0  0  0
  151.3057  141.1373  156.8215 N   0  0  0  0  0  0  0  0  0  0  0  0
  150.3372  141.5216  155.8037 C   0  0  0  0  0  0  0  0  0  0  0  0
  149.0990  140.6032  155.7738 C   0  0  1  0  0  0  0  0  0  0  0  0
  148.9887  139.8944  156.9935 O   0  0  0  0  0  0  0  0  0  0  0  0
  147.8414  141.3935  155.4460 C   0  0  0  0  0  0  0  0  0  0  0  0
  147.7089  142.0092  154.1842 C   0  0  0  0  0  0  0  0  0  0  0  0
  146.5551  142.7548  153.8752 C   0  0  0  0  0  0  0  0  0  0  0  0
  145.5225  142.9062  154.8224 C   0  0  0  0  0  0  0  0  0  0  0  0
  144.4159  143.6381  154.4554 O   0  0  0  0  0  0  0  0  0  0  0  0
  144.5670  144.9408  154.0960 C   0  0  0  0  0  0  0  0  0  0  0  0
  144.8727  145.0203  152.7784 F   0  0  0  0  0  0  0  0  0  0  0  0
  143.4111  145.6226  154.2897 F   0  0  0  0  0  0  0  0  0  0  0  0
  145.6529  142.2810  156.0857 C   0  0  0  0  0  0  0  0  0  0  0  0
  146.8068  141.5360  156.3960 C   0  0  0  0  0  0  0  0  0  0  0  0
  152.8015  138.2324  155.9418 H   0  0  0  0  0  0  0  0  0  0  0  0
  152.3894  139.5075  154.7900 H   0  0  0  0  0  0  0  0  0  0  0  0
  151.1057  138.6064  155.6206 H   0  0  0  0  0  0  0  0  0  0  0  0
  153.8709  140.9375  160.3834 H   0  0  0  0  0  0  0  0  0  0  0  0
  153.0277  143.0453  161.3925 H   0  0  0  0  0  0  0  0  0  0  0  0
  151.2742  144.3775  160.2386 H   0  0  0  0  0  0  0  0  0  0  0  0
  150.3513  143.6021  158.0574 H   0  0  0  0  0  0  0  0  0  0  0  0
  150.0358  142.5542  155.9845 H   0  0  0  0  0  0  0  0  0  0  0  0
  150.8322  141.5198  154.8322 H   0  0  0  0  0  0  0  0  0  0  0  0
  149.2341  139.8509  154.9964 H   0  0  0  0  0  0  0  0  0  0  0  0
  149.5878  139.1639  156.9705 H   0  0  0  0  0  0  0  0  0  0  0  0
  148.4936  141.9136  153.4480 H   0  0  0  0  0  0  0  0  0  0  0  0
  146.4640  143.2195  152.9044 H   0  0  0  0  0  0  0  0  0  0  0  0
  145.3709  145.4226  154.6532 H   0  0  0  0  0  0  0  0  0  0  0  0
  144.8722  142.3619  156.8273 H   0  0  0  0  0  0  0  0  0  0  0  0
  146.8929  141.0743  157.3688 H   0  0  0  0  0  0  0  0  0  0  0  0
  1  2  1  0  0  0  0
  1 24  1  0  0  0  0
  1 25  1  0  0  0  0
  1 26  1  0  0  0  0
  2 10  1  0  0  0  0
  2  3  2  0  0  0  0
  3  4  1  0  0  0  0
  4  9  2  0  0  0  0
  4  5  1  0  0  0  0
  5  6  2  0  0  0  0
  5 27  1  0  0  0  0
  6  7  1  0  0  0  0
  6 28  1  0  0  0  0
  7  8  2  0  0  0  0
  7 29  1  0  0  0  0
  8  9  1  0  0  0  0
  8 30  1  0  0  0  0
  9 10  1  0  0  0  0
 10 11  1  0  0  0  0
 11 12  1  0  0  0  0
 11 31  1  0  0  0  0
 11 32  1  0  0  0  0
 12 13  1  0  0  0  0
 12 14  1  0  0  0  0
 12 33  1  0  0  0  0
 13 34  1  0  0  0  0
 14 23  1  0  0  0  0
 14 15  2  0  0  0  0
 15 16  1  0  0  0  0
 15 35  1  0  0  0  0
 16 17  2  0  0  0  0
 16 36  1  0  0  0  0
 17 18  1  0  0  0  0
 17 22  1  0  0  0  0
 18 19  1  0  0  0  0
 19 20  1  0  0  0  0
 19 21  1  0  0  0  0
 19 37  1  0  0  0  0
 22 23  2  0  0  0  0
 22 38  1  0  0  0  0
 23 39  1  0  0  0  0
M  END
> <s_m_source_file>
AV-unprocessed.smi

> <i_m_source_file_index>
1872

> <i_lp_mmshare_version>
43012

> <i_f3d_flags>
0

> <s_epik_input>
W2NIXTFbY0hdW2NIXVtjSF1jKGMxMiluKGMobjIpW0NIM10pW0NIMl1bQ0BIXShbT0hdKWMzW2NIXVtjSF1jKE9bQ0hdKEYpRilbY0hdW2NIXTM=

> <s_epik_cmdline>
J2VwaWtfcHl0aG9uJywgJy1waCcsICc3LjAnLCAnLXRuJywgJzgnLCAnLW1hJywgJzIwMCcsICctbWV0YWxfYmluZGluZycsICctaW1hZScsICc8aW5maWxlLm1hZT4nLCAnLW9tYWUnLCAnPG91dGZpbGUubWFlPic=

> <r_lp_tautomer_probability>
1

> <r_epik_Ionization_Penalty>
0.129663

> <r_epik_Ionization_Penalty_Charging>
0

> <r_epik_Ionization_Penalty_Neutral>
0.129663

> <r_epik_State_Penalty>
0.119073

> <r_epik_Charging_Adjusted_Penalty>
0.119073

> <i_epik_Tot_Q>
0

> <i_epik_Tot_abs_Q>
0

> <r_epik_Metal_State_Penalty>
0.000131867

> <b_epik_Metal_Only>
0

> <s_lp_Force_Field>
OPLS_2005

> <r_lp_Energy>
11.3105

> <b_lp_Chiralities_Consistent>
1

> <s_lp_Variant>
AV-unprocessed.smi:1872-2

> <Gold.Version>
5.8.1

> <Gold.Id.Protein>
6NUR|6NUR_protein|mol2

> <Gold.PLP.Fitness>
50.5775

> <Gold.PLP.PLP>
-49.7347

> <Gold.PLP.part.hbond>
-1.0000

> <Gold.PLP.part.metal>
0.0000

> <Gold.PLP.part.buried>
-7.3348

> <Gold.PLP.part.nonpolar>
-42.6095

> <Gold.PLP.part.repulsive>
0.1814

> <Gold.PLP.ligand.clash>
0.0000

> <Gold.PLP.ligand.torsion>
1.0187

> <Gold.PLP.Chemscore.Hbond>
0.9440

> <Gold.PLP.Chemscore.CHOScore>
0.0000

> <Gold.PLP.Chemscore.Metal>
0.0000

> <Gold.Chemscore.Hbonds>
donor molecule, donor type, donor heavy atom, donor atom, acceptor molecule, acceptor atom, score
      P1  H  7997  8009       L1     3  0.93

> <Gold.PLP.Chemscore.Internal.Correction>
0.0481

> <Gold.Rescore>
     Score         DG    S(hbond)    S(metal)    S(lipo)     H(rot)  DE(clash)    DE(int)     intcor
     12.52     -14.44       0.31        0.00     117.16       2.25       0.73       1.20       ----

> <Gold.Chemscore.Fitness>
12.5163

> <Gold.Chemscore.DG>
-14.4445

> <Gold.Chemscore.ZeroCoef>
-5.4800

> <Gold.Chemscore.Hbond>
0.3072

> <Gold.Chemscore.Metal>
0.0000

> <Gold.Chemscore.Lipo>
117.1630

> <Gold.Chemscore.Internal_Hbond>
0.0000

> <Gold.Chemscore.DEClash>
0.7305

> <Gold.Chemscore.DEInternal>
1.1978

> <Gold.Chemscore.Rot>
2.2538

> <Gold.Chemscore.Internal.Correction>
   9.000000E+99

> <Gold.Chemscore.Hbonds>
donor molecule, donor type, donor heavy atom, donor atom, acceptor molecule, acceptor atom, score
      P1  H  7997  8009       L1     3  0.29

> <Gold.Chemscore.Hbond.Weighted>
-1.0261

> <Gold.Chemscore.Metal.Weighted>
-0.0000

> <Gold.Chemscore.Lipo.Weighted>
-13.7081

> <Gold.Chemscore.Internal_Hbond.Weighted>
0.0000

> <Gold.Chemscore.DEClash.Weighted>
0.7305

> <Gold.Chemscore.DEInternal.Weighted>
1.1978

> <Gold.Chemscore.Rot.Weighted>
5.7697

> <Gold.Chemscore.Internal.Correction.Weighted>
   9.000000E+99

> <Gold.Protein.RotatedTorsions>
[ 6907 6896 6895 6894 ] final  -86.98 input  -60.11 | X-H torsion
[ 7974 7965 7964 7962 ] final   88.84 input  175.53 | X-H torsion
[ 8008 7997 7996 7995 ] final  146.44 input   59.86 | X-H torsion
[ 10167 10162 10161 10158 ] final  -83.77 input  -65.29 | X-H torsion
[ 10718 10713 10712 10709 ] final -108.68 input   66.30 | X-H torsion
[ 10763 10752 10751 10750 ] final  -29.97 input  -60.55 | X-H torsion
[ 11005 11000 10999 10996 ] final -123.22 input  -57.11 | X-H torsion

> <Gold.Protein.ActiveResidues>
 VAL166  LYS551  ARG553  GLY616  TRP617  ASP618  TYR619  PRO620  LYS621  CYS622 
 ASP623  PHE694  ASN695  SER759  ASP760  ASP761  ALA762  ILE779  LEU786  VAL792 
 PHE793  MET794  SER795  GLU796  ALA797  LYS798  CYS799  TRP800  GLU811  SER814 

> <Gold.Protein.RotatedAtoms>
  150.6866  134.2967  159.4689 H   0  0  0  0  0  0  0  0  0  0  0  0  # atno 6907 bound_to 6896
  152.0867  134.9432  160.0582 H   0  0  0  0  0  0  0  0  0  0  0  0  # atno 6908 bound_to 6896
  152.0764  133.4096  159.4518 H   0  0  0  0  0  0  0  0  0  0  0  0  # atno 6909 bound_to 6896
  145.5403  139.2288  143.2570 H   0  0  0  0  0  0  0  0  0  0  0  0  # atno 7974 bound_to 7965
  156.2855  140.2182  156.5377 H   0  0  0  0  0  0  0  0  0  0  0  0  # atno 8008 bound_to 7997
  154.7395  140.0489  157.0821 H   0  0  0  0  0  0  0  0  0  0  0  0  # atno 8009 bound_to 7997
  155.0248  140.3128  155.4783 H   0  0  0  0  0  0  0  0  0  0  0  0  # atno 8010 bound_to 7997
  140.4195  143.2590  151.8909 H   0  0  0  0  0  0  0  0  0  0  0  0  # atno 10167 bound_to 10162
  156.0498  130.5725  150.7995 H   0  0  0  0  0  0  0  0  0  0  0  0  # atno 10718 bound_to 10713
  153.7734  135.6910  153.4902 H   0  0  0  0  0  0  0  0  0  0  0  0  # atno 10763 bound_to 10752
  153.1859  135.4489  155.0087 H   0  0  0  0  0  0  0  0  0  0  0  0  # atno 10764 bound_to 10752
  154.8109  135.3377  154.7241 H   0  0  0  0  0  0  0  0  0  0  0  0  # atno 10765 bound_to 10752
  140.9936  134.0504  157.3625 H   0  0  0  0  0  0  0  0  0  0  0  0  # atno 11005 bound_to 11000
  146.1986  140.6222  142.9113 LP  0  0  0  0  0  0  0  0  0  0  0  0  # atno 17320 bound_to 7965
  144.7580  140.5355  143.6755 LP  0  0  0  0  0  0  0  0  0  0  0  0  # atno 17321 bound_to 7965
  139.4782  144.5452  151.8468 LP  0  0  0  0  0  0  0  0  0  0  0  0  # atno 17342 bound_to 10162
  140.4549  144.1803  150.5900 LP  0  0  0  0  0  0  0  0  0  0  0  0  # atno 17343 bound_to 10162
  157.5412  131.0941  150.9824 LP  0  0  0  0  0  0  0  0  0  0  0  0  # atno 17370 bound_to 10713
  157.0107  130.5635  149.5320 LP  0  0  0  0  0  0  0  0  0  0  0  0  # atno 17371 bound_to 10713
  139.9004  135.0162  156.7239 LP  0  0  0  0  0  0  0  0  0  0  0  0  # atno 17394 bound_to 11000
  140.7001  133.9313  155.8019 LP  0  0  0  0  0  0  0  0  0  0  0  0  # atno 17395 bound_to 11000

$$$$
