AV-unprocessed.smi:3068|AV-procd|sdf|11709|dock4
  -GOLD-   2272017113D 1   1.00000     0.00000
 Structure written by MMmdl.
 39 41  0  0  0  0  0  0  0  0  1 V2000
  154.5337  134.6878  159.8876 N   0  0  0  0  0  0  0  0  0  0  0  0
  154.5946  135.3164  160.8574 C   0  0  0  0  0  0  0  0  0  0  0  0
  154.6719  136.1082  162.0784 C   0  0  0  0  0  0  0  0  0  0  0  0
  154.6648  135.4253  163.2468 N   0  0  0  0  0  0  0  0  0  0  0  0
  154.7356  136.1471  164.3854 C   0  0  0  0  0  0  0  0  0  0  0  0
  154.8154  137.5529  164.3637 C   0  0  0  0  0  0  0  0  0  0  0  0
  154.8245  138.2419  163.2031 N   0  0  0  0  0  0  0  0  0  0  0  0
  154.7502  137.5295  162.0508 C   0  0  0  0  0  0  0  0  0  0  0  0
  154.7603  138.2333  160.8321 N   0  0  0  0  0  0  0  0  0  0  0  0
  154.9203  139.6821  160.7845 C   0  0  0  0  0  0  0  0  0  0  0  0
  153.6570  140.3966  160.2772 C   0  0  1  0  0  0  0  0  0  0  0  0
  153.6557  141.8880  160.6594 C   0  0  0  0  0  0  0  0  0  0  0  0
  152.4969  142.5864  160.1178 N   0  0  0  0  0  0  0  0  0  0  0  0
  152.5111  144.0021  160.4818 C   0  0  0  0  0  0  0  0  0  0  0  0
  151.2802  144.7550  159.9524 C   0  0  0  0  0  0  0  0  0  0  0  0
  151.1746  144.5987  158.4287 C   0  0  0  0  0  0  0  0  0  0  0  0
  151.2157  143.1109  158.0471 C   0  0  0  0  0  0  0  0  0  0  0  0
  152.4485  142.4169  158.6625 C   0  0  2  0  0  0  0  0  0  0  0  0
  152.4800  140.9231  158.2802 C   0  0  0  0  0  0  0  0  0  0  0  0
  153.6237  140.2994  158.8554 O   0  0  0  0  0  0  0  0  0  0  0  0
  154.7296  135.6009  165.3171 H   0  0  0  0  0  0  0  0  0  0  0  0
  154.8724  138.1253  165.2776 H   0  0  0  0  0  0  0  0  0  0  0  0
  154.4387  137.7664  159.9960 H   0  0  0  0  0  0  0  0  0  0  0  0
  155.1939  140.0506  161.7738 H   0  0  0  0  0  0  0  0  0  0  0  0
  155.7625  139.9146  160.1322 H   0  0  0  0  0  0  0  0  0  0  0  0
  152.7676  139.9212  160.6943 H   0  0  0  0  0  0  0  0  0  0  0  0
  153.6658  141.9835  161.7459 H   0  0  0  0  0  0  0  0  0  0  0  0
  154.5724  142.3562  160.2970 H   0  0  0  0  0  0  0  0  0  0  0  0
  152.5485  144.1006  161.5674 H   0  0  0  0  0  0  0  0  0  0  0  0
  153.4168  144.4741  160.0980 H   0  0  0  0  0  0  0  0  0  0  0  0
  150.3795  144.3629  160.4265 H   0  0  0  0  0  0  0  0  0  0  0  0
  151.3400  145.8101  160.2196 H   0  0  0  0  0  0  0  0  0  0  0  0
  150.2571  145.0595  158.0622 H   0  0  0  0  0  0  0  0  0  0  0  0
  152.0024  145.1224  157.9490 H   0  0  0  0  0  0  0  0  0  0  0  0
  150.3053  142.6215  158.3959 H   0  0  0  0  0  0  0  0  0  0  0  0
  151.2270  143.0089  156.9614 H   0  0  0  0  0  0  0  0  0  0  0  0
  153.3380  142.8808  158.2323 H   0  0  0  0  0  0  0  0  0  0  0  0
  151.5757  140.4136  158.6173 H   0  0  0  0  0  0  0  0  0  0  0  0
  152.5269  140.8077  157.1972 H   0  0  0  0  0  0  0  0  0  0  0  0
  1  2  3  0  0  0  0
  2  3  1  0  0  0  0
  3  8  1  0  0  0  0
  3  4  2  0  0  0  0
  4  5  1  0  0  0  0
  5  6  2  0  0  0  0
  5 21  1  0  0  0  0
  6  7  1  0  0  0  0
  6 22  1  0  0  0  0
  7  8  2  0  0  0  0
  8  9  1  0  0  0  0
  9 10  1  0  0  0  0
  9 23  1  0  0  0  0
 10 11  1  0  0  0  0
 10 24  1  0  0  0  0
 10 25  1  0  0  0  0
 11 20  1  0  0  0  0
 11 12  1  0  0  0  0
 11 26  1  0  0  0  0
 12 13  1  0  0  0  0
 12 27  1  0  0  0  0
 12 28  1  0  0  0  0
 13 18  1  0  0  0  0
 13 14  1  0  0  0  0
 14 15  1  0  0  0  0
 14 29  1  0  0  0  0
 14 30  1  0  0  0  0
 15 16  1  0  0  0  0
 15 31  1  0  0  0  0
 15 32  1  0  0  0  0
 16 17  1  0  0  0  0
 16 33  1  0  0  0  0
 16 34  1  0  0  0  0
 17 18  1  0  0  0  0
 17 35  1  0  0  0  0
 17 36  1  0  0  0  0
 18 19  1  0  0  0  0
 18 37  1  0  0  0  0
 19 20  1  0  0  0  0
 19 38  1  0  0  0  0
 19 39  1  0  0  0  0
M  END
> <s_m_source_file>
AV-unprocessed.smi

> <i_m_source_file_index>
3068

> <i_lp_mmshare_version>
43012

> <i_f3d_flags>
0

> <s_epik_input>
TiNDYzFuW2NIXVtjSF1uYzFbTkhdW0NIMl1bQ0BIXShbQ0gyXTIpT1tDSDJdW0NAQEhdKE4yMylbQ0gyXVtDSDJdW0NIMl1bQ0gyXTM=

> <s_epik_cmdline>
J2VwaWtfcHl0aG9uJywgJy1waCcsICc3LjAnLCAnLXRuJywgJzgnLCAnLW1hJywgJzIwMCcsICctbWV0YWxfYmluZGluZycsICctaW1hZScsICc8aW5maWxlLm1hZT4nLCAnLW9tYWUnLCAnPG91dGZpbGUubWFlPic=

> <r_epik_Ionization_Penalty>
1.22359

> <r_epik_Ionization_Penalty_Charging>
0

> <r_epik_Ionization_Penalty_Neutral>
1.22359

> <r_epik_State_Penalty>
1.29103

> <r_epik_Charging_Adjusted_Penalty>
1.29103

> <i_epik_Tot_Q>
0

> <i_epik_Tot_abs_Q>
0

> <r_epik_Metal_State_Penalty>
1.29103

> <b_epik_Metal_Only>
0

> <s_lp_Force_Field>
OPLS_2005

> <r_lp_Energy>
45.8407

> <b_lp_Chiralities_Consistent>
1

> <s_lp_Variant>
AV-unprocessed.smi:3068-12

> <Gold.Version>
5.8.1

> <Gold.Id.Protein>
6NUR|6NUR_protein|mol2

> <Gold.PLP.Fitness>
43.7975

> <Gold.PLP.PLP>
-38.5046

> <Gold.PLP.part.hbond>
-2.0000

> <Gold.PLP.part.metal>
0.0000

> <Gold.PLP.part.buried>
-5.1953

> <Gold.PLP.part.nonpolar>
-30.5766

> <Gold.PLP.part.repulsive>
0.0247

> <Gold.PLP.ligand.clash>
0.0000

> <Gold.PLP.ligand.torsion>
0.1981

> <Gold.PLP.Chemscore.Hbond>
1.8960

> <Gold.PLP.Chemscore.CHOScore>
0.0000

> <Gold.PLP.Chemscore.Metal>
0.0000

> <Gold.Chemscore.Hbonds>
donor molecule, donor type, donor heavy atom, donor atom, acceptor molecule, acceptor atom, score
      P1  H  6896  6909       L1     1  1.00
      P1  H  7997  8009       L1    20  0.89

> <Gold.PLP.Chemscore.Internal.Correction>
0.0011

> <Gold.Rescore>
     Score         DG    S(hbond)    S(metal)    S(lipo)     H(rot)  DE(clash)    DE(int)     intcor
     20.03     -20.31       1.73        0.00     105.87       1.30       0.03       0.24       ----

> <Gold.Chemscore.Fitness>
20.0327

> <Gold.Chemscore.DG>
-20.3071

> <Gold.Chemscore.ZeroCoef>
-5.4800

> <Gold.Chemscore.Hbond>
1.7286

> <Gold.Chemscore.Metal>
0.0000

> <Gold.Chemscore.Lipo>
105.8656

> <Gold.Chemscore.Internal_Hbond>
0.0000

> <Gold.Chemscore.DEClash>
0.0310

> <Gold.Chemscore.DEInternal>
0.2434

> <Gold.Chemscore.Rot>
1.3019

> <Gold.Chemscore.Internal.Correction>
   9.000000E+99

> <Gold.Chemscore.Hbonds>
donor molecule, donor type, donor heavy atom, donor atom, acceptor molecule, acceptor atom, score
      P1  H  6896  6909       L1     1  0.25
      P1  H  7997  8009       L1    20  0.21

> <Gold.Chemscore.Hbond.Weighted>
-5.7736

> <Gold.Chemscore.Metal.Weighted>
-0.0000

> <Gold.Chemscore.Lipo.Weighted>
-12.3863

> <Gold.Chemscore.Internal_Hbond.Weighted>
0.0000

> <Gold.Chemscore.DEClash.Weighted>
0.0310

> <Gold.Chemscore.DEInternal.Weighted>
0.2434

> <Gold.Chemscore.Rot.Weighted>
3.3327

> <Gold.Chemscore.Internal.Correction.Weighted>
   9.000000E+99

> <Gold.Protein.RotatedTorsions>
[ 6907 6896 6895 6894 ] final -152.17 input  -60.11 | X-H torsion
[ 7974 7965 7964 7962 ] final -177.84 input  175.53 | X-H torsion
[ 8008 7997 7996 7995 ] final  142.13 input   59.86 | X-H torsion
[ 10167 10162 10161 10158 ] final  -49.54 input  -65.29 | X-H torsion
[ 10718 10713 10712 10709 ] final  -89.85 input   66.30 | X-H torsion
[ 10763 10752 10751 10750 ] final  174.91 input  -60.55 | X-H torsion
[ 11005 11000 10999 10996 ] final    2.75 input  -57.11 | X-H torsion

> <Gold.Protein.ActiveResidues>
 VAL166  LYS551  ARG553  GLY616  TRP617  ASP618  TYR619  PRO620  LYS621  CYS622 
 ASP623  PHE694  ASN695  SER759  ASP760  ASP761  ALA762  ILE779  LEU786  VAL792 
 PHE793  MET794  SER795  GLU796  ALA797  LYS798  CYS799  TRP800  GLU811  SER814 

> <Gold.Protein.RotatedAtoms>
  151.2239  133.4487  159.2601 H   0  0  0  0  0  0  0  0  0  0  0  0  # atno 6907 bound_to 6896
  151.0858  134.9886  159.8389 H   0  0  0  0  0  0  0  0  0  0  0  0  # atno 6908 bound_to 6896
  152.5429  134.2176  159.8827 H   0  0  0  0  0  0  0  0  0  0  0  0  # atno 6909 bound_to 6896
  144.7129  140.0958  143.6419 H   0  0  0  0  0  0  0  0  0  0  0  0  # atno 7974 bound_to 7965
  156.2954  140.2297  156.4678 H   0  0  0  0  0  0  0  0  0  0  0  0  # atno 8008 bound_to 7997
  154.7962  140.0451  157.1259 H   0  0  0  0  0  0  0  0  0  0  0  0  # atno 8009 bound_to 7997
  154.9587  140.3051  155.5044 H   0  0  0  0  0  0  0  0  0  0  0  0  # atno 8010 bound_to 7997
  140.6680  143.2693  151.4230 H   0  0  0  0  0  0  0  0  0  0  0  0  # atno 10167 bound_to 10162
  155.9985  130.4887  150.5233 H   0  0  0  0  0  0  0  0  0  0  0  0  # atno 10718 bound_to 10713
  154.4603  135.2767  155.1717 H   0  0  0  0  0  0  0  0  0  0  0  0  # atno 10763 bound_to 10752
  154.3508  135.6150  153.5645 H   0  0  0  0  0  0  0  0  0  0  0  0  # atno 10764 bound_to 10752
  152.9854  135.5811  154.4965 H   0  0  0  0  0  0  0  0  0  0  0  0  # atno 10765 bound_to 10752
  140.6008  133.9838  155.8131 H   0  0  0  0  0  0  0  0  0  0  0  0  # atno 11005 bound_to 11000
  145.9580  139.2780  143.1172 LP  0  0  0  0  0  0  0  0  0  0  0  0  # atno 17320 bound_to 7965
  145.9251  140.9088  143.0385 LP  0  0  0  0  0  0  0  0  0  0  0  0  # atno 17321 bound_to 7965
  139.5936  144.1445  152.2118 LP  0  0  0  0  0  0  0  0  0  0  0  0  # atno 17342 bound_to 10162
  140.0807  144.5703  150.7124 LP  0  0  0  0  0  0  0  0  0  0  0  0  # atno 17343 bound_to 10162
  157.3192  131.0678  151.1944 LP  0  0  0  0  0  0  0  0  0  0  0  0  # atno 17370 bound_to 10713
  157.2864  130.6775  149.6091 LP  0  0  0  0  0  0  0  0  0  0  0  0  # atno 17371 bound_to 10713
  141.0874  133.9970  157.3292 LP  0  0  0  0  0  0  0  0  0  0  0  0  # atno 17394 bound_to 11000
  139.9233  135.0201  156.8145 LP  0  0  0  0  0  0  0  0  0  0  0  0  # atno 17395 bound_to 11000

$$$$
