AV-unprocessed.smi:1780|AV-procd|sdf|7186|dock2
  -GOLD-   22720 8423D 1   1.00000     0.00000
 Structure written by MMmdl.
 44 45  0  0  0  0  0  0  0  0  2 V2000
  145.9346  132.3451  150.9637 C   0  0  0  0  0  0  0  0  0  0  0  0
  144.8439  133.2604  150.3943 C   0  0  0  0  0  0  0  0  0  0  0  0
  144.6821  134.4641  151.1865 N   0  0  0  0  0  0  0  0  0  0  0  0
  145.6199  135.4414  151.4560 C   0  0  0  0  0  0  0  0  0  0  0  0
  144.9803  136.3612  152.2382 C   0  0  0  0  0  0  0  0  0  0  0  0
  145.4761  137.5646  152.8006 N   0  0  0  0  0  0  0  0  0  0  0  0
  146.3078  138.4494  152.2273 C   0  0  0  0  0  0  0  0  0  0  0  0
  146.7813  138.3484  151.0953 O   0  0  0  0  0  0  0  0  0  0  0  0
  146.5619  139.4818  153.0436 N   0  0  0  0  0  0  0  0  0  0  0  0
  147.4134  140.6195  152.7081 C   0  0  0  0  0  0  0  0  0  0  0  0
  147.9969  141.3347  153.9566 C   0  0  1  0  0  0  0  0  0  0  0  0
  146.9978  141.2473  155.1362 C   0  0  0  0  0  0  0  0  0  0  0  0
  149.3549  140.7872  154.2821 N   0  3  0  0  0  0  0  0  0  0  0  0
  149.9227  141.3709  155.5283 C   0  0  0  0  0  0  0  0  0  0  0  0
  151.3513  140.8608  155.7760 C   0  0  0  0  0  0  0  0  0  0  0  0
  151.3373  139.4438  155.8631 O   0  0  0  0  0  0  0  0  0  0  0  0
  150.8918  138.8522  154.6518 C   0  0  0  0  0  0  0  0  0  0  0  0
  149.4529  139.3022  154.3429 C   0  0  0  0  0  0  0  0  0  0  0  0
  143.6577  135.8747  152.4056 C   0  0  0  0  0  0  0  0  0  0  0  0
  143.4841  134.7290  151.7645 N   0  0  0  0  0  0  0  0  0  0  0  0
  146.0484  131.4507  150.3509 H   0  0  0  0  0  0  0  0  0  0  0  0
  145.6922  132.0240  151.9772 H   0  0  0  0  0  0  0  0  0  0  0  0
  146.8986  132.8535  150.9939 H   0  0  0  0  0  0  0  0  0  0  0  0
  145.0905  133.5461  149.3710 H   0  0  0  0  0  0  0  0  0  0  0  0
  143.8888  132.7349  150.3549 H   0  0  0  0  0  0  0  0  0  0  0  0
  146.6289  135.3887  151.0745 H   0  0  0  0  0  0  0  0  0  0  0  0
  145.1556  137.7771  153.7340 H   0  0  0  0  0  0  0  0  0  0  0  0
  146.1336  139.4839  153.9582 H   0  0  0  0  0  0  0  0  0  0  0  0
  148.2270  140.2531  152.0812 H   0  0  0  0  0  0  0  0  0  0  0  0
  146.8343  141.2964  152.0815 H   0  0  0  0  0  0  0  0  0  0  0  0
  148.1200  142.3950  153.7303 H   0  0  0  0  0  0  0  0  0  0  0  0
  146.0138  141.6272  154.8622 H   0  0  0  0  0  0  0  0  0  0  0  0
  147.3158  141.8497  155.9873 H   0  0  0  0  0  0  0  0  0  0  0  0
  146.8673  140.2184  155.4734 H   0  0  0  0  0  0  0  0  0  0  0  0
  149.9487  142.4578  155.4807 H   0  0  0  0  0  0  0  0  0  0  0  0
  149.2876  141.1094  156.3762 H   0  0  0  0  0  0  0  0  0  0  0  0
  152.0269  141.1863  154.9831 H   0  0  0  0  0  0  0  0  0  0  0  0
  151.7380  141.2668  156.7107 H   0  0  0  0  0  0  0  0  0  0  0  0
  151.5659  139.1159  153.8351 H   0  0  0  0  0  0  0  0  0  0  0  0
  150.9301  137.7676  154.7557 H   0  0  0  0  0  0  0  0  0  0  0  0
  148.7695  138.9208  155.1035 H   0  0  0  0  0  0  0  0  0  0  0  0
  149.1701  138.8533  153.3912 H   0  0  0  0  0  0  0  0  0  0  0  0
  142.8349  136.3054  152.9567 H   0  0  0  0  0  0  0  0  0  0  0  0
  149.9601  141.0689  153.5241 H   0  0  0  0  0  0  0  0  0  0  0  0
  1  2  1  0  0  0  0
  1 21  1  0  0  0  0
  1 22  1  0  0  0  0
  1 23  1  0  0  0  0
  2  3  1  0  0  0  0
  2 24  1  0  0  0  0
  2 25  1  0  0  0  0
  3 20  1  0  0  0  0
  3  4  1  0  0  0  0
  4  5  2  0  0  0  0
  4 26  1  0  0  0  0
  5  6  1  0  0  0  0
  5 19  1  0  0  0  0
  6  7  1  0  0  0  0
  6 27  1  0  0  0  0
  7  8  2  0  0  0  0
  7  9  1  0  0  0  0
  9 10  1  0  0  0  0
  9 28  1  0  0  0  0
 10 11  1  0  0  0  0
 10 29  1  0  0  0  0
 10 30  1  0  0  0  0
 11 12  1  0  0  0  0
 11 13  1  0  0  0  0
 11 31  1  0  0  0  0
 12 32  1  0  0  0  0
 12 33  1  0  0  0  0
 12 34  1  0  0  0  0
 13 18  1  0  0  0  0
 13 14  1  0  0  0  0
 13 44  1  0  0  0  0
 14 15  1  0  0  0  0
 14 35  1  0  0  0  0
 14 36  1  0  0  0  0
 15 16  1  0  0  0  0
 15 37  1  0  0  0  0
 15 38  1  0  0  0  0
 16 17  1  0  0  0  0
 17 18  1  0  0  0  0
 17 39  1  0  0  0  0
 17 40  1  0  0  0  0
 18 41  1  0  0  0  0
 18 42  1  0  0  0  0
 19 20  2  0  0  0  0
 19 43  1  0  0  0  0
M  CHG  1  13   1
M  END
> <s_m_source_file>
AV-unprocessed.smi

> <i_m_source_file_index>
1780

> <i_lp_mmshare_version>
43012

> <i_f3d_flags>
0

> <s_epik_input>
W0NIM11bQ0gyXW4xW2NIXWMoW2NIXW4xKVtOSF1DKD1PKVtOSF1bQ0gyXVtDQEhdKFtDSDNdKU4yW0NIMl1bQ0gyXU9bQ0gyXVtDSDJdMg==

> <s_epik_cmdline>
J2VwaWtfcHl0aG9uJywgJy1waCcsICc3LjAnLCAnLXRuJywgJzgnLCAnLW1hJywgJzIwMCcsICctbWV0YWxfYmluZGluZycsICctaW1hZScsICc8aW5maWxlLm1hZT4nLCAnLW9tYWUnLCAnPG91dGZpbGUubWFlPic=

> <r_lp_tautomer_probability>
1

> <r_epik_Ionization_Penalty>
0.64612

> <r_epik_Ionization_Penalty_Charging>
0.645968

> <r_epik_Ionization_Penalty_Neutral>
0.000152026

> <r_epik_State_Penalty>
0.664063

> <r_epik_Charging_Adjusted_Penalty>
1.31003

> <i_epik_Tot_Q>
1

> <i_epik_Tot_abs_Q>
1

> <r_epik_Metal_State_Penalty>
0.664075

> <b_epik_Metal_Only>
0

> <s_lp_Force_Field>
OPLS_2005

> <r_lp_Energy>
24.1412

> <b_lp_Chiralities_Consistent>
1

> <s_lp_Variant>
AV-unprocessed.smi:1780-4

> <Gold.Version>
5.8.1

> <Gold.Id.Protein>
6NUR|6NUR_protein|mol2

> <Gold.PLP.Fitness>
40.3319

> <Gold.PLP.PLP>
-36.1546

> <Gold.PLP.part.hbond>
-1.8212

> <Gold.PLP.part.metal>
0.0000

> <Gold.PLP.part.buried>
-5.0153

> <Gold.PLP.part.nonpolar>
-31.0839

> <Gold.PLP.part.repulsive>
0.7493

> <Gold.PLP.ligand.clash>
0.0000

> <Gold.PLP.ligand.torsion>
0.9592

> <Gold.PLP.Chemscore.Hbond>
1.0000

> <Gold.PLP.Chemscore.CHOScore>
1.0000

> <Gold.PLP.Chemscore.Metal>
0.0000

> <Gold.Chemscore.Hbonds>
donor molecule, donor type, donor heavy atom, donor atom, acceptor molecule, acceptor atom, score
      P1  H  7954  7966       L1     8  1.00
      L1  C     4    26       P1  7948  0.97

> <Gold.PLP.Chemscore.Internal.Correction>
0.0956

> <Gold.Rescore>
     Score         DG    S(hbond)    S(metal)    S(lipo)     H(rot)  DE(clash)    DE(int)     intcor
     11.97     -13.67       0.98        0.00      78.45       1.67       0.61       1.09       ----

> <Gold.Chemscore.Fitness>
11.9684

> <Gold.Chemscore.DG>
-13.6659

> <Gold.Chemscore.ZeroCoef>
-5.4800

> <Gold.Chemscore.Hbond>
0.9833

> <Gold.Chemscore.Metal>
0.0000

> <Gold.Chemscore.Lipo>
78.4517

> <Gold.Chemscore.Internal_Hbond>
0.0000

> <Gold.Chemscore.DEClash>
0.6098

> <Gold.Chemscore.DEInternal>
1.0877

> <Gold.Chemscore.Rot>
1.6708

> <Gold.Chemscore.Internal.Correction>
   9.000000E+99

> <Gold.Chemscore.Hbonds>
donor molecule, donor type, donor heavy atom, donor atom, acceptor molecule, acceptor atom, score
      P1  H  7954  7966       L1     8  0.99

> <Gold.Chemscore.Hbond.Weighted>
-3.2844

> <Gold.Chemscore.Metal.Weighted>
-0.0000

> <Gold.Chemscore.Lipo.Weighted>
-9.1788

> <Gold.Chemscore.Internal_Hbond.Weighted>
0.0000

> <Gold.Chemscore.DEClash.Weighted>
0.6098

> <Gold.Chemscore.DEInternal.Weighted>
1.0877

> <Gold.Chemscore.Rot.Weighted>
4.2773

> <Gold.Chemscore.Internal.Correction.Weighted>
   9.000000E+99

> <Gold.Protein.RotatedTorsions>
[ 6907 6896 6895 6894 ] final    0.99 input  -60.11 | X-H torsion
[ 7974 7965 7964 7962 ] final   87.01 input  175.53 | X-H torsion
[ 8008 7997 7996 7995 ] final   95.79 input   59.86 | X-H torsion
[ 10167 10162 10161 10158 ] final   -3.36 input  -65.29 | X-H torsion
[ 10718 10713 10712 10709 ] final -162.26 input   66.30 | X-H torsion
[ 10763 10752 10751 10750 ] final   59.59 input  -60.55 | X-H torsion
[ 11005 11000 10999 10996 ] final  -48.84 input  -57.11 | X-H torsion

> <Gold.Protein.ActiveResidues>
 VAL166  LYS551  ARG553  GLY616  TRP617  ASP618  TYR619  PRO620  LYS621  CYS622 
 ASP623  PHE694  ASN695  SER759  ASP760  ASP761  ALA762  ILE779  LEU786  VAL792 
 PHE793  MET794  SER795  GLU796  ALA797  LYS798  CYS799  TRP800  GLU811  SER814 

> <Gold.Protein.RotatedAtoms>
  151.5853  135.1056  160.0026 H   0  0  0  0  0  0  0  0  0  0  0  0  # atno 6907 bound_to 6896
  152.4333  133.7312  159.6599 H   0  0  0  0  0  0  0  0  0  0  0  0  # atno 6908 bound_to 6896
  150.8228  133.8153  159.3154 H   0  0  0  0  0  0  0  0  0  0  0  0  # atno 6909 bound_to 6896
  145.5647  139.2307  143.2439 H   0  0  0  0  0  0  0  0  0  0  0  0  # atno 7974 bound_to 7965
  156.0727  140.3281  155.7596 H   0  0  0  0  0  0  0  0  0  0  0  0  # atno 8008 bound_to 7997
  155.5279  140.0591  157.2912 H   0  0  0  0  0  0  0  0  0  0  0  0  # atno 8009 bound_to 7997
  154.4539  140.1932  156.0455 H   0  0  0  0  0  0  0  0  0  0  0  0  # atno 8010 bound_to 7997
  140.6887  143.6549  150.8317 H   0  0  0  0  0  0  0  0  0  0  0  0  # atno 10167 bound_to 10162
  156.6079  130.8838  151.2929 H   0  0  0  0  0  0  0  0  0  0  0  0  # atno 10718 bound_to 10713
  152.9898  135.5566  154.5737 H   0  0  0  0  0  0  0  0  0  0  0  0  # atno 10763 bound_to 10752
  154.5133  135.2803  155.1327 H   0  0  0  0  0  0  0  0  0  0  0  0  # atno 10764 bound_to 10752
  154.2710  135.6363  153.5363 H   0  0  0  0  0  0  0  0  0  0  0  0  # atno 10765 bound_to 10752
  141.0724  133.6675  156.3499 H   0  0  0  0  0  0  0  0  0  0  0  0  # atno 11005 bound_to 11000
  146.1826  140.6473  142.9182 LP  0  0  0  0  0  0  0  0  0  0  0  0  # atno 17320 bound_to 7965
  144.7466  140.5083  143.6831 LP  0  0  0  0  0  0  0  0  0  0  0  0  # atno 17321 bound_to 7965
  140.0259  143.5493  152.2780 LP  0  0  0  0  0  0  0  0  0  0  0  0  # atno 17342 bound_to 10162
  139.6269  144.7638  151.2620 LP  0  0  0  0  0  0  0  0  0  0  0  0  # atno 17343 bound_to 10162
  157.7262  130.9626  150.1646 LP  0  0  0  0  0  0  0  0  0  0  0  0  # atno 17370 bound_to 10713
  156.2414  130.3691  149.8333 LP  0  0  0  0  0  0  0  0  0  0  0  0  # atno 17371 bound_to 10713
  140.5645  134.5901  157.5442 LP  0  0  0  0  0  0  0  0  0  0  0  0  # atno 17394 bound_to 11000
  139.9537  134.7572  156.0390 LP  0  0  0  0  0  0  0  0  0  0  0  0  # atno 17395 bound_to 11000

$$$$
