AV-unprocessed.smi:2253|AV-procd|sdf|9119|dock3
  -GOLD-   2272012323D 1   1.00000     0.00000
 Structure written by MMmdl.
 51 53  0  0  0  0  0  0  0  0  2 V2000
  145.6120  134.7286  150.5111 C   0  0  0  0  0  0  0  0  0  0  0  0
  146.0367  135.8468  151.3805 N   0  3  2  0  0  0  0  0  0  0  0  0
  145.2423  135.9300  152.6256 C   0  0  0  0  0  0  0  0  0  0  0  0
  145.8051  137.0044  153.5695 C   0  0  0  0  0  0  0  0  0  0  0  0
  145.8889  138.4087  152.9095 C   0  0  1  0  0  0  0  0  0  0  0  0
  146.5611  139.3865  153.7962 N   0  0  0  0  0  0  0  0  0  0  0  0
  146.9244  140.6143  153.0666 C   0  0  0  0  0  0  0  0  0  0  0  0
  147.5629  141.6682  153.9878 C   0  0  0  0  0  0  0  0  0  0  0  0
  148.8255  141.1194  154.6607 C   0  0  0  0  0  0  0  0  0  0  0  0
  149.3677  142.0764  155.6212 N   0  0  0  0  0  0  0  0  0  0  0  0
  150.2376  141.7783  156.5973 C   0  0  0  0  0  0  0  0  0  0  0  0
  150.6744  140.6437  156.7867 O   0  0  0  0  0  0  0  0  0  0  0  0
  150.5499  142.8706  157.3169 N   0  0  0  0  0  0  0  0  0  0  0  0
  151.4149  143.0053  158.4403 C   0  0  0  0  0  0  0  0  0  0  0  0
  152.2338  141.9727  158.9618 C   0  0  0  0  0  0  0  0  0  0  0  0
  153.0439  142.2521  160.0810 C   0  0  0  0  0  0  0  0  0  0  0  0
  153.0870  143.4567  160.6877 N   0  0  0  0  0  0  0  0  0  0  0  0
  152.3093  144.4393  160.1873 C   0  0  0  0  0  0  0  0  0  0  0  0
  151.4635  144.2659  159.0735 C   0  0  0  0  0  0  0  0  0  0  0  0
  150.7102  145.2983  158.6227 F   0  0  0  0  0  0  0  0  0  0  0  0
  148.4573  139.8121  155.3654 C   0  0  0  0  0  0  0  0  0  0  0  0
  147.7896  138.8284  154.3887 C   0  0  0  0  0  0  0  0  0  0  0  0
  146.6357  138.2543  151.5557 C   0  0  0  0  0  0  0  0  0  0  0  0
  146.0481  137.1442  150.6701 C   0  0  0  0  0  0  0  0  0  0  0  0
  144.5834  134.8631  150.1734 H   0  0  0  0  0  0  0  0  0  0  0  0
  145.6760  133.7801  151.0453 H   0  0  0  0  0  0  0  0  0  0  0  0
  146.2545  134.6583  149.6328 H   0  0  0  0  0  0  0  0  0  0  0  0
  144.2007  136.1491  152.3841 H   0  0  0  0  0  0  0  0  0  0  0  0
  145.2536  134.9631  153.1304 H   0  0  0  0  0  0  0  0  0  0  0  0
  145.1548  137.0127  154.4427 H   0  0  0  0  0  0  0  0  0  0  0  0
  146.7935  136.6993  153.9162 H   0  0  0  0  0  0  0  0  0  0  0  0
  144.8754  138.7599  152.7083 H   0  0  0  0  0  0  0  0  0  0  0  0
  147.5988  140.3735  152.2434 H   0  0  0  0  0  0  0  0  0  0  0  0
  146.0468  141.0880  152.6337 H   0  0  0  0  0  0  0  0  0  0  0  0
  147.8046  142.5599  153.4083 H   0  0  0  0  0  0  0  0  0  0  0  0
  146.8386  141.9776  154.7431 H   0  0  0  0  0  0  0  0  0  0  0  0
  149.5762  140.9017  153.8983 H   0  0  0  0  0  0  0  0  0  0  0  0
  149.0571  143.0330  155.5339 H   0  0  0  0  0  0  0  0  0  0  0  0
  150.0909  143.7244  157.0346 H   0  0  0  0  0  0  0  0  0  0  0  0
  152.2676  140.9822  158.5383 H   0  0  0  0  0  0  0  0  0  0  0  0
  153.6778  141.4842  160.4995 H   0  0  0  0  0  0  0  0  0  0  0  0
  152.3628  145.3940  160.6893 H   0  0  0  0  0  0  0  0  0  0  0  0
  149.3510  139.3551  155.7920 H   0  0  0  0  0  0  0  0  0  0  0  0
  147.7824  140.0103  156.1998 H   0  0  0  0  0  0  0  0  0  0  0  0
  147.5753  137.9323  154.9660 H   0  0  0  0  0  0  0  0  0  0  0  0
  148.4886  138.5444  153.6006 H   0  0  0  0  0  0  0  0  0  0  0  0
  146.5871  139.1696  150.9682 H   0  0  0  0  0  0  0  0  0  0  0  0
  147.6923  138.0515  151.7370 H   0  0  0  0  0  0  0  0  0  0  0  0
  146.6419  137.0559  149.7592 H   0  0  0  0  0  0  0  0  0  0  0  0
  145.0338  137.4048  150.3629 H   0  0  0  0  0  0  0  0  0  0  0  0
  146.9901  135.6544  151.6537 H   0  0  0  0  0  0  0  0  0  0  0  0
  1  2  1  0  0  0  0
  1 25  1  0  0  0  0
  1 26  1  0  0  0  0
  1 27  1  0  0  0  0
  2 24  1  0  0  0  0
  2  3  1  0  0  0  0
  2 51  1  0  0  0  0
  3  4  1  0  0  0  0
  3 28  1  0  0  0  0
  3 29  1  0  0  0  0
  4  5  1  0  0  0  0
  4 30  1  0  0  0  0
  4 31  1  0  0  0  0
  5  6  1  0  0  0  0
  5 23  1  0  0  0  0
  5 32  1  0  0  0  0
  6 22  1  0  0  0  0
  6  7  1  0  0  0  0
  7  8  1  0  0  0  0
  7 33  1  0  0  0  0
  7 34  1  0  0  0  0
  8  9  1  0  0  0  0
  8 35  1  0  0  0  0
  8 36  1  0  0  0  0
  9 10  1  0  0  0  0
  9 21  1  0  0  0  0
  9 37  1  0  0  0  0
 10 11  1  0  0  0  0
 10 38  1  0  0  0  0
 11 12  2  0  0  0  0
 11 13  1  0  0  0  0
 13 14  1  0  0  0  0
 13 39  1  0  0  0  0
 14 19  1  0  0  0  0
 14 15  2  0  0  0  0
 15 16  1  0  0  0  0
 15 40  1  0  0  0  0
 16 17  2  0  0  0  0
 16 41  1  0  0  0  0
 17 18  1  0  0  0  0
 18 19  2  0  0  0  0
 18 42  1  0  0  0  0
 19 20  1  0  0  0  0
 21 22  1  0  0  0  0
 21 43  1  0  0  0  0
 21 44  1  0  0  0  0
 22 45  1  0  0  0  0
 22 46  1  0  0  0  0
 23 24  1  0  0  0  0
 23 47  1  0  0  0  0
 23 48  1  0  0  0  0
 24 49  1  0  0  0  0
 24 50  1  0  0  0  0
M  CHG  1   2   1
M  END
> <s_m_source_file>
AV-unprocessed.smi

> <i_m_source_file_index>
2253

> <i_lp_mmshare_version>
43012

> <i_f3d_flags>
0

> <s_epik_input>
W0NIM11OMVtDSDJdW0NIMl1bQ0hdKFtDSDJdW0NIMl0xKU4yW0NIMl1bQ0gyXVtDSF0oW0NIMl1bQ0gyXTIpW05IXUMoPU8pW05IXWMzW2NIXVtjSF1uW2NIXWMzRg==

> <s_epik_cmdline>
J2VwaWtfcHl0aG9uJywgJy1waCcsICc3LjAnLCAnLXRuJywgJzgnLCAnLW1hJywgJzIwMCcsICctbWV0YWxfYmluZGluZycsICctaW1hZScsICc8aW5maWxlLm1hZT4nLCAnLW9tYWUnLCAnPG91dGZpbGUubWFlPic=

> <r_epik_Ionization_Penalty>
1.01315

> <r_epik_Ionization_Penalty_Charging>
0.000974969

> <r_epik_Ionization_Penalty_Neutral>
1.01217

> <r_epik_State_Penalty>
1.10286

> <r_epik_Charging_Adjusted_Penalty>
1.10383

> <i_epik_Tot_Q>
1

> <i_epik_Tot_abs_Q>
1

> <r_epik_Metal_State_Penalty>
1.10232

> <b_epik_Metal_Only>
0

> <s_lp_Force_Field>
OPLS_2005

> <r_lp_Energy>
37.5712

> <b_lp_Chiralities_Consistent>
1

> <s_lp_Variant>
AV-unprocessed.smi:2253-5

> <Gold.Version>
5.8.1

> <Gold.Id.Protein>
6NUR|6NUR_protein|mol2

> <Gold.PLP.Fitness>
48.6042

> <Gold.PLP.PLP>
-37.7851

> <Gold.PLP.part.hbond>
-3.0000

> <Gold.PLP.part.metal>
0.0000

> <Gold.PLP.part.buried>
5.2145

> <Gold.PLP.part.nonpolar>
-41.0328

> <Gold.PLP.part.repulsive>
0.4522

> <Gold.PLP.ligand.clash>
0.0000

> <Gold.PLP.ligand.torsion>
0.4451

> <Gold.PLP.Chemscore.Hbond>
3.9027

> <Gold.PLP.Chemscore.CHOScore>
0.0000

> <Gold.PLP.Chemscore.Metal>
0.0000

> <Gold.Chemscore.Hbonds>
donor molecule, donor type, donor heavy atom, donor atom, acceptor molecule, acceptor atom, score
      L1  H     2    51       P1  7948  2.00
      L1  H    10    38       P1  8028  1.00
      L1  H    13    39       P1  8028  0.90

> <Gold.PLP.Chemscore.Internal.Correction>
0.0012

> <Gold.Rescore>
     Score         DG    S(hbond)    S(metal)    S(lipo)     H(rot)  DE(clash)    DE(int)     intcor
     20.27     -25.89       2.82        0.00     121.11       1.24       2.67       2.94       ----

> <Gold.Chemscore.Fitness>
20.2662

> <Gold.Chemscore.DG>
-25.8850

> <Gold.Chemscore.ZeroCoef>
-5.4800

> <Gold.Chemscore.Hbond>
2.8202

> <Gold.Chemscore.Metal>
0.0000

> <Gold.Chemscore.Lipo>
121.1135

> <Gold.Chemscore.Internal_Hbond>
0.0000

> <Gold.Chemscore.DEClash>
2.6741

> <Gold.Chemscore.DEInternal>
2.9446

> <Gold.Chemscore.Rot>
1.2440

> <Gold.Chemscore.Internal.Correction>
   9.000000E+99

> <Gold.Chemscore.Hbonds>
donor molecule, donor type, donor heavy atom, donor atom, acceptor molecule, acceptor atom, score
      L1  H     2    51       P1  7948  0.90
      L1  H    10    38       P1  8028  1.00
      L1  H    13    39       P1  8028  0.81

> <Gold.Chemscore.Hbond.Weighted>
-9.4194

> <Gold.Chemscore.Metal.Weighted>
-0.0000

> <Gold.Chemscore.Lipo.Weighted>
-14.1703

> <Gold.Chemscore.Internal_Hbond.Weighted>
0.0000

> <Gold.Chemscore.DEClash.Weighted>
2.6741

> <Gold.Chemscore.DEInternal.Weighted>
2.9446

> <Gold.Chemscore.Rot.Weighted>
3.1847

> <Gold.Chemscore.Internal.Correction.Weighted>
   9.000000E+99

> <Gold.Protein.RotatedTorsions>
[ 6907 6896 6895 6894 ] final -147.98 input  -60.11 | X-H torsion
[ 7974 7965 7964 7962 ] final  -33.44 input  175.53 | X-H torsion
[ 8008 7997 7996 7995 ] final -144.94 input   59.86 | X-H torsion
[ 10167 10162 10161 10158 ] final  -20.48 input  -65.29 | X-H torsion
[ 10718 10713 10712 10709 ] final  160.23 input   66.30 | X-H torsion
[ 10763 10752 10751 10750 ] final   53.16 input  -60.55 | X-H torsion
[ 11005 11000 10999 10996 ] final  -34.22 input  -57.11 | X-H torsion

> <Gold.Protein.ActiveResidues>
 VAL166  LYS551  ARG553  GLY616  TRP617  ASP618  TYR619  PRO620  LYS621  CYS622 
 ASP623  PHE694  ASN695  SER759  ASP760  ASP761  ALA762  ILE779  LEU786  VAL792 
 PHE793  MET794  SER795  GLU796  ALA797  LYS798  CYS799  TRP800  GLU811  SER814 

> <Gold.Protein.RotatedAtoms>
  151.1633  133.4831  159.2593 H   0  0  0  0  0  0  0  0  0  0  0  0  # atno 6907 bound_to 6896
  151.1432  135.0190  159.8645 H   0  0  0  0  0  0  0  0  0  0  0  0  # atno 6908 bound_to 6896
  152.5462  134.1524  159.8577 H   0  0  0  0  0  0  0  0  0  0  0  0  # atno 6909 bound_to 6896
  146.0910  140.5917  142.8864 H   0  0  0  0  0  0  0  0  0  0  0  0  # atno 7974 bound_to 7965
  155.5352  140.0603  157.2881 H   0  0  0  0  0  0  0  0  0  0  0  0  # atno 8008 bound_to 7997
  154.4471  140.1929  156.0579 H   0  0  0  0  0  0  0  0  0  0  0  0  # atno 8009 bound_to 7997
  156.0624  140.3270  155.7481 H   0  0  0  0  0  0  0  0  0  0  0  0  # atno 8010 bound_to 7997
  140.7276  143.4718  151.0236 H   0  0  0  0  0  0  0  0  0  0  0  0  # atno 10167 bound_to 10162
  157.1533  131.0569  151.2269 H   0  0  0  0  0  0  0  0  0  0  0  0  # atno 10718 bound_to 10713
  152.9793  135.5788  154.4696 H   0  0  0  0  0  0  0  0  0  0  0  0  # atno 10763 bound_to 10752
  154.4260  135.2772  155.1946 H   0  0  0  0  0  0  0  0  0  0  0  0  # atno 10764 bound_to 10752
  154.3674  135.6175  153.5776 H   0  0  0  0  0  0  0  0  0  0  0  0  # atno 10765 bound_to 10752
  140.9699  133.7116  156.1506 H   0  0  0  0  0  0  0  0  0  0  0  0  # atno 11005 bound_to 11000
  144.7360  140.4810  143.6903 LP  0  0  0  0  0  0  0  0  0  0  0  0  # atno 17320 bound_to 7965
  145.6039  139.1506  143.3114 LP  0  0  0  0  0  0  0  0  0  0  0  0  # atno 17321 bound_to 7965
  139.8411  143.7563  152.3180 LP  0  0  0  0  0  0  0  0  0  0  0  0  # atno 17342 bound_to 10162
  139.7712  144.7476  151.0222 LP  0  0  0  0  0  0  0  0  0  0  0  0  # atno 17343 bound_to 10162
  157.4200  130.7432  149.6906 LP  0  0  0  0  0  0  0  0  0  0  0  0  # atno 17370 bound_to 10713
  155.9766  130.4073  150.3765 LP  0  0  0  0  0  0  0  0  0  0  0  0  # atno 17371 bound_to 10713
  140.7345  134.4218  157.5562 LP  0  0  0  0  0  0  0  0  0  0  0  0  # atno 17394 bound_to 11000
  139.8908  134.8795  156.2351 LP  0  0  0  0  0  0  0  0  0  0  0  0  # atno 17395 bound_to 11000

$$$$
