AV-unprocessed.smi:2865|AV-procd|sdf|11018|dock4
  -GOLD-   2272015483D 1   1.00000     0.00000
 Structure written by MMmdl.
 38 41  0  0  0  0  0  0  0  0  1 V2000
  144.7413  136.3450  153.5088 O   0  0  0  0  0  0  0  0  0  0  0  0
  145.8555  136.2632  152.9975 C   0  0  0  0  0  0  0  0  0  0  0  0
  146.7737  137.2495  152.9921 N   0  0  0  0  0  0  0  0  0  0  0  0
  146.6582  138.5764  153.4868 C   0  0  0  0  0  0  0  0  0  0  0  0
  147.1992  139.6344  152.7263 C   0  0  0  0  0  0  0  0  0  0  0  0
  147.1125  140.9215  153.1250 N   0  0  0  0  0  0  0  0  0  0  0  0
  146.4902  141.1527  154.2840 C   0  0  0  0  0  0  0  0  0  0  0  0
  146.3597  142.5839  154.7039 C   0  0  0  0  0  0  0  0  0  0  0  0
  145.0101  143.1645  155.0743 C   0  0  0  0  0  0  0  0  0  0  0  0
  145.6853  143.5987  153.8033 C   0  0  0  0  0  0  0  0  0  0  0  0
  145.9202  140.2409  155.0764 N   0  0  0  0  0  0  0  0  0  0  0  0
  146.0033  138.9505  154.6863 C   0  0  0  0  0  0  0  0  0  0  0  0
  146.2671  135.1271  152.4082 N   0  0  0  0  0  0  0  0  0  0  0  0
  145.5243  133.8763  152.2441 C   0  0  1  0  0  0  0  0  0  0  0  0
  144.3715  133.9929  151.2382 C   0  0  0  0  0  0  0  0  0  0  0  0
  144.7440  132.9226  150.2035 C   0  0  2  0  0  0  0  0  0  0  0  0
  144.5962  131.4998  150.7627 C   0  0  0  0  0  0  0  0  0  0  0  0
  145.7873  131.4102  151.7169 C   0  0  0  0  0  0  0  0  0  0  0  0
  146.4044  132.8077  151.5738 C   0  0  1  0  0  0  0  0  0  0  0  0
  146.1536  133.0562  150.2002 O   0  0  0  0  0  0  0  0  0  0  0  0
  147.6743  137.0098  152.6041 H   0  0  0  0  0  0  0  0  0  0  0  0
  147.7046  139.4498  151.7896 H   0  0  0  0  0  0  0  0  0  0  0  0
  147.2275  142.9085  155.2750 H   0  0  0  0  0  0  0  0  0  0  0  0
  144.1366  142.5216  154.9822 H   0  0  0  0  0  0  0  0  0  0  0  0
  144.9794  143.8772  155.8958 H   0  0  0  0  0  0  0  0  0  0  0  0
  146.1063  144.6016  153.7747 H   0  0  0  0  0  0  0  0  0  0  0  0
  145.2612  143.2445  152.8656 H   0  0  0  0  0  0  0  0  0  0  0  0
  145.5209  138.2401  155.3384 H   0  0  0  0  0  0  0  0  0  0  0  0
  147.2134  135.1212  152.0553 H   0  0  0  0  0  0  0  0  0  0  0  0
  145.1808  133.5198  153.2169 H   0  0  0  0  0  0  0  0  0  0  0  0
  143.3969  133.8097  151.6918 H   0  0  0  0  0  0  0  0  0  0  0  0
  144.3452  134.9776  150.7693 H   0  0  0  0  0  0  0  0  0  0  0  0
  144.2761  133.0672  149.2295 H   0  0  0  0  0  0  0  0  0  0  0  0
  143.6390  131.3488  151.2630 H   0  0  0  0  0  0  0  0  0  0  0  0
  144.6877  130.7583  149.9682 H   0  0  0  0  0  0  0  0  0  0  0  0
  145.4952  131.1839  152.7429 H   0  0  0  0  0  0  0  0  0  0  0  0
  146.4869  130.6429  151.3839 H   0  0  0  0  0  0  0  0  0  0  0  0
  147.4576  132.8492  151.8542 H   0  0  0  0  0  0  0  0  0  0  0  0
  1  2  2  0  0  0  0
  2  3  1  0  0  0  0
  2 13  1  0  0  0  0
  3  4  1  0  0  0  0
  3 21  1  0  0  0  0
  4 12  1  0  0  0  0
  4  5  2  0  0  0  0
  5  6  1  0  0  0  0
  5 22  1  0  0  0  0
  6  7  2  0  0  0  0
  7  8  1  0  0  0  0
  7 11  1  0  0  0  0
  8 10  1  0  0  0  0
  8  9  1  0  0  0  0
  8 23  1  0  0  0  0
  9 10  1  0  0  0  0
  9 24  1  0  0  0  0
  9 25  1  0  0  0  0
 10 26  1  0  0  0  0
 10 27  1  0  0  0  0
 11 12  2  0  0  0  0
 12 28  1  0  0  0  0
 13 14  1  0  0  0  0
 13 29  1  0  0  0  0
 14 19  1  0  0  0  0
 14 15  1  0  0  0  0
 14 30  1  0  0  0  0
 15 16  1  0  0  0  0
 15 31  1  0  0  0  0
 15 32  1  0  0  0  0
 16 20  1  0  0  0  0
 16 17  1  0  0  0  0
 16 33  1  0  0  0  0
 17 18  1  0  0  0  0
 17 34  1  0  0  0  0
 17 35  1  0  0  0  0
 18 19  1  0  0  0  0
 18 36  1  0  0  0  0
 18 37  1  0  0  0  0
 19 20  1  0  0  0  0
 19 38  1  0  0  0  0
M  END
> <s_m_source_file>
AV-unprocessed.smi

> <i_m_source_file_index>
2865

> <i_lp_mmshare_version>
43012

> <i_f3d_flags>
0

> <s_epik_input>
W0NIMl0xW0NIMl1bQ0BIXShPMilbQ0BASF0oW0NIMl1bQ0BASF0xMilbTkhdQyg9TylbTkhdYzNbY0hdbmMobltjSF0zKVtDSF00W0NIMl1bQ0gyXTQ=

> <s_epik_cmdline>
J2VwaWtfcHl0aG9uJywgJy1waCcsICc3LjAnLCAnLXRuJywgJzgnLCAnLW1hJywgJzIwMCcsICctbWV0YWxfYmluZGluZycsICctaW1hZScsICc8aW5maWxlLm1hZT4nLCAnLW9tYWUnLCAnPG91dGZpbGUubWFlPic=

> <r_lp_tautomer_probability>
1

> <r_epik_Ionization_Penalty>
2.43104e-05

> <r_epik_Ionization_Penalty_Charging>
0

> <r_epik_Ionization_Penalty_Neutral>
2.43104e-05

> <r_epik_State_Penalty>
-0

> <r_epik_Charging_Adjusted_Penalty>
0

> <i_epik_Tot_Q>
0

> <i_epik_Tot_abs_Q>
0

> <r_epik_Metal_State_Penalty>
-0

> <b_epik_Metal_Only>
0

> <s_lp_Force_Field>
OPLS_2005

> <r_lp_Energy>
45.9934

> <b_lp_Chiralities_Consistent>
1

> <s_lp_Variant>
AV-unprocessed.smi:2865-4

> <Gold.Version>
5.8.1

> <Gold.Id.Protein>
6NUR|6NUR_protein|mol2

> <Gold.PLP.Fitness>
39.1531

> <Gold.PLP.PLP>
-31.1160

> <Gold.PLP.part.hbond>
-2.0000

> <Gold.PLP.part.metal>
0.0000

> <Gold.PLP.part.buried>
-4.3496

> <Gold.PLP.part.nonpolar>
-25.7684

> <Gold.PLP.part.repulsive>
0.7518

> <Gold.PLP.ligand.clash>
0.0000

> <Gold.PLP.ligand.torsion>
0.4477

> <Gold.PLP.Chemscore.Hbond>
1.9280

> <Gold.PLP.Chemscore.CHOScore>
1.0000

> <Gold.PLP.Chemscore.Metal>
0.0000

> <Gold.Chemscore.Hbonds>
donor molecule, donor type, donor heavy atom, donor atom, acceptor molecule, acceptor atom, score
      L1  H     3    21       P1  7948  1.00
      L1  H    13    29       P1  7948  0.92
      L1  C     5    22       P1  7957  1.00

> <Gold.PLP.Chemscore.Internal.Correction>
0.1485

> <Gold.Rescore>
     Score         DG    S(hbond)    S(metal)    S(lipo)     H(rot)  DE(clash)    DE(int)     intcor
     16.25     -17.26       1.92        0.00      72.25       1.20       0.19       0.81       ----

> <Gold.Chemscore.Fitness>
16.2523

> <Gold.Chemscore.DG>
-17.2574

> <Gold.Chemscore.ZeroCoef>
-5.4800

> <Gold.Chemscore.Hbond>
1.9161

> <Gold.Chemscore.Metal>
0.0000

> <Gold.Chemscore.Lipo>
72.2461

> <Gold.Chemscore.Internal_Hbond>
0.0000

> <Gold.Chemscore.DEClash>
0.1915

> <Gold.Chemscore.DEInternal>
0.8136

> <Gold.Chemscore.Rot>
1.2012

> <Gold.Chemscore.Internal.Correction>
   9.000000E+99

> <Gold.Chemscore.Hbonds>
donor molecule, donor type, donor heavy atom, donor atom, acceptor molecule, acceptor atom, score
      L1  H     3    21       P1  7948  1.00
      L1  H    13    29       P1  7948  0.82

> <Gold.Chemscore.Hbond.Weighted>
-6.3997

> <Gold.Chemscore.Metal.Weighted>
-0.0000

> <Gold.Chemscore.Lipo.Weighted>
-8.4528

> <Gold.Chemscore.Internal_Hbond.Weighted>
0.0000

> <Gold.Chemscore.DEClash.Weighted>
0.1915

> <Gold.Chemscore.DEInternal.Weighted>
0.8136

> <Gold.Chemscore.Rot.Weighted>
3.0752

> <Gold.Chemscore.Internal.Correction.Weighted>
   9.000000E+99

> <Gold.Protein.RotatedTorsions>
[ 6907 6896 6895 6894 ] final   79.86 input  -60.11 | X-H torsion
[ 7974 7965 7964 7962 ] final   74.33 input  175.53 | X-H torsion
[ 8008 7997 7996 7995 ] final -114.69 input   59.86 | X-H torsion
[ 10167 10162 10161 10158 ] final   -7.38 input  -65.29 | X-H torsion
[ 10718 10713 10712 10709 ] final -146.03 input   66.30 | X-H torsion
[ 10763 10752 10751 10750 ] final   48.93 input  -60.55 | X-H torsion
[ 11005 11000 10999 10996 ] final   59.50 input  -57.11 | X-H torsion

> <Gold.Protein.ActiveResidues>
 VAL166  LYS551  ARG553  GLY616  TRP617  ASP618  TYR619  PRO620  LYS621  CYS622 
 ASP623  PHE694  ASN695  SER759  ASP760  ASP761  ALA762  ILE779  LEU786  VAL792 
 PHE793  MET794  SER795  GLU796  ALA797  LYS798  CYS799  TRP800  GLU811  SER814 

> <Gold.Protein.RotatedAtoms>
  152.5214  134.3447  159.9229 H   0  0  0  0  0  0  0  0  0  0  0  0  # atno 6907 bound_to 6896
  151.3397  133.3961  159.2677 H   0  0  0  0  0  0  0  0  0  0  0  0  # atno 6908 bound_to 6896
  150.9814  134.9186  159.7904 H   0  0  0  0  0  0  0  0  0  0  0  0  # atno 6909 bound_to 6896
  145.7296  139.2679  143.1549 H   0  0  0  0  0  0  0  0  0  0  0  0  # atno 7974 bound_to 7965
  155.0404  140.0392  157.2507 H   0  0  0  0  0  0  0  0  0  0  0  0  # atno 8008 bound_to 7997
  154.7222  140.2714  155.6508 H   0  0  0  0  0  0  0  0  0  0  0  0  # atno 8009 bound_to 7997
  156.2819  140.2700  156.1896 H   0  0  0  0  0  0  0  0  0  0  0  0  # atno 8010 bound_to 7997
  140.7027  143.6088  150.8725 H   0  0  0  0  0  0  0  0  0  0  0  0  # atno 10167 bound_to 10162
  156.3898  130.7880  151.2081 H   0  0  0  0  0  0  0  0  0  0  0  0  # atno 10718 bound_to 10713
  152.9789  135.5928  154.4006 H   0  0  0  0  0  0  0  0  0  0  0  0  # atno 10763 bound_to 10752
  154.3652  135.2767  155.2299 H   0  0  0  0  0  0  0  0  0  0  0  0  # atno 10764 bound_to 10752
  154.4279  135.6043  153.6105 H   0  0  0  0  0  0  0  0  0  0  0  0  # atno 10765 bound_to 10752
  140.0300  134.6027  155.9520 H   0  0  0  0  0  0  0  0  0  0  0  0  # atno 11005 bound_to 11000
  146.0550  140.8030  142.9763 LP  0  0  0  0  0  0  0  0  0  0  0  0  # atno 17320 bound_to 7965
  144.6896  140.3110  143.7248 LP  0  0  0  0  0  0  0  0  0  0  0  0  # atno 17321 bound_to 7965
  139.9811  143.5950  152.2942 LP  0  0  0  0  0  0  0  0  0  0  0  0  # atno 17342 bound_to 10162
  139.6571  144.7662  151.2034 LP  0  0  0  0  0  0  0  0  0  0  0  0  # atno 17343 bound_to 10162
  157.7498  131.0319  150.4202 LP  0  0  0  0  0  0  0  0  0  0  0  0  # atno 17370 bound_to 10713
  156.4461  130.4002  149.6666 LP  0  0  0  0  0  0  0  0  0  0  0  0  # atno 17371 bound_to 10713
  141.1825  133.6549  156.5079 LP  0  0  0  0  0  0  0  0  0  0  0  0  # atno 17394 bound_to 11000
  140.4242  134.7160  157.4907 LP  0  0  0  0  0  0  0  0  0  0  0  0  # atno 17395 bound_to 11000

$$$$
