AV-unprocessed.smi:1202|AV-procd|sdf|5032|dock6
  -GOLD-   22720 4 53D 1   1.00000     0.00000
 Structure written by MMmdl.
 44 45  0  0  0  0  0  0  0  0  3 V2000
  150.5653  132.3724  156.2723 C   0  0  0  0  0  0  0  0  0  0  0  0
  149.6309  133.4834  156.1349 N   0  5  0  0  0  0  0  0  0  0  0  0
  149.2633  134.0106  154.9343 C   0  0  0  0  0  0  0  0  0  0  0  0
  149.4892  133.6254  153.7827 O   0  0  0  0  0  0  0  0  0  0  0  0
  148.4354  135.2885  155.1216 C   0  0  0  0  0  0  0  0  0  0  0  0
  149.1553  136.4761  154.5927 N   0  3  2  0  0  0  0  0  0  0  0  0
  150.5502  136.5923  155.0966 C   0  0  0  0  0  0  0  0  0  0  0  0
  151.2932  137.7584  154.4191 C   0  0  0  0  0  0  0  0  0  0  0  0
  150.5428  139.0919  154.5799 C   0  0  2  0  0  0  0  0  0  0  0  0
  150.6150  139.5522  155.9660 N   0  0  0  0  0  0  0  0  0  0  0  0
  151.7433  139.8029  156.6473 C   0  0  0  0  0  0  0  0  0  0  0  0
  152.8683  139.6543  156.1687 O   0  0  0  0  0  0  0  0  0  0  0  0
  151.5612  140.2773  158.0960 C   0  0  0  0  0  0  0  0  0  0  0  0
  151.8238  141.7153  158.2730 N   0  0  0  0  0  0  0  0  0  0  0  0
  152.6847  142.0869  159.3249 C   0  0  0  0  0  0  0  0  0  0  0  0
  152.9927  143.3702  159.5708 C   0  0  0  0  0  0  0  0  0  0  0  0
  152.4158  144.3853  158.7215 C   0  0  0  0  0  0  0  0  0  0  0  0
  151.5918  144.0408  157.7119 C   0  0  0  0  0  0  0  0  0  0  0  0
  151.2524  142.6393  157.4398 C   0  0  0  0  0  0  0  0  0  0  0  0
  150.5010  142.3147  156.5194 O   0  0  0  0  0  0  0  0  0  0  0  0
  149.0854  138.9228  154.1064 C   0  0  0  0  0  0  0  0  0  0  0  0
  148.3912  137.7330  154.7926 C   0  0  0  0  0  0  0  0  0  0  0  0
  150.6999  132.0834  157.3145 H   0  0  0  0  0  0  0  0  0  0  0  0
  151.5564  132.6126  155.8868 H   0  0  0  0  0  0  0  0  0  0  0  0
  150.2291  131.4785  155.7460 H   0  0  0  0  0  0  0  0  0  0  0  0
  147.4897  135.1525  154.5940 H   0  0  0  0  0  0  0  0  0  0  0  0
  148.1856  135.4356  156.1737 H   0  0  0  0  0  0  0  0  0  0  0  0
  150.5355  136.7291  156.1790 H   0  0  0  0  0  0  0  0  0  0  0  0
  151.0975  135.6688  154.9064 H   0  0  0  0  0  0  0  0  0  0  0  0
  152.3045  137.8420  154.8195 H   0  0  0  0  0  0  0  0  0  0  0  0
  151.4061  137.5366  153.3570 H   0  0  0  0  0  0  0  0  0  0  0  0
  151.0345  139.8368  153.9513 H   0  0  0  0  0  0  0  0  0  0  0  0
  149.7374  139.6920  156.4453 H   0  0  0  0  0  0  0  0  0  0  0  0
  150.5506  140.0403  158.4346 H   0  0  0  0  0  0  0  0  0  0  0  0
  152.2209  139.6842  158.7310 H   0  0  0  0  0  0  0  0  0  0  0  0
  153.0793  141.2682  159.9090 H   0  0  0  0  0  0  0  0  0  0  0  0
  153.6569  143.6359  160.3800 H   0  0  0  0  0  0  0  0  0  0  0  0
  152.6480  145.4257  158.8951 H   0  0  0  0  0  0  0  0  0  0  0  0
  151.1712  144.8139  157.0858 H   0  0  0  0  0  0  0  0  0  0  0  0
  148.5153  139.8368  154.2764 H   0  0  0  0  0  0  0  0  0  0  0  0
  149.0780  138.7622  153.0274 H   0  0  0  0  0  0  0  0  0  0  0  0
  147.3879  137.6211  154.3799 H   0  0  0  0  0  0  0  0  0  0  0  0
  148.2739  137.9244  155.8604 H   0  0  0  0  0  0  0  0  0  0  0  0
  149.2122  136.3291  153.5941 H   0  0  0  0  0  0  0  0  0  0  0  0
  1  2  1  0  0  0  0
  1 23  1  0  0  0  0
  1 24  1  0  0  0  0
  1 25  1  0  0  0  0
  2  3  1  0  0  0  0
  3  4  2  0  0  0  0
  3  5  1  0  0  0  0
  5  6  1  0  0  0  0
  5 26  1  0  0  0  0
  5 27  1  0  0  0  0
  6 22  1  0  0  0  0
  6  7  1  0  0  0  0
  6 44  1  0  0  0  0
  7  8  1  0  0  0  0
  7 28  1  0  0  0  0
  7 29  1  0  0  0  0
  8  9  1  0  0  0  0
  8 30  1  0  0  0  0
  8 31  1  0  0  0  0
  9 10  1  0  0  0  0
  9 21  1  0  0  0  0
  9 32  1  0  0  0  0
 10 11  1  0  0  0  0
 10 33  1  0  0  0  0
 11 12  2  0  0  0  0
 11 13  1  0  0  0  0
 13 14  1  0  0  0  0
 13 34  1  0  0  0  0
 13 35  1  0  0  0  0
 14 19  1  0  0  0  0
 14 15  1  0  0  0  0
 15 16  2  0  0  0  0
 15 36  1  0  0  0  0
 16 17  1  0  0  0  0
 16 37  1  0  0  0  0
 17 18  2  0  0  0  0
 17 38  1  0  0  0  0
 18 19  1  0  0  0  0
 18 39  1  0  0  0  0
 19 20  2  0  0  0  0
 21 22  1  0  0  0  0
 21 40  1  0  0  0  0
 21 41  1  0  0  0  0
 22 42  1  0  0  0  0
 22 43  1  0  0  0  0
M  CHG  1   2  -1
M  CHG  1   6   1
M  END
> <s_m_source_file>
AV-unprocessed.smi

> <i_m_source_file_index>
1202

> <i_lp_mmshare_version>
43012

> <i_f3d_flags>
0

> <s_epik_input>
W0NIM11bTkhdQyg9TylbQ0gyXU4xW0NIMl1bQ0gyXVtDSF0oW0NIMl1bQ0gyXTEpW05IXUMoPU8pW0NIMl1uMltjSF1bY0hdW2NIXVtjSF1jMj1P

> <s_epik_cmdline>
J2VwaWtfcHl0aG9uJywgJy1waCcsICc3LjAnLCAnLXRuJywgJzgnLCAnLW1hJywgJzIwMCcsICctbWV0YWxfYmluZGluZycsICctaW1hZScsICc8aW5maWxlLm1hZT4nLCAnLW9tYWUnLCAnPG91dGZpbGUubWFlPic=

> <r_lp_tautomer_probability>
1

> <r_epik_Ionization_Penalty>
6.12124

> <r_epik_Ionization_Penalty_Charging>
6.12124

> <r_epik_Ionization_Penalty_Neutral>
4.50226e-08

> <r_epik_State_Penalty>
7.08052

> <r_epik_Charging_Adjusted_Penalty>
13.2018

> <i_epik_Tot_Q>
0

> <i_epik_Tot_abs_Q>
2

> <r_epik_Metal_State_Penalty>
3.01282

> <b_epik_Metal_Only>
1

> <s_lp_Force_Field>
OPLS_2005

> <r_lp_Energy>
20.2211

> <b_lp_Chiralities_Consistent>
1

> <s_lp_Variant>
AV-unprocessed.smi:1202-5

> <Gold.Version>
5.8.1

> <Gold.Id.Protein>
6NUR|6NUR_protein|mol2

> <Gold.PLP.Fitness>
50.5702

> <Gold.PLP.PLP>
-42.2280

> <Gold.PLP.part.hbond>
-2.0000

> <Gold.PLP.part.metal>
0.0000

> <Gold.PLP.part.buried>
-5.7663

> <Gold.PLP.part.nonpolar>
-36.2217

> <Gold.PLP.part.repulsive>
0.8215

> <Gold.PLP.ligand.clash>
0.0000

> <Gold.PLP.ligand.torsion>
0.3621

> <Gold.PLP.Chemscore.Hbond>
3.0000

> <Gold.PLP.Chemscore.CHOScore>
0.0000

> <Gold.PLP.Chemscore.Metal>
0.0000

> <Gold.Chemscore.Hbonds>
donor molecule, donor type, donor heavy atom, donor atom, acceptor molecule, acceptor atom, score
      L1  H     6    44       P1  7948  2.00
      P1  H  7997  8008       L1    12  1.00

> <Gold.PLP.Chemscore.Internal.Correction>
0.0665

> <Gold.Rescore>
     Score         DG    S(hbond)    S(metal)    S(lipo)     H(rot)  DE(clash)    DE(int)     intcor
     14.61     -17.34       1.99        0.00      91.59       2.15       0.04       2.68       ----

> <Gold.Chemscore.Fitness>
14.6146

> <Gold.Chemscore.DG>
-17.3374

> <Gold.Chemscore.ZeroCoef>
-5.4800

> <Gold.Chemscore.Hbond>
1.9903

> <Gold.Chemscore.Metal>
0.0000

> <Gold.Chemscore.Lipo>
91.5937

> <Gold.Chemscore.Internal_Hbond>
0.0000

> <Gold.Chemscore.DEClash>
0.0417

> <Gold.Chemscore.DEInternal>
2.6811

> <Gold.Chemscore.Rot>
2.1510

> <Gold.Chemscore.Internal.Correction>
   9.000000E+99

> <Gold.Chemscore.Hbonds>
donor molecule, donor type, donor heavy atom, donor atom, acceptor molecule, acceptor atom, score
      L1  H     6    44       P1  7948  0.93
      P1  H  7997  8008       L1    12  0.95

> <Gold.Chemscore.Hbond.Weighted>
-6.6474

> <Gold.Chemscore.Metal.Weighted>
-0.0000

> <Gold.Chemscore.Lipo.Weighted>
-10.7165

> <Gold.Chemscore.Internal_Hbond.Weighted>
0.0000

> <Gold.Chemscore.DEClash.Weighted>
0.0417

> <Gold.Chemscore.DEInternal.Weighted>
2.6811

> <Gold.Chemscore.Rot.Weighted>
5.5065

> <Gold.Chemscore.Internal.Correction.Weighted>
   9.000000E+99

> <Gold.Protein.RotatedTorsions>
[ 6907 6896 6895 6894 ] final  164.88 input  -60.11 | X-H torsion
[ 7974 7965 7964 7962 ] final  -73.08 input  175.53 | X-H torsion
[ 8008 7997 7996 7995 ] final  -41.62 input   59.86 | X-H torsion
[ 10167 10162 10161 10158 ] final  137.45 input  -65.29 | X-H torsion
[ 10718 10713 10712 10709 ] final -142.36 input   66.30 | X-H torsion
[ 10763 10752 10751 10750 ] final -165.60 input  -60.55 | X-H torsion
[ 11005 11000 10999 10996 ] final   22.05 input  -57.11 | X-H torsion

> <Gold.Protein.ActiveResidues>
 VAL166  LYS551  ARG553  GLY616  TRP617  ASP618  TYR619  PRO620  LYS621  CYS622 
 ASP623  PHE694  ASN695  SER759  ASP760  ASP761  ALA762  ILE779  LEU786  VAL792 
 PHE793  MET794  SER795  GLU796  ALA797  LYS798  CYS799  TRP800  GLU811  SER814 

> <Gold.Protein.RotatedAtoms>
  151.9030  133.3542  159.3836 H   0  0  0  0  0  0  0  0  0  0  0  0  # atno 6907 bound_to 6896
  150.7075  134.4809  159.5479 H   0  0  0  0  0  0  0  0  0  0  0  0  # atno 6908 bound_to 6896
  152.2401  134.8237  160.0512 H   0  0  0  0  0  0  0  0  0  0  0  0  # atno 6909 bound_to 6896
  145.6568  140.9265  143.0955 H   0  0  0  0  0  0  0  0  0  0  0  0  # atno 7974 bound_to 7965
  154.4003  140.1494  156.3221 H   0  0  0  0  0  0  0  0  0  0  0  0  # atno 8008 bound_to 7997
  155.8520  140.3457  155.5678 H   0  0  0  0  0  0  0  0  0  0  0  0  # atno 8009 bound_to 7997
  155.7973  140.0865  157.1966 H   0  0  0  0  0  0  0  0  0  0  0  0  # atno 8010 bound_to 7997
  139.5144  144.6409  151.5571 H   0  0  0  0  0  0  0  0  0  0  0  0  # atno 10167 bound_to 10162
  156.3449  130.7657  151.1800 H   0  0  0  0  0  0  0  0  0  0  0  0  # atno 10718 bound_to 10713
  154.6915  135.2971  154.9472 H   0  0  0  0  0  0  0  0  0  0  0  0  # atno 10763 bound_to 10752
  154.0433  135.6654  153.4796 H   0  0  0  0  0  0  0  0  0  0  0  0  # atno 10764 bound_to 10752
  153.0616  135.5112  154.8011 H   0  0  0  0  0  0  0  0  0  0  0  0  # atno 10765 bound_to 10752
  140.3849  134.1881  155.7663 H   0  0  0  0  0  0  0  0  0  0  0  0  # atno 11005 bound_to 11000
  144.7103  139.8398  143.7417 LP  0  0  0  0  0  0  0  0  0  0  0  0  # atno 17320 bound_to 7965
  146.1158  139.4169  143.0259 LP  0  0  0  0  0  0  0  0  0  0  0  0  # atno 17321 bound_to 7965
  140.6175  143.9320  150.6500 LP  0  0  0  0  0  0  0  0  0  0  0  0  # atno 17342 bound_to 10162
  140.2583  143.3542  152.1345 LP  0  0  0  0  0  0  0  0  0  0  0  0  # atno 17343 bound_to 10162
  157.7452  131.0444  150.4790 LP  0  0  0  0  0  0  0  0  0  0  0  0  # atno 17370 bound_to 10713
  156.4976  130.4110  149.6371 LP  0  0  0  0  0  0  0  0  0  0  0  0  # atno 17371 bound_to 10713
  141.1911  133.8203  157.0893 LP  0  0  0  0  0  0  0  0  0  0  0  0  # atno 17394 bound_to 11000
  140.0450  134.9835  157.1033 LP  0  0  0  0  0  0  0  0  0  0  0  0  # atno 17395 bound_to 11000

$$$$
