AV-unprocessed.smi:1588|AV-procd|sdf|6391|dock6
  -GOLD-   22720 7 23D 1   1.00000     0.00000
 Structure written by MMmdl.
 37 38  0  0  0  0  0  0  0  0  2 V2000
  145.4922  132.3034  149.6380 C   0  0  0  0  0  0  0  0  0  0  0  0
  144.1173  132.8989  149.3055 C   0  0  0  0  0  0  0  0  0  0  0  0
  143.6614  133.8648  150.3334 N   0  3  1  0  0  0  0  0  0  0  0  0
  143.5914  133.3246  151.7102 C   0  0  0  0  0  0  0  0  0  0  0  0
  143.8620  134.5128  152.6289 C   0  0  0  0  0  0  0  0  0  0  0  0
  144.8964  135.3103  151.8381 C   0  0  2  0  0  0  0  0  0  0  0  0
  145.0402  136.7857  152.2594 C   0  0  0  0  0  0  0  0  0  0  0  0
  146.4266  137.1511  152.5311 N   0  0  0  0  0  0  0  0  0  0  0  0
  146.8136  138.2009  153.2698 C   0  0  0  0  0  0  0  0  0  0  0  0
  146.0263  138.9884  153.7952 O   0  0  0  0  0  0  0  0  0  0  0  0
  148.1521  138.2740  153.3535 N   0  0  0  0  0  0  0  0  0  0  0  0
  148.9190  139.2425  154.0495 C   0  0  0  0  0  0  0  0  0  0  0  0
  150.2840  139.0851  154.4139 C   0  0  0  0  0  0  0  0  0  0  0  0
  150.7395  140.1516  155.0556 N   0  0  0  0  0  0  0  0  0  0  0  0
  149.6783  140.9884  155.1042 N   0  0  0  0  0  0  0  0  0  0  0  0
  148.5486  140.4771  154.5045 C   0  0  0  0  0  0  0  0  0  0  0  0
  144.4501  135.1199  150.3818 C   0  0  0  0  0  0  0  0  0  0  0  0
  149.7398  141.8950  155.5457 H   0  0  0  0  0  0  0  0  0  0  0  0
  145.7784  131.5577  148.8957 H   0  0  0  0  0  0  0  0  0  0  0  0
  145.4846  131.8140  150.6125 H   0  0  0  0  0  0  0  0  0  0  0  0
  146.2698  133.0674  149.6503 H   0  0  0  0  0  0  0  0  0  0  0  0
  144.1363  133.3777  148.3251 H   0  0  0  0  0  0  0  0  0  0  0  0
  143.3925  132.0859  149.2441 H   0  0  0  0  0  0  0  0  0  0  0  0
  142.6279  132.8547  151.9095 H   0  0  0  0  0  0  0  0  0  0  0  0
  144.3685  132.5723  151.8558 H   0  0  0  0  0  0  0  0  0  0  0  0
  142.9506  135.0973  152.7631 H   0  0  0  0  0  0  0  0  0  0  0  0
  144.2195  134.2103  153.6138 H   0  0  0  0  0  0  0  0  0  0  0  0
  145.8601  134.8107  151.9533 H   0  0  0  0  0  0  0  0  0  0  0  0
  144.6317  137.4406  151.4879 H   0  0  0  0  0  0  0  0  0  0  0  0
  144.4596  136.9759  153.1625 H   0  0  0  0  0  0  0  0  0  0  0  0
  147.1415  136.5552  152.1394 H   0  0  0  0  0  0  0  0  0  0  0  0
  148.6793  137.5590  152.8742 H   0  0  0  0  0  0  0  0  0  0  0  0
  150.9457  138.2497  154.2380 H   0  0  0  0  0  0  0  0  0  0  0  0
  147.6188  141.0248  154.4609 H   0  0  0  0  0  0  0  0  0  0  0  0
  145.3087  135.1052  149.7086 H   0  0  0  0  0  0  0  0  0  0  0  0
  143.7994  135.9349  150.0627 H   0  0  0  0  0  0  0  0  0  0  0  0
  142.7228  134.1415  150.0827 H   0  0  0  0  0  0  0  0  0  0  0  0
  1  2  1  0  0  0  0
  1 19  1  0  0  0  0
  1 20  1  0  0  0  0
  1 21  1  0  0  0  0
  2  3  1  0  0  0  0
  2 22  1  0  0  0  0
  2 23  1  0  0  0  0
  3 17  1  0  0  0  0
  3  4  1  0  0  0  0
  3 37  1  0  0  0  0
  4  5  1  0  0  0  0
  4 24  1  0  0  0  0
  4 25  1  0  0  0  0
  5  6  1  0  0  0  0
  5 26  1  0  0  0  0
  5 27  1  0  0  0  0
  6  7  1  0  0  0  0
  6 17  1  0  0  0  0
  6 28  1  0  0  0  0
  7  8  1  0  0  0  0
  7 29  1  0  0  0  0
  7 30  1  0  0  0  0
  8  9  1  0  0  0  0
  8 31  1  0  0  0  0
  9 10  2  0  0  0  0
  9 11  1  0  0  0  0
 11 12  1  0  0  0  0
 11 32  1  0  0  0  0
 12 16  2  0  0  0  0
 12 13  1  0  0  0  0
 13 14  2  0  0  0  0
 13 33  1  0  0  0  0
 14 15  1  0  0  0  0
 15 18  1  0  0  0  0
 15 16  1  0  0  0  0
 16 34  1  0  0  0  0
 17 35  1  0  0  0  0
 17 36  1  0  0  0  0
M  CHG  1   3   1
M  END
> <s_m_source_file>
AV-unprocessed.smi

> <i_m_source_file_index>
1588

> <i_lp_mmshare_version>
43012

> <i_f3d_flags>
0

> <s_epik_input>
W0NIM11bQ0gyXU4xW0NIMl1bQ0gyXVtDQEhdKFtDSDJdMSlbQ0gyXVtOSF1DKD1PKVtOSF1jMltjSF1uW25IXVtjSF0y

> <s_epik_cmdline>
J2VwaWtfcHl0aG9uJywgJy1waCcsICc3LjAnLCAnLXRuJywgJzgnLCAnLW1hJywgJzIwMCcsICctbWV0YWxfYmluZGluZycsICctaW1hZScsICc8aW5maWxlLm1hZT4nLCAnLW9tYWUnLCAnPG91dGZpbGUubWFlPic=

> <r_lp_tautomer_probability>
0.5

> <r_epik_Ionization_Penalty>
0.000628417

> <r_epik_Ionization_Penalty_Charging>
0.000582718

> <r_epik_Ionization_Penalty_Neutral>
4.56984e-05

> <r_epik_State_Penalty>
0.000366292

> <r_epik_Charging_Adjusted_Penalty>
0.00094901

> <i_epik_Tot_Q>
1

> <i_epik_Tot_abs_Q>
1

> <r_epik_Metal_State_Penalty>
-0

> <b_epik_Metal_Only>
0

> <s_lp_Force_Field>
OPLS_2005

> <r_lp_Energy>
31.1472

> <b_lp_Chiralities_Consistent>
1

> <s_lp_Variant>
AV-unprocessed.smi:1588-3

> <Gold.Version>
5.8.1

> <Gold.Id.Protein>
6NUR|6NUR_protein|mol2

> <Gold.PLP.Fitness>
43.8385

> <Gold.PLP.PLP>
-31.4654

> <Gold.PLP.part.hbond>
-4.8713

> <Gold.PLP.part.metal>
0.0000

> <Gold.PLP.part.buried>
-2.5976

> <Gold.PLP.part.nonpolar>
-24.7992

> <Gold.PLP.part.repulsive>
0.9259

> <Gold.PLP.ligand.clash>
0.0000

> <Gold.PLP.ligand.torsion>
0.9585

> <Gold.PLP.Chemscore.Hbond>
4.7600

> <Gold.PLP.Chemscore.CHOScore>
0.0000

> <Gold.PLP.Chemscore.Metal>
0.0000

> <Gold.Chemscore.Hbonds>
donor molecule, donor type, donor heavy atom, donor atom, acceptor molecule, acceptor atom, score
      L1  H     3    37       P1 10186  2.00
      L1  H     8    31       P1  7948  0.98
      L1  H    11    32       P1  7948  1.00
      P1  H  7989  7998       L1    14  0.67

> <Gold.PLP.Chemscore.Internal.Correction>
0.0101

> <Gold.Rescore>
     Score         DG    S(hbond)    S(metal)    S(lipo)     H(rot)  DE(clash)    DE(int)     intcor
     17.43     -19.45       2.93        0.00      70.24       1.58       0.02       2.00       ----

> <Gold.Chemscore.Fitness>
17.4268

> <Gold.Chemscore.DG>
-19.4473

> <Gold.Chemscore.ZeroCoef>
-5.4800

> <Gold.Chemscore.Hbond>
2.9287

> <Gold.Chemscore.Metal>
0.0000

> <Gold.Chemscore.Lipo>
70.2427

> <Gold.Chemscore.Internal_Hbond>
0.0000

> <Gold.Chemscore.DEClash>
0.0224

> <Gold.Chemscore.DEInternal>
1.9981

> <Gold.Chemscore.Rot>
1.5753

> <Gold.Chemscore.Internal.Correction>
   9.000000E+99

> <Gold.Chemscore.Hbonds>
donor molecule, donor type, donor heavy atom, donor atom, acceptor molecule, acceptor atom, score
      L1  H     3    37       P1 10186  0.97
      L1  H     8    31       P1  7948  0.93
      L1  H    11    32       P1  7948  0.99
      P1  H  7989  7998       L1    14  0.02

> <Gold.Chemscore.Hbond.Weighted>
-9.7817

> <Gold.Chemscore.Metal.Weighted>
-0.0000

> <Gold.Chemscore.Lipo.Weighted>
-8.2184

> <Gold.Chemscore.Internal_Hbond.Weighted>
0.0000

> <Gold.Chemscore.DEClash.Weighted>
0.0224

> <Gold.Chemscore.DEInternal.Weighted>
1.9981

> <Gold.Chemscore.Rot.Weighted>
4.0328

> <Gold.Chemscore.Internal.Correction.Weighted>
   9.000000E+99

> <Gold.Protein.RotatedTorsions>
[ 6907 6896 6895 6894 ] final  174.83 input  -60.11 | X-H torsion
[ 7974 7965 7964 7962 ] final  -12.99 input  175.53 | X-H torsion
[ 8008 7997 7996 7995 ] final   24.44 input   59.86 | X-H torsion
[ 10167 10162 10161 10158 ] final   30.00 input  -65.29 | X-H torsion
[ 10718 10713 10712 10709 ] final  168.43 input   66.30 | X-H torsion
[ 10763 10752 10751 10750 ] final    7.33 input  -60.55 | X-H torsion
[ 11005 11000 10999 10996 ] final    7.79 input  -57.11 | X-H torsion

> <Gold.Protein.ActiveResidues>
 VAL166  LYS551  ARG553  GLY616  TRP617  ASP618  TYR619  PRO620  LYS621  CYS622 
 ASP623  PHE694  ASN695  SER759  ASP760  ASP761  ALA762  ILE779  LEU786  VAL792 
 PHE793  MET794  SER795  GLU796  ALA797  LYS798  CYS799  TRP800  GLU811  SER814 

> <Gold.Protein.RotatedAtoms>
  151.7459  133.3324  159.3378 H   0  0  0  0  0  0  0  0  0  0  0  0  # atno 6907 bound_to 6896
  150.7554  134.6236  159.6158 H   0  0  0  0  0  0  0  0  0  0  0  0  # atno 6908 bound_to 6896
  152.3500  134.7021  160.0290 H   0  0  0  0  0  0  0  0  0  0  0  0  # atno 6909 bound_to 6896
  146.2131  140.3138  142.8384 H   0  0  0  0  0  0  0  0  0  0  0  0  # atno 7974 bound_to 7965
  154.9964  140.3120  155.4885 H   0  0  0  0  0  0  0  0  0  0  0  0  # atno 8008 bound_to 7997
  156.2932  140.2240  156.5012 H   0  0  0  0  0  0  0  0  0  0  0  0  # atno 8009 bound_to 7997
  154.7657  140.0456  157.0999 H   0  0  0  0  0  0  0  0  0  0  0  0  # atno 8010 bound_to 7997
  140.4716  144.0753  150.6239 H   0  0  0  0  0  0  0  0  0  0  0  0  # atno 10167 bound_to 10162
  157.0372  131.0276  151.2725 H   0  0  0  0  0  0  0  0  0  0  0  0  # atno 10718 bound_to 10713
  153.2375  135.6899  153.7820 H   0  0  0  0  0  0  0  0  0  0  0  0  # atno 10763 bound_to 10752
  153.6962  135.3305  155.3215 H   0  0  0  0  0  0  0  0  0  0  0  0  # atno 10764 bound_to 10752
  154.8341  135.4557  154.1284 H   0  0  0  0  0  0  0  0  0  0  0  0  # atno 10765 bound_to 10752
  140.5443  134.0344  155.7915 H   0  0  0  0  0  0  0  0  0  0  0  0  # atno 11005 bound_to 11000
  144.8969  140.7594  143.5891 LP  0  0  0  0  0  0  0  0  0  0  0  0  # atno 17320 bound_to 7965
  145.3062  139.1833  143.4663 LP  0  0  0  0  0  0  0  0  0  0  0  0  # atno 17321 bound_to 7965
  140.3969  143.2723  151.9993 LP  0  0  0  0  0  0  0  0  0  0  0  0  # atno 17342 bound_to 10162
  139.4819  144.6030  151.7572 LP  0  0  0  0  0  0  0  0  0  0  0  0  # atno 17343 bound_to 10162
  157.5132  130.7951  149.7728 LP  0  0  0  0  0  0  0  0  0  0  0  0  # atno 17370 bound_to 10713
  156.0050  130.3860  150.2465 LP  0  0  0  0  0  0  0  0  0  0  0  0  # atno 17371 bound_to 10713
  141.1209  133.9463  157.2732 LP  0  0  0  0  0  0  0  0  0  0  0  0  # atno 17394 bound_to 11000
  139.9488  135.0179  156.8931 LP  0  0  0  0  0  0  0  0  0  0  0  0  # atno 17395 bound_to 11000

$$$$
