AV-unprocessed.smi:1802|AV-procd|sdf|7271|dock8
  -GOLD-   22720 8533D 1   1.00000     0.00000
 Structure written by MMmdl.
 41 42  0  0  0  0  0  0  0  0  2 V2000
  144.5928  132.2787  149.7594 C   0  0  0  0  0  0  0  0  0  0  0  0
  145.8104  131.7626  150.5394 C   0  0  2  0  0  0  0  0  0  0  0  0
  145.4958  130.4406  151.2594 C   0  0  0  0  0  0  0  0  0  0  0  0
  146.7214  129.9612  152.0460 C   0  0  0  0  0  0  0  0  0  0  0  0
  147.2105  131.0489  153.0147 C   0  0  0  0  0  0  0  0  0  0  0  0
  147.5115  132.3136  152.2949 N   0  3  2  0  0  0  0  0  0  0  0  0
  148.1119  133.3337  153.1918 C   0  0  0  0  0  0  0  0  0  0  0  0
  149.5537  132.9894  153.6041 C   0  0  0  0  0  0  0  0  0  0  0  0
  150.1442  134.0324  154.5679 C   0  0  0  0  0  0  0  0  0  0  0  0
  149.7238  135.3868  154.2268 N   0  0  0  0  0  0  0  0  0  0  0  0
  150.0729  136.4907  154.9033 C   0  0  0  0  0  0  0  0  0  0  0  0
  150.7733  136.4694  155.9160 O   0  0  0  0  0  0  0  0  0  0  0  0
  149.5618  137.5959  154.3326 N   0  0  0  0  0  0  0  0  0  0  0  0
  149.7275  138.9486  154.7325 C   0  0  0  0  0  0  0  0  0  0  0  0
  150.8905  139.4592  155.1668 N   0  0  0  0  0  0  0  0  0  0  0  0
  150.7785  140.8052  155.4898 N   0  0  0  0  0  0  0  0  0  0  0  0
  149.5372  141.2559  155.2877 C   0  0  0  0  0  0  0  0  0  0  0  0
  148.3832  140.0801  154.6827 S   0  0  0  0  0  0  0  0  0  0  0  0
  146.3246  132.8115  151.5469 C   0  0  0  0  0  0  0  0  0  0  0  0
  143.7545  132.4885  150.4245 H   0  0  0  0  0  0  0  0  0  0  0  0
  144.2591  131.5461  149.0240 H   0  0  0  0  0  0  0  0  0  0  0  0
  144.8300  133.1976  149.2226 H   0  0  0  0  0  0  0  0  0  0  0  0
  146.6053  131.5724  149.8165 H   0  0  0  0  0  0  0  0  0  0  0  0
  144.6536  130.5769  151.9394 H   0  0  0  0  0  0  0  0  0  0  0  0
  145.1955  129.6782  150.5396 H   0  0  0  0  0  0  0  0  0  0  0  0
  146.4776  129.0529  152.5980 H   0  0  0  0  0  0  0  0  0  0  0  0
  147.5227  129.6975  151.3543 H   0  0  0  0  0  0  0  0  0  0  0  0
  146.4584  131.2361  153.7831 H   0  0  0  0  0  0  0  0  0  0  0  0
  148.1050  130.6922  153.5269 H   0  0  0  0  0  0  0  0  0  0  0  0
  148.0675  134.3162  152.7192 H   0  0  0  0  0  0  0  0  0  0  0  0
  147.5131  133.4033  154.1011 H   0  0  0  0  0  0  0  0  0  0  0  0
  149.5730  132.0071  154.0782 H   0  0  0  0  0  0  0  0  0  0  0  0
  150.1901  132.9197  152.7224 H   0  0  0  0  0  0  0  0  0  0  0  0
  149.8616  133.8047  155.5974 H   0  0  0  0  0  0  0  0  0  0  0  0
  151.2333  133.9986  154.5314 H   0  0  0  0  0  0  0  0  0  0  0  0
  149.1457  135.4926  153.4056 H   0  0  0  0  0  0  0  0  0  0  0  0
  148.9998  137.4559  153.5060 H   0  0  0  0  0  0  0  0  0  0  0  0
  149.2996  142.2884  155.4966 H   0  0  0  0  0  0  0  0  0  0  0  0
  146.5785  133.7219  151.0053 H   0  0  0  0  0  0  0  0  0  0  0  0
  145.5357  133.0759  152.2529 H   0  0  0  0  0  0  0  0  0  0  0  0
  148.2168  132.0847  151.6091 H   0  0  0  0  0  0  0  0  0  0  0  0
  1  2  1  0  0  0  0
  1 20  1  0  0  0  0
  1 21  1  0  0  0  0
  1 22  1  0  0  0  0
  2 19  1  0  0  0  0
  2  3  1  0  0  0  0
  2 23  1  0  0  0  0
  3  4  1  0  0  0  0
  3 24  1  0  0  0  0
  3 25  1  0  0  0  0
  4  5  1  0  0  0  0
  4 26  1  0  0  0  0
  4 27  1  0  0  0  0
  5  6  1  0  0  0  0
  5 28  1  0  0  0  0
  5 29  1  0  0  0  0
  6  7  1  0  0  0  0
  6 19  1  0  0  0  0
  6 41  1  0  0  0  0
  7  8  1  0  0  0  0
  7 30  1  0  0  0  0
  7 31  1  0  0  0  0
  8  9  1  0  0  0  0
  8 32  1  0  0  0  0
  8 33  1  0  0  0  0
  9 10  1  0  0  0  0
  9 34  1  0  0  0  0
  9 35  1  0  0  0  0
 10 11  1  0  0  0  0
 10 36  1  0  0  0  0
 11 12  2  0  0  0  0
 11 13  1  0  0  0  0
 13 14  1  0  0  0  0
 13 37  1  0  0  0  0
 14 18  1  0  0  0  0
 14 15  2  0  0  0  0
 15 16  1  0  0  0  0
 16 17  2  0  0  0  0
 17 18  1  0  0  0  0
 17 38  1  0  0  0  0
 19 39  1  0  0  0  0
 19 40  1  0  0  0  0
M  CHG  1   6   1
M  END
> <s_m_source_file>
AV-unprocessed.smi

> <i_m_source_file_index>
1802

> <i_lp_mmshare_version>
43012

> <i_f3d_flags>
0

> <s_epik_input>
W0NIM11bQ0BASF0xW0NIMl1bQ0gyXVtDSDJdTihbQ0gyXTEpW0NIMl1bQ0gyXVtDSDJdW05IXUMoPU8pW05IXWMybm5bY0hdczI=

> <s_epik_cmdline>
J2VwaWtfcHl0aG9uJywgJy1waCcsICc3LjAnLCAnLXRuJywgJzgnLCAnLW1hJywgJzIwMCcsICctbWV0YWxfYmluZGluZycsICctaW1hZScsICc8aW5maWxlLm1hZT4nLCAnLW9tYWUnLCAnPG91dGZpbGUubWFlPic=

> <r_lp_tautomer_probability>
1

> <r_epik_Ionization_Penalty>
0.00272894

> <r_epik_Ionization_Penalty_Charging>
0.000288442

> <r_epik_Ionization_Penalty_Neutral>
0.0024405

> <r_epik_State_Penalty>
-0

> <r_epik_Charging_Adjusted_Penalty>
0.000288442

> <i_epik_Tot_Q>
1

> <i_epik_Tot_abs_Q>
1

> <r_epik_Metal_State_Penalty>
0.350525

> <b_epik_Metal_Only>
0

> <s_lp_Force_Field>
OPLS_2005

> <r_lp_Energy>
15.5864

> <b_lp_Chiralities_Consistent>
1

> <s_lp_Variant>
AV-unprocessed.smi:1802-1

> <Gold.Version>
5.8.1

> <Gold.Id.Protein>
6NUR|6NUR_protein|mol2

> <Gold.PLP.Fitness>
48.0267

> <Gold.PLP.PLP>
-37.0990

> <Gold.PLP.part.hbond>
-4.3621

> <Gold.PLP.part.metal>
0.0000

> <Gold.PLP.part.buried>
-2.9063

> <Gold.PLP.part.nonpolar>
-28.5590

> <Gold.PLP.part.repulsive>
0.1827

> <Gold.PLP.ligand.clash>
0.0000

> <Gold.PLP.ligand.torsion>
0.5435

> <Gold.PLP.Chemscore.Hbond>
3.0104

> <Gold.PLP.Chemscore.CHOScore>
0.9691

> <Gold.PLP.Chemscore.Metal>
0.0000

> <Gold.Chemscore.Hbonds>
donor molecule, donor type, donor heavy atom, donor atom, acceptor molecule, acceptor atom, score
      L1  H     6    41       P1 10747  1.00
      L1  H    10    36       P1  7948  0.93
      L1  H    13    37       P1  7948  0.76
      L1  C    17    38       P1  8028  1.00

> <Gold.PLP.Chemscore.Internal.Correction>
0.0761

> <Gold.Rescore>
     Score         DG    S(hbond)    S(metal)    S(lipo)     H(rot)  DE(clash)    DE(int)     intcor
     16.37     -17.87       2.29        0.00      83.88       1.98       0.03       1.47       ----

> <Gold.Chemscore.Fitness>
16.3693

> <Gold.Chemscore.DG>
-17.8658

> <Gold.Chemscore.ZeroCoef>
-5.4800

> <Gold.Chemscore.Hbond>
2.2869

> <Gold.Chemscore.Metal>
0.0000

> <Gold.Chemscore.Lipo>
83.8837

> <Gold.Chemscore.Internal_Hbond>
0.0000

> <Gold.Chemscore.DEClash>
0.0282

> <Gold.Chemscore.DEInternal>
1.4683

> <Gold.Chemscore.Rot>
1.9793

> <Gold.Chemscore.Internal.Correction>
   9.000000E+99

> <Gold.Chemscore.Hbonds>
donor molecule, donor type, donor heavy atom, donor atom, acceptor molecule, acceptor atom, score
      L1  H     6    41       P1 10747  0.95
      L1  H    10    36       P1  7948  0.45
      L1  H    13    37       P1  7948  0.70

> <Gold.Chemscore.Hbond.Weighted>
-7.6384

> <Gold.Chemscore.Metal.Weighted>
-0.0000

> <Gold.Chemscore.Lipo.Weighted>
-9.8144

> <Gold.Chemscore.Internal_Hbond.Weighted>
0.0000

> <Gold.Chemscore.DEClash.Weighted>
0.0282

> <Gold.Chemscore.DEInternal.Weighted>
1.4683

> <Gold.Chemscore.Rot.Weighted>
5.0670

> <Gold.Chemscore.Internal.Correction.Weighted>
   9.000000E+99

> <Gold.Protein.RotatedTorsions>
[ 6907 6896 6895 6894 ] final  131.12 input  -60.11 | X-H torsion
[ 7974 7965 7964 7962 ] final -143.72 input  175.53 | X-H torsion
[ 8008 7997 7996 7995 ] final -156.41 input   59.86 | X-H torsion
[ 10167 10162 10161 10158 ] final  -30.66 input  -65.29 | X-H torsion
[ 10718 10713 10712 10709 ] final  -99.13 input   66.30 | X-H torsion
[ 10763 10752 10751 10750 ] final  -59.40 input  -60.55 | X-H torsion
[ 11005 11000 10999 10996 ] final  -18.54 input  -57.11 | X-H torsion

> <Gold.Protein.ActiveResidues>
 VAL166  LYS551  ARG553  GLY616  TRP617  ASP618  TYR619  PRO620  LYS621  CYS622 
 ASP623  PHE694  ASN695  SER759  ASP760  ASP761  ALA762  ILE779  LEU786  VAL792 
 PHE793  MET794  SER795  GLU796  ALA797  LYS798  CYS799  TRP800  GLU811  SER814 

> <Gold.Protein.RotatedAtoms>
  152.3458  133.6120  159.5908 H   0  0  0  0  0  0  0  0  0  0  0  0  # atno 6907 bound_to 6896
  150.7506  133.9652  159.3537 H   0  0  0  0  0  0  0  0  0  0  0  0  # atno 6908 bound_to 6896
  151.7510  135.0833  160.0382 H   0  0  0  0  0  0  0  0  0  0  0  0  # atno 6909 bound_to 6896
  144.8349  140.5799  143.5491 H   0  0  0  0  0  0  0  0  0  0  0  0  # atno 7974 bound_to 7965
  155.7167  140.0785  157.2348 H   0  0  0  0  0  0  0  0  0  0  0  0  # atno 8008 bound_to 7997
  154.4051  140.1620  156.2410 H   0  0  0  0  0  0  0  0  0  0  0  0  # atno 8009 bound_to 7997
  155.9233  140.3396  155.6193 H   0  0  0  0  0  0  0  0  0  0  0  0  # atno 8010 bound_to 7997
  140.7246  143.3831  151.1564 H   0  0  0  0  0  0  0  0  0  0  0  0  # atno 10167 bound_to 10162
  156.0126  130.5269  150.6625 H   0  0  0  0  0  0  0  0  0  0  0  0  # atno 10718 bound_to 10713
  154.2532  135.6322  153.5247 H   0  0  0  0  0  0  0  0  0  0  0  0  # atno 10763 bound_to 10752
  152.9908  135.5570  154.5785 H   0  0  0  0  0  0  0  0  0  0  0  0  # atno 10764 bound_to 10752
  154.5317  135.2889  155.1149 H   0  0  0  0  0  0  0  0  0  0  0  0  # atno 10765 bound_to 10752
  140.8278  133.8019  155.9727 H   0  0  0  0  0  0  0  0  0  0  0  0  # atno 11005 bound_to 11000
  145.4816  139.1495  143.3758 LP  0  0  0  0  0  0  0  0  0  0  0  0  # atno 17320 bound_to 7965
  146.2648  140.4953  142.8838 LP  0  0  0  0  0  0  0  0  0  0  0  0  # atno 17321 bound_to 7965
  139.7424  143.8904  152.3053 LP  0  0  0  0  0  0  0  0  0  0  0  0  # atno 17342 bound_to 10162
  139.8730  144.7058  150.8965 LP  0  0  0  0  0  0  0  0  0  0  0  0  # atno 17343 bound_to 10162
  157.4364  131.0856  151.0987 LP  0  0  0  0  0  0  0  0  0  0  0  0  # atno 17370 bound_to 10713
  157.1544  130.6198  149.5592 LP  0  0  0  0  0  0  0  0  0  0  0  0  # atno 17371 bound_to 10713
  140.9030  134.2355  157.5030 LP  0  0  0  0  0  0  0  0  0  0  0  0  # atno 17394 bound_to 11000
  139.8706  134.9715  156.4740 LP  0  0  0  0  0  0  0  0  0  0  0  0  # atno 17395 bound_to 11000

$$$$
