AV-unprocessed.smi:235|AV-procd|sdf|1804|dock10
  -GOLD-   2262020383D 1   1.00000     0.00000
 Structure written by MMmdl.
 54 58  0  0  0  0  0  0  0  0  1 V2000
  145.1823  129.0247  152.4867 O   0  0  0  0  0  0  0  0  0  0  0  0
  146.1103  129.5634  151.8815 C   0  0  0  0  0  0  0  0  0  0  0  0
  147.2681  128.9472  151.6031 N   0  0  0  0  0  0  0  0  0  0  0  0
  147.6003  127.6067  151.9615 C   0  0  0  0  0  0  0  0  0  0  0  0
  149.0672  127.2410  152.0317 C   0  0  0  0  0  0  0  0  0  0  0  0
  148.2232  126.7298  150.8968 C   0  0  0  0  0  0  0  0  0  0  0  0
  145.9816  131.0146  151.3915 C   0  0  1  0  0  0  0  0  0  0  0  0
  144.6039  131.2773  150.7612 C   0  0  0  0  0  0  0  0  0  0  0  0
  144.3715  132.7655  151.0027 C   0  0  0  0  0  0  0  0  0  0  0  0
  145.0205  133.0051  152.3648 C   0  0  0  0  0  0  0  0  0  0  0  0
  146.0490  131.9801  152.4922 N   0  0  0  0  0  0  0  0  0  0  0  0
  147.2064  132.2633  153.1483 C   0  0  0  0  0  0  0  0  0  0  0  0
  148.1404  131.2872  153.3046 N   0  0  0  0  0  0  0  0  0  0  0  0
  149.2847  131.5379  153.9460 C   0  0  0  0  0  0  0  0  0  0  0  0
  149.6942  132.6769  154.5056 N   0  0  0  0  0  0  0  0  0  0  0  0
  148.7612  133.6605  154.3602 C   0  0  0  0  0  0  0  0  0  0  0  0
  147.5028  133.5422  153.7033 C   0  0  0  0  0  0  0  0  0  0  0  0
  146.8223  134.7531  153.7735 N   0  0  0  0  0  0  0  0  0  0  0  0
  147.6316  135.5398  154.4280 C   0  0  0  0  0  0  0  0  0  0  0  0
  148.8224  134.9668  154.8118 N   0  0  0  0  0  0  0  0  0  0  0  0
  149.9009  135.6070  155.5477 C   0  0  0  0  0  0  0  0  0  0  0  0
  150.7855  136.5298  154.6802 C   0  0  1  0  0  0  0  0  0  0  0  0
  149.9566  137.3668  153.8980 O   0  0  0  0  0  0  0  0  0  0  0  0
  151.7486  137.4184  155.4933 C   0  0  2  0  0  0  0  0  0  0  0  0
  152.6016  138.3686  154.6505 C   0  0  0  0  0  0  0  0  0  0  0  0
  153.8474  138.5865  155.4970 C   0  0  0  0  0  0  0  0  0  0  0  0
  153.7547  137.5118  156.5834 C   0  0  0  0  0  0  0  0  0  0  0  0
  152.7373  136.6288  156.1361 O   0  0  0  0  0  0  0  0  0  0  0  0
  147.9719  129.4714  151.1039 H   0  0  0  0  0  0  0  0  0  0  0  0
  146.9468  127.1016  152.6718 H   0  0  0  0  0  0  0  0  0  0  0  0
  149.7963  128.0168  151.8055 H   0  0  0  0  0  0  0  0  0  0  0  0
  149.3694  126.5265  152.7947 H   0  0  0  0  0  0  0  0  0  0  0  0
  147.9615  125.6735  150.9010 H   0  0  0  0  0  0  0  0  0  0  0  0
  148.3904  127.1637  149.9127 H   0  0  0  0  0  0  0  0  0  0  0  0
  146.7587  131.2458  150.6601 H   0  0  0  0  0  0  0  0  0  0  0  0
  144.5735  131.0194  149.7022 H   0  0  0  0  0  0  0  0  0  0  0  0
  143.8220  130.7056  151.2647 H   0  0  0  0  0  0  0  0  0  0  0  0
  144.8923  133.3448  150.2391 H   0  0  0  0  0  0  0  0  0  0  0  0
  143.3179  133.0448  150.9781 H   0  0  0  0  0  0  0  0  0  0  0  0
  145.4204  134.0181  152.4322 H   0  0  0  0  0  0  0  0  0  0  0  0
  144.2928  132.8706  153.1659 H   0  0  0  0  0  0  0  0  0  0  0  0
  149.9694  130.7063  154.0227 H   0  0  0  0  0  0  0  0  0  0  0  0
  147.3836  136.5688  154.6452 H   0  0  0  0  0  0  0  0  0  0  0  0
  149.4603  136.1777  156.3660 H   0  0  0  0  0  0  0  0  0  0  0  0
  150.5098  134.8320  156.0151 H   0  0  0  0  0  0  0  0  0  0  0  0
  151.3626  135.9051  153.9975 H   0  0  0  0  0  0  0  0  0  0  0  0
  149.4928  136.8313  153.2726 H   0  0  0  0  0  0  0  0  0  0  0  0
  151.2073  137.9894  156.2503 H   0  0  0  0  0  0  0  0  0  0  0  0
  152.8815  137.8943  153.7090 H   0  0  0  0  0  0  0  0  0  0  0  0
  152.0816  139.2979  154.4155 H   0  0  0  0  0  0  0  0  0  0  0  0
  154.7477  138.4670  154.8930 H   0  0  0  0  0  0  0  0  0  0  0  0
  153.8680  139.5835  155.9383 H   0  0  0  0  0  0  0  0  0  0  0  0
  154.6968  136.9848  156.7354 H   0  0  0  0  0  0  0  0  0  0  0  0
  153.4531  137.9527  157.5345 H   0  0  0  0  0  0  0  0  0  0  0  0
  1  2  2  0  0  0  0
  2  3  1  0  0  0  0
  2  7  1  0  0  0  0
  3  4  1  0  0  0  0
  3 29  1  0  0  0  0
  4  6  1  0  0  0  0
  4  5  1  0  0  0  0
  4 30  1  0  0  0  0
  5  6  1  0  0  0  0
  5 31  1  0  0  0  0
  5 32  1  0  0  0  0
  6 33  1  0  0  0  0
  6 34  1  0  0  0  0
  7 11  1  0  0  0  0
  7  8  1  0  0  0  0
  7 35  1  0  0  0  0
  8  9  1  0  0  0  0
  8 36  1  0  0  0  0
  8 37  1  0  0  0  0
  9 10  1  0  0  0  0
  9 38  1  0  0  0  0
  9 39  1  0  0  0  0
 10 11  1  0  0  0  0
 10 40  1  0  0  0  0
 10 41  1  0  0  0  0
 11 12  1  0  0  0  0
 12 17  1  0  0  0  0
 12 13  2  0  0  0  0
 13 14  1  0  0  0  0
 14 15  2  0  0  0  0
 14 42  1  0  0  0  0
 15 16  1  0  0  0  0
 16 20  1  0  0  0  0
 16 17  2  0  0  0  0
 17 18  1  0  0  0  0
 18 19  2  0  0  0  0
 19 20  1  0  0  0  0
 19 43  1  0  0  0  0
 20 21  1  0  0  0  0
 21 22  1  0  0  0  0
 21 44  1  0  0  0  0
 21 45  1  0  0  0  0
 22 23  1  0  0  0  0
 22 24  1  0  0  0  0
 22 46  1  0  0  0  0
 23 47  1  0  0  0  0
 24 28  1  0  0  0  0
 24 25  1  0  0  0  0
 24 48  1  0  0  0  0
 25 26  1  0  0  0  0
 25 49  1  0  0  0  0
 25 50  1  0  0  0  0
 26 27  1  0  0  0  0
 26 51  1  0  0  0  0
 26 52  1  0  0  0  0
 27 28  1  0  0  0  0
 27 53  1  0  0  0  0
 27 54  1  0  0  0  0
M  END
> <s_m_source_file>
AV-unprocessed.smi

> <i_m_source_file_index>
235

> <i_lp_mmshare_version>
43012

> <i_f3d_flags>
0

> <s_epik_input>
W0NIMl0xW0NIMl1bQ0hdMVtOSF1DKD1PKVtDQEBIXTJbQ0gyXVtDSDJdW0NIMl1OMmMobltjSF1uMyljKGMzNCluW2NIXW40W0NIMl1bQ0BIXShbT0hdKVtDQEBIXTVbQ0gyXVtDSDJdW0NIMl1PNQ==

> <s_epik_cmdline>
J2VwaWtfcHl0aG9uJywgJy1waCcsICc3LjAnLCAnLXRuJywgJzgnLCAnLW1hJywgJzIwMCcsICctbWV0YWxfYmluZGluZycsICctaW1hZScsICc8aW5maWxlLm1hZT4nLCAnLW9tYWUnLCAnPG91dGZpbGUubWFlPic=

> <r_lp_tautomer_probability>
1

> <r_epik_Ionization_Penalty>
0.000526714

> <r_epik_Ionization_Penalty_Charging>
0

> <r_epik_Ionization_Penalty_Neutral>
0.000526714

> <r_epik_State_Penalty>
0.000272704

> <r_epik_Charging_Adjusted_Penalty>
0.000272704

> <i_epik_Tot_Q>
0

> <i_epik_Tot_abs_Q>
0

> <r_epik_Metal_State_Penalty>
-0

> <b_epik_Metal_Only>
0

> <s_lp_Force_Field>
OPLS_2005

> <r_lp_Energy>
57.0845

> <b_lp_Chiralities_Consistent>
1

> <s_lp_Variant>
AV-unprocessed.smi:235-4

> <Gold.Version>
5.8.1

> <Gold.Id.Protein>
6NUR|6NUR_protein|mol2

> <Gold.PLP.Fitness>
49.4708

> <Gold.PLP.PLP>
-42.4614

> <Gold.PLP.part.hbond>
-3.1632

> <Gold.PLP.part.metal>
0.0000

> <Gold.PLP.part.buried>
-0.1220

> <Gold.PLP.part.nonpolar>
-40.5467

> <Gold.PLP.part.repulsive>
1.0587

> <Gold.PLP.ligand.clash>
0.0000

> <Gold.PLP.ligand.torsion>
1.1611

> <Gold.PLP.Chemscore.Hbond>
3.0000

> <Gold.PLP.Chemscore.CHOScore>
0.0000

> <Gold.PLP.Chemscore.Metal>
0.0000

> <Gold.Chemscore.Hbonds>
donor molecule, donor type, donor heavy atom, donor atom, acceptor molecule, acceptor atom, score
      L1  H     3    29       P1 10747  1.00
      L1  H    23    47       P1  7948  1.00
      P1  H 10752 10763       L1    28  0.93

> <Gold.PLP.Chemscore.Internal.Correction>
0.3315

> <Gold.Rescore>
     Score         DG    S(hbond)    S(metal)    S(lipo)     H(rot)  DE(clash)    DE(int)     intcor
     13.01     -19.37       2.65        0.00     101.53       2.68       2.09       4.27       ----

> <Gold.Chemscore.Fitness>
13.0142

> <Gold.Chemscore.DG>
-19.3732

> <Gold.Chemscore.ZeroCoef>
-5.4800

> <Gold.Chemscore.Hbond>
2.6541

> <Gold.Chemscore.Metal>
0.0000

> <Gold.Chemscore.Lipo>
101.5327

> <Gold.Chemscore.Internal_Hbond>
0.0000

> <Gold.Chemscore.DEClash>
2.0874

> <Gold.Chemscore.DEInternal>
4.2715

> <Gold.Chemscore.Rot>
2.6760

> <Gold.Chemscore.Internal.Correction>
   9.000000E+99

> <Gold.Chemscore.Hbonds>
donor molecule, donor type, donor heavy atom, donor atom, acceptor molecule, acceptor atom, score
      L1  H     3    29       P1 10747  0.70
      L1  H    23    47       P1  7948  0.77
      P1  H 10752 10763       L1    28  0.63

> <Gold.Chemscore.Hbond.Weighted>
-8.8645

> <Gold.Chemscore.Metal.Weighted>
-0.0000

> <Gold.Chemscore.Lipo.Weighted>
-11.8793

> <Gold.Chemscore.Internal_Hbond.Weighted>
0.0000

> <Gold.Chemscore.DEClash.Weighted>
2.0874

> <Gold.Chemscore.DEInternal.Weighted>
4.2715

> <Gold.Chemscore.Rot.Weighted>
6.8506

> <Gold.Chemscore.Internal.Correction.Weighted>
   9.000000E+99

> <Gold.Protein.RotatedTorsions>
[ 6907 6896 6895 6894 ] final    2.34 input  -60.11 | X-H torsion
[ 7974 7965 7964 7962 ] final  167.24 input  175.53 | X-H torsion
[ 8008 7997 7996 7995 ] final   39.58 input   59.86 | X-H torsion
[ 10167 10162 10161 10158 ] final  143.36 input  -65.29 | X-H torsion
[ 10718 10713 10712 10709 ] final  -41.01 input   66.30 | X-H torsion
[ 10763 10752 10751 10750 ] final  102.58 input  -60.55 | X-H torsion
[ 11005 11000 10999 10996 ] final  -20.20 input  -57.11 | X-H torsion

> <Gold.Protein.ActiveResidues>
 VAL166  LYS551  ARG553  GLY616  TRP617  ASP618  TYR619  PRO620  LYS621  CYS622 
 ASP623  PHE694  ASN695  SER759  ASP760  ASP761  ALA762  ILE779  LEU786  VAL792 
 PHE793  MET794  SER795  GLU796  ALA797  LYS798  CYS799  TRP800  GLU811  SER814 

> <Gold.Protein.RotatedAtoms>
  151.6073  135.1043  160.0073 H   0  0  0  0  0  0  0  0  0  0  0  0  # atno 6907 bound_to 6896
  152.4227  133.7138  159.6505 H   0  0  0  0  0  0  0  0  0  0  0  0  # atno 6908 bound_to 6896
  150.8114  133.8341  159.3202 H   0  0  0  0  0  0  0  0  0  0  0  0  # atno 6909 bound_to 6896
  144.7432  139.8732  143.6390 H   0  0  0  0  0  0  0  0  0  0  0  0  # atno 7974 bound_to 7965
  155.2389  140.3344  155.4294 H   0  0  0  0  0  0  0  0  0  0  0  0  # atno 8008 bound_to 7997
  156.2264  140.1831  156.7398 H   0  0  0  0  0  0  0  0  0  0  0  0  # atno 8009 bound_to 7997
  154.5906  140.0638  156.9218 H   0  0  0  0  0  0  0  0  0  0  0  0  # atno 8010 bound_to 7997
  139.4971  144.6046  151.6407 H   0  0  0  0  0  0  0  0  0  0  0  0  # atno 10167 bound_to 10162
  156.2750  130.4211  149.8397 H   0  0  0  0  0  0  0  0  0  0  0  0  # atno 10718 bound_to 10713
  153.3414  135.4006  155.1575 H   0  0  0  0  0  0  0  0  0  0  0  0  # atno 10763 bound_to 10752
  154.8644  135.3634  154.5340 H   0  0  0  0  0  0  0  0  0  0  0  0  # atno 10764 bound_to 10752
  153.5786  135.7077  153.5533 H   0  0  0  0  0  0  0  0  0  0  0  0  # atno 10765 bound_to 10752
  140.8441  133.7904  155.9893 H   0  0  0  0  0  0  0  0  0  0  0  0  # atno 11005 bound_to 11000
  146.1265  139.4292  143.0195 LP  0  0  0  0  0  0  0  0  0  0  0  0  # atno 17320 bound_to 7965
  145.7227  141.0069  143.1394 LP  0  0  0  0  0  0  0  0  0  0  0  0  # atno 17321 bound_to 7965
  140.5704  144.0119  150.6214 LP  0  0  0  0  0  0  0  0  0  0  0  0  # atno 17342 bound_to 10162
  140.3234  143.3123  152.0761 LP  0  0  0  0  0  0  0  0  0  0  0  0  # atno 17343 bound_to 10162
  156.5865  130.8488  151.3397 LP  0  0  0  0  0  0  0  0  0  0  0  0  # atno 17370 bound_to 10713
  157.7296  130.9674  150.1796 LP  0  0  0  0  0  0  0  0  0  0  0  0  # atno 17371 bound_to 10713
  140.8863  134.2550  157.5118 LP  0  0  0  0  0  0  0  0  0  0  0  0  # atno 17394 bound_to 11000
  139.8703  134.9639  156.4479 LP  0  0  0  0  0  0  0  0  0  0  0  0  # atno 17395 bound_to 11000

$$$$
