AV-unprocessed.smi:1172|AV-procd|sdf|4943|dock2
  -GOLD-   22720 3523D 1   1.00000     0.00000
 Structure written by MMmdl.
 36 37  0  0  0  0  0  0  0  0  1 V2000
  148.2390  138.3897  153.1049 N   0  0  0  0  0  0  0  0  0  0  0  0
  148.9030  138.8459  154.1703 C   0  0  0  0  0  0  0  0  0  0  0  0
  148.4708  139.7570  154.8728 O   0  0  0  0  0  0  0  0  0  0  0  0
  150.2433  138.1835  154.4957 C   0  0  0  0  0  0  0  0  0  0  0  0
  150.7887  138.6906  155.7425 N   0  0  0  0  0  0  0  0  0  0  0  0
  151.2382  139.9670  156.0206 C   0  0  0  0  0  0  0  0  0  0  0  0
  151.6534  139.9383  157.3219 C   0  0  0  0  0  0  0  0  0  0  0  0
  152.2037  140.9760  158.1163 N   0  0  0  0  0  0  0  0  0  0  0  0
  151.9921  142.3017  158.0065 C   0  0  0  0  0  0  0  0  0  0  0  0
  151.3036  142.8002  157.1152 O   0  0  0  0  0  0  0  0  0  0  0  0
  152.6416  143.0492  158.9357 N   0  0  0  0  0  0  0  0  0  0  0  0
  153.2968  142.5436  160.1557 C   0  0  0  0  0  0  0  0  0  0  0  0
  152.4006  142.8600  161.3674 C   0  0  0  0  0  0  0  0  0  0  0  0
  152.1108  144.3702  161.4560 C   0  0  0  0  0  0  0  0  0  0  0  0
  151.6051  144.9296  160.1108 C   0  0  1  0  0  0  0  0  0  0  0  0
  151.5316  146.3374  160.1832 O   0  0  0  0  0  0  0  0  0  0  0  0
  152.5405  144.5150  158.9582 C   0  0  0  0  0  0  0  0  0  0  0  0
  151.4240  138.6124  157.7720 C   0  0  0  0  0  0  0  0  0  0  0  0
  150.9001  137.8645  156.8130 N   0  0  0  0  0  0  0  0  0  0  0  0
  147.3507  138.8008  152.8566 H   0  0  0  0  0  0  0  0  0  0  0  0
  148.6241  137.6381  152.5513 H   0  0  0  0  0  0  0  0  0  0  0  0
  150.1278  137.1018  154.5780 H   0  0  0  0  0  0  0  0  0  0  0  0
  150.9503  138.3686  153.6852 H   0  0  0  0  0  0  0  0  0  0  0  0
  151.2207  140.7533  155.2806 H   0  0  0  0  0  0  0  0  0  0  0  0
  152.8114  140.6794  158.8659 H   0  0  0  0  0  0  0  0  0  0  0  0
  153.5201  141.4771  160.1316 H   0  0  0  0  0  0  0  0  0  0  0  0
  154.2637  143.0354  160.2716 H   0  0  0  0  0  0  0  0  0  0  0  0
  151.4620  142.3110  161.2800 H   0  0  0  0  0  0  0  0  0  0  0  0
  152.8759  142.5172  162.2867 H   0  0  0  0  0  0  0  0  0  0  0  0
  151.3869  144.5686  162.2473 H   0  0  0  0  0  0  0  0  0  0  0  0
  153.0290  144.8860  161.7414 H   0  0  0  0  0  0  0  0  0  0  0  0
  150.6013  144.5498  159.9145 H   0  0  0  0  0  0  0  0  0  0  0  0
  150.7771  146.6253  159.6928 H   0  0  0  0  0  0  0  0  0  0  0  0
  153.5349  144.9408  159.1036 H   0  0  0  0  0  0  0  0  0  0  0  0
  152.1813  144.9253  158.0129 H   0  0  0  0  0  0  0  0  0  0  0  0
  151.6151  138.1760  158.7413 H   0  0  0  0  0  0  0  0  0  0  0  0
  1  2  1  0  0  0  0
  1 20  1  0  0  0  0
  1 21  1  0  0  0  0
  2  3  2  0  0  0  0
  2  4  1  0  0  0  0
  4  5  1  0  0  0  0
  4 22  1  0  0  0  0
  4 23  1  0  0  0  0
  5 19  1  0  0  0  0
  5  6  1  0  0  0  0
  6  7  2  0  0  0  0
  6 24  1  0  0  0  0
  7  8  1  0  0  0  0
  7 18  1  0  0  0  0
  8  9  1  0  0  0  0
  8 25  1  0  0  0  0
  9 10  2  0  0  0  0
  9 11  1  0  0  0  0
 11 17  1  0  0  0  0
 11 12  1  0  0  0  0
 12 13  1  0  0  0  0
 12 26  1  0  0  0  0
 12 27  1  0  0  0  0
 13 14  1  0  0  0  0
 13 28  1  0  0  0  0
 13 29  1  0  0  0  0
 14 15  1  0  0  0  0
 14 30  1  0  0  0  0
 14 31  1  0  0  0  0
 15 16  1  0  0  0  0
 15 17  1  0  0  0  0
 15 32  1  0  0  0  0
 16 33  1  0  0  0  0
 17 34  1  0  0  0  0
 17 35  1  0  0  0  0
 18 19  2  0  0  0  0
 18 36  1  0  0  0  0
M  END
> <s_m_source_file>
AV-unprocessed.smi

> <i_m_source_file_index>
1172

> <i_lp_mmshare_version>
43012

> <i_f3d_flags>
0

> <s_epik_input>
W05IMl1DKD1PKVtDSDJdbjFbY0hdYyhbY0hdbjEpW05IXUMoPU8pTjJbQ0gyXVtDSDJdW0NIMl1bQ0BASF0oW09IXSlbQ0gyXTI=

> <s_epik_cmdline>
J2VwaWtfcHl0aG9uJywgJy1waCcsICc3LjAnLCAnLXRuJywgJzgnLCAnLW1hJywgJzIwMCcsICctbWV0YWxfYmluZGluZycsICctaW1hZScsICc8aW5maWxlLm1hZT4nLCAnLW9tYWUnLCAnPG91dGZpbGUubWFlPic=

> <r_lp_tautomer_probability>
1

> <r_epik_Ionization_Penalty>
4.44977e-05

> <r_epik_Ionization_Penalty_Charging>
0

> <r_epik_Ionization_Penalty_Neutral>
4.44977e-05

> <r_epik_State_Penalty>
-0

> <r_epik_Charging_Adjusted_Penalty>
0

> <i_epik_Tot_Q>
0

> <i_epik_Tot_abs_Q>
0

> <r_epik_Metal_State_Penalty>
-0

> <b_epik_Metal_Only>
0

> <s_lp_Force_Field>
OPLS_2005

> <r_lp_Energy>
33.3056

> <b_lp_Chiralities_Consistent>
1

> <s_lp_Variant>
AV-unprocessed.smi:1172-1

> <Gold.Version>
5.8.1

> <Gold.Id.Protein>
6NUR|6NUR_protein|mol2

> <Gold.PLP.Fitness>
44.8709

> <Gold.PLP.PLP>
-42.3357

> <Gold.PLP.part.hbond>
-4.9480

> <Gold.PLP.part.metal>
0.0000

> <Gold.PLP.part.buried>
-5.2082

> <Gold.PLP.part.nonpolar>
-32.9659

> <Gold.PLP.part.repulsive>
0.3220

> <Gold.PLP.ligand.clash>
0.0000

> <Gold.PLP.ligand.torsion>
0.2703

> <Gold.PLP.Chemscore.Hbond>
1.0000

> <Gold.PLP.Chemscore.CHOScore>
0.0000

> <Gold.PLP.Chemscore.Metal>
0.0000

> <Gold.Chemscore.Hbonds>
donor molecule, donor type, donor heavy atom, donor atom, acceptor molecule, acceptor atom, score
      L1  H     1    21       P1  7948  1.00

> <Gold.PLP.Chemscore.Internal.Correction>
0.0757

> <Gold.Rescore>
     Score         DG    S(hbond)    S(metal)    S(lipo)     H(rot)  DE(clash)    DE(int)     intcor
     12.14     -12.96       0.99        0.00      83.73       2.20       0.23       0.58       ----

> <Gold.Chemscore.Fitness>
12.1427

> <Gold.Chemscore.DG>
-12.9552

> <Gold.Chemscore.ZeroCoef>
-5.4800

> <Gold.Chemscore.Hbond>
0.9886

> <Gold.Chemscore.Metal>
0.0000

> <Gold.Chemscore.Lipo>
83.7305

> <Gold.Chemscore.Internal_Hbond>
0.0000

> <Gold.Chemscore.DEClash>
0.2346

> <Gold.Chemscore.DEInternal>
0.5779

> <Gold.Chemscore.Rot>
2.1966

> <Gold.Chemscore.Internal.Correction>
   9.000000E+99

> <Gold.Chemscore.Hbonds>
donor molecule, donor type, donor heavy atom, donor atom, acceptor molecule, acceptor atom, score
      L1  H     1    21       P1  7948  0.97

> <Gold.Chemscore.Hbond.Weighted>
-3.3019

> <Gold.Chemscore.Metal.Weighted>
-0.0000

> <Gold.Chemscore.Lipo.Weighted>
-9.7965

> <Gold.Chemscore.Internal_Hbond.Weighted>
0.0000

> <Gold.Chemscore.DEClash.Weighted>
0.2346

> <Gold.Chemscore.DEInternal.Weighted>
0.5779

> <Gold.Chemscore.Rot.Weighted>
5.6232

> <Gold.Chemscore.Internal.Correction.Weighted>
   9.000000E+99

> <Gold.Protein.RotatedTorsions>
[ 6907 6896 6895 6894 ] final  168.60 input  -60.11 | X-H torsion
[ 7974 7965 7964 7962 ] final  145.97 input  175.53 | X-H torsion
[ 8008 7997 7996 7995 ] final -115.90 input   59.86 | X-H torsion
[ 10167 10162 10161 10158 ] final -146.64 input  -65.29 | X-H torsion
[ 10718 10713 10712 10709 ] final  -67.78 input   66.30 | X-H torsion
[ 10763 10752 10751 10750 ] final    1.93 input  -60.55 | X-H torsion
[ 11005 11000 10999 10996 ] final  -16.30 input  -57.11 | X-H torsion

> <Gold.Protein.ActiveResidues>
 VAL166  LYS551  ARG553  GLY616  TRP617  ASP618  TYR619  PRO620  LYS621  CYS622 
 ASP623  PHE694  ASN695  SER759  ASP760  ASP761  ALA762  ILE779  LEU786  VAL792 
 PHE793  MET794  SER795  GLU796  ALA797  LYS798  CYS799  TRP800  GLU811  SER814 

> <Gold.Protein.RotatedAtoms>
  151.8451  133.3430  159.3655 H   0  0  0  0  0  0  0  0  0  0  0  0  # atno 6907 bound_to 6896
  150.7223  134.5353  159.5730 H   0  0  0  0  0  0  0  0  0  0  0  0  # atno 6908 bound_to 6896
  152.2835  134.7802  160.0443 H   0  0  0  0  0  0  0  0  0  0  0  0  # atno 6909 bound_to 6896
  144.8709  139.5847  143.5887 H   0  0  0  0  0  0  0  0  0  0  0  0  # atno 7974 bound_to 7965
  155.0594  140.0393  157.2571 H   0  0  0  0  0  0  0  0  0  0  0  0  # atno 8008 bound_to 7997
  154.7072  140.2685  155.6639 H   0  0  0  0  0  0  0  0  0  0  0  0  # atno 8009 bound_to 7997
  156.2778  140.2729  156.1702 H   0  0  0  0  0  0  0  0  0  0  0  0  # atno 8010 bound_to 7997
  139.7694  143.8259  152.2622 H   0  0  0  0  0  0  0  0  0  0  0  0  # atno 10167 bound_to 10162
  156.0539  130.4283  150.1904 H   0  0  0  0  0  0  0  0  0  0  0  0  # atno 10718 bound_to 10713
  153.3019  135.6956  153.7195 H   0  0  0  0  0  0  0  0  0  0  0  0  # atno 10763 bound_to 10752
  153.6106  135.3445  155.2978 H   0  0  0  0  0  0  0  0  0  0  0  0  # atno 10764 bound_to 10752
  154.8553  135.4362  154.2133 H   0  0  0  0  0  0  0  0  0  0  0  0  # atno 10765 bound_to 10752
  140.8054  133.8181  155.9511 H   0  0  0  0  0  0  0  0  0  0  0  0  # atno 11005 bound_to 11000
  146.2929  139.7193  142.9147 LP  0  0  0  0  0  0  0  0  0  0  0  0  # atno 17320 bound_to 7965
  145.4132  141.0399  143.3005 LP  0  0  0  0  0  0  0  0  0  0  0  0  # atno 17321 bound_to 7965
  139.8289  144.7262  150.9476 LP  0  0  0  0  0  0  0  0  0  0  0  0  # atno 17342 bound_to 10162
  140.7813  143.4088  151.1027 LP  0  0  0  0  0  0  0  0  0  0  0  0  # atno 17343 bound_to 10162
  156.9983  130.9914  151.3397 LP  0  0  0  0  0  0  0  0  0  0  0  0  # atno 17370 bound_to 10713
  157.5492  130.8171  149.8124 LP  0  0  0  0  0  0  0  0  0  0  0  0  # atno 17371 bound_to 10713
  140.9252  134.2091  157.4900 LP  0  0  0  0  0  0  0  0  0  0  0  0  # atno 17394 bound_to 11000
  139.8718  134.9809  156.5096 LP  0  0  0  0  0  0  0  0  0  0  0  0  # atno 17395 bound_to 11000

$$$$
