AV-unprocessed.smi:1176|AV-procd|sdf|4952|dock6
  -GOLD-   22720 3543D 1   1.00000     0.00000
 Structure written by MMmdl.
 50 51  0  0  0  0  0  0  0  0  2 V2000
  145.1560  133.1260  150.6046 C   0  0  0  0  0  0  0  0  0  0  0  0
  145.9186  134.1267  151.4858 C   0  0  0  0  0  0  0  0  0  0  0  0
  145.9966  133.6150  152.9340 C   0  0  0  0  0  0  0  0  0  0  0  0
  145.2688  135.5252  151.4034 C   0  0  0  0  0  0  0  0  0  0  0  0
  146.1701  136.6168  151.8562 N   0  3  2  0  0  0  0  0  0  0  0  0
  146.1348  136.7967  153.3309 C   0  0  0  0  0  0  0  0  0  0  0  0
  147.1700  137.8355  153.7935 C   0  0  0  0  0  0  0  0  0  0  0  0
  146.9590  139.1833  153.0808 C   0  0  1  0  0  0  0  0  0  0  0  0
  147.9933  140.1432  153.4542 N   0  0  0  0  0  0  0  0  0  0  0  0
  147.9859  140.8898  154.5690 C   0  0  0  0  0  0  0  0  0  0  0  0
  147.1010  140.8163  155.4227 O   0  0  0  0  0  0  0  0  0  0  0  0
  149.1725  141.8468  154.7479 C   0  0  0  0  0  0  0  0  0  0  0  0
  150.1859  141.3360  155.6800 N   0  0  0  0  0  0  0  0  0  0  0  0
  150.4376  142.0150  156.8584 C   0  0  0  0  0  0  0  0  0  0  0  0
  151.3669  141.6258  157.7584 C   0  0  0  0  0  0  0  0  0  0  0  0
  152.1747  140.4335  157.5322 C   0  0  0  0  0  0  0  0  0  0  0  0
  153.0484  140.0557  158.3137 O   0  0  0  0  0  0  0  0  0  0  0  0
  151.8844  139.7470  156.3289 N   0  0  0  0  0  0  0  0  0  0  0  0
  152.6569  138.5630  156.0146 C   0  0  0  0  0  0  0  0  0  0  0  0
  150.9242  140.1701  155.3821 C   0  0  0  0  0  0  0  0  0  0  0  0
  150.7330  139.5606  154.3268 O   0  0  0  0  0  0  0  0  0  0  0  0
  146.9734  138.9627  151.5604 C   0  0  0  0  0  0  0  0  0  0  0  0
  145.9394  137.9029  151.1447 C   0  0  0  0  0  0  0  0  0  0  0  0
  144.1242  133.0083  150.9377 H   0  0  0  0  0  0  0  0  0  0  0  0
  145.6268  132.1426  150.6273 H   0  0  0  0  0  0  0  0  0  0  0  0
  145.1342  133.4532  149.5648 H   0  0  0  0  0  0  0  0  0  0  0  0
  146.9339  134.1767  151.0936 H   0  0  0  0  0  0  0  0  0  0  0  0
  145.0054  133.5394  153.3823 H   0  0  0  0  0  0  0  0  0  0  0  0
  146.5966  134.2756  153.5604 H   0  0  0  0  0  0  0  0  0  0  0  0
  146.4545  132.6262  152.9757 H   0  0  0  0  0  0  0  0  0  0  0  0
  144.9350  135.7367  150.3862 H   0  0  0  0  0  0  0  0  0  0  0  0
  144.3681  135.5163  152.0194 H   0  0  0  0  0  0  0  0  0  0  0  0
  145.1327  137.1006  153.6380 H   0  0  0  0  0  0  0  0  0  0  0  0
  146.3429  135.8459  153.8234 H   0  0  0  0  0  0  0  0  0  0  0  0
  147.0994  137.9632  154.8744 H   0  0  0  0  0  0  0  0  0  0  0  0
  148.1750  137.4615  153.5920 H   0  0  0  0  0  0  0  0  0  0  0  0
  145.9832  139.5867  153.3591 H   0  0  0  0  0  0  0  0  0  0  0  0
  148.7616  140.2636  152.8099 H   0  0  0  0  0  0  0  0  0  0  0  0
  149.6205  142.0202  153.7686 H   0  0  0  0  0  0  0  0  0  0  0  0
  148.8144  142.8217  155.0844 H   0  0  0  0  0  0  0  0  0  0  0  0
  149.8688  142.9086  157.0701 H   0  0  0  0  0  0  0  0  0  0  0  0
  151.5181  142.2068  158.6563 H   0  0  0  0  0  0  0  0  0  0  0  0
  152.0194  137.8478  155.4925 H   0  0  0  0  0  0  0  0  0  0  0  0
  153.0071  138.0912  156.9333 H   0  0  0  0  0  0  0  0  0  0  0  0
  153.4908  138.8860  155.3901 H   0  0  0  0  0  0  0  0  0  0  0  0
  146.7659  139.9007  151.0440 H   0  0  0  0  0  0  0  0  0  0  0  0
  147.9667  138.6450  151.2388 H   0  0  0  0  0  0  0  0  0  0  0  0
  146.0011  137.7586  150.0670 H   0  0  0  0  0  0  0  0  0  0  0  0
  144.9310  138.2621  151.3567 H   0  0  0  0  0  0  0  0  0  0  0  0
  147.1094  136.3194  151.6337 H   0  0  0  0  0  0  0  0  0  0  0  0
  1  2  1  0  0  0  0
  1 24  1  0  0  0  0
  1 25  1  0  0  0  0
  1 26  1  0  0  0  0
  2  3  1  0  0  0  0
  2  4  1  0  0  0  0
  2 27  1  0  0  0  0
  3 28  1  0  0  0  0
  3 29  1  0  0  0  0
  3 30  1  0  0  0  0
  4  5  1  0  0  0  0
  4 31  1  0  0  0  0
  4 32  1  0  0  0  0
  5 23  1  0  0  0  0
  5  6  1  0  0  0  0
  5 50  1  0  0  0  0
  6  7  1  0  0  0  0
  6 33  1  0  0  0  0
  6 34  1  0  0  0  0
  7  8  1  0  0  0  0
  7 35  1  0  0  0  0
  7 36  1  0  0  0  0
  8  9  1  0  0  0  0
  8 22  1  0  0  0  0
  8 37  1  0  0  0  0
  9 10  1  0  0  0  0
  9 38  1  0  0  0  0
 10 11  2  0  0  0  0
 10 12  1  0  0  0  0
 12 13  1  0  0  0  0
 12 39  1  0  0  0  0
 12 40  1  0  0  0  0
 13 20  1  0  0  0  0
 13 14  1  0  0  0  0
 14 15  2  0  0  0  0
 14 41  1  0  0  0  0
 15 16  1  0  0  0  0
 15 42  1  0  0  0  0
 16 17  2  0  0  0  0
 16 18  1  0  0  0  0
 18 19  1  0  0  0  0
 18 20  1  0  0  0  0
 19 43  1  0  0  0  0
 19 44  1  0  0  0  0
 19 45  1  0  0  0  0
 20 21  2  0  0  0  0
 22 23  1  0  0  0  0
 22 46  1  0  0  0  0
 22 47  1  0  0  0  0
 23 48  1  0  0  0  0
 23 49  1  0  0  0  0
M  CHG  1   5   1
M  END
> <s_m_source_file>
AV-unprocessed.smi

> <i_m_source_file_index>
1176

> <i_lp_mmshare_version>
43012

> <i_f3d_flags>
0

> <s_epik_input>
W0NIM11bQ0hdKFtDSDNdKVtDSDJdTjFbQ0gyXVtDSDJdW0NIXShbQ0gyXVtDSDJdMSlbTkhdQyg9TylbQ0gyXW4yW2NIXVtjSF1jKD1PKW4oW0NIM10pYzI9Tw==

> <s_epik_cmdline>
J2VwaWtfcHl0aG9uJywgJy1waCcsICc3LjAnLCAnLXRuJywgJzgnLCAnLW1hJywgJzIwMCcsICctbWV0YWxfYmluZGluZycsICctaW1hZScsICc8aW5maWxlLm1hZT4nLCAnLW9tYWUnLCAnPG91dGZpbGUubWFlPic=

> <r_lp_tautomer_probability>
1

> <r_epik_Ionization_Penalty>
0.00401429

> <r_epik_Ionization_Penalty_Charging>
0.00401425

> <r_epik_Ionization_Penalty_Neutral>
4.29561e-08

> <r_epik_State_Penalty>
0.00287487

> <r_epik_Charging_Adjusted_Penalty>
0.00688912

> <i_epik_Tot_Q>
1

> <i_epik_Tot_abs_Q>
1

> <r_epik_Metal_State_Penalty>
-0

> <b_epik_Metal_Only>
0

> <s_lp_Force_Field>
OPLS_2005

> <r_lp_Energy>
26.9025

> <b_lp_Chiralities_Consistent>
1

> <s_lp_Variant>
AV-unprocessed.smi:1176-1

> <Gold.Version>
5.8.1

> <Gold.Id.Protein>
6NUR|6NUR_protein|mol2

> <Gold.PLP.Fitness>
52.5579

> <Gold.PLP.PLP>
-38.2158

> <Gold.PLP.part.hbond>
-4.0000

> <Gold.PLP.part.metal>
0.0000

> <Gold.PLP.part.buried>
6.0594

> <Gold.PLP.part.nonpolar>
-40.0127

> <Gold.PLP.part.repulsive>
0.3263

> <Gold.PLP.ligand.clash>
0.0000

> <Gold.PLP.ligand.torsion>
1.0707

> <Gold.PLP.Chemscore.Hbond>
4.4500

> <Gold.PLP.Chemscore.CHOScore>
1.0000

> <Gold.PLP.Chemscore.Metal>
0.0000

> <Gold.Chemscore.Hbonds>
donor molecule, donor type, donor heavy atom, donor atom, acceptor molecule, acceptor atom, score
      L1  H     5    50       P1  7948  2.00
      L1  H     9    38       P1  7957  1.00
      P1  H  7989  7998       L1    21  0.40
      P1  H  7997  8010       L1    17  0.95
      L1  C    14    41       P1  8028  1.00

> <Gold.PLP.Chemscore.Internal.Correction>
0.1335

> <Gold.Rescore>
     Score         DG    S(hbond)    S(metal)    S(lipo)     H(rot)  DE(clash)    DE(int)     intcor
     12.74     -19.02       2.52        0.00      85.79       1.92       3.97       2.32       ----

> <Gold.Chemscore.Fitness>
12.7364

> <Gold.Chemscore.DG>
-19.0233

> <Gold.Chemscore.ZeroCoef>
-5.4800

> <Gold.Chemscore.Hbond>
2.5211

> <Gold.Chemscore.Metal>
0.0000

> <Gold.Chemscore.Lipo>
85.7908

> <Gold.Chemscore.Internal_Hbond>
0.0000

> <Gold.Chemscore.DEClash>
3.9686

> <Gold.Chemscore.DEInternal>
2.3183

> <Gold.Chemscore.Rot>
1.9198

> <Gold.Chemscore.Internal.Correction>
   9.000000E+99

> <Gold.Chemscore.Hbonds>
donor molecule, donor type, donor heavy atom, donor atom, acceptor molecule, acceptor atom, score
      L1  H     5    50       P1  7948  0.99
      L1  H     9    38       P1  7957  0.97
      P1  H  7989  7998       L1    21  0.01
      P1  H  7997  8010       L1    17  0.20

> <Gold.Chemscore.Hbond.Weighted>
-8.4204

> <Gold.Chemscore.Metal.Weighted>
-0.0000

> <Gold.Chemscore.Lipo.Weighted>
-10.0375

> <Gold.Chemscore.Internal_Hbond.Weighted>
0.0000

> <Gold.Chemscore.DEClash.Weighted>
3.9686

> <Gold.Chemscore.DEInternal.Weighted>
2.3183

> <Gold.Chemscore.Rot.Weighted>
4.9147

> <Gold.Chemscore.Internal.Correction.Weighted>
   9.000000E+99

> <Gold.Protein.RotatedTorsions>
[ 6907 6896 6895 6894 ] final  -18.41 input  -60.11 | X-H torsion
[ 7974 7965 7964 7962 ] final  153.96 input  175.53 | X-H torsion
[ 8008 7997 7996 7995 ] final   31.47 input   59.86 | X-H torsion
[ 10167 10162 10161 10158 ] final -110.58 input  -65.29 | X-H torsion
[ 10718 10713 10712 10709 ] final  166.11 input   66.30 | X-H torsion
[ 10763 10752 10751 10750 ] final -132.05 input  -60.55 | X-H torsion
[ 11005 11000 10999 10996 ] final   -6.76 input  -57.11 | X-H torsion

> <Gold.Protein.ActiveResidues>
 VAL166  LYS551  ARG553  GLY616  TRP617  ASP618  TYR619  PRO620  LYS621  CYS622 
 ASP623  PHE694  ASN695  SER759  ASP760  ASP761  ALA762  ILE779  LEU786  VAL792 
 PHE793  MET794  SER795  GLU796  ALA797  LYS798  CYS799  TRP800  GLU811  SER814 

> <Gold.Protein.RotatedAtoms>
  151.2785  135.0706  159.9160 H   0  0  0  0  0  0  0  0  0  0  0  0  # atno 6907 bound_to 6896
  152.5338  134.0055  159.7925 H   0  0  0  0  0  0  0  0  0  0  0  0  # atno 6908 bound_to 6896
  151.0305  133.5744  159.2692 H   0  0  0  0  0  0  0  0  0  0  0  0  # atno 6909 bound_to 6896
  144.8120  139.6870  143.6137 H   0  0  0  0  0  0  0  0  0  0  0  0  # atno 7974 bound_to 7965
  155.1070  140.3235  155.4532 H   0  0  0  0  0  0  0  0  0  0  0  0  # atno 8008 bound_to 7997
  156.2701  140.2051  156.6142 H   0  0  0  0  0  0  0  0  0  0  0  0  # atno 8009 bound_to 7997
  154.6785  140.0529  157.0228 H   0  0  0  0  0  0  0  0  0  0  0  0  # atno 8010 bound_to 7997
  140.1430  143.4263  152.1549 H   0  0  0  0  0  0  0  0  0  0  0  0  # atno 10167 bound_to 10162
  157.0706  131.0365  151.2613 H   0  0  0  0  0  0  0  0  0  0  0  0  # atno 10718 bound_to 10713
  154.8746  135.3810  154.4346 H   0  0  0  0  0  0  0  0  0  0  0  0  # atno 10763 bound_to 10752
  153.5036  135.7030  153.5823 H   0  0  0  0  0  0  0  0  0  0  0  0  # atno 10764 bound_to 10752
  153.4144  135.3917  155.2037 H   0  0  0  0  0  0  0  0  0  0  0  0  # atno 10765 bound_to 10752
  140.7055  133.8953  155.8713 H   0  0  0  0  0  0  0  0  0  0  0  0  # atno 11005 bound_to 11000
  146.2419  139.6019  142.9485 LP  0  0  0  0  0  0  0  0  0  0  0  0  # atno 17320 bound_to 7965
  145.5302  141.0427  143.2387 LP  0  0  0  0  0  0  0  0  0  0  0  0  # atno 17321 bound_to 7965
  139.5463  144.7301  151.4574 LP  0  0  0  0  0  0  0  0  0  0  0  0  # atno 17342 bound_to 10162
  140.6749  143.8212  150.7046 LP  0  0  0  0  0  0  0  0  0  0  0  0  # atno 17343 bound_to 10162
  157.4881  130.7805  149.7480 LP  0  0  0  0  0  0  0  0  0  0  0  0  # atno 17370 bound_to 10713
  155.9951  130.3913  150.2830 LP  0  0  0  0  0  0  0  0  0  0  0  0  # atno 17371 bound_to 10713
  141.0128  134.0996  157.4203 LP  0  0  0  0  0  0  0  0  0  0  0  0  # atno 17394 bound_to 11000
  139.8885  135.0098  156.6626 LP  0  0  0  0  0  0  0  0  0  0  0  0  # atno 17395 bound_to 11000

$$$$
