AV-unprocessed.smi:2991|AV-procd|sdf|11399|dock10
  -GOLD-   2272016323D 1   1.00000     0.00000
 Structure written by MMmdl.
 38 39  0  0  0  0  0  0  0  0  2 V2000
  147.7527  130.0155  153.2328 C   0  0  0  0  0  0  0  0  0  0  0  0
  148.6628  131.0035  153.9369 C   0  0  0  0  0  0  0  0  0  0  0  0
  149.5806  130.5100  154.7971 N   0  3  0  0  0  0  0  0  0  0  0  0
  150.4387  131.2916  155.4850 C   0  0  0  0  0  0  0  0  0  0  0  0
  150.4055  132.6893  155.3162 C   0  0  0  0  0  0  0  0  0  0  0  0
  149.4738  133.2604  154.4124 C   0  0  0  0  0  0  0  0  0  0  0  0
  149.3629  134.6627  154.1978 N   0  0  0  0  0  0  0  0  0  0  0  0
  149.9521  135.6609  154.8775 C   0  0  0  0  0  0  0  0  0  0  0  0
  150.7116  135.5158  155.8353 O   0  0  0  0  0  0  0  0  0  0  0  0
  149.6216  136.8555  154.3670 N   0  0  0  0  0  0  0  0  0  0  0  0
  150.1153  138.1510  154.8338 C   0  0  2  0  0  0  0  0  0  0  0  0
  149.2332  139.3030  154.2870 C   0  0  0  0  0  0  0  0  0  0  0  0
  149.9112  140.6853  154.1822 C   0  0  0  0  0  0  0  0  0  0  0  0
  150.5774  141.1984  155.4750 C   0  0  0  0  0  0  0  0  0  0  0  0
  151.6312  140.2728  156.1294 C   0  0  0  0  0  0  0  0  0  0  0  0
  152.2580  139.3244  155.2093 N   0  0  0  0  0  0  0  0  0  0  0  0
  151.6294  138.3078  154.5943 C   0  0  0  0  0  0  0  0  0  0  0  0
  152.2319  137.5375  153.8476 O   0  0  0  0  0  0  0  0  0  0  0  0
  148.5811  132.4004  153.7255 C   0  0  0  0  0  0  0  0  0  0  0  0
  147.4052  133.0454  152.6297 Cl  0  0  0  0  0  0  0  0  0  0  0  0
  146.7091  130.2228  153.4722 H   0  0  0  0  0  0  0  0  0  0  0  0
  147.9713  128.9893  153.5309 H   0  0  0  0  0  0  0  0  0  0  0  0
  147.8790  130.0880  152.1523 H   0  0  0  0  0  0  0  0  0  0  0  0
  151.1180  130.7789  156.1505 H   0  0  0  0  0  0  0  0  0  0  0  0
  151.0864  133.2976  155.8918 H   0  0  0  0  0  0  0  0  0  0  0  0
  148.8389  134.9344  153.3785 H   0  0  0  0  0  0  0  0  0  0  0  0
  148.9973  136.8787  153.5734 H   0  0  0  0  0  0  0  0  0  0  0  0
  150.0012  138.1411  155.9187 H   0  0  0  0  0  0  0  0  0  0  0  0
  148.8730  139.0406  153.2912 H   0  0  0  0  0  0  0  0  0  0  0  0
  148.3405  139.3883  154.9079 H   0  0  0  0  0  0  0  0  0  0  0  0
  150.6501  140.6664  153.3800 H   0  0  0  0  0  0  0  0  0  0  0  0
  149.1666  141.4142  153.8608 H   0  0  0  0  0  0  0  0  0  0  0  0
  151.0558  142.1500  155.2411 H   0  0  0  0  0  0  0  0  0  0  0  0
  149.8090  141.4338  156.2123 H   0  0  0  0  0  0  0  0  0  0  0  0
  152.4153  140.8794  156.5833 H   0  0  0  0  0  0  0  0  0  0  0  0
  151.1821  139.7219  156.9564 H   0  0  0  0  0  0  0  0  0  0  0  0
  153.2474  139.4374  155.0412 H   0  0  0  0  0  0  0  0  0  0  0  0
  149.6237  129.5002  154.9366 H   0  0  0  0  0  0  0  0  0  0  0  0
  1  2  1  0  0  0  0
  1 21  1  0  0  0  0
  1 22  1  0  0  0  0
  1 23  1  0  0  0  0
  2 19  1  0  0  0  0
  2  3  2  0  0  0  0
  3  4  1  0  0  0  0
  3 38  1  0  0  0  0
  4  5  2  0  0  0  0
  4 24  1  0  0  0  0
  5  6  1  0  0  0  0
  5 25  1  0  0  0  0
  6  7  1  0  0  0  0
  6 19  2  0  0  0  0
  7  8  1  0  0  0  0
  7 26  1  0  0  0  0
  8  9  2  0  0  0  0
  8 10  1  0  0  0  0
 10 11  1  0  0  0  0
 10 27  1  0  0  0  0
 11 17  1  0  0  0  0
 11 12  1  0  0  0  0
 11 28  1  0  0  0  0
 12 13  1  0  0  0  0
 12 29  1  0  0  0  0
 12 30  1  0  0  0  0
 13 14  1  0  0  0  0
 13 31  1  0  0  0  0
 13 32  1  0  0  0  0
 14 15  1  0  0  0  0
 14 33  1  0  0  0  0
 14 34  1  0  0  0  0
 15 16  1  0  0  0  0
 15 35  1  0  0  0  0
 15 36  1  0  0  0  0
 16 17  1  0  0  0  0
 16 37  1  0  0  0  0
 17 18  2  0  0  0  0
 19 20  1  0  0  0  0
M  CHG  1   3   1
M  END
> <s_m_source_file>
AV-unprocessed.smi

> <i_m_source_file_index>
2991

> <i_lp_mmshare_version>
43012

> <i_f3d_flags>
0

> <s_epik_input>
W0NIM11jMW5bY0hdW2NIXWMoYzFDbClbTkhdQyg9TylbTkhdW0NAQEhdMltDSDJdW0NIMl1bQ0gyXVtDSDJdW05IXUMyPU8=

> <s_epik_cmdline>
J2VwaWtfcHl0aG9uJywgJy1waCcsICc3LjAnLCAnLXRuJywgJzgnLCAnLW1hJywgJzIwMCcsICctbWV0YWxfYmluZGluZycsICctaW1hZScsICc8aW5maWxlLm1hZT4nLCAnLW9tYWUnLCAnPG91dGZpbGUubWFlPic=

> <r_epik_Ionization_Penalty>
2.55031

> <r_epik_Ionization_Penalty_Charging>
2.55029

> <r_epik_Ionization_Penalty_Neutral>
1.86001e-05

> <r_epik_State_Penalty>
2.71882

> <r_epik_Charging_Adjusted_Penalty>
5.26911

> <i_epik_Tot_Q>
1

> <i_epik_Tot_abs_Q>
1

> <r_epik_Metal_State_Penalty>
2.7268

> <b_epik_Metal_Only>
0

> <s_lp_Force_Field>
OPLS_2005

> <r_lp_Energy>
25.1386

> <b_lp_Chiralities_Consistent>
1

> <s_lp_Variant>
AV-unprocessed.smi:2991-3

> <Gold.Version>
5.8.1

> <Gold.Id.Protein>
6NUR|6NUR_protein|mol2

> <Gold.PLP.Fitness>
42.1894

> <Gold.PLP.PLP>
-35.1668

> <Gold.PLP.part.hbond>
-3.0000

> <Gold.PLP.part.metal>
0.0000

> <Gold.PLP.part.buried>
-1.6628

> <Gold.PLP.part.nonpolar>
-30.7537

> <Gold.PLP.part.repulsive>
0.4414

> <Gold.PLP.ligand.clash>
0.0000

> <Gold.PLP.ligand.torsion>
0.1389

> <Gold.PLP.Chemscore.Hbond>
2.4160

> <Gold.PLP.Chemscore.CHOScore>
0.0000

> <Gold.PLP.Chemscore.Metal>
0.0000

> <Gold.Chemscore.Hbonds>
donor molecule, donor type, donor heavy atom, donor atom, acceptor molecule, acceptor atom, score
      L1  H     7    26       P1  7948  0.78
      L1  H    10    27       P1  7948  0.74
      P1  H 10752 10763       L1    18  0.56

> <Gold.PLP.Chemscore.Internal.Correction>
0.0525

> <Gold.Rescore>
     Score         DG    S(hbond)    S(metal)    S(lipo)     H(rot)  DE(clash)    DE(int)     intcor
     16.67     -18.09       2.36        0.00      62.41       1.00       0.00       1.42       ----

> <Gold.Chemscore.Fitness>
16.6672

> <Gold.Chemscore.DG>
-18.0915

> <Gold.Chemscore.ZeroCoef>
-5.4800

> <Gold.Chemscore.Hbond>
2.3561

> <Gold.Chemscore.Metal>
0.0000

> <Gold.Chemscore.Lipo>
62.4111

> <Gold.Chemscore.Internal_Hbond>
0.0000

> <Gold.Chemscore.DEClash>
0.0000

> <Gold.Chemscore.DEInternal>
1.4243

> <Gold.Chemscore.Rot>
1.0000

> <Gold.Chemscore.Internal.Correction>
   9.000000E+99

> <Gold.Chemscore.Hbonds>
donor molecule, donor type, donor heavy atom, donor atom, acceptor molecule, acceptor atom, score
      L1  H     7    26       P1  7948  0.30
      L1  H    10    27       P1  7948  0.74
      P1  H 10752 10763       L1    18  0.55

> <Gold.Chemscore.Hbond.Weighted>
-7.8694

> <Gold.Chemscore.Metal.Weighted>
-0.0000

> <Gold.Chemscore.Lipo.Weighted>
-7.3021

> <Gold.Chemscore.Internal_Hbond.Weighted>
0.0000

> <Gold.Chemscore.DEClash.Weighted>
0.0000

> <Gold.Chemscore.DEInternal.Weighted>
1.4243

> <Gold.Chemscore.Rot.Weighted>
2.5600

> <Gold.Chemscore.Internal.Correction.Weighted>
   9.000000E+99

> <Gold.Protein.RotatedTorsions>
[ 6907 6896 6895 6894 ] final  -94.82 input  -60.11 | X-H torsion
[ 7974 7965 7964 7962 ] final   49.99 input  175.53 | X-H torsion
[ 8008 7997 7996 7995 ] final   -9.60 input   59.86 | X-H torsion
[ 10167 10162 10161 10158 ] final  129.69 input  -65.29 | X-H torsion
[ 10718 10713 10712 10709 ] final   61.75 input   66.30 | X-H torsion
[ 10763 10752 10751 10750 ] final   49.21 input  -60.55 | X-H torsion
[ 11005 11000 10999 10996 ] final  167.16 input  -57.11 | X-H torsion

> <Gold.Protein.ActiveResidues>
 VAL166  LYS551  ARG553  GLY616  TRP617  ASP618  TYR619  PRO620  LYS621  CYS622 
 ASP623  PHE694  ASN695  SER759  ASP760  ASP761  ALA762  ILE779  LEU786  VAL792 
 PHE793  MET794  SER795  GLU796  ALA797  LYS798  CYS799  TRP800  GLU811  SER814 

> <Gold.Protein.RotatedAtoms>
  150.6950  134.1754  159.4227 H   0  0  0  0  0  0  0  0  0  0  0  0  # atno 6907 bound_to 6896
  151.9730  135.0065  160.0563 H   0  0  0  0  0  0  0  0  0  0  0  0  # atno 6908 bound_to 6896
  152.1824  133.4681  159.5002 H   0  0  0  0  0  0  0  0  0  0  0  0  # atno 6909 bound_to 6896
  146.0055  139.4486  142.9988 H   0  0  0  0  0  0  0  0  0  0  0  0  # atno 7974 bound_to 7965
  154.5631  140.2351  155.8304 H   0  0  0  0  0  0  0  0  0  0  0  0  # atno 8008 bound_to 7997
  156.2046  140.3043  155.9559 H   0  0  0  0  0  0  0  0  0  0  0  0  # atno 8009 bound_to 7997
  155.2851  140.0424  157.3009 H   0  0  0  0  0  0  0  0  0  0  0  0  # atno 8010 bound_to 7997
  139.5466  144.6778  151.4455 H   0  0  0  0  0  0  0  0  0  0  0  0  # atno 10167 bound_to 10162
  157.5850  130.9012  149.9500 H   0  0  0  0  0  0  0  0  0  0  0  0  # atno 10718 bound_to 10713
  152.9788  135.5919  154.4051 H   0  0  0  0  0  0  0  0  0  0  0  0  # atno 10763 bound_to 10752
  154.3692  135.2767  155.2278 H   0  0  0  0  0  0  0  0  0  0  0  0  # atno 10764 bound_to 10752
  154.4240  135.6052  153.6082 H   0  0  0  0  0  0  0  0  0  0  0  0  # atno 10765 bound_to 10752
  140.2739  134.7804  157.3700 H   0  0  0  0  0  0  0  0  0  0  0  0  # atno 11005 bound_to 11000
  145.7422  141.0004  143.1295 LP  0  0  0  0  0  0  0  0  0  0  0  0  # atno 17320 bound_to 7965
  144.6934  139.9113  143.7463 LP  0  0  0  0  0  0  0  0  0  0  0  0  # atno 17321 bound_to 7965
  140.6715  143.8282  150.7006 LP  0  0  0  0  0  0  0  0  0  0  0  0  # atno 17342 bound_to 10162
  140.1708  143.4196  152.2002 LP  0  0  0  0  0  0  0  0  0  0  0  0  # atno 17343 bound_to 10162
  156.0899  130.3664  150.0415 LP  0  0  0  0  0  0  0  0  0  0  0  0  # atno 17370 bound_to 10713
  156.8548  130.9471  151.3623 LP  0  0  0  0  0  0  0  0  0  0  0  0  # atno 17371 bound_to 10713
  140.1347  134.5050  155.8078 LP  0  0  0  0  0  0  0  0  0  0  0  0  # atno 17394 bound_to 11000
  141.2173  133.6803  156.7102 LP  0  0  0  0  0  0  0  0  0  0  0  0  # atno 17395 bound_to 11000

$$$$
