AV-unprocessed.smi:3117|AV-procd|sdf|11881|dock9
  -GOLD-   2272017273D 1   1.00000     0.00000
 Structure written by MMmdl.
 37 37  0  0  0  0  0  0  0  0  2 V2000
  149.4176  142.6737  158.4898 C   0  0  0  0  0  0  0  0  0  0  0  0
  150.4123  142.0304  157.5096 C   0  0  1  0  0  0  0  0  0  0  0  0
  149.8799  142.1296  156.1316 N   0  3  0  0  0  0  0  0  0  0  0  0
  148.5943  141.4372  155.9030 C   0  0  0  0  0  0  0  0  0  0  0  0
  148.7330  140.2654  154.9079 C   0  0  0  0  0  0  0  0  0  0  0  0
  150.0635  139.5290  155.1361 C   0  0  0  0  0  0  0  0  0  0  0  0
  147.5546  139.2783  154.9943 C   0  0  0  0  0  0  0  0  0  0  0  0
  148.7785  140.7988  153.5984 O   0  0  0  0  0  0  0  0  0  0  0  0
  151.8355  142.6384  157.6105 C   0  0  1  0  0  0  0  0  0  0  0  0
  151.8906  144.1135  157.1694 C   0  0  0  0  0  0  0  0  0  0  0  0
  152.4538  142.4405  158.9183 N   0  0  0  0  0  0  0  0  0  0  0  0
  153.4270  141.5266  159.2689 C   0  0  0  0  0  0  0  0  0  0  0  0
  153.6865  141.6927  160.5989 C   0  0  0  0  0  0  0  0  0  0  0  0
  152.8095  142.7435  160.9857 C   0  0  0  0  0  0  0  0  0  0  0  0
  152.0707  143.1852  159.9809 N   0  0  0  0  0  0  0  0  0  0  0  0
  149.7826  142.6128  159.5152 H   0  0  0  0  0  0  0  0  0  0  0  0
  148.4522  142.1678  158.4549 H   0  0  0  0  0  0  0  0  0  0  0  0
  149.2457  143.7257  158.2596 H   0  0  0  0  0  0  0  0  0  0  0  0
  150.4923  140.9762  157.7805 H   0  0  0  0  0  0  0  0  0  0  0  0
  149.7695  143.1056  155.8973 H   0  0  0  0  0  0  0  0  0  0  0  0
  148.2181  141.0704  156.8596 H   0  0  0  0  0  0  0  0  0  0  0  0
  147.8666  142.1600  155.5311 H   0  0  0  0  0  0  0  0  0  0  0  0
  150.1042  139.0909  156.1340 H   0  0  0  0  0  0  0  0  0  0  0  0
  150.9152  140.2033  155.0386 H   0  0  0  0  0  0  0  0  0  0  0  0
  150.2011  138.7203  154.4174 H   0  0  0  0  0  0  0  0  0  0  0  0
  147.4698  138.8542  155.9955 H   0  0  0  0  0  0  0  0  0  0  0  0
  147.6819  138.4487  154.2977 H   0  0  0  0  0  0  0  0  0  0  0  0
  146.6037  139.7564  154.7568 H   0  0  0  0  0  0  0  0  0  0  0  0
  148.3505  140.1943  153.0106 H   0  0  0  0  0  0  0  0  0  0  0  0
  152.4559  142.0912  156.8988 H   0  0  0  0  0  0  0  0  0  0  0  0
  151.5094  144.2323  156.1549 H   0  0  0  0  0  0  0  0  0  0  0  0
  152.9153  144.4859  157.1796 H   0  0  0  0  0  0  0  0  0  0  0  0
  151.2996  144.7582  157.8209 H   0  0  0  0  0  0  0  0  0  0  0  0
  153.8503  140.8400  158.5504 H   0  0  0  0  0  0  0  0  0  0  0  0
  154.3953  141.1465  161.2037 H   0  0  0  0  0  0  0  0  0  0  0  0
  152.6865  143.1929  161.9600 H   0  0  0  0  0  0  0  0  0  0  0  0
  150.5638  141.7307  155.5032 H   0  0  0  0  0  0  0  0  0  0  0  0
  1  2  1  0  0  0  0
  1 16  1  0  0  0  0
  1 17  1  0  0  0  0
  1 18  1  0  0  0  0
  2  3  1  0  0  0  0
  2  9  1  0  0  0  0
  2 19  1  0  0  0  0
  3  4  1  0  0  0  0
  3 20  1  0  0  0  0
  3 37  1  0  0  0  0
  4  5  1  0  0  0  0
  4 21  1  0  0  0  0
  4 22  1  0  0  0  0
  5  6  1  0  0  0  0
  5  7  1  0  0  0  0
  5  8  1  0  0  0  0
  6 23  1  0  0  0  0
  6 24  1  0  0  0  0
  6 25  1  0  0  0  0
  7 26  1  0  0  0  0
  7 27  1  0  0  0  0
  7 28  1  0  0  0  0
  8 29  1  0  0  0  0
  9 10  1  0  0  0  0
  9 11  1  0  0  0  0
  9 30  1  0  0  0  0
 10 31  1  0  0  0  0
 10 32  1  0  0  0  0
 10 33  1  0  0  0  0
 11 15  1  0  0  0  0
 11 12  1  0  0  0  0
 12 13  2  0  0  0  0
 12 34  1  0  0  0  0
 13 14  1  0  0  0  0
 13 35  1  0  0  0  0
 14 15  2  0  0  0  0
 14 36  1  0  0  0  0
M  CHG  1   3   1
M  END
> <s_m_source_file>
AV-unprocessed.smi

> <i_m_source_file_index>
3117

> <i_lp_mmshare_version>
43012

> <i_f3d_flags>
0

> <s_epik_input>
W0NIM11DKFtDSDNdKShbT0hdKVtDSDJdW05IXVtDQEBIXShbQ0gzXSlbQ0BIXShbQ0gzXSluMVtjSF1bY0hdW2NIXW4x

> <s_epik_cmdline>
J2VwaWtfcHl0aG9uJywgJy1waCcsICc3LjAnLCAnLXRuJywgJzgnLCAnLW1hJywgJzIwMCcsICctbWV0YWxfYmluZGluZycsICctaW1hZScsICc8aW5maWxlLm1hZT4nLCAnLW9tYWUnLCAnPG91dGZpbGUubWFlPic=

> <r_lp_tautomer_probability>
1

> <r_epik_Ionization_Penalty>
0.0164263

> <r_epik_Ionization_Penalty_Charging>
0.0164138

> <r_epik_Ionization_Penalty_Neutral>
1.24697e-05

> <r_epik_State_Penalty>
0.0129543

> <r_epik_Charging_Adjusted_Penalty>
0.0293681

> <i_epik_Tot_Q>
1

> <i_epik_Tot_abs_Q>
1

> <r_epik_Metal_State_Penalty>
0.0129806

> <b_epik_Metal_Only>
0

> <s_lp_Force_Field>
OPLS_2005

> <r_lp_Energy>
13.722

> <b_lp_Chiralities_Consistent>
1

> <s_lp_Variant>
AV-unprocessed.smi:3117-4

> <Gold.Version>
5.8.1

> <Gold.Id.Protein>
6NUR|6NUR_protein|mol2

> <Gold.PLP.Fitness>
48.0011

> <Gold.PLP.PLP>
-37.6185

> <Gold.PLP.part.hbond>
-3.4425

> <Gold.PLP.part.metal>
0.0000

> <Gold.PLP.part.buried>
-3.9777

> <Gold.PLP.part.nonpolar>
-28.9628

> <Gold.PLP.part.repulsive>
0.1670

> <Gold.PLP.ligand.clash>
0.0000

> <Gold.PLP.ligand.torsion>
0.9435

> <Gold.PLP.Chemscore.Hbond>
4.0400

> <Gold.PLP.Chemscore.CHOScore>
0.0000

> <Gold.PLP.Chemscore.Metal>
0.0000

> <Gold.Chemscore.Hbonds>
donor molecule, donor type, donor heavy atom, donor atom, acceptor molecule, acceptor atom, score
      L1  H     3    20       P1  8028  2.00
      L1  H     8    29       P1  7957  0.08
      P1  H  8011  8017       L1     8  0.36

> <Gold.PLP.Chemscore.Internal.Correction>
0.1497

> <Gold.Rescore>
     Score         DG    S(hbond)    S(metal)    S(lipo)     H(rot)  DE(clash)    DE(int)     intcor
     15.47     -16.55       1.92        0.00      89.52       2.27       0.03       1.05       ----

> <Gold.Chemscore.Fitness>
15.4724

> <Gold.Chemscore.DG>
-16.5490

> <Gold.Chemscore.ZeroCoef>
-5.4800

> <Gold.Chemscore.Hbond>
1.9201

> <Gold.Chemscore.Metal>
0.0000

> <Gold.Chemscore.Lipo>
89.5156

> <Gold.Chemscore.Internal_Hbond>
0.0000

> <Gold.Chemscore.DEClash>
0.0270

> <Gold.Chemscore.DEInternal>
1.0496

> <Gold.Chemscore.Rot>
2.2725

> <Gold.Chemscore.Internal.Correction>
   9.000000E+99

> <Gold.Chemscore.Hbonds>
donor molecule, donor type, donor heavy atom, donor atom, acceptor molecule, acceptor atom, score
      L1  H     3    20       P1  8028  0.99
      L1  H     8    29       P1  7957  0.08
      P1  H  8011  8017       L1     8  0.22

> <Gold.Chemscore.Hbond.Weighted>
-6.4133

> <Gold.Chemscore.Metal.Weighted>
-0.0000

> <Gold.Chemscore.Lipo.Weighted>
-10.4733

> <Gold.Chemscore.Internal_Hbond.Weighted>
0.0000

> <Gold.Chemscore.DEClash.Weighted>
0.0270

> <Gold.Chemscore.DEInternal.Weighted>
1.0496

> <Gold.Chemscore.Rot.Weighted>
5.8176

> <Gold.Chemscore.Internal.Correction.Weighted>
   9.000000E+99

> <Gold.Protein.RotatedTorsions>
[ 6907 6896 6895 6894 ] final  167.19 input  -60.11 | X-H torsion
[ 7974 7965 7964 7962 ] final  -33.10 input  175.53 | X-H torsion
[ 8008 7997 7996 7995 ] final  -60.77 input   59.86 | X-H torsion
[ 10167 10162 10161 10158 ] final    4.68 input  -65.29 | X-H torsion
[ 10718 10713 10712 10709 ] final   66.19 input   66.30 | X-H torsion
[ 10763 10752 10751 10750 ] final  -54.00 input  -60.55 | X-H torsion
[ 11005 11000 10999 10996 ] final   82.97 input  -57.11 | X-H torsion

> <Gold.Protein.ActiveResidues>
 VAL166  LYS551  ARG553  GLY616  TRP617  ASP618  TYR619  PRO620  LYS621  CYS622 
 ASP623  PHE694  ASN695  SER759  ASP760  ASP761  ALA762  ILE779  LEU786  VAL792 
 PHE793  MET794  SER795  GLU796  ALA797  LYS798  CYS799  TRP800  GLU811  SER814 

> <Gold.Protein.RotatedAtoms>
  151.8672  133.3468  159.3722 H   0  0  0  0  0  0  0  0  0  0  0  0  # atno 6907 bound_to 6896
  150.7162  134.5148  159.5634 H   0  0  0  0  0  0  0  0  0  0  0  0  # atno 6908 bound_to 6896
  152.2673  134.7971  160.0471 H   0  0  0  0  0  0  0  0  0  0  0  0  # atno 6909 bound_to 6896
  146.0937  140.5875  142.8852 H   0  0  0  0  0  0  0  0  0  0  0  0  # atno 7974 bound_to 7965
  154.4415  140.1032  156.6327 H   0  0  0  0  0  0  0  0  0  0  0  0  # atno 8008 bound_to 7997
  155.5588  140.3487  155.4467 H   0  0  0  0  0  0  0  0  0  0  0  0  # atno 8009 bound_to 7997
  156.0475  140.1296  157.0076 H   0  0  0  0  0  0  0  0  0  0  0  0  # atno 8010 bound_to 7997
  140.6522  143.7517  150.7593 H   0  0  0  0  0  0  0  0  0  0  0  0  # atno 10167 bound_to 10162
  157.6153  130.9254  150.0076 H   0  0  0  0  0  0  0  0  0  0  0  0  # atno 10718 bound_to 10713
  154.1678  135.6464  153.5002 H   0  0  0  0  0  0  0  0  0  0  0  0  # atno 10763 bound_to 10752
  153.0092  135.5376  154.6644 H   0  0  0  0  0  0  0  0  0  0  0  0  # atno 10764 bound_to 10752
  154.5975  135.2940  155.0543 H   0  0  0  0  0  0  0  0  0  0  0  0  # atno 10765 bound_to 10752
  139.9046  134.8111  156.2247 H   0  0  0  0  0  0  0  0  0  0  0  0  # atno 11005 bound_to 11000
  144.7379  140.4861  143.6890 LP  0  0  0  0  0  0  0  0  0  0  0  0  # atno 17320 bound_to 7965
  145.5989  139.1502  143.3140 LP  0  0  0  0  0  0  0  0  0  0  0  0  # atno 17321 bound_to 7965
  140.1170  143.4647  152.2336 LP  0  0  0  0  0  0  0  0  0  0  0  0  # atno 17342 bound_to 10162
  139.5738  144.7477  151.3818 LP  0  0  0  0  0  0  0  0  0  0  0  0  # atno 17343 bound_to 10162
  156.1273  130.3644  149.9789 LP  0  0  0  0  0  0  0  0  0  0  0  0  # atno 17370 bound_to 10713
  156.7857  130.9237  151.3646 LP  0  0  0  0  0  0  0  0  0  0  0  0  # atno 17371 bound_to 10713
  141.0384  133.6951  156.1553 LP  0  0  0  0  0  0  0  0  0  0  0  0  # atno 17394 bound_to 11000
  140.6993  134.4581  157.5586 LP  0  0  0  0  0  0  0  0  0  0  0  0  # atno 17395 bound_to 11000

$$$$
