AV-unprocessed.smi:2336|AV-procd|sdf|9330|dock1
  -GOLD-   2272012553D 1   1.00000     0.00000
 Structure written by MMmdl.
 50 51  0  0  0  0  0  0  0  0  2 V2000
  147.1083  141.9406  153.8607 C   0  0  0  0  0  0  0  0  0  0  0  0
  146.3797  140.8708  154.6989 C   0  0  0  0  0  0  0  0  0  0  0  0
  146.5634  141.2041  156.1921 C   0  0  0  0  0  0  0  0  0  0  0  0
  146.8404  139.4275  154.3370 C   0  0  1  0  0  0  0  0  0  0  0  0
  146.7592  139.1415  152.8086 C   0  0  0  0  0  0  0  0  0  0  0  0
  146.9790  137.7381  152.4679 N   0  0  0  0  0  0  0  0  0  0  0  0
  146.0234  136.8360  152.2000 C   0  0  0  0  0  0  0  0  0  0  0  0
  144.8201  137.0911  152.2301 O   0  0  0  0  0  0  0  0  0  0  0  0
  146.5582  135.6397  151.9033 N   0  0  0  0  0  0  0  0  0  0  0  0
  145.9018  134.4429  151.5038 C   0  0  0  0  0  0  0  0  0  0  0  0
  144.6481  134.4035  150.8463 C   0  0  0  0  0  0  0  0  0  0  0  0
  144.1150  133.1493  150.4856 C   0  0  0  0  0  0  0  0  0  0  0  0
  144.7402  131.9776  150.7263 N   0  0  0  0  0  0  0  0  0  0  0  0
  145.9412  132.0199  151.3409 C   0  0  0  0  0  0  0  0  0  0  0  0
  146.5630  133.2195  151.7418 C   0  0  0  0  0  0  0  0  0  0  0  0
  147.7744  133.1927  152.3484 F   0  0  0  0  0  0  0  0  0  0  0  0
  148.1848  139.1557  154.9385 N   0  3  0  0  0  0  0  0  0  0  0  0
  149.3117  139.9805  154.4327 C   0  0  0  0  0  0  0  0  0  0  0  0
  150.5610  139.7727  155.3128 C   0  0  0  0  0  0  0  0  0  0  0  0
  150.9508  138.3635  155.3936 N   0  0  0  0  0  0  0  0  0  0  0  0
  151.5070  137.8490  154.1465 C   0  0  0  0  0  0  0  0  0  0  0  0
  149.8325  137.5644  155.8983 C   0  0  0  0  0  0  0  0  0  0  0  0
  148.5667  137.7236  155.0313 C   0  0  0  0  0  0  0  0  0  0  0  0
  148.1889  141.8816  153.9947 H   0  0  0  0  0  0  0  0  0  0  0  0
  146.7952  142.9448  154.1484 H   0  0  0  0  0  0  0  0  0  0  0  0
  146.8971  141.8418  152.7959 H   0  0  0  0  0  0  0  0  0  0  0  0
  145.3144  140.9598  154.4837 H   0  0  0  0  0  0  0  0  0  0  0  0
  147.5933  141.0428  156.5123 H   0  0  0  0  0  0  0  0  0  0  0  0
  145.9127  140.6063  156.8292 H   0  0  0  0  0  0  0  0  0  0  0  0
  146.3163  142.2469  156.3941 H   0  0  0  0  0  0  0  0  0  0  0  0
  146.1333  138.7557  154.8263 H   0  0  0  0  0  0  0  0  0  0  0  0
  145.7623  139.3707  152.4360 H   0  0  0  0  0  0  0  0  0  0  0  0
  147.4361  139.8018  152.2642 H   0  0  0  0  0  0  0  0  0  0  0  0
  147.9393  137.4276  152.4356 H   0  0  0  0  0  0  0  0  0  0  0  0
  147.5590  135.5604  152.0119 H   0  0  0  0  0  0  0  0  0  0  0  0
  144.0947  135.2969  150.6023 H   0  0  0  0  0  0  0  0  0  0  0  0
  143.1615  133.0867  149.9826 H   0  0  0  0  0  0  0  0  0  0  0  0
  146.4227  131.0691  151.5160 H   0  0  0  0  0  0  0  0  0  0  0  0
  149.5401  139.7412  153.3968 H   0  0  0  0  0  0  0  0  0  0  0  0
  149.0353  141.0343  154.4530 H   0  0  0  0  0  0  0  0  0  0  0  0
  151.3962  140.3624  154.9328 H   0  0  0  0  0  0  0  0  0  0  0  0
  150.3607  140.1356  156.3219 H   0  0  0  0  0  0  0  0  0  0  0  0
  151.8385  136.8187  154.2791 H   0  0  0  0  0  0  0  0  0  0  0  0
  152.3747  138.4389  153.8492 H   0  0  0  0  0  0  0  0  0  0  0  0
  150.7909  137.8684  153.3257 H   0  0  0  0  0  0  0  0  0  0  0  0
  150.1268  136.5156  155.9533 H   0  0  0  0  0  0  0  0  0  0  0  0
  149.6158  137.8771  156.9207 H   0  0  0  0  0  0  0  0  0  0  0  0
  147.7542  137.1588  155.4894 H   0  0  0  0  0  0  0  0  0  0  0  0
  148.7295  137.2890  154.0474 H   0  0  0  0  0  0  0  0  0  0  0  0
  148.0756  139.4351  155.9029 H   0  0  0  0  0  0  0  0  0  0  0  0
  1  2  1  0  0  0  0
  1 24  1  0  0  0  0
  1 25  1  0  0  0  0
  1 26  1  0  0  0  0
  2  3  1  0  0  0  0
  2  4  1  0  0  0  0
  2 27  1  0  0  0  0
  3 28  1  0  0  0  0
  3 29  1  0  0  0  0
  3 30  1  0  0  0  0
  4  5  1  0  0  0  0
  4 17  1  0  0  0  0
  4 31  1  0  0  0  0
  5  6  1  0  0  0  0
  5 32  1  0  0  0  0
  5 33  1  0  0  0  0
  6  7  1  0  0  0  0
  6 34  1  0  0  0  0
  7  8  2  0  0  0  0
  7  9  1  0  0  0  0
  9 10  1  0  0  0  0
  9 35  1  0  0  0  0
 10 15  1  0  0  0  0
 10 11  2  0  0  0  0
 11 12  1  0  0  0  0
 11 36  1  0  0  0  0
 12 13  2  0  0  0  0
 12 37  1  0  0  0  0
 13 14  1  0  0  0  0
 14 15  2  0  0  0  0
 14 38  1  0  0  0  0
 15 16  1  0  0  0  0
 17 23  1  0  0  0  0
 17 18  1  0  0  0  0
 17 50  1  0  0  0  0
 18 19  1  0  0  0  0
 18 39  1  0  0  0  0
 18 40  1  0  0  0  0
 19 20  1  0  0  0  0
 19 41  1  0  0  0  0
 19 42  1  0  0  0  0
 20 21  1  0  0  0  0
 20 22  1  0  0  0  0
 21 43  1  0  0  0  0
 21 44  1  0  0  0  0
 21 45  1  0  0  0  0
 22 23  1  0  0  0  0
 22 46  1  0  0  0  0
 22 47  1  0  0  0  0
 23 48  1  0  0  0  0
 23 49  1  0  0  0  0
M  CHG  1  17   1
M  END
> <s_m_source_file>
AV-unprocessed.smi

> <i_m_source_file_index>
2336

> <i_lp_mmshare_version>
43012

> <i_f3d_flags>
0

> <s_epik_input>
W0NIMl0xW0NIMl1OKFtDSDNdKVtDSDJdW0NIMl1OMVtDQEhdKFtDSF0oW0NIM10pW0NIM10pW0NIMl1bTkhdQyg9TylbTkhdYzJbY0hdW2NIXW5bY0hdYzJG

> <s_epik_cmdline>
J2VwaWtfcHl0aG9uJywgJy1waCcsICc3LjAnLCAnLXRuJywgJzgnLCAnLW1hJywgJzIwMCcsICctbWV0YWxfYmluZGluZycsICctaW1hZScsICc8aW5maWxlLm1hZT4nLCAnLW9tYWUnLCAnPG91dGZpbGUubWFlPic=

> <r_epik_Ionization_Penalty>
0.204575

> <r_epik_Ionization_Penalty_Charging>
0.20006

> <r_epik_Ionization_Penalty_Neutral>
0.00451444

> <r_epik_State_Penalty>
1.43207

> <r_epik_Charging_Adjusted_Penalty>
1.63213

> <i_epik_Tot_Q>
1

> <i_epik_Tot_abs_Q>
1

> <r_epik_Metal_State_Penalty>
1.43277

> <b_epik_Metal_Only>
0

> <s_lp_Force_Field>
OPLS_2005

> <r_lp_Energy>
38.4551

> <b_lp_Chiralities_Consistent>
1

> <s_lp_Variant>
AV-unprocessed.smi:2336-4

> <Gold.Version>
5.8.1

> <Gold.Id.Protein>
6NUR|6NUR_protein|mol2

> <Gold.PLP.Fitness>
43.8269

> <Gold.PLP.PLP>
-35.4374

> <Gold.PLP.part.hbond>
-1.7640

> <Gold.PLP.part.metal>
0.0000

> <Gold.PLP.part.buried>
-5.6239

> <Gold.PLP.part.nonpolar>
-29.2925

> <Gold.PLP.part.repulsive>
1.2766

> <Gold.PLP.ligand.clash>
0.0000

> <Gold.PLP.ligand.torsion>
0.5403

> <Gold.PLP.Chemscore.Hbond>
1.8960

> <Gold.PLP.Chemscore.CHOScore>
1.1411

> <Gold.PLP.Chemscore.Metal>
0.0000

> <Gold.Chemscore.Hbonds>
donor molecule, donor type, donor heavy atom, donor atom, acceptor molecule, acceptor atom, score
      L1  H     6    34       P1  7948  0.88
      L1  H     9    35       P1  7948  0.94
      L1  C    12    37       P1 10186  0.90
      L1  C    14    38       P1 10747  0.14

> <Gold.PLP.Chemscore.Internal.Correction>
0.3587

> <Gold.Rescore>
     Score         DG    S(hbond)    S(metal)    S(lipo)     H(rot)  DE(clash)    DE(int)     intcor
     16.04     -16.95       1.93        0.00      79.67       1.67       0.03       0.88       ----

> <Gold.Chemscore.Fitness>
16.0410

> <Gold.Chemscore.DG>
-16.9533

> <Gold.Chemscore.ZeroCoef>
-5.4800

> <Gold.Chemscore.Hbond>
1.9274

> <Gold.Chemscore.Metal>
0.0000

> <Gold.Chemscore.Lipo>
79.6654

> <Gold.Chemscore.Internal_Hbond>
0.0000

> <Gold.Chemscore.DEClash>
0.0319

> <Gold.Chemscore.DEInternal>
0.8804

> <Gold.Chemscore.Rot>
1.6739

> <Gold.Chemscore.Internal.Correction>
   9.000000E+99

> <Gold.Chemscore.Hbonds>
donor molecule, donor type, donor heavy atom, donor atom, acceptor molecule, acceptor atom, score
      L1  H     6    34       P1  7948  0.86
      L1  H     9    35       P1  7948  0.85

> <Gold.Chemscore.Hbond.Weighted>
-6.4376

> <Gold.Chemscore.Metal.Weighted>
-0.0000

> <Gold.Chemscore.Lipo.Weighted>
-9.3208

> <Gold.Chemscore.Internal_Hbond.Weighted>
0.0000

> <Gold.Chemscore.DEClash.Weighted>
0.0319

> <Gold.Chemscore.DEInternal.Weighted>
0.8804

> <Gold.Chemscore.Rot.Weighted>
4.2851

> <Gold.Chemscore.Internal.Correction.Weighted>
   9.000000E+99

> <Gold.Protein.RotatedTorsions>
[ 6907 6896 6895 6894 ] final  160.09 input  -60.11 | X-H torsion
[ 7974 7965 7964 7962 ] final  -77.64 input  175.53 | X-H torsion
[ 8008 7997 7996 7995 ] final -107.29 input   59.86 | X-H torsion
[ 10167 10162 10161 10158 ] final -109.27 input  -65.29 | X-H torsion
[ 10718 10713 10712 10709 ] final    6.38 input   66.30 | X-H torsion
[ 10763 10752 10751 10750 ] final   80.01 input  -60.55 | X-H torsion
[ 11005 11000 10999 10996 ] final  -22.94 input  -57.11 | X-H torsion

> <Gold.Protein.ActiveResidues>
 VAL166  LYS551  ARG553  GLY616  TRP617  ASP618  TYR619  PRO620  LYS621  CYS622 
 ASP623  PHE694  ASN695  SER759  ASP760  ASP761  ALA762  ILE779  LEU786  VAL792 
 PHE793  MET794  SER795  GLU796  ALA797  LYS798  CYS799  TRP800  GLU811  SER814 

> <Gold.Protein.RotatedAtoms>
  151.9758  133.3741  159.4088 H   0  0  0  0  0  0  0  0  0  0  0  0  # atno 6907 bound_to 6896
  150.6942  134.4092  159.5163 H   0  0  0  0  0  0  0  0  0  0  0  0  # atno 6908 bound_to 6896
  152.1803  134.8760  160.0577 H   0  0  0  0  0  0  0  0  0  0  0  0  # atno 6909 bound_to 6896
  145.5970  140.9417  143.1261 H   0  0  0  0  0  0  0  0  0  0  0  0  # atno 7974 bound_to 7965
  154.9272  140.0406  157.2029 H   0  0  0  0  0  0  0  0  0  0  0  0  # atno 8008 bound_to 7997
  154.8196  140.2881  155.5774 H   0  0  0  0  0  0  0  0  0  0  0  0  # atno 8009 bound_to 7997
  156.2979  140.2521  156.3100 H   0  0  0  0  0  0  0  0  0  0  0  0  # atno 8010 bound_to 7997
  140.1571  143.4150  152.1452 H   0  0  0  0  0  0  0  0  0  0  0  0  # atno 10167 bound_to 10162
  156.9213  130.5792  149.5648 H   0  0  0  0  0  0  0  0  0  0  0  0  # atno 10718 bound_to 10713
  153.0998  135.4818  154.8846 H   0  0  0  0  0  0  0  0  0  0  0  0  # atno 10763 bound_to 10752
  154.7366  135.3072  154.8803 H   0  0  0  0  0  0  0  0  0  0  0  0  # atno 10764 bound_to 10752
  153.9423  135.6832  153.4797 H   0  0  0  0  0  0  0  0  0  0  0  0  # atno 10765 bound_to 10752
  140.8704  133.7724  156.0180 H   0  0  0  0  0  0  0  0  0  0  0  0  # atno 11005 bound_to 11000
  144.7326  139.7680  143.7341 LP  0  0  0  0  0  0  0  0  0  0  0  0  # atno 17320 bound_to 7965
  146.1604  139.4716  142.9992 LP  0  0  0  0  0  0  0  0  0  0  0  0  # atno 17321 bound_to 7965
  139.5398  144.7245  151.4771 LP  0  0  0  0  0  0  0  0  0  0  0  0  # atno 17342 bound_to 10162
  140.6666  143.8385  150.6949 LP  0  0  0  0  0  0  0  0  0  0  0  0  # atno 17343 bound_to 10162
  156.0490  130.5562  150.8946 LP  0  0  0  0  0  0  0  0  0  0  0  0  # atno 17370 bound_to 10713
  157.5906  131.0944  150.9125 LP  0  0  0  0  0  0  0  0  0  0  0  0  # atno 17371 bound_to 10713
  140.8580  134.2875  157.5247 LP  0  0  0  0  0  0  0  0  0  0  0  0  # atno 17394 bound_to 11000
  139.8712  134.9503  156.4051 LP  0  0  0  0  0  0  0  0  0  0  0  0  # atno 17395 bound_to 11000

$$$$
