AV-unprocessed.smi:3336|AV-procd|sdf|12858|dock4
  -GOLD-   2272019253D 1   1.00000     0.00000
 Structure written by MMmdl.
 41 42  0  0  0  0  0  0  0  0  1 V2000
  143.4587  136.8981  153.1445 C   0  0  0  0  0  0  0  0  0  0  0  0
  144.9940  136.8171  153.1613 C   0  0  1  0  0  0  0  0  0  0  0  0
  145.5905  136.2002  151.8802 C   0  0  0  0  0  0  0  0  0  0  0  0
  145.1864  134.8194  151.6840 N   0  0  0  0  0  0  0  0  0  0  0  0
  144.9575  134.1588  150.4956 C   0  0  0  0  0  0  0  0  0  0  0  0
  144.5963  132.8789  150.8049 C   0  0  0  0  0  0  0  0  0  0  0  0
  144.6325  132.8520  152.2272 C   0  0  0  0  0  0  0  0  0  0  0  0
  144.9838  134.0154  152.7507 N   0  0  0  0  0  0  0  0  0  0  0  0
  145.5243  138.1701  153.2979 N   0  0  0  0  0  0  0  0  0  0  0  0
  145.7314  138.5979  154.6935 C   0  0  2  0  0  0  0  0  0  0  0  0
  144.4044  138.5511  155.4789 C   0  0  0  0  0  0  0  0  0  0  0  0
  146.3291  140.0208  154.7538 C   0  0  0  0  0  0  0  0  0  0  0  0
  145.6687  140.9091  155.2972 O   0  0  0  0  0  0  0  0  0  0  0  0
  147.5514  140.2707  154.2181 N   0  0  0  0  0  0  0  0  0  0  0  0
  148.4849  139.2891  153.6514 C   0  0  0  0  0  0  0  0  0  0  0  0
  149.7661  139.2806  154.5054 C   0  0  0  0  0  0  0  0  0  0  0  0
  150.3325  140.5874  154.5422 O   0  0  0  0  0  0  0  0  0  0  0  0
  149.4405  141.5634  155.0724 C   0  0  0  0  0  0  0  0  0  0  0  0
  148.1607  141.6057  154.2196 C   0  0  0  0  0  0  0  0  0  0  0  0
  143.0097  135.9058  153.0977 H   0  0  0  0  0  0  0  0  0  0  0  0
  143.0992  137.4659  152.2855 H   0  0  0  0  0  0  0  0  0  0  0  0
  143.0795  137.3806  154.0461 H   0  0  0  0  0  0  0  0  0  0  0  0
  145.2902  136.1952  154.0076 H   0  0  0  0  0  0  0  0  0  0  0  0
  145.3009  136.7823  151.0031 H   0  0  0  0  0  0  0  0  0  0  0  0
  146.6802  136.2263  151.9231 H   0  0  0  0  0  0  0  0  0  0  0  0
  145.0705  134.6496  149.5400 H   0  0  0  0  0  0  0  0  0  0  0  0
  144.3442  132.0830  150.1198 H   0  0  0  0  0  0  0  0  0  0  0  0
  144.4142  132.0275  152.8898 H   0  0  0  0  0  0  0  0  0  0  0  0
  144.9476  138.8238  152.7874 H   0  0  0  0  0  0  0  0  0  0  0  0
  146.4551  137.9097  155.1286 H   0  0  0  0  0  0  0  0  0  0  0  0
  144.5255  138.9056  156.5023 H   0  0  0  0  0  0  0  0  0  0  0  0
  144.0077  137.5379  155.5407 H   0  0  0  0  0  0  0  0  0  0  0  0
  143.6427  139.1727  155.0061 H   0  0  0  0  0  0  0  0  0  0  0  0
  148.0960  138.2752  153.6005 H   0  0  0  0  0  0  0  0  0  0  0  0
  148.7207  139.5704  152.6240 H   0  0  0  0  0  0  0  0  0  0  0  0
  149.5555  138.9388  155.5199 H   0  0  0  0  0  0  0  0  0  0  0  0
  150.4971  138.5915  154.0825 H   0  0  0  0  0  0  0  0  0  0  0  0
  149.2079  141.3329  156.1133 H   0  0  0  0  0  0  0  0  0  0  0  0
  149.9345  142.5351  155.0615 H   0  0  0  0  0  0  0  0  0  0  0  0
  148.4025  141.8924  153.1951 H   0  0  0  0  0  0  0  0  0  0  0  0
  147.4948  142.3822  154.5975 H   0  0  0  0  0  0  0  0  0  0  0  0
  1  2  1  0  0  0  0
  1 20  1  0  0  0  0
  1 21  1  0  0  0  0
  1 22  1  0  0  0  0
  2  3  1  0  0  0  0
  2  9  1  0  0  0  0
  2 23  1  0  0  0  0
  3  4  1  0  0  0  0
  3 24  1  0  0  0  0
  3 25  1  0  0  0  0
  4  8  1  0  0  0  0
  4  5  1  0  0  0  0
  5  6  2  0  0  0  0
  5 26  1  0  0  0  0
  6  7  1  0  0  0  0
  6 27  1  0  0  0  0
  7  8  2  0  0  0  0
  7 28  1  0  0  0  0
  9 10  1  0  0  0  0
  9 29  1  0  0  0  0
 10 11  1  0  0  0  0
 10 12  1  0  0  0  0
 10 30  1  0  0  0  0
 11 31  1  0  0  0  0
 11 32  1  0  0  0  0
 11 33  1  0  0  0  0
 12 13  2  0  0  0  0
 12 14  1  0  0  0  0
 14 19  1  0  0  0  0
 14 15  1  0  0  0  0
 15 16  1  0  0  0  0
 15 34  1  0  0  0  0
 15 35  1  0  0  0  0
 16 17  1  0  0  0  0
 16 36  1  0  0  0  0
 16 37  1  0  0  0  0
 17 18  1  0  0  0  0
 18 19  1  0  0  0  0
 18 38  1  0  0  0  0
 18 39  1  0  0  0  0
 19 40  1  0  0  0  0
 19 41  1  0  0  0  0
M  END
> <s_m_source_file>
AV-unprocessed.smi

> <i_m_source_file_index>
3336

> <i_lp_mmshare_version>
43012

> <i_f3d_flags>
0

> <s_epik_input>
bjFbY0hdW2NIXVtjSF1uMVtDSDJdW0NAQEhdKFtDSDNdKVtOSF1bQ0BIXShbQ0gzXSlDKD1PKU4yW0NIMl1bQ0gyXU9bQ0gyXVtDSDJdMg==

> <s_epik_cmdline>
J2VwaWtfcHl0aG9uJywgJy1waCcsICc3LjAnLCAnLXRuJywgJzgnLCAnLW1hJywgJzIwMCcsICctbWV0YWxfYmluZGluZycsICctaW1hZScsICc8aW5maWxlLm1hZT4nLCAnLW9tYWUnLCAnPG91dGZpbGUubWFlPic=

> <r_lp_tautomer_probability>
1

> <r_epik_Ionization_Penalty>
0.739958

> <r_epik_Ionization_Penalty_Charging>
0

> <r_epik_Ionization_Penalty_Neutral>
0.739958

> <r_epik_State_Penalty>
0.765967

> <r_epik_Charging_Adjusted_Penalty>
0.765967

> <i_epik_Tot_Q>
0

> <i_epik_Tot_abs_Q>
0

> <r_epik_Metal_State_Penalty>
0.765947

> <b_epik_Metal_Only>
0

> <s_lp_Force_Field>
OPLS_2005

> <r_lp_Energy>
30.7433

> <b_lp_Chiralities_Consistent>
1

> <s_lp_Variant>
AV-unprocessed.smi:3336-6

> <Gold.Version>
5.8.1

> <Gold.Id.Protein>
6NUR|6NUR_protein|mol2

> <Gold.PLP.Fitness>
38.1093

> <Gold.PLP.PLP>
-29.6188

> <Gold.PLP.part.hbond>
-2.0000

> <Gold.PLP.part.metal>
0.0000

> <Gold.PLP.part.buried>
-0.1460

> <Gold.PLP.part.nonpolar>
-27.9333

> <Gold.PLP.part.repulsive>
0.3034

> <Gold.PLP.ligand.clash>
0.0000

> <Gold.PLP.ligand.torsion>
0.8268

> <Gold.PLP.Chemscore.Hbond>
2.0000

> <Gold.PLP.Chemscore.CHOScore>
1.3508

> <Gold.PLP.Chemscore.Metal>
0.0000

> <Gold.Chemscore.Hbonds>
donor molecule, donor type, donor heavy atom, donor atom, acceptor molecule, acceptor atom, score
      L1  H     9    29       P1 10175  0.84
      P1  H  7989  7998       L1    17  0.91
      L1  C     5    26       P1  7921  1.00
      L1  C     7    28       P1 10957  0.21

> <Gold.PLP.Chemscore.Internal.Correction>
0.0915

> <Gold.Rescore>
     Score         DG    S(hbond)    S(metal)    S(lipo)     H(rot)  DE(clash)    DE(int)     intcor
     11.80     -14.27       1.87        0.00      60.89       1.79       0.58       1.88       ----

> <Gold.Chemscore.Fitness>
11.8039

> <Gold.Chemscore.DG>
-14.2670

> <Gold.Chemscore.ZeroCoef>
-5.4800

> <Gold.Chemscore.Hbond>
1.8724

> <Gold.Chemscore.Metal>
0.0000

> <Gold.Chemscore.Lipo>
60.8910

> <Gold.Chemscore.Internal_Hbond>
0.0000

> <Gold.Chemscore.DEClash>
0.5825

> <Gold.Chemscore.DEInternal>
1.8806

> <Gold.Chemscore.Rot>
1.7935

> <Gold.Chemscore.Internal.Correction>
   9.000000E+99

> <Gold.Chemscore.Hbonds>
donor molecule, donor type, donor heavy atom, donor atom, acceptor molecule, acceptor atom, score
      L1  H     9    29       P1 10175  0.82
      P1  H  7989  7998       L1    17  0.83

> <Gold.Chemscore.Hbond.Weighted>
-6.2540

> <Gold.Chemscore.Metal.Weighted>
-0.0000

> <Gold.Chemscore.Lipo.Weighted>
-7.1242

> <Gold.Chemscore.Internal_Hbond.Weighted>
0.0000

> <Gold.Chemscore.DEClash.Weighted>
0.5825

> <Gold.Chemscore.DEInternal.Weighted>
1.8806

> <Gold.Chemscore.Rot.Weighted>
4.5912

> <Gold.Chemscore.Internal.Correction.Weighted>
   9.000000E+99

> <Gold.Protein.RotatedTorsions>
[ 6907 6896 6895 6894 ] final -161.69 input  -60.11 | X-H torsion
[ 7974 7965 7964 7962 ] final   67.51 input  175.53 | X-H torsion
[ 8008 7997 7996 7995 ] final  150.45 input   59.86 | X-H torsion
[ 10167 10162 10161 10158 ] final  177.70 input  -65.29 | X-H torsion
[ 10718 10713 10712 10709 ] final -149.80 input   66.30 | X-H torsion
[ 10763 10752 10751 10750 ] final  146.28 input  -60.55 | X-H torsion
[ 11005 11000 10999 10996 ] final  -38.57 input  -57.11 | X-H torsion

> <Gold.Protein.ActiveResidues>
 VAL166  LYS551  ARG553  GLY616  TRP617  ASP618  TYR619  PRO620  LYS621  CYS622 
 ASP623  PHE694  ASN695  SER759  ASP760  ASP761  ALA762  ILE779  LEU786  VAL792 
 PHE793  MET794  SER795  GLU796  ALA797  LYS798  CYS799  TRP800  GLU811  SER814 

> <Gold.Protein.RotatedAtoms>
  151.3686  133.3863  159.2696 H   0  0  0  0  0  0  0  0  0  0  0  0  # atno 6907 bound_to 6896
  150.9669  134.9049  159.7775 H   0  0  0  0  0  0  0  0  0  0  0  0  # atno 6908 bound_to 6896
  152.5170  134.3647  159.9349 H   0  0  0  0  0  0  0  0  0  0  0  0  # atno 6909 bound_to 6896
  145.8138  139.3047  143.1083 H   0  0  0  0  0  0  0  0  0  0  0  0  # atno 7974 bound_to 7965
  156.2715  140.2074  156.6019 H   0  0  0  0  0  0  0  0  0  0  0  0  # atno 8008 bound_to 7997
  154.6900  140.0531  157.0377 H   0  0  0  0  0  0  0  0  0  0  0  0  # atno 8009 bound_to 7997
  155.0880  140.3193  155.4585 H   0  0  0  0  0  0  0  0  0  0  0  0  # atno 8010 bound_to 7997
  139.5264  144.2767  152.0582 H   0  0  0  0  0  0  0  0  0  0  0  0  # atno 10167 bound_to 10162
  156.4379  130.8107  151.2336 H   0  0  0  0  0  0  0  0  0  0  0  0  # atno 10718 bound_to 10713
  154.0192  135.2907  155.3383 H   0  0  0  0  0  0  0  0  0  0  0  0  # atno 10763 bound_to 10752
  154.7056  135.5170  153.8594 H   0  0  0  0  0  0  0  0  0  0  0  0  # atno 10764 bound_to 10752
  153.0688  135.6640  154.0416 H   0  0  0  0  0  0  0  0  0  0  0  0  # atno 10765 bound_to 10752
  141.0037  133.6942  156.2071 H   0  0  0  0  0  0  0  0  0  0  0  0  # atno 11005 bound_to 11000
  145.9749  140.8730  143.0144 LP  0  0  0  0  0  0  0  0  0  0  0  0  # atno 17320 bound_to 7965
  144.6754  140.1998  143.7388 LP  0  0  0  0  0  0  0  0  0  0  0  0  # atno 17321 bound_to 7965
  140.2224  144.4453  150.6336 LP  0  0  0  0  0  0  0  0  0  0  0  0  # atno 17342 bound_to 10162
  140.6410  143.2203  151.6291 LP  0  0  0  0  0  0  0  0  0  0  0  0  # atno 17343 bound_to 10162
  157.7507  131.0177  150.3598 LP  0  0  0  0  0  0  0  0  0  0  0  0  # atno 17370 bound_to 10713
  156.3949  130.3905  149.7002 LP  0  0  0  0  0  0  0  0  0  0  0  0  # atno 17371 bound_to 10713
  140.6847  134.4730  157.5589 LP  0  0  0  0  0  0  0  0  0  0  0  0  # atno 17394 bound_to 11000
  139.9052  134.8465  156.1734 LP  0  0  0  0  0  0  0  0  0  0  0  0  # atno 17395 bound_to 11000

$$$$
