AV-unprocessed.smi:3086|AV-procd|sdf|11765|dock6
  -GOLD-   2272017143D 1   1.00000     0.00000
 Structure written by MMmdl.
 30 31  0  0  0  0  0  0  0  0  2 V2000
  152.8482  143.7827  163.4003 C   0  0  0  0  0  0  0  0  0  0  0  0
  153.1002  142.9922  162.1621 C   0  0  0  0  0  0  0  0  0  0  0  0
  153.9630  141.9367  162.1173 N   0  0  0  0  0  0  0  0  0  0  0  0
  153.8332  141.5791  160.8445 C   0  0  0  0  0  0  0  0  0  0  0  0
  154.5479  140.4239  160.2217 C   0  0  0  0  0  0  0  0  0  0  0  0
  152.9828  142.3635  160.1646 N   0  0  0  0  0  0  0  0  0  0  0  0
  152.5204  142.2926  158.7823 C   0  0  1  0  0  0  0  0  0  0  0  0
  151.9992  140.8813  158.4507 C   0  0  0  0  0  0  0  0  0  0  0  0
  151.5062  140.8194  156.9968 C   0  0  0  0  0  0  0  0  0  0  0  0
  150.4610  141.9137  156.7221 C   0  0  0  0  0  0  0  0  0  0  0  0
  150.9999  143.2499  157.0576 N   0  3  0  0  0  0  0  0  0  0  0  0
  151.4429  143.3551  158.4650 C   0  0  0  0  0  0  0  0  0  0  0  0
  152.4764  143.2825  161.0234 N   0  0  0  0  0  0  0  0  0  0  0  0
  153.3816  143.3523  164.2484 H   0  0  0  0  0  0  0  0  0  0  0  0
  151.7830  143.7926  163.6326 H   0  0  0  0  0  0  0  0  0  0  0  0
  153.1848  144.8112  163.2674 H   0  0  0  0  0  0  0  0  0  0  0  0
  155.0768  139.8484  160.9820 H   0  0  0  0  0  0  0  0  0  0  0  0
  155.2729  140.7818  159.4905 H   0  0  0  0  0  0  0  0  0  0  0  0
  153.8379  139.7638  159.7230 H   0  0  0  0  0  0  0  0  0  0  0  0
  153.3780  142.4976  158.1401 H   0  0  0  0  0  0  0  0  0  0  0  0
  152.7851  140.1413  158.6079 H   0  0  0  0  0  0  0  0  0  0  0  0
  151.1830  140.6162  159.1245 H   0  0  0  0  0  0  0  0  0  0  0  0
  152.3518  140.9408  156.3184 H   0  0  0  0  0  0  0  0  0  0  0  0
  151.0821  139.8367  156.7889 H   0  0  0  0  0  0  0  0  0  0  0  0
  150.1665  141.9011  155.6725 H   0  0  0  0  0  0  0  0  0  0  0  0
  149.5596  141.7325  157.3090 H   0  0  0  0  0  0  0  0  0  0  0  0
  151.7895  143.4389  156.4568 H   0  0  0  0  0  0  0  0  0  0  0  0
  150.5705  143.2379  159.1096 H   0  0  0  0  0  0  0  0  0  0  0  0
  151.8350  144.3579  158.6375 H   0  0  0  0  0  0  0  0  0  0  0  0
  150.2860  143.9440  156.8861 H   0  0  0  0  0  0  0  0  0  0  0  0
  1  2  1  0  0  0  0
  1 14  1  0  0  0  0
  1 15  1  0  0  0  0
  1 16  1  0  0  0  0
  2 13  2  0  0  0  0
  2  3  1  0  0  0  0
  3  4  2  0  0  0  0
  4  5  1  0  0  0  0
  4  6  1  0  0  0  0
  5 17  1  0  0  0  0
  5 18  1  0  0  0  0
  5 19  1  0  0  0  0
  6  7  1  0  0  0  0
  6 13  1  0  0  0  0
  7 12  1  0  0  0  0
  7  8  1  0  0  0  0
  7 20  1  0  0  0  0
  8  9  1  0  0  0  0
  8 21  1  0  0  0  0
  8 22  1  0  0  0  0
  9 10  1  0  0  0  0
  9 23  1  0  0  0  0
  9 24  1  0  0  0  0
 10 11  1  0  0  0  0
 10 25  1  0  0  0  0
 10 26  1  0  0  0  0
 11 12  1  0  0  0  0
 11 27  1  0  0  0  0
 11 30  1  0  0  0  0
 12 28  1  0  0  0  0
 12 29  1  0  0  0  0
M  CHG  1  11   1
M  END
> <s_m_source_file>
AV-unprocessed.smi

> <i_m_source_file_index>
3086

> <i_lp_mmshare_version>
43012

> <i_f3d_flags>
0

> <s_epik_input>
W0NIM11jMW5jKFtDSDNdKW4objEpW0NAQEhdMltDSDJdW0NIMl1bQ0gyXVtOSF1bQ0gyXTI=

> <s_epik_cmdline>
J2VwaWtfcHl0aG9uJywgJy1waCcsICc3LjAnLCAnLXRuJywgJzgnLCAnLW1hJywgJzIwMCcsICctbWV0YWxfYmluZGluZycsICctaW1hZScsICc8aW5maWxlLm1hZT4nLCAnLW9tYWUnLCAnPG91dGZpbGUubWFlPic=

> <r_lp_tautomer_probability>
1

> <r_epik_Ionization_Penalty>
0.000522417

> <r_epik_Ionization_Penalty_Charging>
0.000474443

> <r_epik_Ionization_Penalty_Neutral>
4.79736e-05

> <r_epik_State_Penalty>
-0

> <r_epik_Charging_Adjusted_Penalty>
0.000474443

> <i_epik_Tot_Q>
1

> <i_epik_Tot_abs_Q>
1

> <r_epik_Metal_State_Penalty>
-0

> <b_epik_Metal_Only>
0

> <s_lp_Force_Field>
OPLS_2005

> <r_lp_Energy>
16.4369

> <b_lp_Chiralities_Consistent>
1

> <s_lp_Variant>
AV-unprocessed.smi:3086-2

> <Gold.Version>
5.8.1

> <Gold.Id.Protein>
6NUR|6NUR_protein|mol2

> <Gold.PLP.Fitness>
37.4756

> <Gold.PLP.PLP>
-31.5441

> <Gold.PLP.part.hbond>
-1.9420

> <Gold.PLP.part.metal>
0.0000

> <Gold.PLP.part.buried>
-2.9071

> <Gold.PLP.part.nonpolar>
-26.6716

> <Gold.PLP.part.repulsive>
0.1062

> <Gold.PLP.ligand.clash>
0.0000

> <Gold.PLP.ligand.torsion>
0.0549

> <Gold.PLP.Chemscore.Hbond>
2.0000

> <Gold.PLP.Chemscore.CHOScore>
0.0000

> <Gold.PLP.Chemscore.Metal>
0.0000

> <Gold.Chemscore.Hbonds>
donor molecule, donor type, donor heavy atom, donor atom, acceptor molecule, acceptor atom, score
      L1  H    11    30       P1  8028  2.00

> <Gold.PLP.Chemscore.Internal.Correction>
0.0412

> <Gold.Rescore>
     Score         DG    S(hbond)    S(metal)    S(lipo)     H(rot)  DE(clash)    DE(int)     intcor
     12.91     -13.05       1.00        0.00      58.11       1.00       0.11       0.04       ----

> <Gold.Chemscore.Fitness>
12.9059

> <Gold.Chemscore.DG>
-13.0535

> <Gold.Chemscore.ZeroCoef>
-5.4800

> <Gold.Chemscore.Hbond>
0.9986

> <Gold.Chemscore.Metal>
0.0000

> <Gold.Chemscore.Lipo>
58.1054

> <Gold.Chemscore.Internal_Hbond>
0.0000

> <Gold.Chemscore.DEClash>
0.1081

> <Gold.Chemscore.DEInternal>
0.0395

> <Gold.Chemscore.Rot>
1.0000

> <Gold.Chemscore.Internal.Correction>
   9.000000E+99

> <Gold.Chemscore.Hbonds>
donor molecule, donor type, donor heavy atom, donor atom, acceptor molecule, acceptor atom, score
      L1  H    11    30       P1  8028  0.90

> <Gold.Chemscore.Hbond.Weighted>
-3.3352

> <Gold.Chemscore.Metal.Weighted>
-0.0000

> <Gold.Chemscore.Lipo.Weighted>
-6.7983

> <Gold.Chemscore.Internal_Hbond.Weighted>
0.0000

> <Gold.Chemscore.DEClash.Weighted>
0.1081

> <Gold.Chemscore.DEInternal.Weighted>
0.0395

> <Gold.Chemscore.Rot.Weighted>
2.5600

> <Gold.Chemscore.Internal.Correction.Weighted>
   9.000000E+99

> <Gold.Protein.RotatedTorsions>
[ 6907 6896 6895 6894 ] final  -41.49 input  -60.11 | X-H torsion
[ 7974 7965 7964 7962 ] final  119.54 input  175.53 | X-H torsion
[ 8008 7997 7996 7995 ] final  -56.94 input   59.86 | X-H torsion
[ 10167 10162 10161 10158 ] final  137.98 input  -65.29 | X-H torsion
[ 10718 10713 10712 10709 ] final -178.35 input   66.30 | X-H torsion
[ 10763 10752 10751 10750 ] final  -42.86 input  -60.55 | X-H torsion
[ 11005 11000 10999 10996 ] final  -11.20 input  -57.11 | X-H torsion

> <Gold.Protein.ActiveResidues>
 VAL166  LYS551  ARG553  GLY616  TRP617  ASP618  TYR619  PRO620  LYS621  CYS622 
 ASP623  PHE694  ASN695  SER759  ASP760  ASP761  ALA762  ILE779  LEU786  VAL792 
 PHE793  MET794  SER795  GLU796  ALA797  LYS798  CYS799  TRP800  GLU811  SER814 

> <Gold.Protein.RotatedAtoms>
  150.9661  134.9042  159.7759 H   0  0  0  0  0  0  0  0  0  0  0  0  # atno 6907 bound_to 6896
  152.5174  134.3605  159.9293 H   0  0  0  0  0  0  0  0  0  0  0  0  # atno 6908 bound_to 6896
  151.3616  133.3847  159.2725 H   0  0  0  0  0  0  0  0  0  0  0  0  # atno 6909 bound_to 6896
  145.1419  139.3263  143.4612 H   0  0  0  0  0  0  0  0  0  0  0  0  # atno 7974 bound_to 7965
  154.4249  140.1118  156.5718 H   0  0  0  0  0  0  0  0  0  0  0  0  # atno 8008 bound_to 7997
  155.6204  140.3495  155.4631 H   0  0  0  0  0  0  0  0  0  0  0  0  # atno 8009 bound_to 7997
  156.0028  140.1203  157.0520 H   0  0  0  0  0  0  0  0  0  0  0  0  # atno 8010 bound_to 7997
  139.5126  144.6379  151.5647 H   0  0  0  0  0  0  0  0  0  0  0  0  # atno 10167 bound_to 10162
  156.8431  130.9693  151.3098 H   0  0  0  0  0  0  0  0  0  0  0  0  # atno 10718 bound_to 10713
  153.9860  135.6711  153.4752 H   0  0  0  0  0  0  0  0  0  0  0  0  # atno 10763 bound_to 10752
  153.0727  135.4965  154.8335 H   0  0  0  0  0  0  0  0  0  0  0  0  # atno 10764 bound_to 10752
  154.7137  135.3102  154.9119 H   0  0  0  0  0  0  0  0  0  0  0  0  # atno 10765 bound_to 10752
  140.7527  133.8579  155.9059 H   0  0  0  0  0  0  0  0  0  0  0  0  # atno 11005 bound_to 11000
  146.3504  140.1459  142.8593 LP  0  0  0  0  0  0  0  0  0  0  0  0  # atno 17320 bound_to 7965
  145.0523  140.9027  143.4988 LP  0  0  0  0  0  0  0  0  0  0  0  0  # atno 17321 bound_to 7965
  140.6135  143.9392  150.6471 LP  0  0  0  0  0  0  0  0  0  0  0  0  # atno 17342 bound_to 10162
  140.2642  143.3502  152.1296 LP  0  0  0  0  0  0  0  0  0  0  0  0  # atno 17343 bound_to 10162
  157.6345  130.8755  149.9333 LP  0  0  0  0  0  0  0  0  0  0  0  0  # atno 17370 bound_to 10713
  156.0870  130.3667  150.0469 LP  0  0  0  0  0  0  0  0  0  0  0  0  # atno 17371 bound_to 10713
  140.9735  134.1499  157.4556 LP  0  0  0  0  0  0  0  0  0  0  0  0  # atno 17394 bound_to 11000
  139.8784  134.9987  156.5913 LP  0  0  0  0  0  0  0  0  0  0  0  0  # atno 17395 bound_to 11000

$$$$
