AV-unprocessed.smi:3267|AV-procd|sdf|12504|dock8
  -GOLD-   2272018413D 1   1.00000     0.00000
 Structure written by MMmdl.
 38 39  0  0  0  0  0  0  0  0  1 V2000
  144.6465  135.4177  153.5051 C   0  0  0  0  0  0  0  0  0  0  0  0
  145.0010  136.3541  152.3413 C   0  0  2  0  0  0  0  0  0  0  0  0
  144.8804  135.6446  150.9707 C   0  0  0  0  0  0  0  0  0  0  0  0
  145.1724  134.2266  151.0626 N   0  0  0  0  0  0  0  0  0  0  0  0
  144.2946  133.1647  151.0094 C   0  0  0  0  0  0  0  0  0  0  0  0
  145.0308  132.0227  151.1455 C   0  0  0  0  0  0  0  0  0  0  0  0
  146.3661  132.4957  151.2798 C   0  0  0  0  0  0  0  0  0  0  0  0
  146.4475  133.8157  151.2315 N   0  0  0  0  0  0  0  0  0  0  0  0
  146.3520  136.8731  152.5407 N   0  0  0  0  0  0  0  0  0  0  0  0
  146.6950  137.8227  153.4225 C   0  0  0  0  0  0  0  0  0  0  0  0
  145.9042  138.3732  154.1889 O   0  0  0  0  0  0  0  0  0  0  0  0
  148.0039  138.1034  153.3652 N   0  0  0  0  0  0  0  0  0  0  0  0
  148.6861  139.0802  154.2063 C   0  0  0  0  0  0  0  0  0  0  0  0
  150.2081  139.0382  153.9953 C   0  0  2  0  0  0  0  0  0  0  0  0
  150.8442  137.7061  154.3871 C   0  0  0  0  0  0  0  0  0  0  0  0
  152.2675  138.1215  154.6797 C   0  0  0  0  0  0  0  0  0  0  0  0
  152.0641  139.4742  155.3554 C   0  0  0  0  0  0  0  0  0  0  0  0
  150.8568  140.0074  154.8161 O   0  0  0  0  0  0  0  0  0  0  0  0
  143.6269  135.0436  153.4065 H   0  0  0  0  0  0  0  0  0  0  0  0
  144.7146  135.9361  154.4622 H   0  0  0  0  0  0  0  0  0  0  0  0
  145.3151  134.5569  153.5426 H   0  0  0  0  0  0  0  0  0  0  0  0
  144.3029  137.1929  152.3858 H   0  0  0  0  0  0  0  0  0  0  0  0
  143.8805  135.7583  150.5486 H   0  0  0  0  0  0  0  0  0  0  0  0
  145.5595  136.0865  150.2397 H   0  0  0  0  0  0  0  0  0  0  0  0
  143.2317  133.3095  150.8832 H   0  0  0  0  0  0  0  0  0  0  0  0
  144.6704  131.0048  151.1497 H   0  0  0  0  0  0  0  0  0  0  0  0
  147.2725  131.9234  151.4103 H   0  0  0  0  0  0  0  0  0  0  0  0
  147.0787  136.4805  151.9604 H   0  0  0  0  0  0  0  0  0  0  0  0
  148.5735  137.5961  152.7039 H   0  0  0  0  0  0  0  0  0  0  0  0
  148.3011  140.0719  153.9671 H   0  0  0  0  0  0  0  0  0  0  0  0
  148.4455  138.9006  155.2556 H   0  0  0  0  0  0  0  0  0  0  0  0
  150.4580  139.2552  152.9554 H   0  0  0  0  0  0  0  0  0  0  0  0
  150.3799  137.3067  155.2900 H   0  0  0  0  0  0  0  0  0  0  0  0
  150.7707  136.9532  153.6021 H   0  0  0  0  0  0  0  0  0  0  0  0
  152.8046  137.4079  155.3052 H   0  0  0  0  0  0  0  0  0  0  0  0
  152.8202  138.2457  153.7474 H   0  0  0  0  0  0  0  0  0  0  0  0
  151.9351  139.3475  156.4308 H   0  0  0  0  0  0  0  0  0  0  0  0
  152.9049  140.1486  155.1931 H   0  0  0  0  0  0  0  0  0  0  0  0
  1  2  1  0  0  0  0
  1 19  1  0  0  0  0
  1 20  1  0  0  0  0
  1 21  1  0  0  0  0
  2  3  1  0  0  0  0
  2  9  1  0  0  0  0
  2 22  1  0  0  0  0
  3  4  1  0  0  0  0
  3 23  1  0  0  0  0
  3 24  1  0  0  0  0
  4  8  1  0  0  0  0
  4  5  1  0  0  0  0
  5  6  2  0  0  0  0
  5 25  1  0  0  0  0
  6  7  1  0  0  0  0
  6 26  1  0  0  0  0
  7  8  2  0  0  0  0
  7 27  1  0  0  0  0
  9 10  1  0  0  0  0
  9 28  1  0  0  0  0
 10 11  2  0  0  0  0
 10 12  1  0  0  0  0
 12 13  1  0  0  0  0
 12 29  1  0  0  0  0
 13 14  1  0  0  0  0
 13 30  1  0  0  0  0
 13 31  1  0  0  0  0
 14 18  1  0  0  0  0
 14 15  1  0  0  0  0
 14 32  1  0  0  0  0
 15 16  1  0  0  0  0
 15 33  1  0  0  0  0
 15 34  1  0  0  0  0
 16 17  1  0  0  0  0
 16 35  1  0  0  0  0
 16 36  1  0  0  0  0
 17 18  1  0  0  0  0
 17 37  1  0  0  0  0
 17 38  1  0  0  0  0
M  END
> <s_m_source_file>
AV-unprocessed.smi

> <i_m_source_file_index>
3267

> <i_lp_mmshare_version>
43012

> <i_f3d_flags>
0

> <s_epik_input>
bjFbY0hdW2NIXVtjSF1uMVtDSDJdW0NAQEhdKFtDSDNdKVtOSF1DKD1PKVtOSF1bQ0gyXVtDQEBIXTJbQ0gyXVtDSDJdW0NIMl1PMg==

> <s_epik_cmdline>
J2VwaWtfcHl0aG9uJywgJy1waCcsICc3LjAnLCAnLXRuJywgJzgnLCAnLW1hJywgJzIwMCcsICctbWV0YWxfYmluZGluZycsICctaW1hZScsICc8aW5maWxlLm1hZT4nLCAnLW9tYWUnLCAnPG91dGZpbGUubWFlPic=

> <r_lp_tautomer_probability>
1

> <r_epik_Ionization_Penalty>
6.24796e-05

> <r_epik_Ionization_Penalty_Charging>
0

> <r_epik_Ionization_Penalty_Neutral>
6.24796e-05

> <r_epik_State_Penalty>
-0

> <r_epik_Charging_Adjusted_Penalty>
0

> <i_epik_Tot_Q>
0

> <i_epik_Tot_abs_Q>
0

> <r_epik_Metal_State_Penalty>
-0

> <b_epik_Metal_Only>
0

> <s_lp_Force_Field>
OPLS_2005

> <r_lp_Energy>
17.87

> <b_lp_Chiralities_Consistent>
1

> <s_lp_Variant>
AV-unprocessed.smi:3267-1

> <Gold.Version>
5.8.1

> <Gold.Id.Protein>
6NUR|6NUR_protein|mol2

> <Gold.PLP.Fitness>
45.0489

> <Gold.PLP.PLP>
-32.5856

> <Gold.PLP.part.hbond>
-3.2223

> <Gold.PLP.part.metal>
0.0000

> <Gold.PLP.part.buried>
-3.1555

> <Gold.PLP.part.nonpolar>
-27.3681

> <Gold.PLP.part.repulsive>
0.4717

> <Gold.PLP.ligand.clash>
0.0000

> <Gold.PLP.ligand.torsion>
0.7895

> <Gold.PLP.Chemscore.Hbond>
2.6740

> <Gold.PLP.Chemscore.CHOScore>
2.0000

> <Gold.PLP.Chemscore.Metal>
0.0000

> <Gold.Chemscore.Hbonds>
donor molecule, donor type, donor heavy atom, donor atom, acceptor molecule, acceptor atom, score
      L1  H     9    28       P1  7948  0.88
      L1  H    12    29       P1  7948  1.00
      P1  H  7989  7998       L1    18  0.60
      L1  C     5    25       P1 10186  0.28
      L1  C     7    27       P1 10747  1.00

> <Gold.PLP.Chemscore.Internal.Correction>
0.0203

> <Gold.Rescore>
     Score         DG    S(hbond)    S(metal)    S(lipo)     H(rot)  DE(clash)    DE(int)     intcor
     16.41     -17.02       2.43        0.00      70.25       1.87       0.00       0.61       ----

> <Gold.Chemscore.Fitness>
16.4055

> <Gold.Chemscore.DG>
-17.0203

> <Gold.Chemscore.ZeroCoef>
-5.4800

> <Gold.Chemscore.Hbond>
2.4294

> <Gold.Chemscore.Metal>
0.0000

> <Gold.Chemscore.Lipo>
70.2519

> <Gold.Chemscore.Internal_Hbond>
0.0000

> <Gold.Chemscore.DEClash>
0.0004

> <Gold.Chemscore.DEInternal>
0.6144

> <Gold.Chemscore.Rot>
1.8724

> <Gold.Chemscore.Internal.Correction>
   9.000000E+99

> <Gold.Chemscore.Hbonds>
donor molecule, donor type, donor heavy atom, donor atom, acceptor molecule, acceptor atom, score
      L1  H     9    28       P1  7948  0.86
      L1  H    12    29       P1  7948  0.96
      P1  H  7989  7998       L1    18  0.01

> <Gold.Chemscore.Hbond.Weighted>
-8.1141

> <Gold.Chemscore.Metal.Weighted>
-0.0000

> <Gold.Chemscore.Lipo.Weighted>
-8.2195

> <Gold.Chemscore.Internal_Hbond.Weighted>
0.0000

> <Gold.Chemscore.DEClash.Weighted>
0.0004

> <Gold.Chemscore.DEInternal.Weighted>
0.6144

> <Gold.Chemscore.Rot.Weighted>
4.7933

> <Gold.Chemscore.Internal.Correction.Weighted>
   9.000000E+99

> <Gold.Protein.RotatedTorsions>
[ 6907 6896 6895 6894 ] final  -89.59 input  -60.11 | X-H torsion
[ 7974 7965 7964 7962 ] final  -49.00 input  175.53 | X-H torsion
[ 8008 7997 7996 7995 ] final  124.47 input   59.86 | X-H torsion
[ 10167 10162 10161 10158 ] final  -63.52 input  -65.29 | X-H torsion
[ 10718 10713 10712 10709 ] final -105.84 input   66.30 | X-H torsion
[ 10763 10752 10751 10750 ] final  171.74 input  -60.55 | X-H torsion
[ 11005 11000 10999 10996 ] final  -37.75 input  -57.11 | X-H torsion

> <Gold.Protein.ActiveResidues>
 VAL166  LYS551  ARG553  GLY616  TRP617  ASP618  TYR619  PRO620  LYS621  CYS622 
 ASP623  PHE694  ASN695  SER759  ASP760  ASP761  ALA762  ILE779  LEU786  VAL792 
 PHE793  MET794  SER795  GLU796  ALA797  LYS798  CYS799  TRP800  GLU811  SER814 

> <Gold.Protein.RotatedAtoms>
  150.6875  134.2563  159.4530 H   0  0  0  0  0  0  0  0  0  0  0  0  # atno 6907 bound_to 6896
  152.0497  134.9659  160.0584 H   0  0  0  0  0  0  0  0  0  0  0  0  # atno 6908 bound_to 6896
  152.1128  133.4275  159.4676 H   0  0  0  0  0  0  0  0  0  0  0  0  # atno 6909 bound_to 6896
  145.9452  140.7625  142.9532 H   0  0  0  0  0  0  0  0  0  0  0  0  # atno 7974 bound_to 7965
  156.2802  140.2739  156.1794 H   0  0  0  0  0  0  0  0  0  0  0  0  # atno 8008 bound_to 7997
  155.0572  140.0386  157.2582 H   0  0  0  0  0  0  0  0  0  0  0  0  # atno 8009 bound_to 7997
  154.7147  140.2675  155.6602 H   0  0  0  0  0  0  0  0  0  0  0  0  # atno 8010 bound_to 7997
  140.5865  143.2334  151.6231 H   0  0  0  0  0  0  0  0  0  0  0  0  # atno 10167 bound_to 10162
  156.0363  130.5583  150.7596 H   0  0  0  0  0  0  0  0  0  0  0  0  # atno 10718 bound_to 10713
  154.4163  135.2757  155.2005 H   0  0  0  0  0  0  0  0  0  0  0  0  # atno 10763 bound_to 10752
  154.3969  135.6053  153.5878 H   0  0  0  0  0  0  0  0  0  0  0  0  # atno 10764 bound_to 10752
  152.9832  135.5917  154.4452 H   0  0  0  0  0  0  0  0  0  0  0  0  # atno 10765 bound_to 10752
  140.9975  133.6972  156.1962 H   0  0  0  0  0  0  0  0  0  0  0  0  # atno 11005 bound_to 11000
  144.6786  140.2344  143.7351 LP  0  0  0  0  0  0  0  0  0  0  0  0  # atno 17320 bound_to 7965
  145.8246  139.2059  143.1918 LP  0  0  0  0  0  0  0  0  0  0  0  0  # atno 17321 bound_to 7965
  139.5201  144.3233  152.0891 LP  0  0  0  0  0  0  0  0  0  0  0  0  # atno 17342 bound_to 10162
  140.2391  144.4288  150.6267 LP  0  0  0  0  0  0  0  0  0  0  0  0  # atno 17343 bound_to 10162
  157.5119  131.0926  151.0188 LP  0  0  0  0  0  0  0  0  0  0  0  0  # atno 17370 bound_to 10713
  157.0541  130.5799  149.5375 LP  0  0  0  0  0  0  0  0  0  0  0  0  # atno 17371 bound_to 10713
  140.6942  134.4634  157.5588 LP  0  0  0  0  0  0  0  0  0  0  0  0  # atno 17394 bound_to 11000
  139.9022  134.8530  156.1849 LP  0  0  0  0  0  0  0  0  0  0  0  0  # atno 17395 bound_to 11000

$$$$
