AV-unprocessed.smi:2171|AV-procd|sdf|8826|dock1
  -GOLD-   2272012 23D 1   1.00000     0.00000
 Structure written by MMmdl.
 39 41  0  0  0  0  0  0  0  0  2 V2000
  151.6790  141.4748  157.7775 O   0  0  0  0  0  0  0  0  0  0  0  0
  151.1377  142.4468  157.2515 C   0  0  0  0  0  0  0  0  0  0  0  0
  151.5018  143.8618  157.7009 C   0  0  0  0  0  0  0  0  0  0  0  0
  151.8150  143.8886  159.1187 N   0  0  0  0  0  0  0  0  0  0  0  0
  151.4674  144.8388  160.0569 C   0  0  0  0  0  0  0  0  0  0  0  0
  151.9794  144.4333  161.2560 C   0  0  0  0  0  0  0  0  0  0  0  0
  152.6341  143.2084  160.9469 C   0  0  0  0  0  0  0  0  0  0  0  0
  152.5328  142.8847  159.6679 N   0  0  0  0  0  0  0  0  0  0  0  0
  150.2068  142.3450  156.2899 N   0  0  0  0  0  0  0  0  0  0  0  0
  149.6854  141.0916  155.7529 C   0  0  2  0  0  0  0  0  0  0  0  0
  150.7557  139.9981  155.6352 C   0  0  0  0  0  0  0  0  0  0  0  0
  150.4194  139.2353  154.3378 C   0  0  0  0  0  0  0  0  0  0  0  0
  149.1850  139.8449  153.7906 N   0  3  1  0  0  0  0  0  0  0  0  0
  147.9707  139.0548  154.1368 C   0  0  0  0  0  0  0  0  0  0  0  0
  146.6752  139.7970  153.7835 C   0  0  0  0  0  0  0  0  0  0  0  0
  146.6305  141.1512  154.4955 C   0  0  0  0  0  0  0  0  0  0  0  0
  147.8527  141.9794  154.0873 C   0  0  0  0  0  0  0  0  0  0  0  0
  149.1892  141.2347  154.3082 C   0  0  1  0  0  0  0  0  0  0  0  0
  152.3587  144.2234  157.1301 H   0  0  0  0  0  0  0  0  0  0  0  0
  150.6764  144.5488  157.5093 H   0  0  0  0  0  0  0  0  0  0  0  0
  150.8899  145.7133  159.7963 H   0  0  0  0  0  0  0  0  0  0  0  0
  151.8997  144.9353  162.2087 H   0  0  0  0  0  0  0  0  0  0  0  0
  153.1758  142.5495  161.6094 H   0  0  0  0  0  0  0  0  0  0  0  0
  149.8224  143.1993  155.9131 H   0  0  0  0  0  0  0  0  0  0  0  0
  148.8808  140.7122  156.3854 H   0  0  0  0  0  0  0  0  0  0  0  0
  151.7567  140.4257  155.5613 H   0  0  0  0  0  0  0  0  0  0  0  0
  150.7442  139.3421  156.5064 H   0  0  0  0  0  0  0  0  0  0  0  0
  151.2222  139.3732  153.6126 H   0  0  0  0  0  0  0  0  0  0  0  0
  150.3163  138.1617  154.5027 H   0  0  0  0  0  0  0  0  0  0  0  0
  148.0056  138.1015  153.6082 H   0  0  0  0  0  0  0  0  0  0  0  0
  147.9711  138.8192  155.2023 H   0  0  0  0  0  0  0  0  0  0  0  0
  146.6088  139.9390  152.7040 H   0  0  0  0  0  0  0  0  0  0  0  0
  145.8121  139.1963  154.0723 H   0  0  0  0  0  0  0  0  0  0  0  0
  145.7144  141.6831  154.2366 H   0  0  0  0  0  0  0  0  0  0  0  0
  146.6139  141.0090  155.5766 H   0  0  0  0  0  0  0  0  0  0  0  0
  147.7629  142.2255  153.0285 H   0  0  0  0  0  0  0  0  0  0  0  0
  147.8544  142.9345  154.6123 H   0  0  0  0  0  0  0  0  0  0  0  0
  149.9565  141.7726  153.7472 H   0  0  0  0  0  0  0  0  0  0  0  0
  149.2443  139.8752  152.7826 H   0  0  0  0  0  0  0  0  0  0  0  0
  1  2  2  0  0  0  0
  2  3  1  0  0  0  0
  2  9  1  0  0  0  0
  3  4  1  0  0  0  0
  3 19  1  0  0  0  0
  3 20  1  0  0  0  0
  4  8  1  0  0  0  0
  4  5  1  0  0  0  0
  5  6  2  0  0  0  0
  5 21  1  0  0  0  0
  6  7  1  0  0  0  0
  6 22  1  0  0  0  0
  7  8  2  0  0  0  0
  7 23  1  0  0  0  0
  9 10  1  0  0  0  0
  9 24  1  0  0  0  0
 10 18  1  0  0  0  0
 10 11  1  0  0  0  0
 10 25  1  0  0  0  0
 11 12  1  0  0  0  0
 11 26  1  0  0  0  0
 11 27  1  0  0  0  0
 12 13  1  0  0  0  0
 12 28  1  0  0  0  0
 12 29  1  0  0  0  0
 13 18  1  0  0  0  0
 13 14  1  0  0  0  0
 13 39  1  0  0  0  0
 14 15  1  0  0  0  0
 14 30  1  0  0  0  0
 14 31  1  0  0  0  0
 15 16  1  0  0  0  0
 15 32  1  0  0  0  0
 15 33  1  0  0  0  0
 16 17  1  0  0  0  0
 16 34  1  0  0  0  0
 16 35  1  0  0  0  0
 17 18  1  0  0  0  0
 17 36  1  0  0  0  0
 17 37  1  0  0  0  0
 18 38  1  0  0  0  0
M  CHG  1  13   1
M  END
> <s_m_source_file>
AV-unprocessed.smi

> <i_m_source_file_index>
2171

> <i_lp_mmshare_version>
43012

> <i_f3d_flags>
0

> <s_epik_input>
bjFbY0hdW2NIXVtjSF1uMVtDSDJdQyg9TylbTkhdW0NASF0oW0NIMl1bQ0gyXTIpW0NAQEhdKE4yMylbQ0gyXVtDSDJdW0NIMl1bQ0gyXTM=

> <s_epik_cmdline>
J2VwaWtfcHl0aG9uJywgJy1waCcsICc3LjAnLCAnLXRuJywgJzgnLCAnLW1hJywgJzIwMCcsICctbWV0YWxfYmluZGluZycsICctaW1hZScsICc8aW5maWxlLm1hZT4nLCAnLW9tYWUnLCAnPG91dGZpbGUubWFlPic=

> <r_lp_tautomer_probability>
1

> <r_epik_Ionization_Penalty>
0.00204179

> <r_epik_Ionization_Penalty_Charging>
0.00203239

> <r_epik_Ionization_Penalty_Neutral>
9.40205e-06

> <r_epik_State_Penalty>
0.00138983

> <r_epik_Charging_Adjusted_Penalty>
0.00342221

> <i_epik_Tot_Q>
1

> <i_epik_Tot_abs_Q>
1

> <r_epik_Metal_State_Penalty>
-0

> <b_epik_Metal_Only>
0

> <s_lp_Force_Field>
OPLS_2005

> <r_lp_Energy>
37.3392

> <b_lp_Chiralities_Consistent>
1

> <s_lp_Variant>
AV-unprocessed.smi:2171-1

> <Gold.Version>
5.8.1

> <Gold.Id.Protein>
6NUR|6NUR_protein|mol2

> <Gold.PLP.Fitness>
47.1116

> <Gold.PLP.PLP>
-43.0618

> <Gold.PLP.part.hbond>
-2.0000

> <Gold.PLP.part.metal>
0.0000

> <Gold.PLP.part.buried>
-4.1330

> <Gold.PLP.part.nonpolar>
-36.2033

> <Gold.PLP.part.repulsive>
0.2328

> <Gold.PLP.ligand.clash>
0.0000

> <Gold.PLP.ligand.torsion>
0.9823

> <Gold.PLP.Chemscore.Hbond>
2.0000

> <Gold.PLP.Chemscore.CHOScore>
0.0000

> <Gold.PLP.Chemscore.Metal>
0.0000

> <Gold.Chemscore.Hbonds>
donor molecule, donor type, donor heavy atom, donor atom, acceptor molecule, acceptor atom, score
      L1  H     9    24       P1  8028  1.00
      L1  H    13    39       P1  7957  1.00

> <Gold.PLP.Chemscore.Internal.Correction>
0.0143

> <Gold.Rescore>
     Score         DG    S(hbond)    S(metal)    S(lipo)     H(rot)  DE(clash)    DE(int)     intcor
     16.53     -20.30       1.98        0.00     101.53       1.44       0.17       3.60       ----

> <Gold.Chemscore.Fitness>
16.5295

> <Gold.Chemscore.DG>
-20.2985

> <Gold.Chemscore.ZeroCoef>
-5.4800

> <Gold.Chemscore.Hbond>
1.9847

> <Gold.Chemscore.Metal>
0.0000

> <Gold.Chemscore.Lipo>
101.5270

> <Gold.Chemscore.Internal_Hbond>
0.0000

> <Gold.Chemscore.DEClash>
0.1653

> <Gold.Chemscore.DEInternal>
3.6037

> <Gold.Chemscore.Rot>
1.4410

> <Gold.Chemscore.Internal.Correction>
   9.000000E+99

> <Gold.Chemscore.Hbonds>
donor molecule, donor type, donor heavy atom, donor atom, acceptor molecule, acceptor atom, score
      L1  H     9    24       P1  8028  1.00
      L1  H    13    39       P1  7957  1.00

> <Gold.Chemscore.Hbond.Weighted>
-6.6288

> <Gold.Chemscore.Metal.Weighted>
-0.0000

> <Gold.Chemscore.Lipo.Weighted>
-11.8787

> <Gold.Chemscore.Internal_Hbond.Weighted>
0.0000

> <Gold.Chemscore.DEClash.Weighted>
0.1653

> <Gold.Chemscore.DEInternal.Weighted>
3.6037

> <Gold.Chemscore.Rot.Weighted>
3.6889

> <Gold.Chemscore.Internal.Correction.Weighted>
   9.000000E+99

> <Gold.Protein.RotatedTorsions>
[ 6907 6896 6895 6894 ] final   58.54 input  -60.11 | X-H torsion
[ 7974 7965 7964 7962 ] final  -94.66 input  175.53 | X-H torsion
[ 8008 7997 7996 7995 ] final   90.03 input   59.86 | X-H torsion
[ 10167 10162 10161 10158 ] final   54.03 input  -65.29 | X-H torsion
[ 10718 10713 10712 10709 ] final  106.54 input   66.30 | X-H torsion
[ 10763 10752 10751 10750 ] final  -95.65 input  -60.55 | X-H torsion
[ 11005 11000 10999 10996 ] final -103.57 input  -57.11 | X-H torsion

> <Gold.Protein.ActiveResidues>
 VAL166  LYS551  ARG553  GLY616  TRP617  ASP618  TYR619  PRO620  LYS621  CYS622 
 ASP623  PHE694  ASN695  SER759  ASP760  ASP761  ALA762  ILE779  LEU786  VAL792 
 PHE793  MET794  SER795  GLU796  ALA797  LYS798  CYS799  TRP800  GLU811  SER814 

> <Gold.Protein.RotatedAtoms>
  152.3833  134.6556  160.0134 H   0  0  0  0  0  0  0  0  0  0  0  0  # atno 6907 bound_to 6896
  151.6812  133.3306  159.3228 H   0  0  0  0  0  0  0  0  0  0  0  0  # atno 6908 bound_to 6896
  150.7765  134.6715  159.6439 H   0  0  0  0  0  0  0  0  0  0  0  0  # atno 6909 bound_to 6896
  145.3703  140.9504  143.2450 H   0  0  0  0  0  0  0  0  0  0  0  0  # atno 7974 bound_to 7965
  156.0071  140.3354  155.6903 H   0  0  0  0  0  0  0  0  0  0  0  0  # atno 8008 bound_to 7997
  155.6209  140.0675  157.2696 H   0  0  0  0  0  0  0  0  0  0  0  0  # atno 8009 bound_to 7997
  154.4268  140.1776  156.1359 H   0  0  0  0  0  0  0  0  0  0  0  0  # atno 8010 bound_to 7997
  140.2345  144.3651  150.6402 H   0  0  0  0  0  0  0  0  0  0  0  0  # atno 10167 bound_to 10162
  157.6664  131.0853  150.6023 H   0  0  0  0  0  0  0  0  0  0  0  0  # atno 10718 bound_to 10713
  154.7168  135.5112  153.8750 H   0  0  0  0  0  0  0  0  0  0  0  0  # atno 10763 bound_to 10752
  153.0827  135.6636  154.0020 H   0  0  0  0  0  0  0  0  0  0  0  0  # atno 10764 bound_to 10752
  153.9851  135.3025  155.3396 H   0  0  0  0  0  0  0  0  0  0  0  0  # atno 10765 bound_to 10752
  141.1140  133.8651  157.1502 H   0  0  0  0  0  0  0  0  0  0  0  0  # atno 11005 bound_to 11000
  144.8581  139.5219  143.6825 LP  0  0  0  0  0  0  0  0  0  0  0  0  # atno 17320 bound_to 7965
  146.2888  139.7080  142.9176 LP  0  0  0  0  0  0  0  0  0  0  0  0  # atno 17321 bound_to 7965
  140.6160  143.2172  151.6791 LP  0  0  0  0  0  0  0  0  0  0  0  0  # atno 17342 bound_to 10162
  139.5098  144.3563  152.0604 LP  0  0  0  0  0  0  0  0  0  0  0  0  # atno 17343 bound_to 10162
  156.6323  130.4435  149.5782 LP  0  0  0  0  0  0  0  0  0  0  0  0  # atno 17370 bound_to 10713
  156.2272  130.6773  151.1428 LP  0  0  0  0  0  0  0  0  0  0  0  0  # atno 17371 bound_to 10713
  140.0050  135.0012  157.0273 LP  0  0  0  0  0  0  0  0  0  0  0  0  # atno 17394 bound_to 11000
  140.4697  134.1399  155.7201 LP  0  0  0  0  0  0  0  0  0  0  0  0  # atno 17395 bound_to 11000

$$$$
