AV-unprocessed.smi:3165|AV-procd|sdf|12085|dock4
  -GOLD-   2272017513D 1   1.00000     0.00000
 Structure written by MMmdl.
 38 39  0  0  0  0  0  0  0  0  2 V2000
  147.5123  141.9982  154.4769 C   0  0  0  0  0  0  0  0  0  0  0  0
  148.9413  141.4311  154.5097 C   0  0  2  0  0  0  0  0  0  0  0  0
  148.9775  139.9544  154.9675 C   0  0  0  0  0  0  0  0  0  0  0  0
  150.2960  139.3585  154.8501 N   0  0  0  0  0  0  0  0  0  0  0  0
  150.7773  138.5182  153.8678 C   0  0  0  0  0  0  0  0  0  0  0  0
  152.0679  138.2123  154.1925 C   0  0  0  0  0  0  0  0  0  0  0  0
  152.2872  138.9167  155.4091 C   0  0  0  0  0  0  0  0  0  0  0  0
  151.2238  139.5994  155.8015 N   0  0  0  0  0  0  0  0  0  0  0  0
  149.7856  142.2807  155.3791 N   0  3  0  0  0  0  0  0  0  0  0  0
  149.9004  141.8300  156.7826 C   0  0  0  0  0  0  0  0  0  0  0  0
  151.1675  142.3922  157.4422 C   0  0  2  0  0  0  0  0  0  0  0  0
  151.4111  141.7712  158.8317 C   0  0  0  0  0  0  0  0  0  0  0  0
  152.6229  142.4203  159.5095 C   0  0  0  0  0  0  0  0  0  0  0  0
  152.4494  143.9423  159.5267 C   0  0  0  0  0  0  0  0  0  0  0  0
  152.1495  144.4605  158.1114 C   0  0  0  0  0  0  0  0  0  0  0  0
  151.0005  143.8017  157.5858 O   0  0  0  0  0  0  0  0  0  0  0  0
  146.8803  141.4551  153.7738 H   0  0  0  0  0  0  0  0  0  0  0  0
  147.5122  143.0437  154.1664 H   0  0  0  0  0  0  0  0  0  0  0  0
  147.0410  141.9425  155.4587 H   0  0  0  0  0  0  0  0  0  0  0  0
  149.3376  141.4975  153.4952 H   0  0  0  0  0  0  0  0  0  0  0  0
  148.6645  139.8581  156.0072 H   0  0  0  0  0  0  0  0  0  0  0  0
  148.2782  139.3606  154.3774 H   0  0  0  0  0  0  0  0  0  0  0  0
  150.1704  138.2123  153.0283 H   0  0  0  0  0  0  0  0  0  0  0  0
  152.7516  137.5795  153.6462 H   0  0  0  0  0  0  0  0  0  0  0  0
  153.1804  138.9507  156.0156 H   0  0  0  0  0  0  0  0  0  0  0  0
  150.7177  142.2838  154.9899 H   0  0  0  0  0  0  0  0  0  0  0  0
  149.0216  142.1310  157.3528 H   0  0  0  0  0  0  0  0  0  0  0  0
  149.9348  140.7398  156.7964 H   0  0  0  0  0  0  0  0  0  0  0  0
  152.0268  142.1896  156.7998 H   0  0  0  0  0  0  0  0  0  0  0  0
  150.5278  141.9090  159.4570 H   0  0  0  0  0  0  0  0  0  0  0  0
  151.5668  140.6954  158.7440 H   0  0  0  0  0  0  0  0  0  0  0  0
  152.7418  142.0389  160.5240 H   0  0  0  0  0  0  0  0  0  0  0  0
  153.5322  142.1597  158.9663 H   0  0  0  0  0  0  0  0  0  0  0  0
  151.6295  144.2110  160.1939 H   0  0  0  0  0  0  0  0  0  0  0  0
  153.3454  144.4204  159.9234 H   0  0  0  0  0  0  0  0  0  0  0  0
  151.9585  145.5333  158.1390 H   0  0  0  0  0  0  0  0  0  0  0  0
  153.0045  144.3065  157.4511 H   0  0  0  0  0  0  0  0  0  0  0  0
  149.4300  143.2262  155.3616 H   0  0  0  0  0  0  0  0  0  0  0  0
  1  2  1  0  0  0  0
  1 17  1  0  0  0  0
  1 18  1  0  0  0  0
  1 19  1  0  0  0  0
  2  3  1  0  0  0  0
  2  9  1  0  0  0  0
  2 20  1  0  0  0  0
  3  4  1  0  0  0  0
  3 21  1  0  0  0  0
  3 22  1  0  0  0  0
  4  8  1  0  0  0  0
  4  5  1  0  0  0  0
  5  6  2  0  0  0  0
  5 23  1  0  0  0  0
  6  7  1  0  0  0  0
  6 24  1  0  0  0  0
  7  8  2  0  0  0  0
  7 25  1  0  0  0  0
  9 10  1  0  0  0  0
  9 26  1  0  0  0  0
  9 38  1  0  0  0  0
 10 11  1  0  0  0  0
 10 27  1  0  0  0  0
 10 28  1  0  0  0  0
 11 16  1  0  0  0  0
 11 12  1  0  0  0  0
 11 29  1  0  0  0  0
 12 13  1  0  0  0  0
 12 30  1  0  0  0  0
 12 31  1  0  0  0  0
 13 14  1  0  0  0  0
 13 32  1  0  0  0  0
 13 33  1  0  0  0  0
 14 15  1  0  0  0  0
 14 34  1  0  0  0  0
 14 35  1  0  0  0  0
 15 16  1  0  0  0  0
 15 36  1  0  0  0  0
 15 37  1  0  0  0  0
M  CHG  1   9   1
M  END
> <s_m_source_file>
AV-unprocessed.smi

> <i_m_source_file_index>
3165

> <i_lp_mmshare_version>
43012

> <i_f3d_flags>
0

> <s_epik_input>
bjFbY0hdW2NIXVtjSF1uMVtDSDJdW0NAQEhdKFtDSDNdKVtOSF1bQ0gyXVtDQEBIXTJbQ0gyXVtDSDJdW0NIMl1bQ0gyXU8y

> <s_epik_cmdline>
J2VwaWtfcHl0aG9uJywgJy1waCcsICc3LjAnLCAnLXRuJywgJzgnLCAnLW1hJywgJzIwMCcsICctbWV0YWxfYmluZGluZycsICctaW1hZScsICc8aW5maWxlLm1hZT4nLCAnLW9tYWUnLCAnPG91dGZpbGUubWFlPic=

> <r_lp_tautomer_probability>
1

> <r_epik_Ionization_Penalty>
0.00849196

> <r_epik_Ionization_Penalty_Charging>
0.00848754

> <r_epik_Ionization_Penalty_Neutral>
4.42049e-06

> <r_epik_State_Penalty>
0.00639836

> <r_epik_Charging_Adjusted_Penalty>
0.0148859

> <i_epik_Tot_Q>
1

> <i_epik_Tot_abs_Q>
1

> <r_epik_Metal_State_Penalty>
0.00639878

> <b_epik_Metal_Only>
0

> <s_lp_Force_Field>
OPLS_2005

> <r_lp_Energy>
12.7964

> <b_lp_Chiralities_Consistent>
1

> <s_lp_Variant>
AV-unprocessed.smi:3165-1

> <Gold.Version>
5.8.1

> <Gold.Id.Protein>
6NUR|6NUR_protein|mol2

> <Gold.PLP.Fitness>
47.5722

> <Gold.PLP.PLP>
-38.3379

> <Gold.PLP.part.hbond>
-1.0000

> <Gold.PLP.part.metal>
0.0000

> <Gold.PLP.part.buried>
-4.5727

> <Gold.PLP.part.nonpolar>
-32.9761

> <Gold.PLP.part.repulsive>
1.0289

> <Gold.PLP.ligand.clash>
0.0000

> <Gold.PLP.ligand.torsion>
0.8551

> <Gold.PLP.Chemscore.Hbond>
2.0000

> <Gold.PLP.Chemscore.CHOScore>
1.6327

> <Gold.PLP.Chemscore.Metal>
0.0000

> <Gold.Chemscore.Hbonds>
donor molecule, donor type, donor heavy atom, donor atom, acceptor molecule, acceptor atom, score
      L1  H     9    38       P1  8028  2.00
      L1  C     5    23       P1  7948  0.95
      L1  C     5    23       P1  7949  0.03
      L1  C     5    23       P1  7957  0.54

> <Gold.PLP.Chemscore.Internal.Correction>
0.0464

> <Gold.Rescore>
     Score         DG    S(hbond)    S(metal)    S(lipo)     H(rot)  DE(clash)    DE(int)     intcor
     14.68     -17.17       1.00        0.00     107.40       1.64       0.23       2.26       ----

> <Gold.Chemscore.Fitness>
14.6792

> <Gold.Chemscore.DG>
-17.1749

> <Gold.Chemscore.ZeroCoef>
-5.4800

> <Gold.Chemscore.Hbond>
0.9995

> <Gold.Chemscore.Metal>
0.0000

> <Gold.Chemscore.Lipo>
107.4035

> <Gold.Chemscore.Internal_Hbond>
0.0000

> <Gold.Chemscore.DEClash>
0.2318

> <Gold.Chemscore.DEInternal>
2.2639

> <Gold.Chemscore.Rot>
1.6444

> <Gold.Chemscore.Internal.Correction>
   9.000000E+99

> <Gold.Chemscore.Hbonds>
donor molecule, donor type, donor heavy atom, donor atom, acceptor molecule, acceptor atom, score
      L1  H     9    38       P1  8028  0.99

> <Gold.Chemscore.Hbond.Weighted>
-3.3384

> <Gold.Chemscore.Metal.Weighted>
-0.0000

> <Gold.Chemscore.Lipo.Weighted>
-12.5662

> <Gold.Chemscore.Internal_Hbond.Weighted>
0.0000

> <Gold.Chemscore.DEClash.Weighted>
0.2318

> <Gold.Chemscore.DEInternal.Weighted>
2.2639

> <Gold.Chemscore.Rot.Weighted>
4.2097

> <Gold.Chemscore.Internal.Correction.Weighted>
   9.000000E+99

> <Gold.Protein.RotatedTorsions>
[ 6907 6896 6895 6894 ] final   25.15 input  -60.11 | X-H torsion
[ 7974 7965 7964 7962 ] final  -93.55 input  175.53 | X-H torsion
[ 8008 7997 7996 7995 ] final -124.15 input   59.86 | X-H torsion
[ 10167 10162 10161 10158 ] final   62.58 input  -65.29 | X-H torsion
[ 10718 10713 10712 10709 ] final    7.77 input   66.30 | X-H torsion
[ 10763 10752 10751 10750 ] final -170.06 input  -60.55 | X-H torsion
[ 11005 11000 10999 10996 ] final  172.64 input  -57.11 | X-H torsion

> <Gold.Protein.ActiveResidues>
 VAL166  LYS551  ARG553  GLY616  TRP617  ASP618  TYR619  PRO620  LYS621  CYS622 
 ASP623  PHE694  ASN695  SER759  ASP760  ASP761  ALA762  ILE779  LEU786  VAL792 
 PHE793  MET794  SER795  GLU796  ALA797  LYS798  CYS799  TRP800  GLU811  SER814 

> <Gold.Protein.RotatedAtoms>
  151.9683  135.0090  160.0551 H   0  0  0  0  0  0  0  0  0  0  0  0  # atno 6907 bound_to 6896
  152.1807  133.4700  159.4965 H   0  0  0  0  0  0  0  0  0  0  0  0  # atno 6908 bound_to 6896
  150.6917  134.1755  159.4271 H   0  0  0  0  0  0  0  0  0  0  0  0  # atno 6909 bound_to 6896
  145.3851  140.9522  143.2372 H   0  0  0  0  0  0  0  0  0  0  0  0  # atno 7974 bound_to 7965
  155.1922  140.0413  157.2902 H   0  0  0  0  0  0  0  0  0  0  0  0  # atno 8008 bound_to 7997
  154.6131  140.2482  155.7616 H   0  0  0  0  0  0  0  0  0  0  0  0  # atno 8009 bound_to 7997
  156.2390  140.2910  156.0403 H   0  0  0  0  0  0  0  0  0  0  0  0  # atno 8010 bound_to 7997
  140.1424  144.4541  150.6804 H   0  0  0  0  0  0  0  0  0  0  0  0  # atno 10167 bound_to 10162
  156.9418  130.5864  149.5653 H   0  0  0  0  0  0  0  0  0  0  0  0  # atno 10718 bound_to 10713
  154.6456  135.2904  155.0050 H   0  0  0  0  0  0  0  0  0  0  0  0  # atno 10763 bound_to 10752
  154.1161  135.6555  153.4898 H   0  0  0  0  0  0  0  0  0  0  0  0  # atno 10764 bound_to 10752
  153.0349  135.5277  154.7341 H   0  0  0  0  0  0  0  0  0  0  0  0  # atno 10765 bound_to 10752
  140.3318  134.7350  157.4140 H   0  0  0  0  0  0  0  0  0  0  0  0  # atno 11005 bound_to 11000
  144.8480  139.5367  143.6870 LP  0  0  0  0  0  0  0  0  0  0  0  0  # atno 17320 bound_to 7965
  146.2824  139.6912  142.9220 LP  0  0  0  0  0  0  0  0  0  0  0  0  # atno 17321 bound_to 7965
  140.6752  143.2302  151.5524 LP  0  0  0  0  0  0  0  0  0  0  0  0  # atno 17342 bound_to 10162
  139.5465  144.2506  152.1452 LP  0  0  0  0  0  0  0  0  0  0  0  0  # atno 17343 bound_to 10162
  156.0401  130.5484  150.8750 LP  0  0  0  0  0  0  0  0  0  0  0  0  # atno 17370 bound_to 10713
  157.5780  131.0946  150.9316 LP  0  0  0  0  0  0  0  0  0  0  0  0  # atno 17371 bound_to 10713
  140.0854  134.5674  155.8498 LP  0  0  0  0  0  0  0  0  0  0  0  0  # atno 17394 bound_to 11000
  141.2061  133.6652  156.6223 LP  0  0  0  0  0  0  0  0  0  0  0  0  # atno 17395 bound_to 11000

$$$$
