AV-unprocessed.smi:1163|AV-procd|sdf|4922|dock5
  -GOLD-   22720 3503D 1   1.00000     0.00000
 Structure written by MMmdl.
 40 41  0  0  0  0  0  0  0  0  2 V2000
  135.8956  138.4254  154.2757 C   0  0  0  0  0  0  0  0  0  0  0  0
  136.7896  137.3191  154.3325 O   0  0  0  0  0  0  0  0  0  0  0  0
  138.1055  137.5212  153.9700 C   0  0  0  0  0  0  0  0  0  0  0  0
  138.4368  138.6911  153.2579 C   0  0  0  0  0  0  0  0  0  0  0  0
  139.7780  138.9072  152.8880 C   0  0  0  0  0  0  0  0  0  0  0  0
  140.7507  137.9454  153.2502 C   0  0  0  0  0  0  0  0  0  0  0  0
  142.1295  138.0413  152.9212 N   0  0  0  0  0  0  0  0  0  0  0  0
  143.0307  137.0501  152.8136 C   0  0  0  0  0  0  0  0  0  0  0  0
  142.7969  135.8528  152.9761 O   0  0  0  0  0  0  0  0  0  0  0  0
  144.2389  137.5236  152.4774 N   0  0  0  0  0  0  0  0  0  0  0  0
  145.4263  136.7007  152.2716 C   0  0  2  0  0  0  0  0  0  0  0  0
  145.1904  135.5082  151.3460 C   0  0  0  0  0  0  0  0  0  0  0  0
  146.1960  134.4451  151.8218 C   0  0  0  0  0  0  0  0  0  0  0  0
  146.7902  134.9460  153.0857 N   0  3  2  0  0  0  0  0  0  0  0  0
  147.0792  133.9135  154.1103 C   0  0  0  0  0  0  0  0  0  0  0  0
  148.4851  133.3055  153.9628 C   0  0  0  0  0  0  0  0  0  0  0  0
  148.5586  132.1969  154.6977 F   0  0  0  0  0  0  0  0  0  0  0  0
  148.7428  132.9885  152.6944 F   0  0  0  0  0  0  0  0  0  0  0  0
  149.4046  134.1680  154.3959 F   0  0  0  0  0  0  0  0  0  0  0  0
  145.9134  136.0322  153.5570 C   0  0  0  0  0  0  0  0  0  0  0  0
  140.3130  136.8001  153.9469 C   0  0  0  0  0  0  0  0  0  0  0  0
  139.0297  136.5879  154.3066 N   0  0  0  0  0  0  0  0  0  0  0  0
  134.9030  138.1036  154.5907 H   0  0  0  0  0  0  0  0  0  0  0  0
  135.8095  138.8167  153.2609 H   0  0  0  0  0  0  0  0  0  0  0  0
  136.2100  139.2287  154.9437 H   0  0  0  0  0  0  0  0  0  0  0  0
  137.6745  139.4099  152.9964 H   0  0  0  0  0  0  0  0  0  0  0  0
  140.0290  139.7935  152.3260 H   0  0  0  0  0  0  0  0  0  0  0  0
  142.4518  138.9664  152.6772 H   0  0  0  0  0  0  0  0  0  0  0  0
  144.3454  138.5209  152.3600 H   0  0  0  0  0  0  0  0  0  0  0  0
  146.2294  137.3132  151.8562 H   0  0  0  0  0  0  0  0  0  0  0  0
  144.1752  135.1265  151.4668 H   0  0  0  0  0  0  0  0  0  0  0  0
  145.3231  135.7680  150.2952 H   0  0  0  0  0  0  0  0  0  0  0  0
  145.6867  133.4914  151.9687 H   0  0  0  0  0  0  0  0  0  0  0  0
  146.9878  134.2895  151.0883 H   0  0  0  0  0  0  0  0  0  0  0  0
  147.0101  134.3835  155.0923 H   0  0  0  0  0  0  0  0  0  0  0  0
  146.3162  133.1342  154.0865 H   0  0  0  0  0  0  0  0  0  0  0  0
  146.4493  136.7198  154.2125 H   0  0  0  0  0  0  0  0  0  0  0  0
  145.0725  135.6139  154.1140 H   0  0  0  0  0  0  0  0  0  0  0  0
  141.0151  136.0303  154.2328 H   0  0  0  0  0  0  0  0  0  0  0  0
  147.6673  135.3836  152.8412 H   0  0  0  0  0  0  0  0  0  0  0  0
  1  2  1  0  0  0  0
  1 23  1  0  0  0  0
  1 24  1  0  0  0  0
  1 25  1  0  0  0  0
  2  3  1  0  0  0  0
  3 22  1  0  0  0  0
  3  4  2  0  0  0  0
  4  5  1  0  0  0  0
  4 26  1  0  0  0  0
  5  6  2  0  0  0  0
  5 27  1  0  0  0  0
  6  7  1  0  0  0  0
  6 21  1  0  0  0  0
  7  8  1  0  0  0  0
  7 28  1  0  0  0  0
  8  9  2  0  0  0  0
  8 10  1  0  0  0  0
 10 11  1  0  0  0  0
 10 29  1  0  0  0  0
 11 20  1  0  0  0  0
 11 12  1  0  0  0  0
 11 30  1  0  0  0  0
 12 13  1  0  0  0  0
 12 31  1  0  0  0  0
 12 32  1  0  0  0  0
 13 14  1  0  0  0  0
 13 33  1  0  0  0  0
 13 34  1  0  0  0  0
 14 15  1  0  0  0  0
 14 20  1  0  0  0  0
 14 40  1  0  0  0  0
 15 16  1  0  0  0  0
 15 35  1  0  0  0  0
 15 36  1  0  0  0  0
 16 17  1  0  0  0  0
 16 18  1  0  0  0  0
 16 19  1  0  0  0  0
 20 37  1  0  0  0  0
 20 38  1  0  0  0  0
 21 22  2  0  0  0  0
 21 39  1  0  0  0  0
M  CHG  1  14   1
M  END
> <s_m_source_file>
AV-unprocessed.smi

> <i_m_source_file_index>
1163

> <i_lp_mmshare_version>
43012

> <i_f3d_flags>
0

> <s_epik_input>
W0NIM11PYzFbY0hdW2NIXWMoW2NIXW4xKVtOSF1DKD1PKVtOSF1bQ0BASF0yW0NIMl1bQ0gyXU4oW0NIMl0yKVtDSDJdQyhGKShGKUY=

> <s_epik_cmdline>
J2VwaWtfcHl0aG9uJywgJy1waCcsICc3LjAnLCAnLXRuJywgJzgnLCAnLW1hJywgJzIwMCcsICctbWV0YWxfYmluZGluZycsICctaW1hZScsICc8aW5maWxlLm1hZT4nLCAnLW9tYWUnLCAnPG91dGZpbGUubWFlPic=

> <r_lp_tautomer_probability>
1

> <r_epik_Ionization_Penalty>
1.12054

> <r_epik_Ionization_Penalty_Charging>
1.12047

> <r_epik_Ionization_Penalty_Neutral>
7.20346e-05

> <r_epik_State_Penalty>
1.17927

> <r_epik_Charging_Adjusted_Penalty>
2.29974

> <i_epik_Tot_Q>
1

> <i_epik_Tot_abs_Q>
1

> <r_epik_Metal_State_Penalty>
1.17928

> <b_epik_Metal_Only>
0

> <s_lp_Force_Field>
OPLS_2005

> <r_lp_Energy>
30.0061

> <b_lp_Chiralities_Consistent>
1

> <s_lp_Variant>
AV-unprocessed.smi:1163-3

> <Gold.Version>
5.8.1

> <Gold.Id.Protein>
6NUR|6NUR_protein|mol2

> <Gold.PLP.Fitness>
47.9002

> <Gold.PLP.PLP>
-37.2225

> <Gold.PLP.part.hbond>
-4.0000

> <Gold.PLP.part.metal>
0.0000

> <Gold.PLP.part.buried>
-2.8259

> <Gold.PLP.part.nonpolar>
-31.2592

> <Gold.PLP.part.repulsive>
0.3699

> <Gold.PLP.ligand.clash>
0.0000

> <Gold.PLP.ligand.torsion>
0.9225

> <Gold.PLP.Chemscore.Hbond>
4.0000

> <Gold.PLP.Chemscore.CHOScore>
0.0000

> <Gold.PLP.Chemscore.Metal>
0.0000

> <Gold.Chemscore.Hbonds>
donor molecule, donor type, donor heavy atom, donor atom, acceptor molecule, acceptor atom, score
      L1  H     7    28       P1 10175  1.00
      L1  H    10    29       P1 10175  0.98
      L1  H    14    40       P1  7948  2.00

> <Gold.PLP.Chemscore.Internal.Correction>
0.5228

> <Gold.Rescore>
     Score         DG    S(hbond)    S(metal)    S(lipo)     H(rot)  DE(clash)    DE(int)     intcor
     13.70     -17.36       2.91        0.00      55.08       1.68       0.18       3.48       ----

> <Gold.Chemscore.Fitness>
13.7014

> <Gold.Chemscore.DG>
-17.3587

> <Gold.Chemscore.ZeroCoef>
-5.4800

> <Gold.Chemscore.Hbond>
2.9129

> <Gold.Chemscore.Metal>
0.0000

> <Gold.Chemscore.Lipo>
55.0814

> <Gold.Chemscore.Internal_Hbond>
0.0000

> <Gold.Chemscore.DEClash>
0.1810

> <Gold.Chemscore.DEInternal>
3.4763

> <Gold.Chemscore.Rot>
1.6778

> <Gold.Chemscore.Internal.Correction>
   9.000000E+99

> <Gold.Chemscore.Hbonds>
donor molecule, donor type, donor heavy atom, donor atom, acceptor molecule, acceptor atom, score
      L1  H     7    28       P1 10175  0.99
      L1  H    10    29       P1 10175  0.89
      L1  H    14    40       P1  7948  1.00

> <Gold.Chemscore.Hbond.Weighted>
-9.7292

> <Gold.Chemscore.Metal.Weighted>
-0.0000

> <Gold.Chemscore.Lipo.Weighted>
-6.4445

> <Gold.Chemscore.Internal_Hbond.Weighted>
0.0000

> <Gold.Chemscore.DEClash.Weighted>
0.1810

> <Gold.Chemscore.DEInternal.Weighted>
3.4763

> <Gold.Chemscore.Rot.Weighted>
4.2951

> <Gold.Chemscore.Internal.Correction.Weighted>
   9.000000E+99

> <Gold.Protein.RotatedTorsions>
[ 6907 6896 6895 6894 ] final   31.54 input  -60.11 | X-H torsion
[ 7974 7965 7964 7962 ] final -101.46 input  175.53 | X-H torsion
[ 8008 7997 7996 7995 ] final  143.27 input   59.86 | X-H torsion
[ 10167 10162 10161 10158 ] final -139.47 input  -65.29 | X-H torsion
[ 10718 10713 10712 10709 ] final -122.80 input   66.30 | X-H torsion
[ 10763 10752 10751 10750 ] final   33.50 input  -60.55 | X-H torsion
[ 11005 11000 10999 10996 ] final  -94.05 input  -57.11 | X-H torsion

> <Gold.Protein.ActiveResidues>
 VAL166  LYS551  ARG553  GLY616  TRP617  ASP618  TYR619  PRO620  LYS621  CYS622 
 ASP623  PHE694  ASN695  SER759  ASP760  ASP761  ALA762  ILE779  LEU786  VAL792 
 PHE793  MET794  SER795  GLU796  ALA797  LYS798  CYS799  TRP800  GLU811  SER814 

> <Gold.Protein.RotatedAtoms>
  152.0617  134.9590  160.0574 H   0  0  0  0  0  0  0  0  0  0  0  0  # atno 6907 bound_to 6896
  152.0951  133.4215  159.4569 H   0  0  0  0  0  0  0  0  0  0  0  0  # atno 6908 bound_to 6896
  150.6838  134.2746  159.4645 H   0  0  0  0  0  0  0  0  0  0  0  0  # atno 6909 bound_to 6896
  145.2813  140.9327  143.2930 H   0  0  0  0  0  0  0  0  0  0  0  0  # atno 7974 bound_to 7965
  156.2933  140.2267  156.4864 H   0  0  0  0  0  0  0  0  0  0  0  0  # atno 8008 bound_to 7997
  154.7809  140.0460  157.1147 H   0  0  0  0  0  0  0  0  0  0  0  0  # atno 8009 bound_to 7997
  154.9760  140.3072  155.4970 H   0  0  0  0  0  0  0  0  0  0  0  0  # atno 8010 bound_to 7997
  139.8376  143.7364  152.2664 H   0  0  0  0  0  0  0  0  0  0  0  0  # atno 10167 bound_to 10162
  156.1449  130.6493  150.9827 H   0  0  0  0  0  0  0  0  0  0  0  0  # atno 10718 bound_to 10713
  153.0209  135.6385  154.1521 H   0  0  0  0  0  0  0  0  0  0  0  0  # atno 10763 bound_to 10752
  154.1256  135.2844  155.3199 H   0  0  0  0  0  0  0  0  0  0  0  0  # atno 10764 bound_to 10752
  154.6232  135.5518  153.7660 H   0  0  0  0  0  0  0  0  0  0  0  0  # atno 10765 bound_to 10752
  141.1481  133.7929  157.0244 H   0  0  0  0  0  0  0  0  0  0  0  0  # atno 11005 bound_to 11000
  144.9251  139.4365  143.6522 LP  0  0  0  0  0  0  0  0  0  0  0  0  # atno 17320 bound_to 7965
  146.3215  139.8132  142.8941 LP  0  0  0  0  0  0  0  0  0  0  0  0  # atno 17321 bound_to 7965
  139.7591  144.7512  151.0390 LP  0  0  0  0  0  0  0  0  0  0  0  0  # atno 17342 bound_to 10162
  140.7801  143.4771  151.0068 LP  0  0  0  0  0  0  0  0  0  0  0  0  # atno 17343 bound_to 10162
  157.6608  131.0881  150.7843 LP  0  0  0  0  0  0  0  0  0  0  0  0  # atno 17370 bound_to 10713
  156.7915  130.4892  149.5384 LP  0  0  0  0  0  0  0  0  0  0  0  0  # atno 17371 bound_to 10713
  140.0795  134.9656  157.1600 LP  0  0  0  0  0  0  0  0  0  0  0  0  # atno 17394 bound_to 11000
  140.3597  134.2508  155.7188 LP  0  0  0  0  0  0  0  0  0  0  0  0  # atno 17395 bound_to 11000

$$$$
