AV-unprocessed.smi:2819|AV-procd|sdf|10851|dock2
  -GOLD-   2272015293D 1   1.00000     0.00000
 Structure written by MMmdl.
 51 52  0  0  0  0  0  0  0  0  3 V2000
  153.2670  142.3776  161.7277 C   0  0  0  0  0  0  0  0  0  0  0  0
  152.9790  141.8977  160.3797 N   0  0  0  0  0  0  0  0  0  0  0  0
  153.4585  140.5893  159.9523 C   0  0  0  0  0  0  0  0  0  0  0  0
  152.2833  142.7260  159.4715 C   0  0  0  0  0  0  0  0  0  0  0  0
  152.2281  144.1280  159.6223 C   0  0  0  0  0  0  0  0  0  0  0  0
  151.5068  144.8524  158.6572 C   0  0  0  0  0  0  0  0  0  0  0  0
  150.8946  144.2119  157.6325 N   0  3  0  0  0  0  0  0  0  0  0  0
  150.9770  142.8760  157.5329 C   0  0  0  0  0  0  0  0  0  0  0  0
  150.3235  142.2944  156.4675 N   0  0  0  0  0  0  0  0  0  0  0  0
  150.2783  141.0082  156.0691 C   0  0  0  0  0  0  0  0  0  0  0  0
  150.8725  140.0740  156.6083 O   0  0  0  0  0  0  0  0  0  0  0  0
  149.4925  140.8563  154.9916 N   0  0  0  0  0  0  0  0  0  0  0  0
  149.2497  139.5966  154.2877 C   0  0  0  0  0  0  0  0  0  0  0  0
  147.7407  139.2179  154.1817 C   0  0  0  0  0  0  0  0  0  0  0  0
  146.9634  139.7322  155.4194 C   0  0  0  0  0  0  0  0  0  0  0  0
  147.1105  139.9255  152.9559 C   0  0  0  0  0  0  0  0  0  0  0  0
  147.5571  137.7260  154.0580 N   0  3  0  0  0  0  0  0  0  0  0  0
  148.0975  136.9098  155.1825 C   0  0  0  0  0  0  0  0  0  0  0  0
  148.0141  135.4097  154.8540 C   0  0  0  0  0  0  0  0  0  0  0  0
  146.6667  135.0551  154.5792 O   0  0  0  0  0  0  0  0  0  0  0  0
  146.1614  135.7530  153.4504 C   0  0  0  0  0  0  0  0  0  0  0  0
  146.1779  137.2659  153.7267 C   0  0  0  0  0  0  0  0  0  0  0  0
  151.6542  142.1394  158.4278 N   0  0  0  0  0  0  0  0  0  0  0  0
  153.9087  143.2583  161.6920 H   0  0  0  0  0  0  0  0  0  0  0  0
  153.7749  141.6169  162.3207 H   0  0  0  0  0  0  0  0  0  0  0  0
  152.3447  142.6418  162.2464 H   0  0  0  0  0  0  0  0  0  0  0  0
  154.1224  140.6864  159.0928 H   0  0  0  0  0  0  0  0  0  0  0  0
  152.6229  139.9448  159.6780 H   0  0  0  0  0  0  0  0  0  0  0  0
  154.0153  140.0917  160.7465 H   0  0  0  0  0  0  0  0  0  0  0  0
  152.7130  144.6471  160.4356 H   0  0  0  0  0  0  0  0  0  0  0  0
  151.3992  145.9271  158.6720 H   0  0  0  0  0  0  0  0  0  0  0  0
  149.7911  142.9376  155.9010 H   0  0  0  0  0  0  0  0  0  0  0  0
  149.0389  141.6760  154.6143 H   0  0  0  0  0  0  0  0  0  0  0  0
  149.6799  139.7198  153.2944 H   0  0  0  0  0  0  0  0  0  0  0  0
  149.8218  138.7976  154.7596 H   0  0  0  0  0  0  0  0  0  0  0  0
  146.8902  140.8200  155.4298 H   0  0  0  0  0  0  0  0  0  0  0  0
  147.4440  139.4528  156.3568 H   0  0  0  0  0  0  0  0  0  0  0  0
  145.9431  139.3470  155.4364 H   0  0  0  0  0  0  0  0  0  0  0  0
  147.0453  141.0042  153.1018 H   0  0  0  0  0  0  0  0  0  0  0  0
  146.0975  139.5679  152.7675 H   0  0  0  0  0  0  0  0  0  0  0  0
  147.6929  139.7790  152.0465 H   0  0  0  0  0  0  0  0  0  0  0  0
  149.1398  137.1469  155.3858 H   0  0  0  0  0  0  0  0  0  0  0  0
  147.5373  137.1068  156.0966 H   0  0  0  0  0  0  0  0  0  0  0  0
  148.6520  135.1588  154.0050 H   0  0  0  0  0  0  0  0  0  0  0  0
  148.3664  134.8208  155.7012 H   0  0  0  0  0  0  0  0  0  0  0  0
  146.7485  135.5115  152.5627 H   0  0  0  0  0  0  0  0  0  0  0  0
  145.1420  135.4181  153.2576 H   0  0  0  0  0  0  0  0  0  0  0  0
  145.4971  137.4873  154.5486 H   0  0  0  0  0  0  0  0  0  0  0  0
  145.7888  137.7663  152.8421 H   0  0  0  0  0  0  0  0  0  0  0  0
  150.3758  144.7583  156.9444 H   0  0  0  0  0  0  0  0  0  0  0  0
  148.1162  137.4695  153.2567 H   0  0  0  0  0  0  0  0  0  0  0  0
  1  2  1  0  0  0  0
  1 24  1  0  0  0  0
  1 25  1  0  0  0  0
  1 26  1  0  0  0  0
  2  3  1  0  0  0  0
  2  4  1  0  0  0  0
  3 27  1  0  0  0  0
  3 28  1  0  0  0  0
  3 29  1  0  0  0  0
  4 23  1  0  0  0  0
  4  5  2  0  0  0  0
  5  6  1  0  0  0  0
  5 30  1  0  0  0  0
  6  7  2  0  0  0  0
  6 31  1  0  0  0  0
  7  8  1  0  0  0  0
  7 50  1  0  0  0  0
  8  9  1  0  0  0  0
  8 23  2  0  0  0  0
  9 10  1  0  0  0  0
  9 32  1  0  0  0  0
 10 11  2  0  0  0  0
 10 12  1  0  0  0  0
 12 13  1  0  0  0  0
 12 33  1  0  0  0  0
 13 14  1  0  0  0  0
 13 34  1  0  0  0  0
 13 35  1  0  0  0  0
 14 15  1  0  0  0  0
 14 16  1  0  0  0  0
 14 17  1  0  0  0  0
 15 36  1  0  0  0  0
 15 37  1  0  0  0  0
 15 38  1  0  0  0  0
 16 39  1  0  0  0  0
 16 40  1  0  0  0  0
 16 41  1  0  0  0  0
 17 22  1  0  0  0  0
 17 18  1  0  0  0  0
 17 51  1  0  0  0  0
 18 19  1  0  0  0  0
 18 42  1  0  0  0  0
 18 43  1  0  0  0  0
 19 20  1  0  0  0  0
 19 44  1  0  0  0  0
 19 45  1  0  0  0  0
 20 21  1  0  0  0  0
 21 22  1  0  0  0  0
 21 46  1  0  0  0  0
 21 47  1  0  0  0  0
 22 48  1  0  0  0  0
 22 49  1  0  0  0  0
M  CHG  1   7   1
M  CHG  1  17   1
M  END
> <s_m_source_file>
AV-unprocessed.smi

> <i_m_source_file_index>
2819

> <i_lp_mmshare_version>
43012

> <i_f3d_flags>
0

> <s_epik_input>
W0NIM11OKFtDSDNdKWMxW2NIXVtjSF1uYyhuMSlbTkhdQyg9TylbTkhdW0NIMl1DKFtDSDNdKShbQ0gzXSlOMltDSDJdW0NIMl1PW0NIMl1bQ0gyXTI=

> <s_epik_cmdline>
J2VwaWtfcHl0aG9uJywgJy1waCcsICc3LjAnLCAnLXRuJywgJzgnLCAnLW1hJywgJzIwMCcsICctbWV0YWxfYmluZGluZycsICctaW1hZScsICc8aW5maWxlLm1hZT4nLCAnLW9tYWUnLCAnPG91dGZpbGUubWFlPic=

> <r_lp_tautomer_probability>
0.999336

> <r_epik_Ionization_Penalty>
0.713728

> <r_epik_Ionization_Penalty_Charging>
0.713701

> <r_epik_Ionization_Penalty_Neutral>
2.70516e-05

> <r_epik_State_Penalty>
0.725459

> <r_epik_Charging_Adjusted_Penalty>
1.43916

> <i_epik_Tot_Q>
2

> <i_epik_Tot_abs_Q>
2

> <r_epik_Metal_State_Penalty>
1.06371

> <b_epik_Metal_Only>
0

> <s_lp_Force_Field>
OPLS_2005

> <r_lp_Energy>
33.0145

> <b_lp_Chiralities_Consistent>
1

> <s_lp_Variant>
AV-unprocessed.smi:2819-2

> <Gold.Version>
5.8.1

> <Gold.Id.Protein>
6NUR|6NUR_protein|mol2

> <Gold.PLP.Fitness>
52.9908

> <Gold.PLP.PLP>
-39.8320

> <Gold.PLP.part.hbond>
-3.0000

> <Gold.PLP.part.metal>
0.0000

> <Gold.PLP.part.buried>
-4.5015

> <Gold.PLP.part.nonpolar>
-33.0966

> <Gold.PLP.part.repulsive>
0.3341

> <Gold.PLP.ligand.clash>
0.0000

> <Gold.PLP.ligand.torsion>
0.7583

> <Gold.PLP.Chemscore.Hbond>
4.8480

> <Gold.PLP.Chemscore.CHOScore>
0.0000

> <Gold.PLP.Chemscore.Metal>
0.0000

> <Gold.Chemscore.Hbonds>
donor molecule, donor type, donor heavy atom, donor atom, acceptor molecule, acceptor atom, score
      L1  H     7    50       P1  8028  1.86
      L1  H     9    32       P1  8028  1.00
      L1  H    17    51       P1  7948  1.95

> <Gold.PLP.Chemscore.Internal.Correction>
0.1314

> <Gold.Rescore>
     Score         DG    S(hbond)    S(metal)    S(lipo)     H(rot)  DE(clash)    DE(int)     intcor
     16.84     -18.70       2.54        0.00      74.92       1.57       0.04       1.82       ----

> <Gold.Chemscore.Fitness>
16.8356

> <Gold.Chemscore.DG>
-18.6956

> <Gold.Chemscore.ZeroCoef>
-5.4800

> <Gold.Chemscore.Hbond>
2.5366

> <Gold.Chemscore.Metal>
0.0000

> <Gold.Chemscore.Lipo>
74.9215

> <Gold.Chemscore.Internal_Hbond>
0.0000

> <Gold.Chemscore.DEClash>
0.0436

> <Gold.Chemscore.DEInternal>
1.8164

> <Gold.Chemscore.Rot>
1.5713

> <Gold.Chemscore.Internal.Correction>
   9.000000E+99

> <Gold.Chemscore.Hbonds>
donor molecule, donor type, donor heavy atom, donor atom, acceptor molecule, acceptor atom, score
      L1  H     7    50       P1  8028  0.54
      L1  H     9    32       P1  8028  0.90
      L1  H    17    51       P1  7948  0.92

> <Gold.Chemscore.Hbond.Weighted>
-8.4723

> <Gold.Chemscore.Metal.Weighted>
-0.0000

> <Gold.Chemscore.Lipo.Weighted>
-8.7658

> <Gold.Chemscore.Internal_Hbond.Weighted>
0.0000

> <Gold.Chemscore.DEClash.Weighted>
0.0436

> <Gold.Chemscore.DEInternal.Weighted>
1.8164

> <Gold.Chemscore.Rot.Weighted>
4.0225

> <Gold.Chemscore.Internal.Correction.Weighted>
   9.000000E+99

> <Gold.Protein.RotatedTorsions>
[ 6907 6896 6895 6894 ] final  -44.58 input  -60.11 | X-H torsion
[ 7974 7965 7964 7962 ] final -133.61 input  175.53 | X-H torsion
[ 8008 7997 7996 7995 ] final   72.90 input   59.86 | X-H torsion
[ 10167 10162 10161 10158 ] final -147.44 input  -65.29 | X-H torsion
[ 10718 10713 10712 10709 ] final   -5.57 input   66.30 | X-H torsion
[ 10763 10752 10751 10750 ] final -120.76 input  -60.55 | X-H torsion
[ 11005 11000 10999 10996 ] final  -82.35 input  -57.11 | X-H torsion

> <Gold.Protein.ActiveResidues>
 VAL166  LYS551  ARG553  GLY616  TRP617  ASP618  TYR619  PRO620  LYS621  CYS622 
 ASP623  PHE694  ASN695  SER759  ASP760  ASP761  ALA762  ILE779  LEU786  VAL792 
 PHE793  MET794  SER795  GLU796  ALA797  LYS798  CYS799  TRP800  GLU811  SER814 

> <Gold.Protein.RotatedAtoms>
  150.9312  134.8727  159.7552 H   0  0  0  0  0  0  0  0  0  0  0  0  # atno 6907 bound_to 6896
  152.5039  134.4076  159.9447 H   0  0  0  0  0  0  0  0  0  0  0  0  # atno 6908 bound_to 6896
  151.4102  133.3690  159.2778 H   0  0  0  0  0  0  0  0  0  0  0  0  # atno 6909 bound_to 6896
  144.9178  140.6976  143.4984 H   0  0  0  0  0  0  0  0  0  0  0  0  # atno 7974 bound_to 7965
  155.7757  140.3483  155.5270 H   0  0  0  0  0  0  0  0  0  0  0  0  # atno 8008 bound_to 7997
  155.8778  140.0997  157.1527 H   0  0  0  0  0  0  0  0  0  0  0  0  # atno 8009 bound_to 7997
  154.4022  140.1328  156.4145 H   0  0  0  0  0  0  0  0  0  0  0  0  # atno 8010 bound_to 7997
  139.7622  143.8360  152.2609 H   0  0  0  0  0  0  0  0  0  0  0  0  # atno 10167 bound_to 10162
  156.7446  130.5220  149.5817 H   0  0  0  0  0  0  0  0  0  0  0  0  # atno 10718 bound_to 10713
  154.8652  135.4191  154.2511 H   0  0  0  0  0  0  0  0  0  0  0  0  # atno 10763 bound_to 10752
  153.3458  135.6996  153.6835 H   0  0  0  0  0  0  0  0  0  0  0  0  # atno 10764 bound_to 10752
  153.5795  135.3575  155.2842 H   0  0  0  0  0  0  0  0  0  0  0  0  # atno 10765 bound_to 10752
  141.1663  133.7240  156.8559 H   0  0  0  0  0  0  0  0  0  0  0  0  # atno 11005 bound_to 11000
  145.3347  139.1749  143.4518 LP  0  0  0  0  0  0  0  0  0  0  0  0  # atno 17320 bound_to 7965
  146.3190  140.3381  142.8645 LP  0  0  0  0  0  0  0  0  0  0  0  0  # atno 17321 bound_to 7965
  139.8370  144.7228  150.9379 LP  0  0  0  0  0  0  0  0  0  0  0  0  # atno 17342 bound_to 10162
  140.7808  143.4018  151.1136 LP  0  0  0  0  0  0  0  0  0  0  0  0  # atno 17343 bound_to 10162
  156.1442  130.6265  151.0508 LP  0  0  0  0  0  0  0  0  0  0  0  0  # atno 17370 bound_to 10713
  157.6804  131.0839  150.7386 LP  0  0  0  0  0  0  0  0  0  0  0  0  # atno 17371 bound_to 10713
  140.1883  134.8984  157.3030 LP  0  0  0  0  0  0  0  0  0  0  0  0  # atno 17394 bound_to 11000
  140.2319  134.3899  155.7518 LP  0  0  0  0  0  0  0  0  0  0  0  0  # atno 17395 bound_to 11000

$$$$
