AV-unprocessed.smi:54|AV-procd|sdf|560|dock3
  -GOLD-   2262016463D 1   1.00000     0.00000
 Structure written by MMmdl.
 43 45  0  0  0  0  0  0  0  0  2 V2000
  146.7326  134.8386  162.0881 C   0  0  0  0  0  0  0  0  0  0  0  0
  147.1414  135.0153  160.6165 C   0  0  0  0  0  0  0  0  0  0  0  0
  147.7326  133.7176  160.0414 C   0  0  0  0  0  0  0  0  0  0  0  0
  148.1311  136.1789  160.4632 C   0  0  0  0  0  0  0  0  0  0  0  0
  148.1124  137.0956  161.2875 O   0  0  0  0  0  0  0  0  0  0  0  0
  148.9529  136.0985  159.3937 N   0  0  0  0  0  0  0  0  0  0  0  0
  149.9359  136.9979  158.9662 C   0  0  0  0  0  0  0  0  0  0  0  0
  149.5950  137.6525  157.8836 N   0  0  0  0  0  0  0  0  0  0  0  0
  150.5729  138.5308  157.4584 C   0  0  0  0  0  0  0  0  0  0  0  0
  151.7978  138.7528  158.0265 C   0  0  0  0  0  0  0  0  0  0  0  0
  152.5198  139.7084  157.3222 N   0  0  0  0  0  0  0  0  0  0  0  0
  151.6776  140.0260  156.3407 C   0  0  0  0  0  0  0  0  0  0  0  0
  150.4985  139.3735  156.3516 N   0  0  0  0  0  0  0  0  0  0  0  0
  149.3837  139.5470  155.3684 C   0  0  1  0  0  0  0  0  0  0  0  0
  148.1983  139.1349  155.9798 O   0  0  0  0  0  0  0  0  0  0  0  0
  147.1743  140.0986  155.7649 C   0  0  1  0  0  0  0  0  0  0  0  0
  146.1540  140.0135  156.9116 C   0  0  0  0  0  0  0  0  0  0  0  0
  146.7877  140.1977  158.1599 O   0  0  0  0  0  0  0  0  0  0  0  0
  147.9372  141.4229  155.6787 C   0  0  2  0  0  0  0  0  0  0  0  0
  147.2141  142.4303  154.9962 O   0  0  0  0  0  0  0  0  0  0  0  0
  149.2322  141.0252  154.9738 C   0  0  2  0  0  0  0  0  0  0  0  0
  149.1459  141.1598  153.5664 O   0  0  0  0  0  0  0  0  0  0  0  0
  152.1270  137.9688  159.2404 C   0  0  0  0  0  0  0  0  0  0  0  0
  153.2182  138.1344  159.7823 O   0  0  0  0  0  0  0  0  0  0  0  0
  151.1568  137.1032  159.6611 N   0  5  0  0  0  0  0  0  0  0  0  0
  149.6429  138.8915  154.5357 H   0  0  0  0  0  0  0  0  0  0  0  0
  146.7023  139.8682  154.8077 H   0  0  0  0  0  0  0  0  0  0  0  0
  148.1685  141.7837  156.6808 H   0  0  0  0  0  0  0  0  0  0  0  0
  150.0804  141.6150  155.3250 H   0  0  0  0  0  0  0  0  0  0  0  0
  146.3229  135.7622  162.4988 H   0  0  0  0  0  0  0  0  0  0  0  0
  147.5808  134.5455  162.7080 H   0  0  0  0  0  0  0  0  0  0  0  0
  145.9677  134.0685  162.1897 H   0  0  0  0  0  0  0  0  0  0  0  0
  146.2408  135.2516  160.0470 H   0  0  0  0  0  0  0  0  0  0  0  0
  148.0299  133.8454  158.9998 H   0  0  0  0  0  0  0  0  0  0  0  0
  147.0029  132.9083  160.0757 H   0  0  0  0  0  0  0  0  0  0  0  0
  148.6109  133.3937  160.6011 H   0  0  0  0  0  0  0  0  0  0  0  0
  148.7808  135.3100  158.7882 H   0  0  0  0  0  0  0  0  0  0  0  0
  151.9256  140.7610  155.5891 H   0  0  0  0  0  0  0  0  0  0  0  0
  145.3991  140.7913  156.7959 H   0  0  0  0  0  0  0  0  0  0  0  0
  145.6323  139.0560  156.9032 H   0  0  0  0  0  0  0  0  0  0  0  0
  146.3879  140.9367  158.5926 H   0  0  0  0  0  0  0  0  0  0  0  0
  147.6594  143.2538  155.1267 H   0  0  0  0  0  0  0  0  0  0  0  0
  149.3864  140.3349  153.1730 H   0  0  0  0  0  0  0  0  0  0  0  0
  1  2  1  0  0  0  0
  1 30  1  0  0  0  0
  1 31  1  0  0  0  0
  1 32  1  0  0  0  0
  2  3  1  0  0  0  0
  2  4  1  0  0  0  0
  2 33  1  0  0  0  0
  3 34  1  0  0  0  0
  3 35  1  0  0  0  0
  3 36  1  0  0  0  0
  4  5  2  0  0  0  0
  4  6  1  0  0  0  0
  6 37  1  0  0  0  0
  6  7  1  0  0  0  0
  7 25  1  0  0  0  0
  7  8  2  0  0  0  0
  8  9  1  0  0  0  0
  9 13  1  0  0  0  0
  9 10  2  0  0  0  0
 10 11  1  0  0  0  0
 10 23  1  0  0  0  0
 11 12  2  0  0  0  0
 12 13  1  0  0  0  0
 12 38  1  0  0  0  0
 13 14  1  0  0  0  0
 14 26  1  0  0  0  0
 14 21  1  0  0  0  0
 14 15  1  0  0  0  0
 15 16  1  0  0  0  0
 16 27  1  0  0  0  0
 16 17  1  0  0  0  0
 16 19  1  0  0  0  0
 17 18  1  0  0  0  0
 17 39  1  0  0  0  0
 17 40  1  0  0  0  0
 18 41  1  0  0  0  0
 19 28  1  0  0  0  0
 19 20  1  0  0  0  0
 19 21  1  0  0  0  0
 20 42  1  0  0  0  0
 21 29  1  0  0  0  0
 21 22  1  0  0  0  0
 22 43  1  0  0  0  0
 23 24  2  0  0  0  0
 23 25  1  0  0  0  0
M  CHG  1  25  -1
M  END
> <s_m_source_file>
AV-unprocessed.smi

> <i_m_source_file_index>
54

> <i_lp_mmshare_version>
43012

> <i_f3d_flags>
0

> <s_epik_input>
W0NIM11bQ0hdKFtDSDNdKUMoPU8pW05IXWMobjEpW25IXWMoPU8pYyhjMTIpbltjSF1uMltDQEBIXTNPW0NASF0oW0NIMl1bT0hdKVtDQEBIXShbT0hdKVtDQEhdM1tPSF0=

> <s_epik_cmdline>
J2VwaWtfcHl0aG9uJywgJy1waCcsICc3LjAnLCAnLXRuJywgJzgnLCAnLW1hJywgJzIwMCcsICctbWV0YWxfYmluZGluZycsICctaW1hZScsICc8aW5maWxlLm1hZT4nLCAnLW9tYWUnLCAnPG91dGZpbGUubWFlPic=

> <r_lp_tautomer_probability>
0.85571

> <r_epik_Ionization_Penalty>
1.75936

> <r_epik_Ionization_Penalty_Charging>
4.55893e-11

> <r_epik_Ionization_Penalty_Neutral>
1.75936

> <r_epik_State_Penalty>
1.72072

> <r_epik_Charging_Adjusted_Penalty>
1.72072

> <i_epik_Tot_Q>
-1

> <i_epik_Tot_abs_Q>
1

> <r_epik_Metal_State_Penalty>
0.400338

> <b_epik_Metal_Only>
1

> <s_epik_Chemistry_Notes>
This compound contains an acetal/aminal-like group ( X-CH(R)-Y where X, Y are N, S, or O) that may be acid/base labile, releasing an aldehyde.

> <s_lp_Force_Field>
OPLS_2005

> <r_lp_Energy>
61.5682

> <b_lp_Chiralities_Consistent>
1

> <s_lp_Variant>
AV-unprocessed.smi:54-32

> <Gold.Version>
5.8.1

> <Gold.Id.Protein>
6NUR|6NUR_protein|mol2

> <Gold.PLP.Fitness>
49.5467

> <Gold.PLP.PLP>
-32.1159

> <Gold.PLP.part.hbond>
-9.0000

> <Gold.PLP.part.metal>
0.0000

> <Gold.PLP.part.buried>
-6.1738

> <Gold.PLP.part.nonpolar>
-18.6885

> <Gold.PLP.part.repulsive>
0.1677

> <Gold.PLP.ligand.clash>
0.0000

> <Gold.PLP.ligand.torsion>
2.0537

> <Gold.PLP.Chemscore.Hbond>
7.1680

> <Gold.PLP.Chemscore.CHOScore>
0.0000

> <Gold.PLP.Chemscore.Metal>
0.0000

> <Gold.Chemscore.Hbonds>
donor molecule, donor type, donor heavy atom, donor atom, acceptor molecule, acceptor atom, score
      L1  H    20    42       P1  8028  1.00
      L1  H    22    43       P1  7957  0.46
      P1  H  6896  6908       L1    25  1.80
      P1  H  6931  6943       L1     5  1.00
      P1  H  6934  6947       L1     5  0.44
      P1  H  7997  8009       L1    11  1.00
      P1  H  8011  8017       L1    22  0.99

> <Gold.PLP.Chemscore.Internal.Correction>
0.0343

> <Gold.Rescore>
     Score         DG    S(hbond)    S(metal)    S(lipo)     H(rot)  DE(clash)    DE(int)     intcor
     13.86     -17.36       5.41        0.00      35.11       4.02       0.01       3.48       ----

> <Gold.Chemscore.Fitness>
13.8606

> <Gold.Chemscore.DG>
-17.3595

> <Gold.Chemscore.ZeroCoef>
-5.4800

> <Gold.Chemscore.Hbond>
5.4076

> <Gold.Chemscore.Metal>
0.0000

> <Gold.Chemscore.Lipo>
35.1058

> <Gold.Chemscore.Internal_Hbond>
0.0000

> <Gold.Chemscore.DEClash>
0.0143

> <Gold.Chemscore.DEInternal>
3.4846

> <Gold.Chemscore.Rot>
4.0192

> <Gold.Chemscore.Internal.Correction>
   9.000000E+99

> <Gold.Chemscore.Hbonds>
donor molecule, donor type, donor heavy atom, donor atom, acceptor molecule, acceptor atom, score
      L1  H    20    42       P1  8028  0.39
      L1  H    22    43       P1  7957  0.44
      P1  H  6896  6908       L1    25  0.17
      P1  H  6931  6943       L1     5  0.98
      P1  H  6934  6947       L1     5  0.44
      P1  H  7997  8009       L1    11  0.67
      P1  H  8011  8017       L1    22  0.37

> <Gold.Chemscore.Hbond.Weighted>
-18.0614

> <Gold.Chemscore.Metal.Weighted>
-0.0000

> <Gold.Chemscore.Lipo.Weighted>
-4.1074

> <Gold.Chemscore.Internal_Hbond.Weighted>
0.0000

> <Gold.Chemscore.DEClash.Weighted>
0.0143

> <Gold.Chemscore.DEInternal.Weighted>
3.4846

> <Gold.Chemscore.Rot.Weighted>
10.2893

> <Gold.Chemscore.Internal.Correction.Weighted>
   9.000000E+99

> <Gold.Protein.RotatedTorsions>
[ 6907 6896 6895 6894 ] final -126.51 input  -60.11 | X-H torsion
[ 7974 7965 7964 7962 ] final   80.22 input  175.53 | X-H torsion
[ 8008 7997 7996 7995 ] final  174.29 input   59.86 | X-H torsion
[ 10167 10162 10161 10158 ] final   75.28 input  -65.29 | X-H torsion
[ 10718 10713 10712 10709 ] final -106.72 input   66.30 | X-H torsion
[ 10763 10752 10751 10750 ] final -150.18 input  -60.55 | X-H torsion
[ 11005 11000 10999 10996 ] final -155.67 input  -57.11 | X-H torsion

> <Gold.Protein.ActiveResidues>
 VAL166  LYS551  ARG553  GLY616  TRP617  ASP618  TYR619  PRO620  LYS621  CYS622 
 ASP623  PHE694  ASN695  SER759  ASP760  ASP761  ALA762  ILE779  LEU786  VAL792 
 PHE793  MET794  SER795  GLU796  ALA797  LYS798  CYS799  TRP800  GLU811  SER814 

> <Gold.Protein.RotatedAtoms>
  150.8977  133.7160  159.2887 H   0  0  0  0  0  0  0  0  0  0  0  0  # atno 6907 bound_to 6896
  151.4689  135.1043  159.9755 H   0  0  0  0  0  0  0  0  0  0  0  0  # atno 6908 bound_to 6896
  152.4858  133.8322  159.7164 H   0  0  0  0  0  0  0  0  0  0  0  0  # atno 6909 bound_to 6896
  145.6541  139.2455  143.1960 H   0  0  0  0  0  0  0  0  0  0  0  0  # atno 7974 bound_to 7965
  156.0989  140.1438  156.9494 H   0  0  0  0  0  0  0  0  0  0  0  0  # atno 8008 bound_to 7997
  154.4689  140.0916  156.7140 H   0  0  0  0  0  0  0  0  0  0  0  0  # atno 8009 bound_to 7997
  155.4793  140.3444  155.4339 H   0  0  0  0  0  0  0  0  0  0  0  0  # atno 8010 bound_to 7997
  140.0046  144.5660  150.7708 H   0  0  0  0  0  0  0  0  0  0  0  0  # atno 10167 bound_to 10162
  156.0403  130.5627  150.7721 H   0  0  0  0  0  0  0  0  0  0  0  0  # atno 10718 bound_to 10713
  154.8134  135.3290  154.7243 H   0  0  0  0  0  0  0  0  0  0  0  0  # atno 10763 bound_to 10752
  153.7888  135.6912  153.4879 H   0  0  0  0  0  0  0  0  0  0  0  0  # atno 10764 bound_to 10752
  153.1930  135.4544  155.0120 H   0  0  0  0  0  0  0  0  0  0  0  0  # atno 10765 bound_to 10752
  140.6840  134.4114  157.5224 H   0  0  0  0  0  0  0  0  0  0  0  0  # atno 11005 bound_to 11000
  146.1179  140.7346  142.9471 LP  0  0  0  0  0  0  0  0  0  0  0  0  # atno 17320 bound_to 7965
  144.7112  140.4045  143.7079 LP  0  0  0  0  0  0  0  0  0  0  0  0  # atno 17321 bound_to 7965
  140.7405  143.2806  151.3611 LP  0  0  0  0  0  0  0  0  0  0  0  0  # atno 17342 bound_to 10162
  139.6247  144.0837  152.2424 LP  0  0  0  0  0  0  0  0  0  0  0  0  # atno 17343 bound_to 10162
  157.5212  131.0931  151.0076 LP  0  0  0  0  0  0  0  0  0  0  0  0  # atno 17370 bound_to 10713
  157.0407  130.5748  149.5356 LP  0  0  0  0  0  0  0  0  0  0  0  0  # atno 17371 bound_to 10713
  139.8943  134.8709  156.2182 LP  0  0  0  0  0  0  0  0  0  0  0  0  # atno 17394 bound_to 11000
  141.0295  133.6996  156.1405 LP  0  0  0  0  0  0  0  0  0  0  0  0  # atno 17395 bound_to 11000

$$$$
