AV-unprocessed.smi:34|AV-procd|sdf|238|dock10
  -GOLD-   2262015583D 1   1.00000     0.00000
 Structure written by MMmdl.
 54 58  0  0  0  0  0  0  0  0  2 V2000
  149.4512  140.8395  157.7057 O   0  0  0  0  0  0  0  0  0  0  0  0
  150.6255  141.1380  157.9335 C   0  0  0  0  0  0  0  0  0  0  0  0
  151.7439  140.4707  157.5520 N   0  5  0  0  0  0  0  0  0  0  0  0
  151.6518  139.4386  156.6999 C   0  0  0  0  0  0  0  0  0  0  0  0
  152.2275  139.5093  155.4730 N   0  0  0  0  0  0  0  0  0  0  0  0
  152.1254  138.4848  154.6190 C   0  0  0  0  0  0  0  0  0  0  0  0
  151.4989  137.3158  154.7815 N   0  0  0  0  0  0  0  0  0  0  0  0
  150.9086  137.2322  156.0092 C   0  0  0  0  0  0  0  0  0  0  0  0
  150.9415  138.2466  157.0109 C   0  0  0  0  0  0  0  0  0  0  0  0
  150.2441  137.8471  158.1409 N   0  0  0  0  0  0  0  0  0  0  0  0
  149.8301  136.6338  157.7850 C   0  0  0  0  0  0  0  0  0  0  0  0
  150.1730  136.1915  156.5585 N   0  0  0  0  0  0  0  0  0  0  0  0
  149.8138  134.8668  155.9544 C   0  0  1  0  0  0  0  0  0  0  0  0
  148.9609  134.1740  156.8191 O   0  0  0  0  0  0  0  0  0  0  0  0
  147.7021  133.9529  156.1899 C   0  0  2  0  0  0  0  0  0  0  0  0
  147.0392  132.6816  156.7339 C   0  0  0  0  0  0  0  0  0  0  0  0
  146.4995  132.9430  158.0196 O   0  0  0  0  0  0  0  0  0  0  0  0
  145.8066  134.0770  158.2423 C   0  0  0  0  0  0  0  0  0  0  0  0
  145.1479  134.6555  157.3756 O   0  0  0  0  0  0  0  0  0  0  0  0
  145.9259  134.5638  159.6468 C   0  0  0  0  0  0  0  0  0  0  0  0
  146.3261  135.8994  159.8854 C   0  0  0  0  0  0  0  0  0  0  0  0
  146.4502  136.3874  161.2008 C   0  0  0  0  0  0  0  0  0  0  0  0
  146.1735  135.5460  162.2942 C   0  0  0  0  0  0  0  0  0  0  0  0
  145.7730  134.2158  162.0704 C   0  0  0  0  0  0  0  0  0  0  0  0
  145.6499  133.7255  160.7555 C   0  0  0  0  0  0  0  0  0  0  0  0
  148.0271  133.9308  154.6956 C   0  0  2  0  0  0  0  0  0  0  0  0
  148.5252  132.7456  154.3365 F   0  0  0  0  0  0  0  0  0  0  0  0
  149.1128  134.9857  154.5844 C   0  0  1  0  0  0  0  0  0  0  0  0
  148.5563  136.2594  154.3116 O   0  0  0  0  0  0  0  0  0  0  0  0
  150.9158  142.3453  158.7850 C   0  0  0  0  0  0  0  0  0  0  0  0
  152.2523  142.7670  158.9710 C   0  0  0  0  0  0  0  0  0  0  0  0
  152.5461  143.8787  159.7846 C   0  0  0  0  0  0  0  0  0  0  0  0
  151.5068  144.5760  160.4286 C   0  0  0  0  0  0  0  0  0  0  0  0
  150.1736  144.1574  160.2624 C   0  0  0  0  0  0  0  0  0  0  0  0
  149.8788  143.0457  159.4490 C   0  0  0  0  0  0  0  0  0  0  0  0
  152.6163  138.6220  153.6670 H   0  0  0  0  0  0  0  0  0  0  0  0
  149.2414  136.0286  158.4586 H   0  0  0  0  0  0  0  0  0  0  0  0
  150.7596  134.3268  155.8957 H   0  0  0  0  0  0  0  0  0  0  0  0
  147.0611  134.8091  156.3996 H   0  0  0  0  0  0  0  0  0  0  0  0
  146.2611  132.3377  156.0509 H   0  0  0  0  0  0  0  0  0  0  0  0
  147.7774  131.8829  156.8148 H   0  0  0  0  0  0  0  0  0  0  0  0
  146.5455  136.5636  159.0616 H   0  0  0  0  0  0  0  0  0  0  0  0
  146.7584  137.4087  161.3700 H   0  0  0  0  0  0  0  0  0  0  0  0
  146.2680  135.9205  163.3029 H   0  0  0  0  0  0  0  0  0  0  0  0
  145.5593  133.5692  162.9088 H   0  0  0  0  0  0  0  0  0  0  0  0
  145.3390  132.7000  160.6190 H   0  0  0  0  0  0  0  0  0  0  0  0
  147.1599  134.1217  154.0621 H   0  0  0  0  0  0  0  0  0  0  0  0
  149.8241  134.7534  153.7909 H   0  0  0  0  0  0  0  0  0  0  0  0
  148.8103  136.5183  153.4387 H   0  0  0  0  0  0  0  0  0  0  0  0
  153.0620  142.2417  158.4849 H   0  0  0  0  0  0  0  0  0  0  0  0
  153.5704  144.1954  159.9154 H   0  0  0  0  0  0  0  0  0  0  0  0
  151.7323  145.4279  161.0526 H   0  0  0  0  0  0  0  0  0  0  0  0
  149.3754  144.6870  160.7609 H   0  0  0  0  0  0  0  0  0  0  0  0
  148.8494  142.7346  159.3437 H   0  0  0  0  0  0  0  0  0  0  0  0
  1  2  2  0  0  0  0
  2  3  1  0  0  0  0
  2 30  1  0  0  0  0
  3  4  1  0  0  0  0
  4  9  1  0  0  0  0
  4  5  2  0  0  0  0
  5  6  1  0  0  0  0
  6  7  2  0  0  0  0
  6 36  1  0  0  0  0
  7  8  1  0  0  0  0
  8 12  1  0  0  0  0
  8  9  2  0  0  0  0
  9 10  1  0  0  0  0
 10 11  2  0  0  0  0
 11 12  1  0  0  0  0
 11 37  1  0  0  0  0
 12 13  1  0  0  0  0
 13 28  1  0  0  0  0
 13 14  1  0  0  0  0
 13 38  1  0  0  0  0
 14 15  1  0  0  0  0
 15 16  1  0  0  0  0
 15 26  1  0  0  0  0
 15 39  1  0  0  0  0
 16 17  1  0  0  0  0
 16 40  1  0  0  0  0
 16 41  1  0  0  0  0
 17 18  1  0  0  0  0
 18 19  2  0  0  0  0
 18 20  1  0  0  0  0
 20 25  1  0  0  0  0
 20 21  2  0  0  0  0
 21 22  1  0  0  0  0
 21 42  1  0  0  0  0
 22 23  2  0  0  0  0
 22 43  1  0  0  0  0
 23 24  1  0  0  0  0
 23 44  1  0  0  0  0
 24 25  2  0  0  0  0
 24 45  1  0  0  0  0
 25 46  1  0  0  0  0
 26 27  1  0  0  0  0
 26 28  1  0  0  0  0
 26 47  1  0  0  0  0
 28 29  1  0  0  0  0
 28 48  1  0  0  0  0
 29 49  1  0  0  0  0
 30 35  1  0  0  0  0
 30 31  2  0  0  0  0
 31 32  1  0  0  0  0
 31 50  1  0  0  0  0
 32 33  2  0  0  0  0
 32 51  1  0  0  0  0
 33 34  1  0  0  0  0
 33 52  1  0  0  0  0
 34 35  2  0  0  0  0
 34 53  1  0  0  0  0
 35 54  1  0  0  0  0
M  CHG  1   3  -1
M  END
> <s_m_source_file>
AV-unprocessed.smi

> <i_m_source_file_index>
34

> <i_lp_mmshare_version>
43012

> <i_f3d_flags>
0

> <s_epik_input>
W2NIXTFbY0hdW2NIXVtjSF1bY0hdYzFDKD1PKVtOSF1jKG5bY0hdbjIpYyhjMjMpbltjSF1uM1tDQEBIXTRPW0NASF0oW0NAQEhdKEYpW0NASF00W09IXSlbQ0gyXU9DKD1PKWM1W2NIXVtjSF1bY0hdW2NIXVtjSF01

> <s_epik_cmdline>
J2VwaWtfcHl0aG9uJywgJy1waCcsICc3LjAnLCAnLXRuJywgJzgnLCAnLW1hJywgJzIwMCcsICctbWV0YWxfYmluZGluZycsICctaW1hZScsICc8aW5maWxlLm1hZT4nLCAnLW9tYWUnLCAnPG91dGZpbGUubWFlPic=

> <r_lp_tautomer_probability>
1

> <r_epik_Ionization_Penalty>
4.33227

> <r_epik_Ionization_Penalty_Charging>
3.41027

> <r_epik_Ionization_Penalty_Neutral>
0.922001

> <r_epik_State_Penalty>
3.41358

> <r_epik_Charging_Adjusted_Penalty>
6.82385

> <i_epik_Tot_Q>
-1

> <i_epik_Tot_abs_Q>
1

> <r_epik_Metal_State_Penalty>
0.496292

> <b_epik_Metal_Only>
1

> <s_epik_Chemistry_Notes>
This compound has an ester and may undergo hydrolysis at high or low pH. This compound contains an acetal/aminal-like group ( X-CH(R)-Y where X, Y are N, S, or O) that may be acid/base labile, releasing an aldehyde.

> <s_lp_Force_Field>
OPLS_2005

> <r_lp_Energy>
49.908

> <b_lp_Chiralities_Consistent>
1

> <s_lp_Variant>
AV-unprocessed.smi:34-24

> <Gold.Version>
5.8.1

> <Gold.Id.Protein>
6NUR|6NUR_protein|mol2

> <Gold.PLP.Fitness>
65.0613

> <Gold.PLP.PLP>
-60.3125

> <Gold.PLP.part.hbond>
-4.6538

> <Gold.PLP.part.metal>
0.0000

> <Gold.PLP.part.buried>
-7.1877

> <Gold.PLP.part.nonpolar>
-48.0383

> <Gold.PLP.part.repulsive>
0.1511

> <Gold.PLP.ligand.clash>
0.1173

> <Gold.PLP.ligand.torsion>
2.1926

> <Gold.PLP.Chemscore.Hbond>
2.9237

> <Gold.PLP.Chemscore.CHOScore>
0.0000

> <Gold.PLP.Chemscore.Metal>
0.0000

> <Gold.Chemscore.Hbonds>
donor molecule, donor type, donor heavy atom, donor atom, acceptor molecule, acceptor atom, score
      L1  H    29    49       P1  7948  1.00
      P1  H 10752 10765       L1     7  0.50

> <Gold.PLP.Chemscore.Internal.Correction>
0.4803

> <Gold.Rescore>
     Score         DG    S(hbond)    S(metal)    S(lipo)     H(rot)  DE(clash)    DE(int)     intcor
     15.80     -21.28       2.34        0.00     127.12       2.69       1.23       4.25       ----

> <Gold.Chemscore.Fitness>
15.7999

> <Gold.Chemscore.DG>
-21.2760

> <Gold.Chemscore.ZeroCoef>
-5.4800

> <Gold.Chemscore.Hbond>
2.3416

> <Gold.Chemscore.Metal>
0.0000

> <Gold.Chemscore.Lipo>
127.1160

> <Gold.Chemscore.Internal_Hbond>
0.0000

> <Gold.Chemscore.DEClash>
1.2261

> <Gold.Chemscore.DEInternal>
4.2501

> <Gold.Chemscore.Rot>
2.6944

> <Gold.Chemscore.Internal.Correction>
   9.000000E+99

> <Gold.Chemscore.Hbonds>
donor molecule, donor type, donor heavy atom, donor atom, acceptor molecule, acceptor atom, score
      L1  H    29    49       P1  7948  0.95
      P1  H 10752 10765       L1     7  0.30

> <Gold.Chemscore.Hbond.Weighted>
-7.8210

> <Gold.Chemscore.Metal.Weighted>
-0.0000

> <Gold.Chemscore.Lipo.Weighted>
-14.8726

> <Gold.Chemscore.Internal_Hbond.Weighted>
0.0000

> <Gold.Chemscore.DEClash.Weighted>
1.2261

> <Gold.Chemscore.DEInternal.Weighted>
4.2501

> <Gold.Chemscore.Rot.Weighted>
6.8975

> <Gold.Chemscore.Internal.Correction.Weighted>
   9.000000E+99

> <Gold.Protein.RotatedTorsions>
[ 6907 6896 6895 6894 ] final  129.36 input  -60.11 | X-H torsion
[ 7974 7965 7964 7962 ] final  143.66 input  175.53 | X-H torsion
[ 8008 7997 7996 7995 ] final   44.02 input   59.86 | X-H torsion
[ 10167 10162 10161 10158 ] final  135.74 input  -65.29 | X-H torsion
[ 10718 10713 10712 10709 ] final -131.29 input   66.30 | X-H torsion
[ 10763 10752 10751 10750 ] final  171.43 input  -60.55 | X-H torsion
[ 11005 11000 10999 10996 ] final  -99.50 input  -57.11 | X-H torsion

> <Gold.Protein.ActiveResidues>
 VAL166  LYS551  ARG553  GLY616  TRP617  ASP618  TYR619  PRO620  LYS621  CYS622 
 ASP623  PHE694  ASN695  SER759  ASP760  ASP761  ALA762  ILE779  LEU786  VAL792 
 PHE793  MET794  SER795  GLU796  ALA797  LYS798  CYS799  TRP800  GLU811  SER814 

> <Gold.Protein.RotatedAtoms>
  152.3631  133.6322  159.6029 H   0  0  0  0  0  0  0  0  0  0  0  0  # atno 6907 bound_to 6896
  150.7615  133.9392  159.3459 H   0  0  0  0  0  0  0  0  0  0  0  0  # atno 6908 bound_to 6896
  151.7227  135.0892  160.0338 H   0  0  0  0  0  0  0  0  0  0  0  0  # atno 6909 bound_to 6896
  144.8902  139.5570  143.5802 H   0  0  0  0  0  0  0  0  0  0  0  0  # atno 7974 bound_to 7965
  155.3124  140.3392  155.4243 H   0  0  0  0  0  0  0  0  0  0  0  0  # atno 8008 bound_to 7997
  156.1949  140.1711  156.8056 H   0  0  0  0  0  0  0  0  0  0  0  0  # atno 8009 bound_to 7997
  154.5487  140.0710  156.8615 H   0  0  0  0  0  0  0  0  0  0  0  0  # atno 8010 bound_to 7997
  139.5206  144.6501  151.5326 H   0  0  0  0  0  0  0  0  0  0  0  0  # atno 10167 bound_to 10162
  156.2230  130.6990  151.0776 H   0  0  0  0  0  0  0  0  0  0  0  0  # atno 10718 bound_to 10713
  154.4118  135.2756  155.2032 H   0  0  0  0  0  0  0  0  0  0  0  0  # atno 10763 bound_to 10752
  154.4014  135.6043  153.5903 H   0  0  0  0  0  0  0  0  0  0  0  0  # atno 10764 bound_to 10752
  152.9831  135.5927  154.4401 H   0  0  0  0  0  0  0  0  0  0  0  0  # atno 10765 bound_to 10752
  141.1306  133.8326  157.0979 H   0  0  0  0  0  0  0  0  0  0  0  0  # atno 11005 bound_to 11000
  146.3049  139.7547  142.9064 LP  0  0  0  0  0  0  0  0  0  0  0  0  # atno 17320 bound_to 7965
  145.3797  141.0356  143.3184 LP  0  0  0  0  0  0  0  0  0  0  0  0  # atno 17321 bound_to 7965
  140.6302  143.9090  150.6599 LP  0  0  0  0  0  0  0  0  0  0  0  0  # atno 17342 bound_to 10162
  140.2392  143.3677  152.1501 LP  0  0  0  0  0  0  0  0  0  0  0  0  # atno 17343 bound_to 10162
  157.7096  131.0740  150.6546 LP  0  0  0  0  0  0  0  0  0  0  0  0  # atno 17370 bound_to 10713
  156.6609  130.4512  149.5688 LP  0  0  0  0  0  0  0  0  0  0  0  0  # atno 17371 bound_to 10713
  140.0351  134.9882  157.0856 LP  0  0  0  0  0  0  0  0  0  0  0  0  # atno 17394 bound_to 11000
  140.4223  134.1868  155.7165 LP  0  0  0  0  0  0  0  0  0  0  0  0  # atno 17395 bound_to 11000

$$$$
