AV-unprocessed.smi:1218|AV-procd|sdf|5107|dock2
  -GOLD-   22720 4163D 1   1.00000     0.00000
 Structure written by MMmdl.
 45 46  0  0  0  0  0  0  0  0  2 V2000
  145.9575  131.8761  149.5317 C   0  0  0  0  0  0  0  0  0  0  0  0
  145.5967  132.5708  150.8534 C   0  0  0  0  0  0  0  0  0  0  0  0
  144.3778  133.4887  150.6612 C   0  0  0  0  0  0  0  0  0  0  0  0
  146.8148  133.3386  151.4115 C   0  0  0  0  0  0  0  0  0  0  0  0
  147.7239  132.4867  152.2264 N   0  3  2  0  0  0  0  0  0  0  0  0
  147.0139  131.6567  153.2294 C   0  0  0  0  0  0  0  0  0  0  0  0
  146.6108  132.4943  154.4557 C   0  0  0  0  0  0  0  0  0  0  0  0
  147.7710  133.0985  155.0123 O   0  0  0  0  0  0  0  0  0  0  0  0
  148.4108  133.9976  154.1116 C   0  0  1  0  0  0  0  0  0  0  0  0
  149.6084  134.6492  154.8266 C   0  0  0  0  0  0  0  0  0  0  0  0
  149.9322  135.9573  154.2669 N   0  0  0  0  0  0  0  0  0  0  0  0
  150.9261  136.7559  154.6854 C   0  0  0  0  0  0  0  0  0  0  0  0
  151.6810  136.4631  155.6132 O   0  0  0  0  0  0  0  0  0  0  0  0
  151.0814  138.0874  153.9428 C   0  0  0  0  0  0  0  0  0  0  0  0
  150.9866  139.2283  154.8389 N   0  0  0  0  0  0  0  0  0  0  0  0
  151.3884  139.3217  156.1558 C   0  0  0  0  0  0  0  0  0  0  0  0
  151.1038  140.5882  156.5793 C   0  0  0  0  0  0  0  0  0  0  0  0
  150.5255  141.2051  155.4349 C   0  0  0  0  0  0  0  0  0  0  0  0
  150.4594  140.3902  154.3944 N   0  0  0  0  0  0  0  0  0  0  0  0
  148.8584  133.2061  152.8620 C   0  0  0  0  0  0  0  0  0  0  0  0
  146.2467  132.5991  148.7681 H   0  0  0  0  0  0  0  0  0  0  0  0
  145.1136  131.3041  149.1447 H   0  0  0  0  0  0  0  0  0  0  0  0
  146.7887  131.1827  149.6645 H   0  0  0  0  0  0  0  0  0  0  0  0
  145.3155  131.7830  151.5512 H   0  0  0  0  0  0  0  0  0  0  0  0
  144.5974  134.3007  149.9673 H   0  0  0  0  0  0  0  0  0  0  0  0
  144.0582  133.9329  151.6042 H   0  0  0  0  0  0  0  0  0  0  0  0
  143.5289  132.9327  150.2618 H   0  0  0  0  0  0  0  0  0  0  0  0
  147.3709  133.8077  150.6000 H   0  0  0  0  0  0  0  0  0  0  0  0
  146.4421  134.1577  152.0284 H   0  0  0  0  0  0  0  0  0  0  0  0
  146.1444  131.1706  152.7855 H   0  0  0  0  0  0  0  0  0  0  0  0
  147.6821  130.8551  153.5466 H   0  0  0  0  0  0  0  0  0  0  0  0
  145.8743  133.2558  154.1950 H   0  0  0  0  0  0  0  0  0  0  0  0
  146.1520  131.8554  155.2105 H   0  0  0  0  0  0  0  0  0  0  0  0
  147.7105  134.7835  153.8248 H   0  0  0  0  0  0  0  0  0  0  0  0
  149.4281  134.7188  155.9008 H   0  0  0  0  0  0  0  0  0  0  0  0
  150.4913  134.0213  154.7044 H   0  0  0  0  0  0  0  0  0  0  0  0
  149.3609  136.2782  153.4985 H   0  0  0  0  0  0  0  0  0  0  0  0
  152.0466  138.1310  153.4364 H   0  0  0  0  0  0  0  0  0  0  0  0
  150.3109  138.1606  153.1736 H   0  0  0  0  0  0  0  0  0  0  0  0
  151.8359  138.4875  156.6760 H   0  0  0  0  0  0  0  0  0  0  0  0
  151.2819  141.0102  157.5572 H   0  0  0  0  0  0  0  0  0  0  0  0
  150.1560  142.2145  155.3296 H   0  0  0  0  0  0  0  0  0  0  0  0
  149.6017  132.4634  153.1556 H   0  0  0  0  0  0  0  0  0  0  0  0
  149.3567  133.8618  152.1494 H   0  0  0  0  0  0  0  0  0  0  0  0
  148.1280  131.8351  151.5687 H   0  0  0  0  0  0  0  0  0  0  0  0
  1  2  1  0  0  0  0
  1 21  1  0  0  0  0
  1 22  1  0  0  0  0
  1 23  1  0  0  0  0
  2  3  1  0  0  0  0
  2  4  1  0  0  0  0
  2 24  1  0  0  0  0
  3 25  1  0  0  0  0
  3 26  1  0  0  0  0
  3 27  1  0  0  0  0
  4  5  1  0  0  0  0
  4 28  1  0  0  0  0
  4 29  1  0  0  0  0
  5 20  1  0  0  0  0
  5  6  1  0  0  0  0
  5 45  1  0  0  0  0
  6  7  1  0  0  0  0
  6 30  1  0  0  0  0
  6 31  1  0  0  0  0
  7  8  1  0  0  0  0
  7 32  1  0  0  0  0
  7 33  1  0  0  0  0
  8  9  1  0  0  0  0
  9 10  1  0  0  0  0
  9 20  1  0  0  0  0
  9 34  1  0  0  0  0
 10 11  1  0  0  0  0
 10 35  1  0  0  0  0
 10 36  1  0  0  0  0
 11 12  1  0  0  0  0
 11 37  1  0  0  0  0
 12 13  2  0  0  0  0
 12 14  1  0  0  0  0
 14 15  1  0  0  0  0
 14 38  1  0  0  0  0
 14 39  1  0  0  0  0
 15 19  1  0  0  0  0
 15 16  1  0  0  0  0
 16 17  2  0  0  0  0
 16 40  1  0  0  0  0
 17 18  1  0  0  0  0
 17 41  1  0  0  0  0
 18 19  2  0  0  0  0
 18 42  1  0  0  0  0
 20 43  1  0  0  0  0
 20 44  1  0  0  0  0
M  CHG  1   5   1
M  END
> <s_m_source_file>
AV-unprocessed.smi

> <i_m_source_file_index>
1218

> <i_lp_mmshare_version>
43012

> <i_f3d_flags>
0

> <s_epik_input>
W0NIM11bQ0hdKFtDSDNdKVtDSDJdTjFbQ0gyXVtDSDJdT1tDQEhdKFtDSDJdMSlbQ0gyXVtOSF1DKD1PKVtDSDJdbjJbY0hdW2NIXVtjSF1uMg==

> <s_epik_cmdline>
J2VwaWtfcHl0aG9uJywgJy1waCcsICc3LjAnLCAnLXRuJywgJzgnLCAnLW1hJywgJzIwMCcsICctbWV0YWxfYmluZGluZycsICctaW1hZScsICc8aW5maWxlLm1hZT4nLCAnLW9tYWUnLCAnPG91dGZpbGUubWFlPic=

> <r_lp_tautomer_probability>
1

> <r_epik_Ionization_Penalty>
0.0995066

> <r_epik_Ionization_Penalty_Charging>
0.0994921

> <r_epik_Ionization_Penalty_Neutral>
1.44634e-05

> <r_epik_State_Penalty>
0.0895432

> <r_epik_Charging_Adjusted_Penalty>
0.189035

> <i_epik_Tot_Q>
1

> <i_epik_Tot_abs_Q>
1

> <r_epik_Metal_State_Penalty>
0.0895432

> <b_epik_Metal_Only>
0

> <s_lp_Force_Field>
OPLS_2005

> <r_lp_Energy>
22.0385

> <b_lp_Chiralities_Consistent>
1

> <s_lp_Variant>
AV-unprocessed.smi:1218-2

> <Gold.Version>
5.8.1

> <Gold.Id.Protein>
6NUR|6NUR_protein|mol2

> <Gold.PLP.Fitness>
49.2350

> <Gold.PLP.PLP>
-38.6121

> <Gold.PLP.part.hbond>
-4.6573

> <Gold.PLP.part.metal>
0.0000

> <Gold.PLP.part.buried>
-3.4475

> <Gold.PLP.part.nonpolar>
-30.1103

> <Gold.PLP.part.repulsive>
0.2258

> <Gold.PLP.ligand.clash>
0.0000

> <Gold.PLP.ligand.torsion>
1.0387

> <Gold.PLP.Chemscore.Hbond>
3.7780

> <Gold.PLP.Chemscore.CHOScore>
0.3862

> <Gold.PLP.Chemscore.Metal>
0.0000

> <Gold.Chemscore.Hbonds>
donor molecule, donor type, donor heavy atom, donor atom, acceptor molecule, acceptor atom, score
      L1  H     5    45       P1 10747  1.00
      L1  H    11    37       P1  7948  0.96
      P1  H  7989  7998       L1    19  1.00
      P1  H 10752 10765       L1    13  0.95
      L1  C    18    42       P1  8028  0.27

> <Gold.PLP.Chemscore.Internal.Correction>
0.2076

> <Gold.Rescore>
     Score         DG    S(hbond)    S(metal)    S(lipo)     H(rot)  DE(clash)    DE(int)     intcor
     18.49     -19.27       2.56        0.00      87.76       1.96       0.19       0.59       ----

> <Gold.Chemscore.Fitness>
18.4904

> <Gold.Chemscore.DG>
-19.2711

> <Gold.Chemscore.ZeroCoef>
-5.4800

> <Gold.Chemscore.Hbond>
2.5591

> <Gold.Chemscore.Metal>
0.0000

> <Gold.Chemscore.Lipo>
87.7567

> <Gold.Chemscore.Internal_Hbond>
0.0000

> <Gold.Chemscore.DEClash>
0.1903

> <Gold.Chemscore.DEInternal>
0.5903

> <Gold.Chemscore.Rot>
1.9624

> <Gold.Chemscore.Internal.Correction>
   9.000000E+99

> <Gold.Chemscore.Hbonds>
donor molecule, donor type, donor heavy atom, donor atom, acceptor molecule, acceptor atom, score
      L1  H     5    45       P1 10747  1.00
      L1  H    11    37       P1  7948  0.72
      P1  H  7989  7998       L1    19  0.09
      P1  H 10752 10765       L1    13  0.22

> <Gold.Chemscore.Hbond.Weighted>
-8.5473

> <Gold.Chemscore.Metal.Weighted>
-0.0000

> <Gold.Chemscore.Lipo.Weighted>
-10.2675

> <Gold.Chemscore.Internal_Hbond.Weighted>
0.0000

> <Gold.Chemscore.DEClash.Weighted>
0.1903

> <Gold.Chemscore.DEInternal.Weighted>
0.5903

> <Gold.Chemscore.Rot.Weighted>
5.0237

> <Gold.Chemscore.Internal.Correction.Weighted>
   9.000000E+99

> <Gold.Protein.RotatedTorsions>
[ 6907 6896 6895 6894 ] final   53.64 input  -60.11 | X-H torsion
[ 7974 7965 7964 7962 ] final   35.71 input  175.53 | X-H torsion
[ 8008 7997 7996 7995 ] final -163.29 input   59.86 | X-H torsion
[ 10167 10162 10161 10158 ] final  -56.62 input  -65.29 | X-H torsion
[ 10718 10713 10712 10709 ] final  -94.63 input   66.30 | X-H torsion
[ 10763 10752 10751 10750 ] final -176.84 input  -60.55 | X-H torsion
[ 11005 11000 10999 10996 ] final   22.88 input  -57.11 | X-H torsion

> <Gold.Protein.ActiveResidues>
 VAL166  LYS551  ARG553  GLY616  TRP617  ASP618  TYR619  PRO620  LYS621  CYS622 
 ASP623  PHE694  ASN695  SER759  ASP760  ASP761  ALA762  ILE779  LEU786  VAL792 
 PHE793  MET794  SER795  GLU796  ALA797  LYS798  CYS799  TRP800  GLU811  SER814 

> <Gold.Protein.RotatedAtoms>
  152.3357  134.7200  160.0277 H   0  0  0  0  0  0  0  0  0  0  0  0  # atno 6907 bound_to 6896
  151.7602  133.3328  159.3424 H   0  0  0  0  0  0  0  0  0  0  0  0  # atno 6908 bound_to 6896
  150.7449  134.6045  159.6098 H   0  0  0  0  0  0  0  0  0  0  0  0  # atno 6909 bound_to 6896
  146.1264  139.6109  142.9256 H   0  0  0  0  0  0  0  0  0  0  0  0  # atno 7974 bound_to 7965
  155.8192  140.0917  157.1859 H   0  0  0  0  0  0  0  0  0  0  0  0  # atno 8008 bound_to 7997
  154.3979  140.1440  156.3539 H   0  0  0  0  0  0  0  0  0  0  0  0  # atno 8009 bound_to 7997
  155.8284  140.3443  155.5559 H   0  0  0  0  0  0  0  0  0  0  0  0  # atno 8010 bound_to 7997
  140.6306  143.2458  151.5251 H   0  0  0  0  0  0  0  0  0  0  0  0  # atno 10167 bound_to 10162
  156.0030  130.5075  150.5955 H   0  0  0  0  0  0  0  0  0  0  0  0  # atno 10718 bound_to 10713
  154.5675  135.2825  155.0860 H   0  0  0  0  0  0  0  0  0  0  0  0  # atno 10763 bound_to 10752
  154.2245  135.6385  153.5159 H   0  0  0  0  0  0  0  0  0  0  0  0  # atno 10764 bound_to 10752
  153.0047  135.5522  154.6288 H   0  0  0  0  0  0  0  0  0  0  0  0  # atno 10765 bound_to 10752
  140.3757  134.1975  155.7665 H   0  0  0  0  0  0  0  0  0  0  0  0  # atno 11005 bound_to 11000
  145.5357  141.0424  143.2358 LP  0  0  0  0  0  0  0  0  0  0  0  0  # atno 17320 bound_to 7965
  144.7646  139.6875  143.7220 LP  0  0  0  0  0  0  0  0  0  0  0  0  # atno 17321 bound_to 7965
  139.5521  144.2370  152.1548 LP  0  0  0  0  0  0  0  0  0  0  0  0  # atno 17342 bound_to 10162
  140.1612  144.5024  150.6631 LP  0  0  0  0  0  0  0  0  0  0  0  0  # atno 17343 bound_to 10162
  157.3813  131.0781  151.1474 LP  0  0  0  0  0  0  0  0  0  0  0  0  # atno 17370 bound_to 10713
  157.2196  130.6475  149.5806 LP  0  0  0  0  0  0  0  0  0  0  0  0  # atno 17371 bound_to 10713
  141.1940  133.8138  157.0775 LP  0  0  0  0  0  0  0  0  0  0  0  0  # atno 17394 bound_to 11000
  140.0517  134.9802  157.1148 LP  0  0  0  0  0  0  0  0  0  0  0  0  # atno 17395 bound_to 11000

$$$$
