AV-unprocessed.smi:2245|AV-procd|sdf|9081|dock2
  -GOLD-   2272012283D 1   1.00000     0.00000
 Structure written by MMmdl.
 45 46  0  0  0  0  0  0  0  0  2 V2000
  153.8496  141.4050  161.8906 C   0  0  0  0  0  0  0  0  0  0  0  0
  153.0717  142.0873  160.7850 C   0  0  0  0  0  0  0  0  0  0  0  0
  152.7335  143.4505  160.8792 C   0  0  0  0  0  0  0  0  0  0  0  0
  152.0041  144.0293  159.8221 C   0  0  0  0  0  0  0  0  0  0  0  0
  151.6097  145.4909  159.8559 C   0  0  0  0  0  0  0  0  0  0  0  0
  151.6177  143.3380  158.7287 N   0  0  0  0  0  0  0  0  0  0  0  0
  151.9377  142.0242  158.6271 C   0  0  0  0  0  0  0  0  0  0  0  0
  151.5766  141.2095  157.5211 N   0  0  0  0  0  0  0  0  0  0  0  0
  152.1864  140.0965  157.0765 C   0  0  0  0  0  0  0  0  0  0  0  0
  153.1791  139.5750  157.5849 O   0  0  0  0  0  0  0  0  0  0  0  0
  151.5766  139.6094  155.9859 N   0  0  0  0  0  0  0  0  0  0  0  0
  151.9824  138.4073  155.2642 C   0  0  0  0  0  0  0  0  0  0  0  0
  150.8097  137.7466  154.5123 C   0  0  1  0  0  0  0  0  0  0  0  0
  150.1912  136.5575  155.2451 C   0  0  0  0  0  0  0  0  0  0  0  0
  148.7715  136.4488  154.6723 C   0  0  0  0  0  0  0  0  0  0  0  0
  148.4907  137.7258  153.9717 N   0  3  1  0  0  0  0  0  0  0  0  0
  147.1405  138.2960  154.1972 C   0  0  0  0  0  0  0  0  0  0  0  0
  146.0871  137.7220  153.2333 C   0  0  0  0  0  0  0  0  0  0  0  0
  144.8772  138.1160  153.6274 F   0  0  0  0  0  0  0  0  0  0  0  0
  146.3033  138.1751  151.9985 F   0  0  0  0  0  0  0  0  0  0  0  0
  146.1151  136.3899  153.2233 F   0  0  0  0  0  0  0  0  0  0  0  0
  149.5981  138.6506  154.2851 C   0  0  0  0  0  0  0  0  0  0  0  0
  152.6662  141.3664  159.6435 C   0  0  0  0  0  0  0  0  0  0  0  0
  154.4241  142.1290  162.4693 H   0  0  0  0  0  0  0  0  0  0  0  0
  154.5449  140.6735  161.4782 H   0  0  0  0  0  0  0  0  0  0  0  0
  153.1669  140.8888  162.5659 H   0  0  0  0  0  0  0  0  0  0  0  0
  153.0255  144.0364  161.7387 H   0  0  0  0  0  0  0  0  0  0  0  0
  151.8071  145.9306  160.8341 H   0  0  0  0  0  0  0  0  0  0  0  0
  150.5468  145.6051  159.6410 H   0  0  0  0  0  0  0  0  0  0  0  0
  152.1734  146.0503  159.1089 H   0  0  0  0  0  0  0  0  0  0  0  0
  150.7632  141.5139  157.0075 H   0  0  0  0  0  0  0  0  0  0  0  0
  150.7627  140.0959  155.6393 H   0  0  0  0  0  0  0  0  0  0  0  0
  152.7862  138.6530  154.5682 H   0  0  0  0  0  0  0  0  0  0  0  0
  152.4052  137.7093  155.9874 H   0  0  0  0  0  0  0  0  0  0  0  0
  151.1572  137.3927  153.5401 H   0  0  0  0  0  0  0  0  0  0  0  0
  150.7670  135.6406  155.1149 H   0  0  0  0  0  0  0  0  0  0  0  0
  150.1363  136.7641  156.3150 H   0  0  0  0  0  0  0  0  0  0  0  0
  148.7017  135.6333  153.9521 H   0  0  0  0  0  0  0  0  0  0  0  0
  148.0558  136.2487  155.4706 H   0  0  0  0  0  0  0  0  0  0  0  0
  146.8388  138.1511  155.2358 H   0  0  0  0  0  0  0  0  0  0  0  0
  147.1961  139.3740  154.0384 H   0  0  0  0  0  0  0  0  0  0  0  0
  149.3686  139.2052  155.1969 H   0  0  0  0  0  0  0  0  0  0  0  0
  149.7555  139.3699  153.4806 H   0  0  0  0  0  0  0  0  0  0  0  0
  152.9135  140.3186  159.5508 H   0  0  0  0  0  0  0  0  0  0  0  0
  148.5692  137.5298  152.9837 H   0  0  0  0  0  0  0  0  0  0  0  0
  1  2  1  0  0  0  0
  1 24  1  0  0  0  0
  1 25  1  0  0  0  0
  1 26  1  0  0  0  0
  2 23  1  0  0  0  0
  2  3  2  0  0  0  0
  3  4  1  0  0  0  0
  3 27  1  0  0  0  0
  4  5  1  0  0  0  0
  4  6  2  0  0  0  0
  5 28  1  0  0  0  0
  5 29  1  0  0  0  0
  5 30  1  0  0  0  0
  6  7  1  0  0  0  0
  7  8  1  0  0  0  0
  7 23  2  0  0  0  0
  8  9  1  0  0  0  0
  8 31  1  0  0  0  0
  9 10  2  0  0  0  0
  9 11  1  0  0  0  0
 11 12  1  0  0  0  0
 11 32  1  0  0  0  0
 12 13  1  0  0  0  0
 12 33  1  0  0  0  0
 12 34  1  0  0  0  0
 13 22  1  0  0  0  0
 13 14  1  0  0  0  0
 13 35  1  0  0  0  0
 14 15  1  0  0  0  0
 14 36  1  0  0  0  0
 14 37  1  0  0  0  0
 15 16  1  0  0  0  0
 15 38  1  0  0  0  0
 15 39  1  0  0  0  0
 16 17  1  0  0  0  0
 16 22  1  0  0  0  0
 16 45  1  0  0  0  0
 17 18  1  0  0  0  0
 17 40  1  0  0  0  0
 17 41  1  0  0  0  0
 18 19  1  0  0  0  0
 18 20  1  0  0  0  0
 18 21  1  0  0  0  0
 22 42  1  0  0  0  0
 22 43  1  0  0  0  0
 23 44  1  0  0  0  0
M  CHG  1  16   1
M  END
> <s_m_source_file>
AV-unprocessed.smi

> <i_m_source_file_index>
2245

> <i_lp_mmshare_version>
43012

> <i_f3d_flags>
0

> <s_epik_input>
W0NIM11jMVtjSF1jKFtDSDNdKW5jKFtjSF0xKVtOSF1DKD1PKVtOSF1bQ0gyXVtDQEBIXTJbQ0gyXVtDSDJdTihbQ0gyXTIpW0NIMl1DKEYpKEYpRg==

> <s_epik_cmdline>
J2VwaWtfcHl0aG9uJywgJy1waCcsICc3LjAnLCAnLXRuJywgJzgnLCAnLW1hJywgJzIwMCcsICctbWV0YWxfYmluZGluZycsICctaW1hZScsICc8aW5maWxlLm1hZT4nLCAnLW9tYWUnLCAnPG91dGZpbGUubWFlPic=

> <r_epik_Ionization_Penalty>
0.628315

> <r_epik_Ionization_Penalty_Charging>
0.628113

> <r_epik_Ionization_Penalty_Neutral>
0.000202271

> <r_epik_State_Penalty>
0.644725

> <r_epik_Charging_Adjusted_Penalty>
1.27284

> <i_epik_Tot_Q>
1

> <i_epik_Tot_abs_Q>
1

> <r_epik_Metal_State_Penalty>
0.644752

> <b_epik_Metal_Only>
0

> <s_lp_Force_Field>
OPLS_2005

> <r_lp_Energy>
28.8991

> <b_lp_Chiralities_Consistent>
1

> <s_lp_Variant>
AV-unprocessed.smi:2245-6

> <Gold.Version>
5.8.1

> <Gold.Id.Protein>
6NUR|6NUR_protein|mol2

> <Gold.PLP.Fitness>
47.2848

> <Gold.PLP.PLP>
-40.4730

> <Gold.PLP.part.hbond>
-2.0000

> <Gold.PLP.part.metal>
0.0000

> <Gold.PLP.part.buried>
-2.8161

> <Gold.PLP.part.nonpolar>
-35.0249

> <Gold.PLP.part.repulsive>
0.2376

> <Gold.PLP.ligand.clash>
0.0000

> <Gold.PLP.ligand.torsion>
1.3054

> <Gold.PLP.Chemscore.Hbond>
3.0000

> <Gold.PLP.Chemscore.CHOScore>
0.0000

> <Gold.PLP.Chemscore.Metal>
0.0000

> <Gold.Chemscore.Hbonds>
donor molecule, donor type, donor heavy atom, donor atom, acceptor molecule, acceptor atom, score
      L1  H    16    45       P1  7948  1.70
      P1  H  7997  8010       L1    10  1.00

> <Gold.PLP.Chemscore.Internal.Correction>
0.4226

> <Gold.Rescore>
     Score         DG    S(hbond)    S(metal)    S(lipo)     H(rot)  DE(clash)    DE(int)     intcor
     16.24     -19.13       1.97        0.00      95.68       1.61       0.11       2.78       ----

> <Gold.Chemscore.Fitness>
16.2391

> <Gold.Chemscore.DG>
-19.1267

> <Gold.Chemscore.ZeroCoef>
-5.4800

> <Gold.Chemscore.Hbond>
1.9714

> <Gold.Chemscore.Metal>
0.0000

> <Gold.Chemscore.Lipo>
95.6828

> <Gold.Chemscore.Internal_Hbond>
0.0000

> <Gold.Chemscore.DEClash>
0.1078

> <Gold.Chemscore.DEInternal>
2.7798

> <Gold.Chemscore.Rot>
1.6143

> <Gold.Chemscore.Internal.Correction>
   9.000000E+99

> <Gold.Chemscore.Hbonds>
donor molecule, donor type, donor heavy atom, donor atom, acceptor molecule, acceptor atom, score
      L1  H    16    45       P1  7948  0.83
      P1  H  7997  8010       L1    10  0.92

> <Gold.Chemscore.Hbond.Weighted>
-6.5843

> <Gold.Chemscore.Metal.Weighted>
-0.0000

> <Gold.Chemscore.Lipo.Weighted>
-11.1949

> <Gold.Chemscore.Internal_Hbond.Weighted>
0.0000

> <Gold.Chemscore.DEClash.Weighted>
0.1078

> <Gold.Chemscore.DEInternal.Weighted>
2.7798

> <Gold.Chemscore.Rot.Weighted>
4.1325

> <Gold.Chemscore.Internal.Correction.Weighted>
   9.000000E+99

> <Gold.Protein.RotatedTorsions>
[ 6907 6896 6895 6894 ] final  151.97 input  -60.11 | X-H torsion
[ 7974 7965 7964 7962 ] final   10.11 input  175.53 | X-H torsion
[ 8008 7997 7996 7995 ] final   27.69 input   59.86 | X-H torsion
[ 10167 10162 10161 10158 ] final  -72.65 input  -65.29 | X-H torsion
[ 10718 10713 10712 10709 ] final  173.10 input   66.30 | X-H torsion
[ 10763 10752 10751 10750 ] final  -25.97 input  -60.55 | X-H torsion
[ 11005 11000 10999 10996 ] final -146.21 input  -57.11 | X-H torsion

> <Gold.Protein.ActiveResidues>
 VAL166  LYS551  ARG553  GLY616  TRP617  ASP618  TYR619  PRO620  LYS621  CYS622 
 ASP623  PHE694  ASN695  SER759  ASP760  ASP761  ALA762  ILE779  LEU786  VAL792 
 PHE793  MET794  SER795  GLU796  ALA797  LYS798  CYS799  TRP800  GLU811  SER814 

> <Gold.Protein.RotatedAtoms>
  152.0933  133.4212  159.4553 H   0  0  0  0  0  0  0  0  0  0  0  0  # atno 6907 bound_to 6896
  150.6863  134.2846  159.4650 H   0  0  0  0  0  0  0  0  0  0  0  0  # atno 6908 bound_to 6896
  152.0699  134.9539  160.0625 H   0  0  0  0  0  0  0  0  0  0  0  0  # atno 6909 bound_to 6896
  146.2393  139.9683  142.8450 H   0  0  0  0  0  0  0  0  0  0  0  0  # atno 7974 bound_to 7965
  155.0469  140.3175  155.4705 H   0  0  0  0  0  0  0  0  0  0  0  0  # atno 8008 bound_to 7997
  156.2843  140.2153  156.5538 H   0  0  0  0  0  0  0  0  0  0  0  0  # atno 8009 bound_to 7997
  154.7243  140.0487  157.0655 H   0  0  0  0  0  0  0  0  0  0  0  0  # atno 8010 bound_to 7997
  140.5175  143.2336  151.7488 H   0  0  0  0  0  0  0  0  0  0  0  0  # atno 10167 bound_to 10162
  156.9692  131.0085  151.2909 H   0  0  0  0  0  0  0  0  0  0  0  0  # atno 10718 bound_to 10713
  153.7084  135.6952  153.5044 H   0  0  0  0  0  0  0  0  0  0  0  0  # atno 10763 bound_to 10752
  153.2290  135.4344  155.0573 H   0  0  0  0  0  0  0  0  0  0  0  0  # atno 10764 bound_to 10752
  154.8322  135.3479  154.6622 H   0  0  0  0  0  0  0  0  0  0  0  0  # atno 10765 bound_to 10752
  140.7843  134.3043  157.5035 H   0  0  0  0  0  0  0  0  0  0  0  0  # atno 11005 bound_to 11000
  145.1705  140.9718  143.4324 LP  0  0  0  0  0  0  0  0  0  0  0  0  # atno 17320 bound_to 7965
  145.0033  139.3578  143.6157 LP  0  0  0  0  0  0  0  0  0  0  0  0  # atno 17321 bound_to 7965
  139.4913  144.4303  151.9879 LP  0  0  0  0  0  0  0  0  0  0  0  0  # atno 17342 bound_to 10162
  140.3398  144.3217  150.5969 LP  0  0  0  0  0  0  0  0  0  0  0  0  # atno 17343 bound_to 10162
  157.5604  130.8242  149.8259 LP  0  0  0  0  0  0  0  0  0  0  0  0  # atno 17370 bound_to 10713
  156.0290  130.3770  150.1742 LP  0  0  0  0  0  0  0  0  0  0  0  0  # atno 17371 bound_to 10713
  139.8738  134.9337  156.3587 LP  0  0  0  0  0  0  0  0  0  0  0  0  # atno 17394 bound_to 11000
  140.9452  133.7488  156.0199 LP  0  0  0  0  0  0  0  0  0  0  0  0  # atno 17395 bound_to 11000

$$$$
