AV-unprocessed.smi:1665|AV-procd|sdf|6670|dock8
  -GOLD-   22720 7383D 1   1.00000     0.00000
 Structure written by MMmdl.
 37 38  0  0  0  0  0  0  0  0  1 V2000
  151.5849  138.9477  156.8908 C   0  0  0  0  0  0  0  0  0  0  0  0
  150.9729  139.7072  158.0793 C   0  0  1  0  0  0  0  0  0  0  0  0
  150.5536  141.1520  157.7322 C   0  0  0  0  0  0  0  0  0  0  0  0
  151.5146  142.1438  158.1803 N   0  0  0  0  0  0  0  0  0  0  0  0
  151.5389  143.4969  157.9141 C   0  0  0  0  0  0  0  0  0  0  0  0
  152.6262  144.0174  158.5558 C   0  0  0  0  0  0  0  0  0  0  0  0
  153.2099  142.8909  159.2001 C   0  0  0  0  0  0  0  0  0  0  0  0
  152.5403  141.7718  158.9763 N   0  0  0  0  0  0  0  0  0  0  0  0
  149.8247  138.9587  158.5802 N   0  0  0  0  0  0  0  0  0  0  0  0
  149.8455  137.6759  158.9736 C   0  0  0  0  0  0  0  0  0  0  0  0
  150.8683  136.9933  159.0215 O   0  0  0  0  0  0  0  0  0  0  0  0
  148.4979  137.0601  159.3551 C   0  0  0  0  0  0  0  0  0  0  0  0
  148.5015  136.4032  160.7525 C   0  0  0  0  0  0  0  0  0  0  0  0
  147.1527  136.0905  161.2319 N   0  0  0  0  0  0  0  0  0  0  0  0
  146.8562  134.7397  161.6864 C   0  0  0  0  0  0  0  0  0  0  0  0
  145.5410  134.7949  162.4658 C   0  0  0  0  0  0  0  0  0  0  0  0
  144.6184  136.2278  161.8723 S   0  0  0  0  0  0  0  0  0  0  0  0
  146.0896  136.9831  161.1716 C   0  0  0  0  0  0  0  0  0  0  0  0
  146.0900  138.1300  160.7284 O   0  0  0  0  0  0  0  0  0  0  0  0
  152.4999  139.4254  156.5394 H   0  0  0  0  0  0  0  0  0  0  0  0
  150.8906  138.8976  156.0516 H   0  0  0  0  0  0  0  0  0  0  0  0
  151.8422  137.9256  157.1721 H   0  0  0  0  0  0  0  0  0  0  0  0
  151.7333  139.7434  158.8619 H   0  0  0  0  0  0  0  0  0  0  0  0
  150.4284  141.2586  156.6536 H   0  0  0  0  0  0  0  0  0  0  0  0
  149.5877  141.3874  158.1819 H   0  0  0  0  0  0  0  0  0  0  0  0
  150.7903  143.9706  157.2961 H   0  0  0  0  0  0  0  0  0  0  0  0
  152.9539  145.0464  158.5649 H   0  0  0  0  0  0  0  0  0  0  0  0
  154.0929  142.8532  159.8210 H   0  0  0  0  0  0  0  0  0  0  0  0
  148.9362  139.4381  158.5800 H   0  0  0  0  0  0  0  0  0  0  0  0
  147.7513  137.8547  159.3345 H   0  0  0  0  0  0  0  0  0  0  0  0
  148.1890  136.3362  158.5992 H   0  0  0  0  0  0  0  0  0  0  0  0
  149.1190  135.5031  160.7458 H   0  0  0  0  0  0  0  0  0  0  0  0
  148.9774  137.0783  161.4649 H   0  0  0  0  0  0  0  0  0  0  0  0
  146.7518  134.0970  160.8112 H   0  0  0  0  0  0  0  0  0  0  0  0
  147.6640  134.3378  162.2993 H   0  0  0  0  0  0  0  0  0  0  0  0
  144.9598  133.8783  162.3615 H   0  0  0  0  0  0  0  0  0  0  0  0
  145.7437  134.9426  163.5271 H   0  0  0  0  0  0  0  0  0  0  0  0
  1  2  1  0  0  0  0
  1 20  1  0  0  0  0
  1 21  1  0  0  0  0
  1 22  1  0  0  0  0
  2  3  1  0  0  0  0
  2  9  1  0  0  0  0
  2 23  1  0  0  0  0
  3  4  1  0  0  0  0
  3 24  1  0  0  0  0
  3 25  1  0  0  0  0
  4  8  1  0  0  0  0
  4  5  1  0  0  0  0
  5  6  2  0  0  0  0
  5 26  1  0  0  0  0
  6  7  1  0  0  0  0
  6 27  1  0  0  0  0
  7  8  2  0  0  0  0
  7 28  1  0  0  0  0
  9 10  1  0  0  0  0
  9 29  1  0  0  0  0
 10 11  2  0  0  0  0
 10 12  1  0  0  0  0
 12 13  1  0  0  0  0
 12 30  1  0  0  0  0
 12 31  1  0  0  0  0
 13 14  1  0  0  0  0
 13 32  1  0  0  0  0
 13 33  1  0  0  0  0
 14 18  1  0  0  0  0
 14 15  1  0  0  0  0
 15 16  1  0  0  0  0
 15 34  1  0  0  0  0
 15 35  1  0  0  0  0
 16 17  1  0  0  0  0
 16 36  1  0  0  0  0
 16 37  1  0  0  0  0
 17 18  1  0  0  0  0
 18 19  2  0  0  0  0
M  END
> <s_m_source_file>
AV-unprocessed.smi

> <i_m_source_file_index>
1665

> <i_lp_mmshare_version>
43012

> <i_f3d_flags>
0

> <s_epik_input>
bjFbY0hdW2NIXVtjSF1uMVtDSDJdW0NAQEhdKFtDSDNdKVtOSF1DKD1PKVtDSDJdW0NIMl1OMltDSDJdW0NIMl1TQzI9Tw==

> <s_epik_cmdline>
J2VwaWtfcHl0aG9uJywgJy1waCcsICc3LjAnLCAnLXRuJywgJzgnLCAnLW1hJywgJzIwMCcsICctbWV0YWxfYmluZGluZycsICctaW1hZScsICc8aW5maWxlLm1hZT4nLCAnLW9tYWUnLCAnPG91dGZpbGUubWFlPic=

> <r_lp_tautomer_probability>
1

> <r_epik_Ionization_Penalty>
0.000300775

> <r_epik_Ionization_Penalty_Charging>
0

> <r_epik_Ionization_Penalty_Neutral>
0.000300775

> <r_epik_State_Penalty>
-0

> <r_epik_Charging_Adjusted_Penalty>
0

> <i_epik_Tot_Q>
0

> <i_epik_Tot_abs_Q>
0

> <r_epik_Metal_State_Penalty>
-0

> <b_epik_Metal_Only>
0

> <s_lp_Force_Field>
OPLS_2005

> <r_lp_Energy>
3.63181

> <b_lp_Chiralities_Consistent>
1

> <s_lp_Variant>
AV-unprocessed.smi:1665-2

> <Gold.Version>
5.8.1

> <Gold.Id.Protein>
6NUR|6NUR_protein|mol2

> <Gold.PLP.Fitness>
42.4993

> <Gold.PLP.PLP>
-35.1621

> <Gold.PLP.part.hbond>
-2.0000

> <Gold.PLP.part.metal>
0.0000

> <Gold.PLP.part.buried>
-4.6598

> <Gold.PLP.part.nonpolar>
-29.2602

> <Gold.PLP.part.repulsive>
0.1927

> <Gold.PLP.ligand.clash>
0.0000

> <Gold.PLP.ligand.torsion>
0.8614

> <Gold.PLP.Chemscore.Hbond>
2.0000

> <Gold.PLP.Chemscore.CHOScore>
1.0000

> <Gold.PLP.Chemscore.Metal>
0.0000

> <Gold.Chemscore.Hbonds>
donor molecule, donor type, donor heavy atom, donor atom, acceptor molecule, acceptor atom, score
      P1  H  6896  6909       L1    11  0.84
      P1  H  6934  6947       L1    19  0.67
      L1  C     5    26       P1  8028  0.83

> <Gold.PLP.Chemscore.Internal.Correction>
0.0601

> <Gold.Rescore>
     Score         DG    S(hbond)    S(metal)    S(lipo)     H(rot)  DE(clash)    DE(int)     intcor
     13.82     -15.83       1.93        0.00      81.61       2.20       0.04       1.97       ----

> <Gold.Chemscore.Fitness>
13.8165

> <Gold.Chemscore.DG>
-15.8306

> <Gold.Chemscore.ZeroCoef>
-5.4800

> <Gold.Chemscore.Hbond>
1.9283

> <Gold.Chemscore.Metal>
0.0000

> <Gold.Chemscore.Lipo>
81.6135

> <Gold.Chemscore.Internal_Hbond>
0.0000

> <Gold.Chemscore.DEClash>
0.0444

> <Gold.Chemscore.DEInternal>
1.9696

> <Gold.Chemscore.Rot>
2.2026

> <Gold.Chemscore.Internal.Correction>
   9.000000E+99

> <Gold.Chemscore.Hbonds>
donor molecule, donor type, donor heavy atom, donor atom, acceptor molecule, acceptor atom, score
      P1  H  6896  6909       L1    11  0.82
      P1  H  6934  6947       L1    19  0.63

> <Gold.Chemscore.Hbond.Weighted>
-6.4405

> <Gold.Chemscore.Metal.Weighted>
-0.0000

> <Gold.Chemscore.Lipo.Weighted>
-9.5488

> <Gold.Chemscore.Internal_Hbond.Weighted>
0.0000

> <Gold.Chemscore.DEClash.Weighted>
0.0444

> <Gold.Chemscore.DEInternal.Weighted>
1.9696

> <Gold.Chemscore.Rot.Weighted>
5.6387

> <Gold.Chemscore.Internal.Correction.Weighted>
   9.000000E+99

> <Gold.Protein.RotatedTorsions>
[ 6907 6896 6895 6894 ] final   94.62 input  -60.11 | X-H torsion
[ 7974 7965 7964 7962 ] final -147.60 input  175.53 | X-H torsion
[ 8008 7997 7996 7995 ] final  -94.43 input   59.86 | X-H torsion
[ 10167 10162 10161 10158 ] final  -35.46 input  -65.29 | X-H torsion
[ 10718 10713 10712 10709 ] final  -26.84 input   66.30 | X-H torsion
[ 10763 10752 10751 10750 ] final   -2.50 input  -60.55 | X-H torsion
[ 11005 11000 10999 10996 ] final   -5.25 input  -57.11 | X-H torsion

> <Gold.Protein.ActiveResidues>
 VAL166  LYS551  ARG553  GLY616  TRP617  ASP618  TYR619  PRO620  LYS621  CYS622 
 ASP623  PHE694  ASN695  SER759  ASP760  ASP761  ALA762  ILE779  LEU786  VAL792 
 PHE793  MET794  SER795  GLU796  ALA797  LYS798  CYS799  TRP800  GLU811  SER814 

> <Gold.Protein.RotatedAtoms>
  152.5448  134.1166  159.8380 H   0  0  0  0  0  0  0  0  0  0  0  0  # atno 6907 bound_to 6896
  151.1226  133.5086  159.2609 H   0  0  0  0  0  0  0  0  0  0  0  0  # atno 6908 bound_to 6896
  151.1762  135.0350  159.8827 H   0  0  0  0  0  0  0  0  0  0  0  0  # atno 6909 bound_to 6896
  144.8083  140.5306  143.5660 H   0  0  0  0  0  0  0  0  0  0  0  0  # atno 7974 bound_to 7965
  154.7483  140.0489  157.0871 H   0  0  0  0  0  0  0  0  0  0  0  0  # atno 8008 bound_to 7997
  155.0089  140.3133  155.4818 H   0  0  0  0  0  0  0  0  0  0  0  0  # atno 8009 bound_to 7997
  156.2880  140.2188  156.5203 H   0  0  0  0  0  0  0  0  0  0  0  0  # atno 8010 bound_to 7997
  140.7164  143.3476  151.2224 H   0  0  0  0  0  0  0  0  0  0  0  0  # atno 10167 bound_to 10162
  156.4460  130.4474  149.7021 H   0  0  0  0  0  0  0  0  0  0  0  0  # atno 10718 bound_to 10713
  153.3589  135.6989  153.6728 H   0  0  0  0  0  0  0  0  0  0  0  0  # atno 10763 bound_to 10752
  153.5425  135.3570  155.2725 H   0  0  0  0  0  0  0  0  0  0  0  0  # atno 10764 bound_to 10752
  154.8665  135.4207  154.2841 H   0  0  0  0  0  0  0  0  0  0  0  0  # atno 10765 bound_to 10752
  140.6891  133.9087  155.8606 H   0  0  0  0  0  0  0  0  0  0  0  0  # atno 11005 bound_to 11000
  145.5385  139.1475  143.3460 LP  0  0  0  0  0  0  0  0  0  0  0  0  # atno 17320 bound_to 7965
  146.2378  140.5525  142.8947 LP  0  0  0  0  0  0  0  0  0  0  0  0  # atno 17321 bound_to 7965
  139.6999  143.9551  152.2900 LP  0  0  0  0  0  0  0  0  0  0  0  0  # atno 17342 bound_to 10162
  139.9240  144.6782  150.8431 LP  0  0  0  0  0  0  0  0  0  0  0  0  # atno 17343 bound_to 10162
  156.3867  130.7606  151.2604 LP  0  0  0  0  0  0  0  0  0  0  0  0  # atno 17370 bound_to 10713
  157.7504  131.0280  150.4029 LP  0  0  0  0  0  0  0  0  0  0  0  0  # atno 17371 bound_to 10713
  141.0256  134.0828  157.4072 LP  0  0  0  0  0  0  0  0  0  0  0  0  # atno 17394 bound_to 11000
  139.8929  135.0127  156.6869 LP  0  0  0  0  0  0  0  0  0  0  0  0  # atno 17395 bound_to 11000

$$$$
