AV-unprocessed.smi:38|AV-procd|sdf|342|dock1
  -GOLD-   2262016183D 1   1.00000     0.00000
 Structure written by MMmdl.
 28 29  0  0  0  0  0  0  0  0  1 V2000
  152.2621  134.8665  157.4143 O   0  0  0  0  0  0  0  0  0  0  0  0
  152.1493  136.0391  157.0625 C   0  0  0  0  0  0  0  0  0  0  0  0
  152.8171  137.0497  157.7606 N   0  0  0  0  0  0  0  0  0  0  0  0
  152.7674  138.4130  157.4623 C   0  0  0  0  0  0  0  0  0  0  0  0
  153.3899  139.2133  158.1588 O   0  0  0  0  0  0  0  0  0  0  0  0
  151.9774  138.8014  156.3565 N   0  0  0  0  0  0  0  0  0  0  0  0
  151.8841  140.2587  155.9658 C   0  0  2  0  0  0  0  0  0  0  0  0
  151.4769  141.1230  157.1636 C   0  0  0  0  0  0  0  0  0  0  0  0
  150.0391  141.4810  156.8357 C   0  0  1  0  0  0  0  0  0  0  0  0
  149.7021  142.7450  157.3698 O   0  0  0  0  0  0  0  0  0  0  0  0
  150.0370  141.4739  155.3045 C   0  0  2  0  0  0  0  0  0  0  0  0
  148.6488  141.2301  154.6933 C   0  0  0  0  0  0  0  0  0  0  0  0
  148.7456  141.1527  153.2874 O   0  0  0  0  0  0  0  0  0  0  0  0
  150.9009  140.3878  154.9842 O   0  0  0  0  0  0  0  0  0  0  0  0
  151.2953  137.8311  155.6349 C   0  0  0  0  0  0  0  0  0  0  0  0
  151.3499  136.5124  155.9363 C   0  0  0  0  0  0  0  0  0  0  0  0
  150.6612  135.6323  155.1898 F   0  0  0  0  0  0  0  0  0  0  0  0
  153.3821  136.7699  158.5491 H   0  0  0  0  0  0  0  0  0  0  0  0
  152.8414  140.5557  155.5360 H   0  0  0  0  0  0  0  0  0  0  0  0
  149.3636  140.7195  157.2272 H   0  0  0  0  0  0  0  0  0  0  0  0
  150.4799  142.4004  154.9332 H   0  0  0  0  0  0  0  0  0  0  0  0
  151.5934  140.5992  158.1134 H   0  0  0  0  0  0  0  0  0  0  0  0
  152.1125  142.0099  157.1728 H   0  0  0  0  0  0  0  0  0  0  0  0
  149.4642  143.3201  156.6586 H   0  0  0  0  0  0  0  0  0  0  0  0
  148.1917  140.3250  155.0945 H   0  0  0  0  0  0  0  0  0  0  0  0
  147.9828  142.0609  154.9287 H   0  0  0  0  0  0  0  0  0  0  0  0
  149.1140  140.3136  153.0564 H   0  0  0  0  0  0  0  0  0  0  0  0
  150.6914  138.1291  154.7908 H   0  0  0  0  0  0  0  0  0  0  0  0
  1  2  2  0  0  0  0
  2 16  1  0  0  0  0
  2  3  1  0  0  0  0
  3 18  1  0  0  0  0
  3  4  1  0  0  0  0
  4  5  2  0  0  0  0
  4  6  1  0  0  0  0
  6  7  1  0  0  0  0
  6 15  1  0  0  0  0
  7 19  1  0  0  0  0
  7 14  1  0  0  0  0
  7  8  1  0  0  0  0
  8  9  1  0  0  0  0
  8 22  1  0  0  0  0
  8 23  1  0  0  0  0
  9 20  1  0  0  0  0
  9 10  1  0  0  0  0
  9 11  1  0  0  0  0
 10 24  1  0  0  0  0
 11 21  1  0  0  0  0
 11 12  1  0  0  0  0
 11 14  1  0  0  0  0
 12 13  1  0  0  0  0
 12 25  1  0  0  0  0
 12 26  1  0  0  0  0
 13 27  1  0  0  0  0
 15 16  2  0  0  0  0
 15 28  1  0  0  0  0
 16 17  1  0  0  0  0
M  END
> <s_m_source_file>
AV-unprocessed.smi

> <i_m_source_file_index>
38

> <i_lp_mmshare_version>
43012

> <i_f3d_flags>
0

> <s_epik_input>
Tz1jMVtuSF1jKD1PKW4oW2NIXWMxRilbQ0BIXTJbQ0gyXVtDQEhdKFtPSF0pW0NASF0oTzIpW0NIMl1bT0hd

> <s_epik_cmdline>
J2VwaWtfcHl0aG9uJywgJy1waCcsICc3LjAnLCAnLXRuJywgJzgnLCAnLW1hJywgJzIwMCcsICctbWV0YWxfYmluZGluZycsICctaW1hZScsICc8aW5maWxlLm1hZT4nLCAnLW9tYWUnLCAnPG91dGZpbGUubWFlPic=

> <r_lp_tautomer_probability>
0.999537

> <r_epik_Ionization_Penalty>
0.0357432

> <r_epik_Ionization_Penalty_Charging>
0.0357431

> <r_epik_Ionization_Penalty_Neutral>
1.19946e-07

> <r_epik_State_Penalty>
0.0298169

> <r_epik_Charging_Adjusted_Penalty>
0.06556

> <i_epik_Tot_Q>
0

> <i_epik_Tot_abs_Q>
0

> <r_epik_Metal_State_Penalty>
2.348

> <b_epik_Metal_Only>
0

> <s_epik_Chemistry_Notes>
This compound contains an acetal/aminal-like group ( X-CH(R)-Y where X, Y are N, S, or O) that may be acid/base labile, releasing an aldehyde.

> <s_lp_Force_Field>
OPLS_2005

> <r_lp_Energy>
27.0037

> <b_lp_Chiralities_Consistent>
1

> <s_lp_Variant>
AV-unprocessed.smi:38-8

> <Gold.Version>
5.8.1

> <Gold.Id.Protein>
6NUR|6NUR_protein|mol2

> <Gold.PLP.Fitness>
38.6878

> <Gold.PLP.PLP>
-26.0104

> <Gold.PLP.part.hbond>
-6.0000

> <Gold.PLP.part.metal>
0.0000

> <Gold.PLP.part.buried>
-2.7445

> <Gold.PLP.part.nonpolar>
-15.8623

> <Gold.PLP.part.repulsive>
0.2051

> <Gold.PLP.ligand.clash>
0.0000

> <Gold.PLP.ligand.torsion>
0.1295

> <Gold.PLP.Chemscore.Hbond>
4.3091

> <Gold.PLP.Chemscore.CHOScore>
0.0000

> <Gold.PLP.Chemscore.Metal>
0.0000

> <Gold.Chemscore.Hbonds>
donor molecule, donor type, donor heavy atom, donor atom, acceptor molecule, acceptor atom, score
      L1  H    10    24       P1  8028  1.00
      L1  H    13    27       P1  7957  0.34
      P1  H  7989  7998       L1    14  1.00
      P1  H  7997  8009       L1     5  1.00
      P1  H  8011  8017       L1    13  1.00

> <Gold.PLP.Chemscore.Internal.Correction>
0.0092

> <Gold.Rescore>
     Score         DG    S(hbond)    S(metal)    S(lipo)     H(rot)  DE(clash)    DE(int)     intcor
     11.63     -13.12       3.22        0.00      37.14       2.91       0.19       1.30       ----

> <Gold.Chemscore.Fitness>
11.6325

> <Gold.Chemscore.DG>
-13.1182

> <Gold.Chemscore.ZeroCoef>
-5.4800

> <Gold.Chemscore.Hbond>
3.2195

> <Gold.Chemscore.Metal>
0.0000

> <Gold.Chemscore.Lipo>
37.1390

> <Gold.Chemscore.Internal_Hbond>
0.0000

> <Gold.Chemscore.DEClash>
0.1854

> <Gold.Chemscore.DEInternal>
1.3004

> <Gold.Chemscore.Rot>
2.9141

> <Gold.Chemscore.Internal.Correction>
   9.000000E+99

> <Gold.Chemscore.Hbonds>
donor molecule, donor type, donor heavy atom, donor atom, acceptor molecule, acceptor atom, score
      L1  H    10    24       P1  8028  1.00
      L1  H    13    27       P1  7957  0.33
      P1  H  7989  7998       L1    14  0.27
      P1  H  7997  8009       L1     5  0.60
      P1  H  8011  8017       L1    13  0.46

> <Gold.Chemscore.Hbond.Weighted>
-10.7530

> <Gold.Chemscore.Metal.Weighted>
-0.0000

> <Gold.Chemscore.Lipo.Weighted>
-4.3453

> <Gold.Chemscore.Internal_Hbond.Weighted>
0.0000

> <Gold.Chemscore.DEClash.Weighted>
0.1854

> <Gold.Chemscore.DEInternal.Weighted>
1.3004

> <Gold.Chemscore.Rot.Weighted>
7.4601

> <Gold.Chemscore.Internal.Correction.Weighted>
   9.000000E+99

> <Gold.Protein.RotatedTorsions>
[ 6907 6896 6895 6894 ] final  -78.80 input  -60.11 | X-H torsion
[ 7974 7965 7964 7962 ] final  128.63 input  175.53 | X-H torsion
[ 8008 7997 7996 7995 ] final  150.73 input   59.86 | X-H torsion
[ 10167 10162 10161 10158 ] final -117.04 input  -65.29 | X-H torsion
[ 10718 10713 10712 10709 ] final -114.03 input   66.30 | X-H torsion
[ 10763 10752 10751 10750 ] final -161.76 input  -60.55 | X-H torsion
[ 11005 11000 10999 10996 ] final -167.04 input  -57.11 | X-H torsion

> <Gold.Protein.ActiveResidues>
 VAL166  LYS551  ARG553  GLY616  TRP617  ASP618  TYR619  PRO620  LYS621  CYS622 
 ASP623  PHE694  ASN695  SER759  ASP760  ASP761  ALA762  ILE779  LEU786  VAL792 
 PHE793  MET794  SER795  GLU796  ALA797  LYS798  CYS799  TRP800  GLU811  SER814 

> <Gold.Protein.RotatedAtoms>
  150.6964  134.4217  159.5207 H   0  0  0  0  0  0  0  0  0  0  0  0  # atno 6907 bound_to 6896
  152.1959  134.8628  160.0522 H   0  0  0  0  0  0  0  0  0  0  0  0  # atno 6908 bound_to 6896
  151.9567  133.3647  159.4057 H   0  0  0  0  0  0  0  0  0  0  0  0  # atno 6909 bound_to 6896
  145.0374  139.3993  143.5119 H   0  0  0  0  0  0  0  0  0  0  0  0  # atno 7974 bound_to 7965
  156.2704  140.2067  156.6063 H   0  0  0  0  0  0  0  0  0  0  0  0  # atno 8008 bound_to 7997
  154.6866  140.0534  157.0345 H   0  0  0  0  0  0  0  0  0  0  0  0  # atno 8009 bound_to 7997
  155.0925  140.3198  155.4572 H   0  0  0  0  0  0  0  0  0  0  0  0  # atno 8010 bound_to 7997
  140.0726  143.4862  152.1971 H   0  0  0  0  0  0  0  0  0  0  0  0  # atno 10167 bound_to 10162
  156.0804  130.6005  150.8720 H   0  0  0  0  0  0  0  0  0  0  0  0  # atno 10718 bound_to 10713
  154.7275  135.3039  154.8946 H   0  0  0  0  0  0  0  0  0  0  0  0  # atno 10763 bound_to 10752
  153.9799  135.6731  153.4754 H   0  0  0  0  0  0  0  0  0  0  0  0  # atno 10764 bound_to 10752
  153.0888  135.4970  154.8570 H   0  0  0  0  0  0  0  0  0  0  0  0  # atno 10765 bound_to 10752
  140.5578  134.5364  157.5136 H   0  0  0  0  0  0  0  0  0  0  0  0  # atno 11005 bound_to 11000
  146.3505  139.9957  142.8681 LP  0  0  0  0  0  0  0  0  0  0  0  0  # atno 17320 bound_to 7965
  145.1692  140.9712  143.4332 LP  0  0  0  0  0  0  0  0  0  0  0  0  # atno 17321 bound_to 7965
  139.5827  144.7517  151.3600 LP  0  0  0  0  0  0  0  0  0  0  0  0  # atno 17342 bound_to 10162
  140.7118  143.7371  150.7580 LP  0  0  0  0  0  0  0  0  0  0  0  0  # atno 17343 bound_to 10162
  157.5918  131.0944  150.9106 LP  0  0  0  0  0  0  0  0  0  0  0  0  # atno 17370 bound_to 10713
  156.9281  130.5339  149.5279 LP  0  0  0  0  0  0  0  0  0  0  0  0  # atno 17371 bound_to 10713
  139.9423  134.7765  156.0648 LP  0  0  0  0  0  0  0  0  0  0  0  0  # atno 17394 bound_to 11000
  141.1133  133.6636  156.3032 LP  0  0  0  0  0  0  0  0  0  0  0  0  # atno 17395 bound_to 11000

$$$$
