AV-unprocessed.smi:102|AV-procd|sdf|949|dock10
  -GOLD-   2262017473D 1   1.00000     0.00000
 Structure written by MMmdl.
 44 45  0  0  0  0  0  0  0  0  1 V2000
  151.1443  142.6686  156.8424 C   0  0  0  0  0  0  0  0  0  0  0  0
  150.4243  141.4133  156.3665 C   0  0  0  0  0  0  0  0  0  0  0  0
  150.8868  140.7094  155.4684 O   0  0  0  0  0  0  0  0  0  0  0  0
  149.2786  141.1939  157.0291 O   0  0  0  0  0  0  0  0  0  0  0  0
  148.8200  139.8650  157.2143 C   0  0  0  0  0  0  0  0  0  0  0  0
  149.7385  139.1480  158.2083 C   0  0  2  0  0  0  0  0  0  0  0  0
  151.0547  139.0556  157.6819 O   0  0  0  0  0  0  0  0  0  0  0  0
  151.7291  138.0388  158.3493 C   0  0  1  0  0  0  0  0  0  0  0  0
  152.4541  138.6533  159.5381 N   0  0  0  0  0  0  0  0  0  0  0  0
  152.5766  140.0287  159.7183 C   0  0  0  0  0  0  0  0  0  0  0  0
  153.2870  140.5849  160.7277 C   0  0  0  0  0  0  0  0  0  0  0  0
  153.3573  141.9230  160.8302 F   0  0  0  0  0  0  0  0  0  0  0  0
  153.9992  139.7481  161.6871 C   0  0  0  0  0  0  0  0  0  0  0  0
  154.6565  140.1579  162.6415 O   0  0  0  0  0  0  0  0  0  0  0  0
  153.9003  138.3777  161.4371 N   0  0  0  0  0  0  0  0  0  0  0  0
  153.1822  137.7924  160.3931 C   0  0  0  0  0  0  0  0  0  0  0  0
  153.2031  136.5703  160.2527 O   0  0  0  0  0  0  0  0  0  0  0  0
  150.6777  136.9813  158.7399 C   0  0  2  0  0  0  0  0  0  0  0  0
  150.7956  135.8217  157.9252 O   0  0  0  0  0  0  0  0  0  0  0  0
  150.7837  135.9328  156.5855 C   0  0  0  0  0  0  0  0  0  0  0  0
  150.8202  134.5794  155.8884 C   0  0  0  0  0  0  0  0  0  0  0  0
  150.7419  136.9843  155.9468 O   0  0  0  0  0  0  0  0  0  0  0  0
  149.3519  137.6826  158.4411 C   0  0  1  0  0  0  0  0  0  0  0  0
  148.4624  137.5729  159.5447 O   0  0  0  0  0  0  0  0  0  0  0  0
  148.1654  136.3649  160.0562 C   0  0  0  0  0  0  0  0  0  0  0  0
  147.1673  136.4468  161.2035 C   0  0  0  0  0  0  0  0  0  0  0  0
  148.6256  135.2863  159.6816 O   0  0  0  0  0  0  0  0  0  0  0  0
  154.4010  137.7583  162.0578 H   0  0  0  0  0  0  0  0  0  0  0  0
  150.4567  143.3367  157.3616 H   0  0  0  0  0  0  0  0  0  0  0  0
  151.5701  143.2053  155.9943 H   0  0  0  0  0  0  0  0  0  0  0  0
  151.9516  142.4037  157.5251 H   0  0  0  0  0  0  0  0  0  0  0  0
  147.8033  139.8959  157.6087 H   0  0  0  0  0  0  0  0  0  0  0  0
  148.7890  139.3289  156.2646 H   0  0  0  0  0  0  0  0  0  0  0  0
  149.7647  139.6876  159.1564 H   0  0  0  0  0  0  0  0  0  0  0  0
  152.5061  137.6143  157.7110 H   0  0  0  0  0  0  0  0  0  0  0  0
  152.1119  140.7144  159.0272 H   0  0  0  0  0  0  0  0  0  0  0  0
  150.7672  136.7041  159.7898 H   0  0  0  0  0  0  0  0  0  0  0  0
  151.4499  133.8808  156.4399 H   0  0  0  0  0  0  0  0  0  0  0  0
  151.2216  134.6813  154.8799 H   0  0  0  0  0  0  0  0  0  0  0  0
  149.8152  134.1627  155.8204 H   0  0  0  0  0  0  0  0  0  0  0  0
  148.9080  137.2812  157.5281 H   0  0  0  0  0  0  0  0  0  0  0  0
  146.4875  137.2875  161.0631 H   0  0  0  0  0  0  0  0  0  0  0  0
  147.6917  136.5792  162.1498 H   0  0  0  0  0  0  0  0  0  0  0  0
  146.5766  135.5322  161.2597 H   0  0  0  0  0  0  0  0  0  0  0  0
  1  2  1  0  0  0  0
  1 29  1  0  0  0  0
  1 30  1  0  0  0  0
  1 31  1  0  0  0  0
  2  3  2  0  0  0  0
  2  4  1  0  0  0  0
  4  5  1  0  0  0  0
  5  6  1  0  0  0  0
  5 32  1  0  0  0  0
  5 33  1  0  0  0  0
  6 23  1  0  0  0  0
  6  7  1  0  0  0  0
  6 34  1  0  0  0  0
  7  8  1  0  0  0  0
  8  9  1  0  0  0  0
  8 18  1  0  0  0  0
  8 35  1  0  0  0  0
  9 16  1  0  0  0  0
  9 10  1  0  0  0  0
 10 11  2  0  0  0  0
 10 36  1  0  0  0  0
 11 12  1  0  0  0  0
 11 13  1  0  0  0  0
 13 14  2  0  0  0  0
 13 15  1  0  0  0  0
 15 28  1  0  0  0  0
 15 16  1  0  0  0  0
 16 17  2  0  0  0  0
 18 19  1  0  0  0  0
 18 23  1  0  0  0  0
 18 37  1  0  0  0  0
 19 20  1  0  0  0  0
 20 21  1  0  0  0  0
 20 22  2  0  0  0  0
 21 38  1  0  0  0  0
 21 39  1  0  0  0  0
 21 40  1  0  0  0  0
 23 24  1  0  0  0  0
 23 41  1  0  0  0  0
 24 25  1  0  0  0  0
 25 26  1  0  0  0  0
 25 27  2  0  0  0  0
 26 42  1  0  0  0  0
 26 43  1  0  0  0  0
 26 44  1  0  0  0  0
M  END
> <s_m_source_file>
AV-unprocessed.smi

> <i_m_source_file_index>
102

> <i_lp_mmshare_version>
43012

> <i_f3d_flags>
0

> <s_epik_input>
W0NIM11DKD1PKU9bQ0gyXVtDQEBIXTFPW0NASF0oW0NAQEhdKE9DKD1PKVtDSDNdKVtDQEhdMU9DKD1PKVtDSDNdKW4yW2NIXWMoRiljKD1PKVtuSF1jMj1P

> <s_epik_cmdline>
J2VwaWtfcHl0aG9uJywgJy1waCcsICc3LjAnLCAnLXRuJywgJzgnLCAnLW1hJywgJzIwMCcsICctbWV0YWxfYmluZGluZycsICctaW1hZScsICc8aW5maWxlLm1hZT4nLCAnLW9tYWUnLCAnPG91dGZpbGUubWFlPic=

> <r_lp_tautomer_probability>
0.999537

> <r_epik_Ionization_Penalty>
0.058267

> <r_epik_Ionization_Penalty_Charging>
0.058267

> <r_epik_Ionization_Penalty_Neutral>
6.57791e-16

> <r_epik_State_Penalty>
0.0503774

> <r_epik_Charging_Adjusted_Penalty>
0.108644

> <i_epik_Tot_Q>
0

> <i_epik_Tot_abs_Q>
0

> <r_epik_Metal_State_Penalty>
2.6644

> <b_epik_Metal_Only>
0

> <s_epik_Chemistry_Notes>
This compound has an ester and may undergo hydrolysis at high or low pH. This compound contains an acetal/aminal-like group ( X-CH(R)-Y where X, Y are N, S, or O) that may be acid/base labile, releasing an aldehyde.

> <s_lp_Force_Field>
OPLS_2005

> <r_lp_Energy>
9.37948

> <b_lp_Chiralities_Consistent>
1

> <s_lp_Variant>
AV-unprocessed.smi:102-5

> <Gold.Version>
5.8.1

> <Gold.Id.Protein>
6NUR|6NUR_protein|mol2

> <Gold.PLP.Fitness>
44.6006

> <Gold.PLP.PLP>
-36.7781

> <Gold.PLP.part.hbond>
-6.0000

> <Gold.PLP.part.metal>
0.0000

> <Gold.PLP.part.buried>
-6.2153

> <Gold.PLP.part.nonpolar>
-26.3414

> <Gold.PLP.part.repulsive>
0.1782

> <Gold.PLP.ligand.clash>
0.0000

> <Gold.PLP.ligand.torsion>
0.5652

> <Gold.PLP.Chemscore.Hbond>
2.9280

> <Gold.PLP.Chemscore.CHOScore>
0.0000

> <Gold.PLP.Chemscore.Metal>
0.0000

> <Gold.Chemscore.Hbonds>
donor molecule, donor type, donor heavy atom, donor atom, acceptor molecule, acceptor atom, score
      P1  H  6896  6907       L1    27  0.68
      P1  H  6896  6908       L1    17  1.00
      P1  H  7989  7998       L1     3  0.69

> <Gold.PLP.Chemscore.Internal.Correction>
0.1690

> <Gold.Rescore>
     Score         DG    S(hbond)    S(metal)    S(lipo)     H(rot)  DE(clash)    DE(int)     intcor
     -1.87     -10.23       2.92        0.00      45.87       4.05       0.80      11.30       ----

> <Gold.Chemscore.Fitness>
-1.8673

> <Gold.Chemscore.DG>
-10.2296

> <Gold.Chemscore.ZeroCoef>
-5.4800

> <Gold.Chemscore.Hbond>
2.9210

> <Gold.Chemscore.Metal>
0.0000

> <Gold.Chemscore.Lipo>
45.8687

> <Gold.Chemscore.Internal_Hbond>
0.0000

> <Gold.Chemscore.DEClash>
0.7954

> <Gold.Chemscore.DEInternal>
11.3016

> <Gold.Chemscore.Rot>
4.0520

> <Gold.Chemscore.Internal.Correction>
   9.000000E+99

> <Gold.Chemscore.Hbonds>
donor molecule, donor type, donor heavy atom, donor atom, acceptor molecule, acceptor atom, score
      P1  H  6896  6907       L1    27  0.65
      P1  H  6896  6908       L1    17  0.96
      P1  H  7989  7998       L1     3  0.67

> <Gold.Chemscore.Hbond.Weighted>
-9.7562

> <Gold.Chemscore.Metal.Weighted>
-0.0000

> <Gold.Chemscore.Lipo.Weighted>
-5.3666

> <Gold.Chemscore.Internal_Hbond.Weighted>
0.0000

> <Gold.Chemscore.DEClash.Weighted>
0.7954

> <Gold.Chemscore.DEInternal.Weighted>
11.3016

> <Gold.Chemscore.Rot.Weighted>
10.3732

> <Gold.Chemscore.Internal.Correction.Weighted>
   9.000000E+99

> <Gold.Protein.RotatedTorsions>
[ 6907 6896 6895 6894 ] final  -68.22 input  -60.11 | X-H torsion
[ 7974 7965 7964 7962 ] final -157.30 input  175.53 | X-H torsion
[ 8008 7997 7996 7995 ] final  174.91 input   59.86 | X-H torsion
[ 10167 10162 10161 10158 ] final  131.32 input  -65.29 | X-H torsion
[ 10718 10713 10712 10709 ] final -163.37 input   66.30 | X-H torsion
[ 10763 10752 10751 10750 ] final   78.42 input  -60.55 | X-H torsion
[ 11005 11000 10999 10996 ] final -156.95 input  -57.11 | X-H torsion

> <Gold.Protein.ActiveResidues>
 VAL166  LYS551  ARG553  GLY616  TRP617  ASP618  TYR619  PRO620  LYS621  CYS622 
 ASP623  PHE694  ASN695  SER759  ASP760  ASP761  ALA762  ILE779  LEU786  VAL792 
 PHE793  MET794  SER795  GLU796  ALA797  LYS798  CYS799  TRP800  GLU811  SER814 

> <Gold.Protein.RotatedAtoms>
  150.7367  134.5770  159.5918 H   0  0  0  0  0  0  0  0  0  0  0  0  # atno 6907 bound_to 6896
  152.3193  134.7397  160.0326 H   0  0  0  0  0  0  0  0  0  0  0  0  # atno 6908 bound_to 6896
  151.7918  133.3324  159.3538 H   0  0  0  0  0  0  0  0  0  0  0  0  # atno 6909 bound_to 6896
  144.7554  140.3989  143.6016 H   0  0  0  0  0  0  0  0  0  0  0  0  # atno 7974 bound_to 7965
  156.0925  140.1422  156.9573 H   0  0  0  0  0  0  0  0  0  0  0  0  # atno 8008 bound_to 7997
  154.4651  140.0929  156.7044 H   0  0  0  0  0  0  0  0  0  0  0  0  # atno 8009 bound_to 7997
  155.4896  140.3447  155.4355 H   0  0  0  0  0  0  0  0  0  0  0  0  # atno 8010 bound_to 7997
  139.5389  144.6711  151.4690 H   0  0  0  0  0  0  0  0  0  0  0  0  # atno 10167 bound_to 10162
  156.6238  130.8901  151.2963 H   0  0  0  0  0  0  0  0  0  0  0  0  # atno 10718 bound_to 10713
  153.0873  135.4877  154.8622 H   0  0  0  0  0  0  0  0  0  0  0  0  # atno 10763 bound_to 10752
  154.7226  135.3043  154.9024 H   0  0  0  0  0  0  0  0  0  0  0  0  # atno 10764 bound_to 10752
  153.9684  135.6804  153.4799 H   0  0  0  0  0  0  0  0  0  0  0  0  # atno 10765 bound_to 10752
  140.6700  134.4257  157.5232 H   0  0  0  0  0  0  0  0  0  0  0  0  # atno 11005 bound_to 11000
  145.6796  139.1615  143.2708 LP  0  0  0  0  0  0  0  0  0  0  0  0  # atno 17320 bound_to 7965
  146.1558  140.6859  142.9300 LP  0  0  0  0  0  0  0  0  0  0  0  0  # atno 17321 bound_to 7965
  140.6610  143.8499  150.6888 LP  0  0  0  0  0  0  0  0  0  0  0  0  # atno 17342 bound_to 10162
  140.1893  143.4050  152.1875 LP  0  0  0  0  0  0  0  0  0  0  0  0  # atno 17343 bound_to 10162
  157.7220  130.9571  150.1477 LP  0  0  0  0  0  0  0  0  0  0  0  0  # atno 17370 bound_to 10713
  156.2290  130.3680  149.8467 LP  0  0  0  0  0  0  0  0  0  0  0  0  # atno 17371 bound_to 10713
  139.8985  134.8613  156.2001 LP  0  0  0  0  0  0  0  0  0  0  0  0  # atno 17394 bound_to 11000
  141.0399  133.6943  156.1580 LP  0  0  0  0  0  0  0  0  0  0  0  0  # atno 17395 bound_to 11000

$$$$
