AV-unprocessed.smi:720|AV-procd|sdf|3499|dock1
  -GOLD-   22720 0493D 1   1.00000     0.00000
 Structure written by MMmdl.
 46 48  0  0  0  0  0  0  0  0  1 V2000
  153.5276  138.6111  154.7247 C   0  0  0  0  0  0  0  0  0  0  0  0
  152.7528  138.2727  155.9132 N   0  0  0  0  0  0  0  0  0  0  0  0
  153.6465  137.6222  156.8627 C   0  0  0  0  0  0  0  0  0  0  0  0
  151.6452  137.3650  155.6077 C   0  0  0  0  0  0  0  0  0  0  0  0
  150.8636  137.7458  154.3319 C   0  0  0  0  0  0  0  0  0  0  0  0
  150.1421  139.0016  154.4453 N   0  0  0  0  0  0  0  0  0  0  0  0
  149.1204  139.4802  153.6492 C   0  0  0  0  0  0  0  0  0  0  0  0
  148.7443  140.6952  154.1469 C   0  0  0  0  0  0  0  0  0  0  0  0
  149.6041  140.8656  155.2729 C   0  0  0  0  0  0  0  0  0  0  0  0
  149.6217  141.9789  156.1505 N   0  0  0  0  0  0  0  0  0  0  0  0
  150.0566  142.0384  157.4237 C   0  0  0  0  0  0  0  0  0  0  0  0
  150.5676  141.1028  158.0358 O   0  0  0  0  0  0  0  0  0  0  0  0
  149.8791  143.2368  158.0079 N   0  0  0  0  0  0  0  0  0  0  0  0
  150.2369  143.6366  159.3723 C   0  0  2  0  0  0  0  0  0  0  0  0
  150.1282  145.1673  159.5492 C   0  0  0  0  0  0  0  0  0  0  0  0
  151.5452  145.5698  159.9977 C   0  0  2  0  0  0  0  0  0  0  0  0
  152.5201  145.4393  158.8117 C   0  0  0  0  0  0  0  0  0  0  0  0
  152.6778  143.9141  158.6655 C   0  0  0  0  0  0  0  0  0  0  0  0
  151.7193  143.3719  159.7471 C   0  0  1  0  0  0  0  0  0  0  0  0
  151.9419  144.3838  160.8661 C   0  0  0  0  0  0  0  0  0  0  0  0
  150.4228  139.8456  155.4621 N   0  0  0  0  0  0  0  0  0  0  0  0
  152.9419  139.2051  154.0262 H   0  0  0  0  0  0  0  0  0  0  0  0
  153.8786  137.7163  154.2086 H   0  0  0  0  0  0  0  0  0  0  0  0
  154.3977  139.2112  154.9937 H   0  0  0  0  0  0  0  0  0  0  0  0
  153.1196  137.3833  157.7872 H   0  0  0  0  0  0  0  0  0  0  0  0
  154.4776  138.2797  157.1211 H   0  0  0  0  0  0  0  0  0  0  0  0
  154.0564  136.6973  156.4538 H   0  0  0  0  0  0  0  0  0  0  0  0
  151.9857  136.3290  155.5754 H   0  0  0  0  0  0  0  0  0  0  0  0
  150.9371  137.4227  156.4358 H   0  0  0  0  0  0  0  0  0  0  0  0
  151.5661  137.8578  153.5055 H   0  0  0  0  0  0  0  0  0  0  0  0
  150.1786  136.9462  154.0441 H   0  0  0  0  0  0  0  0  0  0  0  0
  148.7520  138.9238  152.8000 H   0  0  0  0  0  0  0  0  0  0  0  0
  147.9739  141.3433  153.7573 H   0  0  0  0  0  0  0  0  0  0  0  0
  149.2072  142.8231  155.7836 H   0  0  0  0  0  0  0  0  0  0  0  0
  149.4418  143.9510  157.4434 H   0  0  0  0  0  0  0  0  0  0  0  0
  149.5730  143.1475  160.0876 H   0  0  0  0  0  0  0  0  0  0  0  0
  149.8266  145.6888  158.6395 H   0  0  0  0  0  0  0  0  0  0  0  0
  149.3972  145.4080  160.3220 H   0  0  0  0  0  0  0  0  0  0  0  0
  151.5867  146.5398  160.4938 H   0  0  0  0  0  0  0  0  0  0  0  0
  152.1308  145.9052  157.9057 H   0  0  0  0  0  0  0  0  0  0  0  0
  153.4802  145.9030  159.0412 H   0  0  0  0  0  0  0  0  0  0  0  0
  152.4489  143.5607  157.6602 H   0  0  0  0  0  0  0  0  0  0  0  0
  153.7043  143.6175  158.8853 H   0  0  0  0  0  0  0  0  0  0  0  0
  151.9227  142.3378  160.0269 H   0  0  0  0  0  0  0  0  0  0  0  0
  152.9758  144.4272  161.2136 H   0  0  0  0  0  0  0  0  0  0  0  0
  151.2826  144.2338  161.7230 H   0  0  0  0  0  0  0  0  0  0  0  0
  1  2  1  0  0  0  0
  1 22  1  0  0  0  0
  1 23  1  0  0  0  0
  1 24  1  0  0  0  0
  2  3  1  0  0  0  0
  2  4  1  0  0  0  0
  3 25  1  0  0  0  0
  3 26  1  0  0  0  0
  3 27  1  0  0  0  0
  4  5  1  0  0  0  0
  4 28  1  0  0  0  0
  4 29  1  0  0  0  0
  5  6  1  0  0  0  0
  5 30  1  0  0  0  0
  5 31  1  0  0  0  0
  6 21  1  0  0  0  0
  6  7  1  0  0  0  0
  7  8  2  0  0  0  0
  7 32  1  0  0  0  0
  8  9  1  0  0  0  0
  8 33  1  0  0  0  0
  9 10  1  0  0  0  0
  9 21  2  0  0  0  0
 10 11  1  0  0  0  0
 10 34  1  0  0  0  0
 11 12  2  0  0  0  0
 11 13  1  0  0  0  0
 13 14  1  0  0  0  0
 13 35  1  0  0  0  0
 14 19  1  0  0  0  0
 14 15  1  0  0  0  0
 14 36  1  0  0  0  0
 15 16  1  0  0  0  0
 15 37  1  0  0  0  0
 15 38  1  0  0  0  0
 16 20  1  0  0  0  0
 16 17  1  0  0  0  0
 16 39  1  0  0  0  0
 17 18  1  0  0  0  0
 17 40  1  0  0  0  0
 17 41  1  0  0  0  0
 18 19  1  0  0  0  0
 18 42  1  0  0  0  0
 18 43  1  0  0  0  0
 19 20  1  0  0  0  0
 19 44  1  0  0  0  0
 20 45  1  0  0  0  0
 20 46  1  0  0  0  0
M  END
> <s_m_source_file>
AV-unprocessed.smi

> <i_m_source_file_index>
720

> <i_lp_mmshare_version>
43012

> <i_f3d_flags>
0

> <s_epik_input>
W0NIM11OKFtDSDNdKVtDSDJdW0NIMl1uMVtjSF1bY0hdYyhuMSlbTkhdQyg9TylbTkhdW0NASF0oW0NIMl1bQ0BIXTIzKVtDQEhdKFtDSDJdMylbQ0gyXVtDSDJdMg==

> <s_epik_cmdline>
J2VwaWtfcHl0aG9uJywgJy1waCcsICc3LjAnLCAnLXRuJywgJzgnLCAnLW1hJywgJzIwMCcsICctbWV0YWxfYmluZGluZycsICctaW1hZScsICc8aW5maWxlLm1hZT4nLCAnLW9tYWUnLCAnPG91dGZpbGUubWFlPic=

> <r_lp_tautomer_probability>
1

> <r_epik_Ionization_Penalty>
1.83819

> <r_epik_Ionization_Penalty_Charging>
0

> <r_epik_Ionization_Penalty_Neutral>
1.83819

> <r_epik_State_Penalty>
1.95467

> <r_epik_Charging_Adjusted_Penalty>
1.95467

> <i_epik_Tot_Q>
0

> <i_epik_Tot_abs_Q>
0

> <r_epik_Metal_State_Penalty>
1.95467

> <b_epik_Metal_Only>
0

> <s_lp_Force_Field>
OPLS_2005

> <r_lp_Energy>
64.6773

> <b_lp_Chiralities_Consistent>
1

> <s_lp_Variant>
AV-unprocessed.smi:720-5

> <Gold.Version>
5.8.1

> <Gold.Id.Protein>
6NUR|6NUR_protein|mol2

> <Gold.PLP.Fitness>
47.0354

> <Gold.PLP.PLP>
-39.8579

> <Gold.PLP.part.hbond>
-2.1572

> <Gold.PLP.part.metal>
0.0000

> <Gold.PLP.part.buried>
1.1511

> <Gold.PLP.part.nonpolar>
-39.5286

> <Gold.PLP.part.repulsive>
0.1789

> <Gold.PLP.ligand.clash>
0.0000

> <Gold.PLP.ligand.torsion>
0.5386

> <Gold.PLP.Chemscore.Hbond>
2.0000

> <Gold.PLP.Chemscore.CHOScore>
0.7268

> <Gold.PLP.Chemscore.Metal>
0.0000

> <Gold.Chemscore.Hbonds>
donor molecule, donor type, donor heavy atom, donor atom, acceptor molecule, acceptor atom, score
      L1  H    10    34       P1  8028  1.00
      L1  H    13    35       P1  8028  1.00
      L1  C     7    32       P1  7948  0.27
      L1  C     7    32       P1  7957  0.44

> <Gold.PLP.Chemscore.Internal.Correction>
0.0744

> <Gold.Rescore>
     Score         DG    S(hbond)    S(metal)    S(lipo)     H(rot)  DE(clash)    DE(int)     intcor
     14.89     -21.07       1.42        0.00     126.31       1.53       3.29       2.89       ----

> <Gold.Chemscore.Fitness>
14.8912

> <Gold.Chemscore.DG>
-21.0717

> <Gold.Chemscore.ZeroCoef>
-5.4800

> <Gold.Chemscore.Hbond>
1.4172

> <Gold.Chemscore.Metal>
0.0000

> <Gold.Chemscore.Lipo>
126.3083

> <Gold.Chemscore.Internal_Hbond>
0.0000

> <Gold.Chemscore.DEClash>
3.2938

> <Gold.Chemscore.DEInternal>
2.8866

> <Gold.Chemscore.Rot>
1.5312

> <Gold.Chemscore.Internal.Correction>
   9.000000E+99

> <Gold.Chemscore.Hbonds>
donor molecule, donor type, donor heavy atom, donor atom, acceptor molecule, acceptor atom, score
      L1  H    10    34       P1  8028  0.98
      L1  H    13    35       P1  8028  0.28

> <Gold.Chemscore.Hbond.Weighted>
-4.7335

> <Gold.Chemscore.Metal.Weighted>
-0.0000

> <Gold.Chemscore.Lipo.Weighted>
-14.7781

> <Gold.Chemscore.Internal_Hbond.Weighted>
0.0000

> <Gold.Chemscore.DEClash.Weighted>
3.2938

> <Gold.Chemscore.DEInternal.Weighted>
2.8866

> <Gold.Chemscore.Rot.Weighted>
3.9199

> <Gold.Chemscore.Internal.Correction.Weighted>
   9.000000E+99

> <Gold.Protein.RotatedTorsions>
[ 6907 6896 6895 6894 ] final  -93.33 input  -60.11 | X-H torsion
[ 7974 7965 7964 7962 ] final    1.04 input  175.53 | X-H torsion
[ 8008 7997 7996 7995 ] final -119.62 input   59.86 | X-H torsion
[ 10167 10162 10161 10158 ] final  -48.48 input  -65.29 | X-H torsion
[ 10718 10713 10712 10709 ] final  114.67 input   66.30 | X-H torsion
[ 10763 10752 10751 10750 ] final  129.51 input  -60.55 | X-H torsion
[ 11005 11000 10999 10996 ] final  -96.85 input  -57.11 | X-H torsion

> <Gold.Protein.ActiveResidues>
 VAL166  LYS551  ARG553  GLY616  TRP617  ASP618  TYR619  PRO620  LYS621  CYS622 
 ASP623  PHE694  ASN695  SER759  ASP760  ASP761  ALA762  ILE779  LEU786  VAL792 
 PHE793  MET794  SER795  GLU796  ALA797  LYS798  CYS799  TRP800  GLU811  SER814 

> <Gold.Protein.RotatedAtoms>
  150.6921  134.1984  159.4312 H   0  0  0  0  0  0  0  0  0  0  0  0  # atno 6907 bound_to 6896
  151.9952  134.9955  160.0572 H   0  0  0  0  0  0  0  0  0  0  0  0  # atno 6908 bound_to 6896
  152.1630  133.4559  159.4907 H   0  0  0  0  0  0  0  0  0  0  0  0  # atno 6909 bound_to 6896
  146.2438  140.1046  142.8346 H   0  0  0  0  0  0  0  0  0  0  0  0  # atno 7974 bound_to 7965
  155.1186  140.0398  157.2744 H   0  0  0  0  0  0  0  0  0  0  0  0  # atno 8008 bound_to 7997
  154.6631  140.2595  155.7062 H   0  0  0  0  0  0  0  0  0  0  0  0  # atno 8009 bound_to 7997
  156.2627  140.2813  156.1110 H   0  0  0  0  0  0  0  0  0  0  0  0  # atno 8010 bound_to 7997
  140.6729  143.2738  151.4077 H   0  0  0  0  0  0  0  0  0  0  0  0  # atno 10167 bound_to 10162
  157.6268  131.1002  150.7219 H   0  0  0  0  0  0  0  0  0  0  0  0  # atno 10718 bound_to 10713
  153.7429  135.3221  155.3307 H   0  0  0  0  0  0  0  0  0  0  0  0  # atno 10763 bound_to 10752
  154.8289  135.4549  154.1009 H   0  0  0  0  0  0  0  0  0  0  0  0  # atno 10764 bound_to 10752
  153.2189  135.6945  153.8106 H   0  0  0  0  0  0  0  0  0  0  0  0  # atno 10765 bound_to 10752
  141.1398  133.8128  157.0627 H   0  0  0  0  0  0  0  0  0  0  0  0  # atno 11005 bound_to 11000
  145.0539  140.9038  143.4979 LP  0  0  0  0  0  0  0  0  0  0  0  0  # atno 17320 bound_to 7965
  145.1149  139.2732  143.5618 LP  0  0  0  0  0  0  0  0  0  0  0  0  # atno 17321 bound_to 7965
  139.6006  144.1303  152.2194 LP  0  0  0  0  0  0  0  0  0  0  0  0  # atno 17342 bound_to 10162
  140.0686  144.5797  150.7208 LP  0  0  0  0  0  0  0  0  0  0  0  0  # atno 17343 bound_to 10162
  156.7566  130.4785  149.5445 LP  0  0  0  0  0  0  0  0  0  0  0  0  # atno 17370 bound_to 10713
  156.1444  130.6267  151.0512 LP  0  0  0  0  0  0  0  0  0  0  0  0  # atno 17371 bound_to 10713
  140.0561  134.9780  157.1223 LP  0  0  0  0  0  0  0  0  0  0  0  0  # atno 17394 bound_to 11000
  140.3917  134.2177  155.7166 LP  0  0  0  0  0  0  0  0  0  0  0  0  # atno 17395 bound_to 11000

$$$$
