AV-unprocessed.smi:1487|AV-procd|sdf|6008|dock8
  -GOLD-   22720 6103D 1   1.00000     0.00000
 Structure written by MMmdl.
 48 50  0  0  0  0  0  0  0  0  2 V2000
  152.1000  144.1076  159.5232 C   0  0  0  0  0  0  0  0  0  0  0  0
  151.8834  142.8567  158.6904 C   0  0  0  0  0  0  0  0  0  0  0  0
  151.1492  142.9517  157.4868 C   0  0  0  0  0  0  0  0  0  0  0  0
  150.9230  141.8121  156.6847 C   0  0  0  0  0  0  0  0  0  0  0  0
  150.2433  141.6767  155.4861 N   0  0  0  0  0  0  0  0  0  0  0  0
  150.3810  140.3764  155.2446 C   0  0  0  0  0  0  0  0  0  0  0  0
  151.0752  139.6524  156.1437 N   0  0  0  0  0  0  0  0  0  0  0  0
  151.3531  138.2278  156.0922 C   0  0  0  0  0  0  0  0  0  0  0  0
  150.6036  137.5185  154.9477 C   0  0  1  0  0  0  0  0  0  0  0  0
  151.1813  137.8847  153.7091 O   0  0  0  0  0  0  0  0  0  0  0  0
  150.6767  135.9850  155.0860 C   0  0  0  0  0  0  0  0  0  0  0  0
  149.6280  135.2912  154.2948 N   0  3  1  0  0  0  0  0  0  0  0  0
  149.8809  133.8312  154.1770 C   0  0  0  0  0  0  0  0  0  0  0  0
  148.8631  133.1625  153.2372 C   0  0  0  0  0  0  0  0  0  0  0  0
  147.4254  133.4303  153.7003 C   0  0  0  0  0  0  0  0  0  0  0  0
  147.1982  134.9422  153.8423 C   0  0  1  0  0  0  0  0  0  0  0  0
  145.9039  135.1778  154.3547 O   0  0  0  0  0  0  0  0  0  0  0  0
  148.2484  135.5717  154.7759 C   0  0  0  0  0  0  0  0  0  0  0  0
  151.4558  140.5644  157.1227 C   0  0  0  0  0  0  0  0  0  0  0  0
  152.1892  140.4574  158.3178 C   0  0  0  0  0  0  0  0  0  0  0  0
  152.4049  141.6058  159.1078 C   0  0  0  0  0  0  0  0  0  0  0  0
  153.1951  141.4792  160.3982 C   0  0  0  0  0  0  0  0  0  0  0  0
  151.6893  144.9895  159.0309 H   0  0  0  0  0  0  0  0  0  0  0  0
  153.1639  144.2824  159.6850 H   0  0  0  0  0  0  0  0  0  0  0  0
  151.6131  144.0072  160.4935 H   0  0  0  0  0  0  0  0  0  0  0  0
  150.7510  143.9043  157.1694 H   0  0  0  0  0  0  0  0  0  0  0  0
  149.9532  139.9236  154.3620 H   0  0  0  0  0  0  0  0  0  0  0  0
  152.4299  138.0864  155.9904 H   0  0  0  0  0  0  0  0  0  0  0  0
  151.0733  137.7918  157.0521 H   0  0  0  0  0  0  0  0  0  0  0  0
  149.5670  137.8547  154.9515 H   0  0  0  0  0  0  0  0  0  0  0  0
  151.3220  137.1006  153.1993 H   0  0  0  0  0  0  0  0  0  0  0  0
  151.6657  135.6585  154.7593 H   0  0  0  0  0  0  0  0  0  0  0  0
  150.5933  135.6882  156.1327 H   0  0  0  0  0  0  0  0  0  0  0  0
  150.8862  133.6615  153.7888 H   0  0  0  0  0  0  0  0  0  0  0  0
  149.8405  133.3719  155.1660 H   0  0  0  0  0  0  0  0  0  0  0  0
  148.9977  133.5407  152.2229 H   0  0  0  0  0  0  0  0  0  0  0  0
  149.0456  132.0883  153.1931 H   0  0  0  0  0  0  0  0  0  0  0  0
  146.7166  133.0031  152.9897 H   0  0  0  0  0  0  0  0  0  0  0  0
  147.2508  132.9323  154.6553 H   0  0  0  0  0  0  0  0  0  0  0  0
  147.2596  135.4133  152.8601 H   0  0  0  0  0  0  0  0  0  0  0  0
  145.9733  135.3918  155.2728 H   0  0  0  0  0  0  0  0  0  0  0  0
  148.1342  135.1833  155.7896 H   0  0  0  0  0  0  0  0  0  0  0  0
  148.0793  136.6468  154.8304 H   0  0  0  0  0  0  0  0  0  0  0  0
  152.5824  139.4996  158.6250 H   0  0  0  0  0  0  0  0  0  0  0  0
  153.4957  140.4472  160.5821 H   0  0  0  0  0  0  0  0  0  0  0  0
  152.5961  141.8089  161.2476 H   0  0  0  0  0  0  0  0  0  0  0  0
  154.0984  142.0880  160.3538 H   0  0  0  0  0  0  0  0  0  0  0  0
  149.6963  135.6619  153.3573 H   0  0  0  0  0  0  0  0  0  0  0  0
  1  2  1  0  0  0  0
  1 23  1  0  0  0  0
  1 24  1  0  0  0  0
  1 25  1  0  0  0  0
  2 21  1  0  0  0  0
  2  3  2  0  0  0  0
  3  4  1  0  0  0  0
  3 26  1  0  0  0  0
  4 19  2  0  0  0  0
  4  5  1  0  0  0  0
  5  6  2  0  0  0  0
  6  7  1  0  0  0  0
  6 27  1  0  0  0  0
  7  8  1  0  0  0  0
  7 19  1  0  0  0  0
  8  9  1  0  0  0  0
  8 28  1  0  0  0  0
  8 29  1  0  0  0  0
  9 10  1  0  0  0  0
  9 11  1  0  0  0  0
  9 30  1  0  0  0  0
 10 31  1  0  0  0  0
 11 12  1  0  0  0  0
 11 32  1  0  0  0  0
 11 33  1  0  0  0  0
 12 18  1  0  0  0  0
 12 13  1  0  0  0  0
 12 48  1  0  0  0  0
 13 14  1  0  0  0  0
 13 34  1  0  0  0  0
 13 35  1  0  0  0  0
 14 15  1  0  0  0  0
 14 36  1  0  0  0  0
 14 37  1  0  0  0  0
 15 16  1  0  0  0  0
 15 38  1  0  0  0  0
 15 39  1  0  0  0  0
 16 17  1  0  0  0  0
 16 18  1  0  0  0  0
 16 40  1  0  0  0  0
 17 41  1  0  0  0  0
 18 42  1  0  0  0  0
 18 43  1  0  0  0  0
 19 20  1  0  0  0  0
 20 21  2  0  0  0  0
 20 44  1  0  0  0  0
 21 22  1  0  0  0  0
 22 45  1  0  0  0  0
 22 46  1  0  0  0  0
 22 47  1  0  0  0  0
M  CHG  1  12   1
M  END
> <s_m_source_file>
AV-unprocessed.smi

> <i_m_source_file_index>
1487

> <i_lp_mmshare_version>
43012

> <i_f3d_flags>
0

> <s_epik_input>
W0NIM11jKFtjSF0xKWMoW0NIM10pW2NIXWMoYzEyKW4oW2NIXW4yKVtDSDJdW0NASF0oW09IXSlbQ0gyXU4zW0NIMl1bQ0gyXVtDSDJdW0NAQEhdKFtPSF0pW0NIMl0z

> <s_epik_cmdline>
J2VwaWtfcHl0aG9uJywgJy1waCcsICc3LjAnLCAnLXRuJywgJzgnLCAnLW1hJywgJzIwMCcsICctbWV0YWxfYmluZGluZycsICctaW1hZScsICc8aW5maWxlLm1hZT4nLCAnLW9tYWUnLCAnPG91dGZpbGUubWFlPic=

> <r_epik_Ionization_Penalty>
0.0940186

> <r_epik_Ionization_Penalty_Charging>
0.00679686

> <r_epik_Ionization_Penalty_Neutral>
0.0872218

> <r_epik_State_Penalty>
0.0799311

> <r_epik_Charging_Adjusted_Penalty>
0.086728

> <i_epik_Tot_Q>
1

> <i_epik_Tot_abs_Q>
1

> <r_epik_Metal_State_Penalty>
7.95545e-05

> <b_epik_Metal_Only>
0

> <s_lp_Force_Field>
OPLS_2005

> <r_lp_Energy>
21.5016

> <b_lp_Chiralities_Consistent>
1

> <s_lp_Variant>
AV-unprocessed.smi:1487-2

> <Gold.Version>
5.8.1

> <Gold.Id.Protein>
6NUR|6NUR_protein|mol2

> <Gold.PLP.Fitness>
49.2756

> <Gold.PLP.PLP>
-40.9446

> <Gold.PLP.part.hbond>
-3.0962

> <Gold.PLP.part.metal>
0.0000

> <Gold.PLP.part.buried>
-3.4739

> <Gold.PLP.part.nonpolar>
-34.3582

> <Gold.PLP.part.repulsive>
0.1428

> <Gold.PLP.ligand.clash>
0.0000

> <Gold.PLP.ligand.torsion>
0.3395

> <Gold.PLP.Chemscore.Hbond>
2.9913

> <Gold.PLP.Chemscore.CHOScore>
0.0000

> <Gold.PLP.Chemscore.Metal>
0.0000

> <Gold.Chemscore.Hbonds>
donor molecule, donor type, donor heavy atom, donor atom, acceptor molecule, acceptor atom, score
      L1  H    10    31       P1  7949  0.96
      L1  H    12    48       P1  7948  1.20

> <Gold.PLP.Chemscore.Internal.Correction>
0.0362

> <Gold.Rescore>
     Score         DG    S(hbond)    S(metal)    S(lipo)     H(rot)  DE(clash)    DE(int)     intcor
     13.32     -14.42       0.95        0.00     107.80       2.67       0.02       1.08       ----

> <Gold.Chemscore.Fitness>
13.3216

> <Gold.Chemscore.DG>
-14.4210

> <Gold.Chemscore.ZeroCoef>
-5.4800

> <Gold.Chemscore.Hbond>
0.9482

> <Gold.Chemscore.Metal>
0.0000

> <Gold.Chemscore.Lipo>
107.7993

> <Gold.Chemscore.Internal_Hbond>
0.0000

> <Gold.Chemscore.DEClash>
0.0195

> <Gold.Chemscore.DEInternal>
1.0800

> <Gold.Chemscore.Rot>
2.6712

> <Gold.Chemscore.Internal.Correction>
   9.000000E+99

> <Gold.Chemscore.Hbonds>
donor molecule, donor type, donor heavy atom, donor atom, acceptor molecule, acceptor atom, score
      L1  H    10    31       P1  7949  0.66
      L1  H    12    48       P1  7948  0.04

> <Gold.Chemscore.Hbond.Weighted>
-3.1669

> <Gold.Chemscore.Metal.Weighted>
-0.0000

> <Gold.Chemscore.Lipo.Weighted>
-12.6125

> <Gold.Chemscore.Internal_Hbond.Weighted>
0.0000

> <Gold.Chemscore.DEClash.Weighted>
0.0195

> <Gold.Chemscore.DEInternal.Weighted>
1.0800

> <Gold.Chemscore.Rot.Weighted>
6.8383

> <Gold.Chemscore.Internal.Correction.Weighted>
   9.000000E+99

> <Gold.Protein.RotatedTorsions>
[ 6907 6896 6895 6894 ] final  -50.73 input  -60.11 | X-H torsion
[ 7974 7965 7964 7962 ] final  -48.89 input  175.53 | X-H torsion
[ 8008 7997 7996 7995 ] final -128.22 input   59.86 | X-H torsion
[ 10167 10162 10161 10158 ] final   70.72 input  -65.29 | X-H torsion
[ 10718 10713 10712 10709 ] final  -44.94 input   66.30 | X-H torsion
[ 10763 10752 10751 10750 ] final   41.59 input  -60.55 | X-H torsion
[ 11005 11000 10999 10996 ] final -139.23 input  -57.11 | X-H torsion

> <Gold.Protein.ActiveResidues>
 VAL166  LYS551  ARG553  GLY616  TRP617  ASP618  TYR619  PRO620  LYS621  CYS622 
 ASP623  PHE694  ASN695  SER759  ASP760  ASP761  ALA762  ILE779  LEU786  VAL792 
 PHE793  MET794  SER795  GLU796  ALA797  LYS798  CYS799  TRP800  GLU811  SER814 

> <Gold.Protein.RotatedAtoms>
  150.8678  134.8046  159.7131 H   0  0  0  0  0  0  0  0  0  0  0  0  # atno 6907 bound_to 6896
  152.4694  134.4995  159.9730 H   0  0  0  0  0  0  0  0  0  0  0  0  # atno 6908 bound_to 6896
  151.5088  133.3451  159.2917 H   0  0  0  0  0  0  0  0  0  0  0  0  # atno 6909 bound_to 6896
  145.9464  140.7614  142.9526 H   0  0  0  0  0  0  0  0  0  0  0  0  # atno 7974 bound_to 7965
  155.2591  140.0435  157.2995 H   0  0  0  0  0  0  0  0  0  0  0  0  # atno 8008 bound_to 7997
  154.5722  140.2377  155.8144 H   0  0  0  0  0  0  0  0  0  0  0  0  # atno 8009 bound_to 7997
  156.2131  140.2993  155.9785 H   0  0  0  0  0  0  0  0  0  0  0  0  # atno 8010 bound_to 7997
  140.0539  144.5289  150.7343 H   0  0  0  0  0  0  0  0  0  0  0  0  # atno 10167 bound_to 10162
  156.2334  130.4174  149.8847 H   0  0  0  0  0  0  0  0  0  0  0  0  # atno 10718 bound_to 10713
  152.9904  135.6157  154.2813 H   0  0  0  0  0  0  0  0  0  0  0  0  # atno 10763 bound_to 10752
  154.2542  135.2784  155.2806 H   0  0  0  0  0  0  0  0  0  0  0  0  # atno 10764 bound_to 10752
  154.5262  135.5801  153.6778 H   0  0  0  0  0  0  0  0  0  0  0  0  # atno 10765 bound_to 10752
  140.8539  134.2252  157.4745 H   0  0  0  0  0  0  0  0  0  0  0  0  # atno 11005 bound_to 11000
  144.6788  140.2363  143.7349 LP  0  0  0  0  0  0  0  0  0  0  0  0  # atno 17320 bound_to 7965
  145.8231  139.2052  143.1926 LP  0  0  0  0  0  0  0  0  0  0  0  0  # atno 17321 bound_to 7965
  140.7204  143.2583  151.4298 LP  0  0  0  0  0  0  0  0  0  0  0  0  # atno 17342 bound_to 10162
  139.5936  144.1446  152.2117 LP  0  0  0  0  0  0  0  0  0  0  0  0  # atno 17343 bound_to 10162
  156.6453  130.8721  151.3521 LP  0  0  0  0  0  0  0  0  0  0  0  0  # atno 17370 bound_to 10713
  157.7143  130.9478  150.1201 LP  0  0  0  0  0  0  0  0  0  0  0  0  # atno 17371 bound_to 10713
  139.8705  134.9697  156.4675 LP  0  0  0  0  0  0  0  0  0  0  0  0  # atno 17394 bound_to 11000
  140.8759  133.7954  155.9414 LP  0  0  0  0  0  0  0  0  0  0  0  0  # atno 17395 bound_to 11000

$$$$
