AV-unprocessed.smi:3024|AV-procd|sdf|11503|dock1
  -GOLD-   2272016443D 1   1.00000     0.00000
 Structure written by MMmdl.
 31 32  0  0  0  0  0  0  0  0  1 V2000
  145.4460  138.4401  153.1935 O   0  0  0  0  0  0  0  0  0  0  0  0
  146.4152  137.7588  152.8602 C   0  0  0  0  0  0  0  0  0  0  0  0
  146.3103  136.5654  152.2589 N   0  0  0  0  0  0  0  0  0  0  0  0
  145.0552  135.8983  151.9313 C   0  0  0  0  0  0  0  0  0  0  0  0
  145.2932  134.6212  151.1088 C   0  0  2  0  0  0  0  0  0  0  0  0
  144.0246  133.8110  150.8493 C   0  0  0  0  0  0  0  0  0  0  0  0
  144.5391  132.3945  150.6411 C   0  0  0  0  0  0  0  0  0  0  0  0
  145.9797  132.4392  151.1590 C   0  0  0  0  0  0  0  0  0  0  0  0
  146.0975  133.6920  151.8177 O   0  0  0  0  0  0  0  0  0  0  0  0
  147.7029  138.1076  153.0233 N   0  0  0  0  0  0  0  0  0  0  0  0
  148.2293  139.2846  153.6205 C   0  0  0  0  0  0  0  0  0  0  0  0
  147.4495  140.4584  153.5699 C   0  0  0  0  0  0  0  0  0  0  0  0
  147.9543  141.6432  154.1385 C   0  0  0  0  0  0  0  0  0  0  0  0
  149.2316  141.6101  154.7304 C   0  0  0  0  0  0  0  0  0  0  0  0
  149.9985  140.5003  154.7735 N   0  0  0  0  0  0  0  0  0  0  0  0
  149.5071  139.3664  154.2279 C   0  0  0  0  0  0  0  0  0  0  0  0
  147.1603  136.0783  152.0157 H   0  0  0  0  0  0  0  0  0  0  0  0
  144.4820  135.6781  152.8336 H   0  0  0  0  0  0  0  0  0  0  0  0
  144.4550  136.5977  151.3491 H   0  0  0  0  0  0  0  0  0  0  0  0
  145.7768  134.8623  150.1599 H   0  0  0  0  0  0  0  0  0  0  0  0
  143.3755  133.8356  151.7257 H   0  0  0  0  0  0  0  0  0  0  0  0
  143.4541  134.1851  149.9989 H   0  0  0  0  0  0  0  0  0  0  0  0
  143.9340  131.6766  151.1958 H   0  0  0  0  0  0  0  0  0  0  0  0
  144.5166  132.1101  149.5885 H   0  0  0  0  0  0  0  0  0  0  0  0
  146.2083  131.6163  151.8368 H   0  0  0  0  0  0  0  0  0  0  0  0
  146.6865  132.4032  150.3289 H   0  0  0  0  0  0  0  0  0  0  0  0
  148.3862  137.4826  152.6219 H   0  0  0  0  0  0  0  0  0  0  0  0
  146.4742  140.4529  153.1055 H   0  0  0  0  0  0  0  0  0  0  0  0
  147.3773  142.5558  154.1204 H   0  0  0  0  0  0  0  0  0  0  0  0
  149.6510  142.5005  155.1751 H   0  0  0  0  0  0  0  0  0  0  0  0
  150.1760  138.5210  154.2690 H   0  0  0  0  0  0  0  0  0  0  0  0
  1  2  2  0  0  0  0
  2  3  1  0  0  0  0
  2 10  1  0  0  0  0
  3  4  1  0  0  0  0
  3 17  1  0  0  0  0
  4  5  1  0  0  0  0
  4 18  1  0  0  0  0
  4 19  1  0  0  0  0
  5  9  1  0  0  0  0
  5  6  1  0  0  0  0
  5 20  1  0  0  0  0
  6  7  1  0  0  0  0
  6 21  1  0  0  0  0
  6 22  1  0  0  0  0
  7  8  1  0  0  0  0
  7 23  1  0  0  0  0
  7 24  1  0  0  0  0
  8  9  1  0  0  0  0
  8 25  1  0  0  0  0
  8 26  1  0  0  0  0
 10 11  1  0  0  0  0
 10 27  1  0  0  0  0
 11 16  1  0  0  0  0
 11 12  2  0  0  0  0
 12 13  1  0  0  0  0
 12 28  1  0  0  0  0
 13 14  2  0  0  0  0
 13 29  1  0  0  0  0
 14 15  1  0  0  0  0
 14 30  1  0  0  0  0
 15 16  2  0  0  0  0
 16 31  1  0  0  0  0
M  END
> <s_m_source_file>
AV-unprocessed.smi

> <i_m_source_file_index>
3024

> <i_lp_mmshare_version>
43012

> <i_f3d_flags>
0

> <s_epik_input>
W2NIXTFuW2NIXVtjSF1bY0hdYzFbTkhdQyg9TylbTkhdW0NIMl1bQ0BASF0yW0NIMl1bQ0gyXVtDSDJdTzI=

> <s_epik_cmdline>
J2VwaWtfcHl0aG9uJywgJy1waCcsICc3LjAnLCAnLXRuJywgJzgnLCAnLW1hJywgJzIwMCcsICctbWV0YWxfYmluZGluZycsICctaW1hZScsICc8aW5maWxlLm1hZT4nLCAnLW9tYWUnLCAnPG91dGZpbGUubWFlPic=

> <r_epik_Ionization_Penalty>
0.00471982

> <r_epik_Ionization_Penalty_Charging>
0

> <r_epik_Ionization_Penalty_Neutral>
0.00471982

> <r_epik_State_Penalty>
0.00339234

> <r_epik_Charging_Adjusted_Penalty>
0.00339234

> <i_epik_Tot_Q>
0

> <i_epik_Tot_abs_Q>
0

> <r_epik_Metal_State_Penalty>
-0

> <b_epik_Metal_Only>
0

> <s_lp_Force_Field>
OPLS_2005

> <r_lp_Energy>
19.771

> <b_lp_Chiralities_Consistent>
1

> <s_lp_Variant>
AV-unprocessed.smi:3024-1

> <Gold.Version>
5.8.1

> <Gold.Id.Protein>
6NUR|6NUR_protein|mol2

> <Gold.PLP.Fitness>
38.2321

> <Gold.PLP.PLP>
-27.1479

> <Gold.PLP.part.hbond>
-3.3097

> <Gold.PLP.part.metal>
0.0000

> <Gold.PLP.part.buried>
0.2970

> <Gold.PLP.part.nonpolar>
-26.1095

> <Gold.PLP.part.repulsive>
2.4372

> <Gold.PLP.ligand.clash>
0.0000

> <Gold.PLP.ligand.torsion>
0.1849

> <Gold.PLP.Chemscore.Hbond>
2.8153

> <Gold.PLP.Chemscore.CHOScore>
1.0000

> <Gold.PLP.Chemscore.Metal>
0.0000

> <Gold.Chemscore.Hbonds>
donor molecule, donor type, donor heavy atom, donor atom, acceptor molecule, acceptor atom, score
      L1  H     3    17       P1  7948  0.91
      L1  H    10    27       P1  7948  1.00
      P1  H  7989  7998       L1    15  0.76
      L1  C    14    30       P1  8028  1.00

> <Gold.PLP.Chemscore.Internal.Correction>
0.0082

> <Gold.Rescore>
     Score         DG    S(hbond)    S(metal)    S(lipo)     H(rot)  DE(clash)    DE(int)     intcor
     14.19     -16.26       1.95        0.00      63.66       1.24       0.54       1.53       ----

> <Gold.Chemscore.Fitness>
14.1887

> <Gold.Chemscore.DG>
-16.2552

> <Gold.Chemscore.ZeroCoef>
-5.4800

> <Gold.Chemscore.Hbond>
1.9458

> <Gold.Chemscore.Metal>
0.0000

> <Gold.Chemscore.Lipo>
63.6578

> <Gold.Chemscore.Internal_Hbond>
0.0000

> <Gold.Chemscore.DEClash>
0.5409

> <Gold.Chemscore.DEInternal>
1.5256

> <Gold.Chemscore.Rot>
1.2390

> <Gold.Chemscore.Internal.Correction>
   9.000000E+99

> <Gold.Chemscore.Hbonds>
donor molecule, donor type, donor heavy atom, donor atom, acceptor molecule, acceptor atom, score
      L1  H     3    17       P1  7948  0.90
      L1  H    10    27       P1  7948  0.95
      P1  H  7989  7998       L1    15  0.11

> <Gold.Chemscore.Hbond.Weighted>
-6.4990

> <Gold.Chemscore.Metal.Weighted>
-0.0000

> <Gold.Chemscore.Lipo.Weighted>
-7.4480

> <Gold.Chemscore.Internal_Hbond.Weighted>
0.0000

> <Gold.Chemscore.DEClash.Weighted>
0.5409

> <Gold.Chemscore.DEInternal.Weighted>
1.5256

> <Gold.Chemscore.Rot.Weighted>
3.1718

> <Gold.Chemscore.Internal.Correction.Weighted>
   9.000000E+99

> <Gold.Protein.RotatedTorsions>
[ 6907 6896 6895 6894 ] final  -16.06 input  -60.11 | X-H torsion
[ 7974 7965 7964 7962 ] final   73.12 input  175.53 | X-H torsion
[ 8008 7997 7996 7995 ] final  -50.19 input   59.86 | X-H torsion
[ 10167 10162 10161 10158 ] final   51.02 input  -65.29 | X-H torsion
[ 10718 10713 10712 10709 ] final   49.25 input   66.30 | X-H torsion
[ 10763 10752 10751 10750 ] final  -78.19 input  -60.55 | X-H torsion
[ 11005 11000 10999 10996 ] final -171.02 input  -57.11 | X-H torsion

> <Gold.Protein.ActiveResidues>
 VAL166  LYS551  ARG553  GLY616  TRP617  ASP618  TYR619  PRO620  LYS621  CYS622 
 ASP623  PHE694  ASN695  SER759  ASP760  ASP761  ALA762  ILE779  LEU786  VAL792 
 PHE793  MET794  SER795  GLU796  ALA797  LYS798  CYS799  TRP800  GLU811  SER814 

> <Gold.Protein.RotatedAtoms>
  151.3144  135.0802  159.9283 H   0  0  0  0  0  0  0  0  0  0  0  0  # atno 6907 bound_to 6896
  152.5270  133.9703  159.7769 H   0  0  0  0  0  0  0  0  0  0  0  0  # atno 6908 bound_to 6896
  151.0012  133.6002  159.2725 H   0  0  0  0  0  0  0  0  0  0  0  0  # atno 6909 bound_to 6896
  145.7448  139.2736  143.1465 H   0  0  0  0  0  0  0  0  0  0  0  0  # atno 7974 bound_to 7965
  154.4057  140.1278  156.4625 H   0  0  0  0  0  0  0  0  0  0  0  0  # atno 8008 bound_to 7997
  155.7258  140.3492  155.5017 H   0  0  0  0  0  0  0  0  0  0  0  0  # atno 8009 bound_to 7997
  155.9172  140.1046  157.1224 H   0  0  0  0  0  0  0  0  0  0  0  0  # atno 8010 bound_to 7997
  140.2663  144.3316  150.6303 H   0  0  0  0  0  0  0  0  0  0  0  0  # atno 10167 bound_to 10162
  157.4768  130.8290  149.8049 H   0  0  0  0  0  0  0  0  0  0  0  0  # atno 10718 bound_to 10713
  154.5227  135.5738  153.6694 H   0  0  0  0  0  0  0  0  0  0  0  0  # atno 10763 bound_to 10752
  152.9921  135.6185  154.2733 H   0  0  0  0  0  0  0  0  0  0  0  0  # atno 10764 bound_to 10752
  154.2655  135.2855  155.2740 H   0  0  0  0  0  0  0  0  0  0  0  0  # atno 10765 bound_to 10752
  140.5129  134.5784  157.5024 H   0  0  0  0  0  0  0  0  0  0  0  0  # atno 11005 bound_to 11000
  146.0413  140.8162  142.9827 LP  0  0  0  0  0  0  0  0  0  0  0  0  # atno 17320 bound_to 7965
  144.6862  140.2914  143.7277 LP  0  0  0  0  0  0  0  0  0  0  0  0  # atno 17321 bound_to 7965
  140.5926  143.2167  151.7225 LP  0  0  0  0  0  0  0  0  0  0  0  0  # atno 17342 bound_to 10162
  139.5002  144.3916  152.0273 LP  0  0  0  0  0  0  0  0  0  0  0  0  # atno 17343 bound_to 10162
  156.0101  130.3837  150.2294 LP  0  0  0  0  0  0  0  0  0  0  0  0  # atno 17370 bound_to 10713
  157.0479  131.0054  151.3263 LP  0  0  0  0  0  0  0  0  0  0  0  0  # atno 17371 bound_to 10713
  139.9648  134.7391  156.0160 LP  0  0  0  0  0  0  0  0  0  0  0  0  # atno 17394 bound_to 11000
  141.1376  133.6571  156.3637 LP  0  0  0  0  0  0  0  0  0  0  0  0  # atno 17395 bound_to 11000

$$$$
