AV-unprocessed.smi:2051|AV-procd|sdf|8327|dock4
  -GOLD-   2272010593D 1   1.00000     0.00000
 Structure written by MMmdl.
 33 34  0  0  0  0  0  0  0  0  1 V2000
  149.0951  140.6914  158.1743 O   0  0  0  0  0  0  0  0  0  0  0  0
  149.2752  141.8592  157.8249 C   0  0  0  0  0  0  0  0  0  0  0  0
  150.6837  142.3870  157.5143 C   0  0  0  0  0  0  0  0  0  0  0  0
  151.2673  143.1898  158.6023 N   0  0  0  0  0  0  0  0  0  0  0  0
  150.7426  144.4833  158.7952 C   0  0  0  0  0  0  0  0  0  0  0  0
  151.2022  145.3003  159.7561 C   0  0  0  0  0  0  0  0  0  0  0  0
  152.2654  144.8221  160.6075 C   0  0  0  0  0  0  0  0  0  0  0  0
  152.7767  143.5875  160.4298 C   0  0  0  0  0  0  0  0  0  0  0  0
  152.2794  142.6923  159.3784 C   0  0  0  0  0  0  0  0  0  0  0  0
  152.7440  141.5651  159.2062 O   0  0  0  0  0  0  0  0  0  0  0  0
  148.2766  142.7424  157.6776 N   0  0  0  0  0  0  0  0  0  0  0  0
  146.8640  142.4617  157.9067 C   0  0  0  0  0  0  0  0  0  0  0  0
  146.2946  143.3041  159.0607 C   0  0  1  0  0  0  0  0  0  0  0  0
  144.8031  143.0812  159.3130 C   0  0  0  0  0  0  0  0  0  0  0  0
  144.6358  143.3659  160.7993 C   0  0  0  0  0  0  0  0  0  0  0  0
  146.0684  143.4972  161.3211 C   0  0  0  0  0  0  0  0  0  0  0  0
  146.8750  142.9294  160.3003 O   0  0  0  0  0  0  0  0  0  0  0  0
  151.3244  141.5340  157.2869 H   0  0  0  0  0  0  0  0  0  0  0  0
  150.6502  142.9699  156.5919 H   0  0  0  0  0  0  0  0  0  0  0  0
  149.9548  144.7669  158.1123 H   0  0  0  0  0  0  0  0  0  0  0  0
  150.7901  146.2901  159.8862 H   0  0  0  0  0  0  0  0  0  0  0  0
  152.6532  145.4572  161.3902 H   0  0  0  0  0  0  0  0  0  0  0  0
  153.5721  143.2467  161.0760 H   0  0  0  0  0  0  0  0  0  0  0  0
  148.5111  143.6783  157.3799 H   0  0  0  0  0  0  0  0  0  0  0  0
  146.2991  142.6448  156.9912 H   0  0  0  0  0  0  0  0  0  0  0  0
  146.7580  141.3995  158.1293 H   0  0  0  0  0  0  0  0  0  0  0  0
  146.4791  144.3667  158.8904 H   0  0  0  0  0  0  0  0  0  0  0  0
  144.1786  143.7185  158.6864 H   0  0  0  0  0  0  0  0  0  0  0  0
  144.5320  142.0443  159.1097 H   0  0  0  0  0  0  0  0  0  0  0  0
  144.0667  144.2783  160.9802 H   0  0  0  0  0  0  0  0  0  0  0  0
  144.1129  142.5425  161.2873 H   0  0  0  0  0  0  0  0  0  0  0  0
  146.3364  144.5474  161.4471 H   0  0  0  0  0  0  0  0  0  0  0  0
  146.2172  142.9911  162.2751 H   0  0  0  0  0  0  0  0  0  0  0  0
  1  2  2  0  0  0  0
  2  3  1  0  0  0  0
  2 11  1  0  0  0  0
  3  4  1  0  0  0  0
  3 18  1  0  0  0  0
  3 19  1  0  0  0  0
  4  9  1  0  0  0  0
  4  5  1  0  0  0  0
  5  6  2  0  0  0  0
  5 20  1  0  0  0  0
  6  7  1  0  0  0  0
  6 21  1  0  0  0  0
  7  8  2  0  0  0  0
  7 22  1  0  0  0  0
  8  9  1  0  0  0  0
  8 23  1  0  0  0  0
  9 10  2  0  0  0  0
 11 12  1  0  0  0  0
 11 24  1  0  0  0  0
 12 13  1  0  0  0  0
 12 25  1  0  0  0  0
 12 26  1  0  0  0  0
 13 17  1  0  0  0  0
 13 14  1  0  0  0  0
 13 27  1  0  0  0  0
 14 15  1  0  0  0  0
 14 28  1  0  0  0  0
 14 29  1  0  0  0  0
 15 16  1  0  0  0  0
 15 30  1  0  0  0  0
 15 31  1  0  0  0  0
 16 17  1  0  0  0  0
 16 32  1  0  0  0  0
 16 33  1  0  0  0  0
M  END
> <s_m_source_file>
AV-unprocessed.smi

> <i_m_source_file_index>
2051

> <i_lp_mmshare_version>
43012

> <i_f3d_flags>
0

> <s_epik_input>
TzFbQ0gyXVtDSDJdW0NIMl1bQ0BIXTFbQ0gyXVtOSF1DKD1PKVtDSDJdbjJbY0hdW2NIXVtjSF1bY0hdYzI9Tw==

> <s_epik_cmdline>
J2VwaWtfcHl0aG9uJywgJy1waCcsICc3LjAnLCAnLXRuJywgJzgnLCAnLW1hJywgJzIwMCcsICctbWV0YWxfYmluZGluZycsICctaW1hZScsICc8aW5maWxlLm1hZT4nLCAnLW9tYWUnLCAnPG91dGZpbGUubWFlPic=

> <r_lp_tautomer_probability>
1

> <r_epik_Ionization_Penalty>
3.94187e-07

> <r_epik_Ionization_Penalty_Charging>
3.67328e-07

> <r_epik_Ionization_Penalty_Neutral>
2.6859e-08

> <r_epik_State_Penalty>
-0

> <r_epik_Charging_Adjusted_Penalty>
3.67328e-07

> <i_epik_Tot_Q>
0

> <i_epik_Tot_abs_Q>
0

> <r_epik_Metal_State_Penalty>
-0

> <b_epik_Metal_Only>
0

> <s_lp_Force_Field>
OPLS_2005

> <r_lp_Energy>
26.6962

> <b_lp_Chiralities_Consistent>
1

> <s_lp_Variant>
AV-unprocessed.smi:2051-2

> <Gold.Version>
5.8.1

> <Gold.Id.Protein>
6NUR|6NUR_protein|mol2

> <Gold.PLP.Fitness>
42.0395

> <Gold.PLP.PLP>
-32.8358

> <Gold.PLP.part.hbond>
-3.3154

> <Gold.PLP.part.metal>
0.0000

> <Gold.PLP.part.buried>
-6.8768

> <Gold.PLP.part.nonpolar>
-23.4029

> <Gold.PLP.part.repulsive>
0.1074

> <Gold.PLP.ligand.clash>
0.0000

> <Gold.PLP.ligand.torsion>
0.4251

> <Gold.PLP.Chemscore.Hbond>
2.2485

> <Gold.PLP.Chemscore.CHOScore>
1.0961

> <Gold.PLP.Chemscore.Metal>
0.0000

> <Gold.Chemscore.Hbonds>
donor molecule, donor type, donor heavy atom, donor atom, acceptor molecule, acceptor atom, score
      L1  H    11    24       P1  8028  0.41
      P1  H  6933  6944       L1    17  0.82
      P1  H  6934  6946       L1    17  0.74
      L1  C     5    20       P1  8028  0.33
      L1  C     5    20       P1  8029  0.75

> <Gold.PLP.Chemscore.Internal.Correction>
0.0202

> <Gold.Rescore>
     Score         DG    S(hbond)    S(metal)    S(lipo)     H(rot)  DE(clash)    DE(int)     intcor
     12.46     -12.88       1.20        0.00      66.04       1.69       0.02       0.40       ----

> <Gold.Chemscore.Fitness>
12.4602

> <Gold.Chemscore.DG>
-12.8796

> <Gold.Chemscore.ZeroCoef>
-5.4800

> <Gold.Chemscore.Hbond>
1.2001

> <Gold.Chemscore.Metal>
0.0000

> <Gold.Chemscore.Lipo>
66.0426

> <Gold.Chemscore.Internal_Hbond>
0.0000

> <Gold.Chemscore.DEClash>
0.0204

> <Gold.Chemscore.DEInternal>
0.3991

> <Gold.Chemscore.Rot>
1.6936

> <Gold.Chemscore.Internal.Correction>
   9.000000E+99

> <Gold.Chemscore.Hbonds>
donor molecule, donor type, donor heavy atom, donor atom, acceptor molecule, acceptor atom, score
      L1  H    11    24       P1  8028  0.02
      P1  H  6933  6944       L1    17  0.17
      P1  H  6934  6946       L1    17  0.34

> <Gold.Chemscore.Hbond.Weighted>
-4.0083

> <Gold.Chemscore.Metal.Weighted>
-0.0000

> <Gold.Chemscore.Lipo.Weighted>
-7.7270

> <Gold.Chemscore.Internal_Hbond.Weighted>
0.0000

> <Gold.Chemscore.DEClash.Weighted>
0.0204

> <Gold.Chemscore.DEInternal.Weighted>
0.3991

> <Gold.Chemscore.Rot.Weighted>
4.3357

> <Gold.Chemscore.Internal.Correction.Weighted>
   9.000000E+99

> <Gold.Protein.RotatedTorsions>
[ 6907 6896 6895 6894 ] final  -50.86 input  -60.11 | X-H torsion
[ 7974 7965 7964 7962 ] final  133.86 input  175.53 | X-H torsion
[ 8008 7997 7996 7995 ] final  -99.97 input   59.86 | X-H torsion
[ 10167 10162 10161 10158 ] final   13.67 input  -65.29 | X-H torsion
[ 10718 10713 10712 10709 ] final -103.93 input   66.30 | X-H torsion
[ 10763 10752 10751 10750 ] final -172.95 input  -60.55 | X-H torsion
[ 11005 11000 10999 10996 ] final  126.77 input  -57.11 | X-H torsion

> <Gold.Protein.ActiveResidues>
 VAL166  LYS551  ARG553  GLY616  TRP617  ASP618  TYR619  PRO620  LYS621  CYS622 
 ASP623  PHE694  ASN695  SER759  ASP760  ASP761  ALA762  ILE779  LEU786  VAL792 
 PHE793  MET794  SER795  GLU796  ALA797  LYS798  CYS799  TRP800  GLU811  SER814 

> <Gold.Protein.RotatedAtoms>
  150.8666  134.8031  159.7123 H   0  0  0  0  0  0  0  0  0  0  0  0  # atno 6907 bound_to 6896
  152.4685  134.5013  159.9735 H   0  0  0  0  0  0  0  0  0  0  0  0  # atno 6908 bound_to 6896
  151.5108  133.3447  159.2920 H   0  0  0  0  0  0  0  0  0  0  0  0  # atno 6909 bound_to 6896
  144.9822  139.4492  143.5380 H   0  0  0  0  0  0  0  0  0  0  0  0  # atno 7974 bound_to 7965
  154.8222  140.0444  157.1419 H   0  0  0  0  0  0  0  0  0  0  0  0  # atno 8008 bound_to 7997
  154.9246  140.3031  155.5178 H   0  0  0  0  0  0  0  0  0  0  0  0  # atno 8009 bound_to 7997
  156.2981  140.2334  156.4300 H   0  0  0  0  0  0  0  0  0  0  0  0  # atno 8010 bound_to 7997
  140.5987  143.8649  150.6943 H   0  0  0  0  0  0  0  0  0  0  0  0  # atno 10167 bound_to 10162
  156.0284  130.5490  150.7323 H   0  0  0  0  0  0  0  0  0  0  0  0  # atno 10718 bound_to 10713
  154.6135  135.2867  155.0406 H   0  0  0  0  0  0  0  0  0  0  0  0  # atno 10763 bound_to 10752
  154.1627  135.6485  153.4993 H   0  0  0  0  0  0  0  0  0  0  0  0  # atno 10764 bound_to 10752
  153.0205  135.5382  154.6898 H   0  0  0  0  0  0  0  0  0  0  0  0  # atno 10765 bound_to 10752
  139.9473  134.9627  156.8756 H   0  0  0  0  0  0  0  0  0  0  0  0  # atno 11005 bound_to 11000
  146.3411  139.9102  142.8781 LP  0  0  0  0  0  0  0  0  0  0  0  0  # atno 17320 bound_to 7965
  145.2404  141.0007  143.3939 LP  0  0  0  0  0  0  0  0  0  0  0  0  # atno 17321 bound_to 7965
  140.2190  143.3824  152.1658 LP  0  0  0  0  0  0  0  0  0  0  0  0  # atno 17342 bound_to 10162
  139.5276  144.7121  151.5174 LP  0  0  0  0  0  0  0  0  0  0  0  0  # atno 17343 bound_to 10162
  157.4912  131.0911  151.0424 LP  0  0  0  0  0  0  0  0  0  0  0  0  # atno 17370 bound_to 10713
  157.0830  130.5911  149.5424 LP  0  0  0  0  0  0  0  0  0  0  0  0  # atno 17371 bound_to 10713
  140.5803  134.0358  155.7462 LP  0  0  0  0  0  0  0  0  0  0  0  0  # atno 17394 bound_to 11000
  141.1127  133.9590  157.2880 LP  0  0  0  0  0  0  0  0  0  0  0  0  # atno 17395 bound_to 11000

$$$$
