AV-unprocessed.smi:2279|AV-procd|sdf|9189|dock4
  -GOLD-   2272012403D 1   1.00000     0.00000
 Structure written by MMmdl.
 57 59  0  0  0  0  0  0  0  0  2 V2000
  153.4452  142.7954  160.0925 C   0  0  0  0  0  0  0  0  0  0  0  0
  153.2816  141.2919  160.0175 C   0  0  0  0  0  0  0  0  0  0  0  0
  154.0709  140.4382  160.8117 C   0  0  0  0  0  0  0  0  0  0  0  0
  153.8700  139.0488  160.6957 C   0  0  0  0  0  0  0  0  0  0  0  0
  154.6812  138.0731  161.5219 C   0  0  0  0  0  0  0  0  0  0  0  0
  152.9591  138.5030  159.8619 N   0  0  0  0  0  0  0  0  0  0  0  0
  152.1933  139.3154  159.0922 C   0  0  0  0  0  0  0  0  0  0  0  0
  151.2100  138.8416  158.1831 N   0  0  0  0  0  0  0  0  0  0  0  0
  150.8963  137.5671  157.8901 C   0  0  0  0  0  0  0  0  0  0  0  0
  151.4239  136.5703  158.3847 O   0  0  0  0  0  0  0  0  0  0  0  0
  149.9192  137.5037  156.9731 N   0  0  0  0  0  0  0  0  0  0  0  0
  149.3451  136.2694  156.4446 C   0  0  2  0  0  0  0  0  0  0  0  0
  150.3610  135.5155  155.5729 C   0  0  0  0  0  0  0  0  0  0  0  0
  149.7287  134.2602  154.9514 C   0  0  0  0  0  0  0  0  0  0  0  0
  148.5220  134.5862  154.1372 N   0  3  1  0  0  0  0  0  0  0  0  0
  147.9927  133.3894  153.4029 C   0  0  0  0  0  0  0  0  0  0  0  0
  146.6985  133.7375  152.6306 C   0  0  0  0  0  0  0  0  0  0  0  0
  146.1040  132.5107  151.9172 C   0  0  0  0  0  0  0  0  0  0  0  0
  145.8033  131.4630  152.8892 N   0  0  0  0  0  0  0  0  0  0  0  0
  145.1797  130.3363  152.2093 C   0  0  0  0  0  0  0  0  0  0  0  0
  147.0397  131.0186  153.5270 C   0  0  0  0  0  0  0  0  0  0  0  0
  147.6756  132.1778  154.3133 C   0  0  0  0  0  0  0  0  0  0  0  0
  147.5154  135.3177  154.9621 C   0  0  0  0  0  0  0  0  0  0  0  0
  148.1056  136.5876  155.5996 C   0  0  0  0  0  0  0  0  0  0  0  0
  152.3310  140.7207  159.1474 C   0  0  0  0  0  0  0  0  0  0  0  0
  154.2404  143.0742  160.7845 H   0  0  0  0  0  0  0  0  0  0  0  0
  152.5190  143.2590  160.4325 H   0  0  0  0  0  0  0  0  0  0  0  0
  153.6916  143.1982  159.1098 H   0  0  0  0  0  0  0  0  0  0  0  0
  154.8096  140.8368  161.4916 H   0  0  0  0  0  0  0  0  0  0  0  0
  155.4832  138.5810  162.0581 H   0  0  0  0  0  0  0  0  0  0  0  0
  155.1294  137.3120  160.8826 H   0  0  0  0  0  0  0  0  0  0  0  0
  154.0425  137.5764  162.2527 H   0  0  0  0  0  0  0  0  0  0  0  0
  150.6878  139.5568  157.6993 H   0  0  0  0  0  0  0  0  0  0  0  0
  149.5418  138.3710  156.6201 H   0  0  0  0  0  0  0  0  0  0  0  0
  149.0411  135.6314  157.2770 H   0  0  0  0  0  0  0  0  0  0  0  0
  150.7329  136.1679  154.7815 H   0  0  0  0  0  0  0  0  0  0  0  0
  151.2284  135.2275  156.1685 H   0  0  0  0  0  0  0  0  0  0  0  0
  150.4890  133.7703  154.3469 H   0  0  0  0  0  0  0  0  0  0  0  0
  149.4555  133.5552  155.7384 H   0  0  0  0  0  0  0  0  0  0  0  0
  148.7541  133.0688  152.6893 H   0  0  0  0  0  0  0  0  0  0  0  0
  145.9578  134.1506  153.3169 H   0  0  0  0  0  0  0  0  0  0  0  0
  146.8773  134.5028  151.8776 H   0  0  0  0  0  0  0  0  0  0  0  0
  145.1876  132.8009  151.4012 H   0  0  0  0  0  0  0  0  0  0  0  0
  146.7943  132.1391  151.1581 H   0  0  0  0  0  0  0  0  0  0  0  0
  144.9350  129.5481  152.9223 H   0  0  0  0  0  0  0  0  0  0  0  0
  145.8367  129.9156  151.4468 H   0  0  0  0  0  0  0  0  0  0  0  0
  144.2514  130.6457  151.7275 H   0  0  0  0  0  0  0  0  0  0  0  0
  146.8222  130.1950  154.2084 H   0  0  0  0  0  0  0  0  0  0  0  0
  147.7374  130.6389  152.7784 H   0  0  0  0  0  0  0  0  0  0  0  0
  148.5842  131.7954  154.7786 H   0  0  0  0  0  0  0  0  0  0  0  0
  147.0055  132.4776  155.1207 H   0  0  0  0  0  0  0  0  0  0  0  0
  146.6725  135.6401  154.3527 H   0  0  0  0  0  0  0  0  0  0  0  0
  147.1231  134.6534  155.7338 H   0  0  0  0  0  0  0  0  0  0  0  0
  147.3485  137.0732  156.2167 H   0  0  0  0  0  0  0  0  0  0  0  0
  148.3644  137.2987  154.8134 H   0  0  0  0  0  0  0  0  0  0  0  0
  151.7148  141.3579  158.5298 H   0  0  0  0  0  0  0  0  0  0  0  0
  148.8180  135.2396  153.4261 H   0  0  0  0  0  0  0  0  0  0  0  0
  1  2  1  0  0  0  0
  1 26  1  0  0  0  0
  1 27  1  0  0  0  0
  1 28  1  0  0  0  0
  2 25  1  0  0  0  0
  2  3  2  0  0  0  0
  3  4  1  0  0  0  0
  3 29  1  0  0  0  0
  4  5  1  0  0  0  0
  4  6  2  0  0  0  0
  5 30  1  0  0  0  0
  5 31  1  0  0  0  0
  5 32  1  0  0  0  0
  6  7  1  0  0  0  0
  7  8  1  0  0  0  0
  7 25  2  0  0  0  0
  8  9  1  0  0  0  0
  8 33  1  0  0  0  0
  9 10  2  0  0  0  0
  9 11  1  0  0  0  0
 11 12  1  0  0  0  0
 11 34  1  0  0  0  0
 12 24  1  0  0  0  0
 12 13  1  0  0  0  0
 12 35  1  0  0  0  0
 13 14  1  0  0  0  0
 13 36  1  0  0  0  0
 13 37  1  0  0  0  0
 14 15  1  0  0  0  0
 14 38  1  0  0  0  0
 14 39  1  0  0  0  0
 15 16  1  0  0  0  0
 15 23  1  0  0  0  0
 15 57  1  0  0  0  0
 16 22  1  0  0  0  0
 16 17  1  0  0  0  0
 16 40  1  0  0  0  0
 17 18  1  0  0  0  0
 17 41  1  0  0  0  0
 17 42  1  0  0  0  0
 18 19  1  0  0  0  0
 18 43  1  0  0  0  0
 18 44  1  0  0  0  0
 19 20  1  0  0  0  0
 19 21  1  0  0  0  0
 20 45  1  0  0  0  0
 20 46  1  0  0  0  0
 20 47  1  0  0  0  0
 21 22  1  0  0  0  0
 21 48  1  0  0  0  0
 21 49  1  0  0  0  0
 22 50  1  0  0  0  0
 22 51  1  0  0  0  0
 23 24  1  0  0  0  0
 23 52  1  0  0  0  0
 23 53  1  0  0  0  0
 24 54  1  0  0  0  0
 24 55  1  0  0  0  0
 25 56  1  0  0  0  0
M  CHG  1  15   1
M  END
> <s_m_source_file>
AV-unprocessed.smi

> <i_m_source_file_index>
2279

> <i_lp_mmshare_version>
43012

> <i_f3d_flags>
0

> <s_epik_input>
W0NIM11jMVtjSF1jKFtDSDNdKW5jKFtjSF0xKVtOSF1DKD1PKVtOSF1bQ0hdMltDSDJdW0NIMl1OKFtDSDJdW0NIMl0yKVtDSF0zW0NIMl1bQ0gyXU4oW0NIM10pW0NIMl1bQ0gyXTM=

> <s_epik_cmdline>
J2VwaWtfcHl0aG9uJywgJy1waCcsICc3LjAnLCAnLXRuJywgJzgnLCAnLW1hJywgJzIwMCcsICctbWV0YWxfYmluZGluZycsICctaW1hZScsICc8aW5maWxlLm1hZT4nLCAnLW9tYWUnLCAnPG91dGZpbGUubWFlPic=

> <r_epik_Ionization_Penalty>
1.37263

> <r_epik_Ionization_Penalty_Charging>
0.00081195

> <r_epik_Ionization_Penalty_Neutral>
1.37182

> <r_epik_State_Penalty>
1.55149

> <r_epik_Charging_Adjusted_Penalty>
1.5523

> <i_epik_Tot_Q>
1

> <i_epik_Tot_abs_Q>
1

> <r_epik_Metal_State_Penalty>
1.5515

> <b_epik_Metal_Only>
0

> <s_lp_Force_Field>
OPLS_2005

> <r_lp_Energy>
32.7052

> <b_lp_Chiralities_Consistent>
1

> <s_lp_Variant>
AV-unprocessed.smi:2279-7

> <Gold.Version>
5.8.1

> <Gold.Id.Protein>
6NUR|6NUR_protein|mol2

> <Gold.PLP.Fitness>
45.6029

> <Gold.PLP.PLP>
-38.4762

> <Gold.PLP.part.hbond>
-2.0000

> <Gold.PLP.part.metal>
0.0000

> <Gold.PLP.part.buried>
-4.5923

> <Gold.PLP.part.nonpolar>
-31.8820

> <Gold.PLP.part.repulsive>
0.2490

> <Gold.PLP.ligand.clash>
0.0000

> <Gold.PLP.ligand.torsion>
0.1541

> <Gold.PLP.Chemscore.Hbond>
2.4680

> <Gold.PLP.Chemscore.CHOScore>
0.0000

> <Gold.PLP.Chemscore.Metal>
0.0000

> <Gold.Chemscore.Hbonds>
donor molecule, donor type, donor heavy atom, donor atom, acceptor molecule, acceptor atom, score
      L1  H    15    57       P1  7948  2.00
      P1  H  6896  6909       L1    10  0.56

> <Gold.PLP.Chemscore.Internal.Correction>
0.0309

> <Gold.Rescore>
     Score         DG    S(hbond)    S(metal)    S(lipo)     H(rot)  DE(clash)    DE(int)     intcor
     17.82     -19.34       1.55        0.00     100.40       1.19       0.00       1.51       ----

> <Gold.Chemscore.Fitness>
17.8247

> <Gold.Chemscore.DG>
-19.3413

> <Gold.Chemscore.ZeroCoef>
-5.4800

> <Gold.Chemscore.Hbond>
1.5463

> <Gold.Chemscore.Metal>
0.0000

> <Gold.Chemscore.Lipo>
100.3970

> <Gold.Chemscore.Internal_Hbond>
0.0000

> <Gold.Chemscore.DEClash>
0.0029

> <Gold.Chemscore.DEInternal>
1.5136

> <Gold.Chemscore.Rot>
1.1913

> <Gold.Chemscore.Internal.Correction>
   9.000000E+99

> <Gold.Chemscore.Hbonds>
donor molecule, donor type, donor heavy atom, donor atom, acceptor molecule, acceptor atom, score
      L1  H    15    57       P1  7948  0.70
      P1  H  6896  6909       L1    10  0.55

> <Gold.Chemscore.Hbond.Weighted>
-5.1645

> <Gold.Chemscore.Metal.Weighted>
-0.0000

> <Gold.Chemscore.Lipo.Weighted>
-11.7464

> <Gold.Chemscore.Internal_Hbond.Weighted>
0.0000

> <Gold.Chemscore.DEClash.Weighted>
0.0029

> <Gold.Chemscore.DEInternal.Weighted>
1.5136

> <Gold.Chemscore.Rot.Weighted>
3.0497

> <Gold.Chemscore.Internal.Correction.Weighted>
   9.000000E+99

> <Gold.Protein.RotatedTorsions>
[ 6907 6896 6895 6894 ] final  108.38 input  -60.11 | X-H torsion
[ 7974 7965 7964 7962 ] final  147.73 input  175.53 | X-H torsion
[ 8008 7997 7996 7995 ] final  151.29 input   59.86 | X-H torsion
[ 10167 10162 10161 10158 ] final -127.62 input  -65.29 | X-H torsion
[ 10718 10713 10712 10709 ] final  -95.15 input   66.30 | X-H torsion
[ 10763 10752 10751 10750 ] final -121.90 input  -60.55 | X-H torsion
[ 11005 11000 10999 10996 ] final  151.75 input  -57.11 | X-H torsion

> <Gold.Protein.ActiveResidues>
 VAL166  LYS551  ARG553  GLY616  TRP617  ASP618  TYR619  PRO620  LYS621  CYS622 
 ASP623  PHE694  ASN695  SER759  ASP760  ASP761  ALA762  ILE779  LEU786  VAL792 
 PHE793  MET794  SER795  GLU796  ALA797  LYS798  CYS799  TRP800  GLU811  SER814 

> <Gold.Protein.RotatedAtoms>
  152.5115  133.9098  159.7481 H   0  0  0  0  0  0  0  0  0  0  0  0  # atno 6907 bound_to 6896
  150.9494  133.6558  159.2782 H   0  0  0  0  0  0  0  0  0  0  0  0  # atno 6908 bound_to 6896
  151.3842  135.0950  159.9558 H   0  0  0  0  0  0  0  0  0  0  0  0  # atno 6909 bound_to 6896
  144.8569  139.6065  143.5948 H   0  0  0  0  0  0  0  0  0  0  0  0  # atno 7974 bound_to 7965
  156.2680  140.2051  156.6153 H   0  0  0  0  0  0  0  0  0  0  0  0  # atno 8008 bound_to 7997
  154.6799  140.0541  157.0279 H   0  0  0  0  0  0  0  0  0  0  0  0  # atno 8009 bound_to 7997
  155.1015  140.3206  155.4548 H   0  0  0  0  0  0  0  0  0  0  0  0  # atno 8010 bound_to 7997
  139.9589  143.5972  152.2451 H   0  0  0  0  0  0  0  0  0  0  0  0  # atno 10167 bound_to 10162
  156.0038  130.5097  150.6033 H   0  0  0  0  0  0  0  0  0  0  0  0  # atno 10718 bound_to 10713
  154.8678  135.4152  154.2695 H   0  0  0  0  0  0  0  0  0  0  0  0  # atno 10763 bound_to 10752
  153.3607  135.7003  153.6720 H   0  0  0  0  0  0  0  0  0  0  0  0  # atno 10764 bound_to 10752
  153.5621  135.3608  155.2776 H   0  0  0  0  0  0  0  0  0  0  0  0  # atno 10765 bound_to 10752
  140.1247  134.8841  157.2120 H   0  0  0  0  0  0  0  0  0  0  0  0  # atno 11005 bound_to 11000
  146.2830  139.6927  142.9216 LP  0  0  0  0  0  0  0  0  0  0  0  0  # atno 17320 bound_to 7965
  145.4389  141.0421  143.2868 LP  0  0  0  0  0  0  0  0  0  0  0  0  # atno 17321 bound_to 7965
  139.6569  144.7662  151.2038 LP  0  0  0  0  0  0  0  0  0  0  0  0  # atno 17342 bound_to 10162
  140.7559  143.6071  150.8642 LP  0  0  0  0  0  0  0  0  0  0  0  0  # atno 17343 bound_to 10162
  157.3878  131.0791  151.1420 LP  0  0  0  0  0  0  0  0  0  0  0  0  # atno 17370 bound_to 10713
  157.2122  130.6443  149.5778 LP  0  0  0  0  0  0  0  0  0  0  0  0  # atno 17371 bound_to 10713
  140.2920  134.3230  155.7312 LP  0  0  0  0  0  0  0  0  0  0  0  0  # atno 17394 bound_to 11000
  141.2159  133.7540  156.9517 LP  0  0  0  0  0  0  0  0  0  0  0  0  # atno 17395 bound_to 11000

$$$$
