AV-unprocessed.smi:2906|AV-procd|sdf|11163|dock7
  -GOLD-   2272016 53D 1   1.00000     0.00000
 Structure written by MMmdl.
 40 41  0  0  0  0  0  0  0  0  1 V2000
  149.9439  140.4441  157.8460 C   0  0  0  0  0  0  0  0  0  0  0  0
  150.7564  141.0678  156.6999 C   0  0  0  0  0  0  0  0  0  0  0  0
  150.4472  140.4622  155.3202 C   0  0  0  0  0  0  0  0  0  0  0  0
  151.3331  139.8782  154.6940 O   0  0  0  0  0  0  0  0  0  0  0  0
  149.1958  140.5935  154.8329 N   0  0  0  0  0  0  0  0  0  0  0  0
  148.1173  141.2670  155.5514 C   0  0  0  0  0  0  0  0  0  0  0  0
  146.8404  140.9760  154.7628 C   0  0  0  0  0  0  0  0  0  0  0  0
  147.3218  140.6811  153.3449 C   0  0  2  0  0  0  0  0  0  0  0  0
  146.4297  139.7559  152.6535 N   0  0  0  0  0  0  0  0  0  0  0  0
  146.2835  138.4601  152.9643 C   0  0  0  0  0  0  0  0  0  0  0  0
  146.8937  137.9109  153.8822 O   0  0  0  0  0  0  0  0  0  0  0  0
  145.3958  137.8608  152.1515 N   0  0  0  0  0  0  0  0  0  0  0  0
  144.9681  136.5074  152.1664 C   0  0  0  0  0  0  0  0  0  0  0  0
  144.9636  135.7067  151.0948 N   0  0  0  0  0  0  0  0  0  0  0  0
  144.4958  134.4236  151.3947 C   0  0  0  0  0  0  0  0  0  0  0  0
  144.4241  133.3847  150.3171 C   0  0  0  0  0  0  0  0  0  0  0  0
  143.8513  132.0570  150.8254 C   0  0  0  0  0  0  0  0  0  0  0  0
  144.1451  134.2687  152.7139 C   0  0  0  0  0  0  0  0  0  0  0  0
  144.3907  135.7301  153.6322 S   0  0  0  0  0  0  0  0  0  0  0  0
  148.7287  140.0984  153.5396 C   0  0  0  0  0  0  0  0  0  0  0  0
  150.2121  140.8996  158.7993 H   0  0  0  0  0  0  0  0  0  0  0  0
  150.1305  139.3727  157.9296 H   0  0  0  0  0  0  0  0  0  0  0  0
  148.8728  140.5914  157.7024 H   0  0  0  0  0  0  0  0  0  0  0  0
  150.5609  142.1400  156.6648 H   0  0  0  0  0  0  0  0  0  0  0  0
  151.8188  140.9441  156.9129 H   0  0  0  0  0  0  0  0  0  0  0  0
  148.0335  140.9224  156.5834 H   0  0  0  0  0  0  0  0  0  0  0  0
  148.3196  142.3389  155.5679 H   0  0  0  0  0  0  0  0  0  0  0  0
  146.3555  140.0952  155.1868 H   0  0  0  0  0  0  0  0  0  0  0  0
  146.1250  141.7980  154.8026 H   0  0  0  0  0  0  0  0  0  0  0  0
  147.3923  141.6225  152.7966 H   0  0  0  0  0  0  0  0  0  0  0  0
  145.8904  140.1287  151.8860 H   0  0  0  0  0  0  0  0  0  0  0  0
  144.9759  138.4399  151.4395 H   0  0  0  0  0  0  0  0  0  0  0  0
  143.8115  133.7455  149.4902 H   0  0  0  0  0  0  0  0  0  0  0  0
  145.4167  133.2115  149.8999 H   0  0  0  0  0  0  0  0  0  0  0  0
  143.8065  131.3206  150.0229 H   0  0  0  0  0  0  0  0  0  0  0  0
  142.8414  132.1880  151.2147 H   0  0  0  0  0  0  0  0  0  0  0  0
  144.4671  131.6417  151.6236 H   0  0  0  0  0  0  0  0  0  0  0  0
  143.7601  133.3846  153.2003 H   0  0  0  0  0  0  0  0  0  0  0  0
  149.3874  140.3955  152.7223 H   0  0  0  0  0  0  0  0  0  0  0  0
  148.7019  139.0078  153.5736 H   0  0  0  0  0  0  0  0  0  0  0  0
  1  2  1  0  0  0  0
  1 21  1  0  0  0  0
  1 22  1  0  0  0  0
  1 23  1  0  0  0  0
  2  3  1  0  0  0  0
  2 24  1  0  0  0  0
  2 25  1  0  0  0  0
  3  4  2  0  0  0  0
  3  5  1  0  0  0  0
  5 20  1  0  0  0  0
  5  6  1  0  0  0  0
  6  7  1  0  0  0  0
  6 26  1  0  0  0  0
  6 27  1  0  0  0  0
  7  8  1  0  0  0  0
  7 28  1  0  0  0  0
  7 29  1  0  0  0  0
  8  9  1  0  0  0  0
  8 20  1  0  0  0  0
  8 30  1  0  0  0  0
  9 10  1  0  0  0  0
  9 31  1  0  0  0  0
 10 11  2  0  0  0  0
 10 12  1  0  0  0  0
 12 13  1  0  0  0  0
 12 32  1  0  0  0  0
 13 19  1  0  0  0  0
 13 14  2  0  0  0  0
 14 15  1  0  0  0  0
 15 16  1  0  0  0  0
 15 18  2  0  0  0  0
 16 17  1  0  0  0  0
 16 33  1  0  0  0  0
 16 34  1  0  0  0  0
 17 35  1  0  0  0  0
 17 36  1  0  0  0  0
 17 37  1  0  0  0  0
 18 19  1  0  0  0  0
 18 38  1  0  0  0  0
 20 39  1  0  0  0  0
 20 40  1  0  0  0  0
M  END
> <s_m_source_file>
AV-unprocessed.smi

> <i_m_source_file_index>
2906

> <i_lp_mmshare_version>
43012

> <i_f3d_flags>
0

> <s_epik_input>
W0NIM11bQ0gyXUMoPU8pTjFbQ0gyXVtDSDJdW0NASF0oW0NIMl0xKVtOSF1DKD1PKVtOSF1jMm5jKFtjSF1zMilbQ0gyXVtDSDNd

> <s_epik_cmdline>
J2VwaWtfcHl0aG9uJywgJy1waCcsICc3LjAnLCAnLXRuJywgJzgnLCAnLW1hJywgJzIwMCcsICctbWV0YWxfYmluZGluZycsICctaW1hZScsICc8aW5maWxlLm1hZT4nLCAnLW9tYWUnLCAnPG91dGZpbGUubWFlPic=

> <r_lp_tautomer_probability>
1

> <r_epik_Ionization_Penalty>
0.000174744

> <r_epik_Ionization_Penalty_Charging>
0

> <r_epik_Ionization_Penalty_Neutral>
0.000174744

> <r_epik_State_Penalty>
-0

> <r_epik_Charging_Adjusted_Penalty>
0

> <i_epik_Tot_Q>
0

> <i_epik_Tot_abs_Q>
0

> <r_epik_Metal_State_Penalty>
0.0273865

> <b_epik_Metal_Only>
0

> <s_lp_Force_Field>
OPLS_2005

> <r_lp_Energy>
21.1229

> <b_lp_Chiralities_Consistent>
1

> <s_lp_Variant>
AV-unprocessed.smi:2906-2

> <Gold.Version>
5.8.1

> <Gold.Id.Protein>
6NUR|6NUR_protein|mol2

> <Gold.PLP.Fitness>
40.0494

> <Gold.PLP.PLP>
-31.8838

> <Gold.PLP.part.hbond>
-3.9056

> <Gold.PLP.part.metal>
0.0000

> <Gold.PLP.part.buried>
-1.8557

> <Gold.PLP.part.nonpolar>
-27.8028

> <Gold.PLP.part.repulsive>
0.5044

> <Gold.PLP.ligand.clash>
0.0000

> <Gold.PLP.ligand.torsion>
0.5739

> <Gold.PLP.Chemscore.Hbond>
2.1012

> <Gold.PLP.Chemscore.CHOScore>
0.9995

> <Gold.PLP.Chemscore.Metal>
0.0000

> <Gold.Chemscore.Hbonds>
donor molecule, donor type, donor heavy atom, donor atom, acceptor molecule, acceptor atom, score
      L1  H     9    31       P1 10175  0.09
      L1  H    12    32       P1 10171  0.99
      P1  H  7989  7998       L1     4  1.00
      L1  C    18    38       P1 10957  1.00

> <Gold.PLP.Chemscore.Internal.Correction>
0.0115

> <Gold.Rescore>
     Score         DG    S(hbond)    S(metal)    S(lipo)     H(rot)  DE(clash)    DE(int)     intcor
     13.65     -15.69       2.16        0.00      56.52       1.41       0.22       1.81       ----

> <Gold.Chemscore.Fitness>
13.6512

> <Gold.Chemscore.DG>
-15.6896

> <Gold.Chemscore.ZeroCoef>
-5.4800

> <Gold.Chemscore.Hbond>
2.1579

> <Gold.Chemscore.Metal>
0.0000

> <Gold.Chemscore.Lipo>
56.5152

> <Gold.Chemscore.Internal_Hbond>
0.0000

> <Gold.Chemscore.DEClash>
0.2249

> <Gold.Chemscore.DEInternal>
1.8135

> <Gold.Chemscore.Rot>
1.4102

> <Gold.Chemscore.Internal.Correction>
   9.000000E+99

> <Gold.Chemscore.Hbonds>
donor molecule, donor type, donor heavy atom, donor atom, acceptor molecule, acceptor atom, score
      L1  H     9    31       P1 10175  0.04
      L1  H    12    32       P1 10171  0.93
      P1  H  7989  7998       L1     4  0.44

> <Gold.Chemscore.Hbond.Weighted>
-7.2074

> <Gold.Chemscore.Metal.Weighted>
-0.0000

> <Gold.Chemscore.Lipo.Weighted>
-6.6123

> <Gold.Chemscore.Internal_Hbond.Weighted>
0.0000

> <Gold.Chemscore.DEClash.Weighted>
0.2249

> <Gold.Chemscore.DEInternal.Weighted>
1.8135

> <Gold.Chemscore.Rot.Weighted>
3.6101

> <Gold.Chemscore.Internal.Correction.Weighted>
   9.000000E+99

> <Gold.Protein.RotatedTorsions>
[ 6907 6896 6895 6894 ] final  151.00 input  -60.11 | X-H torsion
[ 7974 7965 7964 7962 ] final  -80.10 input  175.53 | X-H torsion
[ 8008 7997 7996 7995 ] final -119.05 input   59.86 | X-H torsion
[ 10167 10162 10161 10158 ] final    5.33 input  -65.29 | X-H torsion
[ 10718 10713 10712 10709 ] final  -24.91 input   66.30 | X-H torsion
[ 10763 10752 10751 10750 ] final -179.07 input  -60.55 | X-H torsion
[ 11005 11000 10999 10996 ] final   55.99 input  -57.11 | X-H torsion

> <Gold.Protein.ActiveResidues>
 VAL166  LYS551  ARG553  GLY616  TRP617  ASP618  TYR619  PRO620  LYS621  CYS622 
 ASP623  PHE694  ASN695  SER759  ASP760  ASP761  ALA762  ILE779  LEU786  VAL792 
 PHE793  MET794  SER795  GLU796  ALA797  LYS798  CYS799  TRP800  GLU811  SER814 

> <Gold.Protein.RotatedAtoms>
  152.1067  133.4278  159.4611 H   0  0  0  0  0  0  0  0  0  0  0  0  # atno 6907 bound_to 6896
  150.6866  134.2696  159.4592 H   0  0  0  0  0  0  0  0  0  0  0  0  # atno 6908 bound_to 6896
  152.0562  134.9623  160.0625 H   0  0  0  0  0  0  0  0  0  0  0  0  # atno 6909 bound_to 6896
  145.5644  140.9476  143.1429 H   0  0  0  0  0  0  0  0  0  0  0  0  # atno 7974 bound_to 7965
  155.1095  140.0397  157.2720 H   0  0  0  0  0  0  0  0  0  0  0  0  # atno 8008 bound_to 7997
  154.6696  140.2609  155.6995 H   0  0  0  0  0  0  0  0  0  0  0  0  # atno 8009 bound_to 7997
  156.2653  140.2800  156.1200 H   0  0  0  0  0  0  0  0  0  0  0  0  # atno 8010 bound_to 7997
  140.6487  143.7597  150.7540 H   0  0  0  0  0  0  0  0  0  0  0  0  # atno 10167 bound_to 10162
  156.4714  130.4525  149.6867 H   0  0  0  0  0  0  0  0  0  0  0  0  # atno 10718 bound_to 10713
  154.5397  135.2805  155.1106 H   0  0  0  0  0  0  0  0  0  0  0  0  # atno 10763 bound_to 10752
  154.2593  135.6324  153.5272 H   0  0  0  0  0  0  0  0  0  0  0  0  # atno 10764 bound_to 10752
  152.9976  135.5602  154.5933 H   0  0  0  0  0  0  0  0  0  0  0  0  # atno 10765 bound_to 10752
  140.0564  134.5664  155.9203 H   0  0  0  0  0  0  0  0  0  0  0  0  # atno 11005 bound_to 11000
  144.7467  139.7301  143.7289 LP  0  0  0  0  0  0  0  0  0  0  0  0  # atno 17320 bound_to 7965
  146.1828  139.5029  142.9855 LP  0  0  0  0  0  0  0  0  0  0  0  0  # atno 17321 bound_to 7965
  140.1244  143.4583  152.2293 LP  0  0  0  0  0  0  0  0  0  0  0  0  # atno 17342 bound_to 10162
  139.5700  144.7457  151.3916 LP  0  0  0  0  0  0  0  0  0  0  0  0  # atno 17343 bound_to 10162
  156.3615  130.7484  151.2456 LP  0  0  0  0  0  0  0  0  0  0  0  0  # atno 17370 bound_to 10713
  157.7491  131.0349  150.4338 LP  0  0  0  0  0  0  0  0  0  0  0  0  # atno 17371 bound_to 10713
  141.1954  133.6587  156.5640 LP  0  0  0  0  0  0  0  0  0  0  0  0  # atno 17394 bound_to 11000
  140.3837  134.7501  157.4678 LP  0  0  0  0  0  0  0  0  0  0  0  0  # atno 17395 bound_to 11000

$$$$
