AV-unprocessed.smi:8|AV-procd|sdf|48|dock5
  -GOLD-   2262015163D 1   1.00000     0.00000
 Structure written by MMmdl.
 34 35  0  0  0  0  0  0  0  0  3 V2000
  152.1602  144.5675  160.2840 C   0  0  0  0  0  0  0  0  0  0  0  0
  152.7231  143.2020  160.7023 C   0  0  0  0  0  0  0  0  0  0  0  0
  152.4925  142.1860  159.6667 N   0  0  0  0  0  0  0  0  0  0  0  0
  151.2776  142.2407  158.9633 C   0  0  0  0  0  0  0  0  0  0  0  0
  150.9653  141.3649  157.9859 C   0  0  0  0  0  0  0  0  0  0  0  0
  149.6389  141.4150  157.2431 C   0  0  0  0  0  0  0  0  0  0  0  0
  149.8010  141.4639  155.7951 N   0  0  0  0  0  0  0  0  0  0  0  0
  148.6871  141.2272  154.9768 C   0  0  0  0  0  0  0  0  0  0  0  0
  147.7078  142.1580  154.9126 N   0  0  0  0  0  0  0  0  0  0  0  0
  146.6438  141.9442  154.1296 C   0  0  0  0  0  0  0  0  0  0  0  0
  146.4941  140.8370  153.3881 N   0  3  0  0  0  0  0  0  0  0  0  0
  147.4513  139.8785  153.4187 C   0  0  0  0  0  0  0  0  0  0  0  0
  148.5982  140.0383  154.2218 C   0  0  0  0  0  0  0  0  0  0  0  0
  149.6738  138.9680  154.2640 C   0  0  0  0  0  0  0  0  0  0  0  0
  151.9469  140.3163  157.6855 C   0  0  0  0  0  0  0  0  0  0  0  0
  151.6999  139.4794  156.8171 O   0  0  0  0  0  0  0  0  0  0  0  0
  153.1156  140.3125  158.3900 N   0  5  0  0  0  0  0  0  0  0  0  0
  153.4127  141.2231  159.3667 C   0  0  0  0  0  0  0  0  0  0  0  0
  154.4794  141.2044  159.9819 O   0  0  0  0  0  0  0  0  0  0  0  0
  152.3240  145.3093  161.0658 H   0  0  0  0  0  0  0  0  0  0  0  0
  151.0874  144.5116  160.0976 H   0  0  0  0  0  0  0  0  0  0  0  0
  152.6400  144.9322  159.3754 H   0  0  0  0  0  0  0  0  0  0  0  0
  153.7873  143.2914  160.9261 H   0  0  0  0  0  0  0  0  0  0  0  0
  152.2615  142.8913  161.6405 H   0  0  0  0  0  0  0  0  0  0  0  0
  150.6176  143.0414  159.2641 H   0  0  0  0  0  0  0  0  0  0  0  0
  149.0483  140.5394  157.5161 H   0  0  0  0  0  0  0  0  0  0  0  0
  149.0812  142.2931  157.5714 H   0  0  0  0  0  0  0  0  0  0  0  0
  150.6941  141.1542  155.4384 H   0  0  0  0  0  0  0  0  0  0  0  0
  145.8548  142.6794  154.0711 H   0  0  0  0  0  0  0  0  0  0  0  0
  147.2665  139.0139  152.7980 H   0  0  0  0  0  0  0  0  0  0  0  0
  149.4172  138.1245  153.6224 H   0  0  0  0  0  0  0  0  0  0  0  0
  149.7988  138.5945  155.2811 H   0  0  0  0  0  0  0  0  0  0  0  0
  150.6278  139.3730  153.9257 H   0  0  0  0  0  0  0  0  0  0  0  0
  145.6685  140.7086  152.8024 H   0  0  0  0  0  0  0  0  0  0  0  0
  1  2  1  0  0  0  0
  1 20  1  0  0  0  0
  1 21  1  0  0  0  0
  1 22  1  0  0  0  0
  2  3  1  0  0  0  0
  2 23  1  0  0  0  0
  2 24  1  0  0  0  0
  3 18  1  0  0  0  0
  3  4  1  0  0  0  0
  4  5  2  0  0  0  0
  4 25  1  0  0  0  0
  5  6  1  0  0  0  0
  5 15  1  0  0  0  0
  6  7  1  0  0  0  0
  6 26  1  0  0  0  0
  6 27  1  0  0  0  0
  7  8  1  0  0  0  0
  7 28  1  0  0  0  0
  8 13  1  0  0  0  0
  8  9  2  0  0  0  0
  9 10  1  0  0  0  0
 10 11  2  0  0  0  0
 10 29  1  0  0  0  0
 11 12  1  0  0  0  0
 11 34  1  0  0  0  0
 12 13  2  0  0  0  0
 12 30  1  0  0  0  0
 13 14  1  0  0  0  0
 14 31  1  0  0  0  0
 14 32  1  0  0  0  0
 14 33  1  0  0  0  0
 15 16  2  0  0  0  0
 15 17  1  0  0  0  0
 17 18  1  0  0  0  0
 18 19  2  0  0  0  0
M  CHG  1  11   1
M  CHG  1  17  -1
M  END
> <s_m_source_file>
AV-unprocessed.smi

> <i_m_source_file_index>
8

> <i_lp_mmshare_version>
43012

> <i_f3d_flags>
0

> <s_epik_input>
W0NIM11bQ0gyXW4xW2NIXWMoYyg9TylbbkhdYzE9TylbQ0gyXVtOSF1jMm5bY0hdbltjSF1jMltDSDNd

> <s_epik_cmdline>
J2VwaWtfcHl0aG9uJywgJy1waCcsICc3LjAnLCAnLXRuJywgJzgnLCAnLW1hJywgJzIwMCcsICctbWV0YWxfYmluZGluZycsICctaW1hZScsICc8aW5maWxlLm1hZT4nLCAnLW9tYWUnLCAnPG91dGZpbGUubWFlPic=

> <r_lp_tautomer_probability>
0.998874

> <r_epik_Ionization_Penalty>
7.33654

> <r_epik_Ionization_Penalty_Charging>
3.33717

> <r_epik_Ionization_Penalty_Neutral>
3.99937

> <r_epik_State_Penalty>
6.31594

> <r_epik_Charging_Adjusted_Penalty>
9.65311

> <i_epik_Tot_Q>
0

> <i_epik_Tot_abs_Q>
2

> <r_epik_Metal_State_Penalty>
2.94778

> <b_epik_Metal_Only>
1

> <s_lp_Force_Field>
OPLS_2005

> <r_lp_Energy>
21.5879

> <b_lp_Chiralities_Consistent>
1

> <s_lp_Variant>
AV-unprocessed.smi:8-4

> <Gold.Version>
5.8.1

> <Gold.Id.Protein>
6NUR|6NUR_protein|mol2

> <Gold.PLP.Fitness>
44.7838

> <Gold.PLP.PLP>
-35.4016

> <Gold.PLP.part.hbond>
-2.0000

> <Gold.PLP.part.metal>
0.0000

> <Gold.PLP.part.buried>
-4.7090

> <Gold.PLP.part.nonpolar>
-29.3691

> <Gold.PLP.part.repulsive>
1.8526

> <Gold.PLP.ligand.clash>
0.0000

> <Gold.PLP.ligand.torsion>
1.0993

> <Gold.PLP.Chemscore.Hbond>
3.8560

> <Gold.PLP.Chemscore.CHOScore>
0.0000

> <Gold.PLP.Chemscore.Metal>
0.0000

> <Gold.Chemscore.Hbonds>
donor molecule, donor type, donor heavy atom, donor atom, acceptor molecule, acceptor atom, score
      L1  H    11    34       P1 10175  2.00
      P1  H  7997  8010       L1    17  1.79

> <Gold.PLP.Chemscore.Internal.Correction>
0.0128

> <Gold.Rescore>
     Score         DG    S(hbond)    S(metal)    S(lipo)     H(rot)  DE(clash)    DE(int)     intcor
     10.82     -13.06       1.42        0.00      61.94       1.73       0.03       2.20       ----

> <Gold.Chemscore.Fitness>
10.8190

> <Gold.Chemscore.DG>
-13.0566

> <Gold.Chemscore.ZeroCoef>
-5.4800

> <Gold.Chemscore.Hbond>
1.4239

> <Gold.Chemscore.Metal>
0.0000

> <Gold.Chemscore.Lipo>
61.9399

> <Gold.Chemscore.Internal_Hbond>
0.0000

> <Gold.Chemscore.DEClash>
0.0348

> <Gold.Chemscore.DEInternal>
2.2028

> <Gold.Chemscore.Rot>
1.7290

> <Gold.Chemscore.Internal.Correction>
   9.000000E+99

> <Gold.Chemscore.Hbonds>
donor molecule, donor type, donor heavy atom, donor atom, acceptor molecule, acceptor atom, score
      L1  H    11    34       P1 10175  0.46
      P1  H  7997  8010       L1    17  0.41

> <Gold.Chemscore.Hbond.Weighted>
-4.7560

> <Gold.Chemscore.Metal.Weighted>
-0.0000

> <Gold.Chemscore.Lipo.Weighted>
-7.2470

> <Gold.Chemscore.Internal_Hbond.Weighted>
0.0000

> <Gold.Chemscore.DEClash.Weighted>
0.0348

> <Gold.Chemscore.DEInternal.Weighted>
2.2028

> <Gold.Chemscore.Rot.Weighted>
4.4263

> <Gold.Chemscore.Internal.Correction.Weighted>
   9.000000E+99

> <Gold.Protein.RotatedTorsions>
[ 6907 6896 6895 6894 ] final -168.05 input  -60.11 | X-H torsion
[ 7974 7965 7964 7962 ] final   27.35 input  175.53 | X-H torsion
[ 8008 7997 7996 7995 ] final   34.36 input   59.86 | X-H torsion
[ 10167 10162 10161 10158 ] final  -73.81 input  -65.29 | X-H torsion
[ 10718 10713 10712 10709 ] final -175.15 input   66.30 | X-H torsion
[ 10763 10752 10751 10750 ] final -153.19 input  -60.55 | X-H torsion
[ 11005 11000 10999 10996 ] final   16.96 input  -57.11 | X-H torsion

> <Gold.Protein.ActiveResidues>
 VAL166  LYS551  ARG553  GLY616  TRP617  ASP618  TYR619  PRO620  LYS621  CYS622 
 ASP623  PHE694  ASN695  SER759  ASP760  ASP761  ALA762  ILE779  LEU786  VAL792 
 PHE793  MET794  SER795  GLU796  ALA797  LYS798  CYS799  TRP800  GLU811  SER814 

> <Gold.Protein.RotatedAtoms>
  151.4693  133.3573  159.2820 H   0  0  0  0  0  0  0  0  0  0  0  0  # atno 6907 bound_to 6896
  150.8972  134.8383  159.7345 H   0  0  0  0  0  0  0  0  0  0  0  0  # atno 6908 bound_to 6896
  152.4858  134.4609  159.9657 H   0  0  0  0  0  0  0  0  0  0  0  0  # atno 6909 bound_to 6896
  146.1789  139.7203  142.8915 H   0  0  0  0  0  0  0  0  0  0  0  0  # atno 7974 bound_to 7965
  155.1535  140.3277  155.4426 H   0  0  0  0  0  0  0  0  0  0  0  0  # atno 8008 bound_to 7997
  156.2566  140.1972  156.6596 H   0  0  0  0  0  0  0  0  0  0  0  0  # atno 8009 bound_to 7997
  154.6456  140.0565  156.9882 H   0  0  0  0  0  0  0  0  0  0  0  0  # atno 8010 bound_to 7997
  140.5080  143.2349  151.7642 H   0  0  0  0  0  0  0  0  0  0  0  0  # atno 10167 bound_to 10162
  156.7956  130.9533  151.3119 H   0  0  0  0  0  0  0  0  0  0  0  0  # atno 10718 bound_to 10713
  154.7944  135.3218  154.7701 H   0  0  0  0  0  0  0  0  0  0  0  0  # atno 10763 bound_to 10752
  153.8383  135.6873  153.4810 H   0  0  0  0  0  0  0  0  0  0  0  0  # atno 10764 bound_to 10752
  153.1629  135.4653  154.9738 H   0  0  0  0  0  0  0  0  0  0  0  0  # atno 10765 bound_to 10752
  140.4413  134.1319  155.7691 H   0  0  0  0  0  0  0  0  0  0  0  0  # atno 11005 bound_to 11000
  145.4134  141.0399  143.3004 LP  0  0  0  0  0  0  0  0  0  0  0  0  # atno 17320 bound_to 7965
  144.8281  139.5675  143.6956 LP  0  0  0  0  0  0  0  0  0  0  0  0  # atno 17321 bound_to 7965
  139.4888  144.4431  151.9742 LP  0  0  0  0  0  0  0  0  0  0  0  0  # atno 17342 bound_to 10162
  140.3522  144.3075  150.5947 LP  0  0  0  0  0  0  0  0  0  0  0  0  # atno 17343 bound_to 10162
  157.6579  130.8940  149.9768 LP  0  0  0  0  0  0  0  0  0  0  0  0  # atno 17370 bound_to 10713
  156.1132  130.3649  150.0012 LP  0  0  0  0  0  0  0  0  0  0  0  0  # atno 17371 bound_to 10713
  141.1704  133.8619  157.1587 LP  0  0  0  0  0  0  0  0  0  0  0  0  # atno 17394 bound_to 11000
  140.0068  135.0005  157.0310 LP  0  0  0  0  0  0  0  0  0  0  0  0  # atno 17395 bound_to 11000

$$$$
