AV-unprocessed.smi:1376|AV-procd|sdf|5591|dock9
  -GOLD-   22720 5193D 1   1.00000     0.00000
 Structure written by MMmdl.
 42 43  0  0  0  0  0  0  0  0  1 V2000
  153.5553  139.6035  158.1571 O   0  0  0  0  0  0  0  0  0  0  0  0
  152.7230  140.3292  158.7022 C   0  0  0  0  0  0  0  0  0  0  0  0
  153.1010  141.1649  159.9329 C   0  0  0  0  0  0  0  0  0  0  0  0
  152.7395  142.5854  159.7958 N   0  0  0  0  0  0  0  0  0  0  0  0
  153.0429  143.2118  158.5705 C   0  0  0  0  0  0  0  0  0  0  0  0
  152.7560  144.5033  158.3432 C   0  0  0  0  0  0  0  0  0  0  0  0
  152.1186  145.2566  159.3967 C   0  0  0  0  0  0  0  0  0  0  0  0
  151.8199  144.6662  160.5711 C   0  0  0  0  0  0  0  0  0  0  0  0
  152.1290  143.2539  160.8230 C   0  0  0  0  0  0  0  0  0  0  0  0
  151.8574  142.7057  161.8917 O   0  0  0  0  0  0  0  0  0  0  0  0
  151.4501  140.4292  158.2905 N   0  0  0  0  0  0  0  0  0  0  0  0
  150.8755  139.7389  157.1397 C   0  0  1  0  0  0  0  0  0  0  0  0
  151.5902  140.1656  155.8423 C   0  0  0  0  0  0  0  0  0  0  0  0
  151.0586  139.3872  154.6285 C   0  0  0  0  0  0  0  0  0  0  0  0
  151.1652  137.8704  154.8501 C   0  0  0  0  0  0  0  0  0  0  0  0
  150.4348  137.4390  156.1331 C   0  0  1  0  0  0  0  0  0  0  0  0
  150.6414  136.0411  156.2909 O   0  0  0  0  0  0  0  0  0  0  0  0
  150.2984  135.2614  155.1529 C   0  0  0  0  0  0  0  0  0  0  0  0
  149.9427  133.8389  155.6003 C   0  0  0  0  0  0  0  0  0  0  0  0
  148.8949  133.8859  156.4223 F   0  0  0  0  0  0  0  0  0  0  0  0
  149.6248  133.0901  154.5448 F   0  0  0  0  0  0  0  0  0  0  0  0
  150.9694  133.2883  156.2474 F   0  0  0  0  0  0  0  0  0  0  0  0
  150.9783  138.2167  157.3498 C   0  0  0  0  0  0  0  0  0  0  0  0
  152.6294  140.7456  160.8240 H   0  0  0  0  0  0  0  0  0  0  0  0
  154.1732  141.0552  160.0999 H   0  0  0  0  0  0  0  0  0  0  0  0
  153.5125  142.5776  157.8324 H   0  0  0  0  0  0  0  0  0  0  0  0
  152.9920  144.9656  157.3961 H   0  0  0  0  0  0  0  0  0  0  0  0
  151.8783  146.2983  159.2425 H   0  0  0  0  0  0  0  0  0  0  0  0
  151.3419  145.2456  161.3474 H   0  0  0  0  0  0  0  0  0  0  0  0
  150.8347  141.0419  158.8055 H   0  0  0  0  0  0  0  0  0  0  0  0
  149.8169  139.9937  157.0581 H   0  0  0  0  0  0  0  0  0  0  0  0
  151.4616  141.2358  155.6753 H   0  0  0  0  0  0  0  0  0  0  0  0
  152.6634  139.9944  155.9382 H   0  0  0  0  0  0  0  0  0  0  0  0
  150.0177  139.6581  154.4481 H   0  0  0  0  0  0  0  0  0  0  0  0
  151.6121  139.6720  153.7332 H   0  0  0  0  0  0  0  0  0  0  0  0
  150.7505  137.3414  153.9913 H   0  0  0  0  0  0  0  0  0  0  0  0
  152.2162  137.5843  154.9110 H   0  0  0  0  0  0  0  0  0  0  0  0
  149.3704  137.6457  156.0067 H   0  0  0  0  0  0  0  0  0  0  0  0
  149.4529  135.6993  154.6225 H   0  0  0  0  0  0  0  0  0  0  0  0
  151.1382  135.2285  154.4572 H   0  0  0  0  0  0  0  0  0  0  0  0
  152.0192  137.9378  157.5205 H   0  0  0  0  0  0  0  0  0  0  0  0
  150.4332  137.9422  158.2528 H   0  0  0  0  0  0  0  0  0  0  0  0
  1  2  2  0  0  0  0
  2  3  1  0  0  0  0
  2 11  1  0  0  0  0
  3  4  1  0  0  0  0
  3 24  1  0  0  0  0
  3 25  1  0  0  0  0
  4  9  1  0  0  0  0
  4  5  1  0  0  0  0
  5  6  2  0  0  0  0
  5 26  1  0  0  0  0
  6  7  1  0  0  0  0
  6 27  1  0  0  0  0
  7  8  2  0  0  0  0
  7 28  1  0  0  0  0
  8  9  1  0  0  0  0
  8 29  1  0  0  0  0
  9 10  2  0  0  0  0
 11 12  1  0  0  0  0
 11 30  1  0  0  0  0
 12 23  1  0  0  0  0
 12 13  1  0  0  0  0
 12 31  1  0  0  0  0
 13 14  1  0  0  0  0
 13 32  1  0  0  0  0
 13 33  1  0  0  0  0
 14 15  1  0  0  0  0
 14 34  1  0  0  0  0
 14 35  1  0  0  0  0
 15 16  1  0  0  0  0
 15 36  1  0  0  0  0
 15 37  1  0  0  0  0
 16 17  1  0  0  0  0
 16 23  1  0  0  0  0
 16 38  1  0  0  0  0
 17 18  1  0  0  0  0
 18 19  1  0  0  0  0
 18 39  1  0  0  0  0
 18 40  1  0  0  0  0
 19 20  1  0  0  0  0
 19 21  1  0  0  0  0
 19 22  1  0  0  0  0
 23 41  1  0  0  0  0
 23 42  1  0  0  0  0
M  END
> <s_m_source_file>
AV-unprocessed.smi

> <i_m_source_file_index>
1376

> <i_lp_mmshare_version>
43012

> <i_f3d_flags>
0

> <s_epik_input>
Tz1jMVtjSF1bY0hdW2NIXVtjSF1uMVtDSDJdQyg9TylbTkhdW0NAQEhdMltDSDJdW0NIMl1bQ0gyXVtDQEhdKFtDSDJdMilPW0NIMl1DKEYpKEYpRg==

> <s_epik_cmdline>
J2VwaWtfcHl0aG9uJywgJy1waCcsICc3LjAnLCAnLXRuJywgJzgnLCAnLW1hJywgJzIwMCcsICctbWV0YWxfYmluZGluZycsICctaW1hZScsICc8aW5maWxlLm1hZT4nLCAnLW9tYWUnLCAnPG91dGZpbGUubWFlPic=

> <r_lp_tautomer_probability>
1

> <r_epik_Ionization_Penalty>
4.08567e-07

> <r_epik_Ionization_Penalty_Charging>
3.90028e-07

> <r_epik_Ionization_Penalty_Neutral>
1.85393e-08

> <r_epik_State_Penalty>
-0

> <r_epik_Charging_Adjusted_Penalty>
3.90028e-07

> <i_epik_Tot_Q>
0

> <i_epik_Tot_abs_Q>
0

> <r_epik_Metal_State_Penalty>
-0

> <b_epik_Metal_Only>
0

> <s_lp_Force_Field>
OPLS_2005

> <r_lp_Energy>
18.2113

> <b_lp_Chiralities_Consistent>
1

> <s_lp_Variant>
AV-unprocessed.smi:1376-2

> <Gold.Version>
5.8.1

> <Gold.Id.Protein>
6NUR|6NUR_protein|mol2

> <Gold.PLP.Fitness>
53.5711

> <Gold.PLP.PLP>
-48.9205

> <Gold.PLP.part.hbond>
-2.0000

> <Gold.PLP.part.metal>
0.0000

> <Gold.PLP.part.buried>
-5.2447

> <Gold.PLP.part.nonpolar>
-43.1233

> <Gold.PLP.part.repulsive>
0.4781

> <Gold.PLP.ligand.clash>
0.0000

> <Gold.PLP.ligand.torsion>
0.4197

> <Gold.PLP.Chemscore.Hbond>
1.8143

> <Gold.PLP.Chemscore.CHOScore>
0.0000

> <Gold.PLP.Chemscore.Metal>
0.0000

> <Gold.Chemscore.Hbonds>
donor molecule, donor type, donor heavy atom, donor atom, acceptor molecule, acceptor atom, score
      P1  H  6933  6945       L1    10  0.74
      P1  H  7997  8009       L1     1  1.00

> <Gold.PLP.Chemscore.Internal.Correction>
0.0470

> <Gold.Rescore>
     Score         DG    S(hbond)    S(metal)    S(lipo)     H(rot)  DE(clash)    DE(int)     intcor
     16.63     -18.20       1.87        0.00     102.89       2.18       0.21       1.35       ----

> <Gold.Chemscore.Fitness>
16.6318

> <Gold.Chemscore.DG>
-18.1977

> <Gold.Chemscore.ZeroCoef>
-5.4800

> <Gold.Chemscore.Hbond>
1.8740

> <Gold.Chemscore.Metal>
0.0000

> <Gold.Chemscore.Lipo>
102.8941

> <Gold.Chemscore.Internal_Hbond>
0.0000

> <Gold.Chemscore.DEClash>
0.2118

> <Gold.Chemscore.DEInternal>
1.3541

> <Gold.Chemscore.Rot>
2.1797

> <Gold.Chemscore.Internal.Correction>
   9.000000E+99

> <Gold.Chemscore.Hbonds>
donor molecule, donor type, donor heavy atom, donor atom, acceptor molecule, acceptor atom, score
      P1  H  6933  6945       L1    10  0.70
      P1  H  7997  8009       L1     1  0.98

> <Gold.Chemscore.Hbond.Weighted>
-6.2593

> <Gold.Chemscore.Metal.Weighted>
-0.0000

> <Gold.Chemscore.Lipo.Weighted>
-12.0386

> <Gold.Chemscore.Internal_Hbond.Weighted>
0.0000

> <Gold.Chemscore.DEClash.Weighted>
0.2118

> <Gold.Chemscore.DEInternal.Weighted>
1.3541

> <Gold.Chemscore.Rot.Weighted>
5.5802

> <Gold.Chemscore.Internal.Correction.Weighted>
   9.000000E+99

> <Gold.Protein.RotatedTorsions>
[ 6907 6896 6895 6894 ] final -101.89 input  -60.11 | X-H torsion
[ 7974 7965 7964 7962 ] final -119.15 input  175.53 | X-H torsion
[ 8008 7997 7996 7995 ] final  160.62 input   59.86 | X-H torsion
[ 10167 10162 10161 10158 ] final    4.38 input  -65.29 | X-H torsion
[ 10718 10713 10712 10709 ] final  -86.87 input   66.30 | X-H torsion
[ 10763 10752 10751 10750 ] final  -13.09 input  -60.55 | X-H torsion
[ 11005 11000 10999 10996 ] final  150.10 input  -57.11 | X-H torsion

> <Gold.Protein.ActiveResidues>
 VAL166  LYS551  ARG553  GLY616  TRP617  ASP618  TYR619  PRO620  LYS621  CYS622 
 ASP623  PHE694  ASN695  SER759  ASP760  ASP761  ALA762  ILE779  LEU786  VAL792 
 PHE793  MET794  SER795  GLU796  ALA797  LYS798  CYS799  TRP800  GLU811  SER814 

> <Gold.Protein.RotatedAtoms>
  150.7173  134.0665  159.3849 H   0  0  0  0  0  0  0  0  0  0  0  0  # atno 6907 bound_to 6896
  151.8646  135.0509  160.0482 H   0  0  0  0  0  0  0  0  0  0  0  0  # atno 6908 bound_to 6896
  152.2691  133.5330  159.5464 H   0  0  0  0  0  0  0  0  0  0  0  0  # atno 6909 bound_to 6896
  145.0657  140.8323  143.4125 H   0  0  0  0  0  0  0  0  0  0  0  0  # atno 7974 bound_to 7965
  156.2160  140.1799  156.7588 H   0  0  0  0  0  0  0  0  0  0  0  0  # atno 8008 bound_to 7997
  154.5792  140.0669  156.9108 H   0  0  0  0  0  0  0  0  0  0  0  0  # atno 8009 bound_to 7997
  155.2533  140.3330  155.4282 H   0  0  0  0  0  0  0  0  0  0  0  0  # atno 8010 bound_to 7997
  140.6538  143.7479  150.7619 H   0  0  0  0  0  0  0  0  0  0  0  0  # atno 10167 bound_to 10162
  155.9987  130.4780  150.4780 H   0  0  0  0  0  0  0  0  0  0  0  0  # atno 10718 bound_to 10713
  153.5082  135.7016  153.5795 H   0  0  0  0  0  0  0  0  0  0  0  0  # atno 10763 bound_to 10752
  153.3897  135.3899  155.1914 H   0  0  0  0  0  0  0  0  0  0  0  0  # atno 10764 bound_to 10752
  154.8705  135.3855  154.4559 H   0  0  0  0  0  0  0  0  0  0  0  0  # atno 10765 bound_to 10752
  140.1102  134.8929  157.1925 H   0  0  0  0  0  0  0  0  0  0  0  0  # atno 11005 bound_to 11000
  145.1353  139.2606  143.5518 LP  0  0  0  0  0  0  0  0  0  0  0  0  # atno 17320 bound_to 7965
  146.3526  140.1016  142.8608 LP  0  0  0  0  0  0  0  0  0  0  0  0  # atno 17321 bound_to 7965
  140.1135  143.4677  152.2356 LP  0  0  0  0  0  0  0  0  0  0  0  0  # atno 17342 bound_to 10162
  139.5757  144.7486  151.3772 LP  0  0  0  0  0  0  0  0  0  0  0  0  # atno 17343 bound_to 10162
  157.2788  131.0602  151.2211 LP  0  0  0  0  0  0  0  0  0  0  0  0  # atno 17370 bound_to 10713
  157.3265  130.6963  149.6299 LP  0  0  0  0  0  0  0  0  0  0  0  0  # atno 17371 bound_to 10713
  140.3101  134.3033  155.7269 LP  0  0  0  0  0  0  0  0  0  0  0  0  # atno 17394 bound_to 11000
  141.2128  133.7645  156.9764 LP  0  0  0  0  0  0  0  0  0  0  0  0  # atno 17395 bound_to 11000

$$$$
