AV-unprocessed.smi:21|AV-procd|sdf|127|dock3
  -GOLD-   2262015303D 1   1.00000     0.00000
 Structure written by MMmdl.
 62 65  0  0  0  0  0  0  0  0  2 V2000
  144.3127  133.3037  150.7418 C   0  0  0  0  0  0  0  0  0  0  0  0
  143.8155  134.6072  150.9995 O   0  0  0  0  0  0  0  0  0  0  0  0
  143.6613  134.8995  152.3823 C   0  0  1  0  0  0  0  0  0  0  0  0
  144.9696  135.4703  152.9146 C   0  0  0  0  0  0  0  0  0  0  0  0
  144.9354  136.9490  152.5035 C   0  0  2  0  0  0  0  0  0  0  0  0
  145.7779  137.8664  153.4273 C   0  0  0  0  0  0  0  0  0  0  0  0
  146.5385  138.8769  152.6922 N   0  0  0  0  0  0  0  0  0  0  0  0
  146.2702  139.0322  151.2628 C   0  0  0  0  0  0  0  0  0  0  0  0
  147.2092  139.8692  153.3511 C   0  0  0  0  0  0  0  0  0  0  0  0
  146.6882  141.1265  153.3181 N   0  0  0  0  0  0  0  0  0  0  0  0
  147.2843  142.1382  153.9530 C   0  0  0  0  0  0  0  0  0  0  0  0
  148.4015  142.1218  154.6779 N   0  0  0  0  0  0  0  0  0  0  0  0
  148.9425  140.8721  154.7165 C   0  0  0  0  0  0  0  0  0  0  0  0
  148.4256  139.7013  154.0866 C   0  0  0  0  0  0  0  0  0  0  0  0
  149.2733  138.6289  154.3548 N   0  0  0  0  0  0  0  0  0  0  0  0
  150.2198  139.1310  155.0983 C   0  0  0  0  0  0  0  0  0  0  0  0
  150.0912  140.4711  155.3740 N   0  0  0  0  0  0  0  0  0  0  0  0
  150.9838  141.2878  156.1762 C   0  0  0  0  0  0  0  0  0  0  0  0
  150.8806  141.0165  157.7011 C   0  0  1  0  0  0  0  0  0  0  0  0
  151.9606  140.0198  158.1954 C   0  0  0  0  0  0  0  0  0  0  0  0
  152.3879  139.1431  157.1726 O   0  0  0  0  0  0  0  0  0  0  0  0
  150.9450  142.3512  158.4898 C   0  0  2  0  0  0  0  0  0  0  0  0
  151.6431  143.4941  157.7695 C   0  0  0  0  0  0  0  0  0  0  0  0
  151.9748  144.4504  158.9096 C   0  0  0  0  0  0  0  0  0  0  0  0
  152.1888  143.6307  160.0520 O   0  0  0  0  0  0  0  0  0  0  0  0
  151.7812  142.2953  159.7746 C   0  0  0  0  0  0  0  0  0  0  0  0
  143.4909  137.3013  152.3789 N   0  3  2  0  0  0  0  0  0  0  0  0
  142.9903  138.4641  153.1485 C   0  0  0  0  0  0  0  0  0  0  0  0
  142.6966  136.0702  152.5905 C   0  0  0  0  0  0  0  0  0  0  0  0
  143.3674  134.0075  152.9386 H   0  0  0  0  0  0  0  0  0  0  0  0
  145.3236  137.0164  151.4869 H   0  0  0  0  0  0  0  0  0  0  0  0
  144.3878  133.1499  149.6657 H   0  0  0  0  0  0  0  0  0  0  0  0
  143.6573  132.5313  151.1442 H   0  0  0  0  0  0  0  0  0  0  0  0
  145.3082  133.1729  151.1679 H   0  0  0  0  0  0  0  0  0  0  0  0
  144.9783  135.3865  154.0023 H   0  0  0  0  0  0  0  0  0  0  0  0
  145.8473  134.9451  152.5362 H   0  0  0  0  0  0  0  0  0  0  0  0
  145.1646  138.3638  154.1752 H   0  0  0  0  0  0  0  0  0  0  0  0
  146.4752  137.2558  154.0014 H   0  0  0  0  0  0  0  0  0  0  0  0
  147.1990  139.1767  150.7096 H   0  0  0  0  0  0  0  0  0  0  0  0
  145.6217  139.8902  151.0818 H   0  0  0  0  0  0  0  0  0  0  0  0
  145.7789  138.1505  150.8514 H   0  0  0  0  0  0  0  0  0  0  0  0
  146.7943  143.0971  153.8696 H   0  0  0  0  0  0  0  0  0  0  0  0
  151.0362  138.5328  155.4761 H   0  0  0  0  0  0  0  0  0  0  0  0
  152.0065  141.1242  155.8343 H   0  0  0  0  0  0  0  0  0  0  0  0
  150.7480  142.3275  155.9501 H   0  0  0  0  0  0  0  0  0  0  0  0
  149.9030  140.5755  157.9027 H   0  0  0  0  0  0  0  0  0  0  0  0
  152.8203  140.5509  158.6049 H   0  0  0  0  0  0  0  0  0  0  0  0
  151.5773  139.3853  158.9925 H   0  0  0  0  0  0  0  0  0  0  0  0
  151.7954  139.2259  156.4409 H   0  0  0  0  0  0  0  0  0  0  0  0
  149.9338  142.6704  158.7477 H   0  0  0  0  0  0  0  0  0  0  0  0
  152.5621  143.1427  157.2977 H   0  0  0  0  0  0  0  0  0  0  0  0
  151.0279  143.9708  157.0065 H   0  0  0  0  0  0  0  0  0  0  0  0
  152.8454  145.0699  158.6936 H   0  0  0  0  0  0  0  0  0  0  0  0
  151.1302  145.1106  159.1108 H   0  0  0  0  0  0  0  0  0  0  0  0
  151.2281  141.8789  160.6167 H   0  0  0  0  0  0  0  0  0  0  0  0
  152.6767  141.6899  159.6269 H   0  0  0  0  0  0  0  0  0  0  0  0
  143.1185  138.3198  154.2221 H   0  0  0  0  0  0  0  0  0  0  0  0
  141.9273  138.6097  152.9550 H   0  0  0  0  0  0  0  0  0  0  0  0
  143.4999  139.3805  152.8503 H   0  0  0  0  0  0  0  0  0  0  0  0
  141.8227  136.0412  151.9407 H   0  0  0  0  0  0  0  0  0  0  0  0
  142.3379  136.0476  153.6209 H   0  0  0  0  0  0  0  0  0  0  0  0
  143.3677  137.5415  151.4055 H   0  0  0  0  0  0  0  0  0  0  0  0
  1  2  1  0  0  0  0
  1 32  1  0  0  0  0
  1 33  1  0  0  0  0
  1 34  1  0  0  0  0
  2  3  1  0  0  0  0
  3 30  1  0  0  0  0
  3 29  1  0  0  0  0
  3  4  1  0  0  0  0
  4  5  1  0  0  0  0
  4 35  1  0  0  0  0
  4 36  1  0  0  0  0
  5 31  1  0  0  0  0
  5  6  1  0  0  0  0
  5 27  1  0  0  0  0
  6  7  1  0  0  0  0
  6 37  1  0  0  0  0
  6 38  1  0  0  0  0
  7  8  1  0  0  0  0
  7  9  1  0  0  0  0
  8 39  1  0  0  0  0
  8 40  1  0  0  0  0
  8 41  1  0  0  0  0
  9 14  1  0  0  0  0
  9 10  2  0  0  0  0
 10 11  1  0  0  0  0
 11 12  2  0  0  0  0
 11 42  1  0  0  0  0
 12 13  1  0  0  0  0
 13 17  1  0  0  0  0
 13 14  2  0  0  0  0
 14 15  1  0  0  0  0
 15 16  2  0  0  0  0
 16 17  1  0  0  0  0
 16 43  1  0  0  0  0
 17 18  1  0  0  0  0
 18 19  1  0  0  0  0
 18 44  1  0  0  0  0
 18 45  1  0  0  0  0
 19 20  1  0  0  0  0
 19 22  1  0  0  0  0
 19 46  1  0  0  0  0
 20 21  1  0  0  0  0
 20 47  1  0  0  0  0
 20 48  1  0  0  0  0
 21 49  1  0  0  0  0
 22 26  1  0  0  0  0
 22 23  1  0  0  0  0
 22 50  1  0  0  0  0
 23 24  1  0  0  0  0
 23 51  1  0  0  0  0
 23 52  1  0  0  0  0
 24 25  1  0  0  0  0
 24 53  1  0  0  0  0
 24 54  1  0  0  0  0
 25 26  1  0  0  0  0
 26 55  1  0  0  0  0
 26 56  1  0  0  0  0
 27 28  1  0  0  0  0
 27 29  1  0  0  0  0
 27 62  1  0  0  0  0
 28 57  1  0  0  0  0
 28 58  1  0  0  0  0
 28 59  1  0  0  0  0
 29 60  1  0  0  0  0
 29 61  1  0  0  0  0
M  CHG  1  27   1
M  END
> <s_m_source_file>
AV-unprocessed.smi

> <i_m_source_file_index>
21

> <i_lp_mmshare_version>
43012

> <i_f3d_flags>
0

> <s_epik_input>
W0NIM11PW0NASF0xW0NIMl1bQ0BIXShOKFtDSDNdKVtDSDJdMSlbQ0gyXU4oW0NIM10pYyhuW2NIXW4yKWMoYzIzKW5bY0hdbjNbQ0gyXVtDQEhdKFtDSDJdW09IXSlbQ0BASF00W0NIMl1bQ0gyXU9bQ0gyXTQ=

> <s_epik_cmdline>
J2VwaWtfcHl0aG9uJywgJy1waCcsICc3LjAnLCAnLXRuJywgJzgnLCAnLW1hJywgJzIwMCcsICctbWV0YWxfYmluZGluZycsICctaW1hZScsICc8aW5maWxlLm1hZT4nLCAnLW9tYWUnLCAnPG91dGZpbGUubWFlPic=

> <r_lp_tautomer_probability>
1

> <r_epik_Ionization_Penalty>
0.0157465

> <r_epik_Ionization_Penalty_Charging>
0.015354

> <r_epik_Ionization_Penalty_Neutral>
0.000392529

> <r_epik_State_Penalty>
0.0120612

> <r_epik_Charging_Adjusted_Penalty>
0.0274152

> <i_epik_Tot_Q>
1

> <i_epik_Tot_abs_Q>
1

> <r_epik_Metal_State_Penalty>
0.0121253

> <b_epik_Metal_Only>
0

> <s_lp_Force_Field>
OPLS_2005

> <r_lp_Energy>
61.4457

> <b_lp_Chiralities_Consistent>
1

> <s_lp_Variant>
AV-unprocessed.smi:21-7

> <Gold.Version>
5.8.1

> <Gold.Id.Protein>
6NUR|6NUR_protein|mol2

> <Gold.PLP.Fitness>
47.8165

> <Gold.PLP.PLP>
-49.6656

> <Gold.PLP.part.hbond>
-2.0000

> <Gold.PLP.part.metal>
0.0000

> <Gold.PLP.part.buried>
0.0769

> <Gold.PLP.part.nonpolar>
-49.8710

> <Gold.PLP.part.repulsive>
2.5898

> <Gold.PLP.ligand.clash>
0.0000

> <Gold.PLP.ligand.torsion>
4.3387

> <Gold.PLP.Chemscore.Hbond>
1.9913

> <Gold.PLP.Chemscore.CHOScore>
0.0000

> <Gold.PLP.Chemscore.Metal>
0.0000

> <Gold.Chemscore.Hbonds>
donor molecule, donor type, donor heavy atom, donor atom, acceptor molecule, acceptor atom, score
      L1  H    27    62       P1 10171  1.00
      P1  H  7997  8008       L1    21  0.24

> <Gold.PLP.Chemscore.Internal.Correction>
0.8546

> <Gold.Rescore>
     Score         DG    S(hbond)    S(metal)    S(lipo)     H(rot)  DE(clash)    DE(int)     intcor
      7.29     -15.10       1.55        0.00     105.23       3.08       3.55       4.27       ----

> <Gold.Chemscore.Fitness>
7.2903

> <Gold.Chemscore.DG>
-15.1034

> <Gold.Chemscore.ZeroCoef>
-5.4800

> <Gold.Chemscore.Hbond>
1.5525

> <Gold.Chemscore.Metal>
0.0000

> <Gold.Chemscore.Lipo>
105.2332

> <Gold.Chemscore.Internal_Hbond>
0.0000

> <Gold.Chemscore.DEClash>
3.5463

> <Gold.Chemscore.DEInternal>
4.2668

> <Gold.Chemscore.Rot>
3.0758

> <Gold.Chemscore.Internal.Correction>
   9.000000E+99

> <Gold.Chemscore.Hbonds>
donor molecule, donor type, donor heavy atom, donor atom, acceptor molecule, acceptor atom, score
      L1  H    27    62       P1 10171  0.86
      P1  H  7997  8008       L1    21  0.04

> <Gold.Chemscore.Hbond.Weighted>
-5.1853

> <Gold.Chemscore.Metal.Weighted>
-0.0000

> <Gold.Chemscore.Lipo.Weighted>
-12.3123

> <Gold.Chemscore.Internal_Hbond.Weighted>
0.0000

> <Gold.Chemscore.DEClash.Weighted>
3.5463

> <Gold.Chemscore.DEInternal.Weighted>
4.2668

> <Gold.Chemscore.Rot.Weighted>
7.8741

> <Gold.Chemscore.Internal.Correction.Weighted>
   9.000000E+99

> <Gold.Protein.RotatedTorsions>
[ 6907 6896 6895 6894 ] final -116.65 input  -60.11 | X-H torsion
[ 7974 7965 7964 7962 ] final -126.25 input  175.53 | X-H torsion
[ 8008 7997 7996 7995 ] final  -42.31 input   59.86 | X-H torsion
[ 10167 10162 10161 10158 ] final   47.30 input  -65.29 | X-H torsion
[ 10718 10713 10712 10709 ] final   51.84 input   66.30 | X-H torsion
[ 10763 10752 10751 10750 ] final  133.52 input  -60.55 | X-H torsion
[ 11005 11000 10999 10996 ] final   55.55 input  -57.11 | X-H torsion

> <Gold.Protein.ActiveResidues>
 VAL166  LYS551  ARG553  GLY616  TRP617  ASP618  TYR619  PRO620  LYS621  CYS622 
 ASP623  PHE694  ASN695  SER759  ASP760  ASP761  ALA762  ILE779  LEU786  VAL792 
 PHE793  MET794  SER795  GLU796  ALA797  LYS798  CYS799  TRP800  GLU811  SER814 

> <Gold.Protein.RotatedAtoms>
  150.8073  133.8486  159.3198 H   0  0  0  0  0  0  0  0  0  0  0  0  # atno 6907 bound_to 6896
  151.6281  135.1024  160.0125 H   0  0  0  0  0  0  0  0  0  0  0  0  # atno 6908 bound_to 6896
  152.4164  133.7005  159.6478 H   0  0  0  0  0  0  0  0  0  0  0  0  # atno 6909 bound_to 6896
  144.9892  140.7715  143.4564 H   0  0  0  0  0  0  0  0  0  0  0  0  # atno 7974 bound_to 7965
  154.3999  140.1477  156.3334 H   0  0  0  0  0  0  0  0  0  0  0  0  # atno 8008 bound_to 7997
  155.8422  140.3461  155.5618 H   0  0  0  0  0  0  0  0  0  0  0  0  # atno 8009 bound_to 7997
  155.8074  140.0879  157.1913 H   0  0  0  0  0  0  0  0  0  0  0  0  # atno 8010 bound_to 7997
  140.3051  144.2888  150.6211 H   0  0  0  0  0  0  0  0  0  0  0  0  # atno 10167 bound_to 10162
  157.5019  130.8443  149.8327 H   0  0  0  0  0  0  0  0  0  0  0  0  # atno 10718 bound_to 10713
  153.8084  135.3132  155.3398 H   0  0  0  0  0  0  0  0  0  0  0  0  # atno 10763 bound_to 10752
  154.8061  135.4697  154.0399 H   0  0  0  0  0  0  0  0  0  0  0  0  # atno 10764 bound_to 10752
  153.1769  135.6887  153.8618 H   0  0  0  0  0  0  0  0  0  0  0  0  # atno 10765 bound_to 10752
  140.0598  134.5618  155.9165 H   0  0  0  0  0  0  0  0  0  0  0  0  # atno 11005 bound_to 11000
  145.2310  139.2115  143.5043 LP  0  0  0  0  0  0  0  0  0  0  0  0  # atno 17320 bound_to 7965
  146.3427  140.2187  142.8591 LP  0  0  0  0  0  0  0  0  0  0  0  0  # atno 17321 bound_to 7965
  140.5617  143.2191  151.7753 LP  0  0  0  0  0  0  0  0  0  0  0  0  # atno 17342 bound_to 10162
  139.4906  144.4339  151.9841 LP  0  0  0  0  0  0  0  0  0  0  0  0  # atno 17343 bound_to 10162
  156.0234  130.3787  150.1893 LP  0  0  0  0  0  0  0  0  0  0  0  0  # atno 17370 bound_to 10713
  157.0083  130.9943  151.3372 LP  0  0  0  0  0  0  0  0  0  0  0  0  # atno 17371 bound_to 10713
  141.1968  133.6593  156.5710 LP  0  0  0  0  0  0  0  0  0  0  0  0  # atno 17394 bound_to 11000
  140.3788  134.7542  157.4647 LP  0  0  0  0  0  0  0  0  0  0  0  0  # atno 17395 bound_to 11000

$$$$
