AV-unprocessed.smi:1012|AV-procd|sdf|4424|dock2
  -GOLD-   22720 2373D 1   1.00000     0.00000
 Structure written by MMmdl.
 44 46  0  0  0  0  0  0  0  0  2 V2000
  148.2349  132.8959  152.2269 C   0  0  0  0  0  0  0  0  0  0  0  0
  148.8885  133.8732  153.0236 O   0  0  0  0  0  0  0  0  0  0  0  0
  149.5574  133.4595  154.1582 C   0  0  0  0  0  0  0  0  0  0  0  0
  149.7260  132.0939  154.5056 C   0  0  0  0  0  0  0  0  0  0  0  0
  150.4183  131.7294  155.6757 C   0  0  0  0  0  0  0  0  0  0  0  0
  150.9531  132.7205  156.5162 C   0  0  0  0  0  0  0  0  0  0  0  0
  150.7934  134.0773  156.1840 C   0  0  0  0  0  0  0  0  0  0  0  0
  150.0983  134.4518  155.0147 C   0  0  0  0  0  0  0  0  0  0  0  0
  149.9658  135.9329  154.6992 C   0  0  0  0  0  0  0  0  0  0  0  0
  151.1673  136.6308  154.9823 O   0  0  0  0  0  0  0  0  0  0  0  0
  151.0340  138.0350  154.8381 C   0  0  0  0  0  0  0  0  0  0  0  0
  152.2709  138.7178  155.4382 C   0  0  2  0  0  0  0  0  0  0  0  0
  153.3359  137.7883  155.4632 O   0  0  0  0  0  0  0  0  0  0  0  0
  152.0170  139.2536  156.8613 C   0  0  0  0  0  0  0  0  0  0  0  0
  151.4702  140.6166  156.8636 N   0  0  0  0  0  0  0  0  0  0  0  0
  150.8430  141.3121  155.8766 C   0  0  0  0  0  0  0  0  0  0  0  0
  150.5184  142.5357  156.3794 N   0  3  0  0  0  0  0  0  0  0  0  0
  150.9456  142.6228  157.7066 C   0  0  0  0  0  0  0  0  0  0  0  0
  150.8441  143.6559  158.6325 C   0  0  0  0  0  0  0  0  0  0  0  0
  151.3860  143.4172  159.9129 C   0  0  0  0  0  0  0  0  0  0  0  0
  151.3134  144.3895  160.8524 F   0  0  0  0  0  0  0  0  0  0  0  0
  152.0006  142.1875  160.2325 C   0  0  0  0  0  0  0  0  0  0  0  0
  152.5076  141.9998  161.4740 F   0  0  0  0  0  0  0  0  0  0  0  0
  152.0979  141.1472  159.2849 C   0  0  0  0  0  0  0  0  0  0  0  0
  151.5590  141.3929  158.0231 C   0  0  0  0  0  0  0  0  0  0  0  0
  147.7567  133.3863  151.3793 H   0  0  0  0  0  0  0  0  0  0  0  0
  147.4566  132.3776  152.7887 H   0  0  0  0  0  0  0  0  0  0  0  0
  148.9423  132.1670  151.8293 H   0  0  0  0  0  0  0  0  0  0  0  0
  149.3328  131.3006  153.8885 H   0  0  0  0  0  0  0  0  0  0  0  0
  150.5397  130.6862  155.9273 H   0  0  0  0  0  0  0  0  0  0  0  0
  151.4862  132.4411  157.4131 H   0  0  0  0  0  0  0  0  0  0  0  0
  151.2081  134.8359  156.8317 H   0  0  0  0  0  0  0  0  0  0  0  0
  149.7258  136.0316  153.6393 H   0  0  0  0  0  0  0  0  0  0  0  0
  149.1425  136.3864  155.2510 H   0  0  0  0  0  0  0  0  0  0  0  0
  150.9197  138.3038  153.7865 H   0  0  0  0  0  0  0  0  0  0  0  0
  150.1352  138.3657  155.3615 H   0  0  0  0  0  0  0  0  0  0  0  0
  152.5708  139.5370  154.7838 H   0  0  0  0  0  0  0  0  0  0  0  0
  154.1469  138.2643  155.5565 H   0  0  0  0  0  0  0  0  0  0  0  0
  151.3289  138.6074  157.4081 H   0  0  0  0  0  0  0  0  0  0  0  0
  152.9457  139.2700  157.4335 H   0  0  0  0  0  0  0  0  0  0  0  0
  150.6354  140.9560  154.8776 H   0  0  0  0  0  0  0  0  0  0  0  0
  150.3738  144.5980  158.3925 H   0  0  0  0  0  0  0  0  0  0  0  0
  152.5677  140.2084  159.5390 H   0  0  0  0  0  0  0  0  0  0  0  0
  150.0377  143.2546  155.8535 H   0  0  0  0  0  0  0  0  0  0  0  0
  1  2  1  0  0  0  0
  1 26  1  0  0  0  0
  1 27  1  0  0  0  0
  1 28  1  0  0  0  0
  2  3  1  0  0  0  0
  3  8  1  0  0  0  0
  3  4  2  0  0  0  0
  4  5  1  0  0  0  0
  4 29  1  0  0  0  0
  5  6  2  0  0  0  0
  5 30  1  0  0  0  0
  6  7  1  0  0  0  0
  6 31  1  0  0  0  0
  7  8  2  0  0  0  0
  7 32  1  0  0  0  0
  8  9  1  0  0  0  0
  9 10  1  0  0  0  0
  9 33  1  0  0  0  0
  9 34  1  0  0  0  0
 10 11  1  0  0  0  0
 11 12  1  0  0  0  0
 11 35  1  0  0  0  0
 11 36  1  0  0  0  0
 12 13  1  0  0  0  0
 12 14  1  0  0  0  0
 12 37  1  0  0  0  0
 13 38  1  0  0  0  0
 14 15  1  0  0  0  0
 14 39  1  0  0  0  0
 14 40  1  0  0  0  0
 15 25  1  0  0  0  0
 15 16  1  0  0  0  0
 16 17  2  0  0  0  0
 16 41  1  0  0  0  0
 17 18  1  0  0  0  0
 17 44  1  0  0  0  0
 18 25  2  0  0  0  0
 18 19  1  0  0  0  0
 19 20  2  0  0  0  0
 19 42  1  0  0  0  0
 20 21  1  0  0  0  0
 20 22  1  0  0  0  0
 22 23  1  0  0  0  0
 22 24  2  0  0  0  0
 24 25  1  0  0  0  0
 24 43  1  0  0  0  0
M  CHG  1  17   1
M  END
> <s_m_source_file>
AV-unprocessed.smi

> <i_m_source_file_index>
1012

> <i_lp_mmshare_version>
43012

> <i_f3d_flags>
0

> <s_epik_input>
W0NIM11PYzFbY0hdW2NIXVtjSF1bY0hdYzFbQ0gyXU9bQ0gyXVtDQEhdKFtPSF0pW0NIMl1uKFtjSF1uMiljKGMyMylbY0hdYyhGKWMoRilbY0hdMw==

> <s_epik_cmdline>
J2VwaWtfcHl0aG9uJywgJy1waCcsICc3LjAnLCAnLXRuJywgJzgnLCAnLW1hJywgJzIwMCcsICctbWV0YWxfYmluZGluZycsICctaW1hZScsICc8aW5maWxlLm1hZT4nLCAnLW9tYWUnLCAnPG91dGZpbGUubWFlPic=

> <r_lp_tautomer_probability>
1

> <r_epik_Ionization_Penalty>
2.14697

> <r_epik_Ionization_Penalty_Charging>
2.14697

> <r_epik_Ionization_Penalty_Neutral>
1.07667e-06

> <r_epik_State_Penalty>
2.28651

> <r_epik_Charging_Adjusted_Penalty>
4.43348

> <i_epik_Tot_Q>
1

> <i_epik_Tot_abs_Q>
1

> <r_epik_Metal_State_Penalty>
6.36664

> <b_epik_Metal_Only>
0

> <s_lp_Force_Field>
OPLS_2005

> <r_lp_Energy>
22.239

> <b_lp_Chiralities_Consistent>
1

> <s_lp_Variant>
AV-unprocessed.smi:1012-3

> <Gold.Version>
5.8.1

> <Gold.Id.Protein>
6NUR|6NUR_protein|mol2

> <Gold.PLP.Fitness>
62.6040

> <Gold.PLP.PLP>
-56.5021

> <Gold.PLP.part.hbond>
-3.0000

> <Gold.PLP.part.metal>
0.0000

> <Gold.PLP.part.buried>
-7.4407

> <Gold.PLP.part.nonpolar>
-46.5175

> <Gold.PLP.part.repulsive>
0.7089

> <Gold.PLP.ligand.clash>
0.0000

> <Gold.PLP.ligand.torsion>
1.4945

> <Gold.PLP.Chemscore.Hbond>
3.0000

> <Gold.PLP.Chemscore.CHOScore>
0.0000

> <Gold.PLP.Chemscore.Metal>
0.0000

> <Gold.Chemscore.Hbonds>
donor molecule, donor type, donor heavy atom, donor atom, acceptor molecule, acceptor atom, score
      L1  H    17    44       P1  8028  2.00
      P1  H 10752 10764       L1    10  0.84

> <Gold.PLP.Chemscore.Internal.Correction>
0.0908

> <Gold.Rescore>
     Score         DG    S(hbond)    S(metal)    S(lipo)     H(rot)  DE(clash)    DE(int)     intcor
     17.10     -18.53       1.91        0.00     123.10       3.03       0.08       1.35       ----

> <Gold.Chemscore.Fitness>
17.0999

> <Gold.Chemscore.DG>
-18.5255

> <Gold.Chemscore.ZeroCoef>
-5.4800

> <Gold.Chemscore.Hbond>
1.9143

> <Gold.Chemscore.Metal>
0.0000

> <Gold.Chemscore.Lipo>
123.1015

> <Gold.Chemscore.Internal_Hbond>
0.0000

> <Gold.Chemscore.DEClash>
0.0763

> <Gold.Chemscore.DEInternal>
1.3493

> <Gold.Chemscore.Rot>
3.0278

> <Gold.Chemscore.Internal.Correction>
   9.000000E+99

> <Gold.Chemscore.Hbonds>
donor molecule, donor type, donor heavy atom, donor atom, acceptor molecule, acceptor atom, score
      L1  H    17    44       P1  8028  0.98
      P1  H 10752 10764       L1    10  0.75

> <Gold.Chemscore.Hbond.Weighted>
-6.3938

> <Gold.Chemscore.Metal.Weighted>
-0.0000

> <Gold.Chemscore.Lipo.Weighted>
-14.4029

> <Gold.Chemscore.Internal_Hbond.Weighted>
0.0000

> <Gold.Chemscore.DEClash.Weighted>
0.0763

> <Gold.Chemscore.DEInternal.Weighted>
1.3493

> <Gold.Chemscore.Rot.Weighted>
7.7512

> <Gold.Chemscore.Internal.Correction.Weighted>
   9.000000E+99

> <Gold.Protein.RotatedTorsions>
[ 6907 6896 6895 6894 ] final   72.23 input  -60.11 | X-H torsion
[ 7974 7965 7964 7962 ] final  171.75 input  175.53 | X-H torsion
[ 8008 7997 7996 7995 ] final  -49.78 input   59.86 | X-H torsion
[ 10167 10162 10161 10158 ] final  175.78 input  -65.29 | X-H torsion
[ 10718 10713 10712 10709 ] final -134.72 input   66.30 | X-H torsion
[ 10763 10752 10751 10750 ] final  -67.33 input  -60.55 | X-H torsion
[ 11005 11000 10999 10996 ] final  146.83 input  -57.11 | X-H torsion

> <Gold.Protein.ActiveResidues>
 VAL166  LYS551  ARG553  GLY616  TRP617  ASP618  TYR619  PRO620  LYS621  CYS622 
 ASP623  PHE694  ASN695  SER759  ASP760  ASP761  ALA762  ILE779  LEU786  VAL792 
 PHE793  MET794  SER795  GLU796  ALA797  LYS798  CYS799  TRP800  GLU811  SER814 

> <Gold.Protein.RotatedAtoms>
  152.4856  134.4602  159.9602 H   0  0  0  0  0  0  0  0  0  0  0  0  # atno 6907 bound_to 6896
  151.4599  133.3589  159.2815 H   0  0  0  0  0  0  0  0  0  0  0  0  # atno 6908 bound_to 6896
  150.8964  134.8397  159.7390 H   0  0  0  0  0  0  0  0  0  0  0  0  # atno 6909 bound_to 6896
  144.7286  139.9397  143.6428 H   0  0  0  0  0  0  0  0  0  0  0  0  # atno 7974 bound_to 7965
  154.4050  140.1288  156.4559 H   0  0  0  0  0  0  0  0  0  0  0  0  # atno 8008 bound_to 7997
  155.7321  140.3491  155.5044 H   0  0  0  0  0  0  0  0  0  0  0  0  # atno 8009 bound_to 7997
  155.9118  140.1037  157.1264 H   0  0  0  0  0  0  0  0  0  0  0  0  # atno 8010 bound_to 7997
  139.5189  144.2992  152.0394 H   0  0  0  0  0  0  0  0  0  0  0  0  # atno 10167 bound_to 10162
  156.2585  130.7195  151.1121 H   0  0  0  0  0  0  0  0  0  0  0  0  # atno 10718 bound_to 10713
  154.3729  135.6091  153.5749 H   0  0  0  0  0  0  0  0  0  0  0  0  # atno 10763 bound_to 10752
  152.9790  135.5842  154.4501 H   0  0  0  0  0  0  0  0  0  0  0  0  # atno 10764 bound_to 10752
  154.4257  135.2847  155.1923 H   0  0  0  0  0  0  0  0  0  0  0  0  # atno 10765 bound_to 10752
  140.0826  134.9088  157.1524 H   0  0  0  0  0  0  0  0  0  0  0  0  # atno 11005 bound_to 11000
  146.0794  139.3782  143.0473 LP  0  0  0  0  0  0  0  0  0  0  0  0  # atno 17320 bound_to 7965
  145.7861  140.9835  143.1074 LP  0  0  0  0  0  0  0  0  0  0  0  0  # atno 17321 bound_to 7965
  140.2440  144.4239  150.6248 LP  0  0  0  0  0  0  0  0  0  0  0  0  # atno 17342 bound_to 10162
  140.6271  143.2182  151.6574 LP  0  0  0  0  0  0  0  0  0  0  0  0  # atno 17343 bound_to 10162
  157.7241  131.0662  150.6007 LP  0  0  0  0  0  0  0  0  0  0  0  0  # atno 17370 bound_to 10713
  156.6093  130.4375  149.5865 LP  0  0  0  0  0  0  0  0  0  0  0  0  # atno 17371 bound_to 10713
  140.3466  134.2645  155.7204 LP  0  0  0  0  0  0  0  0  0  0  0  0  # atno 17394 bound_to 11000
  141.2052  133.7867  157.0247 LP  0  0  0  0  0  0  0  0  0  0  0  0  # atno 17395 bound_to 11000

$$$$
