AV-unprocessed.smi:511|AV-procd|sdf|2765|dock7
  -GOLD-   2262023233D 1   1.00000     0.00000
 Structure written by MMmdl.
 45 47  0  0  0  0  0  0  0  0  1 V2000
  145.9230  143.1651  153.8516 C   0  0  0  0  0  0  0  0  0  0  0  0
  146.4677  141.9601  154.3572 O   0  0  0  0  0  0  0  0  0  0  0  0
  147.8840  141.9879  154.4276 C   0  0  0  0  0  0  0  0  0  0  0  0
  148.3323  141.6824  155.8634 C   0  0  0  0  0  0  0  0  0  0  0  0
  149.6903  141.1425  155.9054 N   0  0  0  0  0  0  0  0  0  0  0  0
  150.8058  141.6542  156.4985 C   0  0  0  0  0  0  0  0  0  0  0  0
  150.7876  142.8336  157.2441 N   0  0  0  0  0  0  0  0  0  0  0  0
  151.5209  144.0675  156.9698 C   0  0  0  0  0  0  0  0  0  0  0  0
  152.2421  144.5711  158.2354 C   0  0  0  0  0  0  0  0  0  0  0  0
  151.2488  144.8656  159.2678 N   0  0  0  0  0  0  0  0  0  0  0  0
  151.9194  145.3354  160.4712 C   0  0  0  0  0  0  0  0  0  0  0  0
  150.5044  143.6417  159.5645 C   0  0  0  0  0  0  0  0  0  0  0  0
  149.8090  143.1350  158.2850 C   0  0  0  0  0  0  0  0  0  0  0  0
  151.9248  140.9606  156.2685 N   0  0  0  0  0  0  0  0  0  0  0  0
  151.4836  139.9025  155.4910 C   0  0  0  0  0  0  0  0  0  0  0  0
  150.1504  139.9933  155.2600 C   0  0  0  0  0  0  0  0  0  0  0  0
  149.4289  139.0170  154.4337 C   0  0  0  0  0  0  0  0  0  0  0  0
  148.2252  139.0869  154.1954 O   0  0  0  0  0  0  0  0  0  0  0  0
  150.2280  138.0318  153.9561 N   0  0  0  0  0  0  0  0  0  0  0  0
  151.5736  137.8811  154.1543 C   0  0  0  0  0  0  0  0  0  0  0  0
  152.1613  136.9273  153.6451 O   0  0  0  0  0  0  0  0  0  0  0  0
  152.2130  138.8213  154.9239 N   0  0  0  0  0  0  0  0  0  0  0  0
  153.6522  138.7603  155.1866 C   0  0  0  0  0  0  0  0  0  0  0  0
  149.7801  137.3304  153.3847 H   0  0  0  0  0  0  0  0  0  0  0  0
  144.8363  143.0887  153.8164 H   0  0  0  0  0  0  0  0  0  0  0  0
  146.2797  143.3658  152.8404 H   0  0  0  0  0  0  0  0  0  0  0  0
  146.1810  144.0118  154.4894 H   0  0  0  0  0  0  0  0  0  0  0  0
  148.3057  141.2497  153.7439 H   0  0  0  0  0  0  0  0  0  0  0  0
  148.2542  142.9669  154.1195 H   0  0  0  0  0  0  0  0  0  0  0  0
  148.2595  142.5844  156.4613 H   0  0  0  0  0  0  0  0  0  0  0  0
  147.6508  140.9750  156.3343 H   0  0  0  0  0  0  0  0  0  0  0  0
  152.2269  143.9186  156.1539 H   0  0  0  0  0  0  0  0  0  0  0  0
  150.8220  144.8257  156.6132 H   0  0  0  0  0  0  0  0  0  0  0  0
  152.9569  143.8280  158.5928 H   0  0  0  0  0  0  0  0  0  0  0  0
  152.8046  145.4764  158.0039 H   0  0  0  0  0  0  0  0  0  0  0  0
  151.1914  145.5608  161.2512 H   0  0  0  0  0  0  0  0  0  0  0  0
  152.4785  146.2485  160.2641 H   0  0  0  0  0  0  0  0  0  0  0  0
  152.6149  144.5889  160.8577 H   0  0  0  0  0  0  0  0  0  0  0  0
  151.1714  142.8752  159.9625 H   0  0  0  0  0  0  0  0  0  0  0  0
  149.7571  143.8484  160.3316 H   0  0  0  0  0  0  0  0  0  0  0  0
  149.0940  143.8721  157.9165 H   0  0  0  0  0  0  0  0  0  0  0  0
  149.2381  142.2352  158.5165 H   0  0  0  0  0  0  0  0  0  0  0  0
  154.1474  137.8914  154.7518 H   0  0  0  0  0  0  0  0  0  0  0  0
  153.8341  138.7343  156.2613 H   0  0  0  0  0  0  0  0  0  0  0  0
  154.1403  139.6493  154.7857 H   0  0  0  0  0  0  0  0  0  0  0  0
  1  2  1  0  0  0  0
  1 25  1  0  0  0  0
  1 26  1  0  0  0  0
  1 27  1  0  0  0  0
  2  3  1  0  0  0  0
  3  4  1  0  0  0  0
  3 28  1  0  0  0  0
  3 29  1  0  0  0  0
  4  5  1  0  0  0  0
  4 30  1  0  0  0  0
  4 31  1  0  0  0  0
  5 16  1  0  0  0  0
  5  6  1  0  0  0  0
  6  7  1  0  0  0  0
  6 14  2  0  0  0  0
  7 13  1  0  0  0  0
  7  8  1  0  0  0  0
  8  9  1  0  0  0  0
  8 32  1  0  0  0  0
  8 33  1  0  0  0  0
  9 10  1  0  0  0  0
  9 34  1  0  0  0  0
  9 35  1  0  0  0  0
 10 11  1  0  0  0  0
 10 12  1  0  0  0  0
 11 36  1  0  0  0  0
 11 37  1  0  0  0  0
 11 38  1  0  0  0  0
 12 13  1  0  0  0  0
 12 39  1  0  0  0  0
 12 40  1  0  0  0  0
 13 41  1  0  0  0  0
 13 42  1  0  0  0  0
 14 15  1  0  0  0  0
 15 22  1  0  0  0  0
 15 16  2  0  0  0  0
 16 17  1  0  0  0  0
 17 18  2  0  0  0  0
 17 19  1  0  0  0  0
 19 24  1  0  0  0  0
 19 20  1  0  0  0  0
 20 21  2  0  0  0  0
 20 22  1  0  0  0  0
 22 23  1  0  0  0  0
 23 43  1  0  0  0  0
 23 44  1  0  0  0  0
 23 45  1  0  0  0  0
M  END
> <s_m_source_file>
AV-unprocessed.smi

> <i_m_source_file_index>
511

> <i_lp_mmshare_version>
43012

> <i_f3d_flags>
0

> <s_epik_input>
W0NIM11uMWMoPU8pW25IXWMoPU8pYyhjMTIpbihbQ0gyXVtDSDJdT1tDSDNdKWMobjIpTjNbQ0gyXVtDSDJdTihbQ0gzXSlbQ0gyXVtDSDJdMw==

> <s_epik_cmdline>
J2VwaWtfcHl0aG9uJywgJy1waCcsICc3LjAnLCAnLXRuJywgJzgnLCAnLW1hJywgJzIwMCcsICctbWV0YWxfYmluZGluZycsICctaW1hZScsICc8aW5maWxlLm1hZT4nLCAnLW9tYWUnLCAnPG91dGZpbGUubWFlPic=

> <r_epik_Ionization_Penalty>
1.34394

> <r_epik_Ionization_Penalty_Charging>
1.59275e-05

> <r_epik_Ionization_Penalty_Neutral>
1.34392

> <r_epik_State_Penalty>
1.4212

> <r_epik_Charging_Adjusted_Penalty>
1.42122

> <i_epik_Tot_Q>
0

> <i_epik_Tot_abs_Q>
0

> <r_epik_Metal_State_Penalty>
1.44789

> <b_epik_Metal_Only>
0

> <s_lp_Force_Field>
OPLS_2005

> <r_lp_Energy>
49.2822

> <b_lp_Chiralities_Consistent>
1

> <s_lp_Variant>
AV-unprocessed.smi:511-2

> <Gold.Version>
5.8.1

> <Gold.Id.Protein>
6NUR|6NUR_protein|mol2

> <Gold.PLP.Fitness>
41.5916

> <Gold.PLP.PLP>
-38.2479

> <Gold.PLP.part.hbond>
-1.8828

> <Gold.PLP.part.metal>
0.0000

> <Gold.PLP.part.buried>
4.6504

> <Gold.PLP.part.nonpolar>
-44.9281

> <Gold.PLP.part.repulsive>
4.3906

> <Gold.PLP.ligand.clash>
0.0000

> <Gold.PLP.ligand.torsion>
1.4718

> <Gold.PLP.Chemscore.Hbond>
2.0000

> <Gold.PLP.Chemscore.CHOScore>
0.0000

> <Gold.PLP.Chemscore.Metal>
0.0000

> <Gold.Chemscore.Hbonds>
donor molecule, donor type, donor heavy atom, donor atom, acceptor molecule, acceptor atom, score
      L1  H    19    24       P1  7948  1.00
      P1  H 10752 10763       L1    21  1.00

> <Gold.PLP.Chemscore.Internal.Correction>
0.2872

> <Gold.Rescore>
     Score         DG    S(hbond)    S(metal)    S(lipo)     H(rot)  DE(clash)    DE(int)     intcor
     13.29     -17.15       1.80        0.00      81.12       1.49       2.51       1.35       ----

> <Gold.Chemscore.Fitness>
13.2889

> <Gold.Chemscore.DG>
-17.1536

> <Gold.Chemscore.ZeroCoef>
-5.4800

> <Gold.Chemscore.Hbond>
1.7965

> <Gold.Chemscore.Metal>
0.0000

> <Gold.Chemscore.Lipo>
81.1241

> <Gold.Chemscore.Internal_Hbond>
0.0000

> <Gold.Chemscore.DEClash>
2.5136

> <Gold.Chemscore.DEInternal>
1.3510

> <Gold.Chemscore.Rot>
1.4915

> <Gold.Chemscore.Internal.Correction>
   9.000000E+99

> <Gold.Chemscore.Hbonds>
donor molecule, donor type, donor heavy atom, donor atom, acceptor molecule, acceptor atom, score
      L1  H    19    24       P1  7948  0.57
      P1  H 10752 10763       L1    21  0.92

> <Gold.Chemscore.Hbond.Weighted>
-6.0004

> <Gold.Chemscore.Metal.Weighted>
-0.0000

> <Gold.Chemscore.Lipo.Weighted>
-9.4915

> <Gold.Chemscore.Internal_Hbond.Weighted>
0.0000

> <Gold.Chemscore.DEClash.Weighted>
2.5136

> <Gold.Chemscore.DEInternal.Weighted>
1.3510

> <Gold.Chemscore.Rot.Weighted>
3.8183

> <Gold.Chemscore.Internal.Correction.Weighted>
   9.000000E+99

> <Gold.Protein.RotatedTorsions>
[ 6907 6896 6895 6894 ] final  151.55 input  -60.11 | X-H torsion
[ 7974 7965 7964 7962 ] final -164.92 input  175.53 | X-H torsion
[ 8008 7997 7996 7995 ] final -143.63 input   59.86 | X-H torsion
[ 10167 10162 10161 10158 ] final -146.57 input  -65.29 | X-H torsion
[ 10718 10713 10712 10709 ] final -160.02 input   66.30 | X-H torsion
[ 10763 10752 10751 10750 ] final   18.26 input  -60.55 | X-H torsion
[ 11005 11000 10999 10996 ] final  154.12 input  -57.11 | X-H torsion

> <Gold.Protein.ActiveResidues>
 VAL166  LYS551  ARG553  GLY616  TRP617  ASP618  TYR619  PRO620  LYS621  CYS622 
 ASP623  PHE694  ASN695  SER759  ASP760  ASP761  ALA762  ILE779  LEU786  VAL792 
 PHE793  MET794  SER795  GLU796  ALA797  LYS798  CYS799  TRP800  GLU811  SER814 

> <Gold.Protein.RotatedAtoms>
  152.0990  133.4240  159.4578 H   0  0  0  0  0  0  0  0  0  0  0  0  # atno 6907 bound_to 6896
  150.6863  134.2782  159.4625 H   0  0  0  0  0  0  0  0  0  0  0  0  # atno 6908 bound_to 6896
  152.0641  134.9575  160.0625 H   0  0  0  0  0  0  0  0  0  0  0  0  # atno 6909 bound_to 6896
  144.7283  140.2890  143.6223 H   0  0  0  0  0  0  0  0  0  0  0  0  # atno 7974 bound_to 7965
  155.5137  140.0585  157.2919 H   0  0  0  0  0  0  0  0  0  0  0  0  # atno 8008 bound_to 7997
  154.4542  140.1964  156.0375 H   0  0  0  0  0  0  0  0  0  0  0  0  # atno 8009 bound_to 7997
  156.0767  140.3252  155.7646 H   0  0  0  0  0  0  0  0  0  0  0  0  # atno 8010 bound_to 7997
  139.7701  143.8250  152.2623 H   0  0  0  0  0  0  0  0  0  0  0  0  # atno 10167 bound_to 10162
  156.5763  130.8710  151.2852 H   0  0  0  0  0  0  0  0  0  0  0  0  # atno 10718 bound_to 10713
  153.1265  135.6731  153.9248 H   0  0  0  0  0  0  0  0  0  0  0  0  # atno 10763 bound_to 10752
  153.8748  135.3065  155.3444 H   0  0  0  0  0  0  0  0  0  0  0  0  # atno 10764 bound_to 10752
  154.7669  135.4959  153.9653 H   0  0  0  0  0  0  0  0  0  0  0  0  # atno 10765 bound_to 10752
  140.1460  134.8707  157.2393 H   0  0  0  0  0  0  0  0  0  0  0  0  # atno 11005 bound_to 11000
  145.7874  139.1914  143.2122 LP  0  0  0  0  0  0  0  0  0  0  0  0  # atno 17320 bound_to 7965
  146.0784  140.7792  142.9654 LP  0  0  0  0  0  0  0  0  0  0  0  0  # atno 17321 bound_to 7965
  139.8282  144.7265  150.9484 LP  0  0  0  0  0  0  0  0  0  0  0  0  # atno 17342 bound_to 10162
  140.7813  143.4095  151.1017 LP  0  0  0  0  0  0  0  0  0  0  0  0  # atno 17343 bound_to 10162
  157.7337  130.9734  150.1990 LP  0  0  0  0  0  0  0  0  0  0  0  0  # atno 17370 bound_to 10713
  156.2670  130.3717  149.8071 LP  0  0  0  0  0  0  0  0  0  0  0  0  # atno 17371 bound_to 10713
  140.2663  134.3512  155.7389 LP  0  0  0  0  0  0  0  0  0  0  0  0  # atno 17394 bound_to 11000
  141.2192  133.7398  156.9156 LP  0  0  0  0  0  0  0  0  0  0  0  0  # atno 17395 bound_to 11000

$$$$
