AV-unprocessed.smi:536|AV-procd|sdf|2863|dock4
  -GOLD-   2262023353D 1   1.00000     0.00000
 Structure written by MMmdl.
 45 47  0  0  0  0  0  0  0  0  2 V2000
  149.4516  140.9248  154.7057 C   0  0  0  0  0  0  0  0  0  0  0  0
  150.3129  141.4607  155.6935 O   0  0  0  0  0  0  0  0  0  0  0  0
  151.2397  140.5088  156.1884 C   0  0  0  0  0  0  0  0  0  0  0  0
  151.2319  140.4793  157.7271 C   0  0  0  0  0  0  0  0  0  0  0  0
  152.4020  139.8217  158.3076 N   0  0  0  0  0  0  0  0  0  0  0  0
  153.2940  140.3334  159.1979 C   0  0  0  0  0  0  0  0  0  0  0  0
  153.1671  141.6222  159.7173 N   0  0  0  0  0  0  0  0  0  0  0  0
  153.6398  142.0203  161.0392 C   0  0  0  0  0  0  0  0  0  0  0  0
  152.5740  142.6986  161.9212 C   0  0  0  0  0  0  0  0  0  0  0  0
  152.2695  144.1420  161.4928 C   0  0  0  0  0  0  0  0  0  0  0  0
  151.2627  144.2824  160.3368 C   0  0  0  0  0  0  0  0  0  0  0  0
  151.3871  143.2652  159.1867 C   0  0  0  0  0  0  0  0  0  0  0  0
  152.8130  142.7733  158.8919 C   0  0  0  0  0  0  0  0  0  0  0  0
  154.3069  139.5213  159.5044 N   0  0  0  0  0  0  0  0  0  0  0  0
  154.0286  138.3848  158.7611 C   0  0  0  0  0  0  0  0  0  0  0  0
  152.8948  138.5417  158.0258 C   0  0  0  0  0  0  0  0  0  0  0  0
  152.3624  137.5078  157.1085 C   0  0  0  0  0  0  0  0  0  0  0  0
  151.3451  137.7049  156.4470 O   0  0  0  0  0  0  0  0  0  0  0  0
  153.1302  136.3722  157.1067 N   0  5  0  0  0  0  0  0  0  0  0  0
  154.2793  136.1697  157.8397 C   0  0  0  0  0  0  0  0  0  0  0  0
  154.9118  135.1144  157.7788 O   0  0  0  0  0  0  0  0  0  0  0  0
  154.7449  137.1607  158.6631 N   0  0  0  0  0  0  0  0  0  0  0  0
  155.9681  136.9754  159.4490 C   0  0  0  0  0  0  0  0  0  0  0  0
  148.7621  141.6970  154.3646 H   0  0  0  0  0  0  0  0  0  0  0  0
  148.8616  140.0980  155.1033 H   0  0  0  0  0  0  0  0  0  0  0  0
  150.0152  140.5708  153.8415 H   0  0  0  0  0  0  0  0  0  0  0  0
  150.9924  139.5169  155.8079 H   0  0  0  0  0  0  0  0  0  0  0  0
  152.2344  140.7467  155.8165 H   0  0  0  0  0  0  0  0  0  0  0  0
  151.1706  141.4933  158.1186 H   0  0  0  0  0  0  0  0  0  0  0  0
  150.3293  139.9903  158.0896 H   0  0  0  0  0  0  0  0  0  0  0  0
  154.0228  141.1350  161.5452 H   0  0  0  0  0  0  0  0  0  0  0  0
  154.5031  142.6770  160.9255 H   0  0  0  0  0  0  0  0  0  0  0  0
  151.6601  142.1083  161.9785 H   0  0  0  0  0  0  0  0  0  0  0  0
  152.9678  142.7309  162.9374 H   0  0  0  0  0  0  0  0  0  0  0  0
  151.8783  144.6924  162.3492 H   0  0  0  0  0  0  0  0  0  0  0  0
  153.2022  144.6429  161.2305 H   0  0  0  0  0  0  0  0  0  0  0  0
  150.2490  144.2234  160.7344 H   0  0  0  0  0  0  0  0  0  0  0  0
  151.3570  145.2904  159.9314 H   0  0  0  0  0  0  0  0  0  0  0  0
  150.7421  142.4070  159.3813 H   0  0  0  0  0  0  0  0  0  0  0  0
  150.9811  143.7278  158.2867 H   0  0  0  0  0  0  0  0  0  0  0  0
  153.5402  143.5784  159.0025 H   0  0  0  0  0  0  0  0  0  0  0  0
  152.8652  142.4665  157.8468 H   0  0  0  0  0  0  0  0  0  0  0  0
  156.8140  136.7596  158.7949 H   0  0  0  0  0  0  0  0  0  0  0  0
  155.8521  136.1425  160.1442 H   0  0  0  0  0  0  0  0  0  0  0  0
  156.2292  137.8558  160.0360 H   0  0  0  0  0  0  0  0  0  0  0  0
  1  2  1  0  0  0  0
  1 24  1  0  0  0  0
  1 25  1  0  0  0  0
  1 26  1  0  0  0  0
  2  3  1  0  0  0  0
  3  4  1  0  0  0  0
  3 27  1  0  0  0  0
  3 28  1  0  0  0  0
  4  5  1  0  0  0  0
  4 29  1  0  0  0  0
  4 30  1  0  0  0  0
  5 16  1  0  0  0  0
  5  6  1  0  0  0  0
  6  7  1  0  0  0  0
  6 14  2  0  0  0  0
  7 13  1  0  0  0  0
  7  8  1  0  0  0  0
  8  9  1  0  0  0  0
  8 31  1  0  0  0  0
  8 32  1  0  0  0  0
  9 10  1  0  0  0  0
  9 33  1  0  0  0  0
  9 34  1  0  0  0  0
 10 11  1  0  0  0  0
 10 35  1  0  0  0  0
 10 36  1  0  0  0  0
 11 12  1  0  0  0  0
 11 37  1  0  0  0  0
 11 38  1  0  0  0  0
 12 13  1  0  0  0  0
 12 39  1  0  0  0  0
 12 40  1  0  0  0  0
 13 41  1  0  0  0  0
 13 42  1  0  0  0  0
 14 15  1  0  0  0  0
 15 22  1  0  0  0  0
 15 16  2  0  0  0  0
 16 17  1  0  0  0  0
 17 18  2  0  0  0  0
 17 19  1  0  0  0  0
 19 20  1  0  0  0  0
 20 21  2  0  0  0  0
 20 22  1  0  0  0  0
 22 23  1  0  0  0  0
 23 43  1  0  0  0  0
 23 44  1  0  0  0  0
 23 45  1  0  0  0  0
M  CHG  1  19  -1
M  END
> <s_m_source_file>
AV-unprocessed.smi

> <i_m_source_file_index>
536

> <i_lp_mmshare_version>
43012

> <i_f3d_flags>
0

> <s_epik_input>
W0NIM11uMWMoPU8pW25IXWMoPU8pYyhjMTIpbihbQ0gyXVtDSDJdT1tDSDNdKWMobjIpTjNbQ0gyXVtDSDJdW0NIMl1bQ0gyXVtDSDJdW0NIMl0z

> <s_epik_cmdline>
J2VwaWtfcHl0aG9uJywgJy1waCcsICc3LjAnLCAnLXRuJywgJzgnLCAnLW1hJywgJzIwMCcsICctbWV0YWxfYmluZGluZycsICctaW1hZScsICc8aW5maWxlLm1hZT4nLCAnLW9tYWUnLCAnPG91dGZpbGUubWFlPic=

> <r_lp_tautomer_probability>
1

> <r_epik_Ionization_Penalty>
6.16859

> <r_epik_Ionization_Penalty_Charging>
0.0798692

> <r_epik_Ionization_Penalty_Neutral>
6.08873

> <r_epik_State_Penalty>
6.08498

> <r_epik_Charging_Adjusted_Penalty>
6.16485

> <i_epik_Tot_Q>
-1

> <i_epik_Tot_abs_Q>
1

> <r_epik_Metal_State_Penalty>
2.03194

> <b_epik_Metal_Only>
1

> <s_lp_Force_Field>
OPLS_2005

> <r_lp_Energy>
48.7455

> <b_lp_Chiralities_Consistent>
1

> <s_lp_Variant>
AV-unprocessed.smi:536-2

> <Gold.Version>
5.8.1

> <Gold.Id.Protein>
6NUR|6NUR_protein|mol2

> <Gold.PLP.Fitness>
45.7658

> <Gold.PLP.PLP>
-40.9499

> <Gold.PLP.part.hbond>
-1.1032

> <Gold.PLP.part.metal>
0.0000

> <Gold.PLP.part.buried>
-5.2055

> <Gold.PLP.part.nonpolar>
-34.4921

> <Gold.PLP.part.repulsive>
0.0841

> <Gold.PLP.ligand.clash>
0.0000

> <Gold.PLP.ligand.torsion>
1.0021

> <Gold.PLP.Chemscore.Hbond>
2.0000

> <Gold.PLP.Chemscore.CHOScore>
0.0000

> <Gold.PLP.Chemscore.Metal>
0.0000

> <Gold.Chemscore.Hbonds>
donor molecule, donor type, donor heavy atom, donor atom, acceptor molecule, acceptor atom, score
      P1  H 10752 10763       L1    19  1.70

> <Gold.PLP.Chemscore.Internal.Correction>
0.8201

> <Gold.Rescore>
     Score         DG    S(hbond)    S(metal)    S(lipo)     H(rot)  DE(clash)    DE(int)     intcor
     12.76     -15.14       0.78        0.00      91.87       1.44       0.07       2.32       ----

> <Gold.Chemscore.Fitness>
12.7608

> <Gold.Chemscore.DG>
-15.1426

> <Gold.Chemscore.ZeroCoef>
-5.4800

> <Gold.Chemscore.Hbond>
0.7765

> <Gold.Chemscore.Metal>
0.0000

> <Gold.Chemscore.Lipo>
91.8656

> <Gold.Chemscore.Internal_Hbond>
0.0000

> <Gold.Chemscore.DEClash>
0.0657

> <Gold.Chemscore.DEInternal>
2.3161

> <Gold.Chemscore.Rot>
1.4372

> <Gold.Chemscore.Internal.Correction>
   9.000000E+99

> <Gold.Chemscore.Hbonds>
donor molecule, donor type, donor heavy atom, donor atom, acceptor molecule, acceptor atom, score
      P1  H 10752 10763       L1    19  0.18

> <Gold.Chemscore.Hbond.Weighted>
-2.5937

> <Gold.Chemscore.Metal.Weighted>
-0.0000

> <Gold.Chemscore.Lipo.Weighted>
-10.7483

> <Gold.Chemscore.Internal_Hbond.Weighted>
0.0000

> <Gold.Chemscore.DEClash.Weighted>
0.0657

> <Gold.Chemscore.DEInternal.Weighted>
2.3161

> <Gold.Chemscore.Rot.Weighted>
3.6793

> <Gold.Chemscore.Internal.Correction.Weighted>
   9.000000E+99

> <Gold.Protein.RotatedTorsions>
[ 6907 6896 6895 6894 ] final  169.70 input  -60.11 | X-H torsion
[ 7974 7965 7964 7962 ] final   70.28 input  175.53 | X-H torsion
[ 8008 7997 7996 7995 ] final -106.74 input   59.86 | X-H torsion
[ 10167 10162 10161 10158 ] final   -7.90 input  -65.29 | X-H torsion
[ 10718 10713 10712 10709 ] final -111.77 input   66.30 | X-H torsion
[ 10763 10752 10751 10750 ] final  126.44 input  -60.55 | X-H torsion
[ 11005 11000 10999 10996 ] final  -81.73 input  -57.11 | X-H torsion

> <Gold.Protein.ActiveResidues>
 VAL166  LYS551  ARG553  GLY616  TRP617  ASP618  TYR619  PRO620  LYS621  CYS622 
 ASP623  PHE694  ASN695  SER759  ASP760  ASP761  ALA762  ILE779  LEU786  VAL792 
 PHE793  MET794  SER795  GLU796  ALA797  LYS798  CYS799  TRP800  GLU811  SER814 

> <Gold.Protein.RotatedAtoms>
  151.8277  133.3404  159.3603 H   0  0  0  0  0  0  0  0  0  0  0  0  # atno 6907 bound_to 6896
  150.7274  134.5512  159.5805 H   0  0  0  0  0  0  0  0  0  0  0  0  # atno 6908 bound_to 6896
  152.2959  134.7669  160.0419 H   0  0  0  0  0  0  0  0  0  0  0  0  # atno 6909 bound_to 6896
  145.7801  139.2883  143.1271 H   0  0  0  0  0  0  0  0  0  0  0  0  # atno 7974 bound_to 7965
  154.9189  140.0408  157.1987 H   0  0  0  0  0  0  0  0  0  0  0  0  # atno 8008 bound_to 7997
  154.8273  140.2893  155.5724 H   0  0  0  0  0  0  0  0  0  0  0  0  # atno 8009 bound_to 7997
  156.2984  140.2507  156.3192 H   0  0  0  0  0  0  0  0  0  0  0  0  # atno 8010 bound_to 7997
  140.7043  143.6029  150.8780 H   0  0  0  0  0  0  0  0  0  0  0  0  # atno 10167 bound_to 10162
  156.0666  130.5885  150.8419 H   0  0  0  0  0  0  0  0  0  0  0  0  # atno 10718 bound_to 10713
  153.6933  135.3295  155.3207 H   0  0  0  0  0  0  0  0  0  0  0  0  # atno 10763 bound_to 10752
  154.8433  135.4437  154.1485 H   0  0  0  0  0  0  0  0  0  0  0  0  # atno 10764 bound_to 10752
  153.2533  135.6983  153.7734 H   0  0  0  0  0  0  0  0  0  0  0  0  # atno 10765 bound_to 10752
  141.1665  133.7210  156.8466 H   0  0  0  0  0  0  0  0  0  0  0  0  # atno 11005 bound_to 11000
  146.0083  140.8458  142.9984 LP  0  0  0  0  0  0  0  0  0  0  0  0  # atno 17320 bound_to 7965
  144.6798  140.2452  143.7338 LP  0  0  0  0  0  0  0  0  0  0  0  0  # atno 17321 bound_to 7965
  139.9753  143.6012  152.2960 LP  0  0  0  0  0  0  0  0  0  0  0  0  # atno 17342 bound_to 10162
  139.6613  144.7662  151.1958 LP  0  0  0  0  0  0  0  0  0  0  0  0  # atno 17343 bound_to 10162
  157.5712  131.0946  150.9415 LP  0  0  0  0  0  0  0  0  0  0  0  0  # atno 17370 bound_to 10713
  156.9631  130.5462  149.5287 LP  0  0  0  0  0  0  0  0  0  0  0  0  # atno 17371 bound_to 10713
  140.1945  134.8942  157.3098 LP  0  0  0  0  0  0  0  0  0  0  0  0  # atno 17394 bound_to 11000
  140.2254  134.3973  155.7546 LP  0  0  0  0  0  0  0  0  0  0  0  0  # atno 17395 bound_to 11000

$$$$
