AV-unprocessed.smi:1737|AV-procd|sdf|6993|dock3
  -GOLD-   22720 8203D 1   1.00000     0.00000
 Structure written by MMmdl.
 42 43  0  0  0  0  0  0  0  0  1 V2000
  147.6436  133.0643  152.4712 C   0  0  0  0  0  0  0  0  0  0  0  0
  146.3813  133.0364  151.6243 C   0  0  0  0  0  0  0  0  0  0  0  0
  145.8103  131.7940  151.2757 C   0  0  0  0  0  0  0  0  0  0  0  0
  144.6433  131.7709  150.4930 C   0  0  0  0  0  0  0  0  0  0  0  0
  144.0929  132.9996  150.0899 C   0  0  0  0  0  0  0  0  0  0  0  0
  144.6320  134.1913  150.4181 N   0  0  0  0  0  0  0  0  0  0  0  0
  145.7590  134.2310  151.1723 C   0  0  0  0  0  0  0  0  0  0  0  0
  146.3856  135.4499  151.5552 N   0  0  0  0  0  0  0  0  0  0  0  0
  145.8122  136.5990  151.9534 C   0  0  0  0  0  0  0  0  0  0  0  0
  144.6016  136.7891  152.0732 O   0  0  0  0  0  0  0  0  0  0  0  0
  146.7392  137.5324  152.2072 N   0  0  0  0  0  0  0  0  0  0  0  0
  146.4759  138.9069  152.6254 C   0  0  0  0  0  0  0  0  0  0  0  0
  146.6380  139.0713  154.1574 C   0  0  2  0  0  0  0  0  0  0  0  0
  145.4929  139.9778  154.6637 C   0  0  0  0  0  0  0  0  0  0  0  0
  147.9823  139.5293  154.5732 N   0  0  0  0  0  0  0  0  0  0  0  0
  149.0474  138.6292  154.1219 C   0  0  0  0  0  0  0  0  0  0  0  0
  150.4467  139.1133  154.5397 C   0  0  0  0  0  0  0  0  0  0  0  0
  150.6680  140.4258  154.0409 O   0  0  0  0  0  0  0  0  0  0  0  0
  149.6941  141.3498  154.5082 C   0  0  0  0  0  0  0  0  0  0  0  0
  148.2906  140.8786  154.0899 C   0  0  0  0  0  0  0  0  0  0  0  0
  147.9816  132.0568  152.7156 H   0  0  0  0  0  0  0  0  0  0  0  0
  147.4627  133.5929  153.4076 H   0  0  0  0  0  0  0  0  0  0  0  0
  148.4507  133.5680  151.9386 H   0  0  0  0  0  0  0  0  0  0  0  0
  146.2590  130.8675  151.6024 H   0  0  0  0  0  0  0  0  0  0  0  0
  144.1827  130.8363  150.2087 H   0  0  0  0  0  0  0  0  0  0  0  0
  143.1966  133.0269  149.4881 H   0  0  0  0  0  0  0  0  0  0  0  0
  147.3936  135.4481  151.5096 H   0  0  0  0  0  0  0  0  0  0  0  0
  147.7093  137.2843  152.0792 H   0  0  0  0  0  0  0  0  0  0  0  0
  147.1403  139.6058  152.1143 H   0  0  0  0  0  0  0  0  0  0  0  0
  145.4745  139.1860  152.2997 H   0  0  0  0  0  0  0  0  0  0  0  0
  146.4688  138.0858  154.5940 H   0  0  0  0  0  0  0  0  0  0  0  0
  144.5326  139.6685  154.2504 H   0  0  0  0  0  0  0  0  0  0  0  0
  145.6515  141.0191  154.3811 H   0  0  0  0  0  0  0  0  0  0  0  0
  145.3829  139.9350  155.7469 H   0  0  0  0  0  0  0  0  0  0  0  0
  148.9083  137.6330  154.5390 H   0  0  0  0  0  0  0  0  0  0  0  0
  149.0097  138.5262  153.0364 H   0  0  0  0  0  0  0  0  0  0  0  0
  150.5507  139.1056  155.6260 H   0  0  0  0  0  0  0  0  0  0  0  0
  151.2116  138.4474  154.1403 H   0  0  0  0  0  0  0  0  0  0  0  0
  149.7621  141.4454  155.5930 H   0  0  0  0  0  0  0  0  0  0  0  0
  149.9052  142.3326  154.0863 H   0  0  0  0  0  0  0  0  0  0  0  0
  148.2076  140.9099  153.0025 H   0  0  0  0  0  0  0  0  0  0  0  0
  147.5746  141.5993  154.4816 H   0  0  0  0  0  0  0  0  0  0  0  0
  1  2  1  0  0  0  0
  1 21  1  0  0  0  0
  1 22  1  0  0  0  0
  1 23  1  0  0  0  0
  2  7  1  0  0  0  0
  2  3  2  0  0  0  0
  3  4  1  0  0  0  0
  3 24  1  0  0  0  0
  4  5  2  0  0  0  0
  4 25  1  0  0  0  0
  5  6  1  0  0  0  0
  5 26  1  0  0  0  0
  6  7  2  0  0  0  0
  7  8  1  0  0  0  0
  8  9  1  0  0  0  0
  8 27  1  0  0  0  0
  9 10  2  0  0  0  0
  9 11  1  0  0  0  0
 11 12  1  0  0  0  0
 11 28  1  0  0  0  0
 12 13  1  0  0  0  0
 12 29  1  0  0  0  0
 12 30  1  0  0  0  0
 13 14  1  0  0  0  0
 13 15  1  0  0  0  0
 13 31  1  0  0  0  0
 14 32  1  0  0  0  0
 14 33  1  0  0  0  0
 14 34  1  0  0  0  0
 15 20  1  0  0  0  0
 15 16  1  0  0  0  0
 16 17  1  0  0  0  0
 16 35  1  0  0  0  0
 16 36  1  0  0  0  0
 17 18  1  0  0  0  0
 17 37  1  0  0  0  0
 17 38  1  0  0  0  0
 18 19  1  0  0  0  0
 19 20  1  0  0  0  0
 19 39  1  0  0  0  0
 19 40  1  0  0  0  0
 20 41  1  0  0  0  0
 20 42  1  0  0  0  0
M  END
> <s_m_source_file>
AV-unprocessed.smi

> <i_m_source_file_index>
1737

> <i_lp_mmshare_version>
43012

> <i_f3d_flags>
0

> <s_epik_input>
W0NIM11jMVtjSF1bY0hdW2NIXW5jMVtOSF1DKD1PKVtOSF1bQ0gyXVtDQEhdKFtDSDNdKU4yW0NIMl1bQ0gyXU9bQ0gyXVtDSDJdMg==

> <s_epik_cmdline>
J2VwaWtfcHl0aG9uJywgJy1waCcsICc3LjAnLCAnLXRuJywgJzgnLCAnLW1hJywgJzIwMCcsICctbWV0YWxfYmluZGluZycsICctaW1hZScsICc8aW5maWxlLm1hZT4nLCAnLW9tYWUnLCAnPG91dGZpbGUubWFlPic=

> <r_epik_Ionization_Penalty>
0.266048

> <r_epik_Ionization_Penalty_Charging>
0

> <r_epik_Ionization_Penalty_Neutral>
0.266048

> <r_epik_State_Penalty>
0.257924

> <r_epik_Charging_Adjusted_Penalty>
0.257924

> <i_epik_Tot_Q>
0

> <i_epik_Tot_abs_Q>
0

> <r_epik_Metal_State_Penalty>
0.257922

> <b_epik_Metal_Only>
0

> <s_lp_Force_Field>
OPLS_2005

> <r_lp_Energy>
34.2136

> <b_lp_Chiralities_Consistent>
1

> <s_lp_Variant>
AV-unprocessed.smi:1737-1

> <Gold.Version>
5.8.1

> <Gold.Id.Protein>
6NUR|6NUR_protein|mol2

> <Gold.PLP.Fitness>
42.8080

> <Gold.PLP.PLP>
-32.9189

> <Gold.PLP.part.hbond>
-2.8624

> <Gold.PLP.part.metal>
0.0000

> <Gold.PLP.part.buried>
-5.0222

> <Gold.PLP.part.nonpolar>
-26.8701

> <Gold.PLP.part.repulsive>
0.6909

> <Gold.PLP.ligand.clash>
0.0000

> <Gold.PLP.ligand.torsion>
0.9849

> <Gold.PLP.Chemscore.Hbond>
2.9425

> <Gold.PLP.Chemscore.CHOScore>
1.0000

> <Gold.PLP.Chemscore.Metal>
0.0000

> <Gold.Chemscore.Hbonds>
donor molecule, donor type, donor heavy atom, donor atom, acceptor molecule, acceptor atom, score
      L1  H     8    27       P1  7948  1.00
      L1  H    11    28       P1  7948  1.00
      P1  H  7989  7998       L1    18  0.13
      L1  C     5    26       P1 10186  0.84

> <Gold.PLP.Chemscore.Internal.Correction>
0.0315

> <Gold.Rescore>
     Score         DG    S(hbond)    S(metal)    S(lipo)     H(rot)  DE(clash)    DE(int)     intcor
     19.05     -20.15       2.88        0.00      75.24       1.47       0.06       1.04       ----

> <Gold.Chemscore.Fitness>
19.0523

> <Gold.Chemscore.DG>
-20.1533

> <Gold.Chemscore.ZeroCoef>
-5.4800

> <Gold.Chemscore.Hbond>
2.8817

> <Gold.Chemscore.Metal>
0.0000

> <Gold.Chemscore.Lipo>
75.2424

> <Gold.Chemscore.Internal_Hbond>
0.0000

> <Gold.Chemscore.DEClash>
0.0576

> <Gold.Chemscore.DEInternal>
1.0435

> <Gold.Chemscore.Rot>
1.4667

> <Gold.Chemscore.Internal.Correction>
   9.000000E+99

> <Gold.Chemscore.Hbonds>
donor molecule, donor type, donor heavy atom, donor atom, acceptor molecule, acceptor atom, score
      L1  H     8    27       P1  7948  0.91
      L1  H    11    28       P1  7948  0.97
      P1  H  7989  7998       L1    18  0.14

> <Gold.Chemscore.Hbond.Weighted>
-9.6248

> <Gold.Chemscore.Metal.Weighted>
-0.0000

> <Gold.Chemscore.Lipo.Weighted>
-8.8034

> <Gold.Chemscore.Internal_Hbond.Weighted>
0.0000

> <Gold.Chemscore.DEClash.Weighted>
0.0576

> <Gold.Chemscore.DEInternal.Weighted>
1.0435

> <Gold.Chemscore.Rot.Weighted>
3.7549

> <Gold.Chemscore.Internal.Correction.Weighted>
   9.000000E+99

> <Gold.Protein.RotatedTorsions>
[ 6907 6896 6895 6894 ] final  146.15 input  -60.11 | X-H torsion
[ 7974 7965 7964 7962 ] final   36.01 input  175.53 | X-H torsion
[ 8008 7997 7996 7995 ] final   68.41 input   59.86 | X-H torsion
[ 10167 10162 10161 10158 ] final  149.10 input  -65.29 | X-H torsion
[ 10718 10713 10712 10709 ] final -158.77 input   66.30 | X-H torsion
[ 10763 10752 10751 10750 ] final  101.33 input  -60.55 | X-H torsion
[ 11005 11000 10999 10996 ] final   22.42 input  -57.11 | X-H torsion

> <Gold.Protein.ActiveResidues>
 VAL166  LYS551  ARG553  GLY616  TRP617  ASP618  TYR619  PRO620  LYS621  CYS622 
 ASP623  PHE694  ASN695  SER759  ASP760  ASP761  ALA762  ILE779  LEU786  VAL792 
 PHE793  MET794  SER795  GLU796  ALA797  LYS798  CYS799  TRP800  GLU811  SER814 

> <Gold.Protein.RotatedAtoms>
  152.1717  133.4648  159.4912 H   0  0  0  0  0  0  0  0  0  0  0  0  # atno 6907 bound_to 6896
  150.6921  134.1945  159.4307 H   0  0  0  0  0  0  0  0  0  0  0  0  # atno 6908 bound_to 6896
  151.9852  135.0007  160.0610 H   0  0  0  0  0  0  0  0  0  0  0  0  # atno 6909 bound_to 6896
  146.1242  139.6071  142.9269 H   0  0  0  0  0  0  0  0  0  0  0  0  # atno 7974 bound_to 7965
  155.7078  140.3494  155.4961 H   0  0  0  0  0  0  0  0  0  0  0  0  # atno 8008 bound_to 7997
  155.9383  140.1097  157.1099 H   0  0  0  0  0  0  0  0  0  0  0  0  # atno 8009 bound_to 7997
  154.4098  140.1218  156.4879 H   0  0  0  0  0  0  0  0  0  0  0  0  # atno 8010 bound_to 7997
  139.4866  144.5628  151.7199 H   0  0  0  0  0  0  0  0  0  0  0  0  # atno 10167 bound_to 10162
  156.5588  130.8638  151.2803 H   0  0  0  0  0  0  0  0  0  0  0  0  # atno 10718 bound_to 10713
  153.3253  135.4048  155.1451 H   0  0  0  0  0  0  0  0  0  0  0  0  # atno 10763 bound_to 10752
  154.8610  135.3597  154.5542 H   0  0  0  0  0  0  0  0  0  0  0  0  # atno 10764 bound_to 10752
  153.5977  135.7072  153.5456 H   0  0  0  0  0  0  0  0  0  0  0  0  # atno 10765 bound_to 10752
  140.3807  134.1923  155.7664 H   0  0  0  0  0  0  0  0  0  0  0  0  # atno 11005 bound_to 11000
  145.5401  141.0421  143.2335 LP  0  0  0  0  0  0  0  0  0  0  0  0  # atno 17320 bound_to 7965
  144.7626  139.6920  143.7228 LP  0  0  0  0  0  0  0  0  0  0  0  0  # atno 17321 bound_to 7965
  140.5201  144.0892  150.6020 LP  0  0  0  0  0  0  0  0  0  0  0  0  # atno 17342 bound_to 10162
  140.3847  143.2784  152.0130 LP  0  0  0  0  0  0  0  0  0  0  0  0  # atno 17343 bound_to 10162
  157.7373  130.9793  150.2183 LP  0  0  0  0  0  0  0  0  0  0  0  0  # atno 17370 bound_to 10713
  156.2817  130.3734  149.7928 LP  0  0  0  0  0  0  0  0  0  0  0  0  # atno 17371 bound_to 10713
  141.1924  133.8173  157.0840 LP  0  0  0  0  0  0  0  0  0  0  0  0  # atno 17394 bound_to 11000
  140.0480  134.9820  157.1085 LP  0  0  0  0  0  0  0  0  0  0  0  0  # atno 17395 bound_to 11000

$$$$
