AV-unprocessed.smi:103|AV-procd|sdf|977|dock4
  -GOLD-   2262017533D 1   1.00000     0.00000
 Structure written by MMmdl.
 53 55  0  0  0  0  0  0  0  0  1 V2000
  149.1907  141.3531  154.4219 C   0  0  0  0  0  0  0  0  0  0  0  0
  150.0959  140.3727  155.1566 C   0  0  0  0  0  0  0  0  0  0  0  0
  151.0162  139.7951  154.5768 O   0  0  0  0  0  0  0  0  0  0  0  0
  149.7665  140.2379  156.4552 O   0  0  0  0  0  0  0  0  0  0  0  0
  150.4350  139.2864  157.2724 C   0  0  0  0  0  0  0  0  0  0  0  0
  149.9378  137.8588  156.9724 C   0  0  2  0  0  0  0  0  0  0  0  0
  148.5298  137.8554  156.7728 O   0  0  0  0  0  0  0  0  0  0  0  0
  147.8873  137.7967  158.0056 C   0  0  1  0  0  0  0  0  0  0  0  0
  146.6192  137.0160  157.8335 N   0  0  0  0  0  0  0  0  0  0  0  0
  145.4131  137.1451  158.4915 C   0  0  0  0  0  0  0  0  0  0  0  0
  145.0070  138.3698  159.7303 S   0  0  0  0  0  0  0  0  0  0  0  0
  143.1863  138.1619  159.8828 C   0  0  0  0  0  0  0  0  0  0  0  0
  145.6538  137.9461  160.9822 O   0  0  0  0  0  0  0  0  0  0  0  0
  145.2958  139.6897  159.1494 O   0  0  0  0  0  0  0  0  0  0  0  0
  144.4461  136.3587  158.1034 N   0  0  0  0  0  0  0  0  0  0  0  0
  145.0511  135.5737  157.1317 C   0  0  0  0  0  0  0  0  0  0  0  0
  144.6093  134.5030  156.3143 C   0  0  0  0  0  0  0  0  0  0  0  0
  143.3632  134.0125  156.3626 N   0  0  0  0  0  0  0  0  0  0  0  0
  145.4857  133.9473  155.4455 N   0  0  0  0  0  0  0  0  0  0  0  0
  146.7342  134.4199  155.3771 C   0  0  0  0  0  0  0  0  0  0  0  0
  147.2887  135.4157  156.0725 N   0  0  0  0  0  0  0  0  0  0  0  0
  146.4064  135.9731  156.9528 C   0  0  0  0  0  0  0  0  0  0  0  0
  148.8702  137.1598  159.0118 C   0  0  1  0  0  0  0  0  0  0  0  0
  148.3785  135.9607  159.6100 O   0  0  0  0  0  0  0  0  0  0  0  0
  147.9210  135.9566  160.8722 C   0  0  0  0  0  0  0  0  0  0  0  0
  147.4625  134.5734  161.3126 C   0  0  0  0  0  0  0  0  0  0  0  0
  147.8516  136.9273  161.6252 O   0  0  0  0  0  0  0  0  0  0  0  0
  150.1192  136.9135  158.1671 C   0  0  1  0  0  0  0  0  0  0  0  0
  150.1703  135.5666  157.7052 O   0  0  0  0  0  0  0  0  0  0  0  0
  150.9925  135.2139  156.7047 C   0  0  0  0  0  0  0  0  0  0  0  0
  150.8381  133.7483  156.3220 C   0  0  0  0  0  0  0  0  0  0  0  0
  151.7905  135.9516  156.1266 O   0  0  0  0  0  0  0  0  0  0  0  0
  149.7322  142.2742  154.2061 H   0  0  0  0  0  0  0  0  0  0  0  0
  148.3144  141.6000  155.0218 H   0  0  0  0  0  0  0  0  0  0  0  0
  148.8522  140.9216  153.4799 H   0  0  0  0  0  0  0  0  0  0  0  0
  151.4966  139.3490  157.0325 H   0  0  0  0  0  0  0  0  0  0  0  0
  150.3468  139.5318  158.3317 H   0  0  0  0  0  0  0  0  0  0  0  0
  150.4456  137.4832  156.0831 H   0  0  0  0  0  0  0  0  0  0  0  0
  147.5813  138.8008  158.2903 H   0  0  0  0  0  0  0  0  0  0  0  0
  142.8018  138.8673  160.6188 H   0  0  0  0  0  0  0  0  0  0  0  0
  142.9626  137.1445  160.2033 H   0  0  0  0  0  0  0  0  0  0  0  0
  142.7133  138.3496  158.9192 H   0  0  0  0  0  0  0  0  0  0  0  0
  142.6916  134.4095  157.0039 H   0  0  0  0  0  0  0  0  0  0  0  0
  143.0978  133.2485  155.7582 H   0  0  0  0  0  0  0  0  0  0  0  0
  147.3816  133.9324  154.6634 H   0  0  0  0  0  0  0  0  0  0  0  0
  149.1033  137.9179  159.7608 H   0  0  0  0  0  0  0  0  0  0  0  0
  146.6781  134.2072  160.6499 H   0  0  0  0  0  0  0  0  0  0  0  0
  147.0691  134.6049  162.3288 H   0  0  0  0  0  0  0  0  0  0  0  0
  148.2965  133.8720  161.2854 H   0  0  0  0  0  0  0  0  0  0  0  0
  151.0182  137.1443  158.7408 H   0  0  0  0  0  0  0  0  0  0  0  0
  151.0779  133.1084  157.1714 H   0  0  0  0  0  0  0  0  0  0  0  0
  151.5042  133.4940  155.4975 H   0  0  0  0  0  0  0  0  0  0  0  0
  149.8124  133.5449  156.0139 H   0  0  0  0  0  0  0  0  0  0  0  0
  1  2  1  0  0  0  0
  1 33  1  0  0  0  0
  1 34  1  0  0  0  0
  1 35  1  0  0  0  0
  2  3  2  0  0  0  0
  2  4  1  0  0  0  0
  4  5  1  0  0  0  0
  5  6  1  0  0  0  0
  5 36  1  0  0  0  0
  5 37  1  0  0  0  0
  6 28  1  0  0  0  0
  6  7  1  0  0  0  0
  6 38  1  0  0  0  0
  7  8  1  0  0  0  0
  8  9  1  0  0  0  0
  8 23  1  0  0  0  0
  8 39  1  0  0  0  0
  9 22  1  0  0  0  0
  9 10  1  0  0  0  0
 10 11  1  0  0  0  0
 10 15  2  0  0  0  0
 11 12  1  0  0  0  0
 11 13  2  0  0  0  0
 11 14  2  0  0  0  0
 12 40  1  0  0  0  0
 12 41  1  0  0  0  0
 12 42  1  0  0  0  0
 15 16  1  0  0  0  0
 16 22  2  0  0  0  0
 16 17  1  0  0  0  0
 17 18  1  0  0  0  0
 17 19  2  0  0  0  0
 18 43  1  0  0  0  0
 18 44  1  0  0  0  0
 19 20  1  0  0  0  0
 20 21  2  0  0  0  0
 20 45  1  0  0  0  0
 21 22  1  0  0  0  0
 23 24  1  0  0  0  0
 23 28  1  0  0  0  0
 23 46  1  0  0  0  0
 24 25  1  0  0  0  0
 25 26  1  0  0  0  0
 25 27  2  0  0  0  0
 26 47  1  0  0  0  0
 26 48  1  0  0  0  0
 26 49  1  0  0  0  0
 28 29  1  0  0  0  0
 28 50  1  0  0  0  0
 29 30  1  0  0  0  0
 30 31  1  0  0  0  0
 30 32  2  0  0  0  0
 31 51  1  0  0  0  0
 31 52  1  0  0  0  0
 31 53  1  0  0  0  0
M  END
> <s_m_source_file>
AV-unprocessed.smi

> <i_m_source_file_index>
103

> <i_lp_mmshare_version>
43012

> <i_f3d_flags>
0

> <s_epik_input>
W0NIM11DKD1PKU9bQ0gyXVtDQEBIXTFPW0NASF0oW0NAQEhdKE9DKD1PKVtDSDNdKVtDQEhdMU9DKD1PKVtDSDNdKW4oYyhuMilTKD1PKSg9TylbQ0gzXSljKGMyMyluW2NIXW5jM1tOSDJd

> <s_epik_cmdline>
J2VwaWtfcHl0aG9uJywgJy1waCcsICc3LjAnLCAnLXRuJywgJzgnLCAnLW1hJywgJzIwMCcsICctbWV0YWxfYmluZGluZycsICctaW1hZScsICc8aW5maWxlLm1hZT4nLCAnLW9tYWUnLCAnPG91dGZpbGUubWFlPic=

> <r_lp_tautomer_probability>
1

> <r_epik_Ionization_Penalty>
1.51338e-05

> <r_epik_Ionization_Penalty_Charging>
0

> <r_epik_Ionization_Penalty_Neutral>
1.51338e-05

> <r_epik_State_Penalty>
-0

> <r_epik_Charging_Adjusted_Penalty>
0

> <i_epik_Tot_Q>
0

> <i_epik_Tot_abs_Q>
0

> <r_epik_Metal_State_Penalty>
-0

> <b_epik_Metal_Only>
0

> <s_epik_Chemistry_Notes>
This compound has an ester and may undergo hydrolysis at high or low pH. This compound contains an acetal/aminal-like group ( X-CH(R)-Y where X, Y are N, S, or O) that may be acid/base labile, releasing an aldehyde.

> <s_lp_Force_Field>
OPLS_2005

> <r_lp_Energy>
14.6626

> <b_lp_Chiralities_Consistent>
1

> <s_lp_Variant>
AV-unprocessed.smi:103-1

> <Gold.Version>
5.8.1

> <Gold.Id.Protein>
6NUR|6NUR_protein|mol2

> <Gold.PLP.Fitness>
41.7853

> <Gold.PLP.PLP>
-30.3834

> <Gold.PLP.part.hbond>
-8.7916

> <Gold.PLP.part.metal>
0.0000

> <Gold.PLP.part.buried>
-4.3817

> <Gold.PLP.part.nonpolar>
-16.5277

> <Gold.PLP.part.repulsive>
0.2115

> <Gold.PLP.ligand.clash>
0.0000

> <Gold.PLP.ligand.torsion>
2.9877

> <Gold.PLP.Chemscore.Hbond>
5.0110

> <Gold.PLP.Chemscore.CHOScore>
0.0000

> <Gold.PLP.Chemscore.Metal>
0.0000

> <Gold.Chemscore.Hbonds>
donor molecule, donor type, donor heavy atom, donor atom, acceptor molecule, acceptor atom, score
      L1  H    18    43       P1 11000  0.09
      L1  H    18    44       P1 10957  1.00
      P1  H  6931  6943       L1    27  1.00
      P1  H  6934  6947       L1    13  0.85
      P1  H  7989  7998       L1     3  1.00
      P1  H 10752 10763       L1    32  1.00

> <Gold.PLP.Chemscore.Internal.Correction>
2.3441

> <Gold.Rescore>
     Score         DG    S(hbond)    S(metal)    S(lipo)     H(rot)  DE(clash)    DE(int)     intcor
      9.07     -14.39       4.82        0.00      31.62       4.25       0.07       5.25       ----

> <Gold.Chemscore.Fitness>
9.0657

> <Gold.Chemscore.DG>
-14.3933

> <Gold.Chemscore.ZeroCoef>
-5.4800

> <Gold.Chemscore.Hbond>
4.8152

> <Gold.Chemscore.Metal>
0.0000

> <Gold.Chemscore.Lipo>
31.6181

> <Gold.Chemscore.Internal_Hbond>
0.0000

> <Gold.Chemscore.DEClash>
0.0727

> <Gold.Chemscore.DEInternal>
5.2549

> <Gold.Chemscore.Rot>
4.2456

> <Gold.Chemscore.Internal.Correction>
   9.000000E+99

> <Gold.Chemscore.Hbonds>
donor molecule, donor type, donor heavy atom, donor atom, acceptor molecule, acceptor atom, score
      L1  H    18    43       P1 11000  0.07
      L1  H    18    44       P1 10957  1.00
      P1  H  6931  6943       L1    27  1.00
      P1  H  6934  6947       L1    27  0.24
      P1  H  7989  7998       L1     3  0.60
      P1  H 10752 10763       L1    32  1.00

> <Gold.Chemscore.Hbond.Weighted>
-16.0827

> <Gold.Chemscore.Metal.Weighted>
-0.0000

> <Gold.Chemscore.Lipo.Weighted>
-3.6993

> <Gold.Chemscore.Internal_Hbond.Weighted>
0.0000

> <Gold.Chemscore.DEClash.Weighted>
0.0727

> <Gold.Chemscore.DEInternal.Weighted>
5.2549

> <Gold.Chemscore.Rot.Weighted>
10.8687

> <Gold.Chemscore.Internal.Correction.Weighted>
   9.000000E+99

> <Gold.Protein.RotatedTorsions>
[ 6907 6896 6895 6894 ] final  147.10 input  -60.11 | X-H torsion
[ 7974 7965 7964 7962 ] final   88.40 input  175.53 | X-H torsion
[ 8008 7997 7996 7995 ] final -155.24 input   59.86 | X-H torsion
[ 10167 10162 10161 10158 ] final -168.70 input  -65.29 | X-H torsion
[ 10718 10713 10712 10709 ] final  105.10 input   66.30 | X-H torsion
[ 10763 10752 10751 10750 ] final   84.81 input  -60.55 | X-H torsion
[ 11005 11000 10999 10996 ] final  104.60 input  -57.11 | X-H torsion

> <Gold.Protein.ActiveResidues>
 VAL166  LYS551  ARG553  GLY616  TRP617  ASP618  TYR619  PRO620  LYS621  CYS622 
 ASP623  PHE694  ASN695  SER759  ASP760  ASP761  ALA762  ILE779  LEU786  VAL792 
 PHE793  MET794  SER795  GLU796  ALA797  LYS798  CYS799  TRP800  GLU811  SER814 

> <Gold.Protein.RotatedAtoms>
  152.1592  133.4571  159.4851 H   0  0  0  0  0  0  0  0  0  0  0  0  # atno 6907 bound_to 6896
  150.6904  134.2093  159.4362 H   0  0  0  0  0  0  0  0  0  0  0  0  # atno 6908 bound_to 6896
  151.9994  134.9936  160.0615 H   0  0  0  0  0  0  0  0  0  0  0  0  # atno 6909 bound_to 6896
  145.5461  139.2292  143.2538 H   0  0  0  0  0  0  0  0  0  0  0  0  # atno 7974 bound_to 7965
  155.6988  140.0764  157.2419 H   0  0  0  0  0  0  0  0  0  0  0  0  # atno 8008 bound_to 7997
  154.4076  140.1651  156.2220 H   0  0  0  0  0  0  0  0  0  0  0  0  # atno 8009 bound_to 7997
  155.9386  140.3386  155.6312 H   0  0  0  0  0  0  0  0  0  0  0  0  # atno 8010 bound_to 7997
  139.5968  144.1094  152.1699 H   0  0  0  0  0  0  0  0  0  0  0  0  # atno 10167 bound_to 10162
  157.6717  131.0820  150.5806 H   0  0  0  0  0  0  0  0  0  0  0  0  # atno 10718 bound_to 10713
  153.1416  135.4640  154.9505 H   0  0  0  0  0  0  0  0  0  0  0  0  # atno 10763 bound_to 10752
  154.7752  135.3171  154.8109 H   0  0  0  0  0  0  0  0  0  0  0  0  # atno 10764 bound_to 10752
  153.8631  135.6911  153.4835 H   0  0  0  0  0  0  0  0  0  0  0  0  # atno 10765 bound_to 10752
  139.8793  134.9306  156.5386 H   0  0  0  0  0  0  0  0  0  0  0  0  # atno 11005 bound_to 11000
  146.1948  140.6283  142.9129 LP  0  0  0  0  0  0  0  0  0  0  0  0  # atno 17320 bound_to 7965
  144.7552  140.5290  143.6774 LP  0  0  0  0  0  0  0  0  0  0  0  0  # atno 17321 bound_to 7965
  140.0681  144.5802  150.7212 LP  0  0  0  0  0  0  0  0  0  0  0  0  # atno 17342 bound_to 10162
  140.7219  143.2597  151.4251 LP  0  0  0  0  0  0  0  0  0  0  0  0  # atno 17343 bound_to 10162
  156.6107  130.4379  149.5860 LP  0  0  0  0  0  0  0  0  0  0  0  0  # atno 17370 bound_to 10713
  156.2433  130.6864  151.1576 LP  0  0  0  0  0  0  0  0  0  0  0  0  # atno 17371 bound_to 10713
  140.8328  133.8266  155.9000 LP  0  0  0  0  0  0  0  0  0  0  0  0  # atno 17394 bound_to 11000
  140.9313  134.2019  157.4862 LP  0  0  0  0  0  0  0  0  0  0  0  0  # atno 17395 bound_to 11000

$$$$
