AV-unprocessed.smi:1487|AV-procd|sdf|6021|dock7
  -GOLD-   22720 6123D 1   1.00000     0.00000
 Structure written by MMmdl.
 49 51  0  0  0  0  0  0  0  0  3 V2000
  152.2440  144.7379  160.1864 C   0  0  0  0  0  0  0  0  0  0  0  0
  152.0178  143.5498  159.2669 C   0  0  0  0  0  0  0  0  0  0  0  0
  151.2478  143.7394  158.0975 C   0  0  0  0  0  0  0  0  0  0  0  0
  151.0571  142.6340  157.2771 C   0  0  0  0  0  0  0  0  0  0  0  0
  150.3586  142.4988  156.0759 N   0  3  0  0  0  0  0  0  0  0  0  0
  150.4506  141.2128  155.6386 C   0  0  0  0  0  0  0  0  0  0  0  0
  151.2029  140.5244  156.5404 N   0  0  0  0  0  0  0  0  0  0  0  0
  151.5868  139.1054  156.5464 C   0  0  0  0  0  0  0  0  0  0  0  0
  152.1339  138.6174  155.1895 C   0  0  2  0  0  0  0  0  0  0  0  0
  153.0856  139.5702  154.7606 O   0  0  0  0  0  0  0  0  0  0  0  0
  151.0441  138.4628  154.1043 C   0  0  0  0  0  0  0  0  0  0  0  0
  150.0932  137.3541  154.3780 N   0  3  2  0  0  0  0  0  0  0  0  0
  148.9813  137.7818  155.2673 C   0  0  0  0  0  0  0  0  0  0  0  0
  147.9309  136.6695  155.4226 C   0  0  0  0  0  0  0  0  0  0  0  0
  148.5730  135.3775  155.9429 C   0  0  0  0  0  0  0  0  0  0  0  0
  149.7364  134.9695  155.0273 C   0  0  2  0  0  0  0  0  0  0  0  0
  150.3790  133.8343  155.5667 O   0  0  0  0  0  0  0  0  0  0  0  0
  150.7515  136.1187  154.8831 C   0  0  0  0  0  0  0  0  0  0  0  0
  151.6000  141.3707  157.5839 C   0  0  0  0  0  0  0  0  0  0  0  0
  152.3616  141.1675  158.7333 C   0  0  0  0  0  0  0  0  0  0  0  0
  152.5678  142.2800  159.5803 C   0  0  0  0  0  0  0  0  0  0  0  0
  153.3945  142.0877  160.8403 C   0  0  0  0  0  0  0  0  0  0  0  0
  151.7704  145.6395  159.7969 H   0  0  0  0  0  0  0  0  0  0  0  0
  153.3093  144.9425  160.2948 H   0  0  0  0  0  0  0  0  0  0  0  0
  151.8260  144.5423  161.1741 H   0  0  0  0  0  0  0  0  0  0  0  0
  150.8245  144.7032  157.8536 H   0  0  0  0  0  0  0  0  0  0  0  0
  150.0026  140.8107  154.7409 H   0  0  0  0  0  0  0  0  0  0  0  0
  152.3032  138.9267  157.3483 H   0  0  0  0  0  0  0  0  0  0  0  0
  150.6930  138.5383  156.8107 H   0  0  0  0  0  0  0  0  0  0  0  0
  152.6518  137.6729  155.3529 H   0  0  0  0  0  0  0  0  0  0  0  0
  152.6462  140.3867  154.5784 H   0  0  0  0  0  0  0  0  0  0  0  0
  150.4756  139.3862  153.9884 H   0  0  0  0  0  0  0  0  0  0  0  0
  151.5401  138.2886  153.1482 H   0  0  0  0  0  0  0  0  0  0  0  0
  149.3814  138.0614  156.2433 H   0  0  0  0  0  0  0  0  0  0  0  0
  148.4990  138.6698  154.8563 H   0  0  0  0  0  0  0  0  0  0  0  0
  147.1423  136.9932  156.1025 H   0  0  0  0  0  0  0  0  0  0  0  0
  147.4521  136.4804  154.4609 H   0  0  0  0  0  0  0  0  0  0  0  0
  148.9330  135.5328  156.9611 H   0  0  0  0  0  0  0  0  0  0  0  0
  147.8285  134.5818  155.9913 H   0  0  0  0  0  0  0  0  0  0  0  0
  149.3473  134.7010  154.0441 H   0  0  0  0  0  0  0  0  0  0  0  0
  150.6959  134.0441  156.4322 H   0  0  0  0  0  0  0  0  0  0  0  0
  151.5437  135.8058  154.2044 H   0  0  0  0  0  0  0  0  0  0  0  0
  151.2240  136.3292  155.8443 H   0  0  0  0  0  0  0  0  0  0  0  0
  152.7824  140.2035  158.9773 H   0  0  0  0  0  0  0  0  0  0  0  0
  153.7330  141.0564  160.9437 H   0  0  0  0  0  0  0  0  0  0  0  0
  152.8071  142.3350  161.7249 H   0  0  0  0  0  0  0  0  0  0  0  0
  154.2770  142.7276  160.8202 H   0  0  0  0  0  0  0  0  0  0  0  0
  149.6657  137.1207  153.4933 H   0  0  0  0  0  0  0  0  0  0  0  0
  149.8495  143.2279  155.5921 H   0  0  0  0  0  0  0  0  0  0  0  0
  1  2  1  0  0  0  0
  1 23  1  0  0  0  0
  1 24  1  0  0  0  0
  1 25  1  0  0  0  0
  2 21  1  0  0  0  0
  2  3  2  0  0  0  0
  3  4  1  0  0  0  0
  3 26  1  0  0  0  0
  4 19  2  0  0  0  0
  4  5  1  0  0  0  0
  5  6  2  0  0  0  0
  5 49  1  0  0  0  0
  6  7  1  0  0  0  0
  6 27  1  0  0  0  0
  7  8  1  0  0  0  0
  7 19  1  0  0  0  0
  8  9  1  0  0  0  0
  8 28  1  0  0  0  0
  8 29  1  0  0  0  0
  9 10  1  0  0  0  0
  9 11  1  0  0  0  0
  9 30  1  0  0  0  0
 10 31  1  0  0  0  0
 11 12  1  0  0  0  0
 11 32  1  0  0  0  0
 11 33  1  0  0  0  0
 12 18  1  0  0  0  0
 12 13  1  0  0  0  0
 12 48  1  0  0  0  0
 13 14  1  0  0  0  0
 13 34  1  0  0  0  0
 13 35  1  0  0  0  0
 14 15  1  0  0  0  0
 14 36  1  0  0  0  0
 14 37  1  0  0  0  0
 15 16  1  0  0  0  0
 15 38  1  0  0  0  0
 15 39  1  0  0  0  0
 16 17  1  0  0  0  0
 16 18  1  0  0  0  0
 16 40  1  0  0  0  0
 17 41  1  0  0  0  0
 18 42  1  0  0  0  0
 18 43  1  0  0  0  0
 19 20  1  0  0  0  0
 20 21  2  0  0  0  0
 20 44  1  0  0  0  0
 21 22  1  0  0  0  0
 22 45  1  0  0  0  0
 22 46  1  0  0  0  0
 22 47  1  0  0  0  0
M  CHG  1   5   1
M  CHG  1  12   1
M  END
> <s_m_source_file>
AV-unprocessed.smi

> <i_m_source_file_index>
1487

> <i_lp_mmshare_version>
43012

> <i_f3d_flags>
0

> <s_epik_input>
W0NIM11jKFtjSF0xKWMoW0NIM10pW2NIXWMoYzEyKW4oW2NIXW4yKVtDSDJdW0NASF0oW09IXSlbQ0gyXU4zW0NIMl1bQ0gyXVtDSDJdW0NAQEhdKFtPSF0pW0NIMl0z

> <s_epik_cmdline>
J2VwaWtfcHl0aG9uJywgJy1waCcsICc3LjAnLCAnLXRuJywgJzgnLCAnLW1hJywgJzIwMCcsICctbWV0YWxfYmluZGluZycsICctaW1hZScsICc8aW5maWxlLm1hZT4nLCAnLW9tYWUnLCAnPG91dGZpbGUubWFlPic=

> <r_epik_Ionization_Penalty>
1.1857

> <r_epik_Ionization_Penalty_Charging>
1.1857

> <r_epik_Ionization_Penalty_Neutral>
1.75578e-06

> <r_epik_State_Penalty>
1.26953

> <r_epik_Charging_Adjusted_Penalty>
2.45524

> <i_epik_Tot_Q>
2

> <i_epik_Tot_abs_Q>
2

> <r_epik_Metal_State_Penalty>
5.28243

> <b_epik_Metal_Only>
0

> <s_lp_Force_Field>
OPLS_2005

> <r_lp_Energy>
34.3912

> <b_lp_Chiralities_Consistent>
1

> <s_lp_Variant>
AV-unprocessed.smi:1487-15

> <Gold.Version>
5.8.1

> <Gold.Id.Protein>
6NUR|6NUR_protein|mol2

> <Gold.PLP.Fitness>
60.8862

> <Gold.PLP.PLP>
-46.8190

> <Gold.PLP.part.hbond>
-4.0000

> <Gold.PLP.part.metal>
0.0000

> <Gold.PLP.part.buried>
-6.6040

> <Gold.PLP.part.nonpolar>
-36.2074

> <Gold.PLP.part.repulsive>
0.1627

> <Gold.PLP.ligand.clash>
0.0000

> <Gold.PLP.ligand.torsion>
0.4745

> <Gold.PLP.Chemscore.Hbond>
4.9840

> <Gold.PLP.Chemscore.CHOScore>
0.0000

> <Gold.PLP.Chemscore.Metal>
0.0000

> <Gold.Chemscore.Hbonds>
donor molecule, donor type, donor heavy atom, donor atom, acceptor molecule, acceptor atom, score
      L1  H     5    49       P1  8028  1.98
      L1  H    12    48       P1  7948  2.00
      P1  H  7997  8009       L1    10  1.00

> <Gold.PLP.Chemscore.Internal.Correction>
0.0641

> <Gold.Rescore>
     Score         DG    S(hbond)    S(metal)    S(lipo)     H(rot)  DE(clash)    DE(int)     intcor
     20.57     -21.22       2.76        0.00     115.55       2.74       0.20       0.45       ----

> <Gold.Chemscore.Fitness>
20.5704

> <Gold.Chemscore.DG>
-21.2162

> <Gold.Chemscore.ZeroCoef>
-5.4800

> <Gold.Chemscore.Hbond>
2.7625

> <Gold.Chemscore.Metal>
0.0000

> <Gold.Chemscore.Lipo>
115.5542

> <Gold.Chemscore.Internal_Hbond>
0.0000

> <Gold.Chemscore.DEClash>
0.1994

> <Gold.Chemscore.DEInternal>
0.4464

> <Gold.Chemscore.Rot>
2.7384

> <Gold.Chemscore.Internal.Correction>
   9.000000E+99

> <Gold.Chemscore.Hbonds>
donor molecule, donor type, donor heavy atom, donor atom, acceptor molecule, acceptor atom, score
      L1  H     5    49       P1  8028  0.94
      L1  H    12    48       P1  7948  0.73
      P1  H  7997  8009       L1    10  0.25

> <Gold.Chemscore.Hbond.Weighted>
-9.2267

> <Gold.Chemscore.Metal.Weighted>
-0.0000

> <Gold.Chemscore.Lipo.Weighted>
-13.5198

> <Gold.Chemscore.Internal_Hbond.Weighted>
0.0000

> <Gold.Chemscore.DEClash.Weighted>
0.1994

> <Gold.Chemscore.DEInternal.Weighted>
0.4464

> <Gold.Chemscore.Rot.Weighted>
7.0103

> <Gold.Chemscore.Internal.Correction.Weighted>
   9.000000E+99

> <Gold.Protein.RotatedTorsions>
[ 6907 6896 6895 6894 ] final    2.31 input  -60.11 | X-H torsion
[ 7974 7965 7964 7962 ] final   38.03 input  175.53 | X-H torsion
[ 8008 7997 7996 7995 ] final -133.02 input   59.86 | X-H torsion
[ 10167 10162 10161 10158 ] final  -36.43 input  -65.29 | X-H torsion
[ 10718 10713 10712 10709 ] final   18.32 input   66.30 | X-H torsion
[ 10763 10752 10751 10750 ] final -163.64 input  -60.55 | X-H torsion
[ 11005 11000 10999 10996 ] final   -9.73 input  -57.11 | X-H torsion

> <Gold.Protein.ActiveResidues>
 VAL166  LYS551  ARG553  GLY616  TRP617  ASP618  TYR619  PRO620  LYS621  CYS622 
 ASP623  PHE694  ASN695  SER759  ASP760  ASP761  ALA762  ILE779  LEU786  VAL792 
 PHE793  MET794  SER795  GLU796  ALA797  LYS798  CYS799  TRP800  GLU811  SER814 

> <Gold.Protein.RotatedAtoms>
  151.6069  135.1043  160.0072 H   0  0  0  0  0  0  0  0  0  0  0  0  # atno 6907 bound_to 6896
  152.4229  133.7142  159.6507 H   0  0  0  0  0  0  0  0  0  0  0  0  # atno 6908 bound_to 6896
  150.8117  133.8338  159.3201 H   0  0  0  0  0  0  0  0  0  0  0  0  # atno 6909 bound_to 6896
  146.1093  139.5822  142.9363 H   0  0  0  0  0  0  0  0  0  0  0  0  # atno 7974 bound_to 7965
  155.3386  140.0471  157.3044 H   0  0  0  0  0  0  0  0  0  0  0  0  # atno 8008 bound_to 7997
  154.5289  140.2250  155.8805 H   0  0  0  0  0  0  0  0  0  0  0  0  # atno 8009 bound_to 7997
  156.1768  140.3083  155.9080 H   0  0  0  0  0  0  0  0  0  0  0  0  # atno 8010 bound_to 7997
  140.7143  143.3409  151.2359 H   0  0  0  0  0  0  0  0  0  0  0  0  # atno 10167 bound_to 10162
  157.0947  130.6443  149.5857 H   0  0  0  0  0  0  0  0  0  0  0  0  # atno 10718 bound_to 10713
  154.7103  135.3005  154.9207 H   0  0  0  0  0  0  0  0  0  0  0  0  # atno 10763 bound_to 10752
  154.0111  135.6694  153.4769 H   0  0  0  0  0  0  0  0  0  0  0  0  # atno 10764 bound_to 10752
  153.0750  135.5040  154.8297 H   0  0  0  0  0  0  0  0  0  0  0  0  # atno 10765 bound_to 10752
  140.7372  133.8700  155.8939 H   0  0  0  0  0  0  0  0  0  0  0  0  # atno 11005 bound_to 11000
  145.5697  141.0395  143.2181 LP  0  0  0  0  0  0  0  0  0  0  0  0  # atno 17320 bound_to 7965
  144.7497  139.7225  143.7278 LP  0  0  0  0  0  0  0  0  0  0  0  0  # atno 17321 bound_to 7965
  139.6917  143.9681  152.2862 LP  0  0  0  0  0  0  0  0  0  0  0  0  # atno 17342 bound_to 10162
  139.9345  144.6720  150.8329 LP  0  0  0  0  0  0  0  0  0  0  0  0  # atno 17343 bound_to 10162
  155.9889  130.4934  150.7189 LP  0  0  0  0  0  0  0  0  0  0  0  0  # atno 17370 bound_to 10713
  157.4691  131.0891  151.0662 LP  0  0  0  0  0  0  0  0  0  0  0  0  # atno 17371 bound_to 10713
  140.9869  134.1331  157.4444 LP  0  0  0  0  0  0  0  0  0  0  0  0  # atno 17394 bound_to 11000
  139.8813  135.0028  156.6149 LP  0  0  0  0  0  0  0  0  0  0  0  0  # atno 17395 bound_to 11000

$$$$
