AV-unprocessed.smi:180|AV-procd|sdf|1452|dock3
  -GOLD-   2262019253D 1   1.00000     0.00000
 Structure written by MMmdl.
 54 57  0  0  0  0  0  0  0  0  1 V2000
  144.5381  132.4033  149.8289 C   0  0  0  0  0  0  0  0  0  0  0  0
  144.3953  133.6756  150.6572 C   0  0  0  0  0  0  0  0  0  0  0  0
  143.7634  133.6561  151.7130 O   0  0  0  0  0  0  0  0  0  0  0  0
  144.9827  134.7763  150.1644 N   0  0  0  0  0  0  0  0  0  0  0  0
  144.9545  136.0926  150.7927 C   0  0  0  0  0  0  0  0  0  0  0  0
  146.0225  136.2216  151.8920 C   0  0  1  0  0  0  0  0  0  0  0  0
  146.3153  137.6949  152.2329 C   0  0  0  0  0  0  0  0  0  0  0  0
  147.2627  137.7706  153.3375 N   0  0  0  0  0  0  0  0  0  0  0  0
  147.6955  139.0189  153.6098 C   0  0  0  0  0  0  0  0  0  0  0  0
  147.0102  140.0445  153.0486 N   0  0  0  0  0  0  0  0  0  0  0  0
  147.3895  141.3052  153.2785 C   0  0  0  0  0  0  0  0  0  0  0  0
  148.4036  141.7499  154.0242 N   0  0  0  0  0  0  0  0  0  0  0  0
  149.0931  140.7182  154.5911 C   0  0  0  0  0  0  0  0  0  0  0  0
  148.8128  139.3318  154.4347 C   0  0  0  0  0  0  0  0  0  0  0  0
  149.7342  138.5778  155.1516 N   0  0  0  0  0  0  0  0  0  0  0  0
  150.5119  139.4686  155.7040 C   0  0  0  0  0  0  0  0  0  0  0  0
  150.1899  140.7798  155.4328 N   0  0  0  0  0  0  0  0  0  0  0  0
  150.8817  141.9647  155.9162 C   0  0  0  0  0  0  0  0  0  0  0  0
  150.9583  142.0796  157.4604 C   0  0  0  0  0  0  0  0  0  0  0  0
  149.6137  142.0545  157.9044 O   0  0  0  0  0  0  0  0  0  0  0  0
  151.7090  140.9012  158.1176 C   0  0  0  0  0  0  0  0  0  0  0  0
  151.8508  141.0870  159.6390 C   0  0  0  0  0  0  0  0  0  0  0  0
  152.4906  142.3265  159.9211 O   0  0  0  0  0  0  0  0  0  0  0  0
  151.7457  143.4504  159.4667 C   0  0  0  0  0  0  0  0  0  0  0  0
  151.6006  143.4012  157.9348 C   0  0  0  0  0  0  0  0  0  0  0  0
  146.8217  137.0324  154.5129 C   0  0  0  0  0  0  0  0  0  0  0  0
  146.5030  135.5797  154.1239 C   0  0  0  0  0  0  0  0  0  0  0  0
  145.5460  135.5686  153.0685 O   0  0  0  0  0  0  0  0  0  0  0  0
  145.5394  132.3263  149.4040 H   0  0  0  0  0  0  0  0  0  0  0  0
  143.8152  132.4015  149.0128 H   0  0  0  0  0  0  0  0  0  0  0  0
  144.3619  131.5208  150.4449 H   0  0  0  0  0  0  0  0  0  0  0  0
  145.4750  134.7005  149.2862 H   0  0  0  0  0  0  0  0  0  0  0  0
  145.0957  136.8647  150.0343 H   0  0  0  0  0  0  0  0  0  0  0  0
  143.9619  136.2528  151.2141 H   0  0  0  0  0  0  0  0  0  0  0  0
  146.9449  135.7413  151.5590 H   0  0  0  0  0  0  0  0  0  0  0  0
  146.7256  138.2074  151.3616 H   0  0  0  0  0  0  0  0  0  0  0  0
  145.3888  138.2038  152.5007 H   0  0  0  0  0  0  0  0  0  0  0  0
  146.7946  142.0668  152.7967 H   0  0  0  0  0  0  0  0  0  0  0  0
  151.3435  139.1923  156.3358 H   0  0  0  0  0  0  0  0  0  0  0  0
  151.8866  141.9609  155.4912 H   0  0  0  0  0  0  0  0  0  0  0  0
  150.3822  142.8408  155.4991 H   0  0  0  0  0  0  0  0  0  0  0  0
  149.0481  142.0619  157.1473 H   0  0  0  0  0  0  0  0  0  0  0  0
  151.2089  139.9571  157.8979 H   0  0  0  0  0  0  0  0  0  0  0  0
  152.7121  140.8221  157.6992 H   0  0  0  0  0  0  0  0  0  0  0  0
  150.8802  141.0439  160.1353 H   0  0  0  0  0  0  0  0  0  0  0  0
  152.4529  140.2801  160.0569 H   0  0  0  0  0  0  0  0  0  0  0  0
  150.7710  143.4777  159.9560 H   0  0  0  0  0  0  0  0  0  0  0  0
  152.2703  144.3593  159.7612 H   0  0  0  0  0  0  0  0  0  0  0  0
  152.5963  143.5052  157.5045 H   0  0  0  0  0  0  0  0  0  0  0  0
  151.0231  144.2570  157.5833 H   0  0  0  0  0  0  0  0  0  0  0  0
  147.5976  137.0535  155.2794 H   0  0  0  0  0  0  0  0  0  0  0  0
  145.9345  137.5051  154.9361 H   0  0  0  0  0  0  0  0  0  0  0  0
  147.4067  135.0516  153.8156 H   0  0  0  0  0  0  0  0  0  0  0  0
  146.0952  135.0420  154.9797 H   0  0  0  0  0  0  0  0  0  0  0  0
  1  2  1  0  0  0  0
  1 29  1  0  0  0  0
  1 30  1  0  0  0  0
  1 31  1  0  0  0  0
  2  3  2  0  0  0  0
  2  4  1  0  0  0  0
  4  5  1  0  0  0  0
  4 32  1  0  0  0  0
  5  6  1  0  0  0  0
  5 33  1  0  0  0  0
  5 34  1  0  0  0  0
  6 28  1  0  0  0  0
  6  7  1  0  0  0  0
  6 35  1  0  0  0  0
  7  8  1  0  0  0  0
  7 36  1  0  0  0  0
  7 37  1  0  0  0  0
  8  9  1  0  0  0  0
  8 26  1  0  0  0  0
  9 14  1  0  0  0  0
  9 10  2  0  0  0  0
 10 11  1  0  0  0  0
 11 12  2  0  0  0  0
 11 38  1  0  0  0  0
 12 13  1  0  0  0  0
 13 17  1  0  0  0  0
 13 14  2  0  0  0  0
 14 15  1  0  0  0  0
 15 16  2  0  0  0  0
 16 17  1  0  0  0  0
 16 39  1  0  0  0  0
 17 18  1  0  0  0  0
 18 19  1  0  0  0  0
 18 40  1  0  0  0  0
 18 41  1  0  0  0  0
 19 25  1  0  0  0  0
 19 20  1  0  0  0  0
 19 21  1  0  0  0  0
 20 42  1  0  0  0  0
 21 22  1  0  0  0  0
 21 43  1  0  0  0  0
 21 44  1  0  0  0  0
 22 23  1  0  0  0  0
 22 45  1  0  0  0  0
 22 46  1  0  0  0  0
 23 24  1  0  0  0  0
 24 25  1  0  0  0  0
 24 47  1  0  0  0  0
 24 48  1  0  0  0  0
 25 49  1  0  0  0  0
 25 50  1  0  0  0  0
 26 27  1  0  0  0  0
 26 51  1  0  0  0  0
 26 52  1  0  0  0  0
 27 28  1  0  0  0  0
 27 53  1  0  0  0  0
 27 54  1  0  0  0  0
M  END
> <s_m_source_file>
AV-unprocessed.smi

> <i_m_source_file_index>
180

> <i_lp_mmshare_version>
43012

> <i_f3d_flags>
0

> <s_epik_input>
W0NIM11DKD1PKVtOSF1bQ0gyXVtDQEBIXTFbQ0gyXU4oW0NIMl1bQ0gyXU8xKWMobltjSF1uMiljKGMyMyluW2NIXW4zW0NIMl1DNChbT0hdKVtDSDJdW0NIMl1PW0NIMl1bQ0gyXTQ=

> <s_epik_cmdline>
J2VwaWtfcHl0aG9uJywgJy1waCcsICc3LjAnLCAnLXRuJywgJzgnLCAnLW1hJywgJzIwMCcsICctbWV0YWxfYmluZGluZycsICctaW1hZScsICc8aW5maWxlLm1hZT4nLCAnLW9tYWUnLCAnPG91dGZpbGUubWFlPic=

> <r_lp_tautomer_probability>
1

> <r_epik_Ionization_Penalty>
7.38871e-05

> <r_epik_Ionization_Penalty_Charging>
0

> <r_epik_Ionization_Penalty_Neutral>
7.38871e-05

> <r_epik_State_Penalty>
-0

> <r_epik_Charging_Adjusted_Penalty>
0

> <i_epik_Tot_Q>
0

> <i_epik_Tot_abs_Q>
0

> <r_epik_Metal_State_Penalty>
-0

> <b_epik_Metal_Only>
0

> <s_lp_Force_Field>
OPLS_2005

> <r_lp_Energy>
30.2573

> <b_lp_Chiralities_Consistent>
1

> <s_lp_Variant>
AV-unprocessed.smi:180-2

> <Gold.Version>
5.8.1

> <Gold.Id.Protein>
6NUR|6NUR_protein|mol2

> <Gold.PLP.Fitness>
41.7194

> <Gold.PLP.PLP>
-39.5237

> <Gold.PLP.part.hbond>
-1.4313

> <Gold.PLP.part.metal>
0.0000

> <Gold.PLP.part.buried>
-4.4895

> <Gold.PLP.part.nonpolar>
-36.5833

> <Gold.PLP.part.repulsive>
3.0235

> <Gold.PLP.ligand.clash>
0.0000

> <Gold.PLP.ligand.torsion>
0.5070

> <Gold.PLP.Chemscore.Hbond>
1.0000

> <Gold.PLP.Chemscore.CHOScore>
0.0000

> <Gold.PLP.Chemscore.Metal>
0.0000

> <Gold.Chemscore.Hbonds>
donor molecule, donor type, donor heavy atom, donor atom, acceptor molecule, acceptor atom, score
      L1  H     4    32       P1  7921  1.00
      P1  H  8011  8017       L1    12  0.17

> <Gold.PLP.Chemscore.Internal.Correction>
0.2097

> <Gold.Rescore>
     Score         DG    S(hbond)    S(metal)    S(lipo)     H(rot)  DE(clash)    DE(int)     intcor
      8.23     -11.57       0.97        0.00      89.74       2.99       2.59       0.76       ----

> <Gold.Chemscore.Fitness>
8.2303

> <Gold.Chemscore.DG>
-11.5731

> <Gold.Chemscore.ZeroCoef>
-5.4800

> <Gold.Chemscore.Hbond>
0.9715

> <Gold.Chemscore.Metal>
0.0000

> <Gold.Chemscore.Lipo>
89.7352

> <Gold.Chemscore.Internal_Hbond>
0.0000

> <Gold.Chemscore.DEClash>
2.5878

> <Gold.Chemscore.DEInternal>
0.7551

> <Gold.Chemscore.Rot>
2.9885

> <Gold.Chemscore.Internal.Correction>
   9.000000E+99

> <Gold.Chemscore.Hbonds>
donor molecule, donor type, donor heavy atom, donor atom, acceptor molecule, acceptor atom, score
      L1  H     4    32       P1  7921  0.99
      P1  H  8011  8017       L1    12  0.01

> <Gold.Chemscore.Hbond.Weighted>
-3.2447

> <Gold.Chemscore.Metal.Weighted>
-0.0000

> <Gold.Chemscore.Lipo.Weighted>
-10.4990

> <Gold.Chemscore.Internal_Hbond.Weighted>
0.0000

> <Gold.Chemscore.DEClash.Weighted>
2.5878

> <Gold.Chemscore.DEInternal.Weighted>
0.7551

> <Gold.Chemscore.Rot.Weighted>
7.6506

> <Gold.Chemscore.Internal.Correction.Weighted>
   9.000000E+99

> <Gold.Protein.RotatedTorsions>
[ 6907 6896 6895 6894 ] final  -57.22 input  -60.11 | X-H torsion
[ 7974 7965 7964 7962 ] final  -64.19 input  175.53 | X-H torsion
[ 8008 7997 7996 7995 ] final -144.92 input   59.86 | X-H torsion
[ 10167 10162 10161 10158 ] final  -35.53 input  -65.29 | X-H torsion
[ 10718 10713 10712 10709 ] final  153.91 input   66.30 | X-H torsion
[ 10763 10752 10751 10750 ] final  -15.46 input  -60.55 | X-H torsion
[ 11005 11000 10999 10996 ] final -101.48 input  -57.11 | X-H torsion

> <Gold.Protein.ActiveResidues>
 VAL166  LYS551  ARG553  GLY616  TRP617  ASP618  TYR619  PRO620  LYS621  CYS622 
 ASP623  PHE694  ASN695  SER759  ASP760  ASP761  ALA762  ILE779  LEU786  VAL792 
 PHE793  MET794  SER795  GLU796  ALA797  LYS798  CYS799  TRP800  GLU811  SER814 

> <Gold.Protein.RotatedAtoms>
  150.8103  134.7254  159.6681 H   0  0  0  0  0  0  0  0  0  0  0  0  # atno 6907 bound_to 6896
  152.4223  134.5929  159.9989 H   0  0  0  0  0  0  0  0  0  0  0  0  # atno 6908 bound_to 6896
  151.6140  133.3307  159.3109 H   0  0  0  0  0  0  0  0  0  0  0  0  # atno 6909 bound_to 6896
  145.7698  140.8818  143.0386 H   0  0  0  0  0  0  0  0  0  0  0  0  # atno 7974 bound_to 7965
  155.5347  140.0603  157.2882 H   0  0  0  0  0  0  0  0  0  0  0  0  # atno 8008 bound_to 7997
  154.4472  140.1929  156.0575 H   0  0  0  0  0  0  0  0  0  0  0  0  # atno 8009 bound_to 7997
  156.0627  140.3270  155.7485 H   0  0  0  0  0  0  0  0  0  0  0  0  # atno 8010 bound_to 7997
  140.7163  143.3471  151.2234 H   0  0  0  0  0  0  0  0  0  0  0  0  # atno 10167 bound_to 10162
  157.2385  131.0754  151.1807 H   0  0  0  0  0  0  0  0  0  0  0  0  # atno 10718 bound_to 10713
  153.5436  135.7013  153.5625 H   0  0  0  0  0  0  0  0  0  0  0  0  # atno 10763 bound_to 10752
  153.3579  135.3977  155.1696 H   0  0  0  0  0  0  0  0  0  0  0  0  # atno 10764 bound_to 10752
  154.8670  135.3781  154.4942 H   0  0  0  0  0  0  0  0  0  0  0  0  # atno 10765 bound_to 10752
  141.1229  133.8481  157.1236 H   0  0  0  0  0  0  0  0  0  0  0  0  # atno 11005 bound_to 11000
  144.6815  139.9840  143.7483 LP  0  0  0  0  0  0  0  0  0  0  0  0  # atno 17320 bound_to 7965
  146.0181  139.3227  143.0829 LP  0  0  0  0  0  0  0  0  0  0  0  0  # atno 17321 bound_to 7965
  139.6992  143.9561  152.2897 LP  0  0  0  0  0  0  0  0  0  0  0  0  # atno 17342 bound_to 10162
  139.9248  144.6777  150.8424 LP  0  0  0  0  0  0  0  0  0  0  0  0  # atno 17343 bound_to 10162
  157.3403  130.7030  149.6378 LP  0  0  0  0  0  0  0  0  0  0  0  0  # atno 17370 bound_to 10713
  155.9671  130.4281  150.4776 LP  0  0  0  0  0  0  0  0  0  0  0  0  # atno 17371 bound_to 10713
  140.0202  134.9949  157.0575 LP  0  0  0  0  0  0  0  0  0  0  0  0  # atno 17394 bound_to 11000
  140.4453  134.1639  155.7177 LP  0  0  0  0  0  0  0  0  0  0  0  0  # atno 17395 bound_to 11000

$$$$
