AV-unprocessed.smi:1346|AV-procd|sdf|5513|dock6
  -GOLD-   22720 5 93D 1   1.00000     0.00000
 Structure written by MMmdl.
 47 48  0  0  0  0  0  0  0  0  1 V2000
  149.6573  135.7863  154.9453 C   0  0  0  0  0  0  0  0  0  0  0  0
  149.2965  137.2099  154.6321 C   0  0  0  0  0  0  0  0  0  0  0  0
  148.0220  137.5424  154.5157 N   0  0  0  0  0  0  0  0  0  0  0  0
  148.0072  138.9106  154.2295 O   0  0  0  0  0  0  0  0  0  0  0  0
  149.2891  139.3535  154.1824 C   0  0  0  0  0  0  0  0  0  0  0  0
  149.4815  140.8033  153.8909 C   0  0  0  0  0  0  0  0  0  0  0  0
  150.1587  138.3256  154.4256 C   0  0  0  0  0  0  0  0  0  0  0  0
  151.6648  138.3601  154.4698 C   0  0  0  0  0  0  0  0  0  0  0  0
  152.1261  139.2127  155.6519 C   0  0  0  0  0  0  0  0  0  0  0  0
  153.0949  139.9623  155.5289 O   0  0  0  0  0  0  0  0  0  0  0  0
  151.4265  139.0887  156.7900 N   0  0  0  0  0  0  0  0  0  0  0  0
  151.7089  139.7964  158.0336 C   0  0  0  0  0  0  0  0  0  0  0  0
  151.4125  141.2986  157.9158 C   0  0  0  0  0  0  0  0  0  0  0  0
  151.4530  141.8849  159.2079 O   0  0  0  0  0  0  0  0  0  0  0  0
  152.4774  142.8593  159.3734 C   0  0  1  0  0  0  0  0  0  0  0  0
  152.2450  143.9757  158.3389 C   0  0  0  0  0  0  0  0  0  0  0  0
  150.9504  144.7573  158.6178 C   0  0  0  0  0  0  0  0  0  0  0  0
  150.9337  145.3144  160.0490 C   0  0  0  0  0  0  0  0  0  0  0  0
  151.1432  144.1976  161.0840 C   0  0  0  0  0  0  0  0  0  0  0  0
  152.4442  143.4149  160.8164 C   0  0  1  0  0  0  0  0  0  0  0  0
  152.6769  142.3217  161.8707 C   0  0  0  0  0  0  0  0  0  0  0  0
  150.6621  135.7126  155.3602 H   0  0  0  0  0  0  0  0  0  0  0  0
  149.6223  135.1692  154.0472 H   0  0  0  0  0  0  0  0  0  0  0  0
  148.9703  135.3548  155.6740 H   0  0  0  0  0  0  0  0  0  0  0  0
  150.4935  141.1225  154.1405 H   0  0  0  0  0  0  0  0  0  0  0  0
  148.7864  141.4105  154.4710 H   0  0  0  0  0  0  0  0  0  0  0  0
  149.3129  141.0099  152.8342 H   0  0  0  0  0  0  0  0  0  0  0  0
  152.0850  137.3566  154.5490 H   0  0  0  0  0  0  0  0  0  0  0  0
  152.0793  138.7851  153.5551 H   0  0  0  0  0  0  0  0  0  0  0  0
  150.6465  138.4477  156.7995 H   0  0  0  0  0  0  0  0  0  0  0  0
  151.1256  139.3601  158.8460 H   0  0  0  0  0  0  0  0  0  0  0  0
  152.7581  139.6434  158.2873 H   0  0  0  0  0  0  0  0  0  0  0  0
  152.1339  141.7787  157.2529 H   0  0  0  0  0  0  0  0  0  0  0  0
  150.4237  141.4477  157.4799 H   0  0  0  0  0  0  0  0  0  0  0  0
  153.4624  142.4266  159.1849 H   0  0  0  0  0  0  0  0  0  0  0  0
  153.0903  144.6647  158.3575 H   0  0  0  0  0  0  0  0  0  0  0  0
  152.2168  143.5527  157.3342 H   0  0  0  0  0  0  0  0  0  0  0  0
  150.8470  145.5720  157.9008 H   0  0  0  0  0  0  0  0  0  0  0  0
  150.0886  144.1056  158.4696 H   0  0  0  0  0  0  0  0  0  0  0  0
  151.7171  146.0653  160.1581 H   0  0  0  0  0  0  0  0  0  0  0  0
  149.9886  145.8241  160.2382 H   0  0  0  0  0  0  0  0  0  0  0  0
  151.1690  144.6309  162.0844 H   0  0  0  0  0  0  0  0  0  0  0  0
  150.2902  143.5178  161.0656 H   0  0  0  0  0  0  0  0  0  0  0  0
  153.2712  144.1208  160.9075 H   0  0  0  0  0  0  0  0  0  0  0  0
  151.8665  141.5925  161.8749 H   0  0  0  0  0  0  0  0  0  0  0  0
  152.7393  142.7498  162.8713 H   0  0  0  0  0  0  0  0  0  0  0  0
  153.6074  141.7854  161.6826 H   0  0  0  0  0  0  0  0  0  0  0  0
  1  2  1  0  0  0  0
  1 22  1  0  0  0  0
  1 23  1  0  0  0  0
  1 24  1  0  0  0  0
  2  7  1  0  0  0  0
  2  3  2  0  0  0  0
  3  4  1  0  0  0  0
  4  5  1  0  0  0  0
  5  6  1  0  0  0  0
  5  7  2  0  0  0  0
  6 25  1  0  0  0  0
  6 26  1  0  0  0  0
  6 27  1  0  0  0  0
  7  8  1  0  0  0  0
  8  9  1  0  0  0  0
  8 28  1  0  0  0  0
  8 29  1  0  0  0  0
  9 10  2  0  0  0  0
  9 11  1  0  0  0  0
 11 12  1  0  0  0  0
 11 30  1  0  0  0  0
 12 13  1  0  0  0  0
 12 31  1  0  0  0  0
 12 32  1  0  0  0  0
 13 14  1  0  0  0  0
 13 33  1  0  0  0  0
 13 34  1  0  0  0  0
 14 15  1  0  0  0  0
 15 20  1  0  0  0  0
 15 16  1  0  0  0  0
 15 35  1  0  0  0  0
 16 17  1  0  0  0  0
 16 36  1  0  0  0  0
 16 37  1  0  0  0  0
 17 18  1  0  0  0  0
 17 38  1  0  0  0  0
 17 39  1  0  0  0  0
 18 19  1  0  0  0  0
 18 40  1  0  0  0  0
 18 41  1  0  0  0  0
 19 20  1  0  0  0  0
 19 42  1  0  0  0  0
 19 43  1  0  0  0  0
 20 21  1  0  0  0  0
 20 44  1  0  0  0  0
 21 45  1  0  0  0  0
 21 46  1  0  0  0  0
 21 47  1  0  0  0  0
M  END
> <s_m_source_file>
AV-unprocessed.smi

> <i_m_source_file_index>
1346

> <i_lp_mmshare_version>
43012

> <i_f3d_flags>
0

> <s_epik_input>
W0NIM11jMW5vYyhbQ0gzXSljMVtDSDJdQyg9TylbTkhdW0NIMl1bQ0gyXU9bQ0BASF0yW0NIMl1bQ0gyXVtDSDJdW0NIMl1bQ0BIXTJbQ0gzXQ==

> <s_epik_cmdline>
J2VwaWtfcHl0aG9uJywgJy1waCcsICc3LjAnLCAnLXRuJywgJzgnLCAnLW1hJywgJzIwMCcsICctbWV0YWxfYmluZGluZycsICctaW1hZScsICc8aW5maWxlLm1hZT4nLCAnLW9tYWUnLCAnPG91dGZpbGUubWFlPic=

> <r_lp_tautomer_probability>
1

> <r_epik_Ionization_Penalty>
3.26154e-08

> <r_epik_Ionization_Penalty_Charging>
0

> <r_epik_Ionization_Penalty_Neutral>
3.26154e-08

> <r_epik_State_Penalty>
-0

> <r_epik_Charging_Adjusted_Penalty>
0

> <i_epik_Tot_Q>
0

> <i_epik_Tot_abs_Q>
0

> <r_epik_Metal_State_Penalty>
-0

> <b_epik_Metal_Only>
0

> <s_lp_Force_Field>
OPLS_2005

> <r_lp_Energy>
6.45158

> <b_lp_Chiralities_Consistent>
1

> <s_lp_Variant>
AV-unprocessed.smi:1346-2

> <Gold.Version>
5.8.1

> <Gold.Id.Protein>
6NUR|6NUR_protein|mol2

> <Gold.PLP.Fitness>
49.1177

> <Gold.PLP.PLP>
-46.9072

> <Gold.PLP.part.hbond>
-1.9991

> <Gold.PLP.part.metal>
0.0000

> <Gold.PLP.part.buried>
-3.7405

> <Gold.PLP.part.nonpolar>
-40.8878

> <Gold.PLP.part.repulsive>
0.2044

> <Gold.PLP.ligand.clash>
0.0000

> <Gold.PLP.ligand.torsion>
0.7682

> <Gold.PLP.Chemscore.Hbond>
1.2284

> <Gold.PLP.Chemscore.CHOScore>
0.0000

> <Gold.PLP.Chemscore.Metal>
0.0000

> <Gold.Chemscore.Hbonds>
donor molecule, donor type, donor heavy atom, donor atom, acceptor molecule, acceptor atom, score
      P1  H  7997  8009       L1    10  0.68

> <Gold.PLP.Chemscore.Internal.Correction>
0.0617

> <Gold.Rescore>
     Score         DG    S(hbond)    S(metal)    S(lipo)     H(rot)  DE(clash)    DE(int)     intcor
     18.78     -19.67       1.00        0.00     130.62       1.74       0.06       0.83       ----

> <Gold.Chemscore.Fitness>
18.7836

> <Gold.Chemscore.DG>
-19.6709

> <Gold.Chemscore.ZeroCoef>
-5.4800

> <Gold.Chemscore.Hbond>
1.0031

> <Gold.Chemscore.Metal>
0.0000

> <Gold.Chemscore.Lipo>
130.6194

> <Gold.Chemscore.Internal_Hbond>
0.0000

> <Gold.Chemscore.DEClash>
0.0586

> <Gold.Chemscore.DEInternal>
0.8286

> <Gold.Chemscore.Rot>
1.7352

> <Gold.Chemscore.Internal.Correction>
   9.000000E+99

> <Gold.Chemscore.Hbonds>
donor molecule, donor type, donor heavy atom, donor atom, acceptor molecule, acceptor atom, score
      P1  H  7997  8009       L1    10  0.69

> <Gold.Chemscore.Hbond.Weighted>
-3.3504

> <Gold.Chemscore.Metal.Weighted>
-0.0000

> <Gold.Chemscore.Lipo.Weighted>
-15.2825

> <Gold.Chemscore.Internal_Hbond.Weighted>
0.0000

> <Gold.Chemscore.DEClash.Weighted>
0.0586

> <Gold.Chemscore.DEInternal.Weighted>
0.8286

> <Gold.Chemscore.Rot.Weighted>
4.4420

> <Gold.Chemscore.Internal.Correction.Weighted>
   9.000000E+99

> <Gold.Protein.RotatedTorsions>
[ 6907 6896 6895 6894 ] final   71.47 input  -60.11 | X-H torsion
[ 7974 7965 7964 7962 ] final  142.05 input  175.53 | X-H torsion
[ 8008 7997 7996 7995 ] final -140.72 input   59.86 | X-H torsion
[ 10167 10162 10161 10158 ] final   36.61 input  -65.29 | X-H torsion
[ 10718 10713 10712 10709 ] final   37.32 input   66.30 | X-H torsion
[ 10763 10752 10751 10750 ] final  -91.89 input  -60.55 | X-H torsion
[ 11005 11000 10999 10996 ] final -179.31 input  -57.11 | X-H torsion

> <Gold.Protein.ActiveResidues>
 VAL166  LYS551  ARG553  GLY616  TRP617  ASP618  TYR619  PRO620  LYS621  CYS622 
 ASP623  PHE694  ASN695  SER759  ASP760  ASP761  ALA762  ILE779  LEU786  VAL792 
 PHE793  MET794  SER795  GLU796  ALA797  LYS798  CYS799  TRP800  GLU811  SER814 

> <Gold.Protein.RotatedAtoms>
  152.4812  134.4716  159.9636 H   0  0  0  0  0  0  0  0  0  0  0  0  # atno 6907 bound_to 6896
  151.4721  133.3560  159.2833 H   0  0  0  0  0  0  0  0  0  0  0  0  # atno 6908 bound_to 6896
  150.8885  134.8312  159.7337 H   0  0  0  0  0  0  0  0  0  0  0  0  # atno 6909 bound_to 6896
  144.9042  139.5381  143.5739 H   0  0  0  0  0  0  0  0  0  0  0  0  # atno 7974 bound_to 7965
  155.4659  140.0549  157.2985 H   0  0  0  0  0  0  0  0  0  0  0  0  # atno 8008 bound_to 7997
  154.4718  140.2043  155.9930 H   0  0  0  0  0  0  0  0  0  0  0  0  # atno 8009 bound_to 7997
  156.1068  140.3210  155.8022 H   0  0  0  0  0  0  0  0  0  0  0  0  # atno 8010 bound_to 7997
  140.4111  144.1591  150.6139 H   0  0  0  0  0  0  0  0  0  0  0  0  # atno 10167 bound_to 10162
  157.3455  130.7570  149.6942 H   0  0  0  0  0  0  0  0  0  0  0  0  # atno 10718 bound_to 10713
  154.6806  135.5251  153.8258 H   0  0  0  0  0  0  0  0  0  0  0  0  # atno 10763 bound_to 10752
  153.0562  135.6551  154.0581 H   0  0  0  0  0  0  0  0  0  0  0  0  # atno 10764 bound_to 10752
  154.0469  135.2972  155.3326 H   0  0  0  0  0  0  0  0  0  0  0  0  # atno 10765 bound_to 10752
  140.4201  134.6613  157.4659 H   0  0  0  0  0  0  0  0  0  0  0  0  # atno 11005 bound_to 11000
  146.3124  139.7796  142.9009 LP  0  0  0  0  0  0  0  0  0  0  0  0  # atno 17320 bound_to 7965
  145.3565  141.0317  143.3309 LP  0  0  0  0  0  0  0  0  0  0  0  0  # atno 17321 bound_to 7965
  140.4636  143.2439  151.9185 LP  0  0  0  0  0  0  0  0  0  0  0  0  # atno 17342 bound_to 10162
  139.4782  144.5442  151.8483 LP  0  0  0  0  0  0  0  0  0  0  0  0  # atno 17343 bound_to 10162
  155.9714  130.4155  150.4186 LP  0  0  0  0  0  0  0  0  0  0  0  0  # atno 17370 bound_to 10713
  157.2241  131.0489  151.2530 LP  0  0  0  0  0  0  0  0  0  0  0  0  # atno 17371 bound_to 10713
  140.0206  134.6553  155.9245 LP  0  0  0  0  0  0  0  0  0  0  0  0  # atno 17394 bound_to 11000
  141.1787  133.6543  156.4933 LP  0  0  0  0  0  0  0  0  0  0  0  0  # atno 17395 bound_to 11000

$$$$
