AV-unprocessed.smi:1033|AV-procd|sdf|4501|dock7
  -GOLD-   22720 2493D 1   1.00000     0.00000
 Structure written by MMmdl.
 57 59  0  0  0  0  0  0  0  0  3 V2000
  152.5852  143.8516  161.1233 C   0  0  0  0  0  0  0  0  0  0  0  0
  152.2862  142.9587  159.9309 C   0  0  0  0  0  0  0  0  0  0  0  0
  152.5735  141.5787  160.0333 C   0  0  0  0  0  0  0  0  0  0  0  0
  152.2877  140.7877  158.9268 C   0  0  0  0  0  0  0  0  0  0  0  0
  152.4557  139.4180  158.7121 N   0  3  0  0  0  0  0  0  0  0  0  0
  152.0307  139.0987  157.4583 C   0  0  0  0  0  0  0  0  0  0  0  0
  151.5819  140.2433  156.8737 N   0  0  0  0  0  0  0  0  0  0  0  0
  151.0231  140.4663  155.5340 C   0  0  0  0  0  0  0  0  0  0  0  0
  150.0739  139.3407  155.0729 C   0  0  1  0  0  0  0  0  0  0  0  0
  149.2908  139.8623  154.0185 O   0  0  0  0  0  0  0  0  0  0  0  0
  150.8178  138.0801  154.5778 C   0  0  0  0  0  0  0  0  0  0  0  0
  149.9433  136.8821  154.4969 N   0  3  0  0  0  0  0  0  0  0  0  0
  148.7574  136.9478  155.3934 C   0  0  0  0  0  0  0  0  0  0  0  0
  147.8813  135.6905  155.2167 C   0  0  0  0  0  0  0  0  0  0  0  0
  148.6064  134.4387  155.4497 N   0  0  0  0  0  0  0  0  0  0  0  0
  148.9625  134.1872  156.8512 C   0  0  0  0  0  0  0  0  0  0  0  0
  149.2272  132.7126  157.2144 C   0  0  1  0  0  0  0  0  0  0  0  0
  150.3614  132.0860  156.3906 C   0  0  0  0  0  0  0  0  0  0  0  0
  149.5912  132.6554  158.5772 O   0  0  0  0  0  0  0  0  0  0  0  0
  149.7639  134.4013  154.5569 C   0  0  0  0  0  0  0  0  0  0  0  0
  150.6958  135.6197  154.7167 C   0  0  0  0  0  0  0  0  0  0  0  0
  151.7340  141.3243  157.7484 C   0  0  0  0  0  0  0  0  0  0  0  0
  151.4497  142.6824  157.6285 C   0  0  0  0  0  0  0  0  0  0  0  0
  151.7333  143.5038  158.7430 C   0  0  0  0  0  0  0  0  0  0  0  0
  151.4332  144.9897  158.6426 C   0  0  0  0  0  0  0  0  0  0  0  0
  152.9715  143.2767  161.9657 H   0  0  0  0  0  0  0  0  0  0  0  0
  151.6814  144.3623  161.4565 H   0  0  0  0  0  0  0  0  0  0  0  0
  153.3316  144.6019  160.8617 H   0  0  0  0  0  0  0  0  0  0  0  0
  152.9990  141.1583  160.9330 H   0  0  0  0  0  0  0  0  0  0  0  0
  152.0444  138.1148  157.0113 H   0  0  0  0  0  0  0  0  0  0  0  0
  150.5144  141.4316  155.5347 H   0  0  0  0  0  0  0  0  0  0  0  0
  151.8628  140.5599  154.8435 H   0  0  0  0  0  0  0  0  0  0  0  0
  149.4046  139.0925  155.8951 H   0  0  0  0  0  0  0  0  0  0  0  0
  149.6802  139.6179  153.1930 H   0  0  0  0  0  0  0  0  0  0  0  0
  151.2393  138.2942  153.5943 H   0  0  0  0  0  0  0  0  0  0  0  0
  151.6646  137.8459  155.2236 H   0  0  0  0  0  0  0  0  0  0  0  0
  149.0764  137.0556  156.4309 H   0  0  0  0  0  0  0  0  0  0  0  0
  148.1576  137.8269  155.1612 H   0  0  0  0  0  0  0  0  0  0  0  0
  147.0054  135.7529  155.8610 H   0  0  0  0  0  0  0  0  0  0  0  0
  147.4872  135.6827  154.1994 H   0  0  0  0  0  0  0  0  0  0  0  0
  149.8621  134.7554  157.0922 H   0  0  0  0  0  0  0  0  0  0  0  0
  148.1870  134.5786  157.5090 H   0  0  0  0  0  0  0  0  0  0  0  0
  148.3210  132.1185  157.1039 H   0  0  0  0  0  0  0  0  0  0  0  0
  150.1157  132.0754  155.3285 H   0  0  0  0  0  0  0  0  0  0  0  0
  150.5442  131.0547  156.6938 H   0  0  0  0  0  0  0  0  0  0  0  0
  151.2938  132.6387  156.5100 H   0  0  0  0  0  0  0  0  0  0  0  0
  149.2096  131.8798  158.9598 H   0  0  0  0  0  0  0  0  0  0  0  0
  150.3261  133.4807  154.7174 H   0  0  0  0  0  0  0  0  0  0  0  0
  149.4143  134.3572  153.5245 H   0  0  0  0  0  0  0  0  0  0  0  0
  151.5059  135.5471  153.9899 H   0  0  0  0  0  0  0  0  0  0  0  0
  151.1603  135.6296  155.7036 H   0  0  0  0  0  0  0  0  0  0  0  0
  151.0324  143.0977  156.7229 H   0  0  0  0  0  0  0  0  0  0  0  0
  151.0469  145.2540  157.6578 H   0  0  0  0  0  0  0  0  0  0  0  0
  152.3368  145.5756  158.8129 H   0  0  0  0  0  0  0  0  0  0  0  0
  150.6864  145.2799  159.3821 H   0  0  0  0  0  0  0  0  0  0  0  0
  149.5973  136.8369  153.5492 H   0  0  0  0  0  0  0  0  0  0  0  0
  152.8379  138.7496  159.3693 H   0  0  0  0  0  0  0  0  0  0  0  0
  1  2  1  0  0  0  0
  1 26  1  0  0  0  0
  1 27  1  0  0  0  0
  1 28  1  0  0  0  0
  2 24  1  0  0  0  0
  2  3  2  0  0  0  0
  3  4  1  0  0  0  0
  3 29  1  0  0  0  0
  4 22  2  0  0  0  0
  4  5  1  0  0  0  0
  5  6  2  0  0  0  0
  5 57  1  0  0  0  0
  6  7  1  0  0  0  0
  6 30  1  0  0  0  0
  7  8  1  0  0  0  0
  7 22  1  0  0  0  0
  8  9  1  0  0  0  0
  8 31  1  0  0  0  0
  8 32  1  0  0  0  0
  9 10  1  0  0  0  0
  9 11  1  0  0  0  0
  9 33  1  0  0  0  0
 10 34  1  0  0  0  0
 11 12  1  0  0  0  0
 11 35  1  0  0  0  0
 11 36  1  0  0  0  0
 12 21  1  0  0  0  0
 12 13  1  0  0  0  0
 12 56  1  0  0  0  0
 13 14  1  0  0  0  0
 13 37  1  0  0  0  0
 13 38  1  0  0  0  0
 14 15  1  0  0  0  0
 14 39  1  0  0  0  0
 14 40  1  0  0  0  0
 15 16  1  0  0  0  0
 15 20  1  0  0  0  0
 16 17  1  0  0  0  0
 16 41  1  0  0  0  0
 16 42  1  0  0  0  0
 17 18  1  0  0  0  0
 17 19  1  0  0  0  0
 17 43  1  0  0  0  0
 18 44  1  0  0  0  0
 18 45  1  0  0  0  0
 18 46  1  0  0  0  0
 19 47  1  0  0  0  0
 20 21  1  0  0  0  0
 20 48  1  0  0  0  0
 20 49  1  0  0  0  0
 21 50  1  0  0  0  0
 21 51  1  0  0  0  0
 22 23  1  0  0  0  0
 23 24  2  0  0  0  0
 23 52  1  0  0  0  0
 24 25  1  0  0  0  0
 25 53  1  0  0  0  0
 25 54  1  0  0  0  0
 25 55  1  0  0  0  0
M  CHG  1   5   1
M  CHG  1  12   1
M  END
> <s_m_source_file>
AV-unprocessed.smi

> <i_m_source_file_index>
1033

> <i_lp_mmshare_version>
43012

> <i_f3d_flags>
0

> <s_epik_input>
W0NIM11jKFtjSF0xKWMoW0NIM10pW2NIXWMoYzEyKW4oW2NIXW4yKVtDSDJdW0NASF0oW09IXSlbQ0gyXU4zW0NIMl1bQ0gyXU4oW0NIMl1bQ0gyXTMpW0NIMl1bQ0BIXShbQ0gzXSlbT0hd

> <s_epik_cmdline>
J2VwaWtfcHl0aG9uJywgJy1waCcsICc3LjAnLCAnLXRuJywgJzgnLCAnLW1hJywgJzIwMCcsICctbWV0YWxfYmluZGluZycsICctaW1hZScsICc8aW5maWxlLm1hZT4nLCAnLW9tYWUnLCAnPG91dGZpbGUubWFlPic=

> <r_epik_Ionization_Penalty>
1.22049

> <r_epik_Ionization_Penalty_Charging>
1.17952

> <r_epik_Ionization_Penalty_Neutral>
0.0409743

> <r_epik_State_Penalty>
1.61468

> <r_epik_Charging_Adjusted_Penalty>
2.7942

> <i_epik_Tot_Q>
2

> <i_epik_Tot_abs_Q>
2

> <r_epik_Metal_State_Penalty>
5.63169

> <b_epik_Metal_Only>
0

> <s_lp_Force_Field>
OPLS_2005

> <r_lp_Energy>
46.1755

> <b_lp_Chiralities_Consistent>
1

> <s_lp_Variant>
AV-unprocessed.smi:1033-12

> <Gold.Version>
5.8.1

> <Gold.Id.Protein>
6NUR|6NUR_protein|mol2

> <Gold.PLP.Fitness>
52.8194

> <Gold.PLP.PLP>
-43.9476

> <Gold.PLP.part.hbond>
-3.0000

> <Gold.PLP.part.metal>
0.0000

> <Gold.PLP.part.buried>
-4.2864

> <Gold.PLP.part.nonpolar>
-36.7392

> <Gold.PLP.part.repulsive>
0.1889

> <Gold.PLP.ligand.clash>
0.0044

> <Gold.PLP.ligand.torsion>
1.1944

> <Gold.PLP.Chemscore.Hbond>
3.7166

> <Gold.PLP.Chemscore.CHOScore>
0.0000

> <Gold.PLP.Chemscore.Metal>
0.0000

> <Gold.Chemscore.Hbonds>
donor molecule, donor type, donor heavy atom, donor atom, acceptor molecule, acceptor atom, score
      L1  H    10    34       P1  7957  0.76
      L1  H    12    56       P1  7948  2.00
      P1  H  6896  6907       L1    19  1.00

> <Gold.PLP.Chemscore.Internal.Correction>
0.1153

> <Gold.Rescore>
     Score         DG    S(hbond)    S(metal)    S(lipo)     H(rot)  DE(clash)    DE(int)     intcor
     19.29     -21.84       2.83        0.00     127.79       3.15       0.46       2.08       ----

> <Gold.Chemscore.Fitness>
19.2901

> <Gold.Chemscore.DG>
-21.8362

> <Gold.Chemscore.ZeroCoef>
-5.4800

> <Gold.Chemscore.Hbond>
2.8336

> <Gold.Chemscore.Metal>
0.0000

> <Gold.Chemscore.Lipo>
127.7922

> <Gold.Chemscore.Internal_Hbond>
0.0000

> <Gold.Chemscore.DEClash>
0.4634

> <Gold.Chemscore.DEInternal>
2.0827

> <Gold.Chemscore.Rot>
3.1483

> <Gold.Chemscore.Internal.Correction>
   9.000000E+99

> <Gold.Chemscore.Hbonds>
donor molecule, donor type, donor heavy atom, donor atom, acceptor molecule, acceptor atom, score
      L1  H    10    34       P1  7957  0.73
      L1  H    12    56       P1  7948  0.74
      P1  H  6896  6907       L1    19  0.94

> <Gold.Chemscore.Hbond.Weighted>
-9.4642

> <Gold.Chemscore.Metal.Weighted>
-0.0000

> <Gold.Chemscore.Lipo.Weighted>
-14.9517

> <Gold.Chemscore.Internal_Hbond.Weighted>
0.0000

> <Gold.Chemscore.DEClash.Weighted>
0.4634

> <Gold.Chemscore.DEInternal.Weighted>
2.0827

> <Gold.Chemscore.Rot.Weighted>
8.0597

> <Gold.Chemscore.Internal.Correction.Weighted>
   9.000000E+99

> <Gold.Protein.RotatedTorsions>
[ 6907 6896 6895 6894 ] final -143.20 input  -60.11 | X-H torsion
[ 7974 7965 7964 7962 ] final  -28.38 input  175.53 | X-H torsion
[ 8008 7997 7996 7995 ] final   -7.52 input   59.86 | X-H torsion
[ 10167 10162 10161 10158 ] final  -35.95 input  -65.29 | X-H torsion
[ 10718 10713 10712 10709 ] final   72.09 input   66.30 | X-H torsion
[ 10763 10752 10751 10750 ] final -122.46 input  -60.55 | X-H torsion
[ 11005 11000 10999 10996 ] final -147.89 input  -57.11 | X-H torsion

> <Gold.Protein.ActiveResidues>
 VAL166  LYS551  ARG553  GLY616  TRP617  ASP618  TYR619  PRO620  LYS621  CYS622 
 ASP623  PHE694  ASN695  SER759  ASP760  ASP761  ALA762  ILE779  LEU786  VAL792 
 PHE793  MET794  SER795  GLU796  ALA797  LYS798  CYS799  TRP800  GLU811  SER814 

> <Gold.Protein.RotatedAtoms>
  151.0972  133.5270  159.2611 H   0  0  0  0  0  0  0  0  0  0  0  0  # atno 6907 bound_to 6896
  151.2115  135.0482  159.8923 H   0  0  0  0  0  0  0  0  0  0  0  0  # atno 6908 bound_to 6896
  152.5440  134.0787  159.8279 H   0  0  0  0  0  0  0  0  0  0  0  0  # atno 6909 bound_to 6896
  146.1292  140.5275  142.8701 H   0  0  0  0  0  0  0  0  0  0  0  0  # atno 7974 bound_to 7965
  154.5830  140.2405  155.8027 H   0  0  0  0  0  0  0  0  0  0  0  0  # atno 8008 bound_to 7997
  156.2193  140.3002  155.9869 H   0  0  0  0  0  0  0  0  0  0  0  0  # atno 8009 bound_to 7997
  155.2508  140.0410  157.2977 H   0  0  0  0  0  0  0  0  0  0  0  0  # atno 8010 bound_to 7997
  140.7154  143.3442  151.2292 H   0  0  0  0  0  0  0  0  0  0  0  0  # atno 10167 bound_to 10162
  157.6484  130.9561  150.0880 H   0  0  0  0  0  0  0  0  0  0  0  0  # atno 10718 bound_to 10713
  154.8690  135.4132  154.2785 H   0  0  0  0  0  0  0  0  0  0  0  0  # atno 10763 bound_to 10752
  153.3682  135.7006  153.6664 H   0  0  0  0  0  0  0  0  0  0  0  0  # atno 10764 bound_to 10752
  153.5537  135.3624  155.2742 H   0  0  0  0  0  0  0  0  0  0  0  0  # atno 10765 bound_to 10752
  140.7669  134.3233  157.5086 H   0  0  0  0  0  0  0  0  0  0  0  0  # atno 11005 bound_to 11000
  144.7673  140.5559  143.6694 LP  0  0  0  0  0  0  0  0  0  0  0  0  # atno 17320 bound_to 7965
  145.5298  139.1475  143.3506 LP  0  0  0  0  0  0  0  0  0  0  0  0  # atno 17321 bound_to 7965
  139.6957  143.9616  152.2881 LP  0  0  0  0  0  0  0  0  0  0  0  0  # atno 17342 bound_to 10162
  139.9293  144.6751  150.8380 LP  0  0  0  0  0  0  0  0  0  0  0  0  # atno 17343 bound_to 10162
  156.1837  130.3651  149.9001 LP  0  0  0  0  0  0  0  0  0  0  0  0  # atno 17370 bound_to 10713
  156.6947  130.8909  151.3592 LP  0  0  0  0  0  0  0  0  0  0  0  0  # atno 17371 bound_to 10713
  139.8762  134.9237  156.3331 LP  0  0  0  0  0  0  0  0  0  0  0  0  # atno 17394 bound_to 11000
  140.9610  133.7388  156.0401 LP  0  0  0  0  0  0  0  0  0  0  0  0  # atno 17395 bound_to 11000

$$$$
