AV-unprocessed.smi:2668|AV-procd|sdf|10342|dock8
  -GOLD-   2272014363D 1   1.00000     0.00000
 Structure written by MMmdl.
 53 54  0  0  0  0  0  0  0  0  2 V2000
  145.5379  136.2834  157.4323 C   0  0  0  0  0  0  0  0  0  0  0  0
  144.9569  137.5247  156.9251 N   0  0  0  0  0  0  0  0  0  0  0  0
  143.5173  137.4366  157.1619 C   0  0  0  0  0  0  0  0  0  0  0  0
  145.5487  138.7194  157.5600 C   0  0  2  0  0  0  0  0  0  0  0  0
  144.9428  140.0433  157.0416 C   0  0  0  0  0  0  0  0  0  0  0  0
  145.3556  140.3417  155.5896 C   0  0  0  0  0  0  0  0  0  0  0  0
  146.8407  140.4040  155.4409 N   0  3  2  0  0  0  0  0  0  0  0  0
  147.3388  140.9141  154.1104 C   0  0  0  0  0  0  0  0  0  0  0  0
  146.9158  139.9423  152.9791 C   0  0  0  0  0  0  0  0  0  0  0  0
  146.6577  142.2676  153.7827 C   0  0  0  0  0  0  0  0  0  0  0  0
  148.8897  141.0703  154.1121 C   0  0  0  0  0  0  0  0  0  0  0  0
  149.3864  141.9575  155.1634 N   0  0  0  0  0  0  0  0  0  0  0  0
  150.2799  141.6262  156.1068 C   0  0  0  0  0  0  0  0  0  0  0  0
  150.7796  140.5058  156.2039 O   0  0  0  0  0  0  0  0  0  0  0  0
  150.5542  142.6737  156.9030 N   0  0  0  0  0  0  0  0  0  0  0  0
  151.4389  142.7340  158.0137 C   0  0  0  0  0  0  0  0  0  0  0  0
  152.0223  141.6016  158.6326 C   0  0  0  0  0  0  0  0  0  0  0  0
  152.8700  141.7939  159.7404 C   0  0  0  0  0  0  0  0  0  0  0  0
  153.0986  143.1076  160.1931 C   0  0  0  0  0  0  0  0  0  0  0  0
  152.5391  144.1947  159.6218 N   0  0  0  0  0  0  0  0  0  0  0  0
  151.7268  144.0027  158.5607 C   0  0  0  0  0  0  0  0  0  0  0  0
  147.4697  139.1357  155.9184 C   0  0  0  0  0  0  0  0  0  0  0  0
  147.0797  138.8235  157.3741 C   0  0  0  0  0  0  0  0  0  0  0  0
  146.5794  136.1763  157.1333 H   0  0  0  0  0  0  0  0  0  0  0  0
  145.0170  135.4161  157.0242 H   0  0  0  0  0  0  0  0  0  0  0  0
  145.4792  136.2313  158.5205 H   0  0  0  0  0  0  0  0  0  0  0  0
  142.9745  138.2366  156.6618 H   0  0  0  0  0  0  0  0  0  0  0  0
  143.2860  137.4719  158.2275 H   0  0  0  0  0  0  0  0  0  0  0  0
  143.1155  136.5049  156.7612 H   0  0  0  0  0  0  0  0  0  0  0  0
  145.3448  138.6478  158.6297 H   0  0  0  0  0  0  0  0  0  0  0  0
  143.8596  140.0754  157.1443 H   0  0  0  0  0  0  0  0  0  0  0  0
  145.3003  140.8581  157.6729 H   0  0  0  0  0  0  0  0  0  0  0  0
  144.9412  139.5789  154.9302 H   0  0  0  0  0  0  0  0  0  0  0  0
  144.8885  141.2844  155.3139 H   0  0  0  0  0  0  0  0  0  0  0  0
  147.0773  140.3776  151.9920 H   0  0  0  0  0  0  0  0  0  0  0  0
  145.8570  139.6890  153.0463 H   0  0  0  0  0  0  0  0  0  0  0  0
  147.4868  139.0143  152.9915 H   0  0  0  0  0  0  0  0  0  0  0  0
  146.8158  142.5606  152.7442 H   0  0  0  0  0  0  0  0  0  0  0  0
  147.0479  143.0865  154.3864 H   0  0  0  0  0  0  0  0  0  0  0  0
  145.5790  142.2189  153.9370 H   0  0  0  0  0  0  0  0  0  0  0  0
  149.3817  140.1003  154.1888 H   0  0  0  0  0  0  0  0  0  0  0  0
  149.2293  141.5000  153.1702 H   0  0  0  0  0  0  0  0  0  0  0  0
  149.0323  142.9030  155.1617 H   0  0  0  0  0  0  0  0  0  0  0  0
  150.1234  143.5503  156.6474 H   0  0  0  0  0  0  0  0  0  0  0  0
  151.8277  140.5961  158.2932 H   0  0  0  0  0  0  0  0  0  0  0  0
  153.3308  140.9518  160.2351 H   0  0  0  0  0  0  0  0  0  0  0  0
  153.7429  143.2894  161.0406 H   0  0  0  0  0  0  0  0  0  0  0  0
  151.2945  144.8947  158.1309 H   0  0  0  0  0  0  0  0  0  0  0  0
  147.1771  138.3036  155.2779 H   0  0  0  0  0  0  0  0  0  0  0  0
  148.5556  139.1916  155.8851 H   0  0  0  0  0  0  0  0  0  0  0  0
  147.4504  139.6307  158.0076 H   0  0  0  0  0  0  0  0  0  0  0  0
  147.6039  137.9382  157.7302 H   0  0  0  0  0  0  0  0  0  0  0  0
  147.1381  141.1055  156.1037 H   0  0  0  0  0  0  0  0  0  0  0  0
  1  2  1  0  0  0  0
  1 24  1  0  0  0  0
  1 25  1  0  0  0  0
  1 26  1  0  0  0  0
  2  3  1  0  0  0  0
  2  4  1  0  0  0  0
  3 27  1  0  0  0  0
  3 28  1  0  0  0  0
  3 29  1  0  0  0  0
  4 23  1  0  0  0  0
  4  5  1  0  0  0  0
  4 30  1  0  0  0  0
  5  6  1  0  0  0  0
  5 31  1  0  0  0  0
  5 32  1  0  0  0  0
  6  7  1  0  0  0  0
  6 33  1  0  0  0  0
  6 34  1  0  0  0  0
  7  8  1  0  0  0  0
  7 22  1  0  0  0  0
  7 53  1  0  0  0  0
  8  9  1  0  0  0  0
  8 10  1  0  0  0  0
  8 11  1  0  0  0  0
  9 35  1  0  0  0  0
  9 36  1  0  0  0  0
  9 37  1  0  0  0  0
 10 38  1  0  0  0  0
 10 39  1  0  0  0  0
 10 40  1  0  0  0  0
 11 12  1  0  0  0  0
 11 41  1  0  0  0  0
 11 42  1  0  0  0  0
 12 13  1  0  0  0  0
 12 43  1  0  0  0  0
 13 14  2  0  0  0  0
 13 15  1  0  0  0  0
 15 16  1  0  0  0  0
 15 44  1  0  0  0  0
 16 21  1  0  0  0  0
 16 17  2  0  0  0  0
 17 18  1  0  0  0  0
 17 45  1  0  0  0  0
 18 19  2  0  0  0  0
 18 46  1  0  0  0  0
 19 20  1  0  0  0  0
 19 47  1  0  0  0  0
 20 21  2  0  0  0  0
 21 48  1  0  0  0  0
 22 23  1  0  0  0  0
 22 49  1  0  0  0  0
 22 50  1  0  0  0  0
 23 51  1  0  0  0  0
 23 52  1  0  0  0  0
M  CHG  1   7   1
M  END
> <s_m_source_file>
AV-unprocessed.smi

> <i_m_source_file_index>
2668

> <i_lp_mmshare_version>
43012

> <i_f3d_flags>
0

> <s_epik_input>
W0NIM11OKFtDSDNdKVtDSF0xW0NIMl1bQ0gyXU4oW0NIMl1bQ0gyXTEpQyhbQ0gzXSkoW0NIM10pW0NIMl1bTkhdQyg9TylbTkhdYzJbY0hdW2NIXVtjSF1uW2NIXTI=

> <s_epik_cmdline>
J2VwaWtfcHl0aG9uJywgJy1waCcsICc3LjAnLCAnLXRuJywgJzgnLCAnLW1hJywgJzIwMCcsICctbWV0YWxfYmluZGluZycsICctaW1hZScsICc8aW5maWxlLm1hZT4nLCAnLW9tYWUnLCAnPG91dGZpbGUubWFlPic=

> <r_epik_Ionization_Penalty>
1.32573

> <r_epik_Ionization_Penalty_Charging>
0.00219175

> <r_epik_Ionization_Penalty_Neutral>
1.32353

> <r_epik_State_Penalty>
1.51166

> <r_epik_Charging_Adjusted_Penalty>
1.51385

> <i_epik_Tot_Q>
1

> <i_epik_Tot_abs_Q>
1

> <r_epik_Metal_State_Penalty>
1.51178

> <b_epik_Metal_Only>
0

> <s_lp_Force_Field>
OPLS_2005

> <r_lp_Energy>
39.6139

> <b_lp_Chiralities_Consistent>
1

> <s_lp_Variant>
AV-unprocessed.smi:2668-5

> <Gold.Version>
5.8.1

> <Gold.Id.Protein>
6NUR|6NUR_protein|mol2

> <Gold.PLP.Fitness>
40.2481

> <Gold.PLP.PLP>
-34.3231

> <Gold.PLP.part.hbond>
-2.0000

> <Gold.PLP.part.metal>
0.0000

> <Gold.PLP.part.buried>
-5.4685

> <Gold.PLP.part.nonpolar>
-27.3528

> <Gold.PLP.part.repulsive>
0.2752

> <Gold.PLP.ligand.clash>
0.0000

> <Gold.PLP.ligand.torsion>
0.0931

> <Gold.PLP.Chemscore.Hbond>
2.0000

> <Gold.PLP.Chemscore.CHOScore>
0.0000

> <Gold.PLP.Chemscore.Metal>
0.0000

> <Gold.Chemscore.Hbonds>
donor molecule, donor type, donor heavy atom, donor atom, acceptor molecule, acceptor atom, score
      L1  H    12    43       P1  8028  1.00
      L1  H    15    44       P1  8028  1.00

> <Gold.PLP.Chemscore.Internal.Correction>
0.1112

> <Gold.Rescore>
     Score         DG    S(hbond)    S(metal)    S(lipo)     H(rot)  DE(clash)    DE(int)     intcor
     16.80     -18.14       1.95        0.00      87.94       1.62       0.04       1.31       ----

> <Gold.Chemscore.Fitness>
16.7973

> <Gold.Chemscore.DG>
-18.1416

> <Gold.Chemscore.ZeroCoef>
-5.4800

> <Gold.Chemscore.Hbond>
1.9542

> <Gold.Chemscore.Metal>
0.0000

> <Gold.Chemscore.Lipo>
87.9411

> <Gold.Chemscore.Internal_Hbond>
0.0000

> <Gold.Chemscore.DEClash>
0.0377

> <Gold.Chemscore.DEInternal>
1.3065

> <Gold.Chemscore.Rot>
1.6228

> <Gold.Chemscore.Internal.Correction>
   9.000000E+99

> <Gold.Chemscore.Hbonds>
donor molecule, donor type, donor heavy atom, donor atom, acceptor molecule, acceptor atom, score
      L1  H    12    43       P1  8028  0.99
      L1  H    15    44       P1  8028  0.98

> <Gold.Chemscore.Hbond.Weighted>
-6.5269

> <Gold.Chemscore.Metal.Weighted>
-0.0000

> <Gold.Chemscore.Lipo.Weighted>
-10.2891

> <Gold.Chemscore.Internal_Hbond.Weighted>
0.0000

> <Gold.Chemscore.DEClash.Weighted>
0.0377

> <Gold.Chemscore.DEInternal.Weighted>
1.3065

> <Gold.Chemscore.Rot.Weighted>
4.1545

> <Gold.Chemscore.Internal.Correction.Weighted>
   9.000000E+99

> <Gold.Protein.RotatedTorsions>
[ 6907 6896 6895 6894 ] final  -98.90 input  -60.11 | X-H torsion
[ 7974 7965 7964 7962 ] final    2.27 input  175.53 | X-H torsion
[ 8008 7997 7996 7995 ] final   76.72 input   59.86 | X-H torsion
[ 10167 10162 10161 10158 ] final  -35.53 input  -65.29 | X-H torsion
[ 10718 10713 10712 10709 ] final  166.37 input   66.30 | X-H torsion
[ 10763 10752 10751 10750 ] final  -16.29 input  -60.55 | X-H torsion
[ 11005 11000 10999 10996 ] final   22.46 input  -57.11 | X-H torsion

> <Gold.Protein.ActiveResidues>
 VAL166  LYS551  ARG553  GLY616  TRP617  ASP618  TYR619  PRO620  LYS621  CYS622 
 ASP623  PHE694  ASN695  SER759  ASP760  ASP761  ALA762  ILE779  LEU786  VAL792 
 PHE793  MET794  SER795  GLU796  ALA797  LYS798  CYS799  TRP800  GLU811  SER814 

> <Gold.Protein.RotatedAtoms>
  150.7062  134.1124  159.4004 H   0  0  0  0  0  0  0  0  0  0  0  0  # atno 6907 bound_to 6896
  151.9110  135.0336  160.0524 H   0  0  0  0  0  0  0  0  0  0  0  0  # atno 6908 bound_to 6896
  152.2335  133.5042  159.5266 H   0  0  0  0  0  0  0  0  0  0  0  0  # atno 6909 bound_to 6896
  146.2443  140.0861  142.8354 H   0  0  0  0  0  0  0  0  0  0  0  0  # atno 7974 bound_to 7965
  155.8314  140.3466  155.5575 H   0  0  0  0  0  0  0  0  0  0  0  0  # atno 8008 bound_to 7997
  155.8238  140.0917  157.1853 H   0  0  0  0  0  0  0  0  0  0  0  0  # atno 8009 bound_to 7997
  154.4004  140.1425  156.3519 H   0  0  0  0  0  0  0  0  0  0  0  0  # atno 8010 bound_to 7997
  140.7163  143.3471  151.2233 H   0  0  0  0  0  0  0  0  0  0  0  0  # atno 10167 bound_to 10162
  157.0668  131.0355  151.2627 H   0  0  0  0  0  0  0  0  0  0  0  0  # atno 10718 bound_to 10713
  153.5563  135.7010  153.5568 H   0  0  0  0  0  0  0  0  0  0  0  0  # atno 10763 bound_to 10752
  153.3469  135.4005  155.1616 H   0  0  0  0  0  0  0  0  0  0  0  0  # atno 10764 bound_to 10752
  154.8654  135.3756  154.5077 H   0  0  0  0  0  0  0  0  0  0  0  0  # atno 10765 bound_to 10752
  140.3803  134.1928  155.7664 H   0  0  0  0  0  0  0  0  0  0  0  0  # atno 11005 bound_to 11000
  145.0691  140.9143  143.4893 LP  0  0  0  0  0  0  0  0  0  0  0  0  # atno 17320 bound_to 7965
  145.0991  139.2835  143.5695 LP  0  0  0  0  0  0  0  0  0  0  0  0  # atno 17321 bound_to 7965
  139.6993  143.9560  152.2898 LP  0  0  0  0  0  0  0  0  0  0  0  0  # atno 17342 bound_to 10162
  139.9248  144.6778  150.8424 LP  0  0  0  0  0  0  0  0  0  0  0  0  # atno 17343 bound_to 10162
  157.4910  130.7822  149.7508 LP  0  0  0  0  0  0  0  0  0  0  0  0  # atno 17370 bound_to 10713
  155.9962  130.3907  150.2788 LP  0  0  0  0  0  0  0  0  0  0  0  0  # atno 17371 bound_to 10713
  141.1926  133.8170  157.0834 LP  0  0  0  0  0  0  0  0  0  0  0  0  # atno 17394 bound_to 11000
  140.0484  134.9818  157.1091 LP  0  0  0  0  0  0  0  0  0  0  0  0  # atno 17395 bound_to 11000

$$$$
