AV-unprocessed.smi:1311|AV-procd|sdf|5446|dock3
  -GOLD-   22720 5 13D 1   1.00000     0.00000
 Structure written by MMmdl.
 46 47  0  0  0  0  0  0  0  0  2 V2000
  143.7677  132.3875  149.4728 C   0  0  0  0  0  0  0  0  0  0  0  0
  144.1361  131.6176  150.7515 C   0  0  0  0  0  0  0  0  0  0  0  0
  145.1231  132.3578  151.6955 C   0  0  2  0  0  0  0  0  0  0  0  0
  146.1391  131.3978  152.3706 C   0  0  0  0  0  0  0  0  0  0  0  0
  147.4240  132.0411  152.6346 N   0  0  0  0  0  0  0  0  0  0  0  0
  148.1213  131.9654  153.7791 C   0  0  0  0  0  0  0  0  0  0  0  0
  147.7521  131.3225  154.7611 O   0  0  0  0  0  0  0  0  0  0  0  0
  149.4394  132.7378  153.8251 C   0  0  0  0  0  0  0  0  0  0  0  0
  150.0919  132.5448  155.1688 C   0  0  0  0  0  0  0  0  0  0  0  0
  150.1566  133.4683  156.2515 C   0  0  0  0  0  0  0  0  0  0  0  0
  149.5927  134.8584  156.3260 C   0  0  0  0  0  0  0  0  0  0  0  0
  150.8091  132.9695  157.2881 N   0  0  0  0  0  0  0  0  0  0  0  0
  151.1997  131.6811  156.9108 O   0  0  0  0  0  0  0  0  0  0  0  0
  150.7611  131.4520  155.6469 C   0  0  0  0  0  0  0  0  0  0  0  0
  151.0803  130.1204  155.0562 C   0  0  0  0  0  0  0  0  0  0  0  0
  144.3875  133.1866  152.6969 N   0  3  0  0  0  0  0  0  0  0  0  0
  145.2249  133.9865  153.6176 C   0  0  0  0  0  0  0  0  0  0  0  0
  144.2949  135.0633  154.1640 C   0  0  0  0  0  0  0  0  0  0  0  0
  143.4247  135.4060  152.9609 C   0  0  0  0  0  0  0  0  0  0  0  0
  143.3744  134.1151  152.1321 C   0  0  0  0  0  0  0  0  0  0  0  0
  143.0670  131.8113  148.8684 H   0  0  0  0  0  0  0  0  0  0  0  0
  144.6446  132.5849  148.8564 H   0  0  0  0  0  0  0  0  0  0  0  0
  143.2943  133.3427  149.6956 H   0  0  0  0  0  0  0  0  0  0  0  0
  143.2204  131.3755  151.2907 H   0  0  0  0  0  0  0  0  0  0  0  0
  144.5459  130.6492  150.4657 H   0  0  0  0  0  0  0  0  0  0  0  0
  145.7017  133.0487  151.0799 H   0  0  0  0  0  0  0  0  0  0  0  0
  145.7696  131.0711  153.3421 H   0  0  0  0  0  0  0  0  0  0  0  0
  146.2611  130.4901  151.7778 H   0  0  0  0  0  0  0  0  0  0  0  0
  147.8122  132.6003  151.8885 H   0  0  0  0  0  0  0  0  0  0  0  0
  150.0809  132.3829  153.0178 H   0  0  0  0  0  0  0  0  0  0  0  0
  149.2548  133.7933  153.6201 H   0  0  0  0  0  0  0  0  0  0  0  0
  148.5030  134.8367  156.3069 H   0  0  0  0  0  0  0  0  0  0  0  0
  149.9268  135.4601  155.4809 H   0  0  0  0  0  0  0  0  0  0  0  0
  149.8986  135.3721  157.2381 H   0  0  0  0  0  0  0  0  0  0  0  0
  151.6141  130.2345  154.1130 H   0  0  0  0  0  0  0  0  0  0  0  0
  150.1677  129.5570  154.8627 H   0  0  0  0  0  0  0  0  0  0  0  0
  151.7051  129.5310  155.7275 H   0  0  0  0  0  0  0  0  0  0  0  0
  145.6534  133.3779  154.4142 H   0  0  0  0  0  0  0  0  0  0  0  0
  146.0413  134.4530  153.0635 H   0  0  0  0  0  0  0  0  0  0  0  0
  143.6779  134.6511  154.9635 H   0  0  0  0  0  0  0  0  0  0  0  0
  144.8304  135.9261  154.5612 H   0  0  0  0  0  0  0  0  0  0  0  0
  142.4342  135.7584  153.2502 H   0  0  0  0  0  0  0  0  0  0  0  0
  143.9000  136.1964  152.3788 H   0  0  0  0  0  0  0  0  0  0  0  0
  143.5759  134.3472  151.0855 H   0  0  0  0  0  0  0  0  0  0  0  0
  142.3908  133.6473  152.1855 H   0  0  0  0  0  0  0  0  0  0  0  0
  143.8752  132.5451  153.2857 H   0  0  0  0  0  0  0  0  0  0  0  0
  1  2  1  0  0  0  0
  1 21  1  0  0  0  0
  1 22  1  0  0  0  0
  1 23  1  0  0  0  0
  2  3  1  0  0  0  0
  2 24  1  0  0  0  0
  2 25  1  0  0  0  0
  3  4  1  0  0  0  0
  3 16  1  0  0  0  0
  3 26  1  0  0  0  0
  4  5  1  0  0  0  0
  4 27  1  0  0  0  0
  4 28  1  0  0  0  0
  5  6  1  0  0  0  0
  5 29  1  0  0  0  0
  6  7  2  0  0  0  0
  6  8  1  0  0  0  0
  8  9  1  0  0  0  0
  8 30  1  0  0  0  0
  8 31  1  0  0  0  0
  9 14  2  0  0  0  0
  9 10  1  0  0  0  0
 10 11  1  0  0  0  0
 10 12  2  0  0  0  0
 11 32  1  0  0  0  0
 11 33  1  0  0  0  0
 11 34  1  0  0  0  0
 12 13  1  0  0  0  0
 13 14  1  0  0  0  0
 14 15  1  0  0  0  0
 15 35  1  0  0  0  0
 15 36  1  0  0  0  0
 15 37  1  0  0  0  0
 16 20  1  0  0  0  0
 16 17  1  0  0  0  0
 16 46  1  0  0  0  0
 17 18  1  0  0  0  0
 17 38  1  0  0  0  0
 17 39  1  0  0  0  0
 18 19  1  0  0  0  0
 18 40  1  0  0  0  0
 18 41  1  0  0  0  0
 19 20  1  0  0  0  0
 19 42  1  0  0  0  0
 19 43  1  0  0  0  0
 20 44  1  0  0  0  0
 20 45  1  0  0  0  0
M  CHG  1  16   1
M  END
> <s_m_source_file>
AV-unprocessed.smi

> <i_m_source_file_index>
1311

> <i_lp_mmshare_version>
43012

> <i_f3d_flags>
0

> <s_epik_input>
W0NIMl0xW0NIMl1bQ0gyXVtDSDJdTjFbQ0BIXShbQ0gyXVtDSDNdKVtDSDJdW05IXUMoPU8pW0NIMl1jMmMoW0NIM10pbm9jMltDSDNd

> <s_epik_cmdline>
J2VwaWtfcHl0aG9uJywgJy1waCcsICc3LjAnLCAnLXRuJywgJzgnLCAnLW1hJywgJzIwMCcsICctbWV0YWxfYmluZGluZycsICctaW1hZScsICc8aW5maWxlLm1hZT4nLCAnLW9tYWUnLCAnPG91dGZpbGUubWFlPic=

> <r_epik_Ionization_Penalty>
0.00366311

> <r_epik_Ionization_Penalty_Charging>
0.00366302

> <r_epik_Ionization_Penalty_Neutral>
9.25085e-08

> <r_epik_State_Penalty>
0.00260703

> <r_epik_Charging_Adjusted_Penalty>
0.00627005

> <i_epik_Tot_Q>
1

> <i_epik_Tot_abs_Q>
1

> <r_epik_Metal_State_Penalty>
-0

> <b_epik_Metal_Only>
0

> <s_lp_Force_Field>
OPLS_2005

> <r_lp_Energy>
28.3188

> <b_lp_Chiralities_Consistent>
1

> <s_lp_Variant>
AV-unprocessed.smi:1311-1

> <Gold.Version>
5.8.1

> <Gold.Id.Protein>
6NUR|6NUR_protein|mol2

> <Gold.PLP.Fitness>
40.4362

> <Gold.PLP.PLP>
-33.3432

> <Gold.PLP.part.hbond>
-2.9092

> <Gold.PLP.part.metal>
0.0000

> <Gold.PLP.part.buried>
-6.3213

> <Gold.PLP.part.nonpolar>
-25.7942

> <Gold.PLP.part.repulsive>
0.0205

> <Gold.PLP.ligand.clash>
0.0000

> <Gold.PLP.ligand.torsion>
1.0957

> <Gold.PLP.Chemscore.Hbond>
3.0000

> <Gold.PLP.Chemscore.CHOScore>
0.0000

> <Gold.PLP.Chemscore.Metal>
0.0000

> <Gold.Chemscore.Hbonds>
donor molecule, donor type, donor heavy atom, donor atom, acceptor molecule, acceptor atom, score
      L1  H    16    46       P1 10957  1.76
      P1  H  6896  6908       L1    12  1.00

> <Gold.PLP.Chemscore.Internal.Correction>
0.2845

> <Gold.Rescore>
     Score         DG    S(hbond)    S(metal)    S(lipo)     H(rot)  DE(clash)    DE(int)     intcor
     13.80     -15.02       1.73        0.00      71.46       1.80       0.00       1.22       ----

> <Gold.Chemscore.Fitness>
13.7974

> <Gold.Chemscore.DG>
-15.0221

> <Gold.Chemscore.ZeroCoef>
-5.4800

> <Gold.Chemscore.Hbond>
1.7337

> <Gold.Chemscore.Metal>
0.0000

> <Gold.Chemscore.Lipo>
71.4581

> <Gold.Chemscore.Internal_Hbond>
0.0000

> <Gold.Chemscore.DEClash>
0.0000

> <Gold.Chemscore.DEInternal>
1.2247

> <Gold.Chemscore.Rot>
1.8004

> <Gold.Chemscore.Internal.Correction>
   9.000000E+99

> <Gold.Chemscore.Hbonds>
donor molecule, donor type, donor heavy atom, donor atom, acceptor molecule, acceptor atom, score
      L1  H    16    46       P1 10957  0.19
      P1  H  6896  6908       L1    12  0.84

> <Gold.Chemscore.Hbond.Weighted>
-5.7904

> <Gold.Chemscore.Metal.Weighted>
-0.0000

> <Gold.Chemscore.Lipo.Weighted>
-8.3606

> <Gold.Chemscore.Internal_Hbond.Weighted>
0.0000

> <Gold.Chemscore.DEClash.Weighted>
0.0000

> <Gold.Chemscore.DEInternal.Weighted>
1.2247

> <Gold.Chemscore.Rot.Weighted>
4.6090

> <Gold.Chemscore.Internal.Correction.Weighted>
   9.000000E+99

> <Gold.Protein.RotatedTorsions>
[ 6907 6896 6895 6894 ] final   89.24 input  -60.11 | X-H torsion
[ 7974 7965 7964 7962 ] final  179.68 input  175.53 | X-H torsion
[ 8008 7997 7996 7995 ] final   13.72 input   59.86 | X-H torsion
[ 10167 10162 10161 10158 ] final -175.22 input  -65.29 | X-H torsion
[ 10718 10713 10712 10709 ] final  -26.97 input   66.30 | X-H torsion
[ 10763 10752 10751 10750 ] final  172.70 input  -60.55 | X-H torsion
[ 11005 11000 10999 10996 ] final   54.24 input  -57.11 | X-H torsion

> <Gold.Protein.ActiveResidues>
 VAL166  LYS551  ARG553  GLY616  TRP617  ASP618  TYR619  PRO620  LYS621  CYS622 
 ASP623  PHE694  ASN695  SER759  ASP760  ASP761  ALA762  ILE779  LEU786  VAL792 
 PHE793  MET794  SER795  GLU796  ALA797  LYS798  CYS799  TRP800  GLU811  SER814 

> <Gold.Protein.RotatedAtoms>
  152.5434  134.1997  159.8706 H   0  0  0  0  0  0  0  0  0  0  0  0  # atno 6907 bound_to 6896
  151.1987  133.4617  159.2603 H   0  0  0  0  0  0  0  0  0  0  0  0  # atno 6908 bound_to 6896
  151.1011  134.9985  159.8504 H   0  0  0  0  0  0  0  0  0  0  0  0  # atno 6909 bound_to 6896
  144.7143  140.0585  143.6433 H   0  0  0  0  0  0  0  0  0  0  0  0  # atno 7974 bound_to 7965
  154.8384  140.2910  155.5676 H   0  0  0  0  0  0  0  0  0  0  0  0  # atno 8008 bound_to 7997
  156.3010  140.2518  156.3253 H   0  0  0  0  0  0  0  0  0  0  0  0  # atno 8009 bound_to 7997
  154.9153  140.0387  157.1958 H   0  0  0  0  0  0  0  0  0  0  0  0  # atno 8010 bound_to 7997
  139.5592  144.1912  152.1211 H   0  0  0  0  0  0  0  0  0  0  0  0  # atno 10167 bound_to 10162
  156.4443  130.4471  149.7032 H   0  0  0  0  0  0  0  0  0  0  0  0  # atno 10718 bound_to 10713
  154.4297  135.2759  155.1921 H   0  0  0  0  0  0  0  0  0  0  0  0  # atno 10763 bound_to 10752
  154.3832  135.6083  153.5806 H   0  0  0  0  0  0  0  0  0  0  0  0  # atno 10764 bound_to 10752
  152.9836  135.5885  154.4606 H   0  0  0  0  0  0  0  0  0  0  0  0  # atno 10765 bound_to 10752
  140.0702  134.5480  155.9055 H   0  0  0  0  0  0  0  0  0  0  0  0  # atno 11005 bound_to 11000
  145.9884  139.2996  143.0999 LP  0  0  0  0  0  0  0  0  0  0  0  0  # atno 17320 bound_to 7965
  145.8931  140.9291  143.0542 LP  0  0  0  0  0  0  0  0  0  0  0  0  # atno 17321 bound_to 7965
  140.1422  144.5192  150.6737 LP  0  0  0  0  0  0  0  0  0  0  0  0  # atno 17342 bound_to 10162
  140.6870  143.2355  151.5235 LP  0  0  0  0  0  0  0  0  0  0  0  0  # atno 17343 bound_to 10162
  156.3884  130.7614  151.2613 LP  0  0  0  0  0  0  0  0  0  0  0  0  # atno 17370 bound_to 10713
  157.7505  131.0275  150.4008 LP  0  0  0  0  0  0  0  0  0  0  0  0  # atno 17371 bound_to 10713
  141.2009  133.6615  156.5920 LP  0  0  0  0  0  0  0  0  0  0  0  0  # atno 17394 bound_to 11000
  140.3638  134.7664  157.4552 LP  0  0  0  0  0  0  0  0  0  0  0  0  # atno 17395 bound_to 11000

$$$$
