AV-unprocessed.smi:2923|AV-procd|sdf|11214|dock5
  -GOLD-   2272016103D 1   1.00000     0.00000
 Structure written by MMmdl.
 46 48  0  0  0  0  0  0  0  0  1 V2000
  149.2604  129.0471  153.4567 C   0  0  0  0  0  0  0  0  0  0  0  0
  148.1605  129.9622  153.7182 N   0  0  0  0  0  0  0  0  0  0  0  0
  147.0531  129.9227  152.7755 C   0  0  0  0  0  0  0  0  0  0  0  0
  148.5941  131.2633  154.0040 C   0  0  0  0  0  0  0  0  0  0  0  0
  149.5354  131.5163  155.0275 C   0  0  0  0  0  0  0  0  0  0  0  0
  149.9317  132.8451  155.2716 C   0  0  0  0  0  0  0  0  0  0  0  0
  149.3683  133.8810  154.4891 C   0  0  0  0  0  0  0  0  0  0  0  0
  149.6963  135.2571  154.6239 N   0  0  0  0  0  0  0  0  0  0  0  0
  149.9648  135.9494  155.7440 C   0  0  0  0  0  0  0  0  0  0  0  0
  149.9683  135.4875  156.8847 O   0  0  0  0  0  0  0  0  0  0  0  0
  150.2166  137.2343  155.4641 N   0  0  0  0  0  0  0  0  0  0  0  0
  150.5412  138.2685  156.4487 C   0  0  2  0  0  0  0  0  0  0  0  0
  149.7256  139.5659  156.2494 C   0  0  2  0  0  0  0  0  0  0  0  0
  148.5364  139.6540  155.3240 C   0  0  0  0  0  0  0  0  0  0  0  0
  149.1437  140.2433  154.0476 C   0  0  0  0  0  0  0  0  0  0  0  0
  150.5385  139.9614  154.1433 O   0  0  0  0  0  0  0  0  0  0  0  0
  150.9246  140.1317  155.5055 C   0  0  2  0  0  0  0  0  0  0  0  0
  151.8404  139.0425  156.1029 C   0  0  0  0  0  0  0  0  0  0  0  0
  152.6406  139.5006  157.3259 C   0  0  0  0  0  0  0  0  0  0  0  0
  152.8512  138.3989  155.1438 C   0  0  0  0  0  0  0  0  0  0  0  0
  148.4477  133.5176  153.4844 C   0  0  0  0  0  0  0  0  0  0  0  0
  148.0618  132.2462  153.2464 N   0  0  0  0  0  0  0  0  0  0  0  0
  150.0362  129.1441  154.2174 H   0  0  0  0  0  0  0  0  0  0  0  0
  149.7068  129.2422  152.4810 H   0  0  0  0  0  0  0  0  0  0  0  0
  148.9039  128.0170  153.4698 H   0  0  0  0  0  0  0  0  0  0  0  0
  146.2742  130.6301  153.0634 H   0  0  0  0  0  0  0  0  0  0  0  0
  146.6116  128.9260  152.7563 H   0  0  0  0  0  0  0  0  0  0  0  0
  147.3869  130.1675  151.7665 H   0  0  0  0  0  0  0  0  0  0  0  0
  149.9505  130.7103  155.6147 H   0  0  0  0  0  0  0  0  0  0  0  0
  150.6642  133.0370  156.0398 H   0  0  0  0  0  0  0  0  0  0  0  0
  149.6638  135.7937  153.7694 H   0  0  0  0  0  0  0  0  0  0  0  0
  150.1877  137.5261  154.4979 H   0  0  0  0  0  0  0  0  0  0  0  0
  150.5186  137.9252  157.4847 H   0  0  0  0  0  0  0  0  0  0  0  0
  149.5788  140.0802  157.2005 H   0  0  0  0  0  0  0  0  0  0  0  0
  148.0873  138.6787  155.1369 H   0  0  0  0  0  0  0  0  0  0  0  0
  147.7531  140.3007  155.7205 H   0  0  0  0  0  0  0  0  0  0  0  0
  148.7109  139.8200  153.1411 H   0  0  0  0  0  0  0  0  0  0  0  0
  149.0025  141.3247  154.0206 H   0  0  0  0  0  0  0  0  0  0  0  0
  151.1657  141.1632  155.7665 H   0  0  0  0  0  0  0  0  0  0  0  0
  153.3974  140.2381  157.0565 H   0  0  0  0  0  0  0  0  0  0  0  0
  153.1504  138.6647  157.8060 H   0  0  0  0  0  0  0  0  0  0  0  0
  151.9991  139.9605  158.0782 H   0  0  0  0  0  0  0  0  0  0  0  0
  153.6711  139.0792  154.9118 H   0  0  0  0  0  0  0  0  0  0  0  0
  152.3988  138.1206  154.1919 H   0  0  0  0  0  0  0  0  0  0  0  0
  153.2852  137.4944  155.5712 H   0  0  0  0  0  0  0  0  0  0  0  0
  148.0004  134.2709  152.8524 H   0  0  0  0  0  0  0  0  0  0  0  0
  1  2  1  0  0  0  0
  1 23  1  0  0  0  0
  1 24  1  0  0  0  0
  1 25  1  0  0  0  0
  2  3  1  0  0  0  0
  2  4  1  0  0  0  0
  3 26  1  0  0  0  0
  3 27  1  0  0  0  0
  3 28  1  0  0  0  0
  4 22  1  0  0  0  0
  4  5  2  0  0  0  0
  5  6  1  0  0  0  0
  5 29  1  0  0  0  0
  6  7  2  0  0  0  0
  6 30  1  0  0  0  0
  7  8  1  0  0  0  0
  7 21  1  0  0  0  0
  8  9  1  0  0  0  0
  8 31  1  0  0  0  0
  9 10  2  0  0  0  0
  9 11  1  0  0  0  0
 11 12  1  0  0  0  0
 11 32  1  0  0  0  0
 12 18  1  0  0  0  0
 12 13  1  0  0  0  0
 12 33  1  0  0  0  0
 13 17  1  0  0  0  0
 13 14  1  0  0  0  0
 13 34  1  0  0  0  0
 14 15  1  0  0  0  0
 14 35  1  0  0  0  0
 14 36  1  0  0  0  0
 15 16  1  0  0  0  0
 15 37  1  0  0  0  0
 15 38  1  0  0  0  0
 16 17  1  0  0  0  0
 17 18  1  0  0  0  0
 17 39  1  0  0  0  0
 18 19  1  0  0  0  0
 18 20  1  0  0  0  0
 19 40  1  0  0  0  0
 19 41  1  0  0  0  0
 19 42  1  0  0  0  0
 20 43  1  0  0  0  0
 20 44  1  0  0  0  0
 20 45  1  0  0  0  0
 21 22  2  0  0  0  0
 21 46  1  0  0  0  0
M  END
> <s_m_source_file>
AV-unprocessed.smi

> <i_m_source_file_index>
2923

> <i_lp_mmshare_version>
43012

> <i_f3d_flags>
0

> <s_epik_input>
W0NIM11OKFtDSDNdKWMxW2NIXVtjSF1jKFtjSF1uMSlbTkhdQyg9TylbTkhdW0NASF0yQyhbQ0gzXSkoW0NIM10pW0NAQEhdKFtDQEhdMjMpT1tDSDJdW0NIMl0z

> <s_epik_cmdline>
J2VwaWtfcHl0aG9uJywgJy1waCcsICc3LjAnLCAnLXRuJywgJzgnLCAnLW1hJywgJzIwMCcsICctbWV0YWxfYmluZGluZycsICctaW1hZScsICc8aW5maWxlLm1hZT4nLCAnLW9tYWUnLCAnPG91dGZpbGUubWFlPic=

> <r_lp_tautomer_probability>
1

> <r_epik_Ionization_Penalty>
0.628785

> <r_epik_Ionization_Penalty_Charging>
0

> <r_epik_Ionization_Penalty_Neutral>
0.628785

> <r_epik_State_Penalty>
0.644286

> <r_epik_Charging_Adjusted_Penalty>
0.644286

> <i_epik_Tot_Q>
0

> <i_epik_Tot_abs_Q>
0

> <r_epik_Metal_State_Penalty>
0.308404

> <b_epik_Metal_Only>
0

> <s_lp_Force_Field>
OPLS_2005

> <r_lp_Energy>
44.9088

> <b_lp_Chiralities_Consistent>
1

> <s_lp_Variant>
AV-unprocessed.smi:2923-13

> <Gold.Version>
5.8.1

> <Gold.Id.Protein>
6NUR|6NUR_protein|mol2

> <Gold.PLP.Fitness>
37.8499

> <Gold.PLP.PLP>
-29.5301

> <Gold.PLP.part.hbond>
-2.0000

> <Gold.PLP.part.metal>
0.0000

> <Gold.PLP.part.buried>
-1.1407

> <Gold.PLP.part.nonpolar>
-26.0717

> <Gold.PLP.part.repulsive>
0.4143

> <Gold.PLP.ligand.clash>
0.0000

> <Gold.PLP.ligand.torsion>
0.4625

> <Gold.PLP.Chemscore.Hbond>
1.9750

> <Gold.PLP.Chemscore.CHOScore>
0.9744

> <Gold.PLP.Chemscore.Metal>
0.0000

> <Gold.Chemscore.Hbonds>
donor molecule, donor type, donor heavy atom, donor atom, acceptor molecule, acceptor atom, score
      L1  H     8    31       P1  7948  0.91
      P1  H  7989  7998       L1    16  0.95
      L1  C    21    46       P1  7948  1.00

> <Gold.PLP.Chemscore.Internal.Correction>
0.3967

> <Gold.Rescore>
     Score         DG    S(hbond)    S(metal)    S(lipo)     H(rot)  DE(clash)    DE(int)     intcor
     14.61     -15.14       1.29        0.00      71.92       1.19       0.03       0.50       ----

> <Gold.Chemscore.Fitness>
14.6105

> <Gold.Chemscore.DG>
-15.1427

> <Gold.Chemscore.ZeroCoef>
-5.4800

> <Gold.Chemscore.Hbond>
1.2886

> <Gold.Chemscore.Metal>
0.0000

> <Gold.Chemscore.Lipo>
71.9199

> <Gold.Chemscore.Internal_Hbond>
0.0000

> <Gold.Chemscore.DEClash>
0.0294

> <Gold.Chemscore.DEInternal>
0.5028

> <Gold.Chemscore.Rot>
1.1937

> <Gold.Chemscore.Internal.Correction>
   9.000000E+99

> <Gold.Chemscore.Hbonds>
donor molecule, donor type, donor heavy atom, donor atom, acceptor molecule, acceptor atom, score
      L1  H     8    31       P1  7948  0.19
      P1  H  7989  7998       L1    16  0.20

> <Gold.Chemscore.Hbond.Weighted>
-4.3040

> <Gold.Chemscore.Metal.Weighted>
-0.0000

> <Gold.Chemscore.Lipo.Weighted>
-8.4146

> <Gold.Chemscore.Internal_Hbond.Weighted>
0.0000

> <Gold.Chemscore.DEClash.Weighted>
0.0294

> <Gold.Chemscore.DEInternal.Weighted>
0.5028

> <Gold.Chemscore.Rot.Weighted>
3.0559

> <Gold.Chemscore.Internal.Correction.Weighted>
   9.000000E+99

> <Gold.Protein.RotatedTorsions>
[ 6907 6896 6895 6894 ] final   -6.31 input  -60.11 | X-H torsion
[ 7974 7965 7964 7962 ] final  -34.84 input  175.53 | X-H torsion
[ 8008 7997 7996 7995 ] final  -56.10 input   59.86 | X-H torsion
[ 10167 10162 10161 10158 ] final  -24.96 input  -65.29 | X-H torsion
[ 10718 10713 10712 10709 ] final    8.69 input   66.30 | X-H torsion
[ 10763 10752 10751 10750 ] final  -75.25 input  -60.55 | X-H torsion
[ 11005 11000 10999 10996 ] final   91.50 input  -57.11 | X-H torsion

> <Gold.Protein.ActiveResidues>
 VAL166  LYS551  ARG553  GLY616  TRP617  ASP618  TYR619  PRO620  LYS621  CYS622 
 ASP623  PHE694  ASN695  SER759  ASP760  ASP761  ALA762  ILE779  LEU786  VAL792 
 PHE793  MET794  SER795  GLU796  ALA797  LYS798  CYS799  TRP800  GLU811  SER814 

> <Gold.Protein.RotatedAtoms>
  151.4677  135.1043  159.9742 H   0  0  0  0  0  0  0  0  0  0  0  0  # atno 6907 bound_to 6896
  152.4829  133.8294  159.7106 H   0  0  0  0  0  0  0  0  0  0  0  0  # atno 6908 bound_to 6896
  150.8914  133.7177  159.2930 H   0  0  0  0  0  0  0  0  0  0  0  0  # atno 6909 bound_to 6896
  146.0796  140.6087  142.8914 H   0  0  0  0  0  0  0  0  0  0  0  0  # atno 7974 bound_to 7965
  154.4218  140.1137  156.5584 H   0  0  0  0  0  0  0  0  0  0  0  0  # atno 8008 bound_to 7997
  155.6337  140.3496  155.4672 H   0  0  0  0  0  0  0  0  0  0  0  0  # atno 8009 bound_to 7997
  155.9927  140.1183  157.0612 H   0  0  0  0  0  0  0  0  0  0  0  0  # atno 8010 bound_to 7997
  140.7287  143.4306  151.0807 H   0  0  0  0  0  0  0  0  0  0  0  0  # atno 10167 bound_to 10162
  156.9554  130.5912  149.5659 H   0  0  0  0  0  0  0  0  0  0  0  0  # atno 10718 bound_to 10713
  154.4841  135.5837  153.6410 H   0  0  0  0  0  0  0  0  0  0  0  0  # atno 10763 bound_to 10752
  152.9852  135.6097  154.3209 H   0  0  0  0  0  0  0  0  0  0  0  0  # atno 10764 bound_to 10752
  154.3103  135.2845  155.2548 H   0  0  0  0  0  0  0  0  0  0  0  0  # atno 10765 bound_to 10752
  139.8838  134.8678  156.3437 H   0  0  0  0  0  0  0  0  0  0  0  0  # atno 11005 bound_to 11000
  144.7285  140.4598  143.6955 LP  0  0  0  0  0  0  0  0  0  0  0  0  # atno 17320 bound_to 7965
  145.6242  139.1528  143.3005 LP  0  0  0  0  0  0  0  0  0  0  0  0  # atno 17321 bound_to 7965
  139.7963  143.8147  152.3158 LP  0  0  0  0  0  0  0  0  0  0  0  0  # atno 17342 bound_to 10162
  139.8148  144.7320  150.9649 LP  0  0  0  0  0  0  0  0  0  0  0  0  # atno 17343 bound_to 10162
  156.0345  130.5434  150.8618 LP  0  0  0  0  0  0  0  0  0  0  0  0  # atno 17370 bound_to 10713
  157.5694  131.0946  150.9440 LP  0  0  0  0  0  0  0  0  0  0  0  0  # atno 17371 bound_to 10713
  140.9641  133.7369  156.0442 LP  0  0  0  0  0  0  0  0  0  0  0  0  # atno 17394 bound_to 11000
  140.7953  134.3571  157.5454 LP  0  0  0  0  0  0  0  0  0  0  0  0  # atno 17395 bound_to 11000

$$$$
