AV-unprocessed.smi:3011|AV-procd|sdf|11457|dock5
  -GOLD-   2272016393D 1   1.00000     0.00000
 Structure written by MMmdl.
 46 48  0  0  0  0  0  0  0  0  1 V2000
  146.0637  143.6760  161.3537 C   0  0  0  0  0  0  0  0  0  0  0  0
  146.6643  142.9220  160.3119 O   0  0  0  0  0  0  0  0  0  0  0  0
  146.2269  143.1254  159.0190 C   0  0  0  0  0  0  0  0  0  0  0  0
  145.2773  144.1132  158.6542 C   0  0  0  0  0  0  0  0  0  0  0  0
  144.8757  144.2559  157.3135 C   0  0  0  0  0  0  0  0  0  0  0  0
  145.4166  143.4169  156.3241 C   0  0  0  0  0  0  0  0  0  0  0  0
  146.3601  142.4342  156.6746 C   0  0  0  0  0  0  0  0  0  0  0  0
  146.7696  142.2824  158.0227 C   0  0  0  0  0  0  0  0  0  0  0  0
  147.6893  141.3464  158.4408 O   0  0  0  0  0  0  0  0  0  0  0  0
  148.1361  140.3622  157.5189 C   0  0  0  0  0  0  0  0  0  0  0  0
  149.2615  140.9748  156.6739 C   0  0  0  0  0  0  0  0  0  0  0  0
  150.5340  140.9664  157.3841 N   0  0  0  0  0  0  0  0  0  0  0  0
  151.3926  139.9317  157.5814 C   0  0  0  0  0  0  0  0  0  0  0  0
  151.1296  138.5404  157.0607 C   0  0  2  0  0  0  0  0  0  0  0  0
  151.2121  137.4834  158.1707 C   0  0  0  0  0  0  0  0  0  0  0  0
  152.0964  138.2484  156.0072 N   0  0  0  0  0  0  0  0  0  0  0  0
  152.2030  138.9482  154.8707 C   0  0  0  0  0  0  0  0  0  0  0  0
  151.4909  139.9133  154.6055 O   0  0  0  0  0  0  0  0  0  0  0  0
  152.4935  140.2244  158.2793 N   0  0  0  0  0  0  0  0  0  0  0  0
  152.3221  141.5598  158.5821 C   0  0  0  0  0  0  0  0  0  0  0  0
  153.1398  142.4465  159.3188 C   0  0  0  0  0  0  0  0  0  0  0  0
  152.7464  143.7869  159.5113 C   0  0  0  0  0  0  0  0  0  0  0  0
  151.5330  144.2586  158.9704 C   0  0  0  0  0  0  0  0  0  0  0  0
  150.7062  143.3924  158.2297 C   0  0  0  0  0  0  0  0  0  0  0  0
  151.1037  142.0549  158.0396 C   0  0  0  0  0  0  0  0  0  0  0  0
  146.5047  143.3839  162.3067 H   0  0  0  0  0  0  0  0  0  0  0  0
  144.9910  143.4882  161.4162 H   0  0  0  0  0  0  0  0  0  0  0  0
  146.2382  144.7447  161.2228 H   0  0  0  0  0  0  0  0  0  0  0  0
  144.8406  144.7751  159.3863 H   0  0  0  0  0  0  0  0  0  0  0  0
  144.1516  145.0108  157.0445 H   0  0  0  0  0  0  0  0  0  0  0  0
  145.1089  143.5274  155.2947 H   0  0  0  0  0  0  0  0  0  0  0  0
  146.7599  141.8102  155.8901 H   0  0  0  0  0  0  0  0  0  0  0  0
  148.5097  139.4850  158.0490 H   0  0  0  0  0  0  0  0  0  0  0  0
  147.3163  140.0450  156.8733 H   0  0  0  0  0  0  0  0  0  0  0  0
  149.3660  140.4620  155.7182 H   0  0  0  0  0  0  0  0  0  0  0  0
  149.0107  142.0068  156.4274 H   0  0  0  0  0  0  0  0  0  0  0  0
  150.1301  138.4756  156.6332 H   0  0  0  0  0  0  0  0  0  0  0  0
  150.4884  137.6897  158.9597 H   0  0  0  0  0  0  0  0  0  0  0  0
  152.2024  137.4594  158.6270 H   0  0  0  0  0  0  0  0  0  0  0  0
  151.0008  136.4873  157.7808 H   0  0  0  0  0  0  0  0  0  0  0  0
  152.7378  137.4846  156.1651 H   0  0  0  0  0  0  0  0  0  0  0  0
  152.9985  138.5541  154.2184 H   0  0  0  0  0  0  0  0  0  0  0  0
  154.0693  142.0931  159.7400 H   0  0  0  0  0  0  0  0  0  0  0  0
  153.3772  144.4555  160.0784 H   0  0  0  0  0  0  0  0  0  0  0  0
  151.2363  145.2857  159.1247 H   0  0  0  0  0  0  0  0  0  0  0  0
  149.7741  143.7508  157.8191 H   0  0  0  0  0  0  0  0  0  0  0  0
  1  2  1  0  0  0  0
  1 26  1  0  0  0  0
  1 27  1  0  0  0  0
  1 28  1  0  0  0  0
  2  3  1  0  0  0  0
  3  8  1  0  0  0  0
  3  4  2  0  0  0  0
  4  5  1  0  0  0  0
  4 29  1  0  0  0  0
  5  6  2  0  0  0  0
  5 30  1  0  0  0  0
  6  7  1  0  0  0  0
  6 31  1  0  0  0  0
  7  8  2  0  0  0  0
  7 32  1  0  0  0  0
  8  9  1  0  0  0  0
  9 10  1  0  0  0  0
 10 11  1  0  0  0  0
 10 33  1  0  0  0  0
 10 34  1  0  0  0  0
 11 12  1  0  0  0  0
 11 35  1  0  0  0  0
 11 36  1  0  0  0  0
 12 25  1  0  0  0  0
 12 13  1  0  0  0  0
 13 14  1  0  0  0  0
 13 19  2  0  0  0  0
 14 15  1  0  0  0  0
 14 16  1  0  0  0  0
 14 37  1  0  0  0  0
 15 38  1  0  0  0  0
 15 39  1  0  0  0  0
 15 40  1  0  0  0  0
 16 17  1  0  0  0  0
 16 41  1  0  0  0  0
 17 18  2  0  0  0  0
 17 42  1  0  0  0  0
 19 20  1  0  0  0  0
 20 25  2  0  0  0  0
 20 21  1  0  0  0  0
 21 22  2  0  0  0  0
 21 43  1  0  0  0  0
 22 23  1  0  0  0  0
 22 44  1  0  0  0  0
 23 24  2  0  0  0  0
 23 45  1  0  0  0  0
 24 25  1  0  0  0  0
 24 46  1  0  0  0  0
M  END
> <s_m_source_file>
AV-unprocessed.smi

> <i_m_source_file_index>
3011

> <i_lp_mmshare_version>
43012

> <i_f3d_flags>
0

> <s_epik_input>
W0NIM11PYzFbY0hdW2NIXVtjSF1bY0hdYzFPW0NIMl1bQ0gyXW4oYyhuMilbQ0BIXShbQ0gzXSlbTkhdW0NIXT1PKWMoYzIzKVtjSF1bY0hdW2NIXVtjSF0z

> <s_epik_cmdline>
J2VwaWtfcHl0aG9uJywgJy1waCcsICc3LjAnLCAnLXRuJywgJzgnLCAnLW1hJywgJzIwMCcsICctbWV0YWxfYmluZGluZycsICctaW1hZScsICc8aW5maWxlLm1hZT4nLCAnLW9tYWUnLCAnPG91dGZpbGUubWFlPic=

> <r_lp_tautomer_probability>
1

> <r_epik_Ionization_Penalty>
0.0924205

> <r_epik_Ionization_Penalty_Charging>
0

> <r_epik_Ionization_Penalty_Neutral>
0.0924205

> <r_epik_State_Penalty>
0.0827154

> <r_epik_Charging_Adjusted_Penalty>
0.0827154

> <i_epik_Tot_Q>
0

> <i_epik_Tot_abs_Q>
0

> <r_epik_Metal_State_Penalty>
0.071464

> <b_epik_Metal_Only>
0

> <s_lp_Force_Field>
OPLS_2005

> <r_lp_Energy>
15.3464

> <b_lp_Chiralities_Consistent>
1

> <s_lp_Variant>
AV-unprocessed.smi:3011-1

> <Gold.Version>
5.8.1

> <Gold.Id.Protein>
6NUR|6NUR_protein|mol2

> <Gold.PLP.Fitness>
49.3184

> <Gold.PLP.PLP>
-42.0753

> <Gold.PLP.part.hbond>
-4.2602

> <Gold.PLP.part.metal>
0.0000

> <Gold.PLP.part.buried>
-7.3846

> <Gold.PLP.part.nonpolar>
-30.9892

> <Gold.PLP.part.repulsive>
0.2785

> <Gold.PLP.ligand.clash>
0.0000

> <Gold.PLP.ligand.torsion>
0.6853

> <Gold.PLP.Chemscore.Hbond>
2.8153

> <Gold.PLP.Chemscore.CHOScore>
0.0000

> <Gold.PLP.Chemscore.Metal>
0.0000

> <Gold.Chemscore.Hbonds>
donor molecule, donor type, donor heavy atom, donor atom, acceptor molecule, acceptor atom, score
      P1  H  6933  6944       L1     2  0.42
      P1  H  6934  6946       L1     2  0.80
      P1  H  7989  7998       L1    18  0.83

> <Gold.PLP.Chemscore.Internal.Correction>
0.1679

> <Gold.Rescore>
     Score         DG    S(hbond)    S(metal)    S(lipo)     H(rot)  DE(clash)    DE(int)     intcor
     16.33     -17.01       2.06        0.00      96.50       2.59       0.01       0.66       ----

> <Gold.Chemscore.Fitness>
16.3337

> <Gold.Chemscore.DG>
-17.0078

> <Gold.Chemscore.ZeroCoef>
-5.4800

> <Gold.Chemscore.Hbond>
2.0573

> <Gold.Chemscore.Metal>
0.0000

> <Gold.Chemscore.Lipo>
96.4987

> <Gold.Chemscore.Internal_Hbond>
0.0000

> <Gold.Chemscore.DEClash>
0.0111

> <Gold.Chemscore.DEInternal>
0.6630

> <Gold.Chemscore.Rot>
2.5914

> <Gold.Chemscore.Internal.Correction>
   9.000000E+99

> <Gold.Chemscore.Hbonds>
donor molecule, donor type, donor heavy atom, donor atom, acceptor molecule, acceptor atom, score
      P1  H  6933  6944       L1     2  0.07
      P1  H  6934  6946       L1     2  0.56
      P1  H  7989  7998       L1    18  0.82
      P1  H  7997  8009       L1    19  0.03

> <Gold.Chemscore.Hbond.Weighted>
-6.8715

> <Gold.Chemscore.Metal.Weighted>
-0.0000

> <Gold.Chemscore.Lipo.Weighted>
-11.2903

> <Gold.Chemscore.Internal_Hbond.Weighted>
0.0000

> <Gold.Chemscore.DEClash.Weighted>
0.0111

> <Gold.Chemscore.DEInternal.Weighted>
0.6630

> <Gold.Chemscore.Rot.Weighted>
6.6340

> <Gold.Chemscore.Internal.Correction.Weighted>
   9.000000E+99

> <Gold.Protein.RotatedTorsions>
[ 6907 6896 6895 6894 ] final  116.01 input  -60.11 | X-H torsion
[ 7974 7965 7964 7962 ] final  -85.31 input  175.53 | X-H torsion
[ 8008 7997 7996 7995 ] final  159.01 input   59.86 | X-H torsion
[ 10167 10162 10161 10158 ] final  139.47 input  -65.29 | X-H torsion
[ 10718 10713 10712 10709 ] final   64.01 input   66.30 | X-H torsion
[ 10763 10752 10751 10750 ] final -154.94 input  -60.55 | X-H torsion
[ 11005 11000 10999 10996 ] final -109.13 input  -57.11 | X-H torsion

> <Gold.Protein.ActiveResidues>
 VAL166  LYS551  ARG553  GLY616  TRP617  ASP618  TYR619  PRO620  LYS621  CYS622 
 ASP623  PHE694  ASN695  SER759  ASP760  ASP761  ALA762  ILE779  LEU786  VAL792 
 PHE793  MET794  SER795  GLU796  ALA797  LYS798  CYS799  TRP800  GLU811  SER814 

> <Gold.Protein.RotatedAtoms>
  152.4705  133.8020  159.6957 H   0  0  0  0  0  0  0  0  0  0  0  0  # atno 6907 bound_to 6896
  150.8692  133.7520  159.2973 H   0  0  0  0  0  0  0  0  0  0  0  0  # atno 6908 bound_to 6896
  151.5060  135.1067  159.9893 H   0  0  0  0  0  0  0  0  0  0  0  0  # atno 6909 bound_to 6896
  145.4949  140.9550  143.1791 H   0  0  0  0  0  0  0  0  0  0  0  0  # atno 7974 bound_to 7965
  156.2266  140.1843  156.7347 H   0  0  0  0  0  0  0  0  0  0  0  0  # atno 8008 bound_to 7997
  154.5952  140.0644  156.9321 H   0  0  0  0  0  0  0  0  0  0  0  0  # atno 8009 bound_to 7997
  155.2269  140.3312  155.4311 H   0  0  0  0  0  0  0  0  0  0  0  0  # atno 8010 bound_to 7997
  139.5078  144.6292  151.5860 H   0  0  0  0  0  0  0  0  0  0  0  0  # atno 10167 bound_to 10162
  157.6011  130.9137  149.9790 H   0  0  0  0  0  0  0  0  0  0  0  0  # atno 10718 bound_to 10713
  154.7823  135.3178  154.7963 H   0  0  0  0  0  0  0  0  0  0  0  0  # atno 10763 bound_to 10752
  153.8672  135.6848  153.4782 H   0  0  0  0  0  0  0  0  0  0  0  0  # atno 10764 bound_to 10752
  153.1463  135.4718  154.9508 H   0  0  0  0  0  0  0  0  0  0  0  0  # atno 10765 bound_to 10752
  141.0864  133.9131  157.2175 H   0  0  0  0  0  0  0  0  0  0  0  0  # atno 11005 bound_to 11000
  144.7812  139.6521  143.7153 LP  0  0  0  0  0  0  0  0  0  0  0  0  # atno 17320 bound_to 7965
  146.2261  139.5726  142.9586 LP  0  0  0  0  0  0  0  0  0  0  0  0  # atno 17321 bound_to 7965
  140.6019  143.9594  150.6392 LP  0  0  0  0  0  0  0  0  0  0  0  0  # atno 17342 bound_to 10162
  140.2808  143.3391  152.1153 LP  0  0  0  0  0  0  0  0  0  0  0  0  # atno 17343 bound_to 10162
  156.1084  130.3651  150.0092 LP  0  0  0  0  0  0  0  0  0  0  0  0  # atno 17370 bound_to 10713
  156.8195  130.9354  151.3641 LP  0  0  0  0  0  0  0  0  0  0  0  0  # atno 17371 bound_to 10713
  139.9683  135.0135  156.9445 LP  0  0  0  0  0  0  0  0  0  0  0  0  # atno 17394 bound_to 11000
  140.5353  134.0773  155.7326 LP  0  0  0  0  0  0  0  0  0  0  0  0  # atno 17395 bound_to 11000

$$$$
