AV-unprocessed.smi:3043|AV-procd|sdf|11604|dock9
  -GOLD-   2272016583D 1   1.00000     0.00000
 Structure written by MMmdl.
 44 45  0  0  0  0  0  0  0  0  2 V2000
  151.6532  141.1295  158.9696 C   0  0  0  0  0  0  0  0  0  0  0  0
  152.2952  140.2826  157.8685 C   0  0  0  0  0  0  0  0  0  0  0  0
  153.2134  139.5256  158.1829 O   0  0  0  0  0  0  0  0  0  0  0  0
  151.8365  140.3881  156.5978 N   0  0  0  0  0  0  0  0  0  0  0  0
  152.3534  139.5658  155.4976 C   0  0  0  0  0  0  0  0  0  0  0  0
  151.2649  138.5644  155.0717 C   0  0  0  0  0  0  0  0  0  0  0  0
  149.9598  139.2872  154.6703 C   0  0  0  0  0  0  0  0  0  0  0  0
  148.8466  138.2769  154.3388 C   0  0  0  0  0  0  0  0  0  0  0  0
  148.3754  138.4292  152.9453 N   0  3  0  0  0  0  0  0  0  0  0  0
  147.0370  139.0409  152.7866 C   0  0  1  0  0  0  0  0  0  0  0  0
  146.8517  139.4686  151.3205 C   0  0  0  0  0  0  0  0  0  0  0  0
  145.9247  138.0861  153.2796 C   0  0  0  0  0  0  0  0  0  0  0  0
  145.9111  136.8179  152.5724 N   0  0  0  0  0  0  0  0  0  0  0  0
  145.6059  136.5788  151.2490 C   0  0  0  0  0  0  0  0  0  0  0  0
  145.7296  135.2351  151.0403 C   0  0  0  0  0  0  0  0  0  0  0  0
  146.1155  134.7291  152.3130 C   0  0  0  0  0  0  0  0  0  0  0  0
  146.2223  135.6789  153.2281 N   0  0  0  0  0  0  0  0  0  0  0  0
  149.5354  140.2869  155.7727 C   0  0  0  0  0  0  0  0  0  0  0  0
  150.6999  141.2127  156.1691 C   0  0  0  0  0  0  0  0  0  0  0  0
  150.5883  140.9108  159.0557 H   0  0  0  0  0  0  0  0  0  0  0  0
  151.7829  142.1926  158.7659 H   0  0  0  0  0  0  0  0  0  0  0  0
  152.1147  140.9177  159.9347 H   0  0  0  0  0  0  0  0  0  0  0  0
  152.6213  140.2104  154.6593 H   0  0  0  0  0  0  0  0  0  0  0  0
  153.2660  139.0299  155.7622 H   0  0  0  0  0  0  0  0  0  0  0  0
  151.6287  137.9588  154.2412 H   0  0  0  0  0  0  0  0  0  0  0  0
  151.0684  137.8742  155.8937 H   0  0  0  0  0  0  0  0  0  0  0  0
  150.1763  139.8594  153.7666 H   0  0  0  0  0  0  0  0  0  0  0  0
  149.2252  137.2642  154.4756 H   0  0  0  0  0  0  0  0  0  0  0  0
  148.0103  138.4016  155.0283 H   0  0  0  0  0  0  0  0  0  0  0  0
  149.0379  139.0267  152.4720 H   0  0  0  0  0  0  0  0  0  0  0  0
  147.0114  139.9489  153.3912 H   0  0  0  0  0  0  0  0  0  0  0  0
  145.9269  140.0278  151.1773 H   0  0  0  0  0  0  0  0  0  0  0  0
  146.8245  138.6043  150.6559 H   0  0  0  0  0  0  0  0  0  0  0  0
  147.6683  140.1134  150.9940 H   0  0  0  0  0  0  0  0  0  0  0  0
  146.0423  137.8908  154.3471 H   0  0  0  0  0  0  0  0  0  0  0  0
  144.9413  138.5393  153.1547 H   0  0  0  0  0  0  0  0  0  0  0  0
  145.3310  137.3751  150.5730 H   0  0  0  0  0  0  0  0  0  0  0  0
  145.5676  134.6950  150.1192 H   0  0  0  0  0  0  0  0  0  0  0  0
  146.3196  133.7072  152.5970 H   0  0  0  0  0  0  0  0  0  0  0  0
  148.6928  140.8903  155.4338 H   0  0  0  0  0  0  0  0  0  0  0  0
  149.1915  139.7440  156.6544 H   0  0  0  0  0  0  0  0  0  0  0  0
  150.3659  141.9229  156.9239 H   0  0  0  0  0  0  0  0  0  0  0  0
  151.0011  141.8194  155.3139 H   0  0  0  0  0  0  0  0  0  0  0  0
  148.3800  137.5268  152.4915 H   0  0  0  0  0  0  0  0  0  0  0  0
  1  2  1  0  0  0  0
  1 20  1  0  0  0  0
  1 21  1  0  0  0  0
  1 22  1  0  0  0  0
  2  3  2  0  0  0  0
  2  4  1  0  0  0  0
  4 19  1  0  0  0  0
  4  5  1  0  0  0  0
  5  6  1  0  0  0  0
  5 23  1  0  0  0  0
  5 24  1  0  0  0  0
  6  7  1  0  0  0  0
  6 25  1  0  0  0  0
  6 26  1  0  0  0  0
  7  8  1  0  0  0  0
  7 18  1  0  0  0  0
  7 27  1  0  0  0  0
  8  9  1  0  0  0  0
  8 28  1  0  0  0  0
  8 29  1  0  0  0  0
  9 10  1  0  0  0  0
  9 30  1  0  0  0  0
  9 44  1  0  0  0  0
 10 11  1  0  0  0  0
 10 12  1  0  0  0  0
 10 31  1  0  0  0  0
 11 32  1  0  0  0  0
 11 33  1  0  0  0  0
 11 34  1  0  0  0  0
 12 13  1  0  0  0  0
 12 35  1  0  0  0  0
 12 36  1  0  0  0  0
 13 17  1  0  0  0  0
 13 14  1  0  0  0  0
 14 15  2  0  0  0  0
 14 37  1  0  0  0  0
 15 16  1  0  0  0  0
 15 38  1  0  0  0  0
 16 17  2  0  0  0  0
 16 39  1  0  0  0  0
 18 19  1  0  0  0  0
 18 40  1  0  0  0  0
 18 41  1  0  0  0  0
 19 42  1  0  0  0  0
 19 43  1  0  0  0  0
M  CHG  1   9   1
M  END
> <s_m_source_file>
AV-unprocessed.smi

> <i_m_source_file_index>
3043

> <i_lp_mmshare_version>
43012

> <i_f3d_flags>
0

> <s_epik_input>
W0NIM11DKD1PKU4xW0NIMl1bQ0gyXVtDSF0oW0NIMl1bQ0gyXTEpW0NIMl1bTkhdW0NASF0oW0NIM10pW0NIMl1uMltjSF1bY0hdW2NIXW4y

> <s_epik_cmdline>
J2VwaWtfcHl0aG9uJywgJy1waCcsICc3LjAnLCAnLXRuJywgJzgnLCAnLW1hJywgJzIwMCcsICctbWV0YWxfYmluZGluZycsICctaW1hZScsICc8aW5maWxlLm1hZT4nLCAnLW9tYWUnLCAnPG91dGZpbGUubWFlPic=

> <r_lp_tautomer_probability>
1

> <r_epik_Ionization_Penalty>
0.00300549

> <r_epik_Ionization_Penalty_Charging>
0.00299781

> <r_epik_Ionization_Penalty_Neutral>
7.6831e-06

> <r_epik_State_Penalty>
0.00210473

> <r_epik_Charging_Adjusted_Penalty>
0.00510254

> <i_epik_Tot_Q>
1

> <i_epik_Tot_abs_Q>
1

> <r_epik_Metal_State_Penalty>
-0

> <b_epik_Metal_Only>
0

> <s_lp_Force_Field>
OPLS_2005

> <r_lp_Energy>
28.9571

> <b_lp_Chiralities_Consistent>
1

> <s_lp_Variant>
AV-unprocessed.smi:3043-2

> <Gold.Version>
5.8.1

> <Gold.Id.Protein>
6NUR|6NUR_protein|mol2

> <Gold.PLP.Fitness>
47.5108

> <Gold.PLP.PLP>
-34.9007

> <Gold.PLP.part.hbond>
-2.9887

> <Gold.PLP.part.metal>
0.0000

> <Gold.PLP.part.buried>
0.6363

> <Gold.PLP.part.nonpolar>
-31.6232

> <Gold.PLP.part.repulsive>
0.1540

> <Gold.PLP.ligand.clash>
0.0000

> <Gold.PLP.ligand.torsion>
1.2142

> <Gold.PLP.Chemscore.Hbond>
4.0000

> <Gold.PLP.Chemscore.CHOScore>
1.0000

> <Gold.PLP.Chemscore.Metal>
0.0000

> <Gold.Chemscore.Hbonds>
donor molecule, donor type, donor heavy atom, donor atom, acceptor molecule, acceptor atom, score
      L1  H     9    30       P1  7957  1.00
      L1  H     9    44       P1  7948  2.00
      P1  H  7997  8008       L1     3  0.95
      L1  C    14    37       P1 10171  1.00

> <Gold.PLP.Chemscore.Internal.Correction>
0.0386

> <Gold.Rescore>
     Score         DG    S(hbond)    S(metal)    S(lipo)     H(rot)  DE(clash)    DE(int)     intcor
     18.58     -20.26       2.94        0.00      80.65       1.74       0.54       1.15       ----

> <Gold.Chemscore.Fitness>
18.5777

> <Gold.Chemscore.DG>
-20.2646

> <Gold.Chemscore.ZeroCoef>
-5.4800

> <Gold.Chemscore.Hbond>
2.9367

> <Gold.Chemscore.Metal>
0.0000

> <Gold.Chemscore.Lipo>
80.6498

> <Gold.Chemscore.Internal_Hbond>
0.0000

> <Gold.Chemscore.DEClash>
0.5364

> <Gold.Chemscore.DEInternal>
1.1505

> <Gold.Chemscore.Rot>
1.7422

> <Gold.Chemscore.Internal.Correction>
   9.000000E+99

> <Gold.Chemscore.Hbonds>
donor molecule, donor type, donor heavy atom, donor atom, acceptor molecule, acceptor atom, score
      L1  H     9    30       P1  7957  0.96
      L1  H     9    44       P1  7948  0.93
      P1  H  7997  8008       L1     3  0.21

> <Gold.Chemscore.Hbond.Weighted>
-9.8086

> <Gold.Chemscore.Metal.Weighted>
-0.0000

> <Gold.Chemscore.Lipo.Weighted>
-9.4360

> <Gold.Chemscore.Internal_Hbond.Weighted>
0.0000

> <Gold.Chemscore.DEClash.Weighted>
0.5364

> <Gold.Chemscore.DEInternal.Weighted>
1.1505

> <Gold.Chemscore.Rot.Weighted>
4.4600

> <Gold.Chemscore.Internal.Correction.Weighted>
   9.000000E+99

> <Gold.Protein.RotatedTorsions>
[ 6907 6896 6895 6894 ] final   66.15 input  -60.11 | X-H torsion
[ 7974 7965 7964 7962 ] final -138.67 input  175.53 | X-H torsion
[ 8008 7997 7996 7995 ] final  -75.30 input   59.86 | X-H torsion
[ 10167 10162 10161 10158 ] final  130.43 input  -65.29 | X-H torsion
[ 10718 10713 10712 10709 ] final   52.24 input   66.30 | X-H torsion
[ 10763 10752 10751 10750 ] final  157.08 input  -60.55 | X-H torsion
[ 11005 11000 10999 10996 ] final  -85.73 input  -57.11 | X-H torsion

> <Gold.Protein.ActiveResidues>
 VAL166  LYS551  ARG553  GLY616  TRP617  ASP618  TYR619  PRO620  LYS621  CYS622 
 ASP623  PHE694  ASN695  SER759  ASP760  ASP761  ALA762  ILE779  LEU786  VAL792 
 PHE793  MET794  SER795  GLU796  ALA797  LYS798  CYS799  TRP800  GLU811  SER814 

> <Gold.Protein.RotatedAtoms>
  152.4460  134.5493  159.9861 H   0  0  0  0  0  0  0  0  0  0  0  0  # atno 6907 bound_to 6896
  151.5578  133.3402  159.2973 H   0  0  0  0  0  0  0  0  0  0  0  0  # atno 6908 bound_to 6896
  150.8376  134.7689  159.6970 H   0  0  0  0  0  0  0  0  0  0  0  0  # atno 6909 bound_to 6896
  144.8739  140.6408  143.5249 H   0  0  0  0  0  0  0  0  0  0  0  0  # atno 7974 bound_to 7965
  154.5404  140.0746  156.8500 H   0  0  0  0  0  0  0  0  0  0  0  0  # atno 8008 bound_to 7997
  155.3192  140.3395  155.4223 H   0  0  0  0  0  0  0  0  0  0  0  0  # atno 8009 bound_to 7997
  156.1869  140.1672  156.8154 H   0  0  0  0  0  0  0  0  0  0  0  0  # atno 8010 bound_to 7997
  139.5430  144.6748  151.4562 H   0  0  0  0  0  0  0  0  0  0  0  0  # atno 10167 bound_to 10162
  157.5056  130.8467  149.8370 H   0  0  0  0  0  0  0  0  0  0  0  0  # atno 10718 bound_to 10713
  154.1946  135.2793  155.3011 H   0  0  0  0  0  0  0  0  0  0  0  0  # atno 10763 bound_to 10752
  154.5902  135.5562  153.7274 H   0  0  0  0  0  0  0  0  0  0  0  0  # atno 10764 bound_to 10752
  153.0103  135.6366  154.2085 H   0  0  0  0  0  0  0  0  0  0  0  0  # atno 10765 bound_to 10752
  141.1638  133.7415  156.9058 H   0  0  0  0  0  0  0  0  0  0  0  0  # atno 11005 bound_to 11000
  145.4079  139.1585  143.4142 LP  0  0  0  0  0  0  0  0  0  0  0  0  # atno 17320 bound_to 7965
  146.2949  140.4181  142.8725 LP  0  0  0  0  0  0  0  0  0  0  0  0  # atno 17321 bound_to 7965
  140.6668  143.8380  150.6951 LP  0  0  0  0  0  0  0  0  0  0  0  0  # atno 17342 bound_to 10162
  140.1792  143.4129  152.1945 LP  0  0  0  0  0  0  0  0  0  0  0  0  # atno 17343 bound_to 10162
  156.0256  130.3780  150.1833 LP  0  0  0  0  0  0  0  0  0  0  0  0  # atno 17370 bound_to 10713
  157.0022  130.9926  151.3388 LP  0  0  0  0  0  0  0  0  0  0  0  0  # atno 17371 bound_to 10713
  140.1551  134.9203  157.2643 LP  0  0  0  0  0  0  0  0  0  0  0  0  # atno 17394 bound_to 11000
  140.2677  134.3497  155.7384 LP  0  0  0  0  0  0  0  0  0  0  0  0  # atno 17395 bound_to 11000

$$$$
