AV-unprocessed.smi:1708|AV-procd|sdf|6889|dock6
  -GOLD-   22720 8 93D 1   1.00000     0.00000
 Structure written by MMmdl.
 36 38  0  0  0  0  0  0  0  0  1 V2000
  153.8418  140.3977  160.3301 C   0  0  0  0  0  0  0  0  0  0  0  0
  152.9502  141.1505  159.4562 N   0  0  0  0  0  0  0  0  0  0  0  0
  152.4506  140.7530  158.2631 C   0  0  0  0  0  0  0  0  0  0  0  0
  152.6662  139.6750  157.7094 O   0  0  0  0  0  0  0  0  0  0  0  0
  151.6545  141.7412  157.7906 N   0  0  0  0  0  0  0  0  0  0  0  0
  150.8836  141.7075  156.5466 C   0  0  0  0  0  0  0  0  0  0  0  0
  150.4891  140.2718  156.1376 C   0  0  2  0  0  0  0  0  0  0  0  0
  151.5766  139.6892  155.4495 O   0  0  0  0  0  0  0  0  0  0  0  0
  149.1993  140.2236  155.3288 C   0  0  0  0  0  0  0  0  0  0  0  0
  148.7628  139.0143  154.7445 C   0  0  0  0  0  0  0  0  0  0  0  0
  147.5861  138.9836  153.9715 C   0  0  0  0  0  0  0  0  0  0  0  0
  146.8394  140.1615  153.7775 C   0  0  0  0  0  0  0  0  0  0  0  0
  147.2698  141.3701  154.3574 C   0  0  0  0  0  0  0  0  0  0  0  0
  146.5550  142.5042  154.1676 F   0  0  0  0  0  0  0  0  0  0  0  0
  148.4455  141.4009  155.1318 C   0  0  0  0  0  0  0  0  0  0  0  0
  151.6382  142.7986  158.7144 C   0  0  0  0  0  0  0  0  0  0  0  0
  150.9621  144.0318  158.7053 C   0  0  0  0  0  0  0  0  0  0  0  0
  151.1506  144.8817  159.8202 C   0  0  0  0  0  0  0  0  0  0  0  0
  151.9898  144.4940  160.8969 C   0  0  0  0  0  0  0  0  0  0  0  0
  152.6575  143.2470  160.8818 C   0  0  0  0  0  0  0  0  0  0  0  0
  152.4520  142.4228  159.7623 C   0  0  0  0  0  0  0  0  0  0  0  0
  154.1802  139.4689  159.8691 H   0  0  0  0  0  0  0  0  0  0  0  0
  153.3317  140.1472  161.2604 H   0  0  0  0  0  0  0  0  0  0  0  0
  154.7232  140.9919  160.5723 H   0  0  0  0  0  0  0  0  0  0  0  0
  149.9905  142.3229  156.6570 H   0  0  0  0  0  0  0  0  0  0  0  0
  151.4679  142.1739  155.7518 H   0  0  0  0  0  0  0  0  0  0  0  0
  150.3463  139.6784  157.0417 H   0  0  0  0  0  0  0  0  0  0  0  0
  152.2419  139.4602  156.0805 H   0  0  0  0  0  0  0  0  0  0  0  0
  149.3355  138.1083  154.8788 H   0  0  0  0  0  0  0  0  0  0  0  0
  147.2585  138.0568  153.5242 H   0  0  0  0  0  0  0  0  0  0  0  0
  145.9382  140.1379  153.1829 H   0  0  0  0  0  0  0  0  0  0  0  0
  148.7734  142.3346  155.5650 H   0  0  0  0  0  0  0  0  0  0  0  0
  150.3198  144.3228  157.8878 H   0  0  0  0  0  0  0  0  0  0  0  0
  150.6478  145.8369  159.8528 H   0  0  0  0  0  0  0  0  0  0  0  0
  152.1187  145.1578  161.7389 H   0  0  0  0  0  0  0  0  0  0  0  0
  153.2954  142.9427  161.6983 H   0  0  0  0  0  0  0  0  0  0  0  0
  1  2  1  0  0  0  0
  1 22  1  0  0  0  0
  1 23  1  0  0  0  0
  1 24  1  0  0  0  0
  2 21  1  0  0  0  0
  2  3  1  0  0  0  0
  3  4  2  0  0  0  0
  3  5  1  0  0  0  0
  5  6  1  0  0  0  0
  5 16  1  0  0  0  0
  6  7  1  0  0  0  0
  6 25  1  0  0  0  0
  6 26  1  0  0  0  0
  7  8  1  0  0  0  0
  7  9  1  0  0  0  0
  7 27  1  0  0  0  0
  8 28  1  0  0  0  0
  9 15  1  0  0  0  0
  9 10  2  0  0  0  0
 10 11  1  0  0  0  0
 10 29  1  0  0  0  0
 11 12  2  0  0  0  0
 11 30  1  0  0  0  0
 12 13  1  0  0  0  0
 12 31  1  0  0  0  0
 13 14  1  0  0  0  0
 13 15  2  0  0  0  0
 15 32  1  0  0  0  0
 16 21  2  0  0  0  0
 16 17  1  0  0  0  0
 17 18  2  0  0  0  0
 17 33  1  0  0  0  0
 18 19  1  0  0  0  0
 18 34  1  0  0  0  0
 19 20  2  0  0  0  0
 19 35  1  0  0  0  0
 20 21  1  0  0  0  0
 20 36  1  0  0  0  0
M  END
> <s_m_source_file>
AV-unprocessed.smi

> <i_m_source_file_index>
1708

> <i_lp_mmshare_version>
43012

> <i_f3d_flags>
0

> <s_epik_input>
W2NIXTFbY0hdW2NIXVtjSF1jKGMxMiluKFtDSDNdKWMoPU8pbjJbQ0gyXVtDQEhdKFtPSF0pYzNbY0hdW2NIXVtjSF1jKEYpW2NIXTM=

> <s_epik_cmdline>
J2VwaWtfcHl0aG9uJywgJy1waCcsICc3LjAnLCAnLXRuJywgJzgnLCAnLW1hJywgJzIwMCcsICctbWV0YWxfYmluZGluZycsICctaW1hZScsICc8aW5maWxlLm1hZT4nLCAnLW9tYWUnLCAnPG91dGZpbGUubWFlPic=

> <r_lp_tautomer_probability>
1

> <r_epik_Ionization_Penalty>
3.53466e-06

> <r_epik_Ionization_Penalty_Charging>
2.57375e-09

> <r_epik_Ionization_Penalty_Neutral>
3.53208e-06

> <r_epik_State_Penalty>
-0

> <r_epik_Charging_Adjusted_Penalty>
2.57375e-09

> <i_epik_Tot_Q>
0

> <i_epik_Tot_abs_Q>
0

> <r_epik_Metal_State_Penalty>
-0

> <b_epik_Metal_Only>
0

> <s_lp_Force_Field>
OPLS_2005

> <r_lp_Energy>
39.7129

> <b_lp_Chiralities_Consistent>
1

> <s_lp_Variant>
AV-unprocessed.smi:1708-1

> <Gold.Version>
5.8.1

> <Gold.Id.Protein>
6NUR|6NUR_protein|mol2

> <Gold.PLP.Fitness>
55.8108

> <Gold.PLP.PLP>
-51.4818

> <Gold.PLP.part.hbond>
-2.0000

> <Gold.PLP.part.metal>
0.0000

> <Gold.PLP.part.buried>
-5.6008

> <Gold.PLP.part.nonpolar>
-43.5006

> <Gold.PLP.part.repulsive>
0.0000

> <Gold.PLP.ligand.clash>
0.0000

> <Gold.PLP.ligand.torsion>
0.7860

> <Gold.PLP.Chemscore.Hbond>
1.9600

> <Gold.PLP.Chemscore.CHOScore>
0.0000

> <Gold.PLP.Chemscore.Metal>
0.0000

> <Gold.Chemscore.Hbonds>
donor molecule, donor type, donor heavy atom, donor atom, acceptor molecule, acceptor atom, score
      P1  H  7989  7998       L1     8  0.39
      P1  H  7997  8009       L1     4  0.99

> <Gold.PLP.Chemscore.Internal.Correction>
0.0210

> <Gold.Rescore>
     Score         DG    S(hbond)    S(metal)    S(lipo)     H(rot)  DE(clash)    DE(int)     intcor
     17.98     -20.37       1.64        0.00     120.98       1.85       0.07       2.33       ----

> <Gold.Chemscore.Fitness>
17.9760

> <Gold.Chemscore.DG>
-20.3689

> <Gold.Chemscore.ZeroCoef>
-5.4800

> <Gold.Chemscore.Hbond>
1.6351

> <Gold.Chemscore.Metal>
0.0000

> <Gold.Chemscore.Lipo>
120.9807

> <Gold.Chemscore.Internal_Hbond>
0.0000

> <Gold.Chemscore.DEClash>
0.0655

> <Gold.Chemscore.DEInternal>
2.3274

> <Gold.Chemscore.Rot>
1.8465

> <Gold.Chemscore.Internal.Correction>
   9.000000E+99

> <Gold.Chemscore.Hbonds>
donor molecule, donor type, donor heavy atom, donor atom, acceptor molecule, acceptor atom, score
      P1  H  7989  7998       L1     8  0.15
      P1  H  7997  8009       L1     4  0.24

> <Gold.Chemscore.Hbond.Weighted>
-5.4612

> <Gold.Chemscore.Metal.Weighted>
-0.0000

> <Gold.Chemscore.Lipo.Weighted>
-14.1547

> <Gold.Chemscore.Internal_Hbond.Weighted>
0.0000

> <Gold.Chemscore.DEClash.Weighted>
0.0655

> <Gold.Chemscore.DEInternal.Weighted>
2.3274

> <Gold.Chemscore.Rot.Weighted>
4.7270

> <Gold.Chemscore.Internal.Correction.Weighted>
   9.000000E+99

> <Gold.Protein.RotatedTorsions>
[ 6907 6896 6895 6894 ] final   57.63 input  -60.11 | X-H torsion
[ 7974 7965 7964 7962 ] final   90.85 input  175.53 | X-H torsion
[ 8008 7997 7996 7995 ] final  162.93 input   59.86 | X-H torsion
[ 10167 10162 10161 10158 ] final  -59.31 input  -65.29 | X-H torsion
[ 10718 10713 10712 10709 ] final  168.24 input   66.30 | X-H torsion
[ 10763 10752 10751 10750 ] final -129.57 input  -60.55 | X-H torsion
[ 11005 11000 10999 10996 ] final  -80.78 input  -57.11 | X-H torsion

> <Gold.Protein.ActiveResidues>
 VAL166  LYS551  ARG553  GLY616  TRP617  ASP618  TYR619  PRO620  LYS621  CYS622 
 ASP623  PHE694  ASN695  SER759  ASP760  ASP761  ALA762  ILE779  LEU786  VAL792 
 PHE793  MET794  SER795  GLU796  ALA797  LYS798  CYS799  TRP800  GLU811  SER814 

> <Gold.Protein.RotatedAtoms>
  152.3749  134.6678  160.0162 H   0  0  0  0  0  0  0  0  0  0  0  0  # atno 6907 bound_to 6896
  151.6959  133.3305  159.3262 H   0  0  0  0  0  0  0  0  0  0  0  0  # atno 6908 bound_to 6896
  150.7702  134.6593  159.6375 H   0  0  0  0  0  0  0  0  0  0  0  0  # atno 6909 bound_to 6896
  145.5135  139.2277  143.2711 H   0  0  0  0  0  0  0  0  0  0  0  0  # atno 7974 bound_to 7965
  156.1995  140.1737  156.7929 H   0  0  0  0  0  0  0  0  0  0  0  0  # atno 8008 bound_to 7997
  154.5573  140.0706  156.8794 H   0  0  0  0  0  0  0  0  0  0  0  0  # atno 8009 bound_to 7997
  155.2915  140.3355  155.4254 H   0  0  0  0  0  0  0  0  0  0  0  0  # atno 8010 bound_to 7997
  140.6143  143.2397  151.5635 H   0  0  0  0  0  0  0  0  0  0  0  0  # atno 10167 bound_to 10162
  157.0399  131.0283  151.2717 H   0  0  0  0  0  0  0  0  0  0  0  0  # atno 10718 bound_to 10713
  154.8757  135.3891  154.3941 H   0  0  0  0  0  0  0  0  0  0  0  0  # atno 10763 bound_to 10752
  153.4673  135.7029  153.6019 H   0  0  0  0  0  0  0  0  0  0  0  0  # atno 10764 bound_to 10752
  153.4492  135.3838  155.2242 H   0  0  0  0  0  0  0  0  0  0  0  0  # atno 10765 bound_to 10752
  141.1667  133.7166  156.8324 H   0  0  0  0  0  0  0  0  0  0  0  0  # atno 11005 bound_to 11000
  146.2151  140.5944  142.9042 LP  0  0  0  0  0  0  0  0  0  0  0  0  # atno 17320 bound_to 7965
  144.7714  140.5646  143.6667 LP  0  0  0  0  0  0  0  0  0  0  0  0  # atno 17321 bound_to 7965
  139.5386  144.2711  152.1304 LP  0  0  0  0  0  0  0  0  0  0  0  0  # atno 17342 bound_to 10162
  140.1917  144.4745  150.6476 LP  0  0  0  0  0  0  0  0  0  0  0  0  # atno 17343 bound_to 10162
  157.5112  130.7940  149.7707 LP  0  0  0  0  0  0  0  0  0  0  0  0  # atno 17370 bound_to 10713
  156.0041  130.3864  150.2495 LP  0  0  0  0  0  0  0  0  0  0  0  0  # atno 17371 bound_to 10713
  140.2042  134.8875  157.3203 LP  0  0  0  0  0  0  0  0  0  0  0  0  # atno 17394 bound_to 11000
  140.2155  134.4086  155.7591 LP  0  0  0  0  0  0  0  0  0  0  0  0  # atno 17395 bound_to 11000

$$$$
