AV-unprocessed.smi:3039|AV-procd|sdf|11593|dock10
  -GOLD-   2272016573D 1   1.00000     0.00000
 Structure written by MMmdl.
 38 39  0  0  0  0  0  0  0  0  1 V2000
  150.3200  136.9560  159.6331 O   0  0  0  0  0  0  0  0  0  0  0  0
  149.3983  137.0380  158.8215 C   0  0  0  0  0  0  0  0  0  0  0  0
  148.0871  136.2924  159.0713 C   0  0  0  0  0  0  0  0  0  0  0  0
  147.8305  136.1724  160.5504 C   0  0  0  0  0  0  0  0  0  0  0  0
  147.5630  134.9991  161.3113 C   0  0  0  0  0  0  0  0  0  0  0  0
  147.4131  135.4705  162.5836 C   0  0  0  0  0  0  0  0  0  0  0  0
  147.5785  136.8169  162.6140 O   0  0  0  0  0  0  0  0  0  0  0  0
  147.8462  137.2556  161.3124 N   0  0  0  0  0  0  0  0  0  0  0  0
  149.4649  137.7615  157.6928 N   0  0  0  0  0  0  0  0  0  0  0  0
  150.6046  138.5616  157.2487 C   0  0  2  0  0  0  0  0  0  0  0  0
  150.9447  139.5939  158.3497 C   0  0  0  0  0  0  0  0  0  0  0  0
  151.8471  140.7625  157.9227 C   0  0  0  0  0  0  0  0  0  0  0  0
  151.0466  141.9457  157.3510 C   0  0  0  0  0  0  0  0  0  0  0  0
  150.4701  141.7195  155.9454 C   0  0  0  0  0  0  0  0  0  0  0  0
  149.5769  140.4737  155.7957 C   0  0  0  0  0  0  0  0  0  0  0  0
  150.3728  139.1482  155.8254 C   0  0  2  0  0  0  0  0  0  0  0  0
  149.8396  138.1185  154.7983 C   0  0  0  0  0  0  0  0  0  0  0  0
  149.7042  138.6550  153.4960 O   0  0  0  0  0  0  0  0  0  0  0  0
  147.2686  136.8252  158.5857 H   0  0  0  0  0  0  0  0  0  0  0  0
  148.1365  135.3089  158.6012 H   0  0  0  0  0  0  0  0  0  0  0  0
  147.4876  133.9753  160.9755 H   0  0  0  0  0  0  0  0  0  0  0  0
  147.1981  134.9967  163.5301 H   0  0  0  0  0  0  0  0  0  0  0  0
  148.6599  137.7542  157.0827 H   0  0  0  0  0  0  0  0  0  0  0  0
  151.4603  137.8898  157.1552 H   0  0  0  0  0  0  0  0  0  0  0  0
  150.0278  139.9950  158.7848 H   0  0  0  0  0  0  0  0  0  0  0  0
  151.4348  139.0626  159.1668 H   0  0  0  0  0  0  0  0  0  0  0  0
  152.3727  141.1202  158.8088 H   0  0  0  0  0  0  0  0  0  0  0  0
  152.6232  140.4333  157.2310 H   0  0  0  0  0  0  0  0  0  0  0  0
  150.2414  142.2100  158.0374 H   0  0  0  0  0  0  0  0  0  0  0  0
  151.6971  142.8203  157.3137 H   0  0  0  0  0  0  0  0  0  0  0  0
  149.8850  142.5994  155.6757 H   0  0  0  0  0  0  0  0  0  0  0  0
  151.2829  141.6785  155.2192 H   0  0  0  0  0  0  0  0  0  0  0  0
  148.7815  140.4686  156.5418 H   0  0  0  0  0  0  0  0  0  0  0  0
  149.0736  140.5629  154.8323 H   0  0  0  0  0  0  0  0  0  0  0  0
  151.3697  139.3834  155.4504 H   0  0  0  0  0  0  0  0  0  0  0  0
  150.5233  137.2712  154.7373 H   0  0  0  0  0  0  0  0  0  0  0  0
  148.8781  137.7186  155.1222 H   0  0  0  0  0  0  0  0  0  0  0  0
  149.5900  137.9406  152.8877 H   0  0  0  0  0  0  0  0  0  0  0  0
  1  2  2  0  0  0  0
  2  3  1  0  0  0  0
  2  9  1  0  0  0  0
  3  4  1  0  0  0  0
  3 19  1  0  0  0  0
  3 20  1  0  0  0  0
  4  8  2  0  0  0  0
  4  5  1  0  0  0  0
  5  6  2  0  0  0  0
  5 21  1  0  0  0  0
  6  7  1  0  0  0  0
  6 22  1  0  0  0  0
  7  8  1  0  0  0  0
  9 10  1  0  0  0  0
  9 23  1  0  0  0  0
 10 16  1  0  0  0  0
 10 11  1  0  0  0  0
 10 24  1  0  0  0  0
 11 12  1  0  0  0  0
 11 25  1  0  0  0  0
 11 26  1  0  0  0  0
 12 13  1  0  0  0  0
 12 27  1  0  0  0  0
 12 28  1  0  0  0  0
 13 14  1  0  0  0  0
 13 29  1  0  0  0  0
 13 30  1  0  0  0  0
 14 15  1  0  0  0  0
 14 31  1  0  0  0  0
 14 32  1  0  0  0  0
 15 16  1  0  0  0  0
 15 33  1  0  0  0  0
 15 34  1  0  0  0  0
 16 17  1  0  0  0  0
 16 35  1  0  0  0  0
 17 18  1  0  0  0  0
 17 36  1  0  0  0  0
 17 37  1  0  0  0  0
 18 38  1  0  0  0  0
M  END
> <s_m_source_file>
AV-unprocessed.smi

> <i_m_source_file_index>
3039

> <i_lp_mmshare_version>
43012

> <i_f3d_flags>
0

> <s_epik_input>
bjFvW2NIXVtjSF1jMVtDSDJdQyg9TylbTkhdW0NAQEhdMltDSDJdW0NIMl1bQ0gyXVtDSDJdW0NIMl1bQ0BIXTJbQ0gyXVtPSF0=

> <s_epik_cmdline>
J2VwaWtfcHl0aG9uJywgJy1waCcsICc3LjAnLCAnLXRuJywgJzgnLCAnLW1hJywgJzIwMCcsICctbWV0YWxfYmluZGluZycsICctaW1hZScsICc8aW5maWxlLm1hZT4nLCAnLW9tYWUnLCAnPG91dGZpbGUubWFlPic=

> <r_lp_tautomer_probability>
1

> <r_epik_Ionization_Penalty>
3.05817e-07

> <r_epik_Ionization_Penalty_Charging>
0

> <r_epik_Ionization_Penalty_Neutral>
3.05817e-07

> <r_epik_State_Penalty>
-0

> <r_epik_Charging_Adjusted_Penalty>
0

> <i_epik_Tot_Q>
0

> <i_epik_Tot_abs_Q>
0

> <r_epik_Metal_State_Penalty>
-0

> <b_epik_Metal_Only>
0

> <s_lp_Force_Field>
OPLS_2005

> <r_lp_Energy>
21.1275

> <b_lp_Chiralities_Consistent>
1

> <s_lp_Variant>
AV-unprocessed.smi:3039-3

> <Gold.Version>
5.8.1

> <Gold.Id.Protein>
6NUR|6NUR_protein|mol2

> <Gold.PLP.Fitness>
40.9543

> <Gold.PLP.PLP>
-32.0917

> <Gold.PLP.part.hbond>
-5.9232

> <Gold.PLP.part.metal>
0.0000

> <Gold.PLP.part.buried>
-5.7595

> <Gold.PLP.part.nonpolar>
-21.3012

> <Gold.PLP.part.repulsive>
0.0636

> <Gold.PLP.ligand.clash>
0.0000

> <Gold.PLP.ligand.torsion>
0.4633

> <Gold.PLP.Chemscore.Hbond>
3.2360

> <Gold.PLP.Chemscore.CHOScore>
0.0000

> <Gold.PLP.Chemscore.Metal>
0.0000

> <Gold.Chemscore.Hbonds>
donor molecule, donor type, donor heavy atom, donor atom, acceptor molecule, acceptor atom, score
      L1  H    18    38       P1  7948  0.96
      P1  H  6896  6907       L1     1  0.96
      P1  H  6931  6943       L1     8  0.50
      P1  H  6934  6947       L1     8  0.74

> <Gold.PLP.Chemscore.Internal.Correction>
0.0811

> <Gold.Rescore>
     Score         DG    S(hbond)    S(metal)    S(lipo)     H(rot)  DE(clash)    DE(int)     intcor
     16.36     -16.97       2.75        0.00      69.19       2.26       0.01       0.59       ----

> <Gold.Chemscore.Fitness>
16.3646

> <Gold.Chemscore.DG>
-16.9701

> <Gold.Chemscore.ZeroCoef>
-5.4800

> <Gold.Chemscore.Hbond>
2.7499

> <Gold.Chemscore.Metal>
0.0000

> <Gold.Chemscore.Lipo>
69.1885

> <Gold.Chemscore.Internal_Hbond>
0.0000

> <Gold.Chemscore.DEClash>
0.0115

> <Gold.Chemscore.DEInternal>
0.5941

> <Gold.Chemscore.Rot>
2.2616

> <Gold.Chemscore.Internal.Correction>
   9.000000E+99

> <Gold.Chemscore.Hbonds>
donor molecule, donor type, donor heavy atom, donor atom, acceptor molecule, acceptor atom, score
      L1  H    18    38       P1  7948  0.67
      P1  H  6896  6907       L1     1  0.79
      P1  H  6931  6943       L1     8  0.02
      P1  H  6934  6947       L1     8  0.65

> <Gold.Chemscore.Hbond.Weighted>
-9.1847

> <Gold.Chemscore.Metal.Weighted>
-0.0000

> <Gold.Chemscore.Lipo.Weighted>
-8.0951

> <Gold.Chemscore.Internal_Hbond.Weighted>
0.0000

> <Gold.Chemscore.DEClash.Weighted>
0.0115

> <Gold.Chemscore.DEInternal.Weighted>
0.5941

> <Gold.Chemscore.Rot.Weighted>
5.7896

> <Gold.Chemscore.Internal.Correction.Weighted>
   9.000000E+99

> <Gold.Protein.RotatedTorsions>
[ 6907 6896 6895 6894 ] final  -30.94 input  -60.11 | X-H torsion
[ 7974 7965 7964 7962 ] final   19.28 input  175.53 | X-H torsion
[ 8008 7997 7996 7995 ] final  134.51 input   59.86 | X-H torsion
[ 10167 10162 10161 10158 ] final  -36.27 input  -65.29 | X-H torsion
[ 10718 10713 10712 10709 ] final  -90.30 input   66.30 | X-H torsion
[ 10763 10752 10751 10750 ] final   -7.63 input  -60.55 | X-H torsion
[ 11005 11000 10999 10996 ] final  -51.95 input  -57.11 | X-H torsion

> <Gold.Protein.ActiveResidues>
 VAL166  LYS551  ARG553  GLY616  TRP617  ASP618  TYR619  PRO620  LYS621  CYS622 
 ASP623  PHE694  ASN695  SER759  ASP760  ASP761  ALA762  ILE779  LEU786  VAL792 
 PHE793  MET794  SER795  GLU796  ALA797  LYS798  CYS799  TRP800  GLU811  SER814 

> <Gold.Protein.RotatedAtoms>
  151.0987  134.9959  159.8437 H   0  0  0  0  0  0  0  0  0  0  0  0  # atno 6907 bound_to 6896
  152.5435  134.1976  159.8709 H   0  0  0  0  0  0  0  0  0  0  0  0  # atno 6908 bound_to 6896
  151.2018  133.4562  159.2629 H   0  0  0  0  0  0  0  0  0  0  0  0  # atno 6909 bound_to 6896
  146.2155  139.8335  142.8655 H   0  0  0  0  0  0  0  0  0  0  0  0  # atno 7974 bound_to 7965
  156.2999  140.2494  156.3430 H   0  0  0  0  0  0  0  0  0  0  0  0  # atno 8008 bound_to 7997
  154.9037  140.0405  157.1927 H   0  0  0  0  0  0  0  0  0  0  0  0  # atno 8009 bound_to 7997
  154.8474  140.2900  155.5624 H   0  0  0  0  0  0  0  0  0  0  0  0  # atno 8010 bound_to 7997
  140.7146  143.3420  151.2337 H   0  0  0  0  0  0  0  0  0  0  0  0  # atno 10167 bound_to 10162
  155.9987  130.4904  150.5302 H   0  0  0  0  0  0  0  0  0  0  0  0  # atno 10718 bound_to 10713
  153.4291  135.7011  153.6242 H   0  0  0  0  0  0  0  0  0  0  0  0  # atno 10763 bound_to 10752
  153.4665  135.3724  155.2367 H   0  0  0  0  0  0  0  0  0  0  0  0  # atno 10764 bound_to 10752
  154.8725  135.4032  154.3672 H   0  0  0  0  0  0  0  0  0  0  0  0  # atno 10765 bound_to 10752
  141.0899  133.6635  156.3953 H   0  0  0  0  0  0  0  0  0  0  0  0  # atno 11005 bound_to 11000
  145.2972  141.0184  143.3629 LP  0  0  0  0  0  0  0  0  0  0  0  0  # atno 17320 bound_to 7965
  144.9033  139.4622  143.6622 LP  0  0  0  0  0  0  0  0  0  0  0  0  # atno 17321 bound_to 7965
  139.6930  143.9660  152.2869 LP  0  0  0  0  0  0  0  0  0  0  0  0  # atno 17342 bound_to 10162
  139.9328  144.6731  150.8345 LP  0  0  0  0  0  0  0  0  0  0  0  0  # atno 17343 bound_to 10162
  157.3252  131.0689  151.1902 LP  0  0  0  0  0  0  0  0  0  0  0  0  # atno 17370 bound_to 10713
  157.2802  130.6746  149.6062 LP  0  0  0  0  0  0  0  0  0  0  0  0  # atno 17371 bound_to 10713
  140.5277  134.6243  157.5339 LP  0  0  0  0  0  0  0  0  0  0  0  0  # atno 17394 bound_to 11000
  139.9723  134.7273  156.0018 LP  0  0  0  0  0  0  0  0  0  0  0  0  # atno 17395 bound_to 11000

$$$$
