AV-unprocessed.smi:1056|AV-procd|sdf|4630|dock6
  -GOLD-   22720 3133D 1   1.00000     0.00000
 Structure written by MMmdl.
 45 47  0  0  0  0  0  0  0  0  2 V2000
  152.8883  142.8132  161.3935 C   0  0  0  0  0  0  0  0  0  0  0  0
  152.3351  142.5020  160.0140 C   0  0  0  0  0  0  0  0  0  0  0  0
  152.8032  141.3591  159.3275 C   0  0  0  0  0  0  0  0  0  0  0  0
  152.3124  141.0337  158.0443 C   0  0  0  0  0  0  0  0  0  0  0  0
  152.6245  139.9792  157.2032 N   0  0  0  0  0  0  0  0  0  0  0  0
  151.8372  140.2251  156.1609 C   0  0  0  0  0  0  0  0  0  0  0  0
  151.0532  141.3185  156.2245 N   0  0  0  0  0  0  0  0  0  0  0  0
  150.1192  141.7816  155.2147 C   0  0  0  0  0  0  0  0  0  0  0  0
  149.3134  140.6276  154.5838 C   0  0  2  0  0  0  0  0  0  0  0  0
  150.1461  139.9005  153.7030 O   0  0  0  0  0  0  0  0  0  0  0  0
  148.0956  141.1227  153.7782 C   0  0  0  0  0  0  0  0  0  0  0  0
  146.9835  141.5853  154.6461 N   0  3  2  0  0  0  0  0  0  0  0  0
  146.1582  140.4848  155.1986 C   0  0  0  0  0  0  0  0  0  0  0  0
  145.1812  141.0343  156.2533 C   0  0  0  0  0  0  0  0  0  0  0  0
  144.5427  142.2839  155.8460 N   0  0  0  0  0  0  0  0  0  0  0  0
  144.9382  143.0646  154.8272 C   0  0  0  0  0  0  0  0  0  0  0  0
  144.3574  144.1107  154.5508 O   0  0  0  0  0  0  0  0  0  0  0  0
  146.1499  142.6254  153.9912 C   0  0  0  0  0  0  0  0  0  0  0  0
  151.3329  141.8902  157.4615 C   0  0  0  0  0  0  0  0  0  0  0  0
  150.8609  143.0314  158.1335 C   0  0  0  0  0  0  0  0  0  0  0  0
  151.3607  143.3409  159.4158 C   0  0  0  0  0  0  0  0  0  0  0  0
  150.8411  144.5726  160.1363 C   0  0  0  0  0  0  0  0  0  0  0  0
  153.6408  142.0839  161.6952 H   0  0  0  0  0  0  0  0  0  0  0  0
  152.0904  142.7978  162.1362 H   0  0  0  0  0  0  0  0  0  0  0  0
  153.3549  143.7984  161.4056 H   0  0  0  0  0  0  0  0  0  0  0  0
  153.5449  140.7198  159.7835 H   0  0  0  0  0  0  0  0  0  0  0  0
  151.8307  139.5738  155.2991 H   0  0  0  0  0  0  0  0  0  0  0  0
  149.4497  142.5026  155.6851 H   0  0  0  0  0  0  0  0  0  0  0  0
  150.6719  142.3268  154.4486 H   0  0  0  0  0  0  0  0  0  0  0  0
  148.9955  139.9357  155.3636 H   0  0  0  0  0  0  0  0  0  0  0  0
  149.7461  139.8915  152.8462 H   0  0  0  0  0  0  0  0  0  0  0  0
  148.4197  141.9438  153.1362 H   0  0  0  0  0  0  0  0  0  0  0  0
  147.7291  140.3410  153.1103 H   0  0  0  0  0  0  0  0  0  0  0  0
  145.6059  140.0098  154.3861 H   0  0  0  0  0  0  0  0  0  0  0  0
  146.7792  139.7129  155.6519 H   0  0  0  0  0  0  0  0  0  0  0  0
  144.4147  140.2940  156.4838 H   0  0  0  0  0  0  0  0  0  0  0  0
  145.7187  141.2286  157.1822 H   0  0  0  0  0  0  0  0  0  0  0  0
  143.7409  142.5829  156.3834 H   0  0  0  0  0  0  0  0  0  0  0  0
  146.7652  143.5002  153.7768 H   0  0  0  0  0  0  0  0  0  0  0  0
  145.7832  142.2486  153.0353 H   0  0  0  0  0  0  0  0  0  0  0  0
  150.1200  143.6635  157.6669 H   0  0  0  0  0  0  0  0  0  0  0  0
  150.1048  145.1054  159.5338 H   0  0  0  0  0  0  0  0  0  0  0  0
  151.6573  145.2618  160.3537 H   0  0  0  0  0  0  0  0  0  0  0  0
  150.3646  144.2921  161.0757 H   0  0  0  0  0  0  0  0  0  0  0  0
  147.4143  142.0418  155.4375 H   0  0  0  0  0  0  0  0  0  0  0  0
  1  2  1  0  0  0  0
  1 23  1  0  0  0  0
  1 24  1  0  0  0  0
  1 25  1  0  0  0  0
  2 21  1  0  0  0  0
  2  3  2  0  0  0  0
  3  4  1  0  0  0  0
  3 26  1  0  0  0  0
  4 19  2  0  0  0  0
  4  5  1  0  0  0  0
  5  6  2  0  0  0  0
  6  7  1  0  0  0  0
  6 27  1  0  0  0  0
  7  8  1  0  0  0  0
  7 19  1  0  0  0  0
  8  9  1  0  0  0  0
  8 28  1  0  0  0  0
  8 29  1  0  0  0  0
  9 10  1  0  0  0  0
  9 11  1  0  0  0  0
  9 30  1  0  0  0  0
 10 31  1  0  0  0  0
 11 12  1  0  0  0  0
 11 32  1  0  0  0  0
 11 33  1  0  0  0  0
 12 18  1  0  0  0  0
 12 13  1  0  0  0  0
 12 45  1  0  0  0  0
 13 14  1  0  0  0  0
 13 34  1  0  0  0  0
 13 35  1  0  0  0  0
 14 15  1  0  0  0  0
 14 36  1  0  0  0  0
 14 37  1  0  0  0  0
 15 16  1  0  0  0  0
 15 38  1  0  0  0  0
 16 17  2  0  0  0  0
 16 18  1  0  0  0  0
 18 39  1  0  0  0  0
 18 40  1  0  0  0  0
 19 20  1  0  0  0  0
 20 21  2  0  0  0  0
 20 41  1  0  0  0  0
 21 22  1  0  0  0  0
 22 42  1  0  0  0  0
 22 43  1  0  0  0  0
 22 44  1  0  0  0  0
M  CHG  1  12   1
M  END
> <s_m_source_file>
AV-unprocessed.smi

> <i_m_source_file_index>
1056

> <i_lp_mmshare_version>
43012

> <i_f3d_flags>
0

> <s_epik_input>
W0NIM11jKFtjSF0xKWMoW0NIM10pW2NIXWMoYzEyKW4oW2NIXW4yKVtDSDJdW0NASF0oW09IXSlbQ0gyXU4zW0NIMl1bQ0gyXVtOSF1DKD1PKVtDSDJdMw==

> <s_epik_cmdline>
J2VwaWtfcHl0aG9uJywgJy1waCcsICc3LjAnLCAnLXRuJywgJzgnLCAnLW1hJywgJzIwMCcsICctbWV0YWxfYmluZGluZycsICctaW1hZScsICc8aW5maWxlLm1hZT4nLCAnLW9tYWUnLCAnPG91dGZpbGUubWFlPic=

> <r_epik_Ionization_Penalty>
0.153633

> <r_epik_Ionization_Penalty_Charging>
0.0674887

> <r_epik_Ionization_Penalty_Neutral>
0.0861443

> <r_epik_State_Penalty>
0.135155

> <r_epik_Charging_Adjusted_Penalty>
0.202644

> <i_epik_Tot_Q>
1

> <i_epik_Tot_abs_Q>
1

> <r_epik_Metal_State_Penalty>
0.190685

> <b_epik_Metal_Only>
0

> <s_lp_Force_Field>
OPLS_2005

> <r_lp_Energy>
23.9975

> <b_lp_Chiralities_Consistent>
1

> <s_lp_Variant>
AV-unprocessed.smi:1056-1

> <Gold.Version>
5.8.1

> <Gold.Id.Protein>
6NUR|6NUR_protein|mol2

> <Gold.PLP.Fitness>
53.1120

> <Gold.PLP.PLP>
-45.8492

> <Gold.PLP.part.hbond>
-3.0000

> <Gold.PLP.part.metal>
0.0000

> <Gold.PLP.part.buried>
-5.9911

> <Gold.PLP.part.nonpolar>
-37.1754

> <Gold.PLP.part.repulsive>
0.2191

> <Gold.PLP.ligand.clash>
0.0000

> <Gold.PLP.ligand.torsion>
0.7151

> <Gold.PLP.Chemscore.Hbond>
2.8800

> <Gold.PLP.Chemscore.CHOScore>
0.0000

> <Gold.PLP.Chemscore.Metal>
0.0000

> <Gold.Chemscore.Hbonds>
donor molecule, donor type, donor heavy atom, donor atom, acceptor molecule, acceptor atom, score
      L1  H    10    31       P1  7957  1.00
      P1  H  7989  7998       L1    10  0.83
      P1  H  7997  8008       L1     5  1.00

> <Gold.PLP.Chemscore.Internal.Correction>
0.0529

> <Gold.Rescore>
     Score         DG    S(hbond)    S(metal)    S(lipo)     H(rot)  DE(clash)    DE(int)     intcor
     16.25     -18.58       1.87        0.00     110.45       2.38       0.68       1.65       ----

> <Gold.Chemscore.Fitness>
16.2499

> <Gold.Chemscore.DG>
-18.5760

> <Gold.Chemscore.ZeroCoef>
-5.4800

> <Gold.Chemscore.Hbond>
1.8749

> <Gold.Chemscore.Metal>
0.0000

> <Gold.Chemscore.Lipo>
110.4459

> <Gold.Chemscore.Internal_Hbond>
0.0000

> <Gold.Chemscore.DEClash>
0.6769

> <Gold.Chemscore.DEInternal>
1.6492

> <Gold.Chemscore.Rot>
2.3783

> <Gold.Chemscore.Internal.Correction>
   9.000000E+99

> <Gold.Chemscore.Hbonds>
donor molecule, donor type, donor heavy atom, donor atom, acceptor molecule, acceptor atom, score
      L1  H    10    31       P1  7957  0.99
      P1  H  7989  7998       L1    10  0.20
      P1  H  7997  8008       L1     5  0.54

> <Gold.Chemscore.Hbond.Weighted>
-6.2622

> <Gold.Chemscore.Metal.Weighted>
-0.0000

> <Gold.Chemscore.Lipo.Weighted>
-12.9222

> <Gold.Chemscore.Internal_Hbond.Weighted>
0.0000

> <Gold.Chemscore.DEClash.Weighted>
0.6769

> <Gold.Chemscore.DEInternal.Weighted>
1.6492

> <Gold.Chemscore.Rot.Weighted>
6.0884

> <Gold.Chemscore.Internal.Correction.Weighted>
   9.000000E+99

> <Gold.Protein.RotatedTorsions>
[ 6907 6896 6895 6894 ] final -167.42 input  -60.11 | X-H torsion
[ 7974 7965 7964 7962 ] final   34.75 input  175.53 | X-H torsion
[ 8008 7997 7996 7995 ] final  -65.50 input   59.86 | X-H torsion
[ 10167 10162 10161 10158 ] final   52.96 input  -65.29 | X-H torsion
[ 10718 10713 10712 10709 ] final  -88.38 input   66.30 | X-H torsion
[ 10763 10752 10751 10750 ] final   91.37 input  -60.55 | X-H torsion
[ 11005 11000 10999 10996 ] final -111.99 input  -57.11 | X-H torsion

> <Gold.Protein.ActiveResidues>
 VAL166  LYS551  ARG553  GLY616  TRP617  ASP618  TYR619  PRO620  LYS621  CYS622 
 ASP623  PHE694  ASN695  SER759  ASP760  ASP761  ALA762  ILE779  LEU786  VAL792 
 PHE793  MET794  SER795  GLU796  ALA797  LYS798  CYS799  TRP800  GLU811  SER814 

> <Gold.Protein.RotatedAtoms>
  151.4592  133.3597  159.2806 H   0  0  0  0  0  0  0  0  0  0  0  0  # atno 6907 bound_to 6896
  150.9037  134.8452  159.7388 H   0  0  0  0  0  0  0  0  0  0  0  0  # atno 6908 bound_to 6896
  152.4894  134.4515  159.9628 H   0  0  0  0  0  0  0  0  0  0  0  0  # atno 6909 bound_to 6896
  146.1331  139.6230  142.9213 H   0  0  0  0  0  0  0  0  0  0  0  0  # atno 7974 bound_to 7965
  154.4676  140.0932  156.7060 H   0  0  0  0  0  0  0  0  0  0  0  0  # atno 8008 bound_to 7997
  155.4815  140.3468  155.4322 H   0  0  0  0  0  0  0  0  0  0  0  0  # atno 8009 bound_to 7997
  156.0983  140.1415  156.9490 H   0  0  0  0  0  0  0  0  0  0  0  0  # atno 8010 bound_to 7997
  140.2458  144.3534  150.6364 H   0  0  0  0  0  0  0  0  0  0  0  0  # atno 10167 bound_to 10162
  155.9984  130.4834  150.5011 H   0  0  0  0  0  0  0  0  0  0  0  0  # atno 10718 bound_to 10713
  153.2075  135.4400  155.0340 H   0  0  0  0  0  0  0  0  0  0  0  0  # atno 10763 bound_to 10752
  154.8182  135.3325  154.7118 H   0  0  0  0  0  0  0  0  0  0  0  0  # atno 10764 bound_to 10752
  153.7559  135.6995  153.4991 H   0  0  0  0  0  0  0  0  0  0  0  0  # atno 10765 bound_to 10752
  141.0701  133.9393  157.2501 H   0  0  0  0  0  0  0  0  0  0  0  0  # atno 11005 bound_to 11000
  145.5216  141.0431  143.2432 LP  0  0  0  0  0  0  0  0  0  0  0  0  # atno 17320 bound_to 7965
  144.7711  139.6732  143.7194 LP  0  0  0  0  0  0  0  0  0  0  0  0  # atno 17321 bound_to 7965
  140.6079  143.2168  151.6945 LP  0  0  0  0  0  0  0  0  0  0  0  0  # atno 17342 bound_to 10162
  139.5062  144.3689  152.0489 LP  0  0  0  0  0  0  0  0  0  0  0  0  # atno 17343 bound_to 10162
  157.2995  131.0642  151.2078 LP  0  0  0  0  0  0  0  0  0  0  0  0  # atno 17370 bound_to 10713
  157.3062  130.6867  149.6191 LP  0  0  0  0  0  0  0  0  0  0  0  0  # atno 17371 bound_to 10713
  139.9515  135.0174  156.9008 LP  0  0  0  0  0  0  0  0  0  0  0  0  # atno 17394 bound_to 11000
  140.5691  134.0461  155.7424 LP  0  0  0  0  0  0  0  0  0  0  0  0  # atno 17395 bound_to 11000

$$$$
