AV-unprocessed.smi:1413|AV-procd|sdf|5757|dock8
  -GOLD-   22720 5393D 1   1.00000     0.00000
 Structure written by MMmdl.
 53 55  0  0  0  0  0  0  0  0  1 V2000
  153.6522  141.1474  160.3652 C   0  0  0  0  0  0  0  0  0  0  0  0
  152.8994  141.7788  159.1894 C   0  0  1  0  0  0  0  0  0  0  0  0
  151.9932  140.7616  158.4729 C   0  0  0  0  0  0  0  0  0  0  0  0
  151.2194  141.4287  157.4359 N   0  0  0  0  0  0  0  0  0  0  0  0
  150.4913  140.5466  156.6268 C   0  0  0  0  0  0  0  0  0  0  0  0
  149.4346  139.7649  157.1466 C   0  0  0  0  0  0  0  0  0  0  0  0
  148.7549  138.8877  156.2807 C   0  0  0  0  0  0  0  0  0  0  0  0
  149.1520  138.8080  154.9310 C   0  0  0  0  0  0  0  0  0  0  0  0
  148.4436  137.9192  154.0779 N   0  0  0  0  0  0  0  0  0  0  0  0
  147.1574  137.5367  154.1544 C   0  0  0  0  0  0  0  0  0  0  0  0
  146.3563  137.9086  155.0114 O   0  0  0  0  0  0  0  0  0  0  0  0
  146.8435  136.7004  153.1543 N   0  0  0  0  0  0  0  0  0  0  0  0
  145.5370  136.0843  152.9303 C   0  0  1  0  0  0  0  0  0  0  0  0
  144.4683  137.1883  152.8942 C   0  0  0  0  0  0  0  0  0  0  0  0
  145.5788  135.2574  151.6303 C   0  0  2  0  0  0  0  0  0  0  0  0
  144.2522  134.5945  151.2535 C   0  0  0  0  0  0  0  0  0  0  0  0
  144.7175  133.4326  150.4071 C   0  0  0  0  0  0  0  0  0  0  0  0
  145.9763  132.9962  151.1485 C   0  0  0  0  0  0  0  0  0  0  0  0
  146.4982  134.1732  151.7591 O   0  0  0  0  0  0  0  0  0  0  0  0
  150.2098  139.6480  154.5051 C   0  0  0  0  0  0  0  0  0  0  0  0
  150.8648  140.4926  155.3303 N   0  0  0  0  0  0  0  0  0  0  0  0
  150.4258  142.5340  157.9560 C   0  0  0  0  0  0  0  0  0  0  0  0
  151.3195  143.5353  158.7152 C   0  0  2  0  0  0  0  0  0  0  0  0
  152.1861  144.4087  157.7905 C   0  0  0  0  0  0  0  0  0  0  0  0
  152.1023  142.8498  159.6972 O   0  0  0  0  0  0  0  0  0  0  0  0
  154.2840  140.3244  160.0302 H   0  0  0  0  0  0  0  0  0  0  0  0
  152.9609  140.7568  161.1125 H   0  0  0  0  0  0  0  0  0  0  0  0
  154.2936  141.8806  160.8550 H   0  0  0  0  0  0  0  0  0  0  0  0
  153.6365  142.1701  158.4879 H   0  0  0  0  0  0  0  0  0  0  0  0
  152.5960  139.9684  158.0286 H   0  0  0  0  0  0  0  0  0  0  0  0
  151.3189  140.2924  159.1907 H   0  0  0  0  0  0  0  0  0  0  0  0
  149.1494  139.8303  158.1862 H   0  0  0  0  0  0  0  0  0  0  0  0
  147.9446  138.2788  156.6541 H   0  0  0  0  0  0  0  0  0  0  0  0
  148.9572  137.5890  153.2742 H   0  0  0  0  0  0  0  0  0  0  0  0
  147.5717  136.4570  152.4992 H   0  0  0  0  0  0  0  0  0  0  0  0
  145.2916  135.4098  153.7526 H   0  0  0  0  0  0  0  0  0  0  0  0
  143.4682  136.7706  152.7773 H   0  0  0  0  0  0  0  0  0  0  0  0
  144.6384  137.8809  152.0691 H   0  0  0  0  0  0  0  0  0  0  0  0
  144.4714  137.7656  153.8193 H   0  0  0  0  0  0  0  0  0  0  0  0
  145.9162  135.8771  150.7974 H   0  0  0  0  0  0  0  0  0  0  0  0
  143.7387  134.2242  152.1424 H   0  0  0  0  0  0  0  0  0  0  0  0
  143.5765  135.2643  150.7210 H   0  0  0  0  0  0  0  0  0  0  0  0
  143.9759  132.6383  150.3201 H   0  0  0  0  0  0  0  0  0  0  0  0
  144.9711  133.7777  149.4039 H   0  0  0  0  0  0  0  0  0  0  0  0
  145.7276  132.2817  151.9340 H   0  0  0  0  0  0  0  0  0  0  0  0
  146.7086  132.5320  150.4873 H   0  0  0  0  0  0  0  0  0  0  0  0
  150.5430  139.6734  153.4795 H   0  0  0  0  0  0  0  0  0  0  0  0
  149.9004  143.0345  157.1412 H   0  0  0  0  0  0  0  0  0  0  0  0
  149.6652  142.1426  158.6328 H   0  0  0  0  0  0  0  0  0  0  0  0
  150.6655  144.2122  159.2655 H   0  0  0  0  0  0  0  0  0  0  0  0
  151.5602  145.0129  157.1334 H   0  0  0  0  0  0  0  0  0  0  0  0
  152.8418  143.8148  157.1543 H   0  0  0  0  0  0  0  0  0  0  0  0
  152.8089  145.0897  158.3706 H   0  0  0  0  0  0  0  0  0  0  0  0
  1  2  1  0  0  0  0
  1 26  1  0  0  0  0
  1 27  1  0  0  0  0
  1 28  1  0  0  0  0
  2 25  1  0  0  0  0
  2  3  1  0  0  0  0
  2 29  1  0  0  0  0
  3  4  1  0  0  0  0
  3 30  1  0  0  0  0
  3 31  1  0  0  0  0
  4  5  1  0  0  0  0
  4 22  1  0  0  0  0
  5 21  1  0  0  0  0
  5  6  2  0  0  0  0
  6  7  1  0  0  0  0
  6 32  1  0  0  0  0
  7  8  2  0  0  0  0
  7 33  1  0  0  0  0
  8  9  1  0  0  0  0
  8 20  1  0  0  0  0
  9 10  1  0  0  0  0
  9 34  1  0  0  0  0
 10 11  2  0  0  0  0
 10 12  1  0  0  0  0
 12 13  1  0  0  0  0
 12 35  1  0  0  0  0
 13 14  1  0  0  0  0
 13 15  1  0  0  0  0
 13 36  1  0  0  0  0
 14 37  1  0  0  0  0
 14 38  1  0  0  0  0
 14 39  1  0  0  0  0
 15 19  1  0  0  0  0
 15 16  1  0  0  0  0
 15 40  1  0  0  0  0
 16 17  1  0  0  0  0
 16 41  1  0  0  0  0
 16 42  1  0  0  0  0
 17 18  1  0  0  0  0
 17 43  1  0  0  0  0
 17 44  1  0  0  0  0
 18 19  1  0  0  0  0
 18 45  1  0  0  0  0
 18 46  1  0  0  0  0
 20 21  2  0  0  0  0
 20 47  1  0  0  0  0
 22 23  1  0  0  0  0
 22 48  1  0  0  0  0
 22 49  1  0  0  0  0
 23 24  1  0  0  0  0
 23 25  1  0  0  0  0
 23 50  1  0  0  0  0
 24 51  1  0  0  0  0
 24 52  1  0  0  0  0
 24 53  1  0  0  0  0
M  END
> <s_m_source_file>
AV-unprocessed.smi

> <i_m_source_file_index>
1413

> <i_lp_mmshare_version>
43012

> <i_f3d_flags>
0

> <s_epik_input>
W0NIM11bQ0BASF0xW0NIMl1OKFtDSDJdW0NASF0oTzEpW0NIM10pYzJbY0hdW2NIXWMoW2NIXW4yKVtOSF1DKD1PKVtOSF1bQ0BIXShbQ0gzXSlbQ0BASF0zW0NIMl1bQ0gyXVtDSDJdTzM=

> <s_epik_cmdline>
J2VwaWtfcHl0aG9uJywgJy1waCcsICc3LjAnLCAnLXRuJywgJzgnLCAnLW1hJywgJzIwMCcsICctbWV0YWxfYmluZGluZycsICctaW1hZScsICc8aW5maWxlLm1hZT4nLCAnLW9tYWUnLCAnPG91dGZpbGUubWFlPic=

> <r_lp_tautomer_probability>
1

> <r_epik_Ionization_Penalty>
0.00271172

> <r_epik_Ionization_Penalty_Charging>
0

> <r_epik_Ionization_Penalty_Neutral>
0.00271172

> <r_epik_State_Penalty>
0.00186503

> <r_epik_Charging_Adjusted_Penalty>
0.00186503

> <i_epik_Tot_Q>
0

> <i_epik_Tot_abs_Q>
0

> <r_epik_Metal_State_Penalty>
-0

> <b_epik_Metal_Only>
0

> <s_lp_Force_Field>
OPLS_2005

> <r_lp_Energy>
38.2473

> <b_lp_Chiralities_Consistent>
1

> <s_lp_Variant>
AV-unprocessed.smi:1413-10

> <Gold.Version>
5.8.1

> <Gold.Id.Protein>
6NUR|6NUR_protein|mol2

> <Gold.PLP.Fitness>
48.1989

> <Gold.PLP.PLP>
-39.9702

> <Gold.PLP.part.hbond>
-2.9478

> <Gold.PLP.part.metal>
0.0000

> <Gold.PLP.part.buried>
-6.7045

> <Gold.PLP.part.nonpolar>
-31.3317

> <Gold.PLP.part.repulsive>
0.3147

> <Gold.PLP.ligand.clash>
0.0000

> <Gold.PLP.ligand.torsion>
0.2904

> <Gold.PLP.Chemscore.Hbond>
1.8960

> <Gold.PLP.Chemscore.CHOScore>
1.0000

> <Gold.PLP.Chemscore.Metal>
0.0000

> <Gold.Chemscore.Hbonds>
donor molecule, donor type, donor heavy atom, donor atom, acceptor molecule, acceptor atom, score
      L1  H     9    34       P1  7948  0.90
      L1  H    12    35       P1  7948  1.00
      L1  C    20    47       P1  7957  1.00

> <Gold.PLP.Chemscore.Internal.Correction>
0.1216

> <Gold.Rescore>
     Score         DG    S(hbond)    S(metal)    S(lipo)     H(rot)  DE(clash)    DE(int)     intcor
     17.70     -20.49       1.88        0.00     104.14       1.35       0.06       2.74       ----

> <Gold.Chemscore.Fitness>
17.6988

> <Gold.Chemscore.DG>
-20.4922

> <Gold.Chemscore.ZeroCoef>
-5.4800

> <Gold.Chemscore.Hbond>
1.8793

> <Gold.Chemscore.Metal>
0.0000

> <Gold.Chemscore.Lipo>
104.1351

> <Gold.Chemscore.Internal_Hbond>
0.0000

> <Gold.Chemscore.DEClash>
0.0581

> <Gold.Chemscore.DEInternal>
2.7353

> <Gold.Chemscore.Rot>
1.3471

> <Gold.Chemscore.Internal.Correction>
   9.000000E+99

> <Gold.Chemscore.Hbonds>
donor molecule, donor type, donor heavy atom, donor atom, acceptor molecule, acceptor atom, score
      L1  H     9    34       P1  7948  0.87
      L1  H    12    35       P1  7948  0.93

> <Gold.Chemscore.Hbond.Weighted>
-6.2769

> <Gold.Chemscore.Metal.Weighted>
-0.0000

> <Gold.Chemscore.Lipo.Weighted>
-12.1838

> <Gold.Chemscore.Internal_Hbond.Weighted>
0.0000

> <Gold.Chemscore.DEClash.Weighted>
0.0581

> <Gold.Chemscore.DEInternal.Weighted>
2.7353

> <Gold.Chemscore.Rot.Weighted>
3.4485

> <Gold.Chemscore.Internal.Correction.Weighted>
   9.000000E+99

> <Gold.Protein.RotatedTorsions>
[ 6907 6896 6895 6894 ] final  -97.27 input  -60.11 | X-H torsion
[ 7974 7965 7964 7962 ] final  170.82 input  175.53 | X-H torsion
[ 8008 7997 7996 7995 ] final  -47.60 input   59.86 | X-H torsion
[ 10167 10162 10161 10158 ] final -136.27 input  -65.29 | X-H torsion
[ 10718 10713 10712 10709 ] final   47.23 input   66.30 | X-H torsion
[ 10763 10752 10751 10750 ] final  -78.37 input  -60.55 | X-H torsion
[ 11005 11000 10999 10996 ] final -101.75 input  -57.11 | X-H torsion

> <Gold.Protein.ActiveResidues>
 VAL166  LYS551  ARG553  GLY616  TRP617  ASP618  TYR619  PRO620  LYS621  CYS622 
 ASP623  PHE694  ASN695  SER759  ASP760  ASP761  ALA762  ILE779  LEU786  VAL792 
 PHE793  MET794  SER795  GLU796  ALA797  LYS798  CYS799  TRP800  GLU811  SER814 

> <Gold.Protein.RotatedAtoms>
  150.7012  134.1374  159.4091 H   0  0  0  0  0  0  0  0  0  0  0  0  # atno 6907 bound_to 6896
  151.9359  135.0233  160.0542 H   0  0  0  0  0  0  0  0  0  0  0  0  # atno 6908 bound_to 6896
  152.2136  133.4894  159.5160 H   0  0  0  0  0  0  0  0  0  0  0  0  # atno 6909 bound_to 6896
  144.7312  139.9259  143.6422 H   0  0  0  0  0  0  0  0  0  0  0  0  # atno 7974 bound_to 7965
  154.4018  140.1342  156.4201 H   0  0  0  0  0  0  0  0  0  0  0  0  # atno 8008 bound_to 7997
  155.7650  140.3485  155.5197 H   0  0  0  0  0  0  0  0  0  0  0  0  # atno 8009 bound_to 7997
  155.8822  140.0989  157.1468 H   0  0  0  0  0  0  0  0  0  0  0  0  # atno 8010 bound_to 7997
  139.8694  143.6976  152.2641 H   0  0  0  0  0  0  0  0  0  0  0  0  # atno 10167 bound_to 10162
  157.4564  130.8169  149.7840 H   0  0  0  0  0  0  0  0  0  0  0  0  # atno 10718 bound_to 10713
  154.5251  135.5732  153.6712 H   0  0  0  0  0  0  0  0  0  0  0  0  # atno 10763 bound_to 10752
  152.9926  135.6191  154.2704 H   0  0  0  0  0  0  0  0  0  0  0  0  # atno 10764 bound_to 10752
  154.2627  135.2855  155.2751 H   0  0  0  0  0  0  0  0  0  0  0  0  # atno 10765 bound_to 10752
  141.1218  133.8503  157.1271 H   0  0  0  0  0  0  0  0  0  0  0  0  # atno 11005 bound_to 11000
  146.0894  139.3884  143.0415 LP  0  0  0  0  0  0  0  0  0  0  0  0  # atno 17320 bound_to 7965
  145.7731  140.9888  143.1139 LP  0  0  0  0  0  0  0  0  0  0  0  0  # atno 17321 bound_to 7965
  139.7298  144.7585  151.0820 LP  0  0  0  0  0  0  0  0  0  0  0  0  # atno 17342 bound_to 10162
  140.7763  143.5103  150.9661 LP  0  0  0  0  0  0  0  0  0  0  0  0  # atno 17343 bound_to 10162
  156.0009  130.3881  150.2610 LP  0  0  0  0  0  0  0  0  0  0  0  0  # atno 17370 bound_to 10713
  157.0785  131.0137  151.3165 LP  0  0  0  0  0  0  0  0  0  0  0  0  # atno 17371 bound_to 10713
  140.0182  134.9958  157.0536 LP  0  0  0  0  0  0  0  0  0  0  0  0  # atno 17394 bound_to 11000
  140.4485  134.1607  155.7179 LP  0  0  0  0  0  0  0  0  0  0  0  0  # atno 17395 bound_to 11000

$$$$
