AV-unprocessed.smi:1220|AV-procd|sdf|5115|dock6
  -GOLD-   22720 4173D 1   1.00000     0.00000
 Structure written by MMmdl.
 35 36  0  0  0  0  0  0  0  0  1 V2000
  153.8739  140.0838  161.2666 C   0  0  0  0  0  0  0  0  0  0  0  0
  152.8643  140.9687  160.5169 C   0  0  1  0  0  0  0  0  0  0  0  0
  153.1836  142.4768  160.6254 C   0  0  0  0  0  0  0  0  0  0  0  0
  152.2687  143.3070  159.8633 N   0  0  0  0  0  0  0  0  0  0  0  0
  152.5570  144.1883  158.8426 C   0  0  0  0  0  0  0  0  0  0  0  0
  151.3744  144.7316  158.4294 C   0  0  0  0  0  0  0  0  0  0  0  0
  150.4057  144.1079  159.2646 C   0  0  0  0  0  0  0  0  0  0  0  0
  150.9439  143.2536  160.1199 N   0  0  0  0  0  0  0  0  0  0  0  0
  152.8216  140.5630  159.1149 N   0  0  0  0  0  0  0  0  0  0  0  0
  152.3641  139.3857  158.6601 C   0  0  0  0  0  0  0  0  0  0  0  0
  151.9274  138.5008  159.3966 O   0  0  0  0  0  0  0  0  0  0  0  0
  152.4003  139.1807  157.1407 C   0  0  2  0  0  0  0  0  0  0  0  0
  151.4435  140.1436  156.4053 C   0  0  0  0  0  0  0  0  0  0  0  0
  151.2957  139.6674  154.9573 C   0  0  0  0  0  0  0  0  0  0  0  0
  151.3655  137.8397  155.0332 S   0  0  0  0  0  0  0  0  0  0  0  0
  149.9982  137.2987  155.0200 O   0  0  0  0  0  0  0  0  0  0  0  0
  152.3799  137.3582  154.0834 O   0  0  0  0  0  0  0  0  0  0  0  0
  152.0248  137.7414  156.7410 C   0  0  0  0  0  0  0  0  0  0  0  0
  153.8752  140.2959  162.3360 H   0  0  0  0  0  0  0  0  0  0  0  0
  154.8878  140.2373  160.8956 H   0  0  0  0  0  0  0  0  0  0  0  0
  153.6319  139.0271  161.1484 H   0  0  0  0  0  0  0  0  0  0  0  0
  151.8826  140.7861  160.9581 H   0  0  0  0  0  0  0  0  0  0  0  0
  153.1467  142.7947  161.6683 H   0  0  0  0  0  0  0  0  0  0  0  0
  154.1965  142.6809  160.2750 H   0  0  0  0  0  0  0  0  0  0  0  0
  153.5678  144.3552  158.5006 H   0  0  0  0  0  0  0  0  0  0  0  0
  151.2237  145.4619  157.6483 H   0  0  0  0  0  0  0  0  0  0  0  0
  149.3348  144.2484  159.2739 H   0  0  0  0  0  0  0  0  0  0  0  0
  153.1636  141.2305  158.4388 H   0  0  0  0  0  0  0  0  0  0  0  0
  153.4099  139.3757  156.7743 H   0  0  0  0  0  0  0  0  0  0  0  0
  150.4607  140.1288  156.8797 H   0  0  0  0  0  0  0  0  0  0  0  0
  151.8000  141.1735  156.4449 H   0  0  0  0  0  0  0  0  0  0  0  0
  150.3658  139.9922  154.4904 H   0  0  0  0  0  0  0  0  0  0  0  0
  152.1324  140.0128  154.3495 H   0  0  0  0  0  0  0  0  0  0  0  0
  152.8806  137.0664  156.7627 H   0  0  0  0  0  0  0  0  0  0  0  0
  151.2428  137.3247  157.3775 H   0  0  0  0  0  0  0  0  0  0  0  0
  1  2  1  0  0  0  0
  1 19  1  0  0  0  0
  1 20  1  0  0  0  0
  1 21  1  0  0  0  0
  2  3  1  0  0  0  0
  2  9  1  0  0  0  0
  2 22  1  0  0  0  0
  3  4  1  0  0  0  0
  3 23  1  0  0  0  0
  3 24  1  0  0  0  0
  4  8  1  0  0  0  0
  4  5  1  0  0  0  0
  5  6  2  0  0  0  0
  5 25  1  0  0  0  0
  6  7  1  0  0  0  0
  6 26  1  0  0  0  0
  7  8  2  0  0  0  0
  7 27  1  0  0  0  0
  9 10  1  0  0  0  0
  9 28  1  0  0  0  0
 10 11  2  0  0  0  0
 10 12  1  0  0  0  0
 12 18  1  0  0  0  0
 12 13  1  0  0  0  0
 12 29  1  0  0  0  0
 13 14  1  0  0  0  0
 13 30  1  0  0  0  0
 13 31  1  0  0  0  0
 14 15  1  0  0  0  0
 14 32  1  0  0  0  0
 14 33  1  0  0  0  0
 15 16  2  0  0  0  0
 15 17  2  0  0  0  0
 15 18  1  0  0  0  0
 18 34  1  0  0  0  0
 18 35  1  0  0  0  0
M  END
> <s_m_source_file>
AV-unprocessed.smi

> <i_m_source_file_index>
1220

> <i_lp_mmshare_version>
43012

> <i_f3d_flags>
0

> <s_epik_input>
bjFbY0hdW2NIXVtjSF1uMVtDSDJdW0NAQEhdKFtDSDNdKVtOSF1DKD1PKVtDQEBIXShbQ0gyXTIpW0NIMl1bQ0gyXVMyKD1PKT1P

> <s_epik_cmdline>
J2VwaWtfcHl0aG9uJywgJy1waCcsICc3LjAnLCAnLXRuJywgJzgnLCAnLW1hJywgJzIwMCcsICctbWV0YWxfYmluZGluZycsICctaW1hZScsICc8aW5maWxlLm1hZT4nLCAnLW9tYWUnLCAnPG91dGZpbGUubWFlPic=

> <r_lp_tautomer_probability>
1

> <r_epik_Ionization_Penalty>
0.000293905

> <r_epik_Ionization_Penalty_Charging>
0

> <r_epik_Ionization_Penalty_Neutral>
0.000293905

> <r_epik_State_Penalty>
-0

> <r_epik_Charging_Adjusted_Penalty>
0

> <i_epik_Tot_Q>
0

> <i_epik_Tot_abs_Q>
0

> <r_epik_Metal_State_Penalty>
-0

> <b_epik_Metal_Only>
0

> <s_lp_Force_Field>
OPLS_2005

> <r_lp_Energy>
2.06683

> <b_lp_Chiralities_Consistent>
1

> <s_lp_Variant>
AV-unprocessed.smi:1220-2

> <Gold.Version>
5.8.1

> <Gold.Id.Protein>
6NUR|6NUR_protein|mol2

> <Gold.PLP.Fitness>
39.0782

> <Gold.PLP.PLP>
-36.6425

> <Gold.PLP.part.hbond>
-1.4584

> <Gold.PLP.part.metal>
0.0000

> <Gold.PLP.part.buried>
-3.6497

> <Gold.PLP.part.nonpolar>
-32.1007

> <Gold.PLP.part.repulsive>
0.9540

> <Gold.PLP.ligand.clash>
0.0000

> <Gold.PLP.ligand.torsion>
0.1830

> <Gold.PLP.Chemscore.Hbond>
0.9280

> <Gold.PLP.Chemscore.CHOScore>
0.0000

> <Gold.PLP.Chemscore.Metal>
0.0000

> <Gold.Chemscore.Hbonds>
donor molecule, donor type, donor heavy atom, donor atom, acceptor molecule, acceptor atom, score
      P1  H 10752 10765       L1    17  0.78

> <Gold.PLP.Chemscore.Internal.Correction>
0.0176

> <Gold.Rescore>
     Score         DG    S(hbond)    S(metal)    S(lipo)     H(rot)  DE(clash)    DE(int)     intcor
     14.56     -14.87       0.95        0.00      91.31       1.75       0.11       0.20       ----

> <Gold.Chemscore.Fitness>
14.5581

> <Gold.Chemscore.DG>
-14.8710

> <Gold.Chemscore.ZeroCoef>
-5.4800

> <Gold.Chemscore.Hbond>
0.9514

> <Gold.Chemscore.Metal>
0.0000

> <Gold.Chemscore.Lipo>
91.3087

> <Gold.Chemscore.Internal_Hbond>
0.0000

> <Gold.Chemscore.DEClash>
0.1133

> <Gold.Chemscore.DEInternal>
0.1996

> <Gold.Chemscore.Rot>
1.7460

> <Gold.Chemscore.Internal.Correction>
   9.000000E+99

> <Gold.Chemscore.Hbonds>
donor molecule, donor type, donor heavy atom, donor atom, acceptor molecule, acceptor atom, score
      P1  H 10752 10765       L1    17  0.79

> <Gold.Chemscore.Hbond.Weighted>
-3.1776

> <Gold.Chemscore.Metal.Weighted>
-0.0000

> <Gold.Chemscore.Lipo.Weighted>
-10.6831

> <Gold.Chemscore.Internal_Hbond.Weighted>
0.0000

> <Gold.Chemscore.DEClash.Weighted>
0.1133

> <Gold.Chemscore.DEInternal.Weighted>
0.1996

> <Gold.Chemscore.Rot.Weighted>
4.4697

> <Gold.Chemscore.Internal.Correction.Weighted>
   9.000000E+99

> <Gold.Protein.RotatedTorsions>
[ 6907 6896 6895 6894 ] final  135.19 input  -60.11 | X-H torsion
[ 7974 7965 7964 7962 ] final   75.57 input  175.53 | X-H torsion
[ 8008 7997 7996 7995 ] final -143.79 input   59.86 | X-H torsion
[ 10167 10162 10161 10158 ] final   41.42 input  -65.29 | X-H torsion
[ 10718 10713 10712 10709 ] final  114.40 input   66.30 | X-H torsion
[ 10763 10752 10751 10750 ] final  148.88 input  -60.55 | X-H torsion
[ 11005 11000 10999 10996 ] final  -57.48 input  -57.11 | X-H torsion

> <Gold.Protein.ActiveResidues>
 VAL166  LYS551  ARG553  GLY616  TRP617  ASP618  TYR619  PRO620  LYS621  CYS622 
 ASP623  PHE694  ASN695  SER759  ASP760  ASP761  ALA762  ILE779  LEU786  VAL792 
 PHE793  MET794  SER795  GLU796  ALA797  LYS798  CYS799  TRP800  GLU811  SER814 

> <Gold.Protein.RotatedAtoms>
  152.3032  133.5676  159.5631 H   0  0  0  0  0  0  0  0  0  0  0  0  # atno 6907 bound_to 6896
  150.7287  134.0261  159.3726 H   0  0  0  0  0  0  0  0  0  0  0  0  # atno 6908 bound_to 6896
  151.8160  135.0667  160.0470 H   0  0  0  0  0  0  0  0  0  0  0  0  # atno 6909 bound_to 6896
  145.7138  139.2624  143.1635 H   0  0  0  0  0  0  0  0  0  0  0  0  # atno 7974 bound_to 7965
  155.5163  140.0587  157.2914 H   0  0  0  0  0  0  0  0  0  0  0  0  # atno 8008 bound_to 7997
  154.4533  140.1960  156.0400 H   0  0  0  0  0  0  0  0  0  0  0  0  # atno 8009 bound_to 7997
  156.0749  140.3255  155.7626 H   0  0  0  0  0  0  0  0  0  0  0  0  # atno 8010 bound_to 7997
  140.3645  144.2185  150.6136 H   0  0  0  0  0  0  0  0  0  0  0  0  # atno 10167 bound_to 10162
  157.6283  131.0998  150.7181 H   0  0  0  0  0  0  0  0  0  0  0  0  # atno 10718 bound_to 10713
  154.0620  135.2873  155.3323 H   0  0  0  0  0  0  0  0  0  0  0  0  # atno 10763 bound_to 10752
  154.6802  135.5266  153.8256 H   0  0  0  0  0  0  0  0  0  0  0  0  # atno 10764 bound_to 10752
  153.0518  135.6579  154.0808 H   0  0  0  0  0  0  0  0  0  0  0  0  # atno 10765 bound_to 10752
  141.1166  133.6610  156.4775 H   0  0  0  0  0  0  0  0  0  0  0  0  # atno 11005 bound_to 11000
  146.0688  140.7892  142.9698 LP  0  0  0  0  0  0  0  0  0  0  0  0  # atno 17320 bound_to 7965
  144.6934  140.3310  143.7216 LP  0  0  0  0  0  0  0  0  0  0  0  0  # atno 17321 bound_to 7965
  140.5094  143.2295  151.8558 LP  0  0  0  0  0  0  0  0  0  0  0  0  # atno 17342 bound_to 10162
  139.4810  144.4967  151.9114 LP  0  0  0  0  0  0  0  0  0  0  0  0  # atno 17343 bound_to 10162
  156.7525  130.4773  149.5453 LP  0  0  0  0  0  0  0  0  0  0  0  0  # atno 17370 bound_to 10713
  156.1469  130.6283  151.0544 LP  0  0  0  0  0  0  0  0  0  0  0  0  # atno 17371 bound_to 10713
  140.4628  134.6826  157.5093 LP  0  0  0  0  0  0  0  0  0  0  0  0  # atno 17394 bound_to 11000
  140.0093  134.6715  155.9406 LP  0  0  0  0  0  0  0  0  0  0  0  0  # atno 17395 bound_to 11000

$$$$
