AV-unprocessed.smi:2554|AV-procd|sdf|10021|dock3
  -GOLD-   2272014 63D 1   1.00000     0.00000
 Structure written by MMmdl.
 22 22  0  0  0  0  0  0  0  0  3 V2000
  149.6706  140.9848  154.6981 C   0  0  0  0  0  0  0  0  0  0  0  0
  148.2666  141.2460  154.2679 C   0  0  0  0  0  0  0  0  0  0  0  0
  147.6655  142.4642  154.4528 N   0  0  0  0  0  0  0  0  0  0  0  0
  146.4160  142.4468  153.9844 C   0  0  0  0  0  0  0  0  0  0  0  0
  146.2104  141.2216  153.4963 N   0  3  0  0  0  0  0  0  0  0  0  0
  147.3310  140.4452  153.6532 C   0  0  0  0  0  0  0  0  0  0  0  0
  147.3914  139.0241  153.1940 C   0  0  0  0  0  0  0  0  0  0  0  0
  146.7183  138.8440  151.8253 C   0  0  0  0  0  0  0  0  0  0  0  0
  145.3125  138.4264  151.9658 N   0  3  0  0  0  0  0  0  0  0  0  0
  148.1053  143.2676  154.8849 H   0  0  0  0  0  0  0  0  0  0  0  0
  149.9634  139.9625  154.4579 H   0  0  0  0  0  0  0  0  0  0  0  0
  149.7680  141.1289  155.7745 H   0  0  0  0  0  0  0  0  0  0  0  0
  150.3531  141.6679  154.1919 H   0  0  0  0  0  0  0  0  0  0  0  0
  145.7128  143.2605  153.9985 H   0  0  0  0  0  0  0  0  0  0  0  0
  148.4358  138.7130  153.1470 H   0  0  0  0  0  0  0  0  0  0  0  0
  146.9094  138.3896  153.9391 H   0  0  0  0  0  0  0  0  0  0  0  0
  146.7502  139.7758  151.2593 H   0  0  0  0  0  0  0  0  0  0  0  0
  147.2475  138.0919  151.2388 H   0  0  0  0  0  0  0  0  0  0  0  0
  145.2641  137.5965  152.5399 H   0  0  0  0  0  0  0  0  0  0  0  0
  144.9235  138.2251  151.0554 H   0  0  0  0  0  0  0  0  0  0  0  0
  144.7799  139.1653  152.4026 H   0  0  0  0  0  0  0  0  0  0  0  0
  145.3428  140.9124  153.0757 H   0  0  0  0  0  0  0  0  0  0  0  0
  1  2  1  0  0  0  0
  1 11  1  0  0  0  0
  1 12  1  0  0  0  0
  1 13  1  0  0  0  0
  2  6  2  0  0  0  0
  2  3  1  0  0  0  0
  3 10  1  0  0  0  0
  3  4  1  0  0  0  0
  4  5  2  0  0  0  0
  4 14  1  0  0  0  0
  5  6  1  0  0  0  0
  5 22  1  0  0  0  0
  6  7  1  0  0  0  0
  7  8  1  0  0  0  0
  7 15  1  0  0  0  0
  7 16  1  0  0  0  0
  8  9  1  0  0  0  0
  8 17  1  0  0  0  0
  8 18  1  0  0  0  0
  9 19  1  0  0  0  0
  9 20  1  0  0  0  0
  9 21  1  0  0  0  0
M  CHG  1   5   1
M  CHG  1   9   1
M  END
> <s_m_source_file>
AV-unprocessed.smi

> <i_m_source_file_index>
2554

> <i_lp_mmshare_version>
43012

> <i_f3d_flags>
0

> <s_epik_input>
W0NIM11jMVtuSF1bY0hdbmMxW0NIMl1bQ0gyXVtOSDJd

> <s_epik_cmdline>
J2VwaWtfcHl0aG9uJywgJy1waCcsICc3LjAnLCAnLXRuJywgJzgnLCAnLW1hJywgJzIwMCcsICctbWV0YWxfYmluZGluZycsICctaW1hZScsICc8aW5maWxlLm1hZT4nLCAnLW9tYWUnLCAnPG91dGZpbGUubWFlPic=

> <r_lp_tautomer_probability>
1

> <r_epik_Ionization_Penalty>
1.44166

> <r_epik_Ionization_Penalty_Charging>
0.0086666

> <r_epik_Ionization_Penalty_Neutral>
1.43299

> <r_epik_State_Penalty>
0.799657

> <r_epik_Charging_Adjusted_Penalty>
0.808323

> <i_epik_Tot_Q>
2

> <i_epik_Tot_abs_Q>
2

> <r_epik_Metal_State_Penalty>
4.62592

> <b_epik_Metal_Only>
0

> <s_lp_Force_Field>
OPLS_2005

> <r_lp_Energy>
11.4182

> <b_lp_Chiralities_Consistent>
1

> <s_lp_Variant>
AV-unprocessed.smi:2554-3

> <Gold.Version>
5.8.1

> <Gold.Id.Protein>
6NUR|6NUR_protein|mol2

> <Gold.PLP.Fitness>
42.5592

> <Gold.PLP.PLP>
-22.5335

> <Gold.PLP.part.hbond>
-4.0000

> <Gold.PLP.part.metal>
0.0000

> <Gold.PLP.part.buried>
-0.8431

> <Gold.PLP.part.nonpolar>
-17.9421

> <Gold.PLP.part.repulsive>
0.2342

> <Gold.PLP.ligand.clash>
0.0000

> <Gold.PLP.ligand.torsion>
0.4874

> <Gold.PLP.Chemscore.Hbond>
7.0000

> <Gold.PLP.Chemscore.CHOScore>
0.0000

> <Gold.PLP.Chemscore.Metal>
0.0000

> <Gold.Chemscore.Hbonds>
donor molecule, donor type, donor heavy atom, donor atom, acceptor molecule, acceptor atom, score
      L1  H     3    10       P1  8028  2.00
      L1  H     5    22       P1 10175  2.00
      L1  H     9    20       P1 10171  1.00
      L1  H     9    21       P1 10175  2.00

> <Gold.PLP.Chemscore.Internal.Correction>
0.0004

> <Gold.Rescore>
     Score         DG    S(hbond)    S(metal)    S(lipo)     H(rot)  DE(clash)    DE(int)     intcor
     18.29     -18.63       3.75        0.00      37.38       1.47       0.04       0.30       ----

> <Gold.Chemscore.Fitness>
18.2943

> <Gold.Chemscore.DG>
-18.6311

> <Gold.Chemscore.ZeroCoef>
-5.4800

> <Gold.Chemscore.Hbond>
3.7531

> <Gold.Chemscore.Metal>
0.0000

> <Gold.Chemscore.Lipo>
37.3802

> <Gold.Chemscore.Internal_Hbond>
0.0000

> <Gold.Chemscore.DEClash>
0.0411

> <Gold.Chemscore.DEInternal>
0.2957

> <Gold.Chemscore.Rot>
1.4679

> <Gold.Chemscore.Internal.Correction>
   9.000000E+99

> <Gold.Chemscore.Hbonds>
donor molecule, donor type, donor heavy atom, donor atom, acceptor molecule, acceptor atom, score
      L1  H     3    10       P1  8028  0.93
      L1  H     5    22       P1 10175  0.45
      L1  H     9    20       P1 10171  0.94
      L1  H     9    21       P1 10175  0.98

> <Gold.Chemscore.Hbond.Weighted>
-12.5353

> <Gold.Chemscore.Metal.Weighted>
-0.0000

> <Gold.Chemscore.Lipo.Weighted>
-4.3735

> <Gold.Chemscore.Internal_Hbond.Weighted>
0.0000

> <Gold.Chemscore.DEClash.Weighted>
0.0411

> <Gold.Chemscore.DEInternal.Weighted>
0.2957

> <Gold.Chemscore.Rot.Weighted>
3.7577

> <Gold.Chemscore.Internal.Correction.Weighted>
   9.000000E+99

> <Gold.Protein.RotatedTorsions>
[ 6907 6896 6895 6894 ] final  138.31 input  -60.11 | X-H torsion
[ 7974 7965 7964 7962 ] final -124.07 input  175.53 | X-H torsion
[ 8008 7997 7996 7995 ] final   88.56 input   59.86 | X-H torsion
[ 10167 10162 10161 10158 ] final   15.32 input  -65.29 | X-H torsion
[ 10718 10713 10712 10709 ] final  -68.96 input   66.30 | X-H torsion
[ 10763 10752 10751 10750 ] final  130.17 input  -60.55 | X-H torsion
[ 11005 11000 10999 10996 ] final  -45.92 input  -57.11 | X-H torsion

> <Gold.Protein.ActiveResidues>
 VAL166  LYS551  ARG553  GLY616  TRP617  ASP618  TYR619  PRO620  LYS621  CYS622 
 ASP623  PHE694  ASN695  SER759  ASP760  ASP761  ALA762  ILE779  LEU786  VAL792 
 PHE793  MET794  SER795  GLU796  ALA797  LYS798  CYS799  TRP800  GLU811  SER814 

> <Gold.Protein.RotatedAtoms>
  152.2681  133.5357  159.5422 H   0  0  0  0  0  0  0  0  0  0  0  0  # atno 6907 bound_to 6896
  150.7149  134.0736  159.3882 H   0  0  0  0  0  0  0  0  0  0  0  0  # atno 6908 bound_to 6896
  151.8651  135.0510  160.0524 H   0  0  0  0  0  0  0  0  0  0  0  0  # atno 6909 bound_to 6896
  145.0120  140.7914  143.4433 H   0  0  0  0  0  0  0  0  0  0  0  0  # atno 7974 bound_to 7965
  155.9892  140.3370  155.6737 H   0  0  0  0  0  0  0  0  0  0  0  0  # atno 8008 bound_to 7997
  155.6443  140.0698  157.2626 H   0  0  0  0  0  0  0  0  0  0  0  0  # atno 8009 bound_to 7997
  154.4214  140.1737  156.1594 H   0  0  0  0  0  0  0  0  0  0  0  0  # atno 8010 bound_to 7997
  140.5875  143.8860  150.6844 H   0  0  0  0  0  0  0  0  0  0  0  0  # atno 10167 bound_to 10162
  156.0479  130.4304  150.2077 H   0  0  0  0  0  0  0  0  0  0  0  0  # atno 10718 bound_to 10713
  153.7536  135.3206  155.3325 H   0  0  0  0  0  0  0  0  0  0  0  0  # atno 10763 bound_to 10752
  154.8254  135.4573  154.0907 H   0  0  0  0  0  0  0  0  0  0  0  0  # atno 10764 bound_to 10752
  153.2117  135.6936  153.8189 H   0  0  0  0  0  0  0  0  0  0  0  0  # atno 10765 bound_to 10752
  141.0546  133.6730  156.3081 H   0  0  0  0  0  0  0  0  0  0  0  0  # atno 11005 bound_to 11000
  145.2010  139.2252  143.5192 LP  0  0  0  0  0  0  0  0  0  0  0  0  # atno 17320 bound_to 7965
  146.3471  140.1828  142.8589 LP  0  0  0  0  0  0  0  0  0  0  0  0  # atno 17321 bound_to 7965
  140.2375  143.3689  152.1514 LP  0  0  0  0  0  0  0  0  0  0  0  0  # atno 17342 bound_to 10162
  139.5207  144.7036  151.5421 LP  0  0  0  0  0  0  0  0  0  0  0  0  # atno 17343 bound_to 10162
  157.0164  130.9966  151.3352 LP  0  0  0  0  0  0  0  0  0  0  0  0  # atno 17370 bound_to 10713
  157.5375  130.8098  149.7989 LP  0  0  0  0  0  0  0  0  0  0  0  0  # atno 17371 bound_to 10713
  140.5989  134.5575  157.5514 LP  0  0  0  0  0  0  0  0  0  0  0  0  # atno 17394 bound_to 11000
  139.9379  134.7841  156.0754 LP  0  0  0  0  0  0  0  0  0  0  0  0  # atno 17395 bound_to 11000

$$$$
