AV-unprocessed.smi:2530|AV-procd|sdf|9962|dock9
  -GOLD-   2272014 03D 1   1.00000     0.00000
 Structure written by MMmdl.
 44 46  0  0  0  0  0  0  0  0  1 V2000
  151.0073  144.7160  158.6402 C   0  0  0  0  0  0  0  0  0  0  0  0
  151.7311  143.5172  159.2173 C   0  0  0  0  0  0  0  0  0  0  0  0
  152.5584  143.6623  160.3453 C   0  0  0  0  0  0  0  0  0  0  0  0
  153.2399  142.5467  160.8633 C   0  0  0  0  0  0  0  0  0  0  0  0
  153.1121  141.2759  160.2614 C   0  0  0  0  0  0  0  0  0  0  0  0
  153.8959  140.1225  160.8669 C   0  0  0  0  0  0  0  0  0  0  0  0
  152.2723  141.1212  159.1221 C   0  0  0  0  0  0  0  0  0  0  0  0
  152.0934  139.7959  158.3723 C   0  0  2  0  0  0  0  0  0  0  0  0
  153.2758  139.3243  157.7609 O   0  0  0  0  0  0  0  0  0  0  0  0
  150.9426  139.8048  157.3342 C   0  0  0  0  0  0  0  0  0  0  0  0
  150.8832  138.5689  156.5328 N   0  0  0  0  0  0  0  0  0  0  0  0
  150.6383  137.3681  157.2283 C   0  0  0  0  0  0  0  0  0  0  0  0
  150.6321  136.2219  156.6263 N   0  0  0  0  0  0  0  0  0  0  0  0
  150.8724  136.1558  155.2483 C   0  0  0  0  0  0  0  0  0  0  0  0
  150.8535  134.7952  154.5622 C   0  0  0  0  0  0  0  0  0  0  0  0
  149.4842  134.1880  154.2022 C   0  0  0  0  0  0  0  0  0  0  0  0
  150.0474  132.8324  154.6460 C   0  0  0  0  0  0  0  0  0  0  0  0
  151.0583  133.6018  155.5048 C   0  0  0  0  0  0  0  0  0  0  0  0
  151.0738  137.2867  154.5324 C   0  0  0  0  0  0  0  0  0  0  0  0
  151.0890  138.5960  155.1842 C   0  0  0  0  0  0  0  0  0  0  0  0
  151.2899  139.6417  154.5666 O   0  0  0  0  0  0  0  0  0  0  0  0
  151.5892  142.2517  158.6176 C   0  0  0  0  0  0  0  0  0  0  0  0
  150.8545  145.4840  159.3990 H   0  0  0  0  0  0  0  0  0  0  0  0
  150.0309  144.4270  158.2505 H   0  0  0  0  0  0  0  0  0  0  0  0
  151.5888  145.1478  157.8255 H   0  0  0  0  0  0  0  0  0  0  0  0
  152.6769  144.6284  160.8141 H   0  0  0  0  0  0  0  0  0  0  0  0
  153.8732  142.6759  161.7291 H   0  0  0  0  0  0  0  0  0  0  0  0
  153.2252  139.4244  161.3674 H   0  0  0  0  0  0  0  0  0  0  0  0
  154.6108  140.4788  161.6092 H   0  0  0  0  0  0  0  0  0  0  0  0
  154.4620  139.5844  160.1093 H   0  0  0  0  0  0  0  0  0  0  0  0
  151.8519  139.0371  159.1175 H   0  0  0  0  0  0  0  0  0  0  0  0
  153.3846  138.4127  157.9857 H   0  0  0  0  0  0  0  0  0  0  0  0
  149.9896  139.9772  157.8350 H   0  0  0  0  0  0  0  0  0  0  0  0
  151.0548  140.6664  156.6737 H   0  0  0  0  0  0  0  0  0  0  0  0
  150.4687  137.4710  158.3013 H   0  0  0  0  0  0  0  0  0  0  0  0
  151.5379  134.7557  153.7122 H   0  0  0  0  0  0  0  0  0  0  0  0
  148.6539  134.5065  154.8337 H   0  0  0  0  0  0  0  0  0  0  0  0
  149.2259  134.2461  153.1445 H   0  0  0  0  0  0  0  0  0  0  0  0
  149.3514  132.2093  155.2083 H   0  0  0  0  0  0  0  0  0  0  0  0
  150.5180  132.2810  153.8302 H   0  0  0  0  0  0  0  0  0  0  0  0
  152.0672  133.1884  155.5044 H   0  0  0  0  0  0  0  0  0  0  0  0
  150.6969  133.7836  156.5185 H   0  0  0  0  0  0  0  0  0  0  0  0
  151.2402  137.2284  153.4665 H   0  0  0  0  0  0  0  0  0  0  0  0
  150.9603  142.1532  157.7445 H   0  0  0  0  0  0  0  0  0  0  0  0
  1  2  1  0  0  0  0
  1 23  1  0  0  0  0
  1 24  1  0  0  0  0
  1 25  1  0  0  0  0
  2 22  1  0  0  0  0
  2  3  2  0  0  0  0
  3  4  1  0  0  0  0
  3 26  1  0  0  0  0
  4  5  2  0  0  0  0
  4 27  1  0  0  0  0
  5  6  1  0  0  0  0
  5  7  1  0  0  0  0
  6 28  1  0  0  0  0
  6 29  1  0  0  0  0
  6 30  1  0  0  0  0
  7  8  1  0  0  0  0
  7 22  2  0  0  0  0
  8  9  1  0  0  0  0
  8 10  1  0  0  0  0
  8 31  1  0  0  0  0
  9 32  1  0  0  0  0
 10 11  1  0  0  0  0
 10 33  1  0  0  0  0
 10 34  1  0  0  0  0
 11 20  1  0  0  0  0
 11 12  1  0  0  0  0
 12 13  2  0  0  0  0
 12 35  1  0  0  0  0
 13 14  1  0  0  0  0
 14 15  1  0  0  0  0
 14 19  2  0  0  0  0
 15 18  1  0  0  0  0
 15 16  1  0  0  0  0
 15 36  1  0  0  0  0
 16 17  1  0  0  0  0
 16 37  1  0  0  0  0
 16 38  1  0  0  0  0
 17 18  1  0  0  0  0
 17 39  1  0  0  0  0
 17 40  1  0  0  0  0
 18 41  1  0  0  0  0
 18 42  1  0  0  0  0
 19 20  1  0  0  0  0
 19 43  1  0  0  0  0
 20 21  2  0  0  0  0
 22 44  1  0  0  0  0
M  END
> <s_m_source_file>
AV-unprocessed.smi

> <i_m_source_file_index>
2530

> <i_lp_mmshare_version>
43012

> <i_f3d_flags>
0

> <s_epik_input>
W0NIM11jMVtjSF1bY0hdYyhbQ0gzXSljKFtjSF0xKVtDQEhdKFtPSF0pW0NIMl1uMltjSF1uYyhbY0hdYzI9TylbQ0hdM1tDSDJdW0NIMl1bQ0gyXTM=

> <s_epik_cmdline>
J2VwaWtfcHl0aG9uJywgJy1waCcsICc3LjAnLCAnLXRuJywgJzgnLCAnLW1hJywgJzIwMCcsICctbWV0YWxfYmluZGluZycsICctaW1hZScsICc8aW5maWxlLm1hZT4nLCAnLW9tYWUnLCAnPG91dGZpbGUubWFlPic=

> <r_lp_tautomer_probability>
1

> <r_epik_Ionization_Penalty>
2.57341e-05

> <r_epik_Ionization_Penalty_Charging>
5.39435e-08

> <r_epik_Ionization_Penalty_Neutral>
2.56801e-05

> <r_epik_State_Penalty>
-0

> <r_epik_Charging_Adjusted_Penalty>
5.39435e-08

> <i_epik_Tot_Q>
0

> <i_epik_Tot_abs_Q>
0

> <r_epik_Metal_State_Penalty>
-0

> <b_epik_Metal_Only>
0

> <s_lp_Force_Field>
OPLS_2005

> <r_lp_Energy>
27.4041

> <b_lp_Chiralities_Consistent>
1

> <s_lp_Variant>
AV-unprocessed.smi:2530-1

> <Gold.Version>
5.8.1

> <Gold.Id.Protein>
6NUR|6NUR_protein|mol2

> <Gold.PLP.Fitness>
48.5556

> <Gold.PLP.PLP>
-43.7070

> <Gold.PLP.part.hbond>
-2.0000

> <Gold.PLP.part.metal>
0.0000

> <Gold.PLP.part.buried>
-5.7073

> <Gold.PLP.part.nonpolar>
-35.8832

> <Gold.PLP.part.repulsive>
0.1027

> <Gold.PLP.ligand.clash>
0.0000

> <Gold.PLP.ligand.torsion>
0.7917

> <Gold.PLP.Chemscore.Hbond>
2.0000

> <Gold.PLP.Chemscore.CHOScore>
0.0000

> <Gold.PLP.Chemscore.Metal>
0.0000

> <Gold.Chemscore.Hbonds>
donor molecule, donor type, donor heavy atom, donor atom, acceptor molecule, acceptor atom, score
      P1  H  7989  7998       L1    21  1.00
      P1  H  7997  8010       L1     9  1.00

> <Gold.PLP.Chemscore.Internal.Correction>
0.4319

> <Gold.Rescore>
     Score         DG    S(hbond)    S(metal)    S(lipo)     H(rot)  DE(clash)    DE(int)     intcor
     21.27     -22.16       1.99        0.00     128.82       1.97       0.06       0.84       ----

> <Gold.Chemscore.Fitness>
21.2662

> <Gold.Chemscore.DG>
-22.1585

> <Gold.Chemscore.ZeroCoef>
-5.4800

> <Gold.Chemscore.Hbond>
1.9896

> <Gold.Chemscore.Metal>
0.0000

> <Gold.Chemscore.Lipo>
128.8229

> <Gold.Chemscore.Internal_Hbond>
0.0000

> <Gold.Chemscore.DEClash>
0.0562

> <Gold.Chemscore.DEInternal>
0.8361

> <Gold.Chemscore.Rot>
1.9684

> <Gold.Chemscore.Internal.Correction>
   9.000000E+99

> <Gold.Chemscore.Hbonds>
donor molecule, donor type, donor heavy atom, donor atom, acceptor molecule, acceptor atom, score
      P1  H  7989  7998       L1    21  1.00
      P1  H  7997  8010       L1     9  0.88

> <Gold.Chemscore.Hbond.Weighted>
-6.6454

> <Gold.Chemscore.Metal.Weighted>
-0.0000

> <Gold.Chemscore.Lipo.Weighted>
-15.0723

> <Gold.Chemscore.Internal_Hbond.Weighted>
0.0000

> <Gold.Chemscore.DEClash.Weighted>
0.0562

> <Gold.Chemscore.DEInternal.Weighted>
0.8361

> <Gold.Chemscore.Rot.Weighted>
5.0391

> <Gold.Chemscore.Internal.Correction.Weighted>
   9.000000E+99

> <Gold.Protein.RotatedTorsions>
[ 6907 6896 6895 6894 ] final  -33.26 input  -60.11 | X-H torsion
[ 7974 7965 7964 7962 ] final  166.87 input  175.53 | X-H torsion
[ 8008 7997 7996 7995 ] final   30.52 input   59.86 | X-H torsion
[ 10167 10162 10161 10158 ] final  -81.07 input  -65.29 | X-H torsion
[ 10718 10713 10712 10709 ] final   26.28 input   66.30 | X-H torsion
[ 10763 10752 10751 10750 ] final  -39.02 input  -60.55 | X-H torsion
[ 11005 11000 10999 10996 ] final  139.57 input  -57.11 | X-H torsion

> <Gold.Protein.ActiveResidues>
 VAL166  LYS551  ARG553  GLY616  TRP617  ASP618  TYR619  PRO620  LYS621  CYS622 
 ASP623  PHE694  ASN695  SER759  ASP760  ASP761  ALA762  ILE779  LEU786  VAL792 
 PHE793  MET794  SER795  GLU796  ALA797  LYS798  CYS799  TRP800  GLU811  SER814 

> <Gold.Protein.RotatedAtoms>
  151.0679  134.9779  159.8293 H   0  0  0  0  0  0  0  0  0  0  0  0  # atno 6907 bound_to 6896
  152.5404  134.2335  159.8844 H   0  0  0  0  0  0  0  0  0  0  0  0  # atno 6908 bound_to 6896
  151.2359  133.4382  159.2639 H   0  0  0  0  0  0  0  0  0  0  0  0  # atno 6909 bound_to 6896
  144.7446  139.8678  143.6386 H   0  0  0  0  0  0  0  0  0  0  0  0  # atno 7974 bound_to 7965
  155.0917  140.3220  155.4572 H   0  0  0  0  0  0  0  0  0  0  0  0  # atno 8008 bound_to 7997
  156.2741  140.2076  156.5991 H   0  0  0  0  0  0  0  0  0  0  0  0  # atno 8009 bound_to 7997
  154.6898  140.0517  157.0339 H   0  0  0  0  0  0  0  0  0  0  0  0  # atno 8010 bound_to 7997
  140.4446  143.2503  151.8577 H   0  0  0  0  0  0  0  0  0  0  0  0  # atno 10167 bound_to 10162
  157.2047  130.6906  149.6203 H   0  0  0  0  0  0  0  0  0  0  0  0  # atno 10718 bound_to 10713
  153.9225  135.6781  153.4747 H   0  0  0  0  0  0  0  0  0  0  0  0  # atno 10763 bound_to 10752
  153.1021  135.4823  154.8883 H   0  0  0  0  0  0  0  0  0  0  0  0  # atno 10764 bound_to 10752
  154.7471  135.3175  154.8582 H   0  0  0  0  0  0  0  0  0  0  0  0  # atno 10765 bound_to 10752
  140.0264  134.9373  157.0577 H   0  0  0  0  0  0  0  0  0  0  0  0  # atno 11005 bound_to 11000
  146.1302  139.4336  143.0173 LP  0  0  0  0  0  0  0  0  0  0  0  0  # atno 17320 bound_to 7965
  145.7175  141.0086  143.1420 LP  0  0  0  0  0  0  0  0  0  0  0  0  # atno 17321 bound_to 7965
  139.4792  144.5190  151.8827 LP  0  0  0  0  0  0  0  0  0  0  0  0  # atno 17342 bound_to 10162
  140.4279  144.2156  150.5887 LP  0  0  0  0  0  0  0  0  0  0  0  0  # atno 17343 bound_to 10162
  155.9697  130.4571  150.5950 LP  0  0  0  0  0  0  0  0  0  0  0  0  # atno 17370 bound_to 10713
  157.3732  131.0769  151.1540 LP  0  0  0  0  0  0  0  0  0  0  0  0  # atno 17371 bound_to 10713
  140.4299  134.1791  155.7167 LP  0  0  0  0  0  0  0  0  0  0  0  0  # atno 17394 bound_to 11000
  141.1805  133.8424  157.1274 LP  0  0  0  0  0  0  0  0  0  0  0  0  # atno 17395 bound_to 11000

$$$$
