AV-unprocessed.smi:2926|AV-procd|sdf|11226|dock1
  -GOLD-   2272016113D 1   1.00000     0.00000
 Structure written by MMmdl.
 32 32  0  0  0  0  0  0  0  0  1 V2000
  145.7981  140.2415  155.0417 C   0  0  0  0  0  0  0  0  0  0  0  0
  147.2456  140.2038  154.5116 C   0  0  0  0  0  0  0  0  0  0  0  0
  147.5599  141.5553  153.8422 C   0  0  0  0  0  0  0  0  0  0  0  0
  147.4861  138.9913  153.5691 C   0  0  1  0  0  0  0  0  0  0  0  0
  146.8107  139.1231  152.1865 C   0  0  0  0  0  0  0  0  0  0  0  0
  147.3782  138.2062  151.2747 O   0  0  0  0  0  0  0  0  0  0  0  0
  148.9303  138.8399  153.3481 N   0  0  0  0  0  0  0  0  0  0  0  0
  149.9882  138.8499  154.7120 S   0  0  0  0  0  0  0  0  0  0  0  0
  150.7847  140.0857  154.6561 O   0  0  0  0  0  0  0  0  0  0  0  0
  149.1805  138.5495  155.9040 O   0  0  0  0  0  0  0  0  0  0  0  0
  151.0999  137.4235  154.3607 C   0  0  0  0  0  0  0  0  0  0  0  0
  150.9006  136.3577  155.4010 C   0  0  0  0  0  0  0  0  0  0  0  0
  149.7161  135.6332  155.7111 C   0  0  0  0  0  0  0  0  0  0  0  0
  150.1053  134.8037  156.7229 C   0  0  0  0  0  0  0  0  0  0  0  0
  151.4175  134.9915  157.0132 O   0  0  0  0  0  0  0  0  0  0  0  0
  151.9170  135.9842  156.1626 N   0  0  0  0  0  0  0  0  0  0  0  0
  147.0988  138.0994  154.0648 H   0  0  0  0  0  0  0  0  0  0  0  0
  145.0795  140.3050  154.2239 H   0  0  0  0  0  0  0  0  0  0  0  0
  145.6381  141.1034  155.6902 H   0  0  0  0  0  0  0  0  0  0  0  0
  145.5549  139.3562  155.6296 H   0  0  0  0  0  0  0  0  0  0  0  0
  147.9072  140.1043  155.3734 H   0  0  0  0  0  0  0  0  0  0  0  0
  147.0093  141.6718  152.9082 H   0  0  0  0  0  0  0  0  0  0  0  0
  148.6210  141.6722  153.6267 H   0  0  0  0  0  0  0  0  0  0  0  0
  147.2857  142.3872  154.4916 H   0  0  0  0  0  0  0  0  0  0  0  0
  145.7506  138.8824  152.2320 H   0  0  0  0  0  0  0  0  0  0  0  0
  146.8906  140.1386  151.7968 H   0  0  0  0  0  0  0  0  0  0  0  0
  147.5056  137.3809  151.7168 H   0  0  0  0  0  0  0  0  0  0  0  0
  149.1222  138.0416  152.7433 H   0  0  0  0  0  0  0  0  0  0  0  0
  150.8737  137.0455  153.3642 H   0  0  0  0  0  0  0  0  0  0  0  0
  152.1279  137.7875  154.3543 H   0  0  0  0  0  0  0  0  0  0  0  0
  148.7358  135.7139  155.2652 H   0  0  0  0  0  0  0  0  0  0  0  0
  149.5909  134.0583  157.3110 H   0  0  0  0  0  0  0  0  0  0  0  0
  1  2  1  0  0  0  0
  1 18  1  0  0  0  0
  1 19  1  0  0  0  0
  1 20  1  0  0  0  0
  2  3  1  0  0  0  0
  2  4  1  0  0  0  0
  2 21  1  0  0  0  0
  3 22  1  0  0  0  0
  3 23  1  0  0  0  0
  3 24  1  0  0  0  0
  4 17  1  0  0  0  0
  4  5  1  0  0  0  0
  4  7  1  0  0  0  0
  5  6  1  0  0  0  0
  5 25  1  0  0  0  0
  5 26  1  0  0  0  0
  6 27  1  0  0  0  0
  7  8  1  0  0  0  0
  7 28  1  0  0  0  0
  8  9  2  0  0  0  0
  8 10  2  0  0  0  0
  8 11  1  0  0  0  0
 11 12  1  0  0  0  0
 11 29  1  0  0  0  0
 11 30  1  0  0  0  0
 12 16  2  0  0  0  0
 12 13  1  0  0  0  0
 13 14  2  0  0  0  0
 13 31  1  0  0  0  0
 14 15  1  0  0  0  0
 14 32  1  0  0  0  0
 15 16  1  0  0  0  0
M  END
> <s_m_source_file>
AV-unprocessed.smi

> <i_m_source_file_index>
2926

> <i_lp_mmshare_version>
43012

> <i_f3d_flags>
0

> <s_epik_input>
W0NIM11bQ0hdKFtDSDNdKVtDQEBIXShbQ0gyXVtPSF0pW05IXVMoPU8pKD1PKVtDSDJdYzFbY0hdW2NIXW9uMQ==

> <s_epik_cmdline>
J2VwaWtfcHl0aG9uJywgJy1waCcsICc3LjAnLCAnLXRuJywgJzgnLCAnLW1hJywgJzIwMCcsICctbWV0YWxfYmluZGluZycsICctaW1hZScsICc8aW5maWxlLm1hZT4nLCAnLW9tYWUnLCAnPG91dGZpbGUubWFlPic=

> <r_lp_tautomer_probability>
1

> <r_epik_Ionization_Penalty>
0.000193122

> <r_epik_Ionization_Penalty_Charging>
0

> <r_epik_Ionization_Penalty_Neutral>
0.000193122

> <r_epik_State_Penalty>
-0

> <r_epik_Charging_Adjusted_Penalty>
0

> <i_epik_Tot_Q>
0

> <i_epik_Tot_abs_Q>
0

> <r_epik_Metal_State_Penalty>
0.130256

> <b_epik_Metal_Only>
0

> <s_lp_Force_Field>
OPLS_2005

> <r_lp_Energy>
6.6882

> <b_lp_Chiralities_Consistent>
1

> <s_lp_Variant>
AV-unprocessed.smi:2926-1

> <Gold.Version>
5.8.1

> <Gold.Id.Protein>
6NUR|6NUR_protein|mol2

> <Gold.PLP.Fitness>
41.5684

> <Gold.PLP.PLP>
-28.6904

> <Gold.PLP.part.hbond>
-7.9003

> <Gold.PLP.part.metal>
0.0000

> <Gold.PLP.part.buried>
-3.8997

> <Gold.PLP.part.nonpolar>
-17.4151

> <Gold.PLP.part.repulsive>
0.1073

> <Gold.PLP.ligand.clash>
0.0000

> <Gold.PLP.ligand.torsion>
0.6454

> <Gold.PLP.Chemscore.Hbond>
4.6560

> <Gold.PLP.Chemscore.CHOScore>
0.0000

> <Gold.PLP.Chemscore.Metal>
0.0000

> <Gold.Chemscore.Hbonds>
donor molecule, donor type, donor heavy atom, donor atom, acceptor molecule, acceptor atom, score
      L1  H     6    27       P1  7948  0.64
      L1  H     7    28       P1  7948  1.00
      P1  H  7954  7966       L1     6  0.95
      P1  H  7989  7998       L1     9  1.00
      P1  H 10752 10765       L1    16  1.00

> <Gold.PLP.Chemscore.Internal.Correction>
0.2007

> <Gold.Rescore>
     Score         DG    S(hbond)    S(metal)    S(lipo)     H(rot)  DE(clash)    DE(int)     intcor
     14.65     -17.48       4.10        0.00      50.09       2.96       0.11       2.71       ----

> <Gold.Chemscore.Fitness>
14.6499

> <Gold.Chemscore.DG>
-17.4781

> <Gold.Chemscore.ZeroCoef>
-5.4800

> <Gold.Chemscore.Hbond>
4.1037

> <Gold.Chemscore.Metal>
0.0000

> <Gold.Chemscore.Lipo>
50.0878

> <Gold.Chemscore.Internal_Hbond>
0.0000

> <Gold.Chemscore.DEClash>
0.1141

> <Gold.Chemscore.DEInternal>
2.7141

> <Gold.Chemscore.Rot>
2.9564

> <Gold.Chemscore.Internal.Correction>
   9.000000E+99

> <Gold.Chemscore.Hbonds>
donor molecule, donor type, donor heavy atom, donor atom, acceptor molecule, acceptor atom, score
      L1  H     6    27       P1  7948  0.64
      L1  H     7    28       P1  7948  0.96
      P1  H  7954  7966       L1     6  0.21
      P1  H  7989  7998       L1     9  1.00
      P1  H 10752 10765       L1    16  0.63

> <Gold.Chemscore.Hbond.Weighted>
-13.7063

> <Gold.Chemscore.Metal.Weighted>
-0.0000

> <Gold.Chemscore.Lipo.Weighted>
-5.8603

> <Gold.Chemscore.Internal_Hbond.Weighted>
0.0000

> <Gold.Chemscore.DEClash.Weighted>
0.1141

> <Gold.Chemscore.DEInternal.Weighted>
2.7141

> <Gold.Chemscore.Rot.Weighted>
7.5685

> <Gold.Chemscore.Internal.Correction.Weighted>
   9.000000E+99

> <Gold.Protein.RotatedTorsions>
[ 6907 6896 6895 6894 ] final  -26.99 input  -60.11 | X-H torsion
[ 7974 7965 7964 7962 ] final  142.32 input  175.53 | X-H torsion
[ 8008 7997 7996 7995 ] final   43.88 input   59.86 | X-H torsion
[ 10167 10162 10161 10158 ] final  126.71 input  -65.29 | X-H torsion
[ 10718 10713 10712 10709 ] final  -34.24 input   66.30 | X-H torsion
[ 10763 10752 10751 10750 ] final -140.53 input  -60.55 | X-H torsion
[ 11005 11000 10999 10996 ] final  -28.19 input  -57.11 | X-H torsion

> <Gold.Protein.ActiveResidues>
 VAL166  LYS551  ARG553  GLY616  TRP617  ASP618  TYR619  PRO620  LYS621  CYS622 
 ASP623  PHE694  ASN695  SER759  ASP760  ASP761  ALA762  ILE779  LEU786  VAL792 
 PHE793  MET794  SER795  GLU796  ALA797  LYS798  CYS799  TRP800  GLU811  SER814 

> <Gold.Protein.RotatedAtoms>
  151.1531  135.0237  159.8676 H   0  0  0  0  0  0  0  0  0  0  0  0  # atno 6907 bound_to 6896
  152.5452  134.1365  159.8471 H   0  0  0  0  0  0  0  0  0  0  0  0  # atno 6908 bound_to 6896
  151.1452  133.4898  159.2629 H   0  0  0  0  0  0  0  0  0  0  0  0  # atno 6909 bound_to 6896
  144.9018  139.5412  143.5750 H   0  0  0  0  0  0  0  0  0  0  0  0  # atno 7974 bound_to 7965
  155.3101  140.3390  155.4244 H   0  0  0  0  0  0  0  0  0  0  0  0  # atno 8008 bound_to 7997
  156.1959  140.1715  156.8036 H   0  0  0  0  0  0  0  0  0  0  0  0  # atno 8009 bound_to 7997
  154.5499  140.0708  156.8634 H   0  0  0  0  0  0  0  0  0  0  0  0  # atno 8010 bound_to 7997
  139.5616  144.6885  151.4026 H   0  0  0  0  0  0  0  0  0  0  0  0  # atno 10167 bound_to 10162
  156.3530  130.4311  149.7688 H   0  0  0  0  0  0  0  0  0  0  0  0  # atno 10718 bound_to 10713
  154.8575  135.3550  154.5722 H   0  0  0  0  0  0  0  0  0  0  0  0  # atno 10763 bound_to 10752
  153.6334  135.7001  153.5272 H   0  0  0  0  0  0  0  0  0  0  0  0  # atno 10764 bound_to 10752
  153.3030  135.4201  155.1229 H   0  0  0  0  0  0  0  0  0  0  0  0  # atno 10765 bound_to 10752
  140.9186  133.7414  156.0769 H   0  0  0  0  0  0  0  0  0  0  0  0  # atno 11005 bound_to 11000
  146.3112  139.7754  142.9018 LP  0  0  0  0  0  0  0  0  0  0  0  0  # atno 17320 bound_to 7965
  145.3603  141.0324  143.3288 LP  0  0  0  0  0  0  0  0  0  0  0  0  # atno 17321 bound_to 7965
  140.6897  143.7891  150.7237 LP  0  0  0  0  0  0  0  0  0  0  0  0  # atno 17342 bound_to 10162
  140.1370  143.4475  152.2218 LP  0  0  0  0  0  0  0  0  0  0  0  0  # atno 17343 bound_to 10162
  156.4881  130.8072  151.3083 LP  0  0  0  0  0  0  0  0  0  0  0  0  # atno 17370 bound_to 10713
  157.7463  130.9984  150.2851 LP  0  0  0  0  0  0  0  0  0  0  0  0  # atno 17371 bound_to 10713
  140.8017  134.3501  157.5437 LP  0  0  0  0  0  0  0  0  0  0  0  0  # atno 17394 bound_to 11000
  139.8771  134.9202  156.3245 LP  0  0  0  0  0  0  0  0  0  0  0  0  # atno 17395 bound_to 11000

$$$$
