AV-unprocessed.smi:2322|AV-procd|sdf|9285|dock5
  -GOLD-   2272012513D 1   1.00000     0.00000
 Structure written by MMmdl.
 38 40  0  0  0  0  0  0  0  0  1 V2000
  146.9984  133.2377  151.7238 C   0  0  0  0  0  0  0  0  0  0  0  0
  145.7203  133.9168  151.8147 N   0  0  0  0  0  0  0  0  0  0  0  0
  144.5690  133.2747  151.5068 N   0  0  0  0  0  0  0  0  0  0  0  0
  143.6457  134.2129  151.7129 C   0  0  0  0  0  0  0  0  0  0  0  0
  144.1098  135.4257  152.1359 N   0  0  0  0  0  0  0  0  0  0  0  0
  145.4143  135.1666  152.1776 C   0  0  0  0  0  0  0  0  0  0  0  0
  146.4562  136.0650  152.5558 N   0  0  0  0  0  0  0  0  0  0  0  0
  146.4157  137.2658  153.1703 C   0  0  0  0  0  0  0  0  0  0  0  0
  145.3456  137.7683  153.5090 O   0  0  0  0  0  0  0  0  0  0  0  0
  147.5995  137.8631  153.3844 N   0  0  0  0  0  0  0  0  0  0  0  0
  147.7928  139.1546  154.0354 C   0  0  2  0  0  0  0  0  0  0  0  0
  147.1271  140.2585  153.2032 C   0  0  0  0  0  0  0  0  0  0  0  0
  147.4215  141.6422  153.8018 C   0  0  0  0  0  0  0  0  0  0  0  0
  148.8285  141.8513  153.9013 O   0  0  0  0  0  0  0  0  0  0  0  0
  149.5299  140.9022  154.7063 C   0  0  1  0  0  0  0  0  0  0  0  0
  149.2127  141.0701  156.1860 C   0  0  0  0  0  0  0  0  0  0  0  0
  150.0095  142.0293  157.0379 C   0  0  0  0  0  0  0  0  0  0  0  0
  150.1531  140.5397  157.2430 C   0  0  0  0  0  0  0  0  0  0  0  0
  149.2914  139.4698  154.1888 C   0  0  0  0  0  0  0  0  0  0  0  0
  147.4266  133.1292  152.7205 H   0  0  0  0  0  0  0  0  0  0  0  0
  147.6804  133.8196  151.1035 H   0  0  0  0  0  0  0  0  0  0  0  0
  146.8769  132.2483  151.2804 H   0  0  0  0  0  0  0  0  0  0  0  0
  142.5959  134.0156  151.5525 H   0  0  0  0  0  0  0  0  0  0  0  0
  147.3843  135.7531  152.3096 H   0  0  0  0  0  0  0  0  0  0  0  0
  148.4311  137.3805  153.0735 H   0  0  0  0  0  0  0  0  0  0  0  0
  147.3210  139.1323  155.0192 H   0  0  0  0  0  0  0  0  0  0  0  0
  147.4978  140.2257  152.1775 H   0  0  0  0  0  0  0  0  0  0  0  0
  146.0500  140.0957  153.1515 H   0  0  0  0  0  0  0  0  0  0  0  0
  147.0018  142.4186  153.1621 H   0  0  0  0  0  0  0  0  0  0  0  0
  146.9453  141.7544  154.7759 H   0  0  0  0  0  0  0  0  0  0  0  0
  150.5898  141.1264  154.5791 H   0  0  0  0  0  0  0  0  0  0  0  0
  148.1548  141.0006  156.4296 H   0  0  0  0  0  0  0  0  0  0  0  0
  150.8391  142.5542  156.5682 H   0  0  0  0  0  0  0  0  0  0  0  0
  149.4702  142.5929  157.7962 H   0  0  0  0  0  0  0  0  0  0  0  0
  149.7087  140.1090  158.1379 H   0  0  0  0  0  0  0  0  0  0  0  0
  151.0794  140.0742  156.9122 H   0  0  0  0  0  0  0  0  0  0  0  0
  149.7710  138.7473  154.8504 H   0  0  0  0  0  0  0  0  0  0  0  0
  149.7795  139.3657  153.2186 H   0  0  0  0  0  0  0  0  0  0  0  0
  1  2  1  0  0  0  0
  1 20  1  0  0  0  0
  1 21  1  0  0  0  0
  1 22  1  0  0  0  0
  2  6  1  0  0  0  0
  2  3  1  0  0  0  0
  3  4  2  0  0  0  0
  4  5  1  0  0  0  0
  4 23  1  0  0  0  0
  5  6  2  0  0  0  0
  6  7  1  0  0  0  0
  7  8  1  0  0  0  0
  7 24  1  0  0  0  0
  8  9  2  0  0  0  0
  8 10  1  0  0  0  0
 10 11  1  0  0  0  0
 10 25  1  0  0  0  0
 11 19  1  0  0  0  0
 11 12  1  0  0  0  0
 11 26  1  0  0  0  0
 12 13  1  0  0  0  0
 12 27  1  0  0  0  0
 12 28  1  0  0  0  0
 13 14  1  0  0  0  0
 13 29  1  0  0  0  0
 13 30  1  0  0  0  0
 14 15  1  0  0  0  0
 15 16  1  0  0  0  0
 15 19  1  0  0  0  0
 15 31  1  0  0  0  0
 16 18  1  0  0  0  0
 16 17  1  0  0  0  0
 16 32  1  0  0  0  0
 17 18  1  0  0  0  0
 17 33  1  0  0  0  0
 17 34  1  0  0  0  0
 18 35  1  0  0  0  0
 18 36  1  0  0  0  0
 19 37  1  0  0  0  0
 19 38  1  0  0  0  0
M  END
> <s_m_source_file>
AV-unprocessed.smi

> <i_m_source_file_index>
2322

> <i_lp_mmshare_version>
43012

> <i_f3d_flags>
0

> <s_epik_input>
W0NIM11uMW5bY0hdbmMxW05IXUMoPU8pW05IXVtDQEBIXTJbQ0gyXVtDSDJdT1tDQEhdKFtDSDJdMilbQ0hdM1tDSDJdW0NIMl0z

> <s_epik_cmdline>
J2VwaWtfcHl0aG9uJywgJy1waCcsICc3LjAnLCAnLXRuJywgJzgnLCAnLW1hJywgJzIwMCcsICctbWV0YWxfYmluZGluZycsICctaW1hZScsICc8aW5maWxlLm1hZT4nLCAnLW9tYWUnLCAnPG91dGZpbGUubWFlPic=

> <r_lp_tautomer_probability>
1

> <r_epik_Ionization_Penalty>
2.16399e-05

> <r_epik_Ionization_Penalty_Charging>
0

> <r_epik_Ionization_Penalty_Neutral>
2.16399e-05

> <r_epik_State_Penalty>
-0

> <r_epik_Charging_Adjusted_Penalty>
0

> <i_epik_Tot_Q>
0

> <i_epik_Tot_abs_Q>
0

> <r_epik_Metal_State_Penalty>
-0

> <b_epik_Metal_Only>
0

> <s_lp_Force_Field>
OPLS_2005

> <r_lp_Energy>
22.5256

> <b_lp_Chiralities_Consistent>
1

> <s_lp_Variant>
AV-unprocessed.smi:2322-1

> <Gold.Version>
5.8.1

> <Gold.Id.Protein>
6NUR|6NUR_protein|mol2

> <Gold.PLP.Fitness>
37.6504

> <Gold.PLP.PLP>
-28.1242

> <Gold.PLP.part.hbond>
-3.0000

> <Gold.PLP.part.metal>
0.0000

> <Gold.PLP.part.buried>
-1.9951

> <Gold.PLP.part.nonpolar>
-23.1087

> <Gold.PLP.part.repulsive>
0.6688

> <Gold.PLP.ligand.clash>
0.0000

> <Gold.PLP.ligand.torsion>
0.6005

> <Gold.PLP.Chemscore.Hbond>
2.3200

> <Gold.PLP.Chemscore.CHOScore>
0.8966

> <Gold.PLP.Chemscore.Metal>
0.0000

> <Gold.Chemscore.Hbonds>
donor molecule, donor type, donor heavy atom, donor atom, acceptor molecule, acceptor atom, score
      L1  H     7    24       P1  7948  0.93
      L1  H    10    25       P1  7948  0.82
      P1  H  8011  8017       L1    14  0.51
      L1  C     4    23       P1 10186  0.76

> <Gold.PLP.Chemscore.Internal.Correction>
1.0775

> <Gold.Rescore>
     Score         DG    S(hbond)    S(metal)    S(lipo)     H(rot)  DE(clash)    DE(int)     intcor
     14.73     -16.54       2.40        0.00      54.58       1.31       0.12       1.68       ----

> <Gold.Chemscore.Fitness>
14.7344

> <Gold.Chemscore.DG>
-16.5415

> <Gold.Chemscore.ZeroCoef>
-5.4800

> <Gold.Chemscore.Hbond>
2.4018

> <Gold.Chemscore.Metal>
0.0000

> <Gold.Chemscore.Lipo>
54.5816

> <Gold.Chemscore.Internal_Hbond>
0.0000

> <Gold.Chemscore.DEClash>
0.1231

> <Gold.Chemscore.DEInternal>
1.6839

> <Gold.Chemscore.Rot>
1.3072

> <Gold.Chemscore.Internal.Correction>
   9.000000E+99

> <Gold.Chemscore.Hbonds>
donor molecule, donor type, donor heavy atom, donor atom, acceptor molecule, acceptor atom, score
      L1  H     7    24       P1  7948  0.91
      L1  H    10    25       P1  7948  0.81
      P1  H  8011  8017       L1    14  0.45

> <Gold.Chemscore.Hbond.Weighted>
-8.0219

> <Gold.Chemscore.Metal.Weighted>
-0.0000

> <Gold.Chemscore.Lipo.Weighted>
-6.3860

> <Gold.Chemscore.Internal_Hbond.Weighted>
0.0000

> <Gold.Chemscore.DEClash.Weighted>
0.1231

> <Gold.Chemscore.DEInternal.Weighted>
1.6839

> <Gold.Chemscore.Rot.Weighted>
3.3464

> <Gold.Chemscore.Internal.Correction.Weighted>
   9.000000E+99

> <Gold.Protein.RotatedTorsions>
[ 6907 6896 6895 6894 ] final  -28.80 input  -60.11 | X-H torsion
[ 7974 7965 7964 7962 ] final -132.26 input  175.53 | X-H torsion
[ 8008 7997 7996 7995 ] final  101.71 input   59.86 | X-H torsion
[ 10167 10162 10161 10158 ] final   90.17 input  -65.29 | X-H torsion
[ 10718 10713 10712 10709 ] final   19.06 input   66.30 | X-H torsion
[ 10763 10752 10751 10750 ] final   98.93 input  -60.55 | X-H torsion
[ 11005 11000 10999 10996 ] final  -70.10 input  -57.11 | X-H torsion

> <Gold.Protein.ActiveResidues>
 VAL166  LYS551  ARG553  GLY616  TRP617  ASP618  TYR619  PRO620  LYS621  CYS622 
 ASP623  PHE694  ASN695  SER759  ASP760  ASP761  ALA762  ILE779  LEU786  VAL792 
 PHE793  MET794  SER795  GLU796  ALA797  LYS798  CYS799  TRP800  GLU811  SER814 

> <Gold.Protein.RotatedAtoms>
  151.1279  135.0114  159.8568 H   0  0  0  0  0  0  0  0  0  0  0  0  # atno 6907 bound_to 6896
  152.5450  134.1645  159.8581 H   0  0  0  0  0  0  0  0  0  0  0  0  # atno 6908 bound_to 6896
  151.1709  133.4740  159.2627 H   0  0  0  0  0  0  0  0  0  0  0  0  # atno 6909 bound_to 6896
  144.9302  140.7119  143.4910 H   0  0  0  0  0  0  0  0  0  0  0  0  # atno 7974 bound_to 7965
  156.1325  140.3193  155.8370 H   0  0  0  0  0  0  0  0  0  0  0  0  # atno 8008 bound_to 7997
  155.4306  140.0518  157.3036 H   0  0  0  0  0  0  0  0  0  0  0  0  # atno 8009 bound_to 7997
  154.4910  140.2092  155.9561 H   0  0  0  0  0  0  0  0  0  0  0  0  # atno 8010 bound_to 7997
  139.8500  144.6598  150.9181 H   0  0  0  0  0  0  0  0  0  0  0  0  # atno 10167 bound_to 10162
  157.1052  130.6485  149.5883 H   0  0  0  0  0  0  0  0  0  0  0  0  # atno 10718 bound_to 10713
  153.2951  135.4131  155.1202 H   0  0  0  0  0  0  0  0  0  0  0  0  # atno 10763 bound_to 10752
  154.8532  135.3528  154.5928 H   0  0  0  0  0  0  0  0  0  0  0  0  # atno 10764 bound_to 10752
  153.6351  135.7059  153.5319 H   0  0  0  0  0  0  0  0  0  0  0  0  # atno 10765 bound_to 10752
  141.1567  133.6781  156.6701 H   0  0  0  0  0  0  0  0  0  0  0  0  # atno 11005 bound_to 11000
  145.3154  139.1805  143.4616 LP  0  0  0  0  0  0  0  0  0  0  0  0  # atno 17320 bound_to 7965
  146.3244  140.3164  142.8630 LP  0  0  0  0  0  0  0  0  0  0  0  0  # atno 17321 bound_to 7965
  140.7788  143.3836  151.1433 LP  0  0  0  0  0  0  0  0  0  0  0  0  # atno 17342 bound_to 10162
  139.7475  143.8830  152.3067 LP  0  0  0  0  0  0  0  0  0  0  0  0  # atno 17343 bound_to 10162
  155.9864  130.4898  150.7076 LP  0  0  0  0  0  0  0  0  0  0  0  0  # atno 17370 bound_to 10713
  157.4607  131.0883  151.0749 LP  0  0  0  0  0  0  0  0  0  0  0  0  # atno 17371 bound_to 10713
  140.3181  134.8030  157.4230 LP  0  0  0  0  0  0  0  0  0  0  0  0  # atno 17394 bound_to 11000
  140.1120  134.5332  155.8257 LP  0  0  0  0  0  0  0  0  0  0  0  0  # atno 17395 bound_to 11000

$$$$
