AV-unprocessed.smi:1334|AV-procd|sdf|5493|dock6
  -GOLD-   22720 5 73D 1   1.00000     0.00000
 Structure written by MMmdl.
 38 39  0  0  0  0  0  0  0  0  1 V2000
  146.9405  142.1256  154.5890 C   0  0  0  0  0  0  0  0  0  0  0  0
  147.9841  141.3994  153.7154 C   0  0  1  0  0  0  0  0  0  0  0  0
  149.2001  140.9201  154.5217 C   0  0  0  0  0  0  0  0  0  0  0  0
  149.5773  139.7502  154.4494 O   0  0  0  0  0  0  0  0  0  0  0  0
  149.8102  141.8474  155.2775 N   0  0  0  0  0  0  0  0  0  0  0  0
  151.0252  141.6455  156.0620 C   0  0  0  0  0  0  0  0  0  0  0  0
  150.7000  141.2571  157.5160 C   0  0  0  0  0  0  0  0  0  0  0  0
  151.3060  142.1906  158.5540 C   0  0  0  0  0  0  0  0  0  0  0  0
  151.9658  141.7252  159.6329 C   0  0  0  0  0  0  0  0  0  0  0  0
  152.5733  142.6106  160.7056 C   0  0  0  0  0  0  0  0  0  0  0  0
  152.0302  144.0471  160.6465 C   0  0  0  0  0  0  0  0  0  0  0  0
  152.0071  144.5632  159.2027 C   0  0  0  0  0  0  0  0  0  0  0  0
  151.1189  143.6834  158.3044 C   0  0  0  0  0  0  0  0  0  0  0  0
  147.4064  140.2850  152.9738 N   0  0  0  0  0  0  0  0  0  0  0  0
  147.3513  140.0694  151.6579 C   0  0  0  0  0  0  0  0  0  0  0  0
  146.7817  138.9203  151.3229 N   0  0  0  0  0  0  0  0  0  0  0  0
  146.5017  138.4336  152.5682 C   0  0  0  0  0  0  0  0  0  0  0  0
  146.8677  139.2042  153.5920 N   0  0  0  0  0  0  0  0  0  0  0  0
  147.3815  142.9871  155.0913 H   0  0  0  0  0  0  0  0  0  0  0  0
  146.5218  141.4746  155.3578 H   0  0  0  0  0  0  0  0  0  0  0  0
  146.1128  142.4911  153.9807 H   0  0  0  0  0  0  0  0  0  0  0  0
  148.3432  142.1204  152.9790 H   0  0  0  0  0  0  0  0  0  0  0  0
  149.4233  142.7798  155.2793 H   0  0  0  0  0  0  0  0  0  0  0  0
  151.5979  140.8451  155.5934 H   0  0  0  0  0  0  0  0  0  0  0  0
  151.6692  142.5260  156.0410 H   0  0  0  0  0  0  0  0  0  0  0  0
  149.6171  141.2290  157.6452 H   0  0  0  0  0  0  0  0  0  0  0  0
  151.0524  140.2443  157.7133 H   0  0  0  0  0  0  0  0  0  0  0  0
  152.0936  140.6613  159.7690 H   0  0  0  0  0  0  0  0  0  0  0  0
  152.3776  142.1786  161.6862 H   0  0  0  0  0  0  0  0  0  0  0  0
  153.6552  142.6096  160.5712 H   0  0  0  0  0  0  0  0  0  0  0  0
  151.0182  144.0723  161.0529 H   0  0  0  0  0  0  0  0  0  0  0  0
  152.6342  144.7011  161.2761 H   0  0  0  0  0  0  0  0  0  0  0  0
  151.6576  145.5955  159.1735 H   0  0  0  0  0  0  0  0  0  0  0  0
  153.0249  144.5711  158.8107 H   0  0  0  0  0  0  0  0  0  0  0  0
  151.3258  143.9070  157.2576 H   0  0  0  0  0  0  0  0  0  0  0  0
  150.0717  143.9299  158.4764 H   0  0  0  0  0  0  0  0  0  0  0  0
  147.7369  140.7673  150.9294 H   0  0  0  0  0  0  0  0  0  0  0  0
  146.0249  137.4775  152.7250 H   0  0  0  0  0  0  0  0  0  0  0  0
  1  2  1  0  0  0  0
  1 19  1  0  0  0  0
  1 20  1  0  0  0  0
  1 21  1  0  0  0  0
  2  3  1  0  0  0  0
  2 14  1  0  0  0  0
  2 22  1  0  0  0  0
  3  4  2  0  0  0  0
  3  5  1  0  0  0  0
  5  6  1  0  0  0  0
  5 23  1  0  0  0  0
  6  7  1  0  0  0  0
  6 24  1  0  0  0  0
  6 25  1  0  0  0  0
  7  8  1  0  0  0  0
  7 26  1  0  0  0  0
  7 27  1  0  0  0  0
  8 13  1  0  0  0  0
  8  9  2  0  0  0  0
  9 10  1  0  0  0  0
  9 28  1  0  0  0  0
 10 11  1  0  0  0  0
 10 29  1  0  0  0  0
 10 30  1  0  0  0  0
 11 12  1  0  0  0  0
 11 31  1  0  0  0  0
 11 32  1  0  0  0  0
 12 13  1  0  0  0  0
 12 33  1  0  0  0  0
 12 34  1  0  0  0  0
 13 35  1  0  0  0  0
 13 36  1  0  0  0  0
 14 18  1  0  0  0  0
 14 15  1  0  0  0  0
 15 16  2  0  0  0  0
 15 37  1  0  0  0  0
 16 17  1  0  0  0  0
 17 18  2  0  0  0  0
 17 38  1  0  0  0  0
M  END
> <s_m_source_file>
AV-unprocessed.smi

> <i_m_source_file_index>
1334

> <i_lp_mmshare_version>
43012

> <i_f3d_flags>
0

> <s_epik_input>
bjFbY0hdbltjSF1uMVtDQEhdKFtDSDNdKUMoPU8pW05IXVtDSDJdW0NIMl1DMj1bQ0hdW0NIMl1bQ0gyXVtDSDJdW0NIMl0y

> <s_epik_cmdline>
J2VwaWtfcHl0aG9uJywgJy1waCcsICc3LjAnLCAnLXRuJywgJzgnLCAnLW1hJywgJzIwMCcsICctbWV0YWxfYmluZGluZycsICctaW1hZScsICc8aW5maWxlLm1hZT4nLCAnLW9tYWUnLCAnPG91dGZpbGUubWFlPic=

> <r_lp_tautomer_probability>
1

> <r_epik_Ionization_Penalty>
1.26383e-05

> <r_epik_Ionization_Penalty_Charging>
0

> <r_epik_Ionization_Penalty_Neutral>
1.26383e-05

> <r_epik_State_Penalty>
-0

> <r_epik_Charging_Adjusted_Penalty>
0

> <i_epik_Tot_Q>
0

> <i_epik_Tot_abs_Q>
0

> <r_epik_Metal_State_Penalty>
-0

> <b_epik_Metal_Only>
0

> <s_lp_Force_Field>
OPLS_2005

> <r_lp_Energy>
11.5149

> <b_lp_Chiralities_Consistent>
1

> <s_lp_Variant>
AV-unprocessed.smi:1334-2

> <Gold.Version>
5.8.1

> <Gold.Id.Protein>
6NUR|6NUR_protein|mol2

> <Gold.PLP.Fitness>
44.1466

> <Gold.PLP.PLP>
-40.9960

> <Gold.PLP.part.hbond>
-1.0000

> <Gold.PLP.part.metal>
0.0000

> <Gold.PLP.part.buried>
-2.2233

> <Gold.PLP.part.nonpolar>
-37.9844

> <Gold.PLP.part.repulsive>
0.7904

> <Gold.PLP.ligand.clash>
0.0000

> <Gold.PLP.ligand.torsion>
0.7937

> <Gold.PLP.Chemscore.Hbond>
1.0000

> <Gold.PLP.Chemscore.CHOScore>
0.5316

> <Gold.PLP.Chemscore.Metal>
0.0000

> <Gold.Chemscore.Hbonds>
donor molecule, donor type, donor heavy atom, donor atom, acceptor molecule, acceptor atom, score
      L1  H     5    23       P1  8028  0.98
      P1  H  7954  7966       L1    16  0.44
      L1  C    15    37       P1  7957  0.21

> <Gold.PLP.Chemscore.Internal.Correction>
0.1431

> <Gold.Rescore>
     Score         DG    S(hbond)    S(metal)    S(lipo)     H(rot)  DE(clash)    DE(int)     intcor
     10.13     -13.58       0.99        0.00      93.51       2.40       1.46       1.98       ----

> <Gold.Chemscore.Fitness>
10.1338

> <Gold.Chemscore.DG>
-13.5768

> <Gold.Chemscore.ZeroCoef>
-5.4800

> <Gold.Chemscore.Hbond>
0.9890

> <Gold.Chemscore.Metal>
0.0000

> <Gold.Chemscore.Lipo>
93.5069

> <Gold.Chemscore.Internal_Hbond>
0.0000

> <Gold.Chemscore.DEClash>
1.4589

> <Gold.Chemscore.DEInternal>
1.9841

> <Gold.Chemscore.Rot>
2.4011

> <Gold.Chemscore.Internal.Correction>
   9.000000E+99

> <Gold.Chemscore.Hbonds>
donor molecule, donor type, donor heavy atom, donor atom, acceptor molecule, acceptor atom, score
      L1  H     5    23       P1  8028  0.91
      P1  H  7954  7966       L1    16  0.26

> <Gold.Chemscore.Hbond.Weighted>
-3.3033

> <Gold.Chemscore.Metal.Weighted>
-0.0000

> <Gold.Chemscore.Lipo.Weighted>
-10.9403

> <Gold.Chemscore.Internal_Hbond.Weighted>
0.0000

> <Gold.Chemscore.DEClash.Weighted>
1.4589

> <Gold.Chemscore.DEInternal.Weighted>
1.9841

> <Gold.Chemscore.Rot.Weighted>
6.1469

> <Gold.Chemscore.Internal.Correction.Weighted>
   9.000000E+99

> <Gold.Protein.RotatedTorsions>
[ 6907 6896 6895 6894 ] final  -16.10 input  -60.11 | X-H torsion
[ 7974 7965 7964 7962 ] final -147.29 input  175.53 | X-H torsion
[ 8008 7997 7996 7995 ] final    4.32 input   59.86 | X-H torsion
[ 10167 10162 10161 10158 ] final   -1.62 input  -65.29 | X-H torsion
[ 10718 10713 10712 10709 ] final  -32.78 input   66.30 | X-H torsion
[ 10763 10752 10751 10750 ] final  -93.02 input  -60.55 | X-H torsion
[ 11005 11000 10999 10996 ] final   53.61 input  -57.11 | X-H torsion

> <Gold.Protein.ActiveResidues>
 VAL166  LYS551  ARG553  GLY616  TRP617  ASP618  TYR619  PRO620  LYS621  CYS622 
 ASP623  PHE694  ASN695  SER759  ASP760  ASP761  ALA762  ILE779  LEU786  VAL792 
 PHE793  MET794  SER795  GLU796  ALA797  LYS798  CYS799  TRP800  GLU811  SER814 

> <Gold.Protein.RotatedAtoms>
  151.3138  135.0801  159.9281 H   0  0  0  0  0  0  0  0  0  0  0  0  # atno 6907 bound_to 6896
  152.5272  133.9708  159.7771 H   0  0  0  0  0  0  0  0  0  0  0  0  # atno 6908 bound_to 6896
  151.0017  133.5998  159.2724 H   0  0  0  0  0  0  0  0  0  0  0  0  # atno 6909 bound_to 6896
  144.8103  140.5345  143.5647 H   0  0  0  0  0  0  0  0  0  0  0  0  # atno 7974 bound_to 7965
  154.7145  140.2699  155.6598 H   0  0  0  0  0  0  0  0  0  0  0  0  # atno 8008 bound_to 7997
  156.2805  140.2746  156.1722 H   0  0  0  0  0  0  0  0  0  0  0  0  # atno 8009 bound_to 7997
  155.0590  140.0371  157.2560 H   0  0  0  0  0  0  0  0  0  0  0  0  # atno 8010 bound_to 7997
  140.6818  143.6753  150.8151 H   0  0  0  0  0  0  0  0  0  0  0  0  # atno 10167 bound_to 10162
  156.3707  130.4339  149.7547 H   0  0  0  0  0  0  0  0  0  0  0  0  # atno 10718 bound_to 10713
  154.6918  135.5210  153.8403 H   0  0  0  0  0  0  0  0  0  0  0  0  # atno 10763 bound_to 10752
  153.0638  135.6577  154.0411 H   0  0  0  0  0  0  0  0  0  0  0  0  # atno 10764 bound_to 10752
  154.0284  135.2987  155.3351 H   0  0  0  0  0  0  0  0  0  0  0  0  # atno 10765 bound_to 10752
  140.0753  134.5413  155.9003 H   0  0  0  0  0  0  0  0  0  0  0  0  # atno 11005 bound_to 11000
  145.5340  139.1475  143.3483 LP  0  0  0  0  0  0  0  0  0  0  0  0  # atno 17320 bound_to 7965
  146.2400  140.5481  142.8938 LP  0  0  0  0  0  0  0  0  0  0  0  0  # atno 17321 bound_to 7965
  140.0454  143.5303  152.2698 LP  0  0  0  0  0  0  0  0  0  0  0  0  # atno 17342 bound_to 10162
  139.6146  144.7616  151.2876 LP  0  0  0  0  0  0  0  0  0  0  0  0  # atno 17343 bound_to 10162
  156.4676  130.7981  151.3000 LP  0  0  0  0  0  0  0  0  0  0  0  0  # atno 17370 bound_to 10713
  157.7483  131.0046  150.3082 LP  0  0  0  0  0  0  0  0  0  0  0  0  # atno 17371 bound_to 10713
  141.2027  133.6627  156.6022 LP  0  0  0  0  0  0  0  0  0  0  0  0  # atno 17394 bound_to 11000
  140.3566  134.7723  157.4505 LP  0  0  0  0  0  0  0  0  0  0  0  0  # atno 17395 bound_to 11000

$$$$
