AV-unprocessed.smi:148|AV-procd|sdf|1202|dock9
  -GOLD-   2262018363D 1   1.00000     0.00000
 Structure written by MMmdl.
 63 67  0  0  0  0  0  0  0  0  1 V2000
  151.7912  136.5440  154.1942 O   0  0  0  0  0  0  0  0  0  0  0  0
  152.0742  137.8665  154.6011 C   0  0  0  0  0  0  0  0  0  0  0  0
  151.4715  138.1660  155.9941 C   0  0  2  0  0  0  0  0  0  0  0  0
  149.9227  138.0888  155.9734 C   0  0  0  0  0  0  0  0  0  0  0  0
  149.3791  137.4811  157.1752 N   0  0  0  0  0  0  0  0  0  0  0  0
  149.9192  136.4285  157.8783 C   0  0  0  0  0  0  0  0  0  0  0  0
  149.2387  136.0530  158.9267 N   0  0  0  0  0  0  0  0  0  0  0  0
  148.1477  136.9139  158.9482 C   0  0  0  0  0  0  0  0  0  0  0  0
  147.0127  137.0628  159.7948 C   0  0  0  0  0  0  0  0  0  0  0  0
  146.7431  136.2866  160.8689 N   0  0  0  0  0  0  0  0  0  0  0  0
  147.6876  136.5816  161.9460 C   0  0  0  0  0  0  0  0  0  0  0  0
  147.2700  135.9053  163.2577 C   0  0  0  0  0  0  0  0  0  0  0  0
  147.1015  134.3979  163.0458 C   0  0  0  0  0  0  0  0  0  0  0  0
  146.0941  134.1366  161.9180 C   0  0  0  0  0  0  0  0  0  0  0  0
  146.4996  134.8560  160.6045 C   0  0  1  0  0  0  0  0  0  0  0  0
  145.4961  134.6170  159.4320 C   0  0  2  0  0  0  0  0  0  0  0  0
  144.1005  135.2524  159.5897 C   0  0  0  0  0  0  0  0  0  0  0  0
  143.1195  134.3382  158.8372 C   0  0  0  0  0  0  0  0  0  0  0  0
  143.9683  133.2419  158.1865 C   0  0  0  0  0  0  0  0  0  0  0  0
  145.2096  133.1513  159.0728 C   0  0  1  0  0  0  0  0  0  0  0  0
  146.2893  132.5485  158.3899 O   0  0  0  0  0  0  0  0  0  0  0  0
  146.1328  138.0546  159.5119 N   0  0  0  0  0  0  0  0  0  0  0  0
  146.3345  138.8437  158.4524 C   0  0  0  0  0  0  0  0  0  0  0  0
  147.3335  138.8146  157.5671 N   0  0  0  0  0  0  0  0  0  0  0  0
  148.2269  137.8261  157.8594 C   0  0  0  0  0  0  0  0  0  0  0  0
  152.0145  139.4959  156.5864 C   0  0  2  0  0  0  0  0  0  0  0  0
  151.8368  139.6681  158.0965 C   0  0  0  0  0  0  0  0  0  0  0  0
  151.1824  141.0412  158.2421 C   0  0  0  0  0  0  0  0  0  0  0  0
  151.5543  141.7238  157.0560 O   0  0  0  0  0  0  0  0  0  0  0  0
  151.4324  140.7889  155.9971 C   0  0  0  0  0  0  0  0  0  0  0  0
  151.4201  136.5703  153.3255 H   0  0  0  0  0  0  0  0  0  0  0  0
  153.1529  138.0239  154.6002 H   0  0  0  0  0  0  0  0  0  0  0  0
  151.6583  138.5275  153.8411 H   0  0  0  0  0  0  0  0  0  0  0  0
  151.8142  137.3729  156.6608 H   0  0  0  0  0  0  0  0  0  0  0  0
  149.4768  139.0778  155.8793 H   0  0  0  0  0  0  0  0  0  0  0  0
  149.5740  137.5148  155.1157 H   0  0  0  0  0  0  0  0  0  0  0  0
  150.8369  135.9409  157.5824 H   0  0  0  0  0  0  0  0  0  0  0  0
  148.6830  136.2405  161.6574 H   0  0  0  0  0  0  0  0  0  0  0  0
  147.7544  137.6598  162.1000 H   0  0  0  0  0  0  0  0  0  0  0  0
  148.0152  136.0956  164.0303 H   0  0  0  0  0  0  0  0  0  0  0  0
  146.3330  136.3364  163.6131 H   0  0  0  0  0  0  0  0  0  0  0  0
  148.0634  133.9499  162.7935 H   0  0  0  0  0  0  0  0  0  0  0  0
  146.7662  133.9226  163.9682 H   0  0  0  0  0  0  0  0  0  0  0  0
  146.0271  133.0605  161.7673 H   0  0  0  0  0  0  0  0  0  0  0  0
  145.1095  134.4656  162.2481 H   0  0  0  0  0  0  0  0  0  0  0  0
  147.4537  134.4242  160.3015 H   0  0  0  0  0  0  0  0  0  0  0  0
  145.9208  135.0496  158.5247 H   0  0  0  0  0  0  0  0  0  0  0  0
  143.7980  135.3303  160.6328 H   0  0  0  0  0  0  0  0  0  0  0  0
  144.0897  136.2637  159.1824 H   0  0  0  0  0  0  0  0  0  0  0  0
  142.4206  133.8925  159.5458 H   0  0  0  0  0  0  0  0  0  0  0  0
  142.5315  134.8842  158.0987 H   0  0  0  0  0  0  0  0  0  0  0  0
  143.4383  132.2926  158.1047 H   0  0  0  0  0  0  0  0  0  0  0  0
  144.2490  133.5529  157.1788 H   0  0  0  0  0  0  0  0  0  0  0  0
  144.9628  132.5616  159.9543 H   0  0  0  0  0  0  0  0  0  0  0  0
  146.9652  133.1971  158.2642 H   0  0  0  0  0  0  0  0  0  0  0  0
  145.5862  139.6050  158.2883 H   0  0  0  0  0  0  0  0  0  0  0  0
  153.0910  139.5289  156.4129 H   0  0  0  0  0  0  0  0  0  0  0  0
  151.2435  138.8864  158.5696 H   0  0  0  0  0  0  0  0  0  0  0  0
  152.8130  139.6650  158.5832 H   0  0  0  0  0  0  0  0  0  0  0  0
  150.0957  140.9490  158.2806 H   0  0  0  0  0  0  0  0  0  0  0  0
  151.5135  141.5732  159.1342 H   0  0  0  0  0  0  0  0  0  0  0  0
  151.9705  141.1220  155.1092 H   0  0  0  0  0  0  0  0  0  0  0  0
  150.3786  140.6959  155.7370 H   0  0  0  0  0  0  0  0  0  0  0  0
  1  2  1  0  0  0  0
  1 31  1  0  0  0  0
  2  3  1  0  0  0  0
  2 32  1  0  0  0  0
  2 33  1  0  0  0  0
  3  4  1  0  0  0  0
  3 26  1  0  0  0  0
  3 34  1  0  0  0  0
  4  5  1  0  0  0  0
  4 35  1  0  0  0  0
  4 36  1  0  0  0  0
  5 25  1  0  0  0  0
  5  6  1  0  0  0  0
  6  7  2  0  0  0  0
  6 37  1  0  0  0  0
  7  8  1  0  0  0  0
  8 25  2  0  0  0  0
  8  9  1  0  0  0  0
  9 10  1  0  0  0  0
  9 22  2  0  0  0  0
 10 15  1  0  0  0  0
 10 11  1  0  0  0  0
 11 12  1  0  0  0  0
 11 38  1  0  0  0  0
 11 39  1  0  0  0  0
 12 13  1  0  0  0  0
 12 40  1  0  0  0  0
 12 41  1  0  0  0  0
 13 14  1  0  0  0  0
 13 42  1  0  0  0  0
 13 43  1  0  0  0  0
 14 15  1  0  0  0  0
 14 44  1  0  0  0  0
 14 45  1  0  0  0  0
 15 16  1  0  0  0  0
 15 46  1  0  0  0  0
 16 20  1  0  0  0  0
 16 17  1  0  0  0  0
 16 47  1  0  0  0  0
 17 18  1  0  0  0  0
 17 48  1  0  0  0  0
 17 49  1  0  0  0  0
 18 19  1  0  0  0  0
 18 50  1  0  0  0  0
 18 51  1  0  0  0  0
 19 20  1  0  0  0  0
 19 52  1  0  0  0  0
 19 53  1  0  0  0  0
 20 21  1  0  0  0  0
 20 54  1  0  0  0  0
 21 55  1  0  0  0  0
 22 23  1  0  0  0  0
 23 24  2  0  0  0  0
 23 56  1  0  0  0  0
 24 25  1  0  0  0  0
 26 30  1  0  0  0  0
 26 27  1  0  0  0  0
 26 57  1  0  0  0  0
 27 28  1  0  0  0  0
 27 58  1  0  0  0  0
 27 59  1  0  0  0  0
 28 29  1  0  0  0  0
 28 60  1  0  0  0  0
 28 61  1  0  0  0  0
 29 30  1  0  0  0  0
 30 62  1  0  0  0  0
 30 63  1  0  0  0  0
M  END
> <s_m_source_file>
AV-unprocessed.smi

> <i_m_source_file_index>
148

> <i_lp_mmshare_version>
43012

> <i_f3d_flags>
0

> <s_epik_input>
W0NIMl0xT1tDSDJdW0NIMl1bQ0BIXTFbQ0BIXShbQ0gyXVtPSF0pW0NIMl1uKFtjSF1uMiljKGMyMyluW2NIXW5jM040W0NIMl1bQ0gyXVtDSDJdW0NIMl1bQ0BIXTRbQ0BASF01W0NIMl1bQ0gyXVtDSDJdW0NASF01W09IXQ==

> <s_epik_cmdline>
J2VwaWtfcHl0aG9uJywgJy1waCcsICc3LjAnLCAnLXRuJywgJzgnLCAnLW1hJywgJzIwMCcsICctbWV0YWxfYmluZGluZycsICctaW1hZScsICc8aW5maWxlLm1hZT4nLCAnLW9tYWUnLCAnPG91dGZpbGUubWFlPic=

> <r_lp_tautomer_probability>
1

> <r_epik_Ionization_Penalty>
0.00556303

> <r_epik_Ionization_Penalty_Charging>
0

> <r_epik_Ionization_Penalty_Neutral>
0.00556303

> <r_epik_State_Penalty>
0.00401767

> <r_epik_Charging_Adjusted_Penalty>
0.00401767

> <i_epik_Tot_Q>
0

> <i_epik_Tot_abs_Q>
0

> <r_epik_Metal_State_Penalty>
-0

> <b_epik_Metal_Only>
0

> <s_lp_Force_Field>
OPLS_2005

> <r_lp_Energy>
68.457

> <b_lp_Chiralities_Consistent>
1

> <s_lp_Variant>
AV-unprocessed.smi:148-1

> <Gold.Version>
5.8.1

> <Gold.Id.Protein>
6NUR|6NUR_protein|mol2

> <Gold.PLP.Fitness>
44.7555

> <Gold.PLP.PLP>
-37.6043

> <Gold.PLP.part.hbond>
-3.3061

> <Gold.PLP.part.metal>
0.0000

> <Gold.PLP.part.buried>
-6.7905

> <Gold.PLP.part.nonpolar>
-28.5231

> <Gold.PLP.part.repulsive>
0.0700

> <Gold.PLP.ligand.clash>
0.0000

> <Gold.PLP.ligand.torsion>
1.1694

> <Gold.PLP.Chemscore.Hbond>
3.0303

> <Gold.PLP.Chemscore.CHOScore>
0.0000

> <Gold.PLP.Chemscore.Metal>
0.0000

> <Gold.Chemscore.Hbonds>
donor molecule, donor type, donor heavy atom, donor atom, acceptor molecule, acceptor atom, score
      L1  H     1    31       P1  7949  1.00
      P1  H  6896  6909       L1     7  0.55
      P1  H  6934  6947       L1    22  0.15
      P1  H 10752 10763       L1     1  0.81

> <Gold.PLP.Chemscore.Internal.Correction>
0.3991

> <Gold.Rescore>
     Score         DG    S(hbond)    S(metal)    S(lipo)     H(rot)  DE(clash)    DE(int)     intcor
     14.08     -15.78       2.42        0.00      91.52       3.32       0.07       1.63       ----

> <Gold.Chemscore.Fitness>
14.0776

> <Gold.Chemscore.DG>
-15.7790

> <Gold.Chemscore.ZeroCoef>
-5.4800

> <Gold.Chemscore.Hbond>
2.4226

> <Gold.Chemscore.Metal>
0.0000

> <Gold.Chemscore.Lipo>
91.5171

> <Gold.Chemscore.Internal_Hbond>
0.0000

> <Gold.Chemscore.DEClash>
0.0673

> <Gold.Chemscore.DEInternal>
1.6342

> <Gold.Chemscore.Rot>
3.3203

> <Gold.Chemscore.Internal.Correction>
   9.000000E+99

> <Gold.Chemscore.Hbonds>
donor molecule, donor type, donor heavy atom, donor atom, acceptor molecule, acceptor atom, score
      L1  H     1    31       P1  7949  0.80
      P1  H  6896  6909       L1     7  0.06
      P1  H 10752 10763       L1     1  0.50

> <Gold.Chemscore.Hbond.Weighted>
-8.0915

> <Gold.Chemscore.Metal.Weighted>
-0.0000

> <Gold.Chemscore.Lipo.Weighted>
-10.7075

> <Gold.Chemscore.Internal_Hbond.Weighted>
0.0000

> <Gold.Chemscore.DEClash.Weighted>
0.0673

> <Gold.Chemscore.DEInternal.Weighted>
1.6342

> <Gold.Chemscore.Rot.Weighted>
8.5000

> <Gold.Chemscore.Internal.Correction.Weighted>
   9.000000E+99

> <Gold.Protein.RotatedTorsions>
[ 6907 6896 6895 6894 ] final   59.94 input  -60.11 | X-H torsion
[ 7974 7965 7964 7962 ] final -118.71 input  175.53 | X-H torsion
[ 8008 7997 7996 7995 ] final   31.59 input   59.86 | X-H torsion
[ 10167 10162 10161 10158 ] final   82.78 input  -65.29 | X-H torsion
[ 10718 10713 10712 10709 ] final -170.32 input   66.30 | X-H torsion
[ 10763 10752 10751 10750 ] final   34.71 input  -60.55 | X-H torsion
[ 11005 11000 10999 10996 ] final  -72.43 input  -57.11 | X-H torsion

> <Gold.Protein.ActiveResidues>
 VAL166  LYS551  ARG553  GLY616  TRP617  ASP618  TYR619  PRO620  LYS621  CYS622 
 ASP623  PHE694  ASN695  SER759  ASP760  ASP761  ALA762  ILE779  LEU786  VAL792 
 PHE793  MET794  SER795  GLU796  ALA797  LYS798  CYS799  TRP800  GLU811  SER814 

> <Gold.Protein.RotatedAtoms>
  152.3959  134.6365  160.0088 H   0  0  0  0  0  0  0  0  0  0  0  0  # atno 6907 bound_to 6896
  151.6585  133.3312  159.3176 H   0  0  0  0  0  0  0  0  0  0  0  0  # atno 6908 bound_to 6896
  150.7867  134.6901  159.6536 H   0  0  0  0  0  0  0  0  0  0  0  0  # atno 6909 bound_to 6896
  145.0707  140.8357  143.4097 H   0  0  0  0  0  0  0  0  0  0  0  0  # atno 7974 bound_to 7965
  155.1089  140.3237  155.4527 H   0  0  0  0  0  0  0  0  0  0  0  0  # atno 8008 bound_to 7997
  156.2696  140.2047  156.6161 H   0  0  0  0  0  0  0  0  0  0  0  0  # atno 8009 bound_to 7997
  154.6771  140.0530  157.0214 H   0  0  0  0  0  0  0  0  0  0  0  0  # atno 8010 bound_to 7997
  139.9252  144.6187  150.8400 H   0  0  0  0  0  0  0  0  0  0  0  0  # atno 10167 bound_to 10162
  156.7244  130.9282  151.3100 H   0  0  0  0  0  0  0  0  0  0  0  0  # atno 10718 bound_to 10713
  153.0151  135.6353  154.1712 H   0  0  0  0  0  0  0  0  0  0  0  0  # atno 10763 bound_to 10752
  154.1451  135.2832  155.3152 H   0  0  0  0  0  0  0  0  0  0  0  0  # atno 10764 bound_to 10752
  154.6095  135.5561  153.7519 H   0  0  0  0  0  0  0  0  0  0  0  0  # atno 10765 bound_to 10752
  141.1608  133.6847  156.7058 H   0  0  0  0  0  0  0  0  0  0  0  0  # atno 11005 bound_to 11000
  145.1296  139.2641  143.5546 LP  0  0  0  0  0  0  0  0  0  0  0  0  # atno 17320 bound_to 7965
  146.3528  140.0942  142.8611 LP  0  0  0  0  0  0  0  0  0  0  0  0  # atno 17321 bound_to 7965
  140.7652  143.3269  151.2497 LP  0  0  0  0  0  0  0  0  0  0  0  0  # atno 17342 bound_to 10162
  139.6828  143.9825  152.2818 LP  0  0  0  0  0  0  0  0  0  0  0  0  # atno 17343 bound_to 10162
  157.6885  130.9209  150.0449 LP  0  0  0  0  0  0  0  0  0  0  0  0  # atno 17370 bound_to 10713
  156.1572  130.3643  149.9351 LP  0  0  0  0  0  0  0  0  0  0  0  0  # atno 17371 bound_to 10713
  140.2925  134.8229  157.4028 LP  0  0  0  0  0  0  0  0  0  0  0  0  # atno 17394 bound_to 11000
  140.1334  134.5065  155.8087 LP  0  0  0  0  0  0  0  0  0  0  0  0  # atno 17395 bound_to 11000

$$$$
