AV-unprocessed.smi:3255|AV-procd|sdf|12464|dock7
  -GOLD-   2272018363D 1   1.00000     0.00000
 Structure written by MMmdl.
 38 39  0  0  0  0  0  0  0  0  1 V2000
  147.1079  140.5924  152.9060 C   0  0  0  0  0  0  0  0  0  0  0  0
  147.5994  139.4609  153.8258 C   0  0  1  0  0  0  0  0  0  0  0  0
  147.3666  138.1685  153.1863 N   0  0  0  0  0  0  0  0  0  0  0  0
  146.2111  137.4899  153.2102 C   0  0  0  0  0  0  0  0  0  0  0  0
  145.1835  137.8935  153.7551 O   0  0  0  0  0  0  0  0  0  0  0  0
  146.3111  136.3154  152.5730 N   0  0  0  0  0  0  0  0  0  0  0  0
  145.2292  135.3477  152.4358 C   0  0  0  0  0  0  0  0  0  0  0  0
  144.7972  135.1887  150.9689 C   0  0  0  0  0  0  0  0  0  0  0  0
  144.9795  133.8280  150.5073 N   0  0  0  0  0  0  0  0  0  0  0  0
  146.1674  133.1104  150.4674 C   0  0  0  0  0  0  0  0  0  0  0  0
  145.8583  131.8676  149.9623 C   0  0  0  0  0  0  0  0  0  0  0  0
  144.4943  131.7989  149.6877 N   0  0  0  0  0  0  0  0  0  0  0  0
  144.0406  132.9963  150.0359 C   0  0  0  0  0  0  0  0  0  0  0  0
  149.0968  139.5920  154.1630 C   0  0  1  0  0  0  0  0  0  0  0  0
  149.5072  140.9448  154.7482 C   0  0  0  0  0  0  0  0  0  0  0  0
  150.7406  140.6227  155.5782 C   0  0  0  0  0  0  0  0  0  0  0  0
  150.7311  139.0960  155.6872 C   0  0  0  0  0  0  0  0  0  0  0  0
  149.4535  138.7009  155.2093 O   0  0  0  0  0  0  0  0  0  0  0  0
  147.2345  141.5683  153.3747 H   0  0  0  0  0  0  0  0  0  0  0  0
  146.0479  140.4821  152.6746 H   0  0  0  0  0  0  0  0  0  0  0  0
  147.6548  140.6023  151.9629 H   0  0  0  0  0  0  0  0  0  0  0  0
  147.0349  139.5007  154.7594 H   0  0  0  0  0  0  0  0  0  0  0  0
  148.1549  137.7489  152.7157 H   0  0  0  0  0  0  0  0  0  0  0  0
  147.1987  136.0709  152.1586 H   0  0  0  0  0  0  0  0  0  0  0  0
  145.5338  134.3859  152.8523 H   0  0  0  0  0  0  0  0  0  0  0  0
  144.3879  135.6937  153.0368 H   0  0  0  0  0  0  0  0  0  0  0  0
  143.7478  135.4604  150.8467 H   0  0  0  0  0  0  0  0  0  0  0  0
  145.3741  135.8504  150.3214 H   0  0  0  0  0  0  0  0  0  0  0  0
  147.1071  133.5319  150.7932 H   0  0  0  0  0  0  0  0  0  0  0  0
  146.5072  131.0242  149.7782 H   0  0  0  0  0  0  0  0  0  0  0  0
  143.0005  133.2742  149.9479 H   0  0  0  0  0  0  0  0  0  0  0  0
  149.7078  139.3667  153.2865 H   0  0  0  0  0  0  0  0  0  0  0  0
  149.7001  141.6941  153.9800 H   0  0  0  0  0  0  0  0  0  0  0  0
  148.7216  141.3278  155.4010 H   0  0  0  0  0  0  0  0  0  0  0  0
  151.6536  140.9690  155.0928 H   0  0  0  0  0  0  0  0  0  0  0  0
  150.6805  141.0959  156.5588 H   0  0  0  0  0  0  0  0  0  0  0  0
  151.5022  138.6613  155.0495 H   0  0  0  0  0  0  0  0  0  0  0  0
  150.8951  138.7465  156.7069 H   0  0  0  0  0  0  0  0  0  0  0  0
  1  2  1  0  0  0  0
  1 19  1  0  0  0  0
  1 20  1  0  0  0  0
  1 21  1  0  0  0  0
  2  3  1  0  0  0  0
  2 14  1  0  0  0  0
  2 22  1  0  0  0  0
  3  4  1  0  0  0  0
  3 23  1  0  0  0  0
  4  5  2  0  0  0  0
  4  6  1  0  0  0  0
  6  7  1  0  0  0  0
  6 24  1  0  0  0  0
  7  8  1  0  0  0  0
  7 25  1  0  0  0  0
  7 26  1  0  0  0  0
  8  9  1  0  0  0  0
  8 27  1  0  0  0  0
  8 28  1  0  0  0  0
  9 13  1  0  0  0  0
  9 10  1  0  0  0  0
 10 11  2  0  0  0  0
 10 29  1  0  0  0  0
 11 12  1  0  0  0  0
 11 30  1  0  0  0  0
 12 13  2  0  0  0  0
 13 31  1  0  0  0  0
 14 18  1  0  0  0  0
 14 15  1  0  0  0  0
 14 32  1  0  0  0  0
 15 16  1  0  0  0  0
 15 33  1  0  0  0  0
 15 34  1  0  0  0  0
 16 17  1  0  0  0  0
 16 35  1  0  0  0  0
 16 36  1  0  0  0  0
 17 18  1  0  0  0  0
 17 37  1  0  0  0  0
 17 38  1  0  0  0  0
M  END
> <s_m_source_file>
AV-unprocessed.smi

> <i_m_source_file_index>
3255

> <i_lp_mmshare_version>
43012

> <i_f3d_flags>
0

> <s_epik_input>
TzFbQ0gyXVtDSDJdW0NIMl1bQ0BIXTFbQ0BIXShbQ0gzXSlbTkhdQyg9TylbTkhdW0NIMl1bQ0gyXW4yW2NIXVtjSF1uW2NIXTI=

> <s_epik_cmdline>
J2VwaWtfcHl0aG9uJywgJy1waCcsICc3LjAnLCAnLXRuJywgJzgnLCAnLW1hJywgJzIwMCcsICctbWV0YWxfYmluZGluZycsICctaW1hZScsICc8aW5maWxlLm1hZT4nLCAnLW9tYWUnLCAnPG91dGZpbGUubWFlPic=

> <r_lp_tautomer_probability>
1

> <r_epik_Ionization_Penalty>
0.620274

> <r_epik_Ionization_Penalty_Charging>
0.620225

> <r_epik_Ionization_Penalty_Neutral>
4.91362e-05

> <r_epik_State_Penalty>
0.636186

> <r_epik_Charging_Adjusted_Penalty>
1.25641

> <i_epik_Tot_Q>
0

> <i_epik_Tot_abs_Q>
0

> <r_epik_Metal_State_Penalty>
0.306491

> <b_epik_Metal_Only>
0

> <s_lp_Force_Field>
OPLS_2005

> <r_lp_Energy>
17.3194

> <b_lp_Chiralities_Consistent>
1

> <s_lp_Variant>
AV-unprocessed.smi:3255-8

> <Gold.Version>
5.8.1

> <Gold.Id.Protein>
6NUR|6NUR_protein|mol2

> <Gold.PLP.Fitness>
42.9885

> <Gold.PLP.PLP>
-32.1241

> <Gold.PLP.part.hbond>
-3.0000

> <Gold.PLP.part.metal>
0.0000

> <Gold.PLP.part.buried>
-1.2329

> <Gold.PLP.part.nonpolar>
-27.8149

> <Gold.PLP.part.repulsive>
0.4470

> <Gold.PLP.ligand.clash>
0.0000

> <Gold.PLP.ligand.torsion>
0.8118

> <Gold.PLP.Chemscore.Hbond>
2.1802

> <Gold.PLP.Chemscore.CHOScore>
1.9649

> <Gold.PLP.Chemscore.Metal>
0.0000

> <Gold.Chemscore.Hbonds>
donor molecule, donor type, donor heavy atom, donor atom, acceptor molecule, acceptor atom, score
      L1  H     3    23       P1  7948  1.00
      L1  H     6    24       P1  7948  1.00
      P1  H 10785 10796       L1    12  0.18
      L1  C    11    30       P1 10747  0.96
      L1  C    13    31       P1 10186  1.00

> <Gold.PLP.Chemscore.Internal.Correction>
0.0529

> <Gold.Rescore>
     Score         DG    S(hbond)    S(metal)    S(lipo)     H(rot)  DE(clash)    DE(int)     intcor
     15.61     -16.61       2.59        0.00      68.89       2.18       0.07       0.93       ----

> <Gold.Chemscore.Fitness>
15.6121

> <Gold.Chemscore.DG>
-16.6110

> <Gold.Chemscore.ZeroCoef>
-5.4800

> <Gold.Chemscore.Hbond>
2.5925

> <Gold.Chemscore.Metal>
0.0000

> <Gold.Chemscore.Lipo>
68.8903

> <Gold.Chemscore.Internal_Hbond>
0.0000

> <Gold.Chemscore.DEClash>
0.0684

> <Gold.Chemscore.DEInternal>
0.9305

> <Gold.Chemscore.Rot>
2.1828

> <Gold.Chemscore.Internal.Correction>
   9.000000E+99

> <Gold.Chemscore.Hbonds>
donor molecule, donor type, donor heavy atom, donor atom, acceptor molecule, acceptor atom, score
      L1  H     3    23       P1  7948  0.95
      L1  H     6    24       P1  7948  0.99
      P1  H 10785 10796       L1    12  0.17

> <Gold.Chemscore.Hbond.Weighted>
-8.6589

> <Gold.Chemscore.Metal.Weighted>
-0.0000

> <Gold.Chemscore.Lipo.Weighted>
-8.0602

> <Gold.Chemscore.Internal_Hbond.Weighted>
0.0000

> <Gold.Chemscore.DEClash.Weighted>
0.0684

> <Gold.Chemscore.DEInternal.Weighted>
0.9305

> <Gold.Chemscore.Rot.Weighted>
5.5881

> <Gold.Chemscore.Internal.Correction.Weighted>
   9.000000E+99

> <Gold.Protein.RotatedTorsions>
[ 6907 6896 6895 6894 ] final -175.78 input  -60.11 | X-H torsion
[ 7974 7965 7964 7962 ] final   70.29 input  175.53 | X-H torsion
[ 8008 7997 7996 7995 ] final  149.40 input   59.86 | X-H torsion
[ 10167 10162 10161 10158 ] final   79.75 input  -65.29 | X-H torsion
[ 10718 10713 10712 10709 ] final  160.60 input   66.30 | X-H torsion
[ 10763 10752 10751 10750 ] final -161.42 input  -60.55 | X-H torsion
[ 11005 11000 10999 10996 ] final  112.71 input  -57.11 | X-H torsion

> <Gold.Protein.ActiveResidues>
 VAL166  LYS551  ARG553  GLY616  TRP617  ASP618  TYR619  PRO620  LYS621  CYS622 
 ASP623  PHE694  ASN695  SER759  ASP760  ASP761  ALA762  ILE779  LEU786  VAL792 
 PHE793  MET794  SER795  GLU796  ALA797  LYS798  CYS799  TRP800  GLU811  SER814 

> <Gold.Protein.RotatedAtoms>
  151.5942  133.3363  159.3033 H   0  0  0  0  0  0  0  0  0  0  0  0  # atno 6907 bound_to 6896
  150.8243  134.7470  159.6811 H   0  0  0  0  0  0  0  0  0  0  0  0  # atno 6908 bound_to 6896
  152.4334  134.5739  159.9980 H   0  0  0  0  0  0  0  0  0  0  0  0  # atno 6909 bound_to 6896
  145.7800  139.2883  143.1271 H   0  0  0  0  0  0  0  0  0  0  0  0  # atno 7974 bound_to 7965
  156.2756  140.2103  156.5852 H   0  0  0  0  0  0  0  0  0  0  0  0  # atno 8008 bound_to 7997
  154.7026  140.0519  157.0496 H   0  0  0  0  0  0  0  0  0  0  0  0  # atno 8009 bound_to 7997
  155.0713  140.3177  155.4632 H   0  0  0  0  0  0  0  0  0  0  0  0  # atno 8010 bound_to 7997
  139.9570  144.5987  150.8107 H   0  0  0  0  0  0  0  0  0  0  0  0  # atno 10167 bound_to 10162
  157.1482  131.0557  151.2293 H   0  0  0  0  0  0  0  0  0  0  0  0  # atno 10718 bound_to 10713
  154.7305  135.3045  154.8899 H   0  0  0  0  0  0  0  0  0  0  0  0  # atno 10763 bound_to 10752
  153.9743  135.6738  153.4752 H   0  0  0  0  0  0  0  0  0  0  0  0  # atno 10764 bound_to 10752
  153.0914  135.4957  154.8618 H   0  0  0  0  0  0  0  0  0  0  0  0  # atno 10765 bound_to 10752
  139.8934  134.9535  156.6627 H   0  0  0  0  0  0  0  0  0  0  0  0  # atno 11005 bound_to 11000
  146.0083  140.8458  142.9983 LP  0  0  0  0  0  0  0  0  0  0  0  0  # atno 17320 bound_to 7965
  144.6798  140.2453  143.7338 LP  0  0  0  0  0  0  0  0  0  0  0  0  # atno 17321 bound_to 7965
  140.7565  143.3067  151.2944 LP  0  0  0  0  0  0  0  0  0  0  0  0  # atno 17342 bound_to 10162
  139.6583  144.0235  152.2675 LP  0  0  0  0  0  0  0  0  0  0  0  0  # atno 17343 bound_to 10162
  157.4245  130.7456  149.6940 LP  0  0  0  0  0  0  0  0  0  0  0  0  # atno 17370 bound_to 10713
  155.9775  130.4062  150.3706 LP  0  0  0  0  0  0  0  0  0  0  0  0  # atno 17371 bound_to 10713
  140.7434  133.8958  155.8295 LP  0  0  0  0  0  0  0  0  0  0  0  0  # atno 17394 bound_to 11000
  141.0059  134.1087  157.4271 LP  0  0  0  0  0  0  0  0  0  0  0  0  # atno 17395 bound_to 11000

$$$$
