AV-unprocessed.smi:2844|AV-procd|sdf|10941|dock7
  -GOLD-   2272015393D 1   1.00000     0.00000
 Structure written by MMmdl.
 39 41  0  0  0  0  0  0  0  0  2 V2000
  151.9090  145.0916  160.4027 C   0  0  0  0  0  0  0  0  0  0  0  0
  151.8518  143.8487  159.5310 C   0  0  0  0  0  0  0  0  0  0  0  0
  151.1334  143.9105  158.3154 C   0  0  0  0  0  0  0  0  0  0  0  0
  151.0971  142.7572  157.5408 C   0  0  0  0  0  0  0  0  0  0  0  0
  150.4852  142.4977  156.3121 N   0  3  0  0  0  0  0  0  0  0  0  0
  150.7297  141.2089  155.9460 C   0  0  0  0  0  0  0  0  0  0  0  0
  151.4888  140.6427  156.9231 N   0  0  0  0  0  0  0  0  0  0  0  0
  152.0352  139.2833  157.0245 C   0  0  0  0  0  0  0  0  0  0  0  0
  152.3313  138.6569  155.6485 C   0  0  2  0  0  0  0  0  0  0  0  0
  153.0433  139.5860  154.8521 O   0  0  0  0  0  0  0  0  0  0  0  0
  151.0428  138.2223  154.9251 C   0  0  0  0  0  0  0  0  0  0  0  0
  150.5685  136.9234  155.3695 N   0  0  0  0  0  0  0  0  0  0  0  0
  150.6766  135.7096  154.7189 C   0  0  0  0  0  0  0  0  0  0  0  0
  150.0774  134.8037  155.5395 C   0  0  0  0  0  0  0  0  0  0  0  0
  149.9034  133.1114  155.2565 Cl  0  0  0  0  0  0  0  0  0  0  0  0
  149.6250  135.5267  156.6724 C   0  0  0  0  0  0  0  0  0  0  0  0
  149.9257  136.8124  156.5605 N   0  0  0  0  0  0  0  0  0  0  0  0
  151.7442  141.5709  157.9373 C   0  0  0  0  0  0  0  0  0  0  0  0
  152.4589  141.4930  159.1301 C   0  0  0  0  0  0  0  0  0  0  0  0
  152.5069  142.6555  159.9327 C   0  0  0  0  0  0  0  0  0  0  0  0
  153.2767  142.6005  161.2414 C   0  0  0  0  0  0  0  0  0  0  0  0
  151.3355  145.9105  159.9676 H   0  0  0  0  0  0  0  0  0  0  0  0
  152.9388  145.4304  160.5187 H   0  0  0  0  0  0  0  0  0  0  0  0
  151.4976  144.8866  161.3913 H   0  0  0  0  0  0  0  0  0  0  0  0
  150.6336  144.8158  158.0027 H   0  0  0  0  0  0  0  0  0  0  0  0
  150.3886  140.7247  155.0423 H   0  0  0  0  0  0  0  0  0  0  0  0
  152.9327  139.3151  157.6435 H   0  0  0  0  0  0  0  0  0  0  0  0
  151.3076  138.6782  157.5671 H   0  0  0  0  0  0  0  0  0  0  0  0
  152.9690  137.7824  155.7847 H   0  0  0  0  0  0  0  0  0  0  0  0
  152.5488  140.3912  154.8158 H   0  0  0  0  0  0  0  0  0  0  0  0
  150.2497  138.9489  155.1064 H   0  0  0  0  0  0  0  0  0  0  0  0
  151.1983  138.1952  153.8453 H   0  0  0  0  0  0  0  0  0  0  0  0
  151.1554  135.6017  153.7569 H   0  0  0  0  0  0  0  0  0  0  0  0
  149.1028  135.1725  157.5490 H   0  0  0  0  0  0  0  0  0  0  0  0
  152.9570  140.5844  159.4344 H   0  0  0  0  0  0  0  0  0  0  0  0
  153.7494  141.6284  161.3860 H   0  0  0  0  0  0  0  0  0  0  0  0
  152.6087  142.7751  162.0853 H   0  0  0  0  0  0  0  0  0  0  0  0
  154.0617  143.3566  161.2582 H   0  0  0  0  0  0  0  0  0  0  0  0
  149.9420  143.1497  155.7608 H   0  0  0  0  0  0  0  0  0  0  0  0
  1  2  1  0  0  0  0
  1 22  1  0  0  0  0
  1 23  1  0  0  0  0
  1 24  1  0  0  0  0
  2 20  1  0  0  0  0
  2  3  2  0  0  0  0
  3  4  1  0  0  0  0
  3 25  1  0  0  0  0
  4 18  2  0  0  0  0
  4  5  1  0  0  0  0
  5  6  2  0  0  0  0
  5 39  1  0  0  0  0
  6  7  1  0  0  0  0
  6 26  1  0  0  0  0
  7  8  1  0  0  0  0
  7 18  1  0  0  0  0
  8  9  1  0  0  0  0
  8 27  1  0  0  0  0
  8 28  1  0  0  0  0
  9 10  1  0  0  0  0
  9 11  1  0  0  0  0
  9 29  1  0  0  0  0
 10 30  1  0  0  0  0
 11 12  1  0  0  0  0
 11 31  1  0  0  0  0
 11 32  1  0  0  0  0
 12 17  1  0  0  0  0
 12 13  1  0  0  0  0
 13 14  2  0  0  0  0
 13 33  1  0  0  0  0
 14 15  1  0  0  0  0
 14 16  1  0  0  0  0
 16 17  2  0  0  0  0
 16 34  1  0  0  0  0
 18 19  1  0  0  0  0
 19 20  2  0  0  0  0
 19 35  1  0  0  0  0
 20 21  1  0  0  0  0
 21 36  1  0  0  0  0
 21 37  1  0  0  0  0
 21 38  1  0  0  0  0
M  CHG  1   5   1
M  END
> <s_m_source_file>
AV-unprocessed.smi

> <i_m_source_file_index>
2844

> <i_lp_mmshare_version>
43012

> <i_f3d_flags>
0

> <s_epik_input>
W0NIM11jKFtjSF0xKWMoW0NIM10pW2NIXWMoYzEyKW4oW2NIXW4yKVtDSDJdW0NASF0oW09IXSlbQ0gyXW4zW2NIXWMoQ2wpW2NIXW4z

> <s_epik_cmdline>
J2VwaWtfcHl0aG9uJywgJy1waCcsICc3LjAnLCAnLXRuJywgJzgnLCAnLW1hJywgJzIwMCcsICctbWV0YWxfYmluZGluZycsICctaW1hZScsICc8aW5maWxlLm1hZT4nLCAnLW9tYWUnLCAnPG91dGZpbGUubWFlPic=

> <r_lp_tautomer_probability>
1

> <r_epik_Ionization_Penalty>
1.09214

> <r_epik_Ionization_Penalty_Charging>
1.09214

> <r_epik_Ionization_Penalty_Neutral>
2.93683e-06

> <r_epik_State_Penalty>
1.14852

> <r_epik_Charging_Adjusted_Penalty>
2.24066

> <i_epik_Tot_Q>
1

> <i_epik_Tot_abs_Q>
1

> <r_epik_Metal_State_Penalty>
1.23687

> <b_epik_Metal_Only>
0

> <s_lp_Force_Field>
OPLS_2005

> <r_lp_Energy>
16.171

> <b_lp_Chiralities_Consistent>
1

> <s_lp_Variant>
AV-unprocessed.smi:2844-3

> <Gold.Version>
5.8.1

> <Gold.Id.Protein>
6NUR|6NUR_protein|mol2

> <Gold.PLP.Fitness>
57.5778

> <Gold.PLP.PLP>
-47.4318

> <Gold.PLP.part.hbond>
-3.0000

> <Gold.PLP.part.metal>
0.0000

> <Gold.PLP.part.buried>
-5.6455

> <Gold.PLP.part.nonpolar>
-39.2492

> <Gold.PLP.part.repulsive>
0.0995

> <Gold.PLP.ligand.clash>
0.0000

> <Gold.PLP.ligand.torsion>
0.9334

> <Gold.PLP.Chemscore.Hbond>
3.0000

> <Gold.PLP.Chemscore.CHOScore>
1.0000

> <Gold.PLP.Chemscore.Metal>
0.0000

> <Gold.Chemscore.Hbonds>
donor molecule, donor type, donor heavy atom, donor atom, acceptor molecule, acceptor atom, score
      L1  H     5    39       P1  8028  1.98
      P1  H  7997  8009       L1    10  0.95
      L1  C    13    33       P1  7949  1.00

> <Gold.PLP.Chemscore.Internal.Correction>
0.0129

> <Gold.Rescore>
     Score         DG    S(hbond)    S(metal)    S(lipo)     H(rot)  DE(clash)    DE(int)     intcor
     19.85     -20.57       1.92        0.00     122.46       2.21       0.10       0.62       ----

> <Gold.Chemscore.Fitness>
19.8538

> <Gold.Chemscore.DG>
-20.5718

> <Gold.Chemscore.ZeroCoef>
-5.4800

> <Gold.Chemscore.Hbond>
1.9248

> <Gold.Chemscore.Metal>
0.0000

> <Gold.Chemscore.Lipo>
122.4602

> <Gold.Chemscore.Internal_Hbond>
0.0000

> <Gold.Chemscore.DEClash>
0.0954

> <Gold.Chemscore.DEInternal>
0.6226

> <Gold.Chemscore.Rot>
2.2129

> <Gold.Chemscore.Internal.Correction>
   9.000000E+99

> <Gold.Chemscore.Hbonds>
donor molecule, donor type, donor heavy atom, donor atom, acceptor molecule, acceptor atom, score
      L1  H     5    39       P1  8028  0.94
      P1  H  7997  8009       L1    10  0.19

> <Gold.Chemscore.Hbond.Weighted>
-6.4289

> <Gold.Chemscore.Metal.Weighted>
-0.0000

> <Gold.Chemscore.Lipo.Weighted>
-14.3278

> <Gold.Chemscore.Internal_Hbond.Weighted>
0.0000

> <Gold.Chemscore.DEClash.Weighted>
0.0954

> <Gold.Chemscore.DEInternal.Weighted>
0.6226

> <Gold.Chemscore.Rot.Weighted>
5.6649

> <Gold.Chemscore.Internal.Correction.Weighted>
   9.000000E+99

> <Gold.Protein.RotatedTorsions>
[ 6907 6896 6895 6894 ] final -146.87 input  -60.11 | X-H torsion
[ 7974 7965 7964 7962 ] final   36.03 input  175.53 | X-H torsion
[ 8008 7997 7996 7995 ] final -117.60 input   59.86 | X-H torsion
[ 10167 10162 10161 10158 ] final  117.15 input  -65.29 | X-H torsion
[ 10718 10713 10712 10709 ] final  -74.32 input   66.30 | X-H torsion
[ 10763 10752 10751 10750 ] final  -70.27 input  -60.55 | X-H torsion
[ 11005 11000 10999 10996 ] final  -84.15 input  -57.11 | X-H torsion

> <Gold.Protein.ActiveResidues>
 VAL166  LYS551  ARG553  GLY616  TRP617  ASP618  TYR619  PRO620  LYS621  CYS622 
 ASP623  PHE694  ASN695  SER759  ASP760  ASP761  ALA762  ILE779  LEU786  VAL792 
 PHE793  MET794  SER795  GLU796  ALA797  LYS798  CYS799  TRP800  GLU811  SER814 

> <Gold.Protein.RotatedAtoms>
  151.1477  133.4928  159.2595 H   0  0  0  0  0  0  0  0  0  0  0  0  # atno 6907 bound_to 6896
  151.1587  135.0262  159.8710 H   0  0  0  0  0  0  0  0  0  0  0  0  # atno 6908 bound_to 6896
  152.5463  134.1353  159.8509 H   0  0  0  0  0  0  0  0  0  0  0  0  # atno 6909 bound_to 6896
  146.1240  139.6068  142.9271 H   0  0  0  0  0  0  0  0  0  0  0  0  # atno 7974 bound_to 7965
  155.0863  140.0394  157.2655 H   0  0  0  0  0  0  0  0  0  0  0  0  # atno 8008 bound_to 7997
  154.6867  140.2644  155.6828 H   0  0  0  0  0  0  0  0  0  0  0  0  # atno 8009 bound_to 7997
  156.2714  140.2767  156.1431 H   0  0  0  0  0  0  0  0  0  0  0  0  # atno 8010 bound_to 7997
  139.6198  144.7099  151.2659 H   0  0  0  0  0  0  0  0  0  0  0  0  # atno 10167 bound_to 10162
  156.0247  130.4414  150.2874 H   0  0  0  0  0  0  0  0  0  0  0  0  # atno 10718 bound_to 10713
  154.4152  135.5999  153.5976 H   0  0  0  0  0  0  0  0  0  0  0  0  # atno 10763 bound_to 10752
  152.9791  135.5939  154.4022 H   0  0  0  0  0  0  0  0  0  0  0  0  # atno 10764 bound_to 10752
  154.3839  135.2841  155.2173 H   0  0  0  0  0  0  0  0  0  0  0  0  # atno 10765 bound_to 10752
  141.1653  133.7331  156.8825 H   0  0  0  0  0  0  0  0  0  0  0  0  # atno 11005 bound_to 11000
  145.5405  141.0421  143.2333 LP  0  0  0  0  0  0  0  0  0  0  0  0  # atno 17320 bound_to 7965
  144.7624  139.6924  143.7228 LP  0  0  0  0  0  0  0  0  0  0  0  0  # atno 17321 bound_to 7965
  140.7375  143.6677  150.8109 LP  0  0  0  0  0  0  0  0  0  0  0  0  # atno 17342 bound_to 10162
  140.0286  143.5467  152.2770 LP  0  0  0  0  0  0  0  0  0  0  0  0  # atno 17343 bound_to 10162
  157.0978  131.0187  151.3097 LP  0  0  0  0  0  0  0  0  0  0  0  0  # atno 17370 bound_to 10713
  157.4804  130.7761  149.7408 LP  0  0  0  0  0  0  0  0  0  0  0  0  # atno 17371 bound_to 10713
  140.1705  134.9103  157.2827 LP  0  0  0  0  0  0  0  0  0  0  0  0  # atno 17394 bound_to 11000
  140.2508  134.3686  155.7443 LP  0  0  0  0  0  0  0  0  0  0  0  0  # atno 17395 bound_to 11000

$$$$
