AV-unprocessed.smi:2069|AV-procd|sdf|8434|dock10
  -GOLD-   2272011133D 1   1.00000     0.00000
 Structure written by MMmdl.
 39 40  0  0  0  0  0  0  0  0  2 V2000
  151.5508  140.3979  158.5679 C   0  0  0  0  0  0  0  0  0  0  0  0
  151.1825  140.1431  157.1464 C   0  0  0  0  0  0  0  0  0  0  0  0
  152.0900  140.0803  156.1645 N   0  0  0  0  0  0  0  0  0  0  0  0
  151.5112  139.8279  154.9285 N   0  0  0  0  0  0  0  0  0  0  0  0
  150.1797  139.7059  155.0160 C   0  0  0  0  0  0  0  0  0  0  0  0
  149.3373  139.4394  153.9043 N   0  0  0  0  0  0  0  0  0  0  0  0
  148.0791  138.9656  153.9082 C   0  0  0  0  0  0  0  0  0  0  0  0
  147.4359  138.6542  154.9110 O   0  0  0  0  0  0  0  0  0  0  0  0
  147.5902  138.8713  152.6634 N   0  0  0  0  0  0  0  0  0  0  0  0
  146.2472  138.4049  152.3314 C   0  0  0  0  0  0  0  0  0  0  0  0
  145.7928  137.1958  153.1922 C   0  0  1  0  0  0  0  0  0  0  0  0
  144.2665  137.2650  153.4425 C   0  0  0  0  0  0  0  0  0  0  0  0
  146.2383  135.9122  152.5581 N   0  3  0  0  0  0  0  0  0  0  0  0
  146.1154  134.7495  153.4799 C   0  0  0  0  0  0  0  0  0  0  0  0
  146.6723  133.4705  152.8346 C   0  0  0  0  0  0  0  0  0  0  0  0
  145.9787  133.2129  151.6229 O   0  0  0  0  0  0  0  0  0  0  0  0
  146.1594  134.2637  150.6854 C   0  0  0  0  0  0  0  0  0  0  0  0
  145.5995  135.5789  151.2549 C   0  0  0  0  0  0  0  0  0  0  0  0
  149.5190  139.8919  156.6314 S   0  0  0  0  0  0  0  0  0  0  0  0
  152.4369  141.0309  158.6240 H   0  0  0  0  0  0  0  0  0  0  0  0
  151.7599  139.4545  159.0725 H   0  0  0  0  0  0  0  0  0  0  0  0
  150.7325  140.8989  159.0853 H   0  0  0  0  0  0  0  0  0  0  0  0
  149.7382  139.6426  153.0005 H   0  0  0  0  0  0  0  0  0  0  0  0
  148.1837  139.1446  151.8937 H   0  0  0  0  0  0  0  0  0  0  0  0
  145.5595  139.2384  152.4777 H   0  0  0  0  0  0  0  0  0  0  0  0
  146.2232  138.1814  151.2655 H   0  0  0  0  0  0  0  0  0  0  0  0
  146.2721  137.2577  154.1706 H   0  0  0  0  0  0  0  0  0  0  0  0
  143.9714  138.2196  153.8776 H   0  0  0  0  0  0  0  0  0  0  0  0
  143.9329  136.5055  154.1496 H   0  0  0  0  0  0  0  0  0  0  0  0
  143.7042  137.1418  152.5163 H   0  0  0  0  0  0  0  0  0  0  0  0
  146.6471  134.9254  154.4130 H   0  0  0  0  0  0  0  0  0  0  0  0
  145.0663  134.6014  153.7409 H   0  0  0  0  0  0  0  0  0  0  0  0
  147.7438  133.5595  152.6478 H   0  0  0  0  0  0  0  0  0  0  0  0
  146.5356  132.6221  153.5056 H   0  0  0  0  0  0  0  0  0  0  0  0
  147.2170  134.3673  150.4366 H   0  0  0  0  0  0  0  0  0  0  0  0
  145.6408  134.0046  149.7622 H   0  0  0  0  0  0  0  0  0  0  0  0
  144.5187  135.5020  151.3841 H   0  0  0  0  0  0  0  0  0  0  0  0
  145.7878  136.3588  150.5178 H   0  0  0  0  0  0  0  0  0  0  0  0
  147.2216  136.0254  152.3575 H   0  0  0  0  0  0  0  0  0  0  0  0
  1  2  1  0  0  0  0
  1 20  1  0  0  0  0
  1 21  1  0  0  0  0
  1 22  1  0  0  0  0
  2 19  1  0  0  0  0
  2  3  2  0  0  0  0
  3  4  1  0  0  0  0
  4  5  2  0  0  0  0
  5  6  1  0  0  0  0
  5 19  1  0  0  0  0
  6  7  1  0  0  0  0
  6 23  1  0  0  0  0
  7  8  2  0  0  0  0
  7  9  1  0  0  0  0
  9 10  1  0  0  0  0
  9 24  1  0  0  0  0
 10 11  1  0  0  0  0
 10 25  1  0  0  0  0
 10 26  1  0  0  0  0
 11 12  1  0  0  0  0
 11 13  1  0  0  0  0
 11 27  1  0  0  0  0
 12 28  1  0  0  0  0
 12 29  1  0  0  0  0
 12 30  1  0  0  0  0
 13 18  1  0  0  0  0
 13 14  1  0  0  0  0
 13 39  1  0  0  0  0
 14 15  1  0  0  0  0
 14 31  1  0  0  0  0
 14 32  1  0  0  0  0
 15 16  1  0  0  0  0
 15 33  1  0  0  0  0
 15 34  1  0  0  0  0
 16 17  1  0  0  0  0
 17 18  1  0  0  0  0
 17 35  1  0  0  0  0
 17 36  1  0  0  0  0
 18 37  1  0  0  0  0
 18 38  1  0  0  0  0
M  CHG  1  13   1
M  END
> <s_m_source_file>
AV-unprocessed.smi

> <i_m_source_file_index>
2069

> <i_lp_mmshare_version>
43012

> <i_f3d_flags>
0

> <s_epik_input>
W0NIM11jMW5uYyhzMSlbTkhdQyg9TylbTkhdW0NIMl1bQ0BIXShbQ0gzXSlOMltDSDJdW0NIMl1PW0NIMl1bQ0gyXTI=

> <s_epik_cmdline>
J2VwaWtfcHl0aG9uJywgJy1waCcsICc3LjAnLCAnLXRuJywgJzgnLCAnLW1hJywgJzIwMCcsICctbWV0YWxfYmluZGluZycsICctaW1hZScsICc8aW5maWxlLm1hZT4nLCAnLW9tYWUnLCAnPG91dGZpbGUubWFlPic=

> <r_lp_tautomer_probability>
1

> <r_epik_Ionization_Penalty>
0.70016

> <r_epik_Ionization_Penalty_Charging>
0.695697

> <r_epik_Ionization_Penalty_Neutral>
0.00446266

> <r_epik_State_Penalty>
0.717972

> <r_epik_Charging_Adjusted_Penalty>
1.41367

> <i_epik_Tot_Q>
1

> <i_epik_Tot_abs_Q>
1

> <r_epik_Metal_State_Penalty>
1.06969

> <b_epik_Metal_Only>
0

> <s_lp_Force_Field>
OPLS_2005

> <r_lp_Energy>
18.8851

> <b_lp_Chiralities_Consistent>
1

> <s_lp_Variant>
AV-unprocessed.smi:2069-4

> <Gold.Version>
5.8.1

> <Gold.Id.Protein>
6NUR|6NUR_protein|mol2

> <Gold.PLP.Fitness>
43.6021

> <Gold.PLP.PLP>
-27.6794

> <Gold.PLP.part.hbond>
-6.0000

> <Gold.PLP.part.metal>
0.0000

> <Gold.PLP.part.buried>
-4.3968

> <Gold.PLP.part.nonpolar>
-18.1955

> <Gold.PLP.part.repulsive>
0.4433

> <Gold.PLP.ligand.clash>
0.0000

> <Gold.PLP.ligand.torsion>
0.6744

> <Gold.PLP.Chemscore.Hbond>
5.7420

> <Gold.PLP.Chemscore.CHOScore>
0.0000

> <Gold.PLP.Chemscore.Metal>
0.0000

> <Gold.Chemscore.Hbonds>
donor molecule, donor type, donor heavy atom, donor atom, acceptor molecule, acceptor atom, score
      L1  H     6    23       P1  7957  1.00
      L1  H     9    24       P1  7957  1.00
      L1  H    13    39       P1  7948  2.00
      P1  H  7989  7998       L1     4  1.00
      P1  H  7997  8008       L1     3  0.46

> <Gold.PLP.Chemscore.Internal.Correction>
0.0453

> <Gold.Rescore>
     Score         DG    S(hbond)    S(metal)    S(lipo)     H(rot)  DE(clash)    DE(int)     intcor
     17.57     -21.01       4.39        0.00      43.44       1.65       0.01       3.42       ----

> <Gold.Chemscore.Fitness>
17.5712

> <Gold.Chemscore.DG>
-21.0051

> <Gold.Chemscore.ZeroCoef>
-5.4800

> <Gold.Chemscore.Hbond>
4.3895

> <Gold.Chemscore.Metal>
0.0000

> <Gold.Chemscore.Lipo>
43.4363

> <Gold.Chemscore.Internal_Hbond>
0.0000

> <Gold.Chemscore.DEClash>
0.0106

> <Gold.Chemscore.DEInternal>
3.4232

> <Gold.Chemscore.Rot>
1.6476

> <Gold.Chemscore.Internal.Correction>
   9.000000E+99

> <Gold.Chemscore.Hbonds>
donor molecule, donor type, donor heavy atom, donor atom, acceptor molecule, acceptor atom, score
      L1  H     6    23       P1  7957  0.97
      L1  H     9    24       P1  7957  0.97
      L1  H    13    39       P1  7948  1.00
      P1  H  7989  7998       L1     4  0.30
      P1  H  7997  8008       L1     3  0.44

> <Gold.Chemscore.Hbond.Weighted>
-14.6609

> <Gold.Chemscore.Metal.Weighted>
-0.0000

> <Gold.Chemscore.Lipo.Weighted>
-5.0820

> <Gold.Chemscore.Internal_Hbond.Weighted>
0.0000

> <Gold.Chemscore.DEClash.Weighted>
0.0106

> <Gold.Chemscore.DEInternal.Weighted>
3.4232

> <Gold.Chemscore.Rot.Weighted>
4.2179

> <Gold.Chemscore.Internal.Correction.Weighted>
   9.000000E+99

> <Gold.Protein.RotatedTorsions>
[ 6907 6896 6895 6894 ] final   69.60 input  -60.11 | X-H torsion
[ 7974 7965 7964 7962 ] final   53.03 input  175.53 | X-H torsion
[ 8008 7997 7996 7995 ] final  -39.32 input   59.86 | X-H torsion
[ 10167 10162 10161 10158 ] final   87.16 input  -65.29 | X-H torsion
[ 10718 10713 10712 10709 ] final   72.73 input   66.30 | X-H torsion
[ 10763 10752 10751 10750 ] final    3.62 input  -60.55 | X-H torsion
[ 11005 11000 10999 10996 ] final  -20.88 input  -57.11 | X-H torsion

> <Gold.Protein.ActiveResidues>
 VAL166  LYS551  ARG553  GLY616  TRP617  ASP618  TYR619  PRO620  LYS621  CYS622 
 ASP623  PHE694  ASN695  SER759  ASP760  ASP761  ALA762  ILE779  LEU786  VAL792 
 PHE793  MET794  SER795  GLU796  ALA797  LYS798  CYS799  TRP800  GLU811  SER814 

> <Gold.Protein.RotatedAtoms>
  152.4696  134.4992  159.9719 H   0  0  0  0  0  0  0  0  0  0  0  0  # atno 6907 bound_to 6896
  151.5022  133.3496  159.2879 H   0  0  0  0  0  0  0  0  0  0  0  0  # atno 6908 bound_to 6896
  150.8699  134.8098  159.7208 H   0  0  0  0  0  0  0  0  0  0  0  0  # atno 6909 bound_to 6896
  145.9753  139.4189  143.0165 H   0  0  0  0  0  0  0  0  0  0  0  0  # atno 7974 bound_to 7965
  154.4024  140.1554  156.2844 H   0  0  0  0  0  0  0  0  0  0  0  0  # atno 8008 bound_to 7997
  155.8841  140.3442  155.5887 H   0  0  0  0  0  0  0  0  0  0  0  0  # atno 8009 bound_to 7997
  155.7633  140.0820  157.2135 H   0  0  0  0  0  0  0  0  0  0  0  0  # atno 8010 bound_to 7997
  139.8802  144.6444  150.8851 H   0  0  0  0  0  0  0  0  0  0  0  0  # atno 10167 bound_to 10162
  157.6514  130.9593  150.0969 H   0  0  0  0  0  0  0  0  0  0  0  0  # atno 10718 bound_to 10713
  153.2811  135.6940  153.7384 H   0  0  0  0  0  0  0  0  0  0  0  0  # atno 10763 bound_to 10752
  153.6371  135.3400  155.3061 H   0  0  0  0  0  0  0  0  0  0  0  0  # atno 10764 bound_to 10752
  154.8495  135.4423  154.1865 H   0  0  0  0  0  0  0  0  0  0  0  0  # atno 10765 bound_to 10752
  140.8507  133.7859  155.9963 H   0  0  0  0  0  0  0  0  0  0  0  0  # atno 11005 bound_to 11000
  145.7848  140.9840  143.1080 LP  0  0  0  0  0  0  0  0  0  0  0  0  # atno 17320 bound_to 7965
  144.6847  139.9609  143.7480 LP  0  0  0  0  0  0  0  0  0  0  0  0  # atno 17321 bound_to 7965
  140.7746  143.3592  151.1862 LP  0  0  0  0  0  0  0  0  0  0  0  0  # atno 17342 bound_to 10162
  139.7203  143.9234  152.2982 LP  0  0  0  0  0  0  0  0  0  0  0  0  # atno 17343 bound_to 10162
  156.1902  130.3654  149.8919 LP  0  0  0  0  0  0  0  0  0  0  0  0  # atno 17370 bound_to 10713
  156.6849  130.8873  151.3581 LP  0  0  0  0  0  0  0  0  0  0  0  0  # atno 17371 bound_to 10713
  140.8793  134.2631  157.5152 LP  0  0  0  0  0  0  0  0  0  0  0  0  # atno 17394 bound_to 11000
  139.8704  134.9607  156.4372 LP  0  0  0  0  0  0  0  0  0  0  0  0  # atno 17395 bound_to 11000

$$$$
