AV-unprocessed.smi:1145|AV-procd|sdf|4885|dock8
  -GOLD-   22720 3453D 1   1.00000     0.00000
 Structure written by MMmdl.
 36 37  0  0  0  0  0  0  0  0  1 V2000
  143.1576  136.7122  152.4560 C   0  0  0  0  0  0  0  0  0  0  0  0
  144.6855  136.7369  152.6460 C   0  0  1  0  0  0  0  0  0  0  0  0
  145.4609  136.3920  151.3586 C   0  0  0  0  0  0  0  0  0  0  0  0
  145.3740  134.9875  151.0022 N   0  0  0  0  0  0  0  0  0  0  0  0
  144.2770  134.2814  150.5545 C   0  0  0  0  0  0  0  0  0  0  0  0
  144.6817  132.9946  150.3420 C   0  0  0  0  0  0  0  0  0  0  0  0
  146.0617  133.0127  150.6883 C   0  0  0  0  0  0  0  0  0  0  0  0
  146.4737  134.2074  151.0805 N   0  0  0  0  0  0  0  0  0  0  0  0
  145.1131  138.0504  153.1201 N   0  0  0  0  0  0  0  0  0  0  0  0
  145.8854  138.2796  154.1939 C   0  0  0  0  0  0  0  0  0  0  0  0
  146.3208  137.3789  154.9116 O   0  0  0  0  0  0  0  0  0  0  0  0
  146.2237  139.7542  154.4864 C   0  0  1  0  0  0  0  0  0  0  0  0
  146.9426  139.9328  155.8364 C   0  0  0  0  0  0  0  0  0  0  0  0
  148.3855  139.3933  155.8319 C   0  0  0  0  0  0  0  0  0  0  0  0
  149.1731  139.7409  154.5597 C   0  0  0  0  0  0  0  0  0  0  0  0
  150.3963  139.6247  154.5571 O   0  0  0  0  0  0  0  0  0  0  0  0
  148.5023  140.1247  153.4592 N   0  0  0  0  0  0  0  0  0  0  0  0
  147.0686  140.4081  153.3698 C   0  0  0  0  0  0  0  0  0  0  0  0
  142.8076  135.7221  152.1635 H   0  0  0  0  0  0  0  0  0  0  0  0
  142.8433  137.4175  151.6861 H   0  0  0  0  0  0  0  0  0  0  0  0
  142.6403  136.9754  153.3790 H   0  0  0  0  0  0  0  0  0  0  0  0
  144.9467  135.9928  153.4010 H   0  0  0  0  0  0  0  0  0  0  0  0
  145.0843  136.9821  150.5217 H   0  0  0  0  0  0  0  0  0  0  0  0
  146.5150  136.6501  151.4713 H   0  0  0  0  0  0  0  0  0  0  0  0
  143.3112  134.7474  150.4278 H   0  0  0  0  0  0  0  0  0  0  0  0
  144.0840  132.1664  149.9914 H   0  0  0  0  0  0  0  0  0  0  0  0
  146.7722  132.1995  150.6644 H   0  0  0  0  0  0  0  0  0  0  0  0
  144.8008  138.8482  152.5860 H   0  0  0  0  0  0  0  0  0  0  0  0
  145.2764  140.2941  154.5353 H   0  0  0  0  0  0  0  0  0  0  0  0
  146.9618  140.9938  156.0891 H   0  0  0  0  0  0  0  0  0  0  0  0
  146.3745  139.4498  156.6324 H   0  0  0  0  0  0  0  0  0  0  0  0
  148.9231  139.7683  156.7033 H   0  0  0  0  0  0  0  0  0  0  0  0
  148.3724  138.3070  155.9250 H   0  0  0  0  0  0  0  0  0  0  0  0
  149.0455  140.3004  152.6265 H   0  0  0  0  0  0  0  0  0  0  0  0
  146.7121  140.1017  152.3855 H   0  0  0  0  0  0  0  0  0  0  0  0
  146.9452  141.4907  153.4119 H   0  0  0  0  0  0  0  0  0  0  0  0
  1  2  1  0  0  0  0
  1 19  1  0  0  0  0
  1 20  1  0  0  0  0
  1 21  1  0  0  0  0
  2  3  1  0  0  0  0
  2  9  1  0  0  0  0
  2 22  1  0  0  0  0
  3  4  1  0  0  0  0
  3 23  1  0  0  0  0
  3 24  1  0  0  0  0
  4  8  1  0  0  0  0
  4  5  1  0  0  0  0
  5  6  2  0  0  0  0
  5 25  1  0  0  0  0
  6  7  1  0  0  0  0
  6 26  1  0  0  0  0
  7  8  2  0  0  0  0
  7 27  1  0  0  0  0
  9 10  1  0  0  0  0
  9 28  1  0  0  0  0
 10 11  2  0  0  0  0
 10 12  1  0  0  0  0
 12 18  1  0  0  0  0
 12 13  1  0  0  0  0
 12 29  1  0  0  0  0
 13 14  1  0  0  0  0
 13 30  1  0  0  0  0
 13 31  1  0  0  0  0
 14 15  1  0  0  0  0
 14 32  1  0  0  0  0
 14 33  1  0  0  0  0
 15 16  2  0  0  0  0
 15 17  1  0  0  0  0
 17 18  1  0  0  0  0
 17 34  1  0  0  0  0
 18 35  1  0  0  0  0
 18 36  1  0  0  0  0
M  END
> <s_m_source_file>
AV-unprocessed.smi

> <i_m_source_file_index>
1145

> <i_lp_mmshare_version>
43012

> <i_f3d_flags>
0

> <s_epik_input>
bjFbY0hdW2NIXVtjSF1uMVtDSDJdW0NAQEhdKFtDSDNdKVtOSF1DKD1PKVtDQEBIXTJbQ0gyXVtDSDJdQyg9TylbTkhdW0NIMl0y

> <s_epik_cmdline>
J2VwaWtfcHl0aG9uJywgJy1waCcsICc3LjAnLCAnLXRuJywgJzgnLCAnLW1hJywgJzIwMCcsICctbWV0YWxfYmluZGluZycsICctaW1hZScsICc8aW5maWxlLm1hZT4nLCAnLW9tYWUnLCAnPG91dGZpbGUubWFlPic=

> <r_lp_tautomer_probability>
1

> <r_epik_Ionization_Penalty>
0.000314064

> <r_epik_Ionization_Penalty_Charging>
0

> <r_epik_Ionization_Penalty_Neutral>
0.000314064

> <r_epik_State_Penalty>
-0

> <r_epik_Charging_Adjusted_Penalty>
0

> <i_epik_Tot_Q>
0

> <i_epik_Tot_abs_Q>
0

> <r_epik_Metal_State_Penalty>
-0

> <b_epik_Metal_Only>
0

> <s_lp_Force_Field>
OPLS_2005

> <r_lp_Energy>
8.22521

> <b_lp_Chiralities_Consistent>
1

> <s_lp_Variant>
AV-unprocessed.smi:1145-4

> <Gold.Version>
5.8.1

> <Gold.Id.Protein>
6NUR|6NUR_protein|mol2

> <Gold.PLP.Fitness>
40.3576

> <Gold.PLP.PLP>
-26.0545

> <Gold.PLP.part.hbond>
-2.8566

> <Gold.PLP.part.metal>
0.0000

> <Gold.PLP.part.buried>
-5.8025

> <Gold.PLP.part.nonpolar>
-19.2032

> <Gold.PLP.part.repulsive>
0.5175

> <Gold.PLP.ligand.clash>
0.0000

> <Gold.PLP.ligand.torsion>
0.3552

> <Gold.PLP.Chemscore.Hbond>
2.9913

> <Gold.PLP.Chemscore.CHOScore>
2.0000

> <Gold.PLP.Chemscore.Metal>
0.0000

> <Gold.Chemscore.Hbonds>
donor molecule, donor type, donor heavy atom, donor atom, acceptor molecule, acceptor atom, score
      L1  H     9    28       P1 10175  0.98
      L1  H    17    34       P1  7957  1.00
      P1  H  7989  7998       L1    16  0.96
      L1  C     5    25       P1 10186  1.00
      L1  C     7    27       P1 10747  0.81

> <Gold.PLP.Chemscore.Internal.Correction>
0.0397

> <Gold.Rescore>
     Score         DG    S(hbond)    S(metal)    S(lipo)     H(rot)  DE(clash)    DE(int)     intcor
     15.02     -16.41       2.88        0.00      50.59       1.80       0.16       1.23       ----

> <Gold.Chemscore.Fitness>
15.0226

> <Gold.Chemscore.DG>
-16.4103

> <Gold.Chemscore.ZeroCoef>
-5.4800

> <Gold.Chemscore.Hbond>
2.8786

> <Gold.Chemscore.Metal>
0.0000

> <Gold.Chemscore.Lipo>
50.5926

> <Gold.Chemscore.Internal_Hbond>
0.0000

> <Gold.Chemscore.DEClash>
0.1557

> <Gold.Chemscore.DEInternal>
1.2320

> <Gold.Chemscore.Rot>
1.7982

> <Gold.Chemscore.Internal.Correction>
   9.000000E+99

> <Gold.Chemscore.Hbonds>
donor molecule, donor type, donor heavy atom, donor atom, acceptor molecule, acceptor atom, score
      L1  H     9    28       P1 10175  0.92
      L1  H    17    34       P1  7957  0.97
      P1  H  7989  7998       L1    16  0.91

> <Gold.Chemscore.Hbond.Weighted>
-9.6144

> <Gold.Chemscore.Metal.Weighted>
-0.0000

> <Gold.Chemscore.Lipo.Weighted>
-5.9193

> <Gold.Chemscore.Internal_Hbond.Weighted>
0.0000

> <Gold.Chemscore.DEClash.Weighted>
0.1557

> <Gold.Chemscore.DEInternal.Weighted>
1.2320

> <Gold.Chemscore.Rot.Weighted>
4.6035

> <Gold.Chemscore.Internal.Correction.Weighted>
   9.000000E+99

> <Gold.Protein.RotatedTorsions>
[ 6907 6896 6895 6894 ] final   -6.93 input  -60.11 | X-H torsion
[ 7974 7965 7964 7962 ] final  -74.25 input  175.53 | X-H torsion
[ 8008 7997 7996 7995 ] final    3.75 input   59.86 | X-H torsion
[ 10167 10162 10161 10158 ] final   63.61 input  -65.29 | X-H torsion
[ 10718 10713 10712 10709 ] final -117.80 input   66.30 | X-H torsion
[ 10763 10752 10751 10750 ] final -162.70 input  -60.55 | X-H torsion
[ 11005 11000 10999 10996 ] final    5.60 input  -57.11 | X-H torsion

> <Gold.Protein.ActiveResidues>
 VAL166  LYS551  ARG553  GLY616  TRP617  ASP618  TYR619  PRO620  LYS621  CYS622 
 ASP623  PHE694  ASN695  SER759  ASP760  ASP761  ALA762  ILE779  LEU786  VAL792 
 PHE793  MET794  SER795  GLU796  ALA797  LYS798  CYS799  TRP800  GLU811  SER814 

> <Gold.Protein.RotatedAtoms>
  151.4576  135.1035  159.9715 H   0  0  0  0  0  0  0  0  0  0  0  0  # atno 6907 bound_to 6896
  152.4865  133.8382  159.7149 H   0  0  0  0  0  0  0  0  0  0  0  0  # atno 6908 bound_to 6896
  150.8979  133.7097  159.2914 H   0  0  0  0  0  0  0  0  0  0  0  0  # atno 6909 bound_to 6896
  145.6416  140.9309  143.1033 H   0  0  0  0  0  0  0  0  0  0  0  0  # atno 7974 bound_to 7965
  154.7074  140.2685  155.6661 H   0  0  0  0  0  0  0  0  0  0  0  0  # atno 8008 bound_to 7997
  156.2784  140.2760  156.1629 H   0  0  0  0  0  0  0  0  0  0  0  0  # atno 8009 bound_to 7997
  155.0681  140.0372  157.2589 H   0  0  0  0  0  0  0  0  0  0  0  0  # atno 8010 bound_to 7997
  140.1311  144.4642  150.6864 H   0  0  0  0  0  0  0  0  0  0  0  0  # atno 10167 bound_to 10162
  156.1060  130.6211  150.9211 H   0  0  0  0  0  0  0  0  0  0  0  0  # atno 10718 bound_to 10713
  154.7190  135.3021  154.9078 H   0  0  0  0  0  0  0  0  0  0  0  0  # atno 10763 bound_to 10752
  153.9956  135.6713  153.4760 H   0  0  0  0  0  0  0  0  0  0  0  0  # atno 10764 bound_to 10752
  153.0818  135.5005  154.8434 H   0  0  0  0  0  0  0  0  0  0  0  0  # atno 10765 bound_to 10752
  140.5689  134.0121  155.8001 H   0  0  0  0  0  0  0  0  0  0  0  0  # atno 11005 bound_to 11000
  144.7155  139.8212  143.7400 LP  0  0  0  0  0  0  0  0  0  0  0  0  # atno 17320 bound_to 7965
  146.1276  139.4305  143.0189 LP  0  0  0  0  0  0  0  0  0  0  0  0  # atno 17321 bound_to 7965
  140.6816  143.2329  151.5369 LP  0  0  0  0  0  0  0  0  0  0  0  0  # atno 17342 bound_to 10162
  139.5519  144.2374  152.1545 LP  0  0  0  0  0  0  0  0  0  0  0  0  # atno 17343 bound_to 10162
  157.6237  131.0927  150.8574 LP  0  0  0  0  0  0  0  0  0  0  0  0  # atno 17370 bound_to 10713
  156.8693  130.5140  149.5298 LP  0  0  0  0  0  0  0  0  0  0  0  0  # atno 17371 bound_to 10713
  141.1068  133.9680  157.2982 LP  0  0  0  0  0  0  0  0  0  0  0  0  # atno 17394 bound_to 11000
  139.9371  135.0195  156.8592 LP  0  0  0  0  0  0  0  0  0  0  0  0  # atno 17395 bound_to 11000

$$$$
