AV-unprocessed.smi:1240|AV-procd|sdf|5199|dock4
  -GOLD-   22720 4283D 1   1.00000     0.00000
 Structure written by MMmdl.
 48 50  0  0  0  0  0  0  0  0  2 V2000
  144.5734  136.7754  152.1560 O   0  0  0  0  0  0  0  0  0  0  0  0
  145.7767  136.5628  152.0102 C   0  0  0  0  0  0  0  0  0  0  0  0
  146.7278  137.4331  152.3752 N   0  0  0  0  0  0  0  0  0  0  0  0
  146.4847  138.7151  153.0261 C   0  0  0  0  0  0  0  0  0  0  0  0
  146.7718  138.6708  154.5510 C   0  0  2  0  0  0  0  0  0  0  0  0
  145.6827  139.3719  155.4130 C   0  0  2  0  0  0  0  0  0  0  0  0
  145.9112  139.2634  156.9126 C   0  0  0  0  0  0  0  0  0  0  0  0
  144.5390  139.6125  157.4712 C   0  0  0  0  0  0  0  0  0  0  0  0
  143.6172  139.0437  156.5521 O   0  0  0  0  0  0  0  0  0  0  0  0
  144.2641  138.7921  155.3080 C   0  0  0  0  0  0  0  0  0  0  0  0
  148.1171  139.2324  154.8799 N   0  3  0  0  0  0  0  0  0  0  0  0
  149.2412  138.5726  154.1717 C   0  0  0  0  0  0  0  0  0  0  0  0
  150.5842  139.0820  154.7226 C   0  0  0  0  0  0  0  0  0  0  0  0
  150.6460  140.4987  154.6062 O   0  0  0  0  0  0  0  0  0  0  0  0
  149.6173  141.1433  155.3483 C   0  0  0  0  0  0  0  0  0  0  0  0
  148.2456  140.7105  154.8060 C   0  0  0  0  0  0  0  0  0  0  0  0
  146.3169  135.4591  151.4649 N   0  0  0  0  0  0  0  0  0  0  0  0
  145.6709  134.2785  151.0064 C   0  0  0  0  0  0  0  0  0  0  0  0
  146.4791  133.1533  150.7429 C   0  0  0  0  0  0  0  0  0  0  0  0
  145.8657  131.9628  150.3047 C   0  0  0  0  0  0  0  0  0  0  0  0
  144.5336  131.8357  150.1299 N   0  0  0  0  0  0  0  0  0  0  0  0
  143.7596  132.9094  150.3952 C   0  0  0  0  0  0  0  0  0  0  0  0
  144.2712  134.1463  150.8370 C   0  0  0  0  0  0  0  0  0  0  0  0
  147.6909  137.1819  152.2058 H   0  0  0  0  0  0  0  0  0  0  0  0
  147.1169  139.4529  152.5327 H   0  0  0  0  0  0  0  0  0  0  0  0
  145.4514  139.0206  152.8548 H   0  0  0  0  0  0  0  0  0  0  0  0
  146.7890  137.6234  154.8574 H   0  0  0  0  0  0  0  0  0  0  0  0
  145.6315  140.4300  155.1525 H   0  0  0  0  0  0  0  0  0  0  0  0
  146.1773  138.2416  157.1873 H   0  0  0  0  0  0  0  0  0  0  0  0
  146.6906  139.9314  157.2807 H   0  0  0  0  0  0  0  0  0  0  0  0
  144.3858  139.2325  158.4814 H   0  0  0  0  0  0  0  0  0  0  0  0
  144.3980  140.6939  157.4876 H   0  0  0  0  0  0  0  0  0  0  0  0
  143.6968  139.2343  154.4887 H   0  0  0  0  0  0  0  0  0  0  0  0
  144.2912  137.7123  155.1564 H   0  0  0  0  0  0  0  0  0  0  0  0
  149.1826  137.4913  154.3002 H   0  0  0  0  0  0  0  0  0  0  0  0
  149.1823  138.7735  153.1017 H   0  0  0  0  0  0  0  0  0  0  0  0
  150.7155  138.7858  155.7647 H   0  0  0  0  0  0  0  0  0  0  0  0
  151.4106  138.6452  154.1616 H   0  0  0  0  0  0  0  0  0  0  0  0
  149.7106  140.9038  156.4089 H   0  0  0  0  0  0  0  0  0  0  0  0
  149.7357  142.2228  155.2532 H   0  0  0  0  0  0  0  0  0  0  0  0
  148.1456  141.0494  153.7744 H   0  0  0  0  0  0  0  0  0  0  0  0
  147.4582  141.1935  155.3840 H   0  0  0  0  0  0  0  0  0  0  0  0
  147.3185  135.4732  151.3404 H   0  0  0  0  0  0  0  0  0  0  0  0
  147.5511  133.1971  150.8690 H   0  0  0  0  0  0  0  0  0  0  0  0
  146.4621  131.0881  150.0915 H   0  0  0  0  0  0  0  0  0  0  0  0
  142.6967  132.7772  150.2575 H   0  0  0  0  0  0  0  0  0  0  0  0
  143.5839  134.9509  151.0451 H   0  0  0  0  0  0  0  0  0  0  0  0
  148.2569  138.9995  155.8527 H   0  0  0  0  0  0  0  0  0  0  0  0
  1  2  2  0  0  0  0
  2  3  1  0  0  0  0
  2 17  1  0  0  0  0
  3  4  1  0  0  0  0
  3 24  1  0  0  0  0
  4  5  1  0  0  0  0
  4 25  1  0  0  0  0
  4 26  1  0  0  0  0
  5  6  1  0  0  0  0
  5 11  1  0  0  0  0
  5 27  1  0  0  0  0
  6 10  1  0  0  0  0
  6  7  1  0  0  0  0
  6 28  1  0  0  0  0
  7  8  1  0  0  0  0
  7 29  1  0  0  0  0
  7 30  1  0  0  0  0
  8  9  1  0  0  0  0
  8 31  1  0  0  0  0
  8 32  1  0  0  0  0
  9 10  1  0  0  0  0
 10 33  1  0  0  0  0
 10 34  1  0  0  0  0
 11 16  1  0  0  0  0
 11 12  1  0  0  0  0
 11 48  1  0  0  0  0
 12 13  1  0  0  0  0
 12 35  1  0  0  0  0
 12 36  1  0  0  0  0
 13 14  1  0  0  0  0
 13 37  1  0  0  0  0
 13 38  1  0  0  0  0
 14 15  1  0  0  0  0
 15 16  1  0  0  0  0
 15 39  1  0  0  0  0
 15 40  1  0  0  0  0
 16 41  1  0  0  0  0
 16 42  1  0  0  0  0
 17 18  1  0  0  0  0
 17 43  1  0  0  0  0
 18 23  1  0  0  0  0
 18 19  2  0  0  0  0
 19 20  1  0  0  0  0
 19 44  1  0  0  0  0
 20 21  2  0  0  0  0
 20 45  1  0  0  0  0
 21 22  1  0  0  0  0
 22 23  2  0  0  0  0
 22 46  1  0  0  0  0
 23 47  1  0  0  0  0
M  CHG  1  11   1
M  END
> <s_m_source_file>
AV-unprocessed.smi

> <i_m_source_file_index>
1240

> <i_lp_mmshare_version>
43012

> <i_f3d_flags>
0

> <s_epik_input>
W2NIXTFbY0hdbltjSF1bY0hdYzFbTkhdQyg9TylbTkhdW0NIMl1bQ0BIXShbQ0BASF0yW0NIMl1bQ0gyXU9bQ0gyXTIpTjNbQ0gyXVtDSDJdT1tDSDJdW0NIMl0z

> <s_epik_cmdline>
J2VwaWtfcHl0aG9uJywgJy1waCcsICc3LjAnLCAnLXRuJywgJzgnLCAnLW1hJywgJzIwMCcsICctbWV0YWxfYmluZGluZycsICctaW1hZScsICc8aW5maWxlLm1hZT4nLCAnLW9tYWUnLCAnPG91dGZpbGUubWFlPic=

> <r_epik_Ionization_Penalty>
1.08433

> <r_epik_Ionization_Penalty_Charging>
0.98326

> <r_epik_Ionization_Penalty_Neutral>
0.10107

> <r_epik_State_Penalty>
1.11265

> <r_epik_Charging_Adjusted_Penalty>
2.09591

> <i_epik_Tot_Q>
1

> <i_epik_Tot_abs_Q>
1

> <r_epik_Metal_State_Penalty>
1.10731

> <b_epik_Metal_Only>
0

> <s_lp_Force_Field>
OPLS_2005

> <r_lp_Energy>
43.6027

> <b_lp_Chiralities_Consistent>
1

> <s_lp_Variant>
AV-unprocessed.smi:1240-5

> <Gold.Version>
5.8.1

> <Gold.Id.Protein>
6NUR|6NUR_protein|mol2

> <Gold.PLP.Fitness>
44.2978

> <Gold.PLP.PLP>
-30.8825

> <Gold.PLP.part.hbond>
-2.9926

> <Gold.PLP.part.metal>
0.0000

> <Gold.PLP.part.buried>
-4.9200

> <Gold.PLP.part.nonpolar>
-24.6513

> <Gold.PLP.part.repulsive>
1.1515

> <Gold.PLP.ligand.clash>
0.0000

> <Gold.PLP.ligand.torsion>
0.8287

> <Gold.PLP.Chemscore.Hbond>
2.9760

> <Gold.PLP.Chemscore.CHOScore>
1.9667

> <Gold.PLP.Chemscore.Metal>
0.0000

> <Gold.Chemscore.Hbonds>
donor molecule, donor type, donor heavy atom, donor atom, acceptor molecule, acceptor atom, score
      L1  H     3    24       P1  7948  1.00
      L1  H    17    43       P1  7948  0.98
      P1  H  7989  7998       L1    14  0.99
      L1  C    20    45       P1 10747  0.96
      L1  C    22    46       P1 10186  0.99

> <Gold.PLP.Chemscore.Internal.Correction>
0.2446

> <Gold.Rescore>
     Score         DG    S(hbond)    S(metal)    S(lipo)     H(rot)  DE(clash)    DE(int)     intcor
     16.79     -18.89       2.85        0.00      70.40       1.70       0.08       2.02       ----

> <Gold.Chemscore.Fitness>
16.7930

> <Gold.Chemscore.DG>
-18.8875

> <Gold.Chemscore.ZeroCoef>
-5.4800

> <Gold.Chemscore.Hbond>
2.8527

> <Gold.Chemscore.Metal>
0.0000

> <Gold.Chemscore.Lipo>
70.4004

> <Gold.Chemscore.Internal_Hbond>
0.0000

> <Gold.Chemscore.DEClash>
0.0758

> <Gold.Chemscore.DEInternal>
2.0187

> <Gold.Chemscore.Rot>
1.7021

> <Gold.Chemscore.Internal.Correction>
   9.000000E+99

> <Gold.Chemscore.Hbonds>
donor molecule, donor type, donor heavy atom, donor atom, acceptor molecule, acceptor atom, score
      L1  H     3    24       P1  7948  0.98
      L1  H    17    43       P1  7948  0.82
      P1  H  7989  7998       L1    14  0.67

> <Gold.Chemscore.Hbond.Weighted>
-9.5282

> <Gold.Chemscore.Metal.Weighted>
-0.0000

> <Gold.Chemscore.Lipo.Weighted>
-8.2369

> <Gold.Chemscore.Internal_Hbond.Weighted>
0.0000

> <Gold.Chemscore.DEClash.Weighted>
0.0758

> <Gold.Chemscore.DEInternal.Weighted>
2.0187

> <Gold.Chemscore.Rot.Weighted>
4.3575

> <Gold.Chemscore.Internal.Correction.Weighted>
   9.000000E+99

> <Gold.Protein.RotatedTorsions>
[ 6907 6896 6895 6894 ] final   32.84 input  -60.11 | X-H torsion
[ 7974 7965 7964 7962 ] final  -58.54 input  175.53 | X-H torsion
[ 8008 7997 7996 7995 ] final  -27.30 input   59.86 | X-H torsion
[ 10167 10162 10161 10158 ] final   -8.81 input  -65.29 | X-H torsion
[ 10718 10713 10712 10709 ] final   -8.52 input   66.30 | X-H torsion
[ 10763 10752 10751 10750 ] final   67.15 input  -60.55 | X-H torsion
[ 11005 11000 10999 10996 ] final -167.40 input  -57.11 | X-H torsion

> <Gold.Protein.ActiveResidues>
 VAL166  LYS551  ARG553  GLY616  TRP617  ASP618  TYR619  PRO620  LYS621  CYS622 
 ASP623  PHE694  ASN695  SER759  ASP760  ASP761  ALA762  ILE779  LEU786  VAL792 
 PHE793  MET794  SER795  GLU796  ALA797  LYS798  CYS799  TRP800  GLU811  SER814 

> <Gold.Protein.RotatedAtoms>
  152.0802  134.9476  160.0573 H   0  0  0  0  0  0  0  0  0  0  0  0  # atno 6907 bound_to 6896
  152.0768  133.4128  159.4491 H   0  0  0  0  0  0  0  0  0  0  0  0  # atno 6908 bound_to 6896
  150.6836  134.2948  159.4725 H   0  0  0  0  0  0  0  0  0  0  0  0  # atno 6909 bound_to 6896
  145.8381  140.8435  143.0049 H   0  0  0  0  0  0  0  0  0  0  0  0  # atno 7974 bound_to 7965
  154.4384  140.1876  156.0910 H   0  0  0  0  0  0  0  0  0  0  0  0  # atno 8008 bound_to 7997
  156.0365  140.3324  155.7171 H   0  0  0  0  0  0  0  0  0  0  0  0  # atno 8009 bound_to 7997
  155.5762  140.0617  157.2785 H   0  0  0  0  0  0  0  0  0  0  0  0  # atno 8010 bound_to 7997
  140.7069  143.5928  150.8877 H   0  0  0  0  0  0  0  0  0  0  0  0  # atno 10167 bound_to 10162
  156.7013  130.5094  149.5916 H   0  0  0  0  0  0  0  0  0  0  0  0  # atno 10718 bound_to 10713
  153.0172  135.5294  154.6934 H   0  0  0  0  0  0  0  0  0  0  0  0  # atno 10763 bound_to 10752
  154.6063  135.2873  155.0483 H   0  0  0  0  0  0  0  0  0  0  0  0  # atno 10764 bound_to 10752
  154.1522  135.6561  153.5018 H   0  0  0  0  0  0  0  0  0  0  0  0  # atno 10765 bound_to 10752
  140.5537  134.5403  157.5128 H   0  0  0  0  0  0  0  0  0  0  0  0  # atno 11005 bound_to 11000
  144.6735  140.0771  143.7471 LP  0  0  0  0  0  0  0  0  0  0  0  0  # atno 17320 bound_to 7965
  145.9496  139.2724  143.1220 LP  0  0  0  0  0  0  0  0  0  0  0  0  # atno 17321 bound_to 7965
  139.9653  143.6118  152.2990 LP  0  0  0  0  0  0  0  0  0  0  0  0  # atno 17342 bound_to 10162
  139.6685  144.7661  151.1828 LP  0  0  0  0  0  0  0  0  0  0  0  0  # atno 17343 bound_to 10162
  156.1726  130.6447  151.0856 LP  0  0  0  0  0  0  0  0  0  0  0  0  # atno 17370 bound_to 10713
  157.6972  131.0790  150.6933 LP  0  0  0  0  0  0  0  0  0  0  0  0  # atno 17371 bound_to 10713
  139.9442  134.7731  156.0602 LP  0  0  0  0  0  0  0  0  0  0  0  0  # atno 17394 bound_to 11000
  141.1156  133.6629  156.3087 LP  0  0  0  0  0  0  0  0  0  0  0  0  # atno 17395 bound_to 11000

$$$$
