AV-unprocessed.smi:264|AV-procd|sdf|2010|dock5
  -GOLD-   2262021203D 1   1.00000     0.00000
 Structure written by MMmdl.
 52 56  0  0  0  0  0  0  0  0  1 V2000
  152.8064  141.6358  159.6104 C   0  0  0  0  0  0  0  0  0  0  0  0
  151.8011  142.7901  159.4778 C   0  0  1  0  0  0  0  0  0  0  0  0
  152.4414  143.9799  159.9313 O   0  0  0  0  0  0  0  0  0  0  0  0
  151.8851  145.0871  159.2453 C   0  0  0  0  0  0  0  0  0  0  0  0
  151.7404  144.5519  157.8292 C   0  0  0  0  0  0  0  0  0  0  0  0
  151.2827  143.1113  158.0472 C   0  0  2  0  0  0  0  0  0  0  0  0
  149.8657  143.1106  158.0930 O   0  0  0  0  0  0  0  0  0  0  0  0
  151.7294  142.1443  156.9188 C   0  0  0  0  0  0  0  0  0  0  0  0
  150.9971  140.8871  156.9131 N   0  0  0  0  0  0  0  0  0  0  0  0
  150.9512  139.9532  157.9236 C   0  0  0  0  0  0  0  0  0  0  0  0
  150.2275  138.8968  157.6726 N   0  0  0  0  0  0  0  0  0  0  0  0
  149.7319  139.1206  156.3932 C   0  0  0  0  0  0  0  0  0  0  0  0
  148.8857  138.3856  155.5156 C   0  0  0  0  0  0  0  0  0  0  0  0
  148.3843  137.1661  155.8356 N   0  0  0  0  0  0  0  0  0  0  0  0
  147.2481  136.6640  155.0710 C   0  0  0  0  0  0  0  0  0  0  0  0
  146.6286  135.4568  155.7894 C   0  0  0  0  0  0  0  0  0  0  0  0
  147.6235  134.4660  156.0451 O   0  0  0  0  0  0  0  0  0  0  0  0
  148.7582  134.9194  156.7946 C   0  0  1  0  0  0  0  0  0  0  0  0
  148.4260  135.1512  158.2658 C   0  0  0  0  0  0  0  0  0  0  0  0
  148.4465  133.7367  158.8242 C   0  0  0  0  0  0  0  0  0  0  0  0
  149.5517  133.1340  158.1696 O   0  0  0  0  0  0  0  0  0  0  0  0
  149.7312  133.7319  156.8874 C   0  0  0  0  0  0  0  0  0  0  0  0
  149.3884  136.1398  156.0911 C   0  0  0  0  0  0  0  0  0  0  0  0
  148.5877  138.9513  154.3150 N   0  0  0  0  0  0  0  0  0  0  0  0
  149.0902  140.1455  153.9880 C   0  0  0  0  0  0  0  0  0  0  0  0
  149.8969  140.9344  154.6999 N   0  0  0  0  0  0  0  0  0  0  0  0
  150.1944  140.3764  155.9080 C   0  0  0  0  0  0  0  0  0  0  0  0
  152.3718  140.6892  159.2891 H   0  0  0  0  0  0  0  0  0  0  0  0
  153.1157  141.5150  160.6487 H   0  0  0  0  0  0  0  0  0  0  0  0
  153.7061  141.8176  159.0223 H   0  0  0  0  0  0  0  0  0  0  0  0
  150.9634  142.5935  160.1500 H   0  0  0  0  0  0  0  0  0  0  0  0
  150.9141  145.3403  159.6739 H   0  0  0  0  0  0  0  0  0  0  0  0
  152.5311  145.9634  159.3025 H   0  0  0  0  0  0  0  0  0  0  0  0
  151.0620  145.1437  157.2127 H   0  0  0  0  0  0  0  0  0  0  0  0
  152.7205  144.5657  157.3507 H   0  0  0  0  0  0  0  0  0  0  0  0
  149.5434  143.6995  157.4283 H   0  0  0  0  0  0  0  0  0  0  0  0
  151.5929  142.6081  155.9415 H   0  0  0  0  0  0  0  0  0  0  0  0
  152.7927  141.9184  157.0084 H   0  0  0  0  0  0  0  0  0  0  0  0
  151.4790  140.0780  158.8579 H   0  0  0  0  0  0  0  0  0  0  0  0
  146.4958  137.4446  154.9504 H   0  0  0  0  0  0  0  0  0  0  0  0
  147.5814  136.3734  154.0736 H   0  0  0  0  0  0  0  0  0  0  0  0
  146.1426  135.7669  156.7137 H   0  0  0  0  0  0  0  0  0  0  0  0
  145.8496  135.0153  155.1678 H   0  0  0  0  0  0  0  0  0  0  0  0
  149.2152  135.7364  158.7403 H   0  0  0  0  0  0  0  0  0  0  0  0
  147.4852  135.6676  158.4488 H   0  0  0  0  0  0  0  0  0  0  0  0
  148.5585  133.7106  159.9081 H   0  0  0  0  0  0  0  0  0  0  0  0
  147.5330  133.2026  158.5583 H   0  0  0  0  0  0  0  0  0  0  0  0
  149.5680  133.0037  156.0923 H   0  0  0  0  0  0  0  0  0  0  0  0
  150.7683  134.0625  156.8196 H   0  0  0  0  0  0  0  0  0  0  0  0
  149.8112  135.8330  155.1334 H   0  0  0  0  0  0  0  0  0  0  0  0
  150.2180  136.5225  156.6848 H   0  0  0  0  0  0  0  0  0  0  0  0
  148.8065  140.5223  153.0165 H   0  0  0  0  0  0  0  0  0  0  0  0
  1  2  1  0  0  0  0
  1 28  1  0  0  0  0
  1 29  1  0  0  0  0
  1 30  1  0  0  0  0
  2  6  1  0  0  0  0
  2  3  1  0  0  0  0
  2 31  1  0  0  0  0
  3  4  1  0  0  0  0
  4  5  1  0  0  0  0
  4 32  1  0  0  0  0
  4 33  1  0  0  0  0
  5  6  1  0  0  0  0
  5 34  1  0  0  0  0
  5 35  1  0  0  0  0
  6  7  1  0  0  0  0
  6  8  1  0  0  0  0
  7 36  1  0  0  0  0
  8  9  1  0  0  0  0
  8 37  1  0  0  0  0
  8 38  1  0  0  0  0
  9 27  1  0  0  0  0
  9 10  1  0  0  0  0
 10 11  2  0  0  0  0
 10 39  1  0  0  0  0
 11 12  1  0  0  0  0
 12 27  2  0  0  0  0
 12 13  1  0  0  0  0
 13 14  1  0  0  0  0
 13 24  2  0  0  0  0
 14 23  1  0  0  0  0
 14 15  1  0  0  0  0
 15 16  1  0  0  0  0
 15 40  1  0  0  0  0
 15 41  1  0  0  0  0
 16 17  1  0  0  0  0
 16 42  1  0  0  0  0
 16 43  1  0  0  0  0
 17 18  1  0  0  0  0
 18 22  1  0  0  0  0
 18 19  1  0  0  0  0
 18 23  1  0  0  0  0
 19 20  1  0  0  0  0
 19 44  1  0  0  0  0
 19 45  1  0  0  0  0
 20 21  1  0  0  0  0
 20 46  1  0  0  0  0
 20 47  1  0  0  0  0
 21 22  1  0  0  0  0
 22 48  1  0  0  0  0
 22 49  1  0  0  0  0
 23 50  1  0  0  0  0
 23 51  1  0  0  0  0
 24 25  1  0  0  0  0
 25 26  2  0  0  0  0
 25 52  1  0  0  0  0
 26 27  1  0  0  0  0
M  END
> <s_m_source_file>
AV-unprocessed.smi

> <i_m_source_file_index>
264

> <i_lp_mmshare_version>
43012

> <i_f3d_flags>
0

> <s_epik_input>
W0NIMl0xW0NIMl1PW0NAQEhdKFtDSDNdKVtDQEBdMShbT0hdKVtDSDJdbihbY0hdbjIpYyhjMjMpbltjSF1uYzNOKFtDSDJdNClbQ0gyXVtDSDJdT1tDQF00NVtDSDJdW0NIMl1PW0NIMl01

> <s_epik_cmdline>
J2VwaWtfcHl0aG9uJywgJy1waCcsICc3LjAnLCAnLXRuJywgJzgnLCAnLW1hJywgJzIwMCcsICctbWV0YWxfYmluZGluZycsICctaW1hZScsICc8aW5maWxlLm1hZT4nLCAnLW9tYWUnLCAnPG91dGZpbGUubWFlPic=

> <r_lp_tautomer_probability>
1

> <r_epik_Ionization_Penalty>
0.00539389

> <r_epik_Ionization_Penalty_Charging>
0

> <r_epik_Ionization_Penalty_Neutral>
0.00539389

> <r_epik_State_Penalty>
0.00375441

> <r_epik_Charging_Adjusted_Penalty>
0.00375441

> <i_epik_Tot_Q>
0

> <i_epik_Tot_abs_Q>
0

> <r_epik_Metal_State_Penalty>
-0

> <b_epik_Metal_Only>
0

> <s_lp_Force_Field>
OPLS_2005

> <r_lp_Energy>
53.4902

> <b_lp_Chiralities_Consistent>
1

> <s_lp_Variant>
AV-unprocessed.smi:264-4

> <Gold.Version>
5.8.1

> <Gold.Id.Protein>
6NUR|6NUR_protein|mol2

> <Gold.PLP.Fitness>
41.4293

> <Gold.PLP.PLP>
-31.1922

> <Gold.PLP.part.hbond>
-3.0000

> <Gold.PLP.part.metal>
0.0000

> <Gold.PLP.part.buried>
-4.0684

> <Gold.PLP.part.nonpolar>
-24.4509

> <Gold.PLP.part.repulsive>
0.3338

> <Gold.PLP.ligand.clash>
0.0000

> <Gold.PLP.ligand.torsion>
0.4322

> <Gold.PLP.Chemscore.Hbond>
2.6076

> <Gold.PLP.Chemscore.CHOScore>
1.0000

> <Gold.PLP.Chemscore.Metal>
0.0000

> <Gold.Chemscore.Hbonds>
donor molecule, donor type, donor heavy atom, donor atom, acceptor molecule, acceptor atom, score
      L1  H     7    36       P1  8028  0.76
      P1  H  6896  6909       L1    21  0.75
      P1  H  7989  7998       L1    26  0.56
      L1  C    25    52       P1  7957  0.98

> <Gold.PLP.Chemscore.Internal.Correction>
0.2787

> <Gold.Rescore>
     Score         DG    S(hbond)    S(metal)    S(lipo)     H(rot)  DE(clash)    DE(int)     intcor
     11.34     -15.20       1.62        0.00      83.09       2.11       2.64       1.22       ----

> <Gold.Chemscore.Fitness>
11.3398

> <Gold.Chemscore.DG>
-15.2046

> <Gold.Chemscore.ZeroCoef>
-5.4800

> <Gold.Chemscore.Hbond>
1.6152

> <Gold.Chemscore.Metal>
0.0000

> <Gold.Chemscore.Lipo>
83.0944

> <Gold.Chemscore.Internal_Hbond>
0.0000

> <Gold.Chemscore.DEClash>
2.6418

> <Gold.Chemscore.DEInternal>
1.2230

> <Gold.Chemscore.Rot>
2.1063

> <Gold.Chemscore.Internal.Correction>
   9.000000E+99

> <Gold.Chemscore.Hbonds>
donor molecule, donor type, donor heavy atom, donor atom, acceptor molecule, acceptor atom, score
      L1  H     7    36       P1  8028  0.45
      P1  H  6896  6909       L1    21  0.06
      P1  H  7989  7998       L1    26  0.10

> <Gold.Chemscore.Hbond.Weighted>
-5.3947

> <Gold.Chemscore.Metal.Weighted>
-0.0000

> <Gold.Chemscore.Lipo.Weighted>
-9.7220

> <Gold.Chemscore.Internal_Hbond.Weighted>
0.0000

> <Gold.Chemscore.DEClash.Weighted>
2.6418

> <Gold.Chemscore.DEInternal.Weighted>
1.2230

> <Gold.Chemscore.Rot.Weighted>
5.3921

> <Gold.Chemscore.Internal.Correction.Weighted>
   9.000000E+99

> <Gold.Protein.RotatedTorsions>
[ 6907 6896 6895 6894 ] final    2.57 input  -60.11 | X-H torsion
[ 7974 7965 7964 7962 ] final  -76.27 input  175.53 | X-H torsion
[ 8008 7997 7996 7995 ] final   78.03 input   59.86 | X-H torsion
[ 10167 10162 10161 10158 ] final  -92.13 input  -65.29 | X-H torsion
[ 10718 10713 10712 10709 ] final   94.48 input   66.30 | X-H torsion
[ 10763 10752 10751 10750 ] final  106.49 input  -60.55 | X-H torsion
[ 11005 11000 10999 10996 ] final  -53.70 input  -57.11 | X-H torsion

> <Gold.Protein.ActiveResidues>
 VAL166  LYS551  ARG553  GLY616  TRP617  ASP618  TYR619  PRO620  LYS621  CYS622 
 ASP623  PHE694  ASN695  SER759  ASP760  ASP761  ALA762  ILE779  LEU786  VAL792 
 PHE793  MET794  SER795  GLU796  ALA797  LYS798  CYS799  TRP800  GLU811  SER814 

> <Gold.Protein.RotatedAtoms>
  151.6110  135.1040  160.0080 H   0  0  0  0  0  0  0  0  0  0  0  0  # atno 6907 bound_to 6896
  152.4208  133.7109  159.6489 H   0  0  0  0  0  0  0  0  0  0  0  0  # atno 6908 bound_to 6896
  150.8096  133.8374  159.3210 H   0  0  0  0  0  0  0  0  0  0  0  0  # atno 6909 bound_to 6896
  145.6150  140.9377  143.1169 H   0  0  0  0  0  0  0  0  0  0  0  0  # atno 7974 bound_to 7965
  155.8500  140.3458  155.5687 H   0  0  0  0  0  0  0  0  0  0  0  0  # atno 8008 bound_to 7997
  155.8048  140.0890  157.1957 H   0  0  0  0  0  0  0  0  0  0  0  0  # atno 8009 bound_to 7997
  154.4007  140.1459  156.3304 H   0  0  0  0  0  0  0  0  0  0  0  0  # atno 8010 bound_to 7997
  140.3380  143.2958  151.9868 H   0  0  0  0  0  0  0  0  0  0  0  0  # atno 10167 bound_to 10162
  157.6947  131.0513  150.4192 H   0  0  0  0  0  0  0  0  0  0  0  0  # atno 10718 bound_to 10713
  153.3937  135.3875  155.1940 H   0  0  0  0  0  0  0  0  0  0  0  0  # atno 10763 bound_to 10752
  154.8722  135.3754  154.4705 H   0  0  0  0  0  0  0  0  0  0  0  0  # atno 10764 bound_to 10752
  153.5195  135.7087  153.5800 H   0  0  0  0  0  0  0  0  0  0  0  0  # atno 10765 bound_to 10752
  141.0989  133.6620  156.4211 H   0  0  0  0  0  0  0  0  0  0  0  0  # atno 11005 bound_to 11000
  144.7254  139.7893  143.7367 LP  0  0  0  0  0  0  0  0  0  0  0  0  # atno 17320 bound_to 7965
  146.1475  139.4548  143.0070 LP  0  0  0  0  0  0  0  0  0  0  0  0  # atno 17321 bound_to 7965
  139.4845  144.6181  151.7308 LP  0  0  0  0  0  0  0  0  0  0  0  0  # atno 17342 bound_to 10162
  140.5336  144.0691  150.6062 LP  0  0  0  0  0  0  0  0  0  0  0  0  # atno 17343 bound_to 10162
  156.4569  130.4023  149.6601 LP  0  0  0  0  0  0  0  0  0  0  0  0  # atno 17370 bound_to 10713
  156.3730  130.7540  151.2525 LP  0  0  0  0  0  0  0  0  0  0  0  0  # atno 17371 bound_to 10713
  140.5071  134.6431  157.5270 LP  0  0  0  0  0  0  0  0  0  0  0  0  # atno 17394 bound_to 11000
  139.9834  134.7100  155.9817 LP  0  0  0  0  0  0  0  0  0  0  0  0  # atno 17395 bound_to 11000

$$$$
