AV-unprocessed.smi:1978|AV-procd|sdf|8001|dock2
  -GOLD-   2272010183D 1   1.00000     0.00000
 Structure written by MMmdl.
 44 45  0  0  0  0  0  0  0  0  3 V2000
  150.9644  141.2373  156.0814 C   0  0  0  0  0  0  0  0  0  0  0  0
  151.3588  139.8420  155.7357 C   0  0  0  0  0  0  0  0  0  0  0  0
  150.6476  138.7562  155.3100 C   0  0  0  0  0  0  0  0  0  0  0  0
  151.6419  137.7487  155.1767 C   0  0  0  0  0  0  0  0  0  0  0  0
  151.4367  136.4875  154.7669 N   0  5  0  0  0  0  0  0  0  0  0  0
  150.4235  135.7589  155.2871 C   0  0  0  0  0  0  0  0  0  0  0  0
  150.4103  135.2021  156.3874 O   0  0  0  0  0  0  0  0  0  0  0  0
  149.3525  135.6766  154.4846 N   0  0  0  0  0  0  0  0  0  0  0  0
  148.1060  134.9826  154.7960 C   0  0  0  0  0  0  0  0  0  0  0  0
  146.8428  135.7329  154.2818 C   0  0  1  0  0  0  0  0  0  0  0  0
  147.0883  137.2621  154.3675 C   0  0  0  0  0  0  0  0  0  0  0  0
  146.4552  135.2832  152.8992 N   0  3  1  0  0  0  0  0  0  0  0  0
  146.1753  133.8180  152.7936 C   0  0  0  0  0  0  0  0  0  0  0  0
  146.0270  133.3704  151.3301 C   0  0  0  0  0  0  0  0  0  0  0  0
  144.9381  134.1663  150.6079 C   0  0  0  0  0  0  0  0  0  0  0  0
  145.2201  135.6660  150.7499 C   0  0  0  0  0  0  0  0  0  0  0  0
  145.3847  136.0923  152.2241 C   0  0  1  0  0  0  0  0  0  0  0  0
  144.0363  136.0839  152.9809 C   0  0  0  0  0  0  0  0  0  0  0  0
  152.8518  138.1890  155.4782 N   0  0  0  0  0  0  0  0  0  0  0  0
  152.6782  139.5294  155.8435 O   0  0  0  0  0  0  0  0  0  0  0  0
  150.6860  141.7921  155.1852 H   0  0  0  0  0  0  0  0  0  0  0  0
  151.7831  141.7686  156.5675 H   0  0  0  0  0  0  0  0  0  0  0  0
  150.1114  141.2394  156.7596 H   0  0  0  0  0  0  0  0  0  0  0  0
  149.5858  138.6912  155.1263 H   0  0  0  0  0  0  0  0  0  0  0  0
  149.4081  136.1412  153.5898 H   0  0  0  0  0  0  0  0  0  0  0  0
  148.1546  133.9896  154.3484 H   0  0  0  0  0  0  0  0  0  0  0  0
  148.1000  134.8316  155.8733 H   0  0  0  0  0  0  0  0  0  0  0  0
  146.0097  135.4953  154.9443 H   0  0  0  0  0  0  0  0  0  0  0  0
  147.4121  137.5694  155.3614 H   0  0  0  0  0  0  0  0  0  0  0  0
  146.1900  137.8454  154.1723 H   0  0  0  0  0  0  0  0  0  0  0  0
  147.8580  137.5789  153.6631 H   0  0  0  0  0  0  0  0  0  0  0  0
  146.9797  133.2213  153.2134 H   0  0  0  0  0  0  0  0  0  0  0  0
  145.2820  133.5644  153.3648 H   0  0  0  0  0  0  0  0  0  0  0  0
  146.9785  133.5002  150.8124 H   0  0  0  0  0  0  0  0  0  0  0  0
  145.7970  132.3053  151.2883 H   0  0  0  0  0  0  0  0  0  0  0  0
  144.9056  133.8877  149.5541 H   0  0  0  0  0  0  0  0  0  0  0  0
  143.9595  133.9226  151.0223 H   0  0  0  0  0  0  0  0  0  0  0  0
  146.1325  135.9090  150.2035 H   0  0  0  0  0  0  0  0  0  0  0  0
  144.4237  136.2410  150.2758 H   0  0  0  0  0  0  0  0  0  0  0  0
  145.7191  137.1269  152.1668 H   0  0  0  0  0  0  0  0  0  0  0  0
  143.3074  136.7145  152.4713 H   0  0  0  0  0  0  0  0  0  0  0  0
  144.1310  136.4685  153.9957 H   0  0  0  0  0  0  0  0  0  0  0  0
  143.6034  135.0867  153.0507 H   0  0  0  0  0  0  0  0  0  0  0  0
  147.2827  135.4366  152.3410 H   0  0  0  0  0  0  0  0  0  0  0  0
  1  2  1  0  0  0  0
  1 21  1  0  0  0  0
  1 22  1  0  0  0  0
  1 23  1  0  0  0  0
  2 20  1  0  0  0  0
  2  3  2  0  0  0  0
  3  4  1  0  0  0  0
  3 24  1  0  0  0  0
  4  5  1  0  0  0  0
  4 19  2  0  0  0  0
  5  6  1  0  0  0  0
  6  7  2  0  0  0  0
  6  8  1  0  0  0  0
  8  9  1  0  0  0  0
  8 25  1  0  0  0  0
  9 10  1  0  0  0  0
  9 26  1  0  0  0  0
  9 27  1  0  0  0  0
 10 11  1  0  0  0  0
 10 12  1  0  0  0  0
 10 28  1  0  0  0  0
 11 29  1  0  0  0  0
 11 30  1  0  0  0  0
 11 31  1  0  0  0  0
 12 17  1  0  0  0  0
 12 13  1  0  0  0  0
 12 44  1  0  0  0  0
 13 14  1  0  0  0  0
 13 32  1  0  0  0  0
 13 33  1  0  0  0  0
 14 15  1  0  0  0  0
 14 34  1  0  0  0  0
 14 35  1  0  0  0  0
 15 16  1  0  0  0  0
 15 36  1  0  0  0  0
 15 37  1  0  0  0  0
 16 17  1  0  0  0  0
 16 38  1  0  0  0  0
 16 39  1  0  0  0  0
 17 18  1  0  0  0  0
 17 40  1  0  0  0  0
 18 41  1  0  0  0  0
 18 42  1  0  0  0  0
 18 43  1  0  0  0  0
 19 20  1  0  0  0  0
M  CHG  1   5  -1
M  CHG  1  12   1
M  END
> <s_m_source_file>
AV-unprocessed.smi

> <i_m_source_file_index>
1978

> <i_lp_mmshare_version>
43012

> <i_f3d_flags>
0

> <s_epik_input>
W0NIM11jMVtjSF1jKG5vMSlbTkhdQyg9TylbTkhdW0NIMl1bQ0BIXShbQ0gzXSlOMltDSDJdW0NIMl1bQ0gyXVtDSDJdW0NASF0yW0NIM10=

> <s_epik_cmdline>
J2VwaWtfcHl0aG9uJywgJy1waCcsICc3LjAnLCAnLXRuJywgJzgnLCAnLW1hJywgJzIwMCcsICctbWV0YWxfYmluZGluZycsICctaW1hZScsICc8aW5maWxlLm1hZT4nLCAnLW9tYWUnLCAnPG91dGZpbGUubWFlPic=

> <r_epik_Ionization_Penalty>
6.22372

> <r_epik_Ionization_Penalty_Charging>
6.22362

> <r_epik_Ionization_Penalty_Neutral>
9.65074e-05

> <r_epik_State_Penalty>
6.22363

> <r_epik_Charging_Adjusted_Penalty>
12.4472

> <i_epik_Tot_Q>
0

> <i_epik_Tot_abs_Q>
2

> <r_epik_Metal_State_Penalty>
2.16675

> <b_epik_Metal_Only>
1

> <s_lp_Force_Field>
OPLS_2005

> <r_lp_Energy>
13.574

> <b_lp_Chiralities_Consistent>
1

> <s_lp_Variant>
AV-unprocessed.smi:1978-10

> <Gold.Version>
5.8.1

> <Gold.Id.Protein>
6NUR|6NUR_protein|mol2

> <Gold.PLP.Fitness>
46.1860

> <Gold.PLP.PLP>
-31.4064

> <Gold.PLP.part.hbond>
-4.0190

> <Gold.PLP.part.metal>
0.0000

> <Gold.PLP.part.buried>
-3.7589

> <Gold.PLP.part.nonpolar>
-22.2870

> <Gold.PLP.part.repulsive>
0.1992

> <Gold.PLP.ligand.clash>
0.0000

> <Gold.PLP.ligand.torsion>
1.6796

> <Gold.PLP.Chemscore.Hbond>
6.0000

> <Gold.PLP.Chemscore.CHOScore>
0.0000

> <Gold.PLP.Chemscore.Metal>
0.0000

> <Gold.Chemscore.Hbonds>
donor molecule, donor type, donor heavy atom, donor atom, acceptor molecule, acceptor atom, score
      L1  H     8    25       P1  7948  1.00
      L1  H    12    44       P1  7948  2.00
      P1  H  7997  8008       L1    20  1.00
      P1  H 10752 10764       L1     5  2.00

> <Gold.PLP.Chemscore.Internal.Correction>
0.1389

> <Gold.Rescore>
     Score         DG    S(hbond)    S(metal)    S(lipo)     H(rot)  DE(clash)    DE(int)     intcor
     17.60     -19.27       3.35        0.00      55.35       1.52       0.00       1.67       ----

> <Gold.Chemscore.Fitness>
17.5982

> <Gold.Chemscore.DG>
-19.2695

> <Gold.Chemscore.ZeroCoef>
-5.4800

> <Gold.Chemscore.Hbond>
3.3539

> <Gold.Chemscore.Metal>
0.0000

> <Gold.Chemscore.Lipo>
55.3520

> <Gold.Chemscore.Internal_Hbond>
0.0000

> <Gold.Chemscore.DEClash>
0.0000

> <Gold.Chemscore.DEInternal>
1.6713

> <Gold.Chemscore.Rot>
1.5190

> <Gold.Chemscore.Internal.Correction>
   9.000000E+99

> <Gold.Chemscore.Hbonds>
donor molecule, donor type, donor heavy atom, donor atom, acceptor molecule, acceptor atom, score
      L1  H     8    25       P1  7948  0.62
      L1  H    12    44       P1  7948  0.99
      P1  H  7997  8008       L1    20  0.50
      P1  H 10752 10764       L1     5  0.82

> <Gold.Chemscore.Hbond.Weighted>
-11.2020

> <Gold.Chemscore.Metal.Weighted>
-0.0000

> <Gold.Chemscore.Lipo.Weighted>
-6.4762

> <Gold.Chemscore.Internal_Hbond.Weighted>
0.0000

> <Gold.Chemscore.DEClash.Weighted>
0.0000

> <Gold.Chemscore.DEInternal.Weighted>
1.6713

> <Gold.Chemscore.Rot.Weighted>
3.8886

> <Gold.Chemscore.Internal.Correction.Weighted>
   9.000000E+99

> <Gold.Protein.RotatedTorsions>
[ 6907 6896 6895 6894 ] final -141.20 input  -60.11 | X-H torsion
[ 7974 7965 7964 7962 ] final -100.78 input  175.53 | X-H torsion
[ 8008 7997 7996 7995 ] final  -33.68 input   59.86 | X-H torsion
[ 10167 10162 10161 10158 ] final -158.56 input  -65.29 | X-H torsion
[ 10718 10713 10712 10709 ] final  105.94 input   66.30 | X-H torsion
[ 10763 10752 10751 10750 ] final  -74.22 input  -60.55 | X-H torsion
[ 11005 11000 10999 10996 ] final  -32.55 input  -57.11 | X-H torsion

> <Gold.Protein.ActiveResidues>
 VAL166  LYS551  ARG553  GLY616  TRP617  ASP618  TYR619  PRO620  LYS621  CYS622 
 ASP623  PHE694  ASN695  SER759  ASP760  ASP761  ALA762  ILE779  LEU786  VAL792 
 PHE793  MET794  SER795  GLU796  ALA797  LYS798  CYS799  TRP800  GLU811  SER814 

> <Gold.Protein.RotatedAtoms>
  151.0706  133.5469  159.2627 H   0  0  0  0  0  0  0  0  0  0  0  0  # atno 6907 bound_to 6896
  151.2410  135.0588  159.9035 H   0  0  0  0  0  0  0  0  0  0  0  0  # atno 6908 bound_to 6896
  152.5411  134.0481  159.8151 H   0  0  0  0  0  0  0  0  0  0  0  0  # atno 6909 bound_to 6896
  145.2901  140.9350  143.2883 H   0  0  0  0  0  0  0  0  0  0  0  0  # atno 7974 bound_to 7965
  154.4142  140.1704  156.1928 H   0  0  0  0  0  0  0  0  0  0  0  0  # atno 8008 bound_to 7997
  155.9589  140.3395  155.6450 H   0  0  0  0  0  0  0  0  0  0  0  0  # atno 8009 bound_to 7997
  155.6774  140.0718  157.2488 H   0  0  0  0  0  0  0  0  0  0  0  0  # atno 8010 bound_to 7997
  139.6683  143.9790  152.2268 H   0  0  0  0  0  0  0  0  0  0  0  0  # atno 10167 bound_to 10162
  157.6687  131.0839  150.5931 H   0  0  0  0  0  0  0  0  0  0  0  0  # atno 10718 bound_to 10713
  154.4701  135.5871  153.6316 H   0  0  0  0  0  0  0  0  0  0  0  0  # atno 10763 bound_to 10752
  152.9833  135.6065  154.3377 H   0  0  0  0  0  0  0  0  0  0  0  0  # atno 10764 bound_to 10752
  154.3258  135.2843  155.2476 H   0  0  0  0  0  0  0  0  0  0  0  0  # atno 10765 bound_to 10752
  140.9562  133.7191  156.1296 H   0  0  0  0  0  0  0  0  0  0  0  0  # atno 11005 bound_to 11000
  144.9180  139.4446  143.6555 LP  0  0  0  0  0  0  0  0  0  0  0  0  # atno 17320 bound_to 7965
  146.3188  139.8025  142.8962 LP  0  0  0  0  0  0  0  0  0  0  0  0  # atno 17321 bound_to 7965
  139.9548  144.6597  150.8137 LP  0  0  0  0  0  0  0  0  0  0  0  0  # atno 17342 bound_to 10162
  140.7608  143.3159  151.2733 LP  0  0  0  0  0  0  0  0  0  0  0  0  # atno 17343 bound_to 10162
  156.6232  130.4411  149.5814 LP  0  0  0  0  0  0  0  0  0  0  0  0  # atno 17370 bound_to 10713
  156.2339  130.6811  151.1491 LP  0  0  0  0  0  0  0  0  0  0  0  0  # atno 17371 bound_to 10713
  140.7533  134.4020  157.5538 LP  0  0  0  0  0  0  0  0  0  0  0  0  # atno 17394 bound_to 11000
  139.8863  134.8914  156.2594 LP  0  0  0  0  0  0  0  0  0  0  0  0  # atno 17395 bound_to 11000

$$$$
