AV-unprocessed.smi:1865|AV-procd|sdf|7554|dock4
  -GOLD-   22720 9273D 1   1.00000     0.00000
 Structure written by MMmdl.
 40 41  0  0  0  0  0  0  0  0  1 V2000
  152.9994  139.2990  156.4884 O   0  0  0  0  0  0  0  0  0  0  0  0
  152.1025  139.5974  157.2776 C   0  0  0  0  0  0  0  0  0  0  0  0
  152.3081  140.7179  158.3018 C   0  0  0  0  0  0  0  0  0  0  0  0
  151.4968  141.9867  157.9764 C   0  0  0  0  0  0  0  0  0  0  0  0
  152.0670  143.2530  158.6400 C   0  0  0  0  0  0  0  0  0  0  0  0
  152.0165  143.2162  160.1685 C   0  0  0  0  0  0  0  0  0  0  0  0
  152.1826  144.6767  160.5945 C   0  0  0  0  0  0  0  0  0  0  0  0
  151.6239  145.5205  159.4393 C   0  0  0  0  0  0  0  0  0  0  0  0
  151.3116  144.5427  158.2986 C   0  0  0  0  0  0  0  0  0  0  0  0
  150.9133  138.9765  157.3070 N   0  0  0  0  0  0  0  0  0  0  0  0
  150.5201  137.8759  156.4351 C   0  0  0  0  0  0  0  0  0  0  0  0
  150.2339  138.3579  155.0034 C   0  0  0  0  0  0  0  0  0  0  0  0
  148.8627  138.9927  154.8809 C   0  0  0  0  0  0  0  0  0  0  0  0
  148.6938  140.3860  155.0162 C   0  0  0  0  0  0  0  0  0  0  0  0
  147.3988  140.9265  154.8996 C   0  0  0  0  0  0  0  0  0  0  0  0
  146.3251  140.0479  154.6527 C   0  0  0  0  0  0  0  0  0  0  0  0
  146.4749  138.7120  154.5225 N   0  0  0  0  0  0  0  0  0  0  0  0
  147.7201  138.2018  154.6353 C   0  0  0  0  0  0  0  0  0  0  0  0
  152.0344  140.3552  159.2938 H   0  0  0  0  0  0  0  0  0  0  0  0
  153.3726  140.9514  158.3365 H   0  0  0  0  0  0  0  0  0  0  0  0
  151.4482  142.1340  156.8964 H   0  0  0  0  0  0  0  0  0  0  0  0
  150.4675  141.8475  158.3109 H   0  0  0  0  0  0  0  0  0  0  0  0
  153.1101  143.3740  158.3421 H   0  0  0  0  0  0  0  0  0  0  0  0
  151.0448  142.8479  160.5010 H   0  0  0  0  0  0  0  0  0  0  0  0
  152.7809  142.5679  160.5980 H   0  0  0  0  0  0  0  0  0  0  0  0
  151.6804  144.8846  161.5399 H   0  0  0  0  0  0  0  0  0  0  0  0
  153.2414  144.9014  160.7303 H   0  0  0  0  0  0  0  0  0  0  0  0
  150.7270  146.0642  159.7382 H   0  0  0  0  0  0  0  0  0  0  0  0
  152.3619  146.2588  159.1237 H   0  0  0  0  0  0  0  0  0  0  0  0
  151.5928  144.9437  157.3243 H   0  0  0  0  0  0  0  0  0  0  0  0
  150.2383  144.3490  158.2748 H   0  0  0  0  0  0  0  0  0  0  0  0
  150.2343  139.2838  157.9885 H   0  0  0  0  0  0  0  0  0  0  0  0
  151.2945  137.1065  156.4336 H   0  0  0  0  0  0  0  0  0  0  0  0
  149.6262  137.4155  156.8570 H   0  0  0  0  0  0  0  0  0  0  0  0
  150.9908  139.0792  154.6923 H   0  0  0  0  0  0  0  0  0  0  0  0
  150.2965  137.5243  154.3022 H   0  0  0  0  0  0  0  0  0  0  0  0
  149.5396  141.0300  155.2074 H   0  0  0  0  0  0  0  0  0  0  0  0
  147.2318  141.9890  154.9973 H   0  0  0  0  0  0  0  0  0  0  0  0
  145.3187  140.4282  154.5579 H   0  0  0  0  0  0  0  0  0  0  0  0
  147.8067  137.1305  154.5284 H   0  0  0  0  0  0  0  0  0  0  0  0
  1  2  2  0  0  0  0
  2  3  1  0  0  0  0
  2 10  1  0  0  0  0
  3  4  1  0  0  0  0
  3 19  1  0  0  0  0
  3 20  1  0  0  0  0
  4  5  1  0  0  0  0
  4 21  1  0  0  0  0
  4 22  1  0  0  0  0
  5  9  1  0  0  0  0
  5  6  1  0  0  0  0
  5 23  1  0  0  0  0
  6  7  1  0  0  0  0
  6 24  1  0  0  0  0
  6 25  1  0  0  0  0
  7  8  1  0  0  0  0
  7 26  1  0  0  0  0
  7 27  1  0  0  0  0
  8  9  1  0  0  0  0
  8 28  1  0  0  0  0
  8 29  1  0  0  0  0
  9 30  1  0  0  0  0
  9 31  1  0  0  0  0
 10 11  1  0  0  0  0
 10 32  1  0  0  0  0
 11 12  1  0  0  0  0
 11 33  1  0  0  0  0
 11 34  1  0  0  0  0
 12 13  1  0  0  0  0
 12 35  1  0  0  0  0
 12 36  1  0  0  0  0
 13 18  1  0  0  0  0
 13 14  2  0  0  0  0
 14 15  1  0  0  0  0
 14 37  1  0  0  0  0
 15 16  2  0  0  0  0
 15 38  1  0  0  0  0
 16 17  1  0  0  0  0
 16 39  1  0  0  0  0
 17 18  2  0  0  0  0
 18 40  1  0  0  0  0
M  END
> <s_m_source_file>
AV-unprocessed.smi

> <i_m_source_file_index>
1865

> <i_lp_mmshare_version>
43012

> <i_f3d_flags>
0

> <s_epik_input>
W0NIMl0xW0NIMl1bQ0gyXVtDSDJdW0NIXTFbQ0gyXVtDSDJdQyg9TylbTkhdW0NIMl1bQ0gyXWMyW2NIXVtjSF1bY0hdbltjSF0y

> <s_epik_cmdline>
J2VwaWtfcHl0aG9uJywgJy1waCcsICc3LjAnLCAnLXRuJywgJzgnLCAnLW1hJywgJzIwMCcsICctbWV0YWxfYmluZGluZycsICctaW1hZScsICc8aW5maWxlLm1hZT4nLCAnLW9tYWUnLCAnPG91dGZpbGUubWFlPic=

> <r_epik_Ionization_Penalty>
0.0133844

> <r_epik_Ionization_Penalty_Charging>
0

> <r_epik_Ionization_Penalty_Neutral>
0.0133844

> <r_epik_State_Penalty>
0.0104136

> <r_epik_Charging_Adjusted_Penalty>
0.0104136

> <i_epik_Tot_Q>
0

> <i_epik_Tot_abs_Q>
0

> <r_epik_Metal_State_Penalty>
0.0101831

> <b_epik_Metal_Only>
0

> <s_lp_Force_Field>
OPLS_2005

> <r_lp_Energy>
19.5978

> <b_lp_Chiralities_Consistent>
1

> <s_lp_Variant>
AV-unprocessed.smi:1865-1

> <Gold.Version>
5.8.1

> <Gold.Id.Protein>
6NUR|6NUR_protein|mol2

> <Gold.PLP.Fitness>
48.2402

> <Gold.PLP.PLP>
-40.8073

> <Gold.PLP.part.hbond>
-1.0000

> <Gold.PLP.part.metal>
0.0000

> <Gold.PLP.part.buried>
-4.4340

> <Gold.PLP.part.nonpolar>
-36.6657

> <Gold.PLP.part.repulsive>
0.2222

> <Gold.PLP.ligand.clash>
0.0000

> <Gold.PLP.ligand.torsion>
0.7710

> <Gold.PLP.Chemscore.Hbond>
1.0000

> <Gold.PLP.Chemscore.CHOScore>
1.9561

> <Gold.PLP.Chemscore.Metal>
0.0000

> <Gold.Chemscore.Hbonds>
donor molecule, donor type, donor heavy atom, donor atom, acceptor molecule, acceptor atom, score
      P1  H  7997  8008       L1     1  1.00
      L1  C    16    39       P1 10175  0.72

> <Gold.PLP.Chemscore.Internal.Correction>
0.1065

> <Gold.Rescore>
     Score         DG    S(hbond)    S(metal)    S(lipo)     H(rot)  DE(clash)    DE(int)     intcor
     18.28     -19.00       0.99        0.00     121.52       1.56       0.07       0.65       ----

> <Gold.Chemscore.Fitness>
18.2764

> <Gold.Chemscore.DG>
-19.0042

> <Gold.Chemscore.ZeroCoef>
-5.4800

> <Gold.Chemscore.Hbond>
0.9891

> <Gold.Chemscore.Metal>
0.0000

> <Gold.Chemscore.Lipo>
121.5173

> <Gold.Chemscore.Internal_Hbond>
0.0000

> <Gold.Chemscore.DEClash>
0.0734

> <Gold.Chemscore.DEInternal>
0.6544

> <Gold.Chemscore.Rot>
1.5614

> <Gold.Chemscore.Internal.Correction>
   9.000000E+99

> <Gold.Chemscore.Hbonds>
donor molecule, donor type, donor heavy atom, donor atom, acceptor molecule, acceptor atom, score
      P1  H  7997  8008       L1     1  0.96

> <Gold.Chemscore.Hbond.Weighted>
-3.3037

> <Gold.Chemscore.Metal.Weighted>
-0.0000

> <Gold.Chemscore.Lipo.Weighted>
-14.2175

> <Gold.Chemscore.Internal_Hbond.Weighted>
0.0000

> <Gold.Chemscore.DEClash.Weighted>
0.0734

> <Gold.Chemscore.DEInternal.Weighted>
0.6544

> <Gold.Chemscore.Rot.Weighted>
3.9971

> <Gold.Chemscore.Internal.Correction.Weighted>
   9.000000E+99

> <Gold.Protein.RotatedTorsions>
[ 6907 6896 6895 6894 ] final  -94.61 input  -60.11 | X-H torsion
[ 7974 7965 7964 7962 ] final  135.26 input  175.53 | X-H torsion
[ 8008 7997 7996 7995 ] final  -47.56 input   59.86 | X-H torsion
[ 10167 10162 10161 10158 ] final -114.61 input  -65.29 | X-H torsion
[ 10718 10713 10712 10709 ] final  124.52 input   66.30 | X-H torsion
[ 10763 10752 10751 10750 ] final   20.52 input  -60.55 | X-H torsion
[ 11005 11000 10999 10996 ] final -102.49 input  -57.11 | X-H torsion

> <Gold.Protein.ActiveResidues>
 VAL166  LYS551  ARG553  GLY616  TRP617  ASP618  TYR619  PRO620  LYS621  CYS622 
 ASP623  PHE694  ASN695  SER759  ASP760  ASP761  ALA762  ILE779  LEU786  VAL792 
 PHE793  MET794  SER795  GLU796  ALA797  LYS798  CYS799  TRP800  GLU811  SER814 

> <Gold.Protein.RotatedAtoms>
  150.6945  134.1785  159.4239 H   0  0  0  0  0  0  0  0  0  0  0  0  # atno 6907 bound_to 6896
  151.9760  135.0050  160.0564 H   0  0  0  0  0  0  0  0  0  0  0  0  # atno 6908 bound_to 6896
  152.1798  133.4664  159.4989 H   0  0  0  0  0  0  0  0  0  0  0  0  # atno 6909 bound_to 6896
  144.9681  139.4635  143.5446 H   0  0  0  0  0  0  0  0  0  0  0  0  # atno 7974 bound_to 7965
  154.4018  140.1343  156.4195 H   0  0  0  0  0  0  0  0  0  0  0  0  # atno 8008 bound_to 7997
  155.7656  140.3485  155.5200 H   0  0  0  0  0  0  0  0  0  0  0  0  # atno 8009 bound_to 7997
  155.8816  140.0988  157.1471 H   0  0  0  0  0  0  0  0  0  0  0  0  # atno 8010 bound_to 7997
  140.0991  143.4629  152.1823 H   0  0  0  0  0  0  0  0  0  0  0  0  # atno 10167 bound_to 10162
  157.5578  131.1091  150.8591 H   0  0  0  0  0  0  0  0  0  0  0  0  # atno 10718 bound_to 10713
  153.1071  135.6687  153.9567 H   0  0  0  0  0  0  0  0  0  0  0  0  # atno 10763 bound_to 10752
  153.9122  135.3024  155.3450 H   0  0  0  0  0  0  0  0  0  0  0  0  # atno 10764 bound_to 10752
  154.7491  135.5043  153.9334 H   0  0  0  0  0  0  0  0  0  0  0  0  # atno 10765 bound_to 10752
  141.1187  133.8563  157.1366 H   0  0  0  0  0  0  0  0  0  0  0  0  # atno 11005 bound_to 11000
  146.3374  139.8876  142.8814 LP  0  0  0  0  0  0  0  0  0  0  0  0  # atno 17320 bound_to 7965
  145.2599  141.0073  143.3832 LP  0  0  0  0  0  0  0  0  0  0  0  0  # atno 17321 bound_to 7965
  139.5681  144.7447  151.3965 LP  0  0  0  0  0  0  0  0  0  0  0  0  # atno 17342 bound_to 10162
  140.6988  143.7684  150.7369 LP  0  0  0  0  0  0  0  0  0  0  0  0  # atno 17343 bound_to 10162
  156.9098  130.5276  149.5280 LP  0  0  0  0  0  0  0  0  0  0  0  0  # atno 17370 bound_to 10713
  156.0634  130.5682  150.9240 LP  0  0  0  0  0  0  0  0  0  0  0  0  # atno 17371 bound_to 10713
  140.0127  134.9981  157.0429 LP  0  0  0  0  0  0  0  0  0  0  0  0  # atno 17394 bound_to 11000
  140.4572  134.1521  155.7187 LP  0  0  0  0  0  0  0  0  0  0  0  0  # atno 17395 bound_to 11000

$$$$
