AV-unprocessed.smi:280|AV-procd|sdf|2097|dock9
  -GOLD-   2262021383D 1   1.00000     0.00000
 Structure written by MMmdl.
 59 62  0  0  0  0  0  0  0  0  2 V2000
  153.9525  140.9286  159.5641 C   0  0  0  0  0  0  0  0  0  0  0  0
  152.6319  140.4354  158.9384 C   0  0  2  0  0  0  0  0  0  0  0  0
  152.9809  139.4090  157.8315 C   0  0  0  0  0  0  0  0  0  0  0  0
  151.8144  138.9877  157.0612 N   0  0  0  0  0  0  0  0  0  0  0  0
  151.0749  137.9318  157.4947 C   0  0  0  0  0  0  0  0  0  0  0  0
  150.5272  137.9532  158.7392 N   0  0  0  0  0  0  0  0  0  0  0  0
  149.7857  136.9296  159.1716 C   0  0  0  0  0  0  0  0  0  0  0  0
  149.4696  135.8019  158.5338 N   0  0  0  0  0  0  0  0  0  0  0  0
  150.0213  135.7667  157.2873 C   0  0  0  0  0  0  0  0  0  0  0  0
  150.8357  136.7755  156.6982 C   0  0  0  0  0  0  0  0  0  0  0  0
  151.2386  136.3735  155.4305 N   0  0  0  0  0  0  0  0  0  0  0  0
  150.6843  135.2029  155.2745 C   0  0  0  0  0  0  0  0  0  0  0  0
  149.9168  134.7693  156.3324 N   0  0  0  0  0  0  0  0  0  0  0  0
  149.1865  133.5124  156.4275 C   0  0  0  0  0  0  0  0  0  0  0  0
  149.3391  132.5771  155.2029 C   0  0  0  0  0  0  0  0  0  0  0  0
  148.7454  133.2924  153.9817 C   0  0  0  0  0  0  0  0  0  0  0  0
  148.5746  132.4014  152.8981 O   0  0  0  0  0  0  0  0  0  0  0  0
  150.7015  131.8929  154.9935 C   0  0  0  0  0  0  0  0  0  0  0  0
  150.2292  130.6592  155.5744 O   0  0  0  0  0  0  0  0  0  0  0  0
  148.8743  131.1238  155.3993 C   0  0  0  0  0  0  0  0  0  0  0  0
  151.0725  140.1020  156.4878 C   0  0  0  0  0  0  0  0  0  0  0  0
  150.6358  141.0695  157.5957 C   0  0  0  0  0  0  0  0  0  0  0  0
  151.7918  141.5536  158.4009 N   0  3  1  0  0  0  0  0  0  0  0  0
  151.3540  142.5493  159.4227 C   0  0  0  0  0  0  0  0  0  0  0  0
  151.0657  143.9462  158.8201 C   0  0  0  0  0  0  0  0  0  0  0  0
  150.9437  144.9896  159.9438 C   0  0  0  0  0  0  0  0  0  0  0  0
  152.1297  144.3909  157.8003 C   0  0  0  0  0  0  0  0  0  0  0  0
  149.8143  143.9141  158.1634 O   0  0  0  0  0  0  0  0  0  0  0  0
  154.5579  140.0845  159.8955 H   0  0  0  0  0  0  0  0  0  0  0  0
  153.8045  141.5612  160.4376 H   0  0  0  0  0  0  0  0  0  0  0  0
  154.5471  141.4893  158.8424 H   0  0  0  0  0  0  0  0  0  0  0  0
  152.0508  139.9325  159.7125 H   0  0  0  0  0  0  0  0  0  0  0  0
  153.6865  139.8573  157.1306 H   0  0  0  0  0  0  0  0  0  0  0  0
  153.4939  138.5437  158.2535 H   0  0  0  0  0  0  0  0  0  0  0  0
  149.3870  137.0292  160.1704 H   0  0  0  0  0  0  0  0  0  0  0  0
  150.8212  134.6216  154.3744 H   0  0  0  0  0  0  0  0  0  0  0  0
  149.5223  133.0044  157.3325 H   0  0  0  0  0  0  0  0  0  0  0  0
  148.1379  133.7572  156.5995 H   0  0  0  0  0  0  0  0  0  0  0  0
  147.7710  133.7223  154.2162 H   0  0  0  0  0  0  0  0  0  0  0  0
  149.3807  134.1191  153.6621 H   0  0  0  0  0  0  0  0  0  0  0  0
  148.7751  131.5264  153.1936 H   0  0  0  0  0  0  0  0  0  0  0  0
  150.9725  131.7640  153.9441 H   0  0  0  0  0  0  0  0  0  0  0  0
  151.5275  132.3363  155.5468 H   0  0  0  0  0  0  0  0  0  0  0  0
  148.2487  130.9575  156.2749 H   0  0  0  0  0  0  0  0  0  0  0  0
  148.4120  130.6825  154.5148 H   0  0  0  0  0  0  0  0  0  0  0  0
  151.7155  140.6182  155.7738 H   0  0  0  0  0  0  0  0  0  0  0  0
  150.2003  139.7690  155.9271 H   0  0  0  0  0  0  0  0  0  0  0  0
  150.1132  141.9143  157.1476 H   0  0  0  0  0  0  0  0  0  0  0  0
  149.9211  140.5702  158.2522 H   0  0  0  0  0  0  0  0  0  0  0  0
  150.4664  142.1843  159.9429 H   0  0  0  0  0  0  0  0  0  0  0  0
  152.0959  142.6512  160.2129 H   0  0  0  0  0  0  0  0  0  0  0  0
  151.8783  145.0820  160.4981 H   0  0  0  0  0  0  0  0  0  0  0  0
  150.1637  144.7202  160.6572 H   0  0  0  0  0  0  0  0  0  0  0  0
  150.6996  145.9762  159.5484 H   0  0  0  0  0  0  0  0  0  0  0  0
  153.1189  144.4361  158.2565 H   0  0  0  0  0  0  0  0  0  0  0  0
  151.9079  145.3830  157.4049 H   0  0  0  0  0  0  0  0  0  0  0  0
  152.1862  143.7109  156.9497 H   0  0  0  0  0  0  0  0  0  0  0  0
  149.4592  144.7902  158.1473 H   0  0  0  0  0  0  0  0  0  0  0  0
  152.3871  142.0567  157.7587 H   0  0  0  0  0  0  0  0  0  0  0  0
  1  2  1  0  0  0  0
  1 29  1  0  0  0  0
  1 30  1  0  0  0  0
  1 31  1  0  0  0  0
  2 23  1  0  0  0  0
  2  3  1  0  0  0  0
  2 32  1  0  0  0  0
  3  4  1  0  0  0  0
  3 33  1  0  0  0  0
  3 34  1  0  0  0  0
  4  5  1  0  0  0  0
  4 21  1  0  0  0  0
  5 10  1  0  0  0  0
  5  6  2  0  0  0  0
  6  7  1  0  0  0  0
  7  8  2  0  0  0  0
  7 35  1  0  0  0  0
  8  9  1  0  0  0  0
  9 13  1  0  0  0  0
  9 10  2  0  0  0  0
 10 11  1  0  0  0  0
 11 12  2  0  0  0  0
 12 13  1  0  0  0  0
 12 36  1  0  0  0  0
 13 14  1  0  0  0  0
 14 15  1  0  0  0  0
 14 37  1  0  0  0  0
 14 38  1  0  0  0  0
 15 20  1  0  0  0  0
 15 16  1  0  0  0  0
 15 18  1  0  0  0  0
 16 17  1  0  0  0  0
 16 39  1  0  0  0  0
 16 40  1  0  0  0  0
 17 41  1  0  0  0  0
 18 19  1  0  0  0  0
 18 42  1  0  0  0  0
 18 43  1  0  0  0  0
 19 20  1  0  0  0  0
 20 44  1  0  0  0  0
 20 45  1  0  0  0  0
 21 22  1  0  0  0  0
 21 46  1  0  0  0  0
 21 47  1  0  0  0  0
 22 23  1  0  0  0  0
 22 48  1  0  0  0  0
 22 49  1  0  0  0  0
 23 24  1  0  0  0  0
 23 59  1  0  0  0  0
 24 25  1  0  0  0  0
 24 50  1  0  0  0  0
 24 51  1  0  0  0  0
 25 26  1  0  0  0  0
 25 27  1  0  0  0  0
 25 28  1  0  0  0  0
 26 52  1  0  0  0  0
 26 53  1  0  0  0  0
 26 54  1  0  0  0  0
 27 55  1  0  0  0  0
 27 56  1  0  0  0  0
 27 57  1  0  0  0  0
 28 58  1  0  0  0  0
M  CHG  1  23   1
M  END
> <s_m_source_file>
AV-unprocessed.smi

> <i_m_source_file_index>
280

> <i_lp_mmshare_version>
43012

> <i_f3d_flags>
0

> <s_epik_input>
W0NIM11DKFtDSDNdKShbT0hdKVtDSDJdTjFbQ0gyXVtDSDJdTihbQ0gyXVtDQEhdMVtDSDNdKWMobltjSF1uMiljKGMyMyluW2NIXW4zW0NIMl1DNChbQ0gyXVtPSF0pW0NIMl1PW0NIMl00

> <s_epik_cmdline>
J2VwaWtfcHl0aG9uJywgJy1waCcsICc3LjAnLCAnLXRuJywgJzgnLCAnLW1hJywgJzIwMCcsICctbWV0YWxfYmluZGluZycsICctaW1hZScsICc8aW5maWxlLm1hZT4nLCAnLW9tYWUnLCAnPG91dGZpbGUubWFlPic=

> <r_lp_tautomer_probability>
1

> <r_epik_Ionization_Penalty>
0.00179402

> <r_epik_Ionization_Penalty_Charging>
0.00173996

> <r_epik_Ionization_Penalty_Neutral>
5.40607e-05

> <r_epik_State_Penalty>
-0

> <r_epik_Charging_Adjusted_Penalty>
0.00173996

> <i_epik_Tot_Q>
1

> <i_epik_Tot_abs_Q>
1

> <r_epik_Metal_State_Penalty>
-0

> <b_epik_Metal_Only>
0

> <s_lp_Force_Field>
OPLS_2005

> <r_lp_Energy>
49.5757

> <b_lp_Chiralities_Consistent>
1

> <s_lp_Variant>
AV-unprocessed.smi:280-1

> <Gold.Version>
5.8.1

> <Gold.Id.Protein>
6NUR|6NUR_protein|mol2

> <Gold.PLP.Fitness>
42.5742

> <Gold.PLP.PLP>
-37.1289

> <Gold.PLP.part.hbond>
-4.9449

> <Gold.PLP.part.metal>
0.0000

> <Gold.PLP.part.buried>
-4.0924

> <Gold.PLP.part.nonpolar>
-28.9971

> <Gold.PLP.part.repulsive>
0.1838

> <Gold.PLP.ligand.clash>
0.0000

> <Gold.PLP.ligand.torsion>
1.0030

> <Gold.PLP.Chemscore.Hbond>
2.0755

> <Gold.PLP.Chemscore.CHOScore>
0.0000

> <Gold.PLP.Chemscore.Metal>
0.0000

> <Gold.Chemscore.Hbonds>
donor molecule, donor type, donor heavy atom, donor atom, acceptor molecule, acceptor atom, score
      L1  H    28    58       P1  8029  0.62
      P1  H  6896  6907       L1     8  0.89
      P1  H 10752 10765       L1    11  0.40

> <Gold.PLP.Chemscore.Internal.Correction>
1.2248

> <Gold.Rescore>
     Score         DG    S(hbond)    S(metal)    S(lipo)     H(rot)  DE(clash)    DE(int)     intcor
      6.53      -8.82       0.01        0.00     107.65       3.63       0.12       2.17       ----

> <Gold.Chemscore.Fitness>
6.5260

> <Gold.Chemscore.DG>
-8.8227

> <Gold.Chemscore.ZeroCoef>
-5.4800

> <Gold.Chemscore.Hbond>
0.0091

> <Gold.Chemscore.Metal>
0.0000

> <Gold.Chemscore.Lipo>
107.6470

> <Gold.Chemscore.Internal_Hbond>
0.0000

> <Gold.Chemscore.DEClash>
0.1228

> <Gold.Chemscore.DEInternal>
2.1738

> <Gold.Chemscore.Rot>
3.6260

> <Gold.Chemscore.Internal.Correction>
   9.000000E+99

> <Gold.Chemscore.Hbonds>
donor molecule, donor type, donor heavy atom, donor atom, acceptor molecule, acceptor atom, score
      L1  H    28    58       P1  8029  0.14
      P1  H  6896  6907       L1     8  0.07
      P1  H 10752 10765       L1    11  0.01

> <Gold.Chemscore.Hbond.Weighted>
-0.0305

> <Gold.Chemscore.Metal.Weighted>
-0.0000

> <Gold.Chemscore.Lipo.Weighted>
-12.5947

> <Gold.Chemscore.Internal_Hbond.Weighted>
0.0000

> <Gold.Chemscore.DEClash.Weighted>
0.1228

> <Gold.Chemscore.DEInternal.Weighted>
2.1738

> <Gold.Chemscore.Rot.Weighted>
9.2825

> <Gold.Chemscore.Internal.Correction.Weighted>
   9.000000E+99

> <Gold.Protein.RotatedTorsions>
[ 6907 6896 6895 6894 ] final  -83.89 input  -60.11 | X-H torsion
[ 7974 7965 7964 7962 ] final   -7.07 input  175.53 | X-H torsion
[ 8008 7997 7996 7995 ] final   27.59 input   59.86 | X-H torsion
[ 10167 10162 10161 10158 ] final -121.34 input  -65.29 | X-H torsion
[ 10718 10713 10712 10709 ] final -164.22 input   66.30 | X-H torsion
[ 10763 10752 10751 10750 ] final -174.26 input  -60.55 | X-H torsion
[ 11005 11000 10999 10996 ] final  -82.46 input  -57.11 | X-H torsion

> <Gold.Protein.ActiveResidues>
 VAL166  LYS551  ARG553  GLY616  TRP617  ASP618  TYR619  PRO620  LYS621  CYS622 
 ASP623  PHE694  ASN695  SER759  ASP760  ASP761  ALA762  ILE779  LEU786  VAL792 
 PHE793  MET794  SER795  GLU796  ALA797  LYS798  CYS799  TRP800  GLU811  SER814 

> <Gold.Protein.RotatedAtoms>
  150.6881  134.3442  159.4880 H   0  0  0  0  0  0  0  0  0  0  0  0  # atno 6907 bound_to 6896
  152.1291  134.9145  160.0569 H   0  0  0  0  0  0  0  0  0  0  0  0  # atno 6908 bound_to 6896
  152.0322  133.3907  159.4339 H   0  0  0  0  0  0  0  0  0  0  0  0  # atno 6909 bound_to 6896
  146.2316  140.2265  142.8339 H   0  0  0  0  0  0  0  0  0  0  0  0  # atno 7974 bound_to 7965
  155.0454  140.3174  155.4710 H   0  0  0  0  0  0  0  0  0  0  0  0  # atno 8008 bound_to 7997
  156.2846  140.2155  156.5522 H   0  0  0  0  0  0  0  0  0  0  0  0  # atno 8009 bound_to 7997
  154.7255  140.0486  157.0666 H   0  0  0  0  0  0  0  0  0  0  0  0  # atno 8010 bound_to 7997
  140.0261  143.5295  152.2198 H   0  0  0  0  0  0  0  0  0  0  0  0  # atno 10167 bound_to 10162
  156.6359  130.8949  151.2986 H   0  0  0  0  0  0  0  0  0  0  0  0  # atno 10718 bound_to 10713
  154.5983  135.2852  155.0562 H   0  0  0  0  0  0  0  0  0  0  0  0  # atno 10763 bound_to 10752
  154.1837  135.6452  153.5045 H   0  0  0  0  0  0  0  0  0  0  0  0  # atno 10764 bound_to 10752
  153.0147  135.5429  154.6693 H   0  0  0  0  0  0  0  0  0  0  0  0  # atno 10765 bound_to 10752
  141.1663  133.7246  156.8576 H   0  0  0  0  0  0  0  0  0  0  0  0  # atno 11005 bound_to 11000
  144.9591  140.8257  143.5524 LP  0  0  0  0  0  0  0  0  0  0  0  0  # atno 17320 bound_to 7965
  145.2234  139.2148  143.5081 LP  0  0  0  0  0  0  0  0  0  0  0  0  # atno 17321 bound_to 7965
  139.6107  144.7608  151.2958 LP  0  0  0  0  0  0  0  0  0  0  0  0  # atno 17342 bound_to 10162
  140.7322  143.6830  150.7985 LP  0  0  0  0  0  0  0  0  0  0  0  0  # atno 17343 bound_to 10162
  157.7186  130.9529  150.1349 LP  0  0  0  0  0  0  0  0  0  0  0  0  # atno 17370 bound_to 10713
  156.2197  130.3673  149.8570 LP  0  0  0  0  0  0  0  0  0  0  0  0  # atno 17371 bound_to 10713
  140.1872  134.8992  157.3017 LP  0  0  0  0  0  0  0  0  0  0  0  0  # atno 17394 bound_to 11000
  140.2330  134.3886  155.7513 LP  0  0  0  0  0  0  0  0  0  0  0  0  # atno 17395 bound_to 11000

$$$$
