AV-unprocessed.smi:3116|AV-procd|sdf|11871|dock10
  -GOLD-   2272017253D 1   1.00000     0.00000
 Structure written by MMmdl.
 33 33  0  0  0  0  0  0  0  0  1 V2000
  148.7487  141.2571  154.3636 C   0  0  0  0  0  0  0  0  0  0  0  0
  149.7014  140.1623  154.8907 C   0  0  1  0  0  0  0  0  0  0  0  0
  149.8283  140.2254  156.3560 N   0  0  0  0  0  0  0  0  0  0  0  0
  150.7683  141.2372  156.8352 C   0  0  2  0  0  0  0  0  0  0  0  0
  152.1481  140.5688  157.0123 C   0  0  0  0  0  0  0  0  0  0  0  0
  150.2028  141.8419  158.1486 C   0  0  2  0  0  0  0  0  0  0  0  0
  148.7343  142.2886  158.0043 C   0  0  0  0  0  0  0  0  0  0  0  0
  151.0150  142.9482  158.6412 N   0  0  0  0  0  0  0  0  0  0  0  0
  151.2851  144.1501  158.0197 C   0  0  0  0  0  0  0  0  0  0  0  0
  152.0868  144.8725  158.8564 C   0  0  0  0  0  0  0  0  0  0  0  0
  152.2569  144.0189  159.9815 C   0  0  0  0  0  0  0  0  0  0  0  0
  151.6158  142.8693  159.8506 N   0  0  0  0  0  0  0  0  0  0  0  0
  149.2309  138.7601  154.4781 C   0  0  0  0  0  0  0  0  0  0  0  0
  149.1031  138.5331  153.1681 N   0  0  0  0  0  0  0  0  0  0  0  0
  148.9976  137.8879  155.3135 O   0  0  0  0  0  0  0  0  0  0  0  0
  148.5833  141.1539  153.2905 H   0  0  0  0  0  0  0  0  0  0  0  0
  149.1484  142.2578  154.5235 H   0  0  0  0  0  0  0  0  0  0  0  0
  147.7763  141.2115  154.8558 H   0  0  0  0  0  0  0  0  0  0  0  0
  150.6806  140.3084  154.4326 H   0  0  0  0  0  0  0  0  0  0  0  0
  150.0916  139.3312  156.7446 H   0  0  0  0  0  0  0  0  0  0  0  0
  150.8694  142.0439  156.1093 H   0  0  0  0  0  0  0  0  0  0  0  0
  152.9095  141.2923  157.3040 H   0  0  0  0  0  0  0  0  0  0  0  0
  152.4964  140.1062  156.0891 H   0  0  0  0  0  0  0  0  0  0  0  0
  152.1175  139.7942  157.7792 H   0  0  0  0  0  0  0  0  0  0  0  0
  150.2373  141.0702  158.9199 H   0  0  0  0  0  0  0  0  0  0  0  0
  148.0842  141.4492  157.7572 H   0  0  0  0  0  0  0  0  0  0  0  0
  148.6182  143.0355  157.2183 H   0  0  0  0  0  0  0  0  0  0  0  0
  148.3633  142.7230  158.9330 H   0  0  0  0  0  0  0  0  0  0  0  0
  150.8882  144.3896  157.0443 H   0  0  0  0  0  0  0  0  0  0  0  0
  152.4901  145.8602  158.6900 H   0  0  0  0  0  0  0  0  0  0  0  0
  152.8234  144.1988  160.8832 H   0  0  0  0  0  0  0  0  0  0  0  0
  148.8023  137.6268  152.8402 H   0  0  0  0  0  0  0  0  0  0  0  0
  149.3137  139.2694  152.5101 H   0  0  0  0  0  0  0  0  0  0  0  0
  1  2  1  0  0  0  0
  1 16  1  0  0  0  0
  1 17  1  0  0  0  0
  1 18  1  0  0  0  0
  2  3  1  0  0  0  0
  2 13  1  0  0  0  0
  2 19  1  0  0  0  0
  3  4  1  0  0  0  0
  3 20  1  0  0  0  0
  4  5  1  0  0  0  0
  4  6  1  0  0  0  0
  4 21  1  0  0  0  0
  5 22  1  0  0  0  0
  5 23  1  0  0  0  0
  5 24  1  0  0  0  0
  6  7  1  0  0  0  0
  6  8  1  0  0  0  0
  6 25  1  0  0  0  0
  7 26  1  0  0  0  0
  7 27  1  0  0  0  0
  7 28  1  0  0  0  0
  8 12  1  0  0  0  0
  8  9  1  0  0  0  0
  9 10  2  0  0  0  0
  9 29  1  0  0  0  0
 10 11  1  0  0  0  0
 10 30  1  0  0  0  0
 11 12  2  0  0  0  0
 11 31  1  0  0  0  0
 13 14  1  0  0  0  0
 13 15  2  0  0  0  0
 14 32  1  0  0  0  0
 14 33  1  0  0  0  0
M  END
> <s_m_source_file>
AV-unprocessed.smi

> <i_m_source_file_index>
3116

> <i_lp_mmshare_version>
43012

> <i_f3d_flags>
0

> <s_epik_input>
W05IMl1DKD1PKVtDQEhdKFtDSDNdKVtOSF1bQ0BIXShbQ0gzXSlbQ0BIXShbQ0gzXSluMVtjSF1bY0hdW2NIXW4x

> <s_epik_cmdline>
J2VwaWtfcHl0aG9uJywgJy1waCcsICc3LjAnLCAnLXRuJywgJzgnLCAnLW1hJywgJzIwMCcsICctbWV0YWxfYmluZGluZycsICctaW1hZScsICc8aW5maWxlLm1hZT4nLCAnLW9tYWUnLCAnPG91dGZpbGUubWFlPic=

> <r_lp_tautomer_probability>
1

> <r_epik_Ionization_Penalty>
0.865977

> <r_epik_Ionization_Penalty_Charging>
0

> <r_epik_Ionization_Penalty_Neutral>
0.865977

> <r_epik_State_Penalty>
0.901888

> <r_epik_Charging_Adjusted_Penalty>
0.901888

> <i_epik_Tot_Q>
0

> <i_epik_Tot_abs_Q>
0

> <r_epik_Metal_State_Penalty>
0.901181

> <b_epik_Metal_Only>
0

> <s_lp_Force_Field>
OPLS_2005

> <r_lp_Energy>
9.31489

> <b_lp_Chiralities_Consistent>
1

> <s_lp_Variant>
AV-unprocessed.smi:3116-10

> <Gold.Version>
5.8.1

> <Gold.Id.Protein>
6NUR|6NUR_protein|mol2

> <Gold.PLP.Fitness>
38.6362

> <Gold.PLP.PLP>
-31.1283

> <Gold.PLP.part.hbond>
-2.0913

> <Gold.PLP.part.metal>
0.0000

> <Gold.PLP.part.buried>
-3.3652

> <Gold.PLP.part.nonpolar>
-25.8660

> <Gold.PLP.part.repulsive>
0.1707

> <Gold.PLP.ligand.clash>
0.0000

> <Gold.PLP.ligand.torsion>
0.7908

> <Gold.PLP.Chemscore.Hbond>
2.0000

> <Gold.PLP.Chemscore.CHOScore>
1.0000

> <Gold.PLP.Chemscore.Metal>
0.0000

> <Gold.Chemscore.Hbonds>
donor molecule, donor type, donor heavy atom, donor atom, acceptor molecule, acceptor atom, score
      L1  H    14    32       P1  7948  1.00
      L1  H    14    33       P1  7957  1.00
      L1  C     9    29       P1  8028  1.00

> <Gold.PLP.Chemscore.Internal.Correction>
0.0894

> <Gold.Rescore>
     Score         DG    S(hbond)    S(metal)    S(lipo)     H(rot)  DE(clash)    DE(int)     intcor
     13.15     -13.95       1.91        0.00      70.06       2.38       0.00       0.80       ----

> <Gold.Chemscore.Fitness>
13.1472

> <Gold.Chemscore.DG>
-13.9470

> <Gold.Chemscore.ZeroCoef>
-5.4800

> <Gold.Chemscore.Hbond>
1.9079

> <Gold.Chemscore.Metal>
0.0000

> <Gold.Chemscore.Lipo>
70.0563

> <Gold.Chemscore.Internal_Hbond>
0.0000

> <Gold.Chemscore.DEClash>
0.0000

> <Gold.Chemscore.DEInternal>
0.7998

> <Gold.Chemscore.Rot>
2.3836

> <Gold.Chemscore.Internal.Correction>
   9.000000E+99

> <Gold.Chemscore.Hbonds>
donor molecule, donor type, donor heavy atom, donor atom, acceptor molecule, acceptor atom, score
      L1  H    14    32       P1  7948  0.95
      L1  H    14    33       P1  7957  0.97

> <Gold.Chemscore.Hbond.Weighted>
-6.3724

> <Gold.Chemscore.Metal.Weighted>
-0.0000

> <Gold.Chemscore.Lipo.Weighted>
-8.1966

> <Gold.Chemscore.Internal_Hbond.Weighted>
0.0000

> <Gold.Chemscore.DEClash.Weighted>
0.0000

> <Gold.Chemscore.DEInternal.Weighted>
0.7998

> <Gold.Chemscore.Rot.Weighted>
6.1020

> <Gold.Chemscore.Internal.Correction.Weighted>
   9.000000E+99

> <Gold.Protein.RotatedTorsions>
[ 6907 6896 6895 6894 ] final  -38.82 input  -60.11 | X-H torsion
[ 7974 7965 7964 7962 ] final  133.71 input  175.53 | X-H torsion
[ 8008 7997 7996 7995 ] final  157.13 input   59.86 | X-H torsion
[ 10167 10162 10161 10158 ] final -113.08 input  -65.29 | X-H torsion
[ 10718 10713 10712 10709 ] final  122.68 input   66.30 | X-H torsion
[ 10763 10752 10751 10750 ] final  -78.40 input  -60.55 | X-H torsion
[ 11005 11000 10999 10996 ] final -129.29 input  -57.11 | X-H torsion

> <Gold.Protein.ActiveResidues>
 VAL166  LYS551  ARG553  GLY616  TRP617  ASP618  TYR619  PRO620  LYS621  CYS622 
 ASP623  PHE694  ASN695  SER759  ASP760  ASP761  ALA762  ILE779  LEU786  VAL792 
 PHE793  MET794  SER795  GLU796  ALA797  LYS798  CYS799  TRP800  GLU811  SER814 

> <Gold.Protein.RotatedAtoms>
  150.9978  134.9297  159.7936 H   0  0  0  0  0  0  0  0  0  0  0  0  # atno 6907 bound_to 6896
  152.5269  134.3195  159.9153 H   0  0  0  0  0  0  0  0  0  0  0  0  # atno 6908 bound_to 6896
  151.3200  133.4002  159.2688 H   0  0  0  0  0  0  0  0  0  0  0  0  # atno 6909 bound_to 6896
  144.9837  139.4477  143.5373 H   0  0  0  0  0  0  0  0  0  0  0  0  # atno 7974 bound_to 7965
  156.2382  140.1894  156.7061 H   0  0  0  0  0  0  0  0  0  0  0  0  # atno 8008 bound_to 7997
  154.6147  140.0617  156.9565 H   0  0  0  0  0  0  0  0  0  0  0  0  # atno 8009 bound_to 7997
  155.1959  140.3288  155.4353 H   0  0  0  0  0  0  0  0  0  0  0  0  # atno 8010 bound_to 7997
  140.1157  143.4488  152.1724 H   0  0  0  0  0  0  0  0  0  0  0  0  # atno 10167 bound_to 10162
  157.5723  131.1082  150.8343 H   0  0  0  0  0  0  0  0  0  0  0  0  # atno 10718 bound_to 10713
  154.5254  135.5731  153.6715 H   0  0  0  0  0  0  0  0  0  0  0  0  # atno 10763 bound_to 10752
  152.9927  135.6192  154.2699 H   0  0  0  0  0  0  0  0  0  0  0  0  # atno 10764 bound_to 10752
  154.2622  135.2856  155.2753 H   0  0  0  0  0  0  0  0  0  0  0  0  # atno 10765 bound_to 10752
  140.9444  134.1150  157.4121 H   0  0  0  0  0  0  0  0  0  0  0  0  # atno 11005 bound_to 11000
  146.3414  139.9126  142.8778 LP  0  0  0  0  0  0  0  0  0  0  0  0  # atno 17320 bound_to 7965
  145.2384  141.0000  143.3950 LP  0  0  0  0  0  0  0  0  0  0  0  0  # atno 17321 bound_to 7965
  139.5595  144.7396  151.4195 LP  0  0  0  0  0  0  0  0  0  0  0  0  # atno 17342 bound_to 10162
  140.6901  143.7883  150.7242 LP  0  0  0  0  0  0  0  0  0  0  0  0  # atno 17343 bound_to 10162
  156.8811  130.5180  149.5291 LP  0  0  0  0  0  0  0  0  0  0  0  0  # atno 17370 bound_to 10713
  156.0769  130.5789  150.9490 LP  0  0  0  0  0  0  0  0  0  0  0  0  # atno 17371 bound_to 10713
  139.8829  135.0046  156.6263 LP  0  0  0  0  0  0  0  0  0  0  0  0  # atno 17394 bound_to 11000
  140.7690  133.8754  155.8477 LP  0  0  0  0  0  0  0  0  0  0  0  0  # atno 17395 bound_to 11000

$$$$
