AV-unprocessed.smi:366|AV-procd|sdf|2430|dock5
  -GOLD-   2262022373D 1   1.00000     0.00000
 Structure written by MMmdl.
 50 51  0  0  0  0  0  0  0  0  1 V2000
  148.0656  132.9090  153.0859 C   0  0  0  0  0  0  0  0  0  0  0  0
  147.8660  133.7301  154.3555 C   0  0  0  0  0  0  0  0  0  0  0  0
  147.4246  133.1927  155.3705 O   0  0  0  0  0  0  0  0  0  0  0  0
  148.1975  135.0297  154.2885 N   0  0  0  0  0  0  0  0  0  0  0  0
  148.1021  135.9886  155.3912 C   0  0  1  0  0  0  0  0  0  0  0  0
  149.4410  136.7427  155.5028 C   0  0  0  0  0  0  0  0  0  0  0  0
  149.9839  136.8974  156.5982 O   0  0  0  0  0  0  0  0  0  0  0  0
  149.9685  137.1897  154.3543 N   0  0  0  0  0  0  0  0  0  0  0  0
  151.2259  137.9147  154.2525 C   0  0  0  0  0  0  0  0  0  0  0  0
  151.3531  138.9644  155.3373 C   0  0  0  0  0  0  0  0  0  0  0  0
  150.5691  140.1337  155.3090 C   0  0  0  0  0  0  0  0  0  0  0  0
  150.7298  141.0861  156.3334 C   0  0  0  0  0  0  0  0  0  0  0  0
  151.6765  140.8463  157.3586 C   0  0  0  0  0  0  0  0  0  0  0  0
  151.8563  141.7885  158.3949 N   0  0  0  0  0  0  0  0  0  0  0  0
  152.6886  141.4046  159.5338 C   0  0  0  0  0  0  0  0  0  0  0  0
  152.5345  142.4198  160.6787 C   0  0  0  0  0  0  0  0  0  0  0  0
  152.8265  143.7284  160.2006 O   0  0  0  0  0  0  0  0  0  0  0  0
  151.9307  144.1262  159.1683 C   0  0  0  0  0  0  0  0  0  0  0  0
  152.0599  143.1713  157.9689 C   0  0  0  0  0  0  0  0  0  0  0  0
  152.4262  139.7156  157.3804 N   0  0  0  0  0  0  0  0  0  0  0  0
  152.2685  138.8055  156.3963 C   0  0  0  0  0  0  0  0  0  0  0  0
  146.9493  136.9916  155.0903 C   0  0  0  0  0  0  0  0  0  0  0  0
  146.8271  138.1063  156.1505 C   0  0  0  0  0  0  0  0  0  0  0  0
  145.5892  136.2794  154.9509 C   0  0  0  0  0  0  0  0  0  0  0  0
  148.1953  133.5494  152.2124 H   0  0  0  0  0  0  0  0  0  0  0  0
  147.2029  132.2659  152.9109 H   0  0  0  0  0  0  0  0  0  0  0  0
  148.9493  132.2784  153.1835 H   0  0  0  0  0  0  0  0  0  0  0  0
  148.5604  135.3807  153.4144 H   0  0  0  0  0  0  0  0  0  0  0  0
  147.8900  135.4603  156.3233 H   0  0  0  0  0  0  0  0  0  0  0  0
  149.4624  137.0215  153.4968 H   0  0  0  0  0  0  0  0  0  0  0  0
  152.0631  137.2183  154.3243 H   0  0  0  0  0  0  0  0  0  0  0  0
  151.2926  138.3937  153.2742 H   0  0  0  0  0  0  0  0  0  0  0  0
  149.8537  140.3002  154.5172 H   0  0  0  0  0  0  0  0  0  0  0  0
  150.1186  141.9760  156.3276 H   0  0  0  0  0  0  0  0  0  0  0  0
  152.4067  140.4133  159.8914 H   0  0  0  0  0  0  0  0  0  0  0  0
  153.7315  141.3541  159.2178 H   0  0  0  0  0  0  0  0  0  0  0  0
  151.5259  142.3886  161.0940 H   0  0  0  0  0  0  0  0  0  0  0  0
  153.2202  142.1770  161.4902 H   0  0  0  0  0  0  0  0  0  0  0  0
  150.9068  144.1398  159.5455 H   0  0  0  0  0  0  0  0  0  0  0  0
  152.1703  145.1449  158.8642 H   0  0  0  0  0  0  0  0  0  0  0  0
  153.0534  143.2595  157.5275 H   0  0  0  0  0  0  0  0  0  0  0  0
  151.3462  143.4695  157.2026 H   0  0  0  0  0  0  0  0  0  0  0  0
  152.8933  137.9265  156.4560 H   0  0  0  0  0  0  0  0  0  0  0  0
  147.1530  137.4774  154.1343 H   0  0  0  0  0  0  0  0  0  0  0  0
  146.6734  137.6888  157.1460 H   0  0  0  0  0  0  0  0  0  0  0  0
  145.9834  138.7621  155.9337 H   0  0  0  0  0  0  0  0  0  0  0  0
  147.7136  138.7394  156.1878 H   0  0  0  0  0  0  0  0  0  0  0  0
  145.3331  135.7363  155.8609 H   0  0  0  0  0  0  0  0  0  0  0  0
  145.5829  135.5671  154.1259 H   0  0  0  0  0  0  0  0  0  0  0  0
  144.7896  136.9946  154.7566 H   0  0  0  0  0  0  0  0  0  0  0  0
  1  2  1  0  0  0  0
  1 25  1  0  0  0  0
  1 26  1  0  0  0  0
  1 27  1  0  0  0  0
  2  3  2  0  0  0  0
  2  4  1  0  0  0  0
  4  5  1  0  0  0  0
  4 28  1  0  0  0  0
  5  6  1  0  0  0  0
  5 22  1  0  0  0  0
  5 29  1  0  0  0  0
  6  7  2  0  0  0  0
  6  8  1  0  0  0  0
  8  9  1  0  0  0  0
  8 30  1  0  0  0  0
  9 10  1  0  0  0  0
  9 31  1  0  0  0  0
  9 32  1  0  0  0  0
 10 21  1  0  0  0  0
 10 11  2  0  0  0  0
 11 12  1  0  0  0  0
 11 33  1  0  0  0  0
 12 13  2  0  0  0  0
 12 34  1  0  0  0  0
 13 14  1  0  0  0  0
 13 20  1  0  0  0  0
 14 19  1  0  0  0  0
 14 15  1  0  0  0  0
 15 16  1  0  0  0  0
 15 35  1  0  0  0  0
 15 36  1  0  0  0  0
 16 17  1  0  0  0  0
 16 37  1  0  0  0  0
 16 38  1  0  0  0  0
 17 18  1  0  0  0  0
 18 19  1  0  0  0  0
 18 39  1  0  0  0  0
 18 40  1  0  0  0  0
 19 41  1  0  0  0  0
 19 42  1  0  0  0  0
 20 21  2  0  0  0  0
 21 43  1  0  0  0  0
 22 23  1  0  0  0  0
 22 24  1  0  0  0  0
 22 44  1  0  0  0  0
 23 45  1  0  0  0  0
 23 46  1  0  0  0  0
 23 47  1  0  0  0  0
 24 48  1  0  0  0  0
 24 49  1  0  0  0  0
 24 50  1  0  0  0  0
M  END
> <s_m_source_file>
AV-unprocessed.smi

> <i_m_source_file_index>
366

> <i_lp_mmshare_version>
43012

> <i_f3d_flags>
0

> <s_epik_input>
W0NIM11DKD1PKVtOSF1bQ0BASF0oW0NIXShbQ0gzXSlbQ0gzXSlDKD1PKVtOSF1bQ0gyXWMxW2NIXVtjSF1jKG5bY0hdMSlOMltDSDJdW0NIMl1PW0NIMl1bQ0gyXTI=

> <s_epik_cmdline>
J2VwaWtfcHl0aG9uJywgJy1waCcsICc3LjAnLCAnLXRuJywgJzgnLCAnLW1hJywgJzIwMCcsICctbWV0YWxfYmluZGluZycsICctaW1hZScsICc8aW5maWxlLm1hZT4nLCAnLW9tYWUnLCAnPG91dGZpbGUubWFlPic=

> <r_lp_tautomer_probability>
1

> <r_epik_Ionization_Penalty>
0.00485188

> <r_epik_Ionization_Penalty_Charging>
0

> <r_epik_Ionization_Penalty_Neutral>
0.00485188

> <r_epik_State_Penalty>
0.00351951

> <r_epik_Charging_Adjusted_Penalty>
0.00351951

> <i_epik_Tot_Q>
0

> <i_epik_Tot_abs_Q>
0

> <r_epik_Metal_State_Penalty>
-0

> <b_epik_Metal_Only>
0

> <s_lp_Force_Field>
OPLS_2005

> <r_lp_Energy>
20.5125

> <b_lp_Chiralities_Consistent>
1

> <s_lp_Variant>
AV-unprocessed.smi:366-2

> <Gold.Version>
5.8.1

> <Gold.Id.Protein>
6NUR|6NUR_protein|mol2

> <Gold.PLP.Fitness>
46.4562

> <Gold.PLP.PLP>
-39.5593

> <Gold.PLP.part.hbond>
-3.4356

> <Gold.PLP.part.metal>
0.0000

> <Gold.PLP.part.buried>
-4.8299

> <Gold.PLP.part.nonpolar>
-31.6341

> <Gold.PLP.part.repulsive>
0.0686

> <Gold.PLP.ligand.clash>
0.0000

> <Gold.PLP.ligand.torsion>
0.8101

> <Gold.PLP.Chemscore.Hbond>
2.6832

> <Gold.PLP.Chemscore.CHOScore>
0.0000

> <Gold.PLP.Chemscore.Metal>
0.0000

> <Gold.Chemscore.Hbonds>
donor molecule, donor type, donor heavy atom, donor atom, acceptor molecule, acceptor atom, score
      L1  H     4    28       P1  7948  1.00
      L1  H     8    30       P1  7948  1.00
      P1  H  7997  8008       L1    20  0.45

> <Gold.PLP.Chemscore.Internal.Correction>
0.4677

> <Gold.Rescore>
     Score         DG    S(hbond)    S(metal)    S(lipo)     H(rot)  DE(clash)    DE(int)     intcor
     14.87     -18.04       2.33        0.00      88.39       2.18       0.31       2.86       ----

> <Gold.Chemscore.Fitness>
14.8659

> <Gold.Chemscore.DG>
-18.0351

> <Gold.Chemscore.ZeroCoef>
-5.4800

> <Gold.Chemscore.Hbond>
2.3346

> <Gold.Chemscore.Metal>
0.0000

> <Gold.Chemscore.Lipo>
88.3894

> <Gold.Chemscore.Internal_Hbond>
0.0000

> <Gold.Chemscore.DEClash>
0.3083

> <Gold.Chemscore.DEInternal>
2.8608

> <Gold.Chemscore.Rot>
2.1813

> <Gold.Chemscore.Internal.Correction>
   9.000000E+99

> <Gold.Chemscore.Hbonds>
donor molecule, donor type, donor heavy atom, donor atom, acceptor molecule, acceptor atom, score
      L1  H     4    28       P1  7948  0.96
      L1  H     8    30       P1  7948  0.90
      P1  H  7997  8008       L1    20  0.03

> <Gold.Chemscore.Hbond.Weighted>
-7.7977

> <Gold.Chemscore.Metal.Weighted>
-0.0000

> <Gold.Chemscore.Lipo.Weighted>
-10.3416

> <Gold.Chemscore.Internal_Hbond.Weighted>
0.0000

> <Gold.Chemscore.DEClash.Weighted>
0.3083

> <Gold.Chemscore.DEInternal.Weighted>
2.8608

> <Gold.Chemscore.Rot.Weighted>
5.5842

> <Gold.Chemscore.Internal.Correction.Weighted>
   9.000000E+99

> <Gold.Protein.RotatedTorsions>
[ 6907 6896 6895 6894 ] final  149.88 input  -60.11 | X-H torsion
[ 7974 7965 7964 7962 ] final   98.50 input  175.53 | X-H torsion
[ 8008 7997 7996 7995 ] final  -77.99 input   59.86 | X-H torsion
[ 10167 10162 10161 10158 ] final    7.70 input  -65.29 | X-H torsion
[ 10718 10713 10712 10709 ] final  -88.06 input   66.30 | X-H torsion
[ 10763 10752 10751 10750 ] final  170.68 input  -60.55 | X-H torsion
[ 11005 11000 10999 10996 ] final  107.64 input  -57.11 | X-H torsion

> <Gold.Protein.ActiveResidues>
 VAL166  LYS551  ARG553  GLY616  TRP617  ASP618  TYR619  PRO620  LYS621  CYS622 
 ASP623  PHE694  ASN695  SER759  ASP760  ASP761  ALA762  ILE779  LEU786  VAL792 
 PHE793  MET794  SER795  GLU796  ALA797  LYS798  CYS799  TRP800  GLU811  SER814 

> <Gold.Protein.RotatedAtoms>
  152.1220  133.4359  159.4679 H   0  0  0  0  0  0  0  0  0  0  0  0  # atno 6907 bound_to 6896
  150.6872  134.2523  159.4525 H   0  0  0  0  0  0  0  0  0  0  0  0  # atno 6908 bound_to 6896
  152.0401  134.9716  160.0624 H   0  0  0  0  0  0  0  0  0  0  0  0  # atno 6909 bound_to 6896
  145.4114  139.2333  143.3246 H   0  0  0  0  0  0  0  0  0  0  0  0  # atno 7974 bound_to 7965
  154.5648  140.0701  156.8874 H   0  0  0  0  0  0  0  0  0  0  0  0  # atno 8008 bound_to 7997
  155.2744  140.3367  155.4244 H   0  0  0  0  0  0  0  0  0  0  0  0  # atno 8009 bound_to 7997
  156.2071  140.1744  156.7761 H   0  0  0  0  0  0  0  0  0  0  0  0  # atno 8010 bound_to 7997
  140.6357  143.7892  150.7356 H   0  0  0  0  0  0  0  0  0  0  0  0  # atno 10167 bound_to 10162
  155.9984  130.4822  150.4962 H   0  0  0  0  0  0  0  0  0  0  0  0  # atno 10718 bound_to 10713
  154.4010  135.2755  155.2096 H   0  0  0  0  0  0  0  0  0  0  0  0  # atno 10763 bound_to 10752
  154.4122  135.6019  153.5963 H   0  0  0  0  0  0  0  0  0  0  0  0  # atno 10764 bound_to 10752
  152.9831  135.5952  154.4278 H   0  0  0  0  0  0  0  0  0  0  0  0  # atno 10765 bound_to 10752
  139.8831  134.9407  156.5851 H   0  0  0  0  0  0  0  0  0  0  0  0  # atno 11005 bound_to 11000
  146.2703  140.4826  142.8817 LP  0  0  0  0  0  0  0  0  0  0  0  0  # atno 17320 bound_to 7965
  144.8307  140.6701  143.6293 LP  0  0  0  0  0  0  0  0  0  0  0  0  # atno 17321 bound_to 7965
  140.1513  143.4355  152.2129 LP  0  0  0  0  0  0  0  0  0  0  0  0  # atno 17342 bound_to 10162
  139.5567  144.7378  151.4273 LP  0  0  0  0  0  0  0  0  0  0  0  0  # atno 17343 bound_to 10162
  157.2951  131.0634  151.2107 LP  0  0  0  0  0  0  0  0  0  0  0  0  # atno 17370 bound_to 10713
  157.3105  130.6887  149.6213 LP  0  0  0  0  0  0  0  0  0  0  0  0  # atno 17371 bound_to 10713
  140.7998  133.8515  155.8717 LP  0  0  0  0  0  0  0  0  0  0  0  0  # atno 17394 bound_to 11000
  140.9603  134.1664  157.4659 LP  0  0  0  0  0  0  0  0  0  0  0  0  # atno 17395 bound_to 11000

$$$$
