AV-unprocessed.smi:2061|AV-procd|sdf|8371|dock1
  -GOLD-   2272011 43D 1   1.00000     0.00000
 Structure written by MMmdl.
 46 47  0  0  0  0  0  0  0  0  2 V2000
  138.2419  137.0374  153.8659 C   0  0  0  0  0  0  0  0  0  0  0  0
  139.7150  137.2084  154.0132 C   0  0  0  0  0  0  0  0  0  0  0  0
  140.5908  138.1557  153.5637 C   0  0  0  0  0  0  0  0  0  0  0  0
  141.8421  137.7008  154.0731 C   0  0  0  0  0  0  0  0  0  0  0  0
  143.1018  138.3282  153.8925 N   0  0  0  0  0  0  0  0  0  0  0  0
  144.3017  137.9408  154.3570 C   0  0  0  0  0  0  0  0  0  0  0  0
  144.5113  136.9470  155.0524 O   0  0  0  0  0  0  0  0  0  0  0  0
  145.2681  138.7860  153.9675 N   0  0  0  0  0  0  0  0  0  0  0  0
  146.6936  138.6353  154.2535 C   0  0  0  0  0  0  0  0  0  0  0  0
  147.5040  139.9524  154.0866 C   0  0  1  0  0  0  0  0  0  0  0  0
  146.6443  141.1768  154.4886 C   0  0  0  0  0  0  0  0  0  0  0  0
  148.8037  139.9178  154.8420 N   0  3  1  0  0  0  0  0  0  0  0  0
  149.7978  138.9524  154.2954 C   0  0  0  0  0  0  0  0  0  0  0  0
  151.0856  138.9199  155.1381 C   0  0  1  0  0  0  0  0  0  0  0  0
  152.1504  138.0069  154.5203 C   0  0  0  0  0  0  0  0  0  0  0  0
  151.6363  140.2270  155.2264 O   0  0  0  0  0  0  0  0  0  0  0  0
  150.7573  141.1920  155.7939 C   0  0  2  0  0  0  0  0  0  0  0  0
  150.5470  140.9833  157.3050 C   0  0  0  0  0  0  0  0  0  0  0  0
  149.4444  141.2556  154.9893 C   0  0  0  0  0  0  0  0  0  0  0  0
  141.7335  136.5800  154.7625 N   0  0  0  0  0  0  0  0  0  0  0  0
  140.3717  136.2580  154.7313 O   0  0  0  0  0  0  0  0  0  0  0  0
  137.8335  137.7640  153.1632 H   0  0  0  0  0  0  0  0  0  0  0  0
  137.7397  137.1738  154.8238 H   0  0  0  0  0  0  0  0  0  0  0  0
  138.0032  136.0398  153.4968 H   0  0  0  0  0  0  0  0  0  0  0  0
  140.3562  139.0253  152.9687 H   0  0  0  0  0  0  0  0  0  0  0  0
  143.0876  139.1633  153.3257 H   0  0  0  0  0  0  0  0  0  0  0  0
  145.0013  139.5792  153.4024 H   0  0  0  0  0  0  0  0  0  0  0  0
  146.8544  138.2150  155.2478 H   0  0  0  0  0  0  0  0  0  0  0  0
  147.0261  137.8812  153.5425 H   0  0  0  0  0  0  0  0  0  0  0  0
  147.7460  140.0552  153.0275 H   0  0  0  0  0  0  0  0  0  0  0  0
  145.6812  141.1867  153.9809 H   0  0  0  0  0  0  0  0  0  0  0  0
  147.1074  142.1227  154.2140 H   0  0  0  0  0  0  0  0  0  0  0  0
  146.4498  141.1898  155.5617 H   0  0  0  0  0  0  0  0  0  0  0  0
  149.4016  137.9392  154.2973 H   0  0  0  0  0  0  0  0  0  0  0  0
  150.0253  139.2123  153.2601 H   0  0  0  0  0  0  0  0  0  0  0  0
  150.8603  138.5436  156.1361 H   0  0  0  0  0  0  0  0  0  0  0  0
  151.7883  136.9820  154.4334 H   0  0  0  0  0  0  0  0  0  0  0  0
  153.0513  137.9891  155.1340 H   0  0  0  0  0  0  0  0  0  0  0  0
  152.4332  138.3478  153.5237 H   0  0  0  0  0  0  0  0  0  0  0  0
  151.2594  142.1533  155.6801 H   0  0  0  0  0  0  0  0  0  0  0  0
  149.9961  141.8193  157.7368 H   0  0  0  0  0  0  0  0  0  0  0  0
  151.5031  140.9175  157.8249 H   0  0  0  0  0  0  0  0  0  0  0  0
  149.9820  140.0780  157.5256 H   0  0  0  0  0  0  0  0  0  0  0  0
  149.6440  141.6619  153.9964 H   0  0  0  0  0  0  0  0  0  0  0  0
  148.7896  141.9618  155.4954 H   0  0  0  0  0  0  0  0  0  0  0  0
  148.5833  139.6010  155.7755 H   0  0  0  0  0  0  0  0  0  0  0  0
  1  2  1  0  0  0  0
  1 22  1  0  0  0  0
  1 23  1  0  0  0  0
  1 24  1  0  0  0  0
  2 21  1  0  0  0  0
  2  3  2  0  0  0  0
  3  4  1  0  0  0  0
  3 25  1  0  0  0  0
  4  5  1  0  0  0  0
  4 20  2  0  0  0  0
  5  6  1  0  0  0  0
  5 26  1  0  0  0  0
  6  7  2  0  0  0  0
  6  8  1  0  0  0  0
  8  9  1  0  0  0  0
  8 27  1  0  0  0  0
  9 10  1  0  0  0  0
  9 28  1  0  0  0  0
  9 29  1  0  0  0  0
 10 11  1  0  0  0  0
 10 12  1  0  0  0  0
 10 30  1  0  0  0  0
 11 31  1  0  0  0  0
 11 32  1  0  0  0  0
 11 33  1  0  0  0  0
 12 19  1  0  0  0  0
 12 13  1  0  0  0  0
 12 46  1  0  0  0  0
 13 14  1  0  0  0  0
 13 34  1  0  0  0  0
 13 35  1  0  0  0  0
 14 15  1  0  0  0  0
 14 16  1  0  0  0  0
 14 36  1  0  0  0  0
 15 37  1  0  0  0  0
 15 38  1  0  0  0  0
 15 39  1  0  0  0  0
 16 17  1  0  0  0  0
 17 18  1  0  0  0  0
 17 19  1  0  0  0  0
 17 40  1  0  0  0  0
 18 41  1  0  0  0  0
 18 42  1  0  0  0  0
 18 43  1  0  0  0  0
 19 44  1  0  0  0  0
 19 45  1  0  0  0  0
 20 21  1  0  0  0  0
M  CHG  1  12   1
M  END
> <s_m_source_file>
AV-unprocessed.smi

> <i_m_source_file_index>
2061

> <i_lp_mmshare_version>
43012

> <i_f3d_flags>
0

> <s_epik_input>
W0NIM11jMVtjSF1jKG5vMSlbTkhdQyg9TylbTkhdW0NIMl1bQ0BIXShbQ0gzXSlOMltDSDJdW0NAQEhdKFtDSDNdKU9bQ0BASF0oW0NIM10pW0NIMl0y

> <s_epik_cmdline>
J2VwaWtfcHl0aG9uJywgJy1waCcsICc3LjAnLCAnLXRuJywgJzgnLCAnLW1hJywgJzIwMCcsICctbWV0YWxfYmluZGluZycsICctaW1hZScsICc8aW5maWxlLm1hZT4nLCAnLW9tYWUnLCAnPG91dGZpbGUubWFlPic=

> <r_epik_Ionization_Penalty>
0.707076

> <r_epik_Ionization_Penalty_Charging>
0.707039

> <r_epik_Ionization_Penalty_Neutral>
3.6548e-05

> <r_epik_State_Penalty>
0.730276

> <r_epik_Charging_Adjusted_Penalty>
1.43732

> <i_epik_Tot_Q>
1

> <i_epik_Tot_abs_Q>
1

> <r_epik_Metal_State_Penalty>
0.743132

> <b_epik_Metal_Only>
0

> <s_lp_Force_Field>
OPLS_2005

> <r_lp_Energy>
23.7206

> <b_lp_Chiralities_Consistent>
1

> <s_lp_Variant>
AV-unprocessed.smi:2061-12

> <Gold.Version>
5.8.1

> <Gold.Id.Protein>
6NUR|6NUR_protein|mol2

> <Gold.PLP.Fitness>
45.0215

> <Gold.PLP.PLP>
-34.6728

> <Gold.PLP.part.hbond>
-4.0000

> <Gold.PLP.part.metal>
0.0000

> <Gold.PLP.part.buried>
-5.9982

> <Gold.PLP.part.nonpolar>
-26.1254

> <Gold.PLP.part.repulsive>
0.2044

> <Gold.PLP.ligand.clash>
0.0000

> <Gold.PLP.ligand.torsion>
0.5709

> <Gold.PLP.Chemscore.Hbond>
3.8160

> <Gold.PLP.Chemscore.CHOScore>
0.0000

> <Gold.PLP.Chemscore.Metal>
0.0000

> <Gold.Chemscore.Hbonds>
donor molecule, donor type, donor heavy atom, donor atom, acceptor molecule, acceptor atom, score
      L1  H     5    26       P1 10175  1.00
      L1  H     8    27       P1 10175  0.96
      P1  H  7989  7998       L1    16  0.84
      P1  H 11000 11005       L1    21  0.91

> <Gold.PLP.Chemscore.Internal.Correction>
0.0425

> <Gold.Rescore>
     Score         DG    S(hbond)    S(metal)    S(lipo)     H(rot)  DE(clash)    DE(int)     intcor
     18.38     -20.32       2.87        0.00      79.69       1.58       0.04       1.90       ----

> <Gold.Chemscore.Fitness>
18.3833

> <Gold.Chemscore.DG>
-20.3208

> <Gold.Chemscore.ZeroCoef>
-5.4800

> <Gold.Chemscore.Hbond>
2.8654

> <Gold.Chemscore.Metal>
0.0000

> <Gold.Chemscore.Lipo>
79.6916

> <Gold.Chemscore.Internal_Hbond>
0.0000

> <Gold.Chemscore.DEClash>
0.0421

> <Gold.Chemscore.DEInternal>
1.8955

> <Gold.Chemscore.Rot>
1.5834

> <Gold.Chemscore.Internal.Correction>
   9.000000E+99

> <Gold.Chemscore.Hbonds>
donor molecule, donor type, donor heavy atom, donor atom, acceptor molecule, acceptor atom, score
      L1  H     5    26       P1 10175  0.99
      L1  H     8    27       P1 10175  0.92
      P1  H  7989  7998       L1    16  0.09
      P1  H 11000 11005       L1    21  0.58

> <Gold.Chemscore.Hbond.Weighted>
-9.5704

> <Gold.Chemscore.Metal.Weighted>
-0.0000

> <Gold.Chemscore.Lipo.Weighted>
-9.3239

> <Gold.Chemscore.Internal_Hbond.Weighted>
0.0000

> <Gold.Chemscore.DEClash.Weighted>
0.0421

> <Gold.Chemscore.DEInternal.Weighted>
1.8955

> <Gold.Chemscore.Rot.Weighted>
4.0535

> <Gold.Chemscore.Internal.Correction.Weighted>
   9.000000E+99

> <Gold.Protein.RotatedTorsions>
[ 6907 6896 6895 6894 ] final   -0.45 input  -60.11 | X-H torsion
[ 7974 7965 7964 7962 ] final   50.25 input  175.53 | X-H torsion
[ 8008 7997 7996 7995 ] final   -7.68 input   59.86 | X-H torsion
[ 10167 10162 10161 10158 ] final -133.40 input  -65.29 | X-H torsion
[ 10718 10713 10712 10709 ] final  132.40 input   66.30 | X-H torsion
[ 10763 10752 10751 10750 ] final  135.96 input  -60.55 | X-H torsion
[ 11005 11000 10999 10996 ] final   54.99 input  -57.11 | X-H torsion

> <Gold.Protein.ActiveResidues>
 VAL166  LYS551  ARG553  GLY616  TRP617  ASP618  TYR619  PRO620  LYS621  CYS622 
 ASP623  PHE694  ASN695  SER759  ASP760  ASP761  ALA762  ILE779  LEU786  VAL792 
 PHE793  MET794  SER795  GLU796  ALA797  LYS798  CYS799  TRP800  GLU811  SER814 

> <Gold.Protein.RotatedAtoms>
  151.5620  135.1065  159.9974 H   0  0  0  0  0  0  0  0  0  0  0  0  # atno 6907 bound_to 6896
  152.4442  133.7501  159.6700 H   0  0  0  0  0  0  0  0  0  0  0  0  # atno 6908 bound_to 6896
  150.8354  133.7954  159.3105 H   0  0  0  0  0  0  0  0  0  0  0  0  # atno 6909 bound_to 6896
  146.0030  139.4460  143.0003 H   0  0  0  0  0  0  0  0  0  0  0  0  # atno 7974 bound_to 7965
  154.5815  140.2401  155.8047 H   0  0  0  0  0  0  0  0  0  0  0  0  # atno 8008 bound_to 7997
  156.2182  140.3005  155.9846 H   0  0  0  0  0  0  0  0  0  0  0  0  # atno 8009 bound_to 7997
  155.2533  140.0411  157.2979 H   0  0  0  0  0  0  0  0  0  0  0  0  # atno 8010 bound_to 7997
  139.8986  143.6635  152.2599 H   0  0  0  0  0  0  0  0  0  0  0  0  # atno 10167 bound_to 10162
  157.4874  131.1089  150.9602 H   0  0  0  0  0  0  0  0  0  0  0  0  # atno 10718 bound_to 10713
  153.8486  135.3082  155.3431 H   0  0  0  0  0  0  0  0  0  0  0  0  # atno 10763 bound_to 10752
  154.7901  135.4787  154.0037 H   0  0  0  0  0  0  0  0  0  0  0  0  # atno 10764 bound_to 10752
  153.1532  135.6847  153.8944 H   0  0  0  0  0  0  0  0  0  0  0  0  # atno 10765 bound_to 10752
  140.0642  134.5559  155.9117 H   0  0  0  0  0  0  0  0  0  0  0  0  # atno 11005 bound_to 11000
  145.7459  140.9991  143.1276 LP  0  0  0  0  0  0  0  0  0  0  0  0  # atno 17320 bound_to 7965
  144.6926  139.9155  143.7465 LP  0  0  0  0  0  0  0  0  0  0  0  0  # atno 17321 bound_to 7965
  139.7045  144.7630  151.1216 LP  0  0  0  0  0  0  0  0  0  0  0  0  # atno 17342 bound_to 10162
  140.7711  143.5413  150.9309 LP  0  0  0  0  0  0  0  0  0  0  0  0  # atno 17343 bound_to 10162
  157.0315  130.5713  149.5344 LP  0  0  0  0  0  0  0  0  0  0  0  0  # atno 17370 bound_to 10713
  156.0154  130.5248  150.8119 LP  0  0  0  0  0  0  0  0  0  0  0  0  # atno 17371 bound_to 10713
  141.1986  133.6602  156.5800 LP  0  0  0  0  0  0  0  0  0  0  0  0  # atno 17394 bound_to 11000
  140.3724  134.7594  157.4607 LP  0  0  0  0  0  0  0  0  0  0  0  0  # atno 17395 bound_to 11000

$$$$
