AV-unprocessed.smi:701|AV-procd|sdf|3411|dock2
  -GOLD-   22720 0393D 1   1.00000     0.00000
 Structure written by MMmdl.
 49 51  0  0  0  0  0  0  0  0  1 V2000
  151.6711  145.2010  160.5063 C   0  0  0  0  0  0  0  0  0  0  0  0
  150.4271  144.6593  159.7990 C   0  0  0  0  0  0  0  0  0  0  0  0
  150.6184  143.2806  159.5295 O   0  0  0  0  0  0  0  0  0  0  0  0
  150.2427  142.9197  158.2096 C   0  0  1  0  0  0  0  0  0  0  0  0
  151.1476  143.4848  157.1110 C   0  0  0  0  0  0  0  0  0  0  0  0
  151.0555  142.1162  156.4285 C   0  0  2  0  0  0  0  0  0  0  0  0
  149.9587  142.0912  155.4597 N   0  0  0  0  0  0  0  0  0  0  0  0
  149.7825  141.1541  154.5171 C   0  0  0  0  0  0  0  0  0  0  0  0
  150.5378  140.1930  154.3683 O   0  0  0  0  0  0  0  0  0  0  0  0
  148.5419  141.3126  153.6285 C   0  0  0  0  0  0  0  0  0  0  0  0
  147.3844  141.8368  154.3664 N   0  0  0  0  0  0  0  0  0  0  0  0
  146.7054  142.9557  153.9053 C   0  0  0  0  0  0  0  0  0  0  0  0
  145.6363  143.4925  154.5398 C   0  0  0  0  0  0  0  0  0  0  0  0
  145.1358  142.8992  155.7751 C   0  0  0  0  0  0  0  0  0  0  0  0
  144.1735  143.3096  156.4200 O   0  0  0  0  0  0  0  0  0  0  0  0
  145.8481  141.7781  156.2088 N   0  0  0  0  0  0  0  0  0  0  0  0
  146.9524  141.2217  155.5615 C   0  0  0  0  0  0  0  0  0  0  0  0
  147.5122  140.2324  156.0329 O   0  0  0  0  0  0  0  0  0  0  0  0
  150.6901  141.4928  157.8083 C   0  0  0  0  0  0  0  0  0  0  0  0
  151.8960  140.9300  158.5919 C   0  0  0  0  0  0  0  0  0  0  0  0
  152.3994  139.5873  158.0330 C   0  0  0  0  0  0  0  0  0  0  0  0
  151.2804  138.5382  158.0096 C   0  0  0  0  0  0  0  0  0  0  0  0
  150.0400  139.0667  157.2788 C   0  0  0  0  0  0  0  0  0  0  0  0
  149.5874  140.4159  157.8627 C   0  0  0  0  0  0  0  0  0  0  0  0
  145.5393  141.3354  157.0621 H   0  0  0  0  0  0  0  0  0  0  0  0
  151.5642  146.2638  160.7244 H   0  0  0  0  0  0  0  0  0  0  0  0
  152.5591  145.0739  159.8866 H   0  0  0  0  0  0  0  0  0  0  0  0
  151.8419  144.6811  161.4492 H   0  0  0  0  0  0  0  0  0  0  0  0
  149.5483  144.8004  160.4296 H   0  0  0  0  0  0  0  0  0  0  0  0
  150.2600  145.2082  158.8713 H   0  0  0  0  0  0  0  0  0  0  0  0
  149.1829  143.0896  158.0073 H   0  0  0  0  0  0  0  0  0  0  0  0
  150.7198  144.3177  156.5516 H   0  0  0  0  0  0  0  0  0  0  0  0
  152.1542  143.7154  157.4627 H   0  0  0  0  0  0  0  0  0  0  0  0
  152.0173  141.7851  156.0339 H   0  0  0  0  0  0  0  0  0  0  0  0
  149.2857  142.8418  155.5132 H   0  0  0  0  0  0  0  0  0  0  0  0
  148.8017  141.9810  152.8061 H   0  0  0  0  0  0  0  0  0  0  0  0
  148.2885  140.3613  153.1559 H   0  0  0  0  0  0  0  0  0  0  0  0
  147.0442  143.4309  152.9958 H   0  0  0  0  0  0  0  0  0  0  0  0
  145.1493  144.3662  154.1312 H   0  0  0  0  0  0  0  0  0  0  0  0
  152.7229  141.6406  158.5900 H   0  0  0  0  0  0  0  0  0  0  0  0
  151.6301  140.7973  159.6414 H   0  0  0  0  0  0  0  0  0  0  0  0
  152.7865  139.7292  157.0234 H   0  0  0  0  0  0  0  0  0  0  0  0
  153.2339  139.2243  158.6335 H   0  0  0  0  0  0  0  0  0  0  0  0
  151.6338  137.6219  157.5361 H   0  0  0  0  0  0  0  0  0  0  0  0
  151.0115  138.2739  159.0332 H   0  0  0  0  0  0  0  0  0  0  0  0
  150.2616  139.1787  156.2172 H   0  0  0  0  0  0  0  0  0  0  0  0
  149.2306  138.3396  157.3490 H   0  0  0  0  0  0  0  0  0  0  0  0
  149.2737  140.2650  158.8966 H   0  0  0  0  0  0  0  0  0  0  0  0
  148.6891  140.7475  157.3417 H   0  0  0  0  0  0  0  0  0  0  0  0
  1  2  1  0  0  0  0
  1 26  1  0  0  0  0
  1 27  1  0  0  0  0
  1 28  1  0  0  0  0
  2  3  1  0  0  0  0
  2 29  1  0  0  0  0
  2 30  1  0  0  0  0
  3  4  1  0  0  0  0
  4 19  1  0  0  0  0
  4  5  1  0  0  0  0
  4 31  1  0  0  0  0
  5  6  1  0  0  0  0
  5 32  1  0  0  0  0
  5 33  1  0  0  0  0
  6  7  1  0  0  0  0
  6 19  1  0  0  0  0
  6 34  1  0  0  0  0
  7  8  1  0  0  0  0
  7 35  1  0  0  0  0
  8  9  2  0  0  0  0
  8 10  1  0  0  0  0
 10 11  1  0  0  0  0
 10 36  1  0  0  0  0
 10 37  1  0  0  0  0
 11 17  1  0  0  0  0
 11 12  1  0  0  0  0
 12 13  2  0  0  0  0
 12 38  1  0  0  0  0
 13 14  1  0  0  0  0
 13 39  1  0  0  0  0
 14 15  2  0  0  0  0
 14 16  1  0  0  0  0
 16 25  1  0  0  0  0
 16 17  1  0  0  0  0
 17 18  2  0  0  0  0
 19 24  1  0  0  0  0
 19 20  1  0  0  0  0
 20 21  1  0  0  0  0
 20 40  1  0  0  0  0
 20 41  1  0  0  0  0
 21 22  1  0  0  0  0
 21 42  1  0  0  0  0
 21 43  1  0  0  0  0
 22 23  1  0  0  0  0
 22 44  1  0  0  0  0
 22 45  1  0  0  0  0
 23 24  1  0  0  0  0
 23 46  1  0  0  0  0
 23 47  1  0  0  0  0
 24 48  1  0  0  0  0
 24 49  1  0  0  0  0
M  END
> <s_m_source_file>
AV-unprocessed.smi

> <i_m_source_file_index>
701

> <i_lp_mmshare_version>
43012

> <i_f3d_flags>
0

> <s_epik_input>
W0NIMl0xW0NIMl1bQ0gyXVtDSDJdW0NIMl1DMTJbQ0BIXShPW0NIMl1bQ0gzXSlbQ0gyXVtDQEhdMltOSF1DKD1PKVtDSDJdbjNbY0hdW2NIXWMoPU8pW25IXWMzPU8=

> <s_epik_cmdline>
J2VwaWtfcHl0aG9uJywgJy1waCcsICc3LjAnLCAnLXRuJywgJzgnLCAnLW1hJywgJzIwMCcsICctbWV0YWxfYmluZGluZycsICctaW1hZScsICc8aW5maWxlLm1hZT4nLCAnLW9tYWUnLCAnPG91dGZpbGUubWFlPic=

> <r_lp_tautomer_probability>
0.999537

> <r_epik_Ionization_Penalty>
0.00304597

> <r_epik_Ionization_Penalty_Charging>
0.00304595

> <r_epik_Ionization_Penalty_Neutral>
1.88422e-08

> <r_epik_State_Penalty>
0.00214084

> <r_epik_Charging_Adjusted_Penalty>
0.00518679

> <i_epik_Tot_Q>
0

> <i_epik_Tot_abs_Q>
0

> <r_epik_Metal_State_Penalty>
0.361872

> <b_epik_Metal_Only>
0

> <s_lp_Force_Field>
OPLS_2005

> <r_lp_Energy>
29.1408

> <b_lp_Chiralities_Consistent>
1

> <s_lp_Variant>
AV-unprocessed.smi:701-4

> <Gold.Version>
5.8.1

> <Gold.Id.Protein>
6NUR|6NUR_protein|mol2

> <Gold.PLP.Fitness>
46.2564

> <Gold.PLP.PLP>
-42.0431

> <Gold.PLP.part.hbond>
-2.3023

> <Gold.PLP.part.metal>
0.0000

> <Gold.PLP.part.buried>
-4.7670

> <Gold.PLP.part.nonpolar>
-34.7325

> <Gold.PLP.part.repulsive>
0.3540

> <Gold.PLP.ligand.clash>
0.0000

> <Gold.PLP.ligand.torsion>
1.0020

> <Gold.PLP.Chemscore.Hbond>
1.9440

> <Gold.PLP.Chemscore.CHOScore>
0.0000

> <Gold.PLP.Chemscore.Metal>
0.0000

> <Gold.Chemscore.Hbonds>
donor molecule, donor type, donor heavy atom, donor atom, acceptor molecule, acceptor atom, score
      L1  H     7    35       P1  8028  1.00
      P1  H  7989  7998       L1     9  0.95

> <Gold.PLP.Chemscore.Internal.Correction>
0.3853

> <Gold.Rescore>
     Score         DG    S(hbond)    S(metal)    S(lipo)     H(rot)  DE(clash)    DE(int)     intcor
     14.14     -15.88       1.51        0.00      91.46       2.09       0.85       0.89       ----

> <Gold.Chemscore.Fitness>
14.1387

> <Gold.Chemscore.DG>
-15.8780

> <Gold.Chemscore.ZeroCoef>
-5.4800

> <Gold.Chemscore.Hbond>
1.5138

> <Gold.Chemscore.Metal>
0.0000

> <Gold.Chemscore.Lipo>
91.4583

> <Gold.Chemscore.Internal_Hbond>
0.0000

> <Gold.Chemscore.DEClash>
0.8453

> <Gold.Chemscore.DEInternal>
0.8941

> <Gold.Chemscore.Rot>
2.0933

> <Gold.Chemscore.Internal.Correction>
   9.000000E+99

> <Gold.Chemscore.Hbonds>
donor molecule, donor type, donor heavy atom, donor atom, acceptor molecule, acceptor atom, score
      L1  H     7    35       P1  8028  0.94
      P1  H  7989  7998       L1     9  0.20

> <Gold.Chemscore.Hbond.Weighted>
-5.0562

> <Gold.Chemscore.Metal.Weighted>
-0.0000

> <Gold.Chemscore.Lipo.Weighted>
-10.7006

> <Gold.Chemscore.Internal_Hbond.Weighted>
0.0000

> <Gold.Chemscore.DEClash.Weighted>
0.8453

> <Gold.Chemscore.DEInternal.Weighted>
0.8941

> <Gold.Chemscore.Rot.Weighted>
5.3588

> <Gold.Chemscore.Internal.Correction.Weighted>
   9.000000E+99

> <Gold.Protein.RotatedTorsions>
[ 6907 6896 6895 6894 ] final  -69.63 input  -60.11 | X-H torsion
[ 7974 7965 7964 7962 ] final  151.98 input  175.53 | X-H torsion
[ 8008 7997 7996 7995 ] final   47.57 input   59.86 | X-H torsion
[ 10167 10162 10161 10158 ] final   65.76 input  -65.29 | X-H torsion
[ 10718 10713 10712 10709 ] final  -60.35 input   66.30 | X-H torsion
[ 10763 10752 10751 10750 ] final  -65.91 input  -60.55 | X-H torsion
[ 11005 11000 10999 10996 ] final -169.23 input  -57.11 | X-H torsion

> <Gold.Protein.ActiveResidues>
 VAL166  LYS551  ARG553  GLY616  TRP617  ASP618  TYR619  PRO620  LYS621  CYS622 
 ASP623  PHE694  ASN695  SER759  ASP760  ASP761  ALA762  ILE779  LEU786  VAL792 
 PHE793  MET794  SER795  GLU796  ALA797  LYS798  CYS799  TRP800  GLU811  SER814 

> <Gold.Protein.RotatedAtoms>
  150.7296  134.5568  159.5822 H   0  0  0  0  0  0  0  0  0  0  0  0  # atno 6907 bound_to 6896
  152.3042  134.7572  160.0360 H   0  0  0  0  0  0  0  0  0  0  0  0  # atno 6908 bound_to 6896
  151.8142  133.3350  159.3601 H   0  0  0  0  0  0  0  0  0  0  0  0  # atno 6909 bound_to 6896
  144.8254  139.6608  143.6082 H   0  0  0  0  0  0  0  0  0  0  0  0  # atno 7974 bound_to 7965
  155.3712  140.3424  155.4243 H   0  0  0  0  0  0  0  0  0  0  0  0  # atno 8008 bound_to 7997
  156.1661  140.1616  156.8562 H   0  0  0  0  0  0  0  0  0  0  0  0  # atno 8009 bound_to 7997
  154.5187  140.0772  156.8112 H   0  0  0  0  0  0  0  0  0  0  0  0  # atno 8010 bound_to 7997
  140.1078  144.4846  150.6997 H   0  0  0  0  0  0  0  0  0  0  0  0  # atno 10167 bound_to 10162
  156.0996  130.4188  150.0842 H   0  0  0  0  0  0  0  0  0  0  0  0  # atno 10718 bound_to 10713
  154.3520  135.6134  153.5648 H   0  0  0  0  0  0  0  0  0  0  0  0  # atno 10763 bound_to 10752
  152.9798  135.5795  154.4732 H   0  0  0  0  0  0  0  0  0  0  0  0  # atno 10764 bound_to 10752
  154.4455  135.2851  155.1795 H   0  0  0  0  0  0  0  0  0  0  0  0  # atno 10765 bound_to 10752
  140.5331  134.5597  157.5080 H   0  0  0  0  0  0  0  0  0  0  0  0  # atno 11005 bound_to 11000
  146.2559  139.6302  142.9395 LP  0  0  0  0  0  0  0  0  0  0  0  0  # atno 17320 bound_to 7965
  145.5012  141.0437  143.2539 LP  0  0  0  0  0  0  0  0  0  0  0  0  # atno 17321 bound_to 7965
  140.6943  143.2394  151.5045 LP  0  0  0  0  0  0  0  0  0  0  0  0  # atno 17342 bound_to 10162
  139.5636  144.2097  152.1730 LP  0  0  0  0  0  0  0  0  0  0  0  0  # atno 17343 bound_to 10162
  156.8833  130.9564  151.3597 LP  0  0  0  0  0  0  0  0  0  0  0  0  # atno 17370 bound_to 10713
  157.6164  130.8622  149.9036 LP  0  0  0  0  0  0  0  0  0  0  0  0  # atno 17371 bound_to 10713
  139.9544  134.7561  156.0376 LP  0  0  0  0  0  0  0  0  0  0  0  0  # atno 17394 bound_to 11000
  141.1270  133.6596  156.3363 LP  0  0  0  0  0  0  0  0  0  0  0  0  # atno 17395 bound_to 11000

$$$$
