AV-unprocessed.smi:1934|AV-procd|sdf|7825|dock1
  -GOLD-   22720 9573D 1   1.00000     0.00000
 Structure written by MMmdl.
 46 47  0  0  0  0  0  0  0  0  2 V2000
  150.5714  142.8689  157.1878 C   0  0  0  0  0  0  0  0  0  0  0  0
  150.3036  141.7744  156.1971 C   0  0  0  0  0  0  0  0  0  0  0  0
  149.2499  141.6940  155.2412 C   0  0  0  0  0  0  0  0  0  0  0  0
  149.4971  140.5008  154.6185 C   0  0  0  0  0  0  0  0  0  0  0  0
  148.8084  139.9089  153.6063 N   0  0  0  0  0  0  0  0  0  0  0  0
  147.6894  139.1664  153.6709 C   0  0  0  0  0  0  0  0  0  0  0  0
  147.0991  138.8476  154.7034 O   0  0  0  0  0  0  0  0  0  0  0  0
  147.2819  138.7963  152.4483 N   0  0  0  0  0  0  0  0  0  0  0  0
  146.0942  137.9966  152.1726 C   0  0  0  0  0  0  0  0  0  0  0  0
  146.4072  136.8361  151.2091 C   0  0  0  0  0  0  0  0  0  0  0  0
  145.7150  135.5819  151.5980 N   0  3  1  0  0  0  0  0  0  0  0  0
  144.2413  135.6761  151.4354 C   0  0  0  0  0  0  0  0  0  0  0  0
  143.5419  134.4274  151.9956 C   0  0  0  0  0  0  0  0  0  0  0  0
  144.0867  133.1502  151.3411 C   0  0  0  0  0  0  0  0  0  0  0  0
  145.6215  133.0778  151.4465 C   0  0  2  0  0  0  0  0  0  0  0  0
  146.1068  132.7239  152.8630 C   0  0  0  0  0  0  0  0  0  0  0  0
  146.2636  134.3772  150.9174 C   0  0  0  0  0  0  0  0  0  0  0  0
  150.6215  139.9323  155.1779 N   0  0  0  0  0  0  0  0  0  0  0  0
  151.2865  138.6798  154.8725 C   0  0  0  0  0  0  0  0  0  0  0  0
  151.1134  140.7227  156.1558 N   0  0  0  0  0  0  0  0  0  0  0  0
  149.9209  143.7263  157.0138 H   0  0  0  0  0  0  0  0  0  0  0  0
  151.6023  143.2172  157.1211 H   0  0  0  0  0  0  0  0  0  0  0  0
  150.4007  142.5242  158.2078 H   0  0  0  0  0  0  0  0  0  0  0  0
  148.4588  142.4055  155.0593 H   0  0  0  0  0  0  0  0  0  0  0  0
  149.1868  140.0641  152.6835 H   0  0  0  0  0  0  0  0  0  0  0  0
  147.8249  139.0986  151.6523 H   0  0  0  0  0  0  0  0  0  0  0  0
  145.6766  137.6365  153.1133 H   0  0  0  0  0  0  0  0  0  0  0  0
  145.3416  138.6511  151.7322 H   0  0  0  0  0  0  0  0  0  0  0  0
  146.0831  137.1347  150.2110 H   0  0  0  0  0  0  0  0  0  0  0  0
  147.4813  136.6555  151.1412 H   0  0  0  0  0  0  0  0  0  0  0  0
  143.8656  136.5565  151.9582 H   0  0  0  0  0  0  0  0  0  0  0  0
  143.9977  135.8057  150.3794 H   0  0  0  0  0  0  0  0  0  0  0  0
  143.6803  134.3809  153.0762 H   0  0  0  0  0  0  0  0  0  0  0  0
  142.4666  134.4984  151.8290 H   0  0  0  0  0  0  0  0  0  0  0  0
  143.6288  132.2683  151.7906 H   0  0  0  0  0  0  0  0  0  0  0  0
  143.7983  133.1404  150.2890 H   0  0  0  0  0  0  0  0  0  0  0  0
  145.9514  132.2645  150.7988 H   0  0  0  0  0  0  0  0  0  0  0  0
  145.8445  133.4934  153.5889 H   0  0  0  0  0  0  0  0  0  0  0  0
  147.1905  132.6060  152.8860 H   0  0  0  0  0  0  0  0  0  0  0  0
  145.6700  131.7846  153.2031 H   0  0  0  0  0  0  0  0  0  0  0  0
  146.0850  134.4641  149.8444 H   0  0  0  0  0  0  0  0  0  0  0  0
  147.3443  134.3218  151.0446 H   0  0  0  0  0  0  0  0  0  0  0  0
  150.9492  138.2905  153.9120 H   0  0  0  0  0  0  0  0  0  0  0  0
  151.0641  137.9488  155.6500 H   0  0  0  0  0  0  0  0  0  0  0  0
  152.3652  138.8338  154.8263 H   0  0  0  0  0  0  0  0  0  0  0  0
  145.8796  135.4620  152.5873 H   0  0  0  0  0  0  0  0  0  0  0  0
  1  2  1  0  0  0  0
  1 21  1  0  0  0  0
  1 22  1  0  0  0  0
  1 23  1  0  0  0  0
  2 20  2  0  0  0  0
  2  3  1  0  0  0  0
  3  4  2  0  0  0  0
  3 24  1  0  0  0  0
  4  5  1  0  0  0  0
  4 18  1  0  0  0  0
  5  6  1  0  0  0  0
  5 25  1  0  0  0  0
  6  7  2  0  0  0  0
  6  8  1  0  0  0  0
  8  9  1  0  0  0  0
  8 26  1  0  0  0  0
  9 10  1  0  0  0  0
  9 27  1  0  0  0  0
  9 28  1  0  0  0  0
 10 11  1  0  0  0  0
 10 29  1  0  0  0  0
 10 30  1  0  0  0  0
 11 17  1  0  0  0  0
 11 12  1  0  0  0  0
 11 46  1  0  0  0  0
 12 13  1  0  0  0  0
 12 31  1  0  0  0  0
 12 32  1  0  0  0  0
 13 14  1  0  0  0  0
 13 33  1  0  0  0  0
 13 34  1  0  0  0  0
 14 15  1  0  0  0  0
 14 35  1  0  0  0  0
 14 36  1  0  0  0  0
 15 16  1  0  0  0  0
 15 17  1  0  0  0  0
 15 37  1  0  0  0  0
 16 38  1  0  0  0  0
 16 39  1  0  0  0  0
 16 40  1  0  0  0  0
 17 41  1  0  0  0  0
 17 42  1  0  0  0  0
 18 19  1  0  0  0  0
 18 20  1  0  0  0  0
 19 43  1  0  0  0  0
 19 44  1  0  0  0  0
 19 45  1  0  0  0  0
M  CHG  1  11   1
M  END
> <s_m_source_file>
AV-unprocessed.smi

> <i_m_source_file_index>
1934

> <i_lp_mmshare_version>
43012

> <i_f3d_flags>
0

> <s_epik_input>
W0NIM11jMVtjSF1jKG4objEpW0NIM10pW05IXUMoPU8pW05IXVtDSDJdW0NIMl1OMltDSDJdW0NIMl1bQ0gyXVtDQEBIXShbQ0gzXSlbQ0gyXTI=

> <s_epik_cmdline>
J2VwaWtfcHl0aG9uJywgJy1waCcsICc3LjAnLCAnLXRuJywgJzgnLCAnLW1hJywgJzIwMCcsICctbWV0YWxfYmluZGluZycsICctaW1hZScsICc8aW5maWxlLm1hZT4nLCAnLW9tYWUnLCAnPG91dGZpbGUubWFlPic=

> <r_lp_tautomer_probability>
1

> <r_epik_Ionization_Penalty>
0.00202955

> <r_epik_Ionization_Penalty_Charging>
0.00195276

> <r_epik_Ionization_Penalty_Neutral>
7.67968e-05

> <r_epik_State_Penalty>
0.00133177

> <r_epik_Charging_Adjusted_Penalty>
0.00328452

> <i_epik_Tot_Q>
1

> <i_epik_Tot_abs_Q>
1

> <r_epik_Metal_State_Penalty>
-0

> <b_epik_Metal_Only>
0

> <s_lp_Force_Field>
OPLS_2005

> <r_lp_Energy>
20.4325

> <b_lp_Chiralities_Consistent>
1

> <s_lp_Variant>
AV-unprocessed.smi:1934-3

> <Gold.Version>
5.8.1

> <Gold.Id.Protein>
6NUR|6NUR_protein|mol2

> <Gold.PLP.Fitness>
41.1250

> <Gold.PLP.PLP>
-37.7909

> <Gold.PLP.part.hbond>
-3.0465

> <Gold.PLP.part.metal>
0.0000

> <Gold.PLP.part.buried>
-1.1686

> <Gold.PLP.part.nonpolar>
-33.2462

> <Gold.PLP.part.repulsive>
0.3114

> <Gold.PLP.ligand.clash>
0.0000

> <Gold.PLP.ligand.torsion>
1.1505

> <Gold.PLP.Chemscore.Hbond>
1.8480

> <Gold.PLP.Chemscore.CHOScore>
0.0000

> <Gold.PLP.Chemscore.Metal>
0.0000

> <Gold.Chemscore.Hbonds>
donor molecule, donor type, donor heavy atom, donor atom, acceptor molecule, acceptor atom, score
      L1  H     5    25       P1  7957  1.00
      L1  H     8    26       P1  7957  0.86

> <Gold.PLP.Chemscore.Internal.Correction>
0.0911

> <Gold.Rescore>
     Score         DG    S(hbond)    S(metal)    S(lipo)     H(rot)  DE(clash)    DE(int)     intcor
     14.63     -17.29       1.87        0.00      80.04       1.48       1.47       1.19       ----

> <Gold.Chemscore.Fitness>
14.6264

> <Gold.Chemscore.DG>
-17.2909

> <Gold.Chemscore.ZeroCoef>
-5.4800

> <Gold.Chemscore.Hbond>
1.8697

> <Gold.Chemscore.Metal>
0.0000

> <Gold.Chemscore.Lipo>
80.0392

> <Gold.Chemscore.Internal_Hbond>
0.0000

> <Gold.Chemscore.DEClash>
1.4716

> <Gold.Chemscore.DEInternal>
1.1929

> <Gold.Chemscore.Rot>
1.4838

> <Gold.Chemscore.Internal.Correction>
   9.000000E+99

> <Gold.Chemscore.Hbonds>
donor molecule, donor type, donor heavy atom, donor atom, acceptor molecule, acceptor atom, score
      L1  H     5    25       P1  7957  0.98
      L1  H     8    26       P1  7957  0.74

> <Gold.Chemscore.Hbond.Weighted>
-6.2448

> <Gold.Chemscore.Metal.Weighted>
-0.0000

> <Gold.Chemscore.Lipo.Weighted>
-9.3646

> <Gold.Chemscore.Internal_Hbond.Weighted>
0.0000

> <Gold.Chemscore.DEClash.Weighted>
1.4716

> <Gold.Chemscore.DEInternal.Weighted>
1.1929

> <Gold.Chemscore.Rot.Weighted>
3.7985

> <Gold.Chemscore.Internal.Correction.Weighted>
   9.000000E+99

> <Gold.Protein.RotatedTorsions>
[ 6907 6896 6895 6894 ] final  119.65 input  -60.11 | X-H torsion
[ 7974 7965 7964 7962 ] final   83.58 input  175.53 | X-H torsion
[ 8008 7997 7996 7995 ] final  154.93 input   59.86 | X-H torsion
[ 10167 10162 10161 10158 ] final  123.89 input  -65.29 | X-H torsion
[ 10718 10713 10712 10709 ] final  -49.31 input   66.30 | X-H torsion
[ 10763 10752 10751 10750 ] final  -39.34 input  -60.55 | X-H torsion
[ 11005 11000 10999 10996 ] final   97.77 input  -57.11 | X-H torsion

> <Gold.Protein.ActiveResidues>
 VAL166  LYS551  ARG553  GLY616  TRP617  ASP618  TYR619  PRO620  LYS621  CYS622 
 ASP623  PHE694  ASN695  SER759  ASP760  ASP761  ALA762  ILE779  LEU786  VAL792 
 PHE793  MET794  SER795  GLU796  ALA797  LYS798  CYS799  TRP800  GLU811  SER814 

> <Gold.Protein.RotatedAtoms>
  152.4456  133.7530  159.6704 H   0  0  0  0  0  0  0  0  0  0  0  0  # atno 6907 bound_to 6896
  150.8355  133.8010  159.3087 H   0  0  0  0  0  0  0  0  0  0  0  0  # atno 6908 bound_to 6896
  151.5651  135.1067  160.0033 H   0  0  0  0  0  0  0  0  0  0  0  0  # atno 6909 bound_to 6896
  145.6101  139.2367  143.2197 H   0  0  0  0  0  0  0  0  0  0  0  0  # atno 7974 bound_to 7965
  156.2505  140.1953  156.6723 H   0  0  0  0  0  0  0  0  0  0  0  0  # atno 8008 bound_to 7997
  154.6384  140.0587  156.9842 H   0  0  0  0  0  0  0  0  0  0  0  0  # atno 8009 bound_to 7997
  155.1601  140.3259  155.4416 H   0  0  0  0  0  0  0  0  0  0  0  0  # atno 8010 bound_to 7997
  139.5773  144.6970  151.3619 H   0  0  0  0  0  0  0  0  0  0  0  0  # atno 10167 bound_to 10162
  156.1905  130.4152  149.9378 H   0  0  0  0  0  0  0  0  0  0  0  0  # atno 10718 bound_to 10713
  153.9278  135.6775  153.4746 H   0  0  0  0  0  0  0  0  0  0  0  0  # atno 10763 bound_to 10752
  153.0995  135.4835  154.8838 H   0  0  0  0  0  0  0  0  0  0  0  0  # atno 10764 bound_to 10752
  154.7444  135.3169  154.8628 H   0  0  0  0  0  0  0  0  0  0  0  0  # atno 10765 bound_to 10752
  139.8774  134.9017  156.4357 H   0  0  0  0  0  0  0  0  0  0  0  0  # atno 11005 bound_to 11000
  146.1511  140.6924  142.9322 LP  0  0  0  0  0  0  0  0  0  0  0  0  # atno 17320 bound_to 7965
  144.7273  140.4566  143.6963 LP  0  0  0  0  0  0  0  0  0  0  0  0  # atno 17321 bound_to 7965
  140.7055  143.7525  150.7474 LP  0  0  0  0  0  0  0  0  0  0  0  0  # atno 17342 bound_to 10162
  140.1048  143.4754  152.2404 LP  0  0  0  0  0  0  0  0  0  0  0  0  # atno 17343 bound_to 10162
  156.7120  130.8973  151.3610 LP  0  0  0  0  0  0  0  0  0  0  0  0  # atno 17370 bound_to 10713
  157.6926  130.9249  150.0555 LP  0  0  0  0  0  0  0  0  0  0  0  0  # atno 17371 bound_to 10713
  140.9035  133.7762  155.9708 LP  0  0  0  0  0  0  0  0  0  0  0  0  # atno 17394 bound_to 11000
  140.8625  134.2824  157.5228 LP  0  0  0  0  0  0  0  0  0  0  0  0  # atno 17395 bound_to 11000

$$$$
