AV-unprocessed.smi:2520|AV-procd|sdf|9908|dock3
  -GOLD-   2272013543D 1   1.00000     0.00000
 Structure written by MMmdl.
 41 44  0  0  0  0  0  0  0  0  1 V2000
  145.6300  136.8585  154.6882 O   0  0  0  0  0  0  0  0  0  0  0  0
  146.5806  136.5840  153.9581 C   0  0  0  0  0  0  0  0  0  0  0  0
  146.4523  135.6986  152.9466 N   0  0  0  0  0  0  0  0  0  0  0  0
  145.3345  134.9333  152.4994 C   0  0  0  0  0  0  0  0  0  0  0  0
  145.5935  134.1019  151.3884 C   0  0  0  0  0  0  0  0  0  0  0  0
  144.5474  133.3096  150.8856 C   0  0  0  0  0  0  0  0  0  0  0  0
  143.3028  133.4015  151.5313 C   0  0  0  0  0  0  0  0  0  0  0  0
  143.0962  134.2105  152.5925 N   0  0  0  0  0  0  0  0  0  0  0  0
  144.0977  134.9598  153.0645 N   0  0  0  0  0  0  0  0  0  0  0  0
  147.7931  137.1366  154.1091 N   0  0  0  0  0  0  0  0  0  0  0  0
  148.1602  138.1291  155.1237 C   0  0  1  0  0  0  0  0  0  0  0  0
  149.6723  138.2235  155.3324 C   0  0  1  0  0  0  0  0  0  0  0  0
  150.8338  137.3401  155.0522 C   0  0  0  0  0  0  0  0  0  0  0  0
  151.7922  138.4382  154.5204 C   0  0  0  0  0  0  0  0  0  0  0  0
  150.9839  139.6326  154.3675 O   0  0  0  0  0  0  0  0  0  0  0  0
  149.6805  139.1390  154.1246 C   0  0  2  0  0  0  0  0  0  0  0  0
  148.2851  139.6126  154.5970 C   0  0  0  0  0  0  0  0  0  0  0  0
  147.3070  140.0787  153.5130 C   0  0  0  0  0  0  0  0  0  0  0  0
  147.1771  141.5929  153.6375 C   0  0  0  0  0  0  0  0  0  0  0  0
  147.2941  141.8391  155.1346 C   0  0  0  0  0  0  0  0  0  0  0  0
  148.2545  140.7561  155.6323 C   0  0  0  0  0  0  0  0  0  0  0  0
  147.3022  135.5351  152.4268 H   0  0  0  0  0  0  0  0  0  0  0  0
  146.5712  134.0692  150.9299 H   0  0  0  0  0  0  0  0  0  0  0  0
  144.6935  132.6564  150.0382 H   0  0  0  0  0  0  0  0  0  0  0  0
  142.4594  132.8179  151.1929 H   0  0  0  0  0  0  0  0  0  0  0  0
  148.5195  136.8555  153.4659 H   0  0  0  0  0  0  0  0  0  0  0  0
  147.6050  138.0394  156.0587 H   0  0  0  0  0  0  0  0  0  0  0  0
  149.8540  138.7674  156.2652 H   0  0  0  0  0  0  0  0  0  0  0  0
  151.2154  136.8439  155.9447 H   0  0  0  0  0  0  0  0  0  0  0  0
  150.6093  136.5907  154.2916 H   0  0  0  0  0  0  0  0  0  0  0  0
  152.6102  138.6361  155.2135 H   0  0  0  0  0  0  0  0  0  0  0  0
  152.2228  138.1453  153.5620 H   0  0  0  0  0  0  0  0  0  0  0  0
  149.6452  138.6194  153.1613 H   0  0  0  0  0  0  0  0  0  0  0  0
  147.6253  139.7908  152.5106 H   0  0  0  0  0  0  0  0  0  0  0  0
  146.3278  139.6268  153.6751 H   0  0  0  0  0  0  0  0  0  0  0  0
  148.0049  142.0772  153.1179 H   0  0  0  0  0  0  0  0  0  0  0  0
  146.2457  141.9738  153.2175 H   0  0  0  0  0  0  0  0  0  0  0  0
  147.6374  142.8473  155.3689 H   0  0  0  0  0  0  0  0  0  0  0  0
  146.3178  141.7039  155.6023 H   0  0  0  0  0  0  0  0  0  0  0  0
  147.9530  140.4064  156.6203 H   0  0  0  0  0  0  0  0  0  0  0  0
  149.2490  141.1889  155.7474 H   0  0  0  0  0  0  0  0  0  0  0  0
  1  2  2  0  0  0  0
  2  3  1  0  0  0  0
  2 10  1  0  0  0  0
  3  4  1  0  0  0  0
  3 22  1  0  0  0  0
  4  9  1  0  0  0  0
  4  5  2  0  0  0  0
  5  6  1  0  0  0  0
  5 23  1  0  0  0  0
  6  7  2  0  0  0  0
  6 24  1  0  0  0  0
  7  8  1  0  0  0  0
  7 25  1  0  0  0  0
  8  9  2  0  0  0  0
 10 11  1  0  0  0  0
 10 26  1  0  0  0  0
 11 17  1  0  0  0  0
 11 12  1  0  0  0  0
 11 27  1  0  0  0  0
 12 16  1  0  0  0  0
 12 13  1  0  0  0  0
 12 28  1  0  0  0  0
 13 14  1  0  0  0  0
 13 29  1  0  0  0  0
 13 30  1  0  0  0  0
 14 15  1  0  0  0  0
 14 31  1  0  0  0  0
 14 32  1  0  0  0  0
 15 16  1  0  0  0  0
 16 17  1  0  0  0  0
 16 33  1  0  0  0  0
 17 21  1  0  0  0  0
 17 18  1  0  0  0  0
 18 19  1  0  0  0  0
 18 34  1  0  0  0  0
 18 35  1  0  0  0  0
 19 20  1  0  0  0  0
 19 36  1  0  0  0  0
 19 37  1  0  0  0  0
 20 21  1  0  0  0  0
 20 38  1  0  0  0  0
 20 39  1  0  0  0  0
 21 40  1  0  0  0  0
 21 41  1  0  0  0  0
M  END
> <s_m_source_file>
AV-unprocessed.smi

> <i_m_source_file_index>
2520

> <i_lp_mmshare_version>
43012

> <i_f3d_flags>
0

> <s_epik_input>
bjFuW2NIXVtjSF1bY0hdYzFbTkhdQyg9TylbTkhdW0NAQEhdMltDQEBIXShbQ0gyXVtDSDJdTzMpW0NASF0zQzI0W0NIMl1bQ0gyXVtDSDJdW0NIMl00

> <s_epik_cmdline>
J2VwaWtfcHl0aG9uJywgJy1waCcsICc3LjAnLCAnLXRuJywgJzgnLCAnLW1hJywgJzIwMCcsICctbWV0YWxfYmluZGluZycsICctaW1hZScsICc8aW5maWxlLm1hZT4nLCAnLW9tYWUnLCAnPG91dGZpbGUubWFlPic=

> <r_lp_tautomer_probability>
1

> <r_epik_Ionization_Penalty>
0.00552561

> <r_epik_Ionization_Penalty_Charging>
0

> <r_epik_Ionization_Penalty_Neutral>
0.00552561

> <r_epik_State_Penalty>
-0

> <r_epik_Charging_Adjusted_Penalty>
0

> <i_epik_Tot_Q>
0

> <i_epik_Tot_abs_Q>
0

> <r_epik_Metal_State_Penalty>
-0

> <b_epik_Metal_Only>
0

> <s_lp_Force_Field>
OPLS_2005

> <r_lp_Energy>
86.562

> <b_lp_Chiralities_Consistent>
1

> <s_lp_Variant>
AV-unprocessed.smi:2520-2

> <Gold.Version>
5.8.1

> <Gold.Id.Protein>
6NUR|6NUR_protein|mol2

> <Gold.PLP.Fitness>
38.6230

> <Gold.PLP.PLP>
-28.2066

> <Gold.PLP.part.hbond>
-3.0000

> <Gold.PLP.part.metal>
0.0000

> <Gold.PLP.part.buried>
-2.7653

> <Gold.PLP.part.nonpolar>
-22.4110

> <Gold.PLP.part.repulsive>
0.4503

> <Gold.PLP.ligand.clash>
0.0000

> <Gold.PLP.ligand.torsion>
0.2355

> <Gold.PLP.Chemscore.Hbond>
2.9680

> <Gold.PLP.Chemscore.CHOScore>
0.5682

> <Gold.PLP.Chemscore.Metal>
0.0000

> <Gold.Chemscore.Hbonds>
donor molecule, donor type, donor heavy atom, donor atom, acceptor molecule, acceptor atom, score
      L1  H     3    22       P1  7948  0.96
      L1  H    10    26       P1  7948  0.98
      P1  H  7989  7998       L1    15  1.00
      L1  C     7    25       P1 10186  0.31

> <Gold.PLP.Chemscore.Internal.Correction>
0.2787

> <Gold.Rescore>
     Score         DG    S(hbond)    S(metal)    S(lipo)     H(rot)  DE(clash)    DE(int)     intcor
     19.40     -21.03       2.86        0.00      73.07       1.00       0.20       1.44       ----

> <Gold.Chemscore.Fitness>
19.3974

> <Gold.Chemscore.DG>
-21.0349

> <Gold.Chemscore.ZeroCoef>
-5.4800

> <Gold.Chemscore.Hbond>
2.8639

> <Gold.Chemscore.Metal>
0.0000

> <Gold.Chemscore.Lipo>
73.0727

> <Gold.Chemscore.Internal_Hbond>
0.0000

> <Gold.Chemscore.DEClash>
0.1992

> <Gold.Chemscore.DEInternal>
1.4383

> <Gold.Chemscore.Rot>
1.0000

> <Gold.Chemscore.Internal.Correction>
   9.000000E+99

> <Gold.Chemscore.Hbonds>
donor molecule, donor type, donor heavy atom, donor atom, acceptor molecule, acceptor atom, score
      L1  H     3    22       P1  7948  0.92
      L1  H    10    26       P1  7948  0.93
      P1  H  7989  7998       L1    15  0.93

> <Gold.Chemscore.Hbond.Weighted>
-9.5654

> <Gold.Chemscore.Metal.Weighted>
-0.0000

> <Gold.Chemscore.Lipo.Weighted>
-8.5495

> <Gold.Chemscore.Internal_Hbond.Weighted>
0.0000

> <Gold.Chemscore.DEClash.Weighted>
0.1992

> <Gold.Chemscore.DEInternal.Weighted>
1.4383

> <Gold.Chemscore.Rot.Weighted>
2.5600

> <Gold.Chemscore.Internal.Correction.Weighted>
   9.000000E+99

> <Gold.Protein.RotatedTorsions>
[ 6907 6896 6895 6894 ] final   85.85 input  -60.11 | X-H torsion
[ 7974 7965 7964 7962 ] final  -62.60 input  175.53 | X-H torsion
[ 8008 7997 7996 7995 ] final   67.79 input   59.86 | X-H torsion
[ 10167 10162 10161 10158 ] final -122.14 input  -65.29 | X-H torsion
[ 10718 10713 10712 10709 ] final  -42.80 input   66.30 | X-H torsion
[ 10763 10752 10751 10750 ] final  -23.36 input  -60.55 | X-H torsion
[ 11005 11000 10999 10996 ] final  -34.57 input  -57.11 | X-H torsion

> <Gold.Protein.ActiveResidues>
 VAL166  LYS551  ARG553  GLY616  TRP617  ASP618  TYR619  PRO620  LYS621  CYS622 
 ASP623  PHE694  ASN695  SER759  ASP760  ASP761  ALA762  ILE779  LEU786  VAL792 
 PHE793  MET794  SER795  GLU796  ALA797  LYS798  CYS799  TRP800  GLU811  SER814 

> <Gold.Protein.RotatedAtoms>
  152.5383  134.2523  159.8903 H   0  0  0  0  0  0  0  0  0  0  0  0  # atno 6907 bound_to 6896
  151.2485  133.4355  159.2618 H   0  0  0  0  0  0  0  0  0  0  0  0  # atno 6908 bound_to 6896
  151.0560  134.9719  159.8292 H   0  0  0  0  0  0  0  0  0  0  0  0  # atno 6909 bound_to 6896
  145.7894  140.8718  143.0289 H   0  0  0  0  0  0  0  0  0  0  0  0  # atno 7974 bound_to 7965
  155.6983  140.3495  155.4922 H   0  0  0  0  0  0  0  0  0  0  0  0  # atno 8008 bound_to 7997
  155.9463  140.1111  157.1036 H   0  0  0  0  0  0  0  0  0  0  0  0  # atno 8009 bound_to 7997
  154.4113  140.1203  156.4980 H   0  0  0  0  0  0  0  0  0  0  0  0  # atno 8010 bound_to 7997
  140.0175  143.5378  152.2236 H   0  0  0  0  0  0  0  0  0  0  0  0  # atno 10167 bound_to 10162
  156.2557  130.4192  149.8599 H   0  0  0  0  0  0  0  0  0  0  0  0  # atno 10718 bound_to 10713
  153.6666  135.6974  153.5160 H   0  0  0  0  0  0  0  0  0  0  0  0  # atno 10763 bound_to 10752
  153.2590  135.4251  155.0874 H   0  0  0  0  0  0  0  0  0  0  0  0  # atno 10764 bound_to 10752
  154.8438  135.3550  154.6211 H   0  0  0  0  0  0  0  0  0  0  0  0  # atno 10765 bound_to 10752
  140.9727  133.7100  156.1550 H   0  0  0  0  0  0  0  0  0  0  0  0  # atno 11005 bound_to 11000
  144.6784  140.0101  143.7484 LP  0  0  0  0  0  0  0  0  0  0  0  0  # atno 17320 bound_to 7965
  145.9993  139.3078  143.0937 LP  0  0  0  0  0  0  0  0  0  0  0  0  # atno 17321 bound_to 7965
  139.6162  144.7620  151.2840 LP  0  0  0  0  0  0  0  0  0  0  0  0  # atno 17342 bound_to 10162
  140.7356  143.6732  150.8064 LP  0  0  0  0  0  0  0  0  0  0  0  0  # atno 17343 bound_to 10162
  156.6131  130.8595  151.3459 LP  0  0  0  0  0  0  0  0  0  0  0  0  # atno 17370 bound_to 10713
  157.7232  130.9586  150.1523 LP  0  0  0  0  0  0  0  0  0  0  0  0  # atno 17371 bound_to 10713
  140.7305  134.4260  157.5566 LP  0  0  0  0  0  0  0  0  0  0  0  0  # atno 17394 bound_to 11000
  139.8918  134.8770  156.2300 LP  0  0  0  0  0  0  0  0  0  0  0  0  # atno 17395 bound_to 11000

$$$$
