AV-unprocessed.smi:1662|AV-procd|sdf|6660|dock2
  -GOLD-   22720 7373D 1   1.00000     0.00000
 Structure written by MMmdl.
 47 48  0  0  0  0  0  0  0  0  1 V2000
  152.6267  143.7068  162.4024 C   0  0  0  0  0  0  0  0  0  0  0  0
  152.2678  143.0096  161.1181 C   0  0  0  0  0  0  0  0  0  0  0  0
  151.2803  143.5030  160.4463 N   0  0  0  0  0  0  0  0  0  0  0  0
  150.8762  142.9474  159.2475 N   0  0  0  0  0  0  0  0  0  0  0  0
  149.7948  143.6911  158.5775 C   0  0  0  0  0  0  0  0  0  0  0  0
  148.4673  142.9189  158.4725 C   0  0  0  0  0  0  0  0  0  0  0  0
  147.8574  142.6203  159.4982 O   0  0  0  0  0  0  0  0  0  0  0  0
  148.0291  142.6049  157.2428 N   0  0  0  0  0  0  0  0  0  0  0  0
  146.8105  141.8767  156.9030 C   0  0  1  0  0  0  0  0  0  0  0  0
  145.9082  142.7287  155.9891 C   0  0  0  0  0  0  0  0  0  0  0  0
  146.5355  142.9328  154.6020 C   0  0  0  0  0  0  0  0  0  0  0  0
  146.8687  141.5856  153.9471 C   0  0  0  0  0  0  0  0  0  0  0  0
  147.7873  140.7173  154.8320 C   0  0  2  0  0  0  0  0  0  0  0  0
  148.0939  139.3889  154.1180 C   0  0  0  0  0  0  0  0  0  0  0  0
  147.1628  140.5183  156.2427 C   0  0  1  0  0  0  0  0  0  0  0  0
  148.0437  139.6594  157.1735 C   0  0  0  0  0  0  0  0  0  0  0  0
  151.4448  141.8495  158.6700 C   0  0  0  0  0  0  0  0  0  0  0  0
  151.0613  141.3953  157.5913 O   0  0  0  0  0  0  0  0  0  0  0  0
  152.5583  141.2918  159.4401 C   0  0  0  0  0  0  0  0  0  0  0  0
  153.1873  140.1464  158.8659 C   0  0  0  0  0  0  0  0  0  0  0  0
  153.7070  139.2298  158.3866 N   0  0  0  0  0  0  0  0  0  0  0  0
  152.9710  141.8350  160.6126 C   0  0  0  0  0  0  0  0  0  0  0  0
  154.1273  141.2995  161.4455 C   0  0  0  0  0  0  0  0  0  0  0  0
  152.5751  143.0184  163.2458 H   0  0  0  0  0  0  0  0  0  0  0  0
  151.9534  144.5385  162.6158 H   0  0  0  0  0  0  0  0  0  0  0  0
  153.6387  144.1082  162.3539 H   0  0  0  0  0  0  0  0  0  0  0  0
  149.6104  144.6395  159.0850 H   0  0  0  0  0  0  0  0  0  0  0  0
  150.1062  143.9618  157.5670 H   0  0  0  0  0  0  0  0  0  0  0  0
  148.6010  142.8975  156.4639 H   0  0  0  0  0  0  0  0  0  0  0  0
  146.2645  141.6724  157.8259 H   0  0  0  0  0  0  0  0  0  0  0  0
  144.9424  142.2344  155.8767 H   0  0  0  0  0  0  0  0  0  0  0  0
  145.7009  143.6948  156.4508 H   0  0  0  0  0  0  0  0  0  0  0  0
  145.8514  143.4954  153.9662 H   0  0  0  0  0  0  0  0  0  0  0  0
  147.4408  143.5355  154.6867 H   0  0  0  0  0  0  0  0  0  0  0  0
  145.9428  141.0469  153.7407 H   0  0  0  0  0  0  0  0  0  0  0  0
  147.3415  141.7632  152.9806 H   0  0  0  0  0  0  0  0  0  0  0  0
  148.7344  141.2471  154.9462 H   0  0  0  0  0  0  0  0  0  0  0  0
  147.2011  138.7692  154.0311 H   0  0  0  0  0  0  0  0  0  0  0  0
  148.8537  138.8123  154.6448 H   0  0  0  0  0  0  0  0  0  0  0  0
  148.4735  139.5649  153.1111 H   0  0  0  0  0  0  0  0  0  0  0  0
  146.2241  139.9775  156.1120 H   0  0  0  0  0  0  0  0  0  0  0  0
  149.0564  140.0564  157.2524 H   0  0  0  0  0  0  0  0  0  0  0  0
  148.1173  138.6312  156.8209 H   0  0  0  0  0  0  0  0  0  0  0  0
  147.6251  139.6189  158.1793 H   0  0  0  0  0  0  0  0  0  0  0  0
  154.6051  140.4367  160.9824 H   0  0  0  0  0  0  0  0  0  0  0  0
  153.7772  140.9905  162.4310 H   0  0  0  0  0  0  0  0  0  0  0  0
  154.8924  142.0657  161.5761 H   0  0  0  0  0  0  0  0  0  0  0  0
  1  2  1  0  0  0  0
  1 24  1  0  0  0  0
  1 25  1  0  0  0  0
  1 26  1  0  0  0  0
  2 22  1  0  0  0  0
  2  3  2  0  0  0  0
  3  4  1  0  0  0  0
  4  5  1  0  0  0  0
  4 17  1  0  0  0  0
  5  6  1  0  0  0  0
  5 27  1  0  0  0  0
  5 28  1  0  0  0  0
  6  7  2  0  0  0  0
  6  8  1  0  0  0  0
  8  9  1  0  0  0  0
  8 29  1  0  0  0  0
  9 15  1  0  0  0  0
  9 10  1  0  0  0  0
  9 30  1  0  0  0  0
 10 11  1  0  0  0  0
 10 31  1  0  0  0  0
 10 32  1  0  0  0  0
 11 12  1  0  0  0  0
 11 33  1  0  0  0  0
 11 34  1  0  0  0  0
 12 13  1  0  0  0  0
 12 35  1  0  0  0  0
 12 36  1  0  0  0  0
 13 14  1  0  0  0  0
 13 15  1  0  0  0  0
 13 37  1  0  0  0  0
 14 38  1  0  0  0  0
 14 39  1  0  0  0  0
 14 40  1  0  0  0  0
 15 16  1  0  0  0  0
 15 41  1  0  0  0  0
 16 42  1  0  0  0  0
 16 43  1  0  0  0  0
 16 44  1  0  0  0  0
 17 18  2  0  0  0  0
 17 19  1  0  0  0  0
 19 20  1  0  0  0  0
 19 22  2  0  0  0  0
 20 21  3  0  0  0  0
 22 23  1  0  0  0  0
 23 45  1  0  0  0  0
 23 46  1  0  0  0  0
 23 47  1  0  0  0  0
M  END
> <s_m_source_file>
AV-unprocessed.smi

> <i_m_source_file_index>
1662

> <i_lp_mmshare_version>
43012

> <i_f3d_flags>
0

> <s_epik_input>
TiNDYyhjMVtDSDNdKWMoPU8pbihuYzFbQ0gzXSlbQ0gyXUMoPU8pW05IXVtDQEBIXTJbQ0gyXVtDSDJdW0NIMl1bQ0BASF0oW0NIM10pW0NASF0yW0NIM10=

> <s_epik_cmdline>
J2VwaWtfcHl0aG9uJywgJy1waCcsICc3LjAnLCAnLXRuJywgJzgnLCAnLW1hJywgJzIwMCcsICctbWV0YWxfYmluZGluZycsICctaW1hZScsICc8aW5maWxlLm1hZT4nLCAnLW9tYWUnLCAnPG91dGZpbGUubWFlPic=

> <r_lp_tautomer_probability>
1

> <r_epik_Ionization_Penalty>
1.90709e-08

> <r_epik_Ionization_Penalty_Charging>
2.37982e-11

> <r_epik_Ionization_Penalty_Neutral>
1.90471e-08

> <r_epik_State_Penalty>
-0

> <r_epik_Charging_Adjusted_Penalty>
2.37982e-11

> <i_epik_Tot_Q>
0

> <i_epik_Tot_abs_Q>
0

> <r_epik_Metal_State_Penalty>
-0

> <b_epik_Metal_Only>
0

> <s_lp_Force_Field>
OPLS_2005

> <r_lp_Energy>
25.169

> <b_lp_Chiralities_Consistent>
1

> <s_lp_Variant>
AV-unprocessed.smi:1662-4

> <Gold.Version>
5.8.1

> <Gold.Id.Protein>
6NUR|6NUR_protein|mol2

> <Gold.PLP.Fitness>
43.5416

> <Gold.PLP.PLP>
-37.0288

> <Gold.PLP.part.hbond>
-4.5513

> <Gold.PLP.part.metal>
0.0000

> <Gold.PLP.part.buried>
-1.1158

> <Gold.PLP.part.nonpolar>
-31.7250

> <Gold.PLP.part.repulsive>
0.2199

> <Gold.PLP.ligand.clash>
0.0000

> <Gold.PLP.ligand.torsion>
0.0873

> <Gold.PLP.Chemscore.Hbond>
2.2250

> <Gold.PLP.Chemscore.CHOScore>
0.0000

> <Gold.PLP.Chemscore.Metal>
0.0000

> <Gold.Chemscore.Hbonds>
donor molecule, donor type, donor heavy atom, donor atom, acceptor molecule, acceptor atom, score
      L1  H     8    29       P1  8028  0.59
      P1  H  6933  6944       L1     7  0.50
      P1  H  6934  6946       L1     7  0.12
      P1  H  7997  8009       L1    21  1.00

> <Gold.PLP.Chemscore.Internal.Correction>
0.0125

> <Gold.Rescore>
     Score         DG    S(hbond)    S(metal)    S(lipo)     H(rot)  DE(clash)    DE(int)     intcor
     17.88     -18.23       1.80        0.00      89.28       1.45       0.25       0.10       ----

> <Gold.Chemscore.Fitness>
17.8775

> <Gold.Chemscore.DG>
-18.2295

> <Gold.Chemscore.ZeroCoef>
-5.4800

> <Gold.Chemscore.Hbond>
1.8013

> <Gold.Chemscore.Metal>
0.0000

> <Gold.Chemscore.Lipo>
89.2826

> <Gold.Chemscore.Internal_Hbond>
0.0000

> <Gold.Chemscore.DEClash>
0.2504

> <Gold.Chemscore.DEInternal>
0.1015

> <Gold.Chemscore.Rot>
1.4504

> <Gold.Chemscore.Internal.Correction>
   9.000000E+99

> <Gold.Chemscore.Hbonds>
donor molecule, donor type, donor heavy atom, donor atom, acceptor molecule, acceptor atom, score
      L1  H     8    29       P1  8028  0.53
      P1  H  6933  6944       L1     7  0.47
      P1  H  6934  6946       L1     7  0.13
      P1  H  7997  8009       L1    21  0.25

> <Gold.Chemscore.Hbond.Weighted>
-6.0163

> <Gold.Chemscore.Metal.Weighted>
-0.0000

> <Gold.Chemscore.Lipo.Weighted>
-10.4461

> <Gold.Chemscore.Internal_Hbond.Weighted>
0.0000

> <Gold.Chemscore.DEClash.Weighted>
0.2504

> <Gold.Chemscore.DEInternal.Weighted>
0.1015

> <Gold.Chemscore.Rot.Weighted>
3.7129

> <Gold.Chemscore.Internal.Correction.Weighted>
   9.000000E+99

> <Gold.Protein.RotatedTorsions>
[ 6907 6896 6895 6894 ] final   55.39 input  -60.11 | X-H torsion
[ 7974 7965 7964 7962 ] final  -36.60 input  175.53 | X-H torsion
[ 8008 7997 7996 7995 ] final  164.31 input   59.86 | X-H torsion
[ 10167 10162 10161 10158 ] final -139.69 input  -65.29 | X-H torsion
[ 10718 10713 10712 10709 ] final   10.06 input   66.30 | X-H torsion
[ 10763 10752 10751 10750 ] final -139.42 input  -60.55 | X-H torsion
[ 11005 11000 10999 10996 ] final  124.44 input  -57.11 | X-H torsion

> <Gold.Protein.ActiveResidues>
 VAL166  LYS551  ARG553  GLY616  TRP617  ASP618  TYR619  PRO620  LYS621  CYS622 
 ASP623  PHE694  ASN695  SER759  ASP760  ASP761  ALA762  ILE779  LEU786  VAL792 
 PHE793  MET794  SER795  GLU796  ALA797  LYS798  CYS799  TRP800  GLU811  SER814 

> <Gold.Protein.RotatedAtoms>
  152.3534  134.6974  160.0229 H   0  0  0  0  0  0  0  0  0  0  0  0  # atno 6907 bound_to 6896
  151.7320  133.3313  159.3351 H   0  0  0  0  0  0  0  0  0  0  0  0  # atno 6908 bound_to 6896
  150.7555  134.6288  159.6220 H   0  0  0  0  0  0  0  0  0  0  0  0  # atno 6909 bound_to 6896
  146.0647  140.6298  142.8980 H   0  0  0  0  0  0  0  0  0  0  0  0  # atno 7974 bound_to 7965
  156.1889  140.1700  156.8130 H   0  0  0  0  0  0  0  0  0  0  0  0  # atno 8008 bound_to 7997
  154.5448  140.0729  156.8602 H   0  0  0  0  0  0  0  0  0  0  0  0  # atno 8009 bound_to 7997
  155.3144  140.3369  155.4245 H   0  0  0  0  0  0  0  0  0  0  0  0  # atno 8010 bound_to 7997
  139.8355  143.7391  152.2665 H   0  0  0  0  0  0  0  0  0  0  0  0  # atno 10167 bound_to 10162
  156.9754  130.5985  149.5672 H   0  0  0  0  0  0  0  0  0  0  0  0  # atno 10718 bound_to 10713
  154.8609  135.3583  154.5544 H   0  0  0  0  0  0  0  0  0  0  0  0  # atno 10763 bound_to 10752
  153.6161  135.7007  153.5333 H   0  0  0  0  0  0  0  0  0  0  0  0  # atno 10764 bound_to 10752
  153.3168  135.4162  155.1343 H   0  0  0  0  0  0  0  0  0  0  0  0  # atno 10765 bound_to 10752
  139.9359  134.9639  156.8410 H   0  0  0  0  0  0  0  0  0  0  0  0  # atno 11005 bound_to 11000
  144.7195  140.4326  143.7018 LP  0  0  0  0  0  0  0  0  0  0  0  0  # atno 17320 bound_to 7965
  145.6498  139.1563  143.2868 LP  0  0  0  0  0  0  0  0  0  0  0  0  # atno 17321 bound_to 7965
  139.7611  144.7506  151.0362 LP  0  0  0  0  0  0  0  0  0  0  0  0  # atno 17342 bound_to 10162
  140.7803  143.4749  151.0095 LP  0  0  0  0  0  0  0  0  0  0  0  0  # atno 17343 bound_to 10162
  156.0266  130.5359  150.8422 LP  0  0  0  0  0  0  0  0  0  0  0  0  # atno 17370 bound_to 10713
  157.5564  131.0945  150.9623 LP  0  0  0  0  0  0  0  0  0  0  0  0  # atno 17371 bound_to 10713
  140.6077  134.0111  155.7564 LP  0  0  0  0  0  0  0  0  0  0  0  0  # atno 17394 bound_to 11000
  141.0972  133.9825  157.3140 LP  0  0  0  0  0  0  0  0  0  0  0  0  # atno 17395 bound_to 11000

$$$$
