AV-unprocessed.smi:1824|AV-procd|sdf|7411|dock5
  -GOLD-   22720 9 83D 1   1.00000     0.00000
 Structure written by MMmdl.
 45 47  0  0  0  0  0  0  0  0  2 V2000
  148.4314  135.2356  159.0799 C   0  0  0  0  0  0  0  0  0  0  0  0
  149.0593  135.2146  157.6823 C   0  0  1  0  0  0  0  0  0  0  0  0
  150.1218  136.3156  157.5092 C   0  0  0  0  0  0  0  0  0  0  0  0
  150.7871  136.2363  156.2113 N   0  0  0  0  0  0  0  0  0  0  0  0
  151.7962  137.2810  156.0272 C   0  0  0  0  0  0  0  0  0  0  0  0
  151.2518  138.7209  155.9448 C   0  0  2  0  0  0  0  0  0  0  0  0
  151.3293  139.1469  154.5986 O   0  0  0  0  0  0  0  0  0  0  0  0
  152.0603  139.6813  156.8387 C   0  0  0  0  0  0  0  0  0  0  0  0
  151.4498  141.0147  156.9446 N   0  0  0  0  0  0  0  0  0  0  0  0
  150.6303  141.6657  156.0749 C   0  0  0  0  0  0  0  0  0  0  0  0
  150.3318  142.8777  156.6198 N   0  3  0  0  0  0  0  0  0  0  0  0
  150.9717  143.0046  157.8550 C   0  0  0  0  0  0  0  0  0  0  0  0
  150.9762  144.0469  158.7763 C   0  0  0  0  0  0  0  0  0  0  0  0
  151.7425  143.8584  159.9455 C   0  0  0  0  0  0  0  0  0  0  0  0
  151.7833  144.8423  160.8748 F   0  0  0  0  0  0  0  0  0  0  0  0
  152.4666  142.6673  160.1641 C   0  0  0  0  0  0  0  0  0  0  0  0
  153.1913  142.5277  161.2994 F   0  0  0  0  0  0  0  0  0  0  0  0
  152.4528  141.6169  159.2229 C   0  0  0  0  0  0  0  0  0  0  0  0
  151.6925  141.8113  158.0703 C   0  0  0  0  0  0  0  0  0  0  0  0
  151.3813  134.9114  156.0674 C   0  0  0  0  0  0  0  0  0  0  0  0
  150.3576  133.7735  156.2509 C   0  0  2  0  0  0  0  0  0  0  0  0
  149.3910  133.6247  155.0632 C   0  0  0  0  0  0  0  0  0  0  0  0
  149.6599  133.9358  157.4866 O   0  0  0  0  0  0  0  0  0  0  0  0
  147.9416  136.1898  159.2757 H   0  0  0  0  0  0  0  0  0  0  0  0
  149.1843  135.0803  159.8531 H   0  0  0  0  0  0  0  0  0  0  0  0
  147.6819  134.4504  159.1822 H   0  0  0  0  0  0  0  0  0  0  0  0
  148.2655  135.3569  156.9483 H   0  0  0  0  0  0  0  0  0  0  0  0
  149.6346  137.2820  157.6292 H   0  0  0  0  0  0  0  0  0  0  0  0
  150.8615  136.2375  158.3077 H   0  0  0  0  0  0  0  0  0  0  0  0
  152.5244  137.2173  156.8375 H   0  0  0  0  0  0  0  0  0  0  0  0
  152.3575  137.0826  155.1126 H   0  0  0  0  0  0  0  0  0  0  0  0
  150.2092  138.7623  156.2573 H   0  0  0  0  0  0  0  0  0  0  0  0
  150.6110  138.7568  154.1233 H   0  0  0  0  0  0  0  0  0  0  0  0
  152.1237  139.2786  157.8504 H   0  0  0  0  0  0  0  0  0  0  0  0
  153.0874  139.7819  156.4874 H   0  0  0  0  0  0  0  0  0  0  0  0
  150.2806  141.2889  155.1243 H   0  0  0  0  0  0  0  0  0  0  0  0
  150.4244  144.9609  158.6131 H   0  0  0  0  0  0  0  0  0  0  0  0
  153.0173  140.7133  159.3985 H   0  0  0  0  0  0  0  0  0  0  0  0
  151.8553  134.8181  155.0893 H   0  0  0  0  0  0  0  0  0  0  0  0
  152.1762  134.7900  156.8051 H   0  0  0  0  0  0  0  0  0  0  0  0
  150.9088  132.8363  156.3315 H   0  0  0  0  0  0  0  0  0  0  0  0
  149.9345  133.3847  154.1492 H   0  0  0  0  0  0  0  0  0  0  0  0
  148.8272  134.5385  154.8756 H   0  0  0  0  0  0  0  0  0  0  0  0
  148.6758  132.8217  155.2426 H   0  0  0  0  0  0  0  0  0  0  0  0
  149.7363  143.5662  156.1774 H   0  0  0  0  0  0  0  0  0  0  0  0
  1  2  1  0  0  0  0
  1 24  1  0  0  0  0
  1 25  1  0  0  0  0
  1 26  1  0  0  0  0
  2 23  1  0  0  0  0
  2  3  1  0  0  0  0
  2 27  1  0  0  0  0
  3  4  1  0  0  0  0
  3 28  1  0  0  0  0
  3 29  1  0  0  0  0
  4  5  1  0  0  0  0
  4 20  1  0  0  0  0
  5  6  1  0  0  0  0
  5 30  1  0  0  0  0
  5 31  1  0  0  0  0
  6  7  1  0  0  0  0
  6  8  1  0  0  0  0
  6 32  1  0  0  0  0
  7 33  1  0  0  0  0
  8  9  1  0  0  0  0
  8 34  1  0  0  0  0
  8 35  1  0  0  0  0
  9 19  1  0  0  0  0
  9 10  1  0  0  0  0
 10 11  2  0  0  0  0
 10 36  1  0  0  0  0
 11 12  1  0  0  0  0
 11 45  1  0  0  0  0
 12 19  2  0  0  0  0
 12 13  1  0  0  0  0
 13 14  2  0  0  0  0
 13 37  1  0  0  0  0
 14 15  1  0  0  0  0
 14 16  1  0  0  0  0
 16 17  1  0  0  0  0
 16 18  2  0  0  0  0
 18 19  1  0  0  0  0
 18 38  1  0  0  0  0
 20 21  1  0  0  0  0
 20 39  1  0  0  0  0
 20 40  1  0  0  0  0
 21 22  1  0  0  0  0
 21 23  1  0  0  0  0
 21 41  1  0  0  0  0
 22 42  1  0  0  0  0
 22 43  1  0  0  0  0
 22 44  1  0  0  0  0
M  CHG  1  11   1
M  END
> <s_m_source_file>
AV-unprocessed.smi

> <i_m_source_file_index>
1824

> <i_lp_mmshare_version>
43012

> <i_f3d_flags>
0

> <s_epik_input>
W0NIM11bQ0BASF0xW0NIMl1OKFtDSDJdW0NASF0oTzEpW0NIM10pW0NIMl1bQ0BIXShbT0hdKVtDSDJdbihbY0hdbjIpYyhjMjMpW2NIXWMoRiljKEYpW2NIXTM=

> <s_epik_cmdline>
J2VwaWtfcHl0aG9uJywgJy1waCcsICc3LjAnLCAnLXRuJywgJzgnLCAnLW1hJywgJzIwMCcsICctbWV0YWxfYmluZGluZycsICctaW1hZScsICc8aW5maWxlLm1hZT4nLCAnLW9tYWUnLCAnPG91dGZpbGUubWFlPic=

> <r_epik_Ionization_Penalty>
2.58709

> <r_epik_Ionization_Penalty_Charging>
2.37273

> <r_epik_Ionization_Penalty_Neutral>
0.214359

> <r_epik_State_Penalty>
2.71799

> <r_epik_Charging_Adjusted_Penalty>
5.09071

> <i_epik_Tot_Q>
1

> <i_epik_Tot_abs_Q>
1

> <r_epik_Metal_State_Penalty>
6.80217

> <b_epik_Metal_Only>
0

> <s_lp_Force_Field>
OPLS_2005

> <r_lp_Energy>
35.2196

> <b_lp_Chiralities_Consistent>
1

> <s_lp_Variant>
AV-unprocessed.smi:1824-19

> <Gold.Version>
5.8.1

> <Gold.Id.Protein>
6NUR|6NUR_protein|mol2

> <Gold.PLP.Fitness>
52.0476

> <Gold.PLP.PLP>
-42.6682

> <Gold.PLP.part.hbond>
-2.8217

> <Gold.PLP.part.metal>
0.0000

> <Gold.PLP.part.buried>
-5.7711

> <Gold.PLP.part.nonpolar>
-34.2795

> <Gold.PLP.part.repulsive>
0.0989

> <Gold.PLP.ligand.clash>
0.0000

> <Gold.PLP.ligand.torsion>
1.0881

> <Gold.PLP.Chemscore.Hbond>
3.8200

> <Gold.PLP.Chemscore.CHOScore>
0.0000

> <Gold.PLP.Chemscore.Metal>
0.0000

> <Gold.Chemscore.Hbonds>
donor molecule, donor type, donor heavy atom, donor atom, acceptor molecule, acceptor atom, score
      L1  H    11    45       P1  8028  1.95
      P1  H  6896  6909       L1    23  0.79
      P1  H  7989  7998       L1     7  0.93

> <Gold.PLP.Chemscore.Internal.Correction>
0.0957

> <Gold.Rescore>
     Score         DG    S(hbond)    S(metal)    S(lipo)     H(rot)  DE(clash)    DE(int)     intcor
     16.61     -17.81       2.03        0.00      98.21       2.32       0.05       1.14       ----

> <Gold.Chemscore.Fitness>
16.6107

> <Gold.Chemscore.DG>
-17.8066

> <Gold.Chemscore.ZeroCoef>
-5.4800

> <Gold.Chemscore.Hbond>
2.0293

> <Gold.Chemscore.Metal>
0.0000

> <Gold.Chemscore.Lipo>
98.2095

> <Gold.Chemscore.Internal_Hbond>
0.0000

> <Gold.Chemscore.DEClash>
0.0547

> <Gold.Chemscore.DEInternal>
1.1412

> <Gold.Chemscore.Rot>
2.3210

> <Gold.Chemscore.Internal.Correction>
   9.000000E+99

> <Gold.Chemscore.Hbonds>
donor molecule, donor type, donor heavy atom, donor atom, acceptor molecule, acceptor atom, score
      L1  H    11    45       P1  8028  0.92
      P1  H  6896  6909       L1    23  0.16
      P1  H  7989  7998       L1     7  0.27

> <Gold.Chemscore.Hbond.Weighted>
-6.7778

> <Gold.Chemscore.Metal.Weighted>
-0.0000

> <Gold.Chemscore.Lipo.Weighted>
-11.4905

> <Gold.Chemscore.Internal_Hbond.Weighted>
0.0000

> <Gold.Chemscore.DEClash.Weighted>
0.0547

> <Gold.Chemscore.DEInternal.Weighted>
1.1412

> <Gold.Chemscore.Rot.Weighted>
5.9416

> <Gold.Chemscore.Internal.Correction.Weighted>
   9.000000E+99

> <Gold.Protein.RotatedTorsions>
[ 6907 6896 6895 6894 ] final    0.78 input  -60.11 | X-H torsion
[ 7974 7965 7964 7962 ] final    7.05 input  175.53 | X-H torsion
[ 8008 7997 7996 7995 ] final  -78.00 input   59.86 | X-H torsion
[ 10167 10162 10161 10158 ] final  133.86 input  -65.29 | X-H torsion
[ 10718 10713 10712 10709 ] final -111.26 input   66.30 | X-H torsion
[ 10763 10752 10751 10750 ] final  -16.17 input  -60.55 | X-H torsion
[ 11005 11000 10999 10996 ] final   61.65 input  -57.11 | X-H torsion

> <Gold.Protein.ActiveResidues>
 VAL166  LYS551  ARG553  GLY616  TRP617  ASP618  TYR619  PRO620  LYS621  CYS622 
 ASP623  PHE694  ASN695  SER759  ASP760  ASP761  ALA762  ILE779  LEU786  VAL792 
 PHE793  MET794  SER795  GLU796  ALA797  LYS798  CYS799  TRP800  GLU811  SER814 

> <Gold.Protein.RotatedAtoms>
  151.5821  135.1058  160.0019 H   0  0  0  0  0  0  0  0  0  0  0  0  # atno 6907 bound_to 6896
  152.4349  133.7339  159.6613 H   0  0  0  0  0  0  0  0  0  0  0  0  # atno 6908 bound_to 6896
  150.8245  133.8125  159.3147 H   0  0  0  0  0  0  0  0  0  0  0  0  # atno 6909 bound_to 6896
  146.2430  140.0142  142.8404 H   0  0  0  0  0  0  0  0  0  0  0  0  # atno 7974 bound_to 7965
  154.5648  140.0701  156.8875 H   0  0  0  0  0  0  0  0  0  0  0  0  # atno 8008 bound_to 7997
  155.2743  140.3367  155.4244 H   0  0  0  0  0  0  0  0  0  0  0  0  # atno 8009 bound_to 7997
  156.2072  140.1744  156.7760 H   0  0  0  0  0  0  0  0  0  0  0  0  # atno 8010 bound_to 7997
  139.5279  144.6595  151.5056 H   0  0  0  0  0  0  0  0  0  0  0  0  # atno 10167 bound_to 10162
  156.0637  130.5858  150.8349 H   0  0  0  0  0  0  0  0  0  0  0  0  # atno 10718 bound_to 10713
  153.5544  135.7011  153.5576 H   0  0  0  0  0  0  0  0  0  0  0  0  # atno 10763 bound_to 10752
  153.3486  135.4001  155.1628 H   0  0  0  0  0  0  0  0  0  0  0  0  # atno 10764 bound_to 10752
  154.8657  135.3760  154.5057 H   0  0  0  0  0  0  0  0  0  0  0  0  # atno 10765 bound_to 10752
  140.0147  134.6243  155.9728 H   0  0  0  0  0  0  0  0  0  0  0  0  # atno 11005 bound_to 11000
  145.1300  140.9512  143.4550 LP  0  0  0  0  0  0  0  0  0  0  0  0  # atno 17320 bound_to 7965
  145.0397  139.3270  143.5983 LP  0  0  0  0  0  0  0  0  0  0  0  0  # atno 17321 bound_to 7965
  140.6437  143.8838  150.6716 LP  0  0  0  0  0  0  0  0  0  0  0  0  # atno 17342 bound_to 10162
  140.2180  143.3831  152.1665 LP  0  0  0  0  0  0  0  0  0  0  0  0  # atno 17343 bound_to 10162
  157.5664  131.0946  150.9483 LP  0  0  0  0  0  0  0  0  0  0  0  0  # atno 17370 bound_to 10713
  156.9709  130.5491  149.5290 LP  0  0  0  0  0  0  0  0  0  0  0  0  # atno 17371 bound_to 10713
  141.1734  133.6538  156.4738 LP  0  0  0  0  0  0  0  0  0  0  0  0  # atno 17394 bound_to 11000
  140.4493  134.6944  157.5031 LP  0  0  0  0  0  0  0  0  0  0  0  0  # atno 17395 bound_to 11000

$$$$
