AV-unprocessed.smi:2826|AV-procd|sdf|10893|dock1
  -GOLD-   2272015343D 1   1.00000     0.00000
 Structure written by MMmdl.
 50 51  0  0  0  0  0  0  0  0  1 V2000
  147.3777  128.4454  153.2839 C   0  0  0  0  0  0  0  0  0  0  0  0
  148.2540  128.9538  154.2836 O   0  0  0  0  0  0  0  0  0  0  0  0
  148.5601  130.2991  154.2640 C   0  0  0  0  0  0  0  0  0  0  0  0
  149.5249  130.7844  155.1672 C   0  0  0  0  0  0  0  0  0  0  0  0
  149.8406  132.1557  155.1527 C   0  0  0  0  0  0  0  0  0  0  0  0
  149.1736  133.0072  154.2394 C   0  0  0  0  0  0  0  0  0  0  0  0
  149.4427  134.4009  154.1377 N   0  0  0  0  0  0  0  0  0  0  0  0
  150.2743  135.1436  154.8880 C   0  0  0  0  0  0  0  0  0  0  0  0
  150.9475  134.7246  155.8295 O   0  0  0  0  0  0  0  0  0  0  0  0
  150.2657  136.4264  154.4979 N   0  0  0  0  0  0  0  0  0  0  0  0
  151.0420  137.4965  155.1177 C   0  0  1  0  0  0  0  0  0  0  0  0
  152.1921  137.9159  154.1915 C   0  0  0  0  0  0  0  0  0  0  0  0
  152.9291  139.1358  154.7657 C   0  0  0  0  0  0  0  0  0  0  0  0
  152.0102  140.2024  154.9766 O   0  0  0  0  0  0  0  0  0  0  0  0
  150.9996  139.8966  155.9348 C   0  0  1  0  0  0  0  0  0  0  0  0
  150.1414  141.1550  156.1630 C   0  0  0  0  0  0  0  0  0  0  0  0
  150.6858  142.1261  157.2332 C   0  0  0  0  0  0  0  0  0  0  0  0
  149.5860  142.6456  158.1748 C   0  0  0  0  0  0  0  0  0  0  0  0
  151.4188  143.3028  156.5711 C   0  0  0  0  0  0  0  0  0  0  0  0
  150.1551  138.7185  155.4122 C   0  0  0  0  0  0  0  0  0  0  0  0
  148.2306  132.4197  153.3615 C   0  0  0  0  0  0  0  0  0  0  0  0
  147.4802  133.2493  152.3344 C   0  0  0  0  0  0  0  0  0  0  0  0
  147.9274  131.1029  153.3748 N   0  0  0  0  0  0  0  0  0  0  0  0
  147.2341  127.3765  153.4400 H   0  0  0  0  0  0  0  0  0  0  0  0
  147.7920  128.5808  152.2841 H   0  0  0  0  0  0  0  0  0  0  0  0
  146.3974  128.9210  153.3329 H   0  0  0  0  0  0  0  0  0  0  0  0
  150.0191  130.1156  155.8563 H   0  0  0  0  0  0  0  0  0  0  0  0
  150.5968  132.5234  155.8290 H   0  0  0  0  0  0  0  0  0  0  0  0
  148.8837  134.9023  153.4633 H   0  0  0  0  0  0  0  0  0  0  0  0
  149.6781  136.6838  153.7185 H   0  0  0  0  0  0  0  0  0  0  0  0
  151.4721  137.1340  156.0537 H   0  0  0  0  0  0  0  0  0  0  0  0
  152.8898  137.0889  154.0531 H   0  0  0  0  0  0  0  0  0  0  0  0
  151.8023  138.1664  153.2036 H   0  0  0  0  0  0  0  0  0  0  0  0
  153.4315  138.8835  155.7009 H   0  0  0  0  0  0  0  0  0  0  0  0
  153.7004  139.4686  154.0709 H   0  0  0  0  0  0  0  0  0  0  0  0
  151.4689  139.6004  156.8734 H   0  0  0  0  0  0  0  0  0  0  0  0
  150.0513  141.6845  155.2136 H   0  0  0  0  0  0  0  0  0  0  0  0
  149.1278  140.8573  156.4351 H   0  0  0  0  0  0  0  0  0  0  0  0
  151.4198  141.5930  157.8387 H   0  0  0  0  0  0  0  0  0  0  0  0
  148.7930  143.1470  157.6194 H   0  0  0  0  0  0  0  0  0  0  0  0
  149.9906  143.3607  158.8917 H   0  0  0  0  0  0  0  0  0  0  0  0
  149.1330  141.8399  158.7516 H   0  0  0  0  0  0  0  0  0  0  0  0
  150.7441  143.8882  155.9454 H   0  0  0  0  0  0  0  0  0  0  0  0
  152.2377  142.9534  155.9416 H   0  0  0  0  0  0  0  0  0  0  0  0
  151.8450  143.9725  157.3187 H   0  0  0  0  0  0  0  0  0  0  0  0
  149.6316  139.0212  154.5039 H   0  0  0  0  0  0  0  0  0  0  0  0
  149.3873  138.4590  156.1421 H   0  0  0  0  0  0  0  0  0  0  0  0
  146.9340  134.0565  152.8233 H   0  0  0  0  0  0  0  0  0  0  0  0
  146.7611  132.6456  151.7786 H   0  0  0  0  0  0  0  0  0  0  0  0
  148.1771  133.6869  151.6192 H   0  0  0  0  0  0  0  0  0  0  0  0
  1  2  1  0  0  0  0
  1 24  1  0  0  0  0
  1 25  1  0  0  0  0
  1 26  1  0  0  0  0
  2  3  1  0  0  0  0
  3 23  1  0  0  0  0
  3  4  2  0  0  0  0
  4  5  1  0  0  0  0
  4 27  1  0  0  0  0
  5  6  2  0  0  0  0
  5 28  1  0  0  0  0
  6  7  1  0  0  0  0
  6 21  1  0  0  0  0
  7  8  1  0  0  0  0
  7 29  1  0  0  0  0
  8  9  2  0  0  0  0
  8 10  1  0  0  0  0
 10 11  1  0  0  0  0
 10 30  1  0  0  0  0
 11 20  1  0  0  0  0
 11 12  1  0  0  0  0
 11 31  1  0  0  0  0
 12 13  1  0  0  0  0
 12 32  1  0  0  0  0
 12 33  1  0  0  0  0
 13 14  1  0  0  0  0
 13 34  1  0  0  0  0
 13 35  1  0  0  0  0
 14 15  1  0  0  0  0
 15 16  1  0  0  0  0
 15 20  1  0  0  0  0
 15 36  1  0  0  0  0
 16 17  1  0  0  0  0
 16 37  1  0  0  0  0
 16 38  1  0  0  0  0
 17 18  1  0  0  0  0
 17 19  1  0  0  0  0
 17 39  1  0  0  0  0
 18 40  1  0  0  0  0
 18 41  1  0  0  0  0
 18 42  1  0  0  0  0
 19 43  1  0  0  0  0
 19 44  1  0  0  0  0
 19 45  1  0  0  0  0
 20 46  1  0  0  0  0
 20 47  1  0  0  0  0
 21 22  1  0  0  0  0
 21 23  2  0  0  0  0
 22 48  1  0  0  0  0
 22 49  1  0  0  0  0
 22 50  1  0  0  0  0
M  END
> <s_m_source_file>
AV-unprocessed.smi

> <i_m_source_file_index>
2826

> <i_lp_mmshare_version>
43012

> <i_f3d_flags>
0

> <s_epik_input>
W0NIM11PYzFbY0hdW2NIXWMoYyhuMSlbQ0gzXSlbTkhdQyg9TylbTkhdW0NAQEhdMltDSDJdW0NIMl1PW0NASF0oW0NIMl0yKVtDSDJdW0NIXShbQ0gzXSlbQ0gzXQ==

> <s_epik_cmdline>
J2VwaWtfcHl0aG9uJywgJy1waCcsICc3LjAnLCAnLXRuJywgJzgnLCAnLW1hJywgJzIwMCcsICctbWV0YWxfYmluZGluZycsICctaW1hZScsICc8aW5maWxlLm1hZT4nLCAnLW9tYWUnLCAnPG91dGZpbGUubWFlPic=

> <r_lp_tautomer_probability>
1

> <r_epik_Ionization_Penalty>
0.000249977

> <r_epik_Ionization_Penalty_Charging>
0

> <r_epik_Ionization_Penalty_Neutral>
0.000249977

> <r_epik_State_Penalty>
-0

> <r_epik_Charging_Adjusted_Penalty>
0

> <i_epik_Tot_Q>
0

> <i_epik_Tot_abs_Q>
0

> <r_epik_Metal_State_Penalty>
-0

> <b_epik_Metal_Only>
0

> <s_lp_Force_Field>
OPLS_2005

> <r_lp_Energy>
13.3691

> <b_lp_Chiralities_Consistent>
1

> <s_lp_Variant>
AV-unprocessed.smi:2826-2

> <Gold.Version>
5.8.1

> <Gold.Id.Protein>
6NUR|6NUR_protein|mol2

> <Gold.PLP.Fitness>
43.7400

> <Gold.PLP.PLP>
-37.8152

> <Gold.PLP.part.hbond>
-4.4366

> <Gold.PLP.part.metal>
0.0000

> <Gold.PLP.part.buried>
-0.0059

> <Gold.PLP.part.nonpolar>
-32.8638

> <Gold.PLP.part.repulsive>
0.8530

> <Gold.PLP.ligand.clash>
0.0000

> <Gold.PLP.ligand.torsion>
1.0633

> <Gold.PLP.Chemscore.Hbond>
2.6656

> <Gold.PLP.Chemscore.CHOScore>
0.0000

> <Gold.PLP.Chemscore.Metal>
0.0000

> <Gold.Chemscore.Hbonds>
donor molecule, donor type, donor heavy atom, donor atom, acceptor molecule, acceptor atom, score
      L1  H     7    29       P1  7948  0.83
      L1  H    10    30       P1  7948  0.94
      P1  H  7989  7998       L1    14  0.77

> <Gold.PLP.Chemscore.Internal.Correction>
0.0547

> <Gold.Rescore>
     Score         DG    S(hbond)    S(metal)    S(lipo)     H(rot)  DE(clash)    DE(int)     intcor
     14.79     -18.72       1.67        0.00      98.51       1.51       1.96       1.98       ----

> <Gold.Chemscore.Fitness>
14.7851

> <Gold.Chemscore.DG>
-18.7227

> <Gold.Chemscore.ZeroCoef>
-5.4800

> <Gold.Chemscore.Hbond>
1.6682

> <Gold.Chemscore.Metal>
0.0000

> <Gold.Chemscore.Lipo>
98.5097

> <Gold.Chemscore.Internal_Hbond>
0.0000

> <Gold.Chemscore.DEClash>
1.9618

> <Gold.Chemscore.DEInternal>
1.9758

> <Gold.Chemscore.Rot>
1.5057

> <Gold.Chemscore.Internal.Correction>
   9.000000E+99

> <Gold.Chemscore.Hbonds>
donor molecule, donor type, donor heavy atom, donor atom, acceptor molecule, acceptor atom, score
      L1  H     7    29       P1  7948  0.31
      L1  H    10    30       P1  7948  0.57
      P1  H  7989  7998       L1    14  0.50

> <Gold.Chemscore.Hbond.Weighted>
-5.5717

> <Gold.Chemscore.Metal.Weighted>
-0.0000

> <Gold.Chemscore.Lipo.Weighted>
-11.5256

> <Gold.Chemscore.Internal_Hbond.Weighted>
0.0000

> <Gold.Chemscore.DEClash.Weighted>
1.9618

> <Gold.Chemscore.DEInternal.Weighted>
1.9758

> <Gold.Chemscore.Rot.Weighted>
3.8547

> <Gold.Chemscore.Internal.Correction.Weighted>
   9.000000E+99

> <Gold.Protein.RotatedTorsions>
[ 6907 6896 6895 6894 ] final   13.93 input  -60.11 | X-H torsion
[ 7974 7965 7964 7962 ] final  163.72 input  175.53 | X-H torsion
[ 8008 7997 7996 7995 ] final  -31.89 input   59.86 | X-H torsion
[ 10167 10162 10161 10158 ] final  -17.32 input  -65.29 | X-H torsion
[ 10718 10713 10712 10709 ] final  174.81 input   66.30 | X-H torsion
[ 10763 10752 10751 10750 ] final  -60.20 input  -60.55 | X-H torsion
[ 11005 11000 10999 10996 ] final -134.23 input  -57.11 | X-H torsion

> <Gold.Protein.ActiveResidues>
 VAL166  LYS551  ARG553  GLY616  TRP617  ASP618  TYR619  PRO620  LYS621  CYS622 
 ASP623  PHE694  ASN695  SER759  ASP760  ASP761  ALA762  ILE779  LEU786  VAL792 
 PHE793  MET794  SER795  GLU796  ALA797  LYS798  CYS799  TRP800  GLU811  SER814 

> <Gold.Protein.RotatedAtoms>
  151.7941  135.0727  160.0391 H   0  0  0  0  0  0  0  0  0  0  0  0  # atno 6907 bound_to 6896
  152.3135  133.5773  159.5705 H   0  0  0  0  0  0  0  0  0  0  0  0  # atno 6908 bound_to 6896
  150.7332  134.0033  159.3687 H   0  0  0  0  0  0  0  0  0  0  0  0  # atno 6909 bound_to 6896
  144.7577  139.8222  143.6344 H   0  0  0  0  0  0  0  0  0  0  0  0  # atno 7974 bound_to 7965
  154.4198  140.1752  156.1639 H   0  0  0  0  0  0  0  0  0  0  0  0  # atno 8008 bound_to 7997
  155.9816  140.3377  155.6644 H   0  0  0  0  0  0  0  0  0  0  0  0  # atno 8009 bound_to 7997
  155.6492  140.0688  157.2583 H   0  0  0  0  0  0  0  0  0  0  0  0  # atno 8010 bound_to 7997
  140.7245  143.5027  150.9848 H   0  0  0  0  0  0  0  0  0  0  0  0  # atno 10167 bound_to 10162
  156.9441  131.0010  151.2962 H   0  0  0  0  0  0  0  0  0  0  0  0  # atno 10718 bound_to 10713
  154.2656  135.6300  153.5291 H   0  0  0  0  0  0  0  0  0  0  0  0  # atno 10763 bound_to 10752
  152.9888  135.5598  154.5656 H   0  0  0  0  0  0  0  0  0  0  0  0  # atno 10764 bound_to 10752
  154.5215  135.2883  155.1233 H   0  0  0  0  0  0  0  0  0  0  0  0  # atno 10765 bound_to 10752
  140.9009  134.1691  157.4461 H   0  0  0  0  0  0  0  0  0  0  0  0  # atno 11005 bound_to 11000
  146.1606  139.4719  142.9990 LP  0  0  0  0  0  0  0  0  0  0  0  0  # atno 17320 bound_to 7965
  145.6723  141.0213  143.1651 LP  0  0  0  0  0  0  0  0  0  0  0  0  # atno 17321 bound_to 7965
  139.8738  143.7159  152.3164 LP  0  0  0  0  0  0  0  0  0  0  0  0  # atno 17342 bound_to 10162
  139.7417  144.7558  151.0642 LP  0  0  0  0  0  0  0  0  0  0  0  0  # atno 17343 bound_to 10162
  157.5765  130.8347  149.8463 LP  0  0  0  0  0  0  0  0  0  0  0  0  # atno 17370 bound_to 10713
  156.0391  130.3743  150.1481 LP  0  0  0  0  0  0  0  0  0  0  0  0  # atno 17371 bound_to 10713
  139.8742  134.9897  156.5472 LP  0  0  0  0  0  0  0  0  0  0  0  0  # atno 17394 bound_to 11000
  140.8231  133.8338  155.8914 LP  0  0  0  0  0  0  0  0  0  0  0  0  # atno 17395 bound_to 11000

$$$$
