AV-unprocessed.smi:3350|AV-procd|sdf|12944|dock5
  -GOLD-   2272019373D 1   1.00000     0.00000
 Structure written by MMmdl.
 41 42  0  0  0  0  0  0  0  0  1 V2000
  151.5816  136.1623  156.2714 C   0  0  0  0  0  0  0  0  0  0  0  0
  150.4900  136.9621  155.5476 C   0  0  1  0  0  0  0  0  0  0  0  0
  151.0831  138.1850  154.8145 C   0  0  0  0  0  0  0  0  0  0  0  0
  150.1018  139.2285  154.5760 N   0  0  0  0  0  0  0  0  0  0  0  0
  148.8306  139.1074  154.0549 C   0  0  0  0  0  0  0  0  0  0  0  0
  148.2769  140.3551  154.0400 C   0  0  0  0  0  0  0  0  0  0  0  0
  149.3021  141.1854  154.5733 C   0  0  0  0  0  0  0  0  0  0  0  0
  150.3947  140.5090  154.8891 N   0  0  0  0  0  0  0  0  0  0  0  0
  149.7980  136.0778  154.6103 N   0  0  0  0  0  0  0  0  0  0  0  0
  149.2789  134.8772  154.9065 C   0  0  0  0  0  0  0  0  0  0  0  0
  149.3447  134.3530  156.0183 O   0  0  0  0  0  0  0  0  0  0  0  0
  148.6605  134.3337  153.8468 N   0  0  0  0  0  0  0  0  0  0  0  0
  147.9390  133.0598  153.7966 C   0  0  2  0  0  0  0  0  0  0  0  0
  148.8243  131.9002  154.2923 C   0  0  0  0  0  0  0  0  0  0  0  0
  147.3275  132.8002  152.4016 C   0  0  1  0  0  0  0  0  0  0  0  0
  146.4120  131.5779  152.3259 C   0  0  0  0  0  0  0  0  0  0  0  0
  145.4958  131.8904  151.1532 C   0  0  0  0  0  0  0  0  0  0  0  0
  145.6755  133.3946  150.9297 C   0  0  0  0  0  0  0  0  0  0  0  0
  146.4411  133.8475  152.0377 O   0  0  0  0  0  0  0  0  0  0  0  0
  152.0950  136.7795  157.0091 H   0  0  0  0  0  0  0  0  0  0  0  0
  152.3304  135.7874  155.5726 H   0  0  0  0  0  0  0  0  0  0  0  0
  151.1581  135.3064  156.7981 H   0  0  0  0  0  0  0  0  0  0  0  0
  149.7912  137.3132  156.3094 H   0  0  0  0  0  0  0  0  0  0  0  0
  151.8965  138.6159  155.4002 H   0  0  0  0  0  0  0  0  0  0  0  0
  151.5152  137.8866  153.8581 H   0  0  0  0  0  0  0  0  0  0  0  0
  148.4273  138.1528  153.7511 H   0  0  0  0  0  0  0  0  0  0  0  0
  147.2894  140.6324  153.7028 H   0  0  0  0  0  0  0  0  0  0  0  0
  149.2850  142.2523  154.7392 H   0  0  0  0  0  0  0  0  0  0  0  0
  149.6889  136.4179  153.6662 H   0  0  0  0  0  0  0  0  0  0  0  0
  148.6796  134.8593  152.9855 H   0  0  0  0  0  0  0  0  0  0  0  0
  147.1177  133.1665  154.5058 H   0  0  0  0  0  0  0  0  0  0  0  0
  148.2448  130.9844  154.4078 H   0  0  0  0  0  0  0  0  0  0  0  0
  149.2648  132.1298  155.2632 H   0  0  0  0  0  0  0  0  0  0  0  0
  149.6384  131.6856  153.5996 H   0  0  0  0  0  0  0  0  0  0  0  0
  148.1051  132.7156  151.6406 H   0  0  0  0  0  0  0  0  0  0  0  0
  146.9625  130.6459  152.1952 H   0  0  0  0  0  0  0  0  0  0  0  0
  145.8190  131.4931  153.2376 H   0  0  0  0  0  0  0  0  0  0  0  0
  145.7868  131.3335  150.2619 H   0  0  0  0  0  0  0  0  0  0  0  0
  144.4614  131.6356  151.3862 H   0  0  0  0  0  0  0  0  0  0  0  0
  146.2303  133.5818  150.0094 H   0  0  0  0  0  0  0  0  0  0  0  0
  144.7256  133.9258  150.8682 H   0  0  0  0  0  0  0  0  0  0  0  0
  1  2  1  0  0  0  0
  1 20  1  0  0  0  0
  1 21  1  0  0  0  0
  1 22  1  0  0  0  0
  2  3  1  0  0  0  0
  2  9  1  0  0  0  0
  2 23  1  0  0  0  0
  3  4  1  0  0  0  0
  3 24  1  0  0  0  0
  3 25  1  0  0  0  0
  4  8  1  0  0  0  0
  4  5  1  0  0  0  0
  5  6  2  0  0  0  0
  5 26  1  0  0  0  0
  6  7  1  0  0  0  0
  6 27  1  0  0  0  0
  7  8  2  0  0  0  0
  7 28  1  0  0  0  0
  9 10  1  0  0  0  0
  9 29  1  0  0  0  0
 10 11  2  0  0  0  0
 10 12  1  0  0  0  0
 12 13  1  0  0  0  0
 12 30  1  0  0  0  0
 13 14  1  0  0  0  0
 13 15  1  0  0  0  0
 13 31  1  0  0  0  0
 14 32  1  0  0  0  0
 14 33  1  0  0  0  0
 14 34  1  0  0  0  0
 15 19  1  0  0  0  0
 15 16  1  0  0  0  0
 15 35  1  0  0  0  0
 16 17  1  0  0  0  0
 16 36  1  0  0  0  0
 16 37  1  0  0  0  0
 17 18  1  0  0  0  0
 17 38  1  0  0  0  0
 17 39  1  0  0  0  0
 18 19  1  0  0  0  0
 18 40  1  0  0  0  0
 18 41  1  0  0  0  0
M  END
> <s_m_source_file>
AV-unprocessed.smi

> <i_m_source_file_index>
3350

> <i_lp_mmshare_version>
43012

> <i_f3d_flags>
0

> <s_epik_input>
bjFbY0hdW2NIXVtjSF1uMVtDSDJdW0NAQEhdKFtDSDNdKVtOSF1DKD1PKVtOSF1bQ0BIXShbQ0gzXSlbQ0BASF0yW0NIMl1bQ0gyXVtDSDJdTzI=

> <s_epik_cmdline>
J2VwaWtfcHl0aG9uJywgJy1waCcsICc3LjAnLCAnLXRuJywgJzgnLCAnLW1hJywgJzIwMCcsICctbWV0YWxfYmluZGluZycsICctaW1hZScsICc8aW5maWxlLm1hZT4nLCAnLW9tYWUnLCAnPG91dGZpbGUubWFlPic=

> <r_lp_tautomer_probability>
1

> <r_epik_Ionization_Penalty>
6.42349e-05

> <r_epik_Ionization_Penalty_Charging>
0

> <r_epik_Ionization_Penalty_Neutral>
6.42349e-05

> <r_epik_State_Penalty>
-0

> <r_epik_Charging_Adjusted_Penalty>
0

> <i_epik_Tot_Q>
0

> <i_epik_Tot_abs_Q>
0

> <r_epik_Metal_State_Penalty>
-0

> <b_epik_Metal_Only>
0

> <s_lp_Force_Field>
OPLS_2005

> <r_lp_Energy>
15.9813

> <b_lp_Chiralities_Consistent>
1

> <s_lp_Variant>
AV-unprocessed.smi:3350-6

> <Gold.Version>
5.8.1

> <Gold.Id.Protein>
6NUR|6NUR_protein|mol2

> <Gold.PLP.Fitness>
44.5288

> <Gold.PLP.PLP>
-32.8207

> <Gold.PLP.part.hbond>
-3.0000

> <Gold.PLP.part.metal>
0.0000

> <Gold.PLP.part.buried>
-1.3240

> <Gold.PLP.part.nonpolar>
-28.5139

> <Gold.PLP.part.repulsive>
0.2994

> <Gold.PLP.ligand.clash>
0.0000

> <Gold.PLP.ligand.torsion>
0.4450

> <Gold.PLP.Chemscore.Hbond>
2.9424

> <Gold.PLP.Chemscore.CHOScore>
1.2263

> <Gold.PLP.Chemscore.Metal>
0.0000

> <Gold.Chemscore.Hbonds>
donor molecule, donor type, donor heavy atom, donor atom, acceptor molecule, acceptor atom, score
      L1  H     9    29       P1  7948  1.00
      L1  H    12    30       P1  7948  1.00
      P1  H  7989  7998       L1     8  0.94
      L1  C     5    26       P1  7948  0.50
      L1  C     7    28       P1  8028  0.70

> <Gold.PLP.Chemscore.Internal.Correction>
0.0922

> <Gold.Rescore>
     Score         DG    S(hbond)    S(metal)    S(lipo)     H(rot)  DE(clash)    DE(int)     intcor
     14.58     -16.72       2.34        0.00      69.01       1.82       0.16       1.98       ----

> <Gold.Chemscore.Fitness>
14.5781

> <Gold.Chemscore.DG>
-16.7158

> <Gold.Chemscore.ZeroCoef>
-5.4800

> <Gold.Chemscore.Hbond>
2.3413

> <Gold.Chemscore.Metal>
0.0000

> <Gold.Chemscore.Lipo>
69.0104

> <Gold.Chemscore.Internal_Hbond>
0.0000

> <Gold.Chemscore.DEClash>
0.1600

> <Gold.Chemscore.DEInternal>
1.9777

> <Gold.Chemscore.Rot>
1.8197

> <Gold.Chemscore.Internal.Correction>
   9.000000E+99

> <Gold.Chemscore.Hbonds>
donor molecule, donor type, donor heavy atom, donor atom, acceptor molecule, acceptor atom, score
      L1  H     9    29       P1  7948  0.47
      L1  H    12    30       P1  7948  0.30
      P1  H  7989  7998       L1     8  0.10

> <Gold.Chemscore.Hbond.Weighted>
-7.8199

> <Gold.Chemscore.Metal.Weighted>
-0.0000

> <Gold.Chemscore.Lipo.Weighted>
-8.0742

> <Gold.Chemscore.Internal_Hbond.Weighted>
0.0000

> <Gold.Chemscore.DEClash.Weighted>
0.1600

> <Gold.Chemscore.DEInternal.Weighted>
1.9777

> <Gold.Chemscore.Rot.Weighted>
4.6583

> <Gold.Chemscore.Internal.Correction.Weighted>
   9.000000E+99

> <Gold.Protein.RotatedTorsions>
[ 6907 6896 6895 6894 ] final  -51.15 input  -60.11 | X-H torsion
[ 7974 7965 7964 7962 ] final   72.95 input  175.53 | X-H torsion
[ 8008 7997 7996 7995 ] final   10.59 input   59.86 | X-H torsion
[ 10167 10162 10161 10158 ] final   37.30 input  -65.29 | X-H torsion
[ 10718 10713 10712 10709 ] final   18.81 input   66.30 | X-H torsion
[ 10763 10752 10751 10750 ] final   53.56 input  -60.55 | X-H torsion
[ 11005 11000 10999 10996 ] final -103.93 input  -57.11 | X-H torsion

> <Gold.Protein.ActiveResidues>
 VAL166  LYS551  ARG553  GLY616  TRP617  ASP618  TYR619  PRO620  LYS621  CYS622 
 ASP623  PHE694  ASN695  SER759  ASP760  ASP761  ALA762  ILE779  LEU786  VAL792 
 PHE793  MET794  SER795  GLU796  ALA797  LYS798  CYS799  TRP800  GLU811  SER814 

> <Gold.Protein.RotatedAtoms>
  150.8638  134.7997  159.7103 H   0  0  0  0  0  0  0  0  0  0  0  0  # atno 6907 bound_to 6896
  152.4666  134.5056  159.9748 H   0  0  0  0  0  0  0  0  0  0  0  0  # atno 6908 bound_to 6896
  151.5156  133.3438  159.2928 H   0  0  0  0  0  0  0  0  0  0  0  0  # atno 6909 bound_to 6896
  145.7470  139.2744  143.1453 H   0  0  0  0  0  0  0  0  0  0  0  0  # atno 7974 bound_to 7965
  154.7955  140.2843  155.5960 H   0  0  0  0  0  0  0  0  0  0  0  0  # atno 8008 bound_to 7997
  156.2970  140.2596  156.2740 H   0  0  0  0  0  0  0  0  0  0  0  0  # atno 8009 bound_to 7997
  154.9620  140.0377  157.2184 H   0  0  0  0  0  0  0  0  0  0  0  0  # atno 8010 bound_to 7997
  140.4045  144.1678  150.6135 H   0  0  0  0  0  0  0  0  0  0  0  0  # atno 10167 bound_to 10162
  157.1016  130.6470  149.5874 H   0  0  0  0  0  0  0  0  0  0  0  0  # atno 10718 bound_to 10713
  152.9796  135.5774  154.4762 H   0  0  0  0  0  0  0  0  0  0  0  0  # atno 10763 bound_to 10752
  154.4317  135.2774  155.1909 H   0  0  0  0  0  0  0  0  0  0  0  0  # atno 10764 bound_to 10752
  154.3615  135.6187  153.5747 H   0  0  0  0  0  0  0  0  0  0  0  0  # atno 10765 bound_to 10752
  141.1124  133.8681  157.1547 H   0  0  0  0  0  0  0  0  0  0  0  0  # atno 11005 bound_to 11000
  146.0393  140.8181  142.9836 LP  0  0  0  0  0  0  0  0  0  0  0  0  # atno 17320 bound_to 7965
  144.6858  140.2886  143.7281 LP  0  0  0  0  0  0  0  0  0  0  0  0  # atno 17321 bound_to 7965
  140.4704  143.2415  151.9097 LP  0  0  0  0  0  0  0  0  0  0  0  0  # atno 17342 bound_to 10162
  139.4784  144.5375  151.8576 LP  0  0  0  0  0  0  0  0  0  0  0  0  # atno 17343 bound_to 10162
  155.9872  130.4910  150.7115 LP  0  0  0  0  0  0  0  0  0  0  0  0  # atno 17370 bound_to 10713
  157.4636  131.0886  151.0719 LP  0  0  0  0  0  0  0  0  0  0  0  0  # atno 17371 bound_to 10713
  140.0025  135.0022  157.0220 LP  0  0  0  0  0  0  0  0  0  0  0  0  # atno 17394 bound_to 11000
  140.4740  134.1357  155.7207 LP  0  0  0  0  0  0  0  0  0  0  0  0  # atno 17395 bound_to 11000

$$$$
