AV-unprocessed.smi:1754|AV-procd|sdf|7068|dock5
  -GOLD-   22720 8283D 1   1.00000     0.00000
 Structure written by MMmdl.
 44 45  0  0  0  0  0  0  0  0  3 V2000
  151.2655  145.5324  160.2121 C   0  0  0  0  0  0  0  0  0  0  0  0
  152.0827  144.2851  160.5827 C   0  0  0  0  0  0  0  0  0  0  0  0
  152.4789  143.4980  159.4151 N   0  0  0  0  0  0  0  0  0  0  0  0
  151.7816  143.7777  158.1576 C   0  0  0  0  0  0  0  0  0  0  0  0
  152.3328  145.0117  157.4253 C   0  0  0  0  0  0  0  0  0  0  0  0
  152.8704  142.1685  159.6938 C   0  0  0  0  0  0  0  0  0  0  0  0
  153.7231  141.8446  160.7761 C   0  0  0  0  0  0  0  0  0  0  0  0
  154.0688  140.4999  161.0194 C   0  0  0  0  0  0  0  0  0  0  0  0
  153.5513  139.4838  160.1907 C   0  0  0  0  0  0  0  0  0  0  0  0
  153.9415  138.1448  160.4576 N   0  0  0  0  0  0  0  0  0  0  0  0
  153.5087  136.9955  159.8825 C   0  0  0  0  0  0  0  0  0  0  0  0
  152.5984  137.0498  159.0569 O   0  0  0  0  0  0  0  0  0  0  0  0
  154.0677  135.8010  160.2460 N   0  5  0  0  0  0  0  0  0  0  0  0
  154.9918  135.5098  161.3536 C   0  0  2  0  0  0  0  0  0  0  0  0
  155.2526  133.9946  161.4816 C   0  0  0  0  0  0  0  0  0  0  0  0
  155.9138  133.7228  162.8402 C   0  0  0  0  0  0  0  0  0  0  0  0
  155.2450  134.9926  163.9837 S   0  0  0  0  0  0  0  0  0  0  0  0
  154.2263  134.3844  164.8533 O   0  0  0  0  0  0  0  0  0  0  0  0
  156.3653  135.7555  164.5566 O   0  0  0  0  0  0  0  0  0  0  0  0
  154.4116  135.9935  162.6896 C   0  0  0  0  0  0  0  0  0  0  0  0
  152.7172  139.8576  159.1116 C   0  0  0  0  0  0  0  0  0  0  0  0
  152.4138  141.1583  158.9132 N   0  3  0  0  0  0  0  0  0  0  0  0
  151.0045  146.0997  161.1056 H   0  0  0  0  0  0  0  0  0  0  0  0
  150.3359  145.2655  159.7084 H   0  0  0  0  0  0  0  0  0  0  0  0
  151.8259  146.1958  159.5531 H   0  0  0  0  0  0  0  0  0  0  0  0
  152.9845  144.5924  161.1131 H   0  0  0  0  0  0  0  0  0  0  0  0
  151.5252  143.6751  161.2922 H   0  0  0  0  0  0  0  0  0  0  0  0
  151.8236  142.9031  157.5073 H   0  0  0  0  0  0  0  0  0  0  0  0
  150.7243  143.9425  158.3683 H   0  0  0  0  0  0  0  0  0  0  0  0
  151.7587  145.2068  156.5194 H   0  0  0  0  0  0  0  0  0  0  0  0
  153.3744  144.8871  157.1301 H   0  0  0  0  0  0  0  0  0  0  0  0
  152.2679  145.9003  158.0538 H   0  0  0  0  0  0  0  0  0  0  0  0
  154.1286  142.6137  161.4160 H   0  0  0  0  0  0  0  0  0  0  0  0
  154.7246  140.2527  161.8417 H   0  0  0  0  0  0  0  0  0  0  0  0
  154.6019  138.0263  161.2118 H   0  0  0  0  0  0  0  0  0  0  0  0
  155.9560  136.0024  161.2174 H   0  0  0  0  0  0  0  0  0  0  0  0
  154.3024  133.4593  161.4437 H   0  0  0  0  0  0  0  0  0  0  0  0
  155.8624  133.6164  160.6608 H   0  0  0  0  0  0  0  0  0  0  0  0
  155.6983  132.7245  163.2208 H   0  0  0  0  0  0  0  0  0  0  0  0
  156.9965  133.8469  162.7878 H   0  0  0  0  0  0  0  0  0  0  0  0
  154.5779  137.0559  162.8665 H   0  0  0  0  0  0  0  0  0  0  0  0
  153.3414  135.7926  162.7528 H   0  0  0  0  0  0  0  0  0  0  0  0
  152.2910  139.1733  158.3930 H   0  0  0  0  0  0  0  0  0  0  0  0
  151.8051  141.3918  158.1289 H   0  0  0  0  0  0  0  0  0  0  0  0
  1  2  1  0  0  0  0
  1 23  1  0  0  0  0
  1 24  1  0  0  0  0
  1 25  1  0  0  0  0
  2  3  1  0  0  0  0
  2 26  1  0  0  0  0
  2 27  1  0  0  0  0
  3  4  1  0  0  0  0
  3  6  1  0  0  0  0
  4  5  1  0  0  0  0
  4 28  1  0  0  0  0
  4 29  1  0  0  0  0
  5 30  1  0  0  0  0
  5 31  1  0  0  0  0
  5 32  1  0  0  0  0
  6 22  1  0  0  0  0
  6  7  2  0  0  0  0
  7  8  1  0  0  0  0
  7 33  1  0  0  0  0
  8  9  2  0  0  0  0
  8 34  1  0  0  0  0
  9 10  1  0  0  0  0
  9 21  1  0  0  0  0
 10 11  1  0  0  0  0
 10 35  1  0  0  0  0
 11 12  2  0  0  0  0
 11 13  1  0  0  0  0
 13 14  1  0  0  0  0
 14 20  1  0  0  0  0
 14 15  1  0  0  0  0
 14 36  1  0  0  0  0
 15 16  1  0  0  0  0
 15 37  1  0  0  0  0
 15 38  1  0  0  0  0
 16 17  1  0  0  0  0
 16 39  1  0  0  0  0
 16 40  1  0  0  0  0
 17 18  2  0  0  0  0
 17 19  2  0  0  0  0
 17 20  1  0  0  0  0
 20 41  1  0  0  0  0
 20 42  1  0  0  0  0
 21 22  2  0  0  0  0
 21 43  1  0  0  0  0
 22 44  1  0  0  0  0
M  CHG  1  13  -1
M  CHG  1  22   1
M  END
> <s_m_source_file>
AV-unprocessed.smi

> <i_m_source_file_index>
1754

> <i_lp_mmshare_version>
43012

> <i_f3d_flags>
0

> <s_epik_input>
W0NIM11bQ0gyXU4oW0NIMl1bQ0gzXSljMVtjSF1bY0hdYyhbY0hdbjEpW05IXUMoPU8pW05IXVtDQEBIXShbQ0gyXTIpW0NIMl1bQ0gyXVMyKD1PKT1P

> <s_epik_cmdline>
J2VwaWtfcHl0aG9uJywgJy1waCcsICc3LjAnLCAnLXRuJywgJzgnLCAnLW1hJywgJzIwMCcsICctbWV0YWxfYmluZGluZycsICctaW1hZScsICc8aW5maWxlLm1hZT4nLCAnLW9tYWUnLCAnPG91dGZpbGUubWFlPic=

> <r_lp_tautomer_probability>
0.999994

> <r_epik_Ionization_Penalty>
7.1175

> <r_epik_Ionization_Penalty_Charging>
7.11749

> <r_epik_Ionization_Penalty_Neutral>
3.13064e-06

> <r_epik_State_Penalty>
6.65299

> <r_epik_Charging_Adjusted_Penalty>
13.7705

> <i_epik_Tot_Q>
0

> <i_epik_Tot_abs_Q>
2

> <r_epik_Metal_State_Penalty>
2.60496

> <b_epik_Metal_Only>
1

> <s_lp_Force_Field>
OPLS_2005

> <r_lp_Energy>
20.9126

> <b_lp_Chiralities_Consistent>
1

> <s_lp_Variant>
AV-unprocessed.smi:1754-5

> <Gold.Version>
5.8.1

> <Gold.Id.Protein>
6NUR|6NUR_protein|mol2

> <Gold.PLP.Fitness>
48.2138

> <Gold.PLP.PLP>
-43.1012

> <Gold.PLP.part.hbond>
-1.2241

> <Gold.PLP.part.metal>
0.0000

> <Gold.PLP.part.buried>
-6.2723

> <Gold.PLP.part.nonpolar>
-36.2893

> <Gold.PLP.part.repulsive>
0.3104

> <Gold.PLP.ligand.clash>
0.0000

> <Gold.PLP.ligand.torsion>
0.9124

> <Gold.PLP.Chemscore.Hbond>
2.0000

> <Gold.PLP.Chemscore.CHOScore>
0.0000

> <Gold.PLP.Chemscore.Metal>
0.0000

> <Gold.Chemscore.Hbonds>
donor molecule, donor type, donor heavy atom, donor atom, acceptor molecule, acceptor atom, score
      P1  H  6896  6908       L1    13  1.80

> <Gold.PLP.Chemscore.Internal.Correction>
0.9374

> <Gold.Rescore>
     Score         DG    S(hbond)    S(metal)    S(lipo)     H(rot)  DE(clash)    DE(int)     intcor
     12.34     -16.17       0.58        0.00     105.05       1.39       1.66       2.16       ----

> <Gold.Chemscore.Fitness>
12.3448

> <Gold.Chemscore.DG>
-16.1673

> <Gold.Chemscore.ZeroCoef>
-5.4800

> <Gold.Chemscore.Hbond>
0.5836

> <Gold.Chemscore.Metal>
0.0000

> <Gold.Chemscore.Lipo>
105.0467

> <Gold.Chemscore.Internal_Hbond>
0.0000

> <Gold.Chemscore.DEClash>
1.6627

> <Gold.Chemscore.DEInternal>
2.1597

> <Gold.Chemscore.Rot>
1.3876

> <Gold.Chemscore.Internal.Correction>
   9.000000E+99

> <Gold.Chemscore.Hbonds>
donor molecule, donor type, donor heavy atom, donor atom, acceptor molecule, acceptor atom, score
      P1  H  6896  6908       L1    13  0.17

> <Gold.Chemscore.Hbond.Weighted>
-1.9492

> <Gold.Chemscore.Metal.Weighted>
-0.0000

> <Gold.Chemscore.Lipo.Weighted>
-12.2905

> <Gold.Chemscore.Internal_Hbond.Weighted>
0.0000

> <Gold.Chemscore.DEClash.Weighted>
1.6627

> <Gold.Chemscore.DEInternal.Weighted>
2.1597

> <Gold.Chemscore.Rot.Weighted>
3.5524

> <Gold.Chemscore.Internal.Correction.Weighted>
   9.000000E+99

> <Gold.Protein.RotatedTorsions>
[ 6907 6896 6895 6894 ] final  -60.51 input  -60.11 | X-H torsion
[ 7974 7965 7964 7962 ] final  166.33 input  175.53 | X-H torsion
[ 8008 7997 7996 7995 ] final -155.24 input   59.86 | X-H torsion
[ 10167 10162 10161 10158 ] final   -8.97 input  -65.29 | X-H torsion
[ 10718 10713 10712 10709 ] final -121.26 input   66.30 | X-H torsion
[ 10763 10752 10751 10750 ] final   31.35 input  -60.55 | X-H torsion
[ 11005 11000 10999 10996 ] final   59.45 input  -57.11 | X-H torsion

> <Gold.Protein.ActiveResidues>
 VAL166  LYS551  ARG553  GLY616  TRP617  ASP618  TYR619  PRO620  LYS621  CYS622 
 ASP623  PHE694  ASN695  SER759  ASP760  ASP761  ALA762  ILE779  LEU786  VAL792 
 PHE793  MET794  SER795  GLU796  ALA797  LYS798  CYS799  TRP800  GLU811  SER814 

> <Gold.Protein.RotatedAtoms>
  150.7851  134.6828  159.6453 H   0  0  0  0  0  0  0  0  0  0  0  0  # atno 6907 bound_to 6896
  152.3945  134.6384  160.0103 H   0  0  0  0  0  0  0  0  0  0  0  0  # atno 6908 bound_to 6896
  151.6674  133.3278  159.3224 H   0  0  0  0  0  0  0  0  0  0  0  0  # atno 6909 bound_to 6896
  144.7466  139.8600  143.6380 H   0  0  0  0  0  0  0  0  0  0  0  0  # atno 7974 bound_to 7965
  155.6988  140.0764  157.2419 H   0  0  0  0  0  0  0  0  0  0  0  0  # atno 8008 bound_to 7997
  154.4076  140.1651  156.2220 H   0  0  0  0  0  0  0  0  0  0  0  0  # atno 8009 bound_to 7997
  155.9386  140.3386  155.6312 H   0  0  0  0  0  0  0  0  0  0  0  0  # atno 8010 bound_to 7997
  140.7074  143.5909  150.8895 H   0  0  0  0  0  0  0  0  0  0  0  0  # atno 10167 bound_to 10162
  156.1323  130.6404  150.9641 H   0  0  0  0  0  0  0  0  0  0  0  0  # atno 10718 bound_to 10713
  153.0321  135.6441  154.1185 H   0  0  0  0  0  0  0  0  0  0  0  0  # atno 10763 bound_to 10752
  154.0906  135.2866  155.3274 H   0  0  0  0  0  0  0  0  0  0  0  0  # atno 10764 bound_to 10752
  154.6467  135.5440  153.7917 H   0  0  0  0  0  0  0  0  0  0  0  0  # atno 10765 bound_to 10752
  140.0303  134.6022  155.9516 H   0  0  0  0  0  0  0  0  0  0  0  0  # atno 11005 bound_to 11000
  146.1355  139.4400  143.0142 LP  0  0  0  0  0  0  0  0  0  0  0  0  # atno 17320 bound_to 7965
  145.7098  141.0110  143.1459 LP  0  0  0  0  0  0  0  0  0  0  0  0  # atno 17321 bound_to 7965
  139.9634  143.6137  152.2995 LP  0  0  0  0  0  0  0  0  0  0  0  0  # atno 17342 bound_to 10162
  139.6698  144.7661  151.1804 LP  0  0  0  0  0  0  0  0  0  0  0  0  # atno 17343 bound_to 10162
  157.6499  131.0898  150.8072 LP  0  0  0  0  0  0  0  0  0  0  0  0  # atno 17370 bound_to 10713
  156.8156  130.4967  149.5350 LP  0  0  0  0  0  0  0  0  0  0  0  0  # atno 17371 bound_to 10713
  141.1827  133.6549  156.5086 LP  0  0  0  0  0  0  0  0  0  0  0  0  # atno 17394 bound_to 11000
  140.4237  134.7164  157.4904 LP  0  0  0  0  0  0  0  0  0  0  0  0  # atno 17395 bound_to 11000

$$$$
