AV-unprocessed.smi:176|AV-procd|sdf|1434|dock9
  -GOLD-   2262019213D 1   1.00000     0.00000
 Structure written by MMmdl.
 57 61  0  0  0  0  0  0  0  0  1 V2000
  143.0256  138.1719  154.0363 O   0  0  0  0  0  0  0  0  0  0  0  0
  143.2322  137.1187  153.1171 C   0  0  0  0  0  0  0  0  0  0  0  0
  144.7289  136.8055  152.9580 C   0  0  0  0  0  0  0  0  0  0  0  0
  144.8990  135.6173  151.9901 C   0  0  0  0  0  0  0  0  0  0  0  0
  144.3936  135.9204  150.7052 O   0  0  0  0  0  0  0  0  0  0  0  0
  145.6370  138.0231  152.6731 C   0  0  0  0  0  0  0  0  0  0  0  0
  146.6776  137.4677  153.6477 C   0  0  0  0  0  0  0  0  0  0  0  0
  147.4972  138.3456  154.4296 N   0  0  0  0  0  0  0  0  0  0  0  0
  148.6843  138.9274  154.0446 C   0  0  0  0  0  0  0  0  0  0  0  0
  149.2246  139.7251  154.9246 N   0  0  0  0  0  0  0  0  0  0  0  0
  148.3256  139.7182  155.9845 C   0  0  0  0  0  0  0  0  0  0  0  0
  148.2815  140.3703  157.2484 C   0  0  0  0  0  0  0  0  0  0  0  0
  149.2722  141.1900  157.6793 N   0  0  0  0  0  0  0  0  0  0  0  0
  148.8227  142.5146  158.1017 C   0  0  0  0  0  0  0  0  0  0  0  0
  149.8908  143.2081  158.9646 C   0  0  0  0  0  0  0  0  0  0  0  0
  151.2747  143.2362  158.2722 C   0  0  1  0  0  0  0  0  0  0  0  0
  151.1693  144.0947  157.1500 O   0  0  0  0  0  0  0  0  0  0  0  0
  152.3760  143.8462  159.1712 C   0  0  0  0  0  0  0  0  0  0  0  0
  152.8009  142.9135  160.3174 C   0  0  0  0  0  0  0  0  0  0  0  0
  153.2306  141.5419  159.7801 C   0  0  0  0  0  0  0  0  0  0  0  0
  152.1138  140.9030  158.9423 C   0  0  0  0  0  0  0  0  0  0  0  0
  151.6749  141.8178  157.7768 C   0  0  1  0  0  0  0  0  0  0  0  0
  150.5426  141.1668  156.9532 C   0  0  0  0  0  0  0  0  0  0  0  0
  147.1937  140.1440  158.0326 N   0  0  0  0  0  0  0  0  0  0  0  0
  146.2208  139.3278  157.6163 C   0  0  0  0  0  0  0  0  0  0  0  0
  146.1353  138.6469  156.4718 N   0  0  0  0  0  0  0  0  0  0  0  0
  147.2216  138.8736  155.6789 C   0  0  0  0  0  0  0  0  0  0  0  0
  145.5190  136.6929  154.2800 C   0  0  0  0  0  0  0  0  0  0  0  0
  143.4006  138.9614  153.6769 H   0  0  0  0  0  0  0  0  0  0  0  0
  142.6698  136.2445  153.4457 H   0  0  0  0  0  0  0  0  0  0  0  0
  142.7973  137.4204  152.1638 H   0  0  0  0  0  0  0  0  0  0  0  0
  145.9494  135.3480  151.8780 H   0  0  0  0  0  0  0  0  0  0  0  0
  144.3972  134.7241  152.3629 H   0  0  0  0  0  0  0  0  0  0  0  0
  144.3744  136.8598  150.6046 H   0  0  0  0  0  0  0  0  0  0  0  0
  145.9879  138.1104  151.6444 H   0  0  0  0  0  0  0  0  0  0  0  0
  145.2090  138.9664  153.0179 H   0  0  0  0  0  0  0  0  0  0  0  0
  147.3628  136.7903  153.1352 H   0  0  0  0  0  0  0  0  0  0  0  0
  149.1464  138.7360  153.0870 H   0  0  0  0  0  0  0  0  0  0  0  0
  148.6135  143.1115  157.2131 H   0  0  0  0  0  0  0  0  0  0  0  0
  147.8900  142.4592  158.6623 H   0  0  0  0  0  0  0  0  0  0  0  0
  149.5663  144.2204  159.2089 H   0  0  0  0  0  0  0  0  0  0  0  0
  149.9571  142.6783  159.9146 H   0  0  0  0  0  0  0  0  0  0  0  0
  150.2580  144.1642  156.9104 H   0  0  0  0  0  0  0  0  0  0  0  0
  153.2588  144.0625  158.5671 H   0  0  0  0  0  0  0  0  0  0  0  0
  152.0470  144.8041  159.5764 H   0  0  0  0  0  0  0  0  0  0  0  0
  153.6225  143.3653  160.8737 H   0  0  0  0  0  0  0  0  0  0  0  0
  151.9830  142.7926  161.0280 H   0  0  0  0  0  0  0  0  0  0  0  0
  154.1291  141.6511  159.1712 H   0  0  0  0  0  0  0  0  0  0  0  0
  153.4962  140.8848  160.6086 H   0  0  0  0  0  0  0  0  0  0  0  0
  152.4578  139.9450  158.5511 H   0  0  0  0  0  0  0  0  0  0  0  0
  151.2642  140.6776  159.5878 H   0  0  0  0  0  0  0  0  0  0  0  0
  152.5404  141.9186  157.1197 H   0  0  0  0  0  0  0  0  0  0  0  0
  150.8158  140.1408  156.7019 H   0  0  0  0  0  0  0  0  0  0  0  0
  150.4174  141.7001  156.0097 H   0  0  0  0  0  0  0  0  0  0  0  0
  145.3940  139.2003  158.2990 H   0  0  0  0  0  0  0  0  0  0  0  0
  145.0493  137.2379  155.1013 H   0  0  0  0  0  0  0  0  0  0  0  0
  145.7674  135.6745  154.5802 H   0  0  0  0  0  0  0  0  0  0  0  0
  1  2  1  0  0  0  0
  1 29  1  0  0  0  0
  2  3  1  0  0  0  0
  2 30  1  0  0  0  0
  2 31  1  0  0  0  0
  3 28  1  0  0  0  0
  3  4  1  0  0  0  0
  3  6  1  0  0  0  0
  4  5  1  0  0  0  0
  4 32  1  0  0  0  0
  4 33  1  0  0  0  0
  5 34  1  0  0  0  0
  6  7  1  0  0  0  0
  6 35  1  0  0  0  0
  6 36  1  0  0  0  0
  7  8  1  0  0  0  0
  7 28  1  0  0  0  0
  7 37  1  0  0  0  0
  8 27  1  0  0  0  0
  8  9  1  0  0  0  0
  9 10  2  0  0  0  0
  9 38  1  0  0  0  0
 10 11  1  0  0  0  0
 11 27  2  0  0  0  0
 11 12  1  0  0  0  0
 12 13  1  0  0  0  0
 12 24  2  0  0  0  0
 13 23  1  0  0  0  0
 13 14  1  0  0  0  0
 14 15  1  0  0  0  0
 14 39  1  0  0  0  0
 14 40  1  0  0  0  0
 15 16  1  0  0  0  0
 15 41  1  0  0  0  0
 15 42  1  0  0  0  0
 16 22  1  0  0  0  0
 16 17  1  0  0  0  0
 16 18  1  0  0  0  0
 17 43  1  0  0  0  0
 18 19  1  0  0  0  0
 18 44  1  0  0  0  0
 18 45  1  0  0  0  0
 19 20  1  0  0  0  0
 19 46  1  0  0  0  0
 19 47  1  0  0  0  0
 20 21  1  0  0  0  0
 20 48  1  0  0  0  0
 20 49  1  0  0  0  0
 21 22  1  0  0  0  0
 21 50  1  0  0  0  0
 21 51  1  0  0  0  0
 22 23  1  0  0  0  0
 22 52  1  0  0  0  0
 23 53  1  0  0  0  0
 23 54  1  0  0  0  0
 24 25  1  0  0  0  0
 25 26  2  0  0  0  0
 25 55  1  0  0  0  0
 26 27  1  0  0  0  0
 28 56  1  0  0  0  0
 28 57  1  0  0  0  0
M  END
> <s_m_source_file>
AV-unprocessed.smi

> <i_m_source_file_index>
176

> <i_lp_mmshare_version>
43012

> <i_f3d_flags>
0

> <s_epik_input>
W09IXVtDSDJdQzEoW0NIMl1bT0hdKVtDSDJdW0NIXShbQ0gyXTEpbihbY0hdbjIpYyhjMjMpbltjSF1uYzNOKFtDSDJdW0NIMl00KVtDSDJdW0NAQEhdKFtDQF00NVtPSF0pW0NIMl1bQ0gyXVtDSDJdW0NIMl01

> <s_epik_cmdline>
J2VwaWtfcHl0aG9uJywgJy1waCcsICc3LjAnLCAnLXRuJywgJzgnLCAnLW1hJywgJzIwMCcsICctbWV0YWxfYmluZGluZycsICctaW1hZScsICc8aW5maWxlLm1hZT4nLCAnLW9tYWUnLCAnPG91dGZpbGUubWFlPic=

> <r_lp_tautomer_probability>
1

> <r_epik_Ionization_Penalty>
0.00642876

> <r_epik_Ionization_Penalty_Charging>
0

> <r_epik_Ionization_Penalty_Neutral>
0.00642876

> <r_epik_State_Penalty>
0.00467813

> <r_epik_Charging_Adjusted_Penalty>
0.00467813

> <i_epik_Tot_Q>
0

> <i_epik_Tot_abs_Q>
0

> <r_epik_Metal_State_Penalty>
-0

> <b_epik_Metal_Only>
0

> <s_lp_Force_Field>
OPLS_2005

> <r_lp_Energy>
50.7593

> <b_lp_Chiralities_Consistent>
1

> <s_lp_Variant>
AV-unprocessed.smi:176-2

> <Gold.Version>
5.8.1

> <Gold.Id.Protein>
6NUR|6NUR_protein|mol2

> <Gold.PLP.Fitness>
50.0351

> <Gold.PLP.PLP>
-37.2685

> <Gold.PLP.part.hbond>
-3.8622

> <Gold.PLP.part.metal>
0.0000

> <Gold.PLP.part.buried>
-5.3290

> <Gold.PLP.part.nonpolar>
-29.2298

> <Gold.PLP.part.repulsive>
0.1311

> <Gold.PLP.ligand.clash>
0.0000

> <Gold.PLP.ligand.torsion>
0.8739

> <Gold.PLP.Chemscore.Hbond>
3.0000

> <Gold.PLP.Chemscore.CHOScore>
1.5446

> <Gold.PLP.Chemscore.Metal>
0.0000

> <Gold.Chemscore.Hbonds>
donor molecule, donor type, donor heavy atom, donor atom, acceptor molecule, acceptor atom, score
      L1  H     1    29       P1 10175  1.00
      L1  H     5    34       P1 10171  1.00
      L1  H    17    43       P1  8028  0.99
      L1  C     9    38       P1  7948  0.36
      L1  C     9    38       P1  7957  1.00

> <Gold.PLP.Chemscore.Internal.Correction>
0.8806

> <Gold.Rescore>
     Score         DG    S(hbond)    S(metal)    S(lipo)     H(rot)  DE(clash)    DE(int)     intcor
     13.53     -17.33       2.94        0.00      98.48       3.71       0.51       3.30       ----

> <Gold.Chemscore.Fitness>
13.5278

> <Gold.Chemscore.DG>
-17.3338

> <Gold.Chemscore.ZeroCoef>
-5.4800

> <Gold.Chemscore.Hbond>
2.9435

> <Gold.Chemscore.Metal>
0.0000

> <Gold.Chemscore.Lipo>
98.4840

> <Gold.Chemscore.Internal_Hbond>
0.0000

> <Gold.Chemscore.DEClash>
0.5089

> <Gold.Chemscore.DEInternal>
3.2971

> <Gold.Chemscore.Rot>
3.7109

> <Gold.Chemscore.Internal.Correction>
   9.000000E+99

> <Gold.Chemscore.Hbonds>
donor molecule, donor type, donor heavy atom, donor atom, acceptor molecule, acceptor atom, score
      L1  H     1    29       P1 10175  0.99
      L1  H     5    34       P1 10171  0.97
      L1  H    17    43       P1  8028  0.90

> <Gold.Chemscore.Hbond.Weighted>
-9.8311

> <Gold.Chemscore.Metal.Weighted>
-0.0000

> <Gold.Chemscore.Lipo.Weighted>
-11.5226

> <Gold.Chemscore.Internal_Hbond.Weighted>
0.0000

> <Gold.Chemscore.DEClash.Weighted>
0.5089

> <Gold.Chemscore.DEInternal.Weighted>
3.2971

> <Gold.Chemscore.Rot.Weighted>
9.5000

> <Gold.Chemscore.Internal.Correction.Weighted>
   9.000000E+99

> <Gold.Protein.RotatedTorsions>
[ 6907 6896 6895 6894 ] final   45.16 input  -60.11 | X-H torsion
[ 7974 7965 7964 7962 ] final   92.72 input  175.53 | X-H torsion
[ 8008 7997 7996 7995 ] final -125.96 input   59.86 | X-H torsion
[ 10167 10162 10161 10158 ] final -139.71 input  -65.29 | X-H torsion
[ 10718 10713 10712 10709 ] final  -44.04 input   66.30 | X-H torsion
[ 10763 10752 10751 10750 ] final  106.28 input  -60.55 | X-H torsion
[ 11005 11000 10999 10996 ] final  177.31 input  -57.11 | X-H torsion

> <Gold.Protein.ActiveResidues>
 VAL166  LYS551  ARG553  GLY616  TRP617  ASP618  TYR619  PRO620  LYS621  CYS622 
 ASP623  PHE694  ASN695  SER759  ASP760  ASP761  ALA762  ILE779  LEU786  VAL792 
 PHE793  MET794  SER795  GLU796  ALA797  LYS798  CYS799  TRP800  GLU811  SER814 

> <Gold.Protein.RotatedAtoms>
  152.2412  134.8226  160.0459 H   0  0  0  0  0  0  0  0  0  0  0  0  # atno 6907 bound_to 6896
  151.8940  133.3517  159.3816 H   0  0  0  0  0  0  0  0  0  0  0  0  # atno 6908 bound_to 6896
  150.7054  134.4821  159.5519 H   0  0  0  0  0  0  0  0  0  0  0  0  # atno 6909 bound_to 6896
  145.4885  139.2277  143.2843 H   0  0  0  0  0  0  0  0  0  0  0  0  # atno 7974 bound_to 7965
  155.2218  140.0422  157.2949 H   0  0  0  0  0  0  0  0  0  0  0  0  # atno 8008 bound_to 7997
  154.5945  140.2435  155.7847 H   0  0  0  0  0  0  0  0  0  0  0  0  # atno 8009 bound_to 7997
  156.2281  140.2948  156.0126 H   0  0  0  0  0  0  0  0  0  0  0  0  # atno 8010 bound_to 7997
  139.8353  143.7393  152.2665 H   0  0  0  0  0  0  0  0  0  0  0  0  # atno 10167 bound_to 10162
  156.2427  130.4181  149.8742 H   0  0  0  0  0  0  0  0  0  0  0  0  # atno 10718 bound_to 10713
  153.3908  135.3882  155.1922 H   0  0  0  0  0  0  0  0  0  0  0  0  # atno 10763 bound_to 10752
  154.8719  135.3748  154.4740 H   0  0  0  0  0  0  0  0  0  0  0  0  # atno 10764 bound_to 10752
  153.5226  135.7086  153.5785 H   0  0  0  0  0  0  0  0  0  0  0  0  # atno 10765 bound_to 10752
  140.3827  134.6932  157.4460 H   0  0  0  0  0  0  0  0  0  0  0  0  # atno 11005 bound_to 11000
  146.2298  140.5678  142.8980 LP  0  0  0  0  0  0  0  0  0  0  0  0  # atno 17320 bound_to 7965
  144.7847  140.5912  143.6582 LP  0  0  0  0  0  0  0  0  0  0  0  0  # atno 17321 bound_to 7965
  139.7613  144.7505  151.0359 LP  0  0  0  0  0  0  0  0  0  0  0  0  # atno 17342 bound_to 10162
  140.7803  143.4747  151.0098 LP  0  0  0  0  0  0  0  0  0  0  0  0  # atno 17343 bound_to 10162
  156.6318  130.8668  151.3496 LP  0  0  0  0  0  0  0  0  0  0  0  0  # atno 17370 bound_to 10713
  157.7182  130.9524  150.1335 LP  0  0  0  0  0  0  0  0  0  0  0  0  # atno 17371 bound_to 10713
  140.0466  134.6190  155.8913 LP  0  0  0  0  0  0  0  0  0  0  0  0  # atno 17394 bound_to 11000
  141.1918  133.6573  156.5473 LP  0  0  0  0  0  0  0  0  0  0  0  0  # atno 17395 bound_to 11000

$$$$
