AV-unprocessed.smi:1517|AV-procd|sdf|6123|dock6
  -GOLD-   22720 6263D 1   1.00000     0.00000
 Structure written by MMmdl.
 41 43  0  0  0  0  0  0  0  0  1 V2000
  152.9082  136.7218  159.4672 O   0  0  0  0  0  0  0  0  0  0  0  0
  152.0354  137.7141  158.9741 C   0  0  0  0  0  0  0  0  0  0  0  0
  152.5439  138.2184  157.6181 C   0  0  0  0  0  0  0  0  0  0  0  0
  151.8909  139.4518  157.2218 N   0  0  0  0  0  0  0  0  0  0  0  0
  151.9250  140.7380  157.7475 C   0  0  0  0  0  0  0  0  0  0  0  0
  152.6410  141.0844  158.8158 N   0  0  0  0  0  0  0  0  0  0  0  0
  152.3567  142.4316  158.9356 C   0  0  0  0  0  0  0  0  0  0  0  0
  152.8072  143.3845  159.8772 C   0  0  0  0  0  0  0  0  0  0  0  0
  152.3746  144.7247  159.7997 C   0  0  0  0  0  0  0  0  0  0  0  0
  151.4881  145.1314  158.7812 C   0  0  0  0  0  0  0  0  0  0  0  0
  151.0264  144.1986  157.8326 C   0  0  0  0  0  0  0  0  0  0  0  0
  151.4595  142.8617  157.9150 C   0  0  0  0  0  0  0  0  0  0  0  0
  151.1994  141.7208  157.1621 N   0  0  0  0  0  0  0  0  0  0  0  0
  150.3243  141.6383  155.9992 C   0  0  0  0  0  0  0  0  0  0  0  0
  148.8964  141.1847  156.3596 C   0  0  1  0  0  0  0  0  0  0  0  0
  148.1538  142.2797  156.8626 O   0  0  0  0  0  0  0  0  0  0  0  0
  148.2179  140.5183  155.1696 C   0  0  0  0  0  0  0  0  0  0  0  0
  148.4451  139.1522  154.8866 C   0  0  0  0  0  0  0  0  0  0  0  0
  147.8084  138.5359  153.7921 C   0  0  0  0  0  0  0  0  0  0  0  0
  146.9360  139.2792  152.9751 C   0  0  0  0  0  0  0  0  0  0  0  0
  146.3228  138.6865  151.9233 F   0  0  0  0  0  0  0  0  0  0  0  0
  146.6987  140.6382  153.2551 C   0  0  0  0  0  0  0  0  0  0  0  0
  147.3343  141.2566  154.3499 C   0  0  0  0  0  0  0  0  0  0  0  0
  147.0854  142.5625  154.6118 F   0  0  0  0  0  0  0  0  0  0  0  0
  153.4449  136.4133  158.7533 H   0  0  0  0  0  0  0  0  0  0  0  0
  151.0351  137.2907  158.8784 H   0  0  0  0  0  0  0  0  0  0  0  0
  151.9797  138.5290  159.6964 H   0  0  0  0  0  0  0  0  0  0  0  0
  153.6207  138.3866  157.6557 H   0  0  0  0  0  0  0  0  0  0  0  0
  152.3646  137.4699  156.8459 H   0  0  0  0  0  0  0  0  0  0  0  0
  151.3056  139.3522  156.4049 H   0  0  0  0  0  0  0  0  0  0  0  0
  153.4869  143.0837  160.6608 H   0  0  0  0  0  0  0  0  0  0  0  0
  152.7249  145.4441  160.5252 H   0  0  0  0  0  0  0  0  0  0  0  0
  151.1625  146.1601  158.7293 H   0  0  0  0  0  0  0  0  0  0  0  0
  150.3475  144.5070  157.0514 H   0  0  0  0  0  0  0  0  0  0  0  0
  150.3073  142.6001  155.4856 H   0  0  0  0  0  0  0  0  0  0  0  0
  150.7688  140.9319  155.2970 H   0  0  0  0  0  0  0  0  0  0  0  0
  148.9539  140.4608  157.1733 H   0  0  0  0  0  0  0  0  0  0  0  0
  148.5278  143.0779  156.5217 H   0  0  0  0  0  0  0  0  0  0  0  0
  149.1065  138.5681  155.5101 H   0  0  0  0  0  0  0  0  0  0  0  0
  147.9875  137.4916  153.5813 H   0  0  0  0  0  0  0  0  0  0  0  0
  146.0258  141.2074  152.6308 H   0  0  0  0  0  0  0  0  0  0  0  0
  1  2  1  0  0  0  0
  1 25  1  0  0  0  0
  2  3  1  0  0  0  0
  2 26  1  0  0  0  0
  2 27  1  0  0  0  0
  3  4  1  0  0  0  0
  3 28  1  0  0  0  0
  3 29  1  0  0  0  0
  4  5  1  0  0  0  0
  4 30  1  0  0  0  0
  5 13  1  0  0  0  0
  5  6  2  0  0  0  0
  6  7  1  0  0  0  0
  7 12  2  0  0  0  0
  7  8  1  0  0  0  0
  8  9  2  0  0  0  0
  8 31  1  0  0  0  0
  9 10  1  0  0  0  0
  9 32  1  0  0  0  0
 10 11  2  0  0  0  0
 10 33  1  0  0  0  0
 11 12  1  0  0  0  0
 11 34  1  0  0  0  0
 12 13  1  0  0  0  0
 13 14  1  0  0  0  0
 14 15  1  0  0  0  0
 14 35  1  0  0  0  0
 14 36  1  0  0  0  0
 15 16  1  0  0  0  0
 15 17  1  0  0  0  0
 15 37  1  0  0  0  0
 16 38  1  0  0  0  0
 17 23  1  0  0  0  0
 17 18  2  0  0  0  0
 18 19  1  0  0  0  0
 18 39  1  0  0  0  0
 19 20  2  0  0  0  0
 19 40  1  0  0  0  0
 20 21  1  0  0  0  0
 20 22  1  0  0  0  0
 22 23  2  0  0  0  0
 22 41  1  0  0  0  0
 23 24  1  0  0  0  0
M  END
> <s_m_source_file>
AV-unprocessed.smi

> <i_m_source_file_index>
1517

> <i_lp_mmshare_version>
43012

> <i_f3d_flags>
0

> <s_epik_input>
W09IXVtDSDJdW0NIMl1bTkhdYyhuMSluKGMoYzEyKVtjSF1bY0hdW2NIXVtjSF0yKVtDSDJdW0NASF0oW09IXSljM1tjSF1bY0hdYyhGKVtjSF1jM0Y=

> <s_epik_cmdline>
J2VwaWtfcHl0aG9uJywgJy1waCcsICc3LjAnLCAnLXRuJywgJzgnLCAnLW1hJywgJzIwMCcsICctbWV0YWxfYmluZGluZycsICctaW1hZScsICc8aW5maWxlLm1hZT4nLCAnLW9tYWUnLCAnPG91dGZpbGUubWFlPic=

> <r_epik_Ionization_Penalty>
1.30972

> <r_epik_Ionization_Penalty_Charging>
0

> <r_epik_Ionization_Penalty_Neutral>
1.30972

> <r_epik_State_Penalty>
1.38438

> <r_epik_Charging_Adjusted_Penalty>
1.38438

> <i_epik_Tot_Q>
0

> <i_epik_Tot_abs_Q>
0

> <r_epik_Metal_State_Penalty>
0.00551145

> <b_epik_Metal_Only>
0

> <s_lp_Force_Field>
OPLS_2005

> <r_lp_Energy>
6.47828

> <b_lp_Chiralities_Consistent>
1

> <s_lp_Variant>
AV-unprocessed.smi:1517-4

> <Gold.Version>
5.8.1

> <Gold.Id.Protein>
6NUR|6NUR_protein|mol2

> <Gold.PLP.Fitness>
49.7015

> <Gold.PLP.PLP>
-46.3294

> <Gold.PLP.part.hbond>
-2.0000

> <Gold.PLP.part.metal>
0.0000

> <Gold.PLP.part.buried>
-0.8983

> <Gold.PLP.part.nonpolar>
-45.2235

> <Gold.PLP.part.repulsive>
0.0715

> <Gold.PLP.ligand.clash>
0.0000

> <Gold.PLP.ligand.torsion>
1.3489

> <Gold.PLP.Chemscore.Hbond>
2.0000

> <Gold.PLP.Chemscore.CHOScore>
0.0000

> <Gold.PLP.Chemscore.Metal>
0.0000

> <Gold.Chemscore.Hbonds>
donor molecule, donor type, donor heavy atom, donor atom, acceptor molecule, acceptor atom, score
      L1  H    16    38       P1  8028  1.00
      P1  H  6896  6908       L1     1  0.89

> <Gold.PLP.Chemscore.Internal.Correction>
0.0700

> <Gold.Rescore>
     Score         DG    S(hbond)    S(metal)    S(lipo)     H(rot)  DE(clash)    DE(int)     intcor
     14.38     -18.33       1.81        0.00     128.71       3.22       0.70       3.25       ----

> <Gold.Chemscore.Fitness>
14.3821

> <Gold.Chemscore.DG>
-18.3273

> <Gold.Chemscore.ZeroCoef>
-5.4800

> <Gold.Chemscore.Hbond>
1.8053

> <Gold.Chemscore.Metal>
0.0000

> <Gold.Chemscore.Lipo>
128.7098

> <Gold.Chemscore.Internal_Hbond>
0.0000

> <Gold.Chemscore.DEClash>
0.6999

> <Gold.Chemscore.DEInternal>
3.2454

> <Gold.Chemscore.Rot>
3.2194

> <Gold.Chemscore.Internal.Correction>
   9.000000E+99

> <Gold.Chemscore.Hbonds>
donor molecule, donor type, donor heavy atom, donor atom, acceptor molecule, acceptor atom, score
      L1  H    16    38       P1  8028  0.78
      P1  H  6896  6908       L1     1  0.25

> <Gold.Chemscore.Hbond.Weighted>
-6.0299

> <Gold.Chemscore.Metal.Weighted>
-0.0000

> <Gold.Chemscore.Lipo.Weighted>
-15.0590

> <Gold.Chemscore.Internal_Hbond.Weighted>
0.0000

> <Gold.Chemscore.DEClash.Weighted>
0.6999

> <Gold.Chemscore.DEInternal.Weighted>
3.2454

> <Gold.Chemscore.Rot.Weighted>
8.2416

> <Gold.Chemscore.Internal.Correction.Weighted>
   9.000000E+99

> <Gold.Protein.RotatedTorsions>
[ 6907 6896 6895 6894 ] final -113.36 input  -60.11 | X-H torsion
[ 7974 7965 7964 7962 ] final  -60.82 input  175.53 | X-H torsion
[ 8008 7997 7996 7995 ] final -102.37 input   59.86 | X-H torsion
[ 10167 10162 10161 10158 ] final  -12.45 input  -65.29 | X-H torsion
[ 10718 10713 10712 10709 ] final  -38.97 input   66.30 | X-H torsion
[ 10763 10752 10751 10750 ] final   34.45 input  -60.55 | X-H torsion
[ 11005 11000 10999 10996 ] final   84.66 input  -57.11 | X-H torsion

> <Gold.Protein.ActiveResidues>
 VAL166  LYS551  ARG553  GLY616  TRP617  ASP618  TYR619  PRO620  LYS621  CYS622 
 ASP623  PHE694  ASN695  SER759  ASP760  ASP761  ALA762  ILE779  LEU786  VAL792 
 PHE793  MET794  SER795  GLU796  ALA797  LYS798  CYS799  TRP800  GLU811  SER814 

> <Gold.Protein.RotatedAtoms>
  150.7823  133.8956  159.3325 H   0  0  0  0  0  0  0  0  0  0  0  0  # atno 6907 bound_to 6896
  151.6816  135.0959  160.0226 H   0  0  0  0  0  0  0  0  0  0  0  0  # atno 6908 bound_to 6896
  152.3878  133.6597  159.6248 H   0  0  0  0  0  0  0  0  0  0  0  0  # atno 6909 bound_to 6896
  145.8110  140.8599  143.0182 H   0  0  0  0  0  0  0  0  0  0  0  0  # atno 7974 bound_to 7965
  154.8557  140.0429  157.1633 H   0  0  0  0  0  0  0  0  0  0  0  0  # atno 8008 bound_to 7997
  154.8895  140.2984  155.5358 H   0  0  0  0  0  0  0  0  0  0  0  0  # atno 8009 bound_to 7997
  156.2997  140.2396  156.3908 H   0  0  0  0  0  0  0  0  0  0  0  0  # atno 8010 bound_to 7997
  140.7161  143.5531  150.9279 H   0  0  0  0  0  0  0  0  0  0  0  0  # atno 10167 bound_to 10162
  156.2977  130.4236  149.8175 H   0  0  0  0  0  0  0  0  0  0  0  0  # atno 10718 bound_to 10713
  153.0163  135.6360  154.1671 H   0  0  0  0  0  0  0  0  0  0  0  0  # atno 10763 bound_to 10752
  154.1410  135.2834  155.3162 H   0  0  0  0  0  0  0  0  0  0  0  0  # atno 10764 bound_to 10752
  154.6125  135.5552  153.7549 H   0  0  0  0  0  0  0  0  0  0  0  0  # atno 10765 bound_to 10752
  139.8994  134.8232  156.2475 H   0  0  0  0  0  0  0  0  0  0  0  0  # atno 11005 bound_to 11000
  144.6757  140.0395  143.7481 LP  0  0  0  0  0  0  0  0  0  0  0  0  # atno 17320 bound_to 7965
  145.9778  139.2918  143.1060 LP  0  0  0  0  0  0  0  0  0  0  0  0  # atno 17321 bound_to 7965
  139.9255  143.6555  152.3088 LP  0  0  0  0  0  0  0  0  0  0  0  0  # atno 17342 bound_to 10162
  139.6987  144.7638  151.1311 LP  0  0  0  0  0  0  0  0  0  0  0  0  # atno 17343 bound_to 10162
  156.5564  130.8364  151.3315 LP  0  0  0  0  0  0  0  0  0  0  0  0  # atno 17370 bound_to 10713
  157.7359  130.9771  150.2110 LP  0  0  0  0  0  0  0  0  0  0  0  0  # atno 17371 bound_to 10713
  141.0245  133.7022  156.1325 LP  0  0  0  0  0  0  0  0  0  0  0  0  # atno 17394 bound_to 11000
  140.7186  134.4384  157.5576 LP  0  0  0  0  0  0  0  0  0  0  0  0  # atno 17395 bound_to 11000

$$$$
