AV-unprocessed.smi:517|AV-procd|sdf|2789|dock2
  -GOLD-   2262023263D 1   1.00000     0.00000
 Structure written by MMmdl.
 35 36  0  0  0  0  0  0  0  0  1 V2000
  151.1336  134.6287  155.8218 C   0  0  0  0  0  0  0  0  0  0  0  0
  150.6264  136.0718  155.7786 C   0  0  0  0  0  0  0  0  0  0  0  0
  151.6585  136.9132  155.2925 O   0  0  0  0  0  0  0  0  0  0  0  0
  151.2712  138.2763  155.2373 C   0  0  0  0  0  0  0  0  0  0  0  0
  151.1027  138.8410  156.6548 C   0  0  0  0  0  0  0  0  0  0  0  0
  150.9349  140.2888  156.6624 N   0  0  0  0  0  0  0  0  0  0  0  0
  150.1648  141.0733  155.8600 C   0  0  0  0  0  0  0  0  0  0  0  0
  149.2874  140.5294  154.7636 C   0  0  1  0  0  0  0  0  0  0  0  0
  147.8428  141.0376  154.8747 C   0  0  0  0  0  0  0  0  0  0  0  0
  149.7804  140.8587  153.4816 O   0  0  0  0  0  0  0  0  0  0  0  0
  150.2535  142.3863  156.0868 N   0  0  0  0  0  0  0  0  0  0  0  0
  151.1295  142.4592  157.1500 C   0  0  0  0  0  0  0  0  0  0  0  0
  151.6183  143.5780  157.8620 C   0  0  0  0  0  0  0  0  0  0  0  0
  152.5191  143.4042  158.9329 C   0  0  0  0  0  0  0  0  0  0  0  0
  152.9442  142.1124  159.3048 C   0  0  0  0  0  0  0  0  0  0  0  0
  152.4713  140.9850  158.6060 C   0  0  0  0  0  0  0  0  0  0  0  0
  151.5713  141.1638  157.5379 C   0  0  0  0  0  0  0  0  0  0  0  0
  150.3717  133.9602  156.2229 H   0  0  0  0  0  0  0  0  0  0  0  0
  152.0195  134.5432  156.4514 H   0  0  0  0  0  0  0  0  0  0  0  0
  151.3940  134.2751  154.8241 H   0  0  0  0  0  0  0  0  0  0  0  0
  149.7493  136.1370  155.1334 H   0  0  0  0  0  0  0  0  0  0  0  0
  150.3260  136.3896  156.7780 H   0  0  0  0  0  0  0  0  0  0  0  0
  152.0227  138.8521  154.6950 H   0  0  0  0  0  0  0  0  0  0  0  0
  150.3309  138.3756  154.6931 H   0  0  0  0  0  0  0  0  0  0  0  0
  150.2235  138.3930  157.1192 H   0  0  0  0  0  0  0  0  0  0  0  0
  151.9391  138.5586  157.2924 H   0  0  0  0  0  0  0  0  0  0  0  0
  149.2514  139.4440  154.8124 H   0  0  0  0  0  0  0  0  0  0  0  0
  147.4122  140.7817  155.8419 H   0  0  0  0  0  0  0  0  0  0  0  0
  147.2096  140.5965  154.1044 H   0  0  0  0  0  0  0  0  0  0  0  0
  147.7901  142.1217  154.7670 H   0  0  0  0  0  0  0  0  0  0  0  0
  149.4526  140.2235  152.8638 H   0  0  0  0  0  0  0  0  0  0  0  0
  151.2981  144.5714  157.5844 H   0  0  0  0  0  0  0  0  0  0  0  0
  152.8851  144.2660  159.4716 H   0  0  0  0  0  0  0  0  0  0  0  0
  153.6340  141.9878  160.1266 H   0  0  0  0  0  0  0  0  0  0  0  0
  152.7953  139.9950  158.8898 H   0  0  0  0  0  0  0  0  0  0  0  0
  1  2  1  0  0  0  0
  1 18  1  0  0  0  0
  1 19  1  0  0  0  0
  1 20  1  0  0  0  0
  2  3  1  0  0  0  0
  2 21  1  0  0  0  0
  2 22  1  0  0  0  0
  3  4  1  0  0  0  0
  4  5  1  0  0  0  0
  4 23  1  0  0  0  0
  4 24  1  0  0  0  0
  5  6  1  0  0  0  0
  5 25  1  0  0  0  0
  5 26  1  0  0  0  0
  6 17  1  0  0  0  0
  6  7  1  0  0  0  0
  7  8  1  0  0  0  0
  7 11  2  0  0  0  0
  8  9  1  0  0  0  0
  8 10  1  0  0  0  0
  8 27  1  0  0  0  0
  9 28  1  0  0  0  0
  9 29  1  0  0  0  0
  9 30  1  0  0  0  0
 10 31  1  0  0  0  0
 11 12  1  0  0  0  0
 12 17  2  0  0  0  0
 12 13  1  0  0  0  0
 13 14  2  0  0  0  0
 13 32  1  0  0  0  0
 14 15  1  0  0  0  0
 14 33  1  0  0  0  0
 15 16  2  0  0  0  0
 15 34  1  0  0  0  0
 16 17  1  0  0  0  0
 16 35  1  0  0  0  0
M  END
> <s_m_source_file>
AV-unprocessed.smi

> <i_m_source_file_index>
517

> <i_lp_mmshare_version>
43012

> <i_f3d_flags>
0

> <s_epik_input>
W0NIM11bQ0gyXU9bQ0gyXVtDSDJdbihjKG4xKVtDQEhdKFtDSDNdKVtPSF0pYyhjMTIpW2NIXVtjSF1bY0hdW2NIXTI=

> <s_epik_cmdline>
J2VwaWtfcHl0aG9uJywgJy1waCcsICc3LjAnLCAnLXRuJywgJzgnLCAnLW1hJywgJzIwMCcsICctbWV0YWxfYmluZGluZycsICctaW1hZScsICc8aW5maWxlLm1hZT4nLCAnLW9tYWUnLCAnPG91dGZpbGUubWFlPic=

> <r_epik_Ionization_Penalty>
0.0517997

> <r_epik_Ionization_Penalty_Charging>
0

> <r_epik_Ionization_Penalty_Neutral>
0.0517997

> <r_epik_State_Penalty>
0.0443961

> <r_epik_Charging_Adjusted_Penalty>
0.0443961

> <i_epik_Tot_Q>
0

> <i_epik_Tot_abs_Q>
0

> <r_epik_Metal_State_Penalty>
4.60999e-05

> <b_epik_Metal_Only>
0

> <s_lp_Force_Field>
OPLS_2005

> <r_lp_Energy>
6.29619

> <b_lp_Chiralities_Consistent>
1

> <s_lp_Variant>
AV-unprocessed.smi:517-2

> <Gold.Version>
5.8.1

> <Gold.Id.Protein>
6NUR|6NUR_protein|mol2

> <Gold.PLP.Fitness>
40.8186

> <Gold.PLP.PLP>
-32.6076

> <Gold.PLP.part.hbond>
-3.3547

> <Gold.PLP.part.metal>
0.0000

> <Gold.PLP.part.buried>
-4.2874

> <Gold.PLP.part.nonpolar>
-27.1290

> <Gold.PLP.part.repulsive>
2.5997

> <Gold.PLP.ligand.clash>
0.0000

> <Gold.PLP.ligand.torsion>
0.3774

> <Gold.PLP.Chemscore.Hbond>
2.9760

> <Gold.PLP.Chemscore.CHOScore>
0.0000

> <Gold.PLP.Chemscore.Metal>
0.0000

> <Gold.Chemscore.Hbonds>
donor molecule, donor type, donor heavy atom, donor atom, acceptor molecule, acceptor atom, score
      L1  H    10    31       P1  7957  0.66
      P1  H  7989  7998       L1    10  0.32
      P1  H  8011  8017       L1    10  0.95
      P1  H 10752 10764       L1     3  1.00

> <Gold.PLP.Chemscore.Internal.Correction>
0.0377

> <Gold.Rescore>
     Score         DG    S(hbond)    S(metal)    S(lipo)     H(rot)  DE(clash)    DE(int)     intcor
     15.36     -17.54       2.11        0.00      88.86       2.11       0.95       1.23       ----

> <Gold.Chemscore.Fitness>
15.3609

> <Gold.Chemscore.DG>
-17.5436

> <Gold.Chemscore.ZeroCoef>
-5.4800

> <Gold.Chemscore.Hbond>
2.1129

> <Gold.Chemscore.Metal>
0.0000

> <Gold.Chemscore.Lipo>
88.8556

> <Gold.Chemscore.Internal_Hbond>
0.0000

> <Gold.Chemscore.DEClash>
0.9496

> <Gold.Chemscore.DEInternal>
1.2331

> <Gold.Chemscore.Rot>
2.1052

> <Gold.Chemscore.Internal.Correction>
   9.000000E+99

> <Gold.Chemscore.Hbonds>
donor molecule, donor type, donor heavy atom, donor atom, acceptor molecule, acceptor atom, score
      L1  H    10    31       P1  7957  0.66
      P1  H  7989  7998       L1    10  0.21
      P1  H  8011  8017       L1    10  0.21
      P1  H 10752 10764       L1     3  0.34

> <Gold.Chemscore.Hbond.Weighted>
-7.0570

> <Gold.Chemscore.Metal.Weighted>
-0.0000

> <Gold.Chemscore.Lipo.Weighted>
-10.3961

> <Gold.Chemscore.Internal_Hbond.Weighted>
0.0000

> <Gold.Chemscore.DEClash.Weighted>
0.9496

> <Gold.Chemscore.DEInternal.Weighted>
1.2331

> <Gold.Chemscore.Rot.Weighted>
5.3894

> <Gold.Chemscore.Internal.Correction.Weighted>
   9.000000E+99

> <Gold.Protein.RotatedTorsions>
[ 6907 6896 6895 6894 ] final -152.49 input  -60.11 | X-H torsion
[ 7974 7965 7964 7962 ] final  177.75 input  175.53 | X-H torsion
[ 8008 7997 7996 7995 ] final -174.60 input   59.86 | X-H torsion
[ 10167 10162 10161 10158 ] final   19.36 input  -65.29 | X-H torsion
[ 10718 10713 10712 10709 ] final  -13.67 input   66.30 | X-H torsion
[ 10763 10752 10751 10750 ] final  -60.65 input  -60.55 | X-H torsion
[ 11005 11000 10999 10996 ] final  154.66 input  -57.11 | X-H torsion

> <Gold.Protein.ActiveResidues>
 VAL166  LYS551  ARG553  GLY616  TRP617  ASP618  TYR619  PRO620  LYS621  CYS622 
 ASP623  PHE694  ASN695  SER759  ASP760  ASP761  ALA762  ILE779  LEU786  VAL792 
 PHE793  MET794  SER795  GLU796  ALA797  LYS798  CYS799  TRP800  GLU811  SER814 

> <Gold.Protein.RotatedAtoms>
  151.2285  133.4463  159.2602 H   0  0  0  0  0  0  0  0  0  0  0  0  # atno 6907 bound_to 6896
  151.0817  134.9862  159.8369 H   0  0  0  0  0  0  0  0  0  0  0  0  # atno 6908 bound_to 6896
  152.5425  134.2224  159.8846 H   0  0  0  0  0  0  0  0  0  0  0  0  # atno 6909 bound_to 6896
  144.7165  140.0293  143.6439 H   0  0  0  0  0  0  0  0  0  0  0  0  # atno 7974 bound_to 7965
  155.9722  140.1165  157.0802 H   0  0  0  0  0  0  0  0  0  0  0  0  # atno 8008 bound_to 7997
  154.4159  140.1161  156.5389 H   0  0  0  0  0  0  0  0  0  0  0  0  # atno 8009 bound_to 7997
  155.6582  140.3473  155.4775 H   0  0  0  0  0  0  0  0  0  0  0  0  # atno 8010 bound_to 7997
  140.5584  143.9381  150.6625 H   0  0  0  0  0  0  0  0  0  0  0  0  # atno 10167 bound_to 10162
  156.6270  130.4891  149.6143 H   0  0  0  0  0  0  0  0  0  0  0  0  # atno 10718 bound_to 10713
  154.2725  135.6287  153.5316 H   0  0  0  0  0  0  0  0  0  0  0  0  # atno 10763 bound_to 10752
  152.9878  135.5613  154.5584 H   0  0  0  0  0  0  0  0  0  0  0  0  # atno 10764 bound_to 10752
  154.5157  135.2879  155.1280 H   0  0  0  0  0  0  0  0  0  0  0  0  # atno 10765 bound_to 10752
  140.1509  134.8675  157.2454 H   0  0  0  0  0  0  0  0  0  0  0  0  # atno 11005 bound_to 11000
  146.0115  139.3174  143.0867 LP  0  0  0  0  0  0  0  0  0  0  0  0  # atno 17320 bound_to 7965
  145.8676  140.9439  143.0667 LP  0  0  0  0  0  0  0  0  0  0  0  0  # atno 17321 bound_to 7965
  140.2826  143.3379  152.1137 LP  0  0  0  0  0  0  0  0  0  0  0  0  # atno 17342 bound_to 10162
  139.5059  144.6803  151.6025 LP  0  0  0  0  0  0  0  0  0  0  0  0  # atno 17343 bound_to 10162
  156.2265  130.6769  151.1421 LP  0  0  0  0  0  0  0  0  0  0  0  0  # atno 17370 bound_to 10713
  157.7211  131.0681  150.6131 LP  0  0  0  0  0  0  0  0  0  0  0  0  # atno 17371 bound_to 10713
  140.2605  134.3576  155.7408 LP  0  0  0  0  0  0  0  0  0  0  0  0  # atno 17394 bound_to 11000
  141.2199  133.7367  156.9073 LP  0  0  0  0  0  0  0  0  0  0  0  0  # atno 17395 bound_to 11000

$$$$
