AV-unprocessed.smi:99|AV-procd|sdf|870|dock9
  -GOLD-   2262017333D 1   1.00000     0.00000
 Structure written by MMmdl.
 53 56  0  0  0  0  0  0  0  0  1 V2000
  152.1650  139.4063  157.3574 O   0  0  0  0  0  0  0  0  0  0  0  0
  151.3081  140.0464  157.9704 C   0  0  0  0  0  0  0  0  0  0  0  0
  150.0832  139.5655  158.2591 O   0  0  0  0  0  0  0  0  0  0  0  0
  149.7945  138.1933  158.0498 C   0  0  0  0  0  0  0  0  0  0  0  0
  148.9202  138.0432  156.7976 C   0  0  1  0  0  0  0  0  0  0  0  0
  149.3913  136.9928  155.9673 O   0  0  0  0  0  0  0  0  0  0  0  0
  148.3636  136.6147  155.1071 C   0  0  1  0  0  0  0  0  0  0  0  0
  148.4760  135.1217  154.8945 N   0  0  0  0  0  0  0  0  0  0  0  0
  149.5254  134.4118  155.4616 C   0  0  0  0  0  0  0  0  0  0  0  0
  149.7055  133.0824  155.2816 C   0  0  0  0  0  0  0  0  0  0  0  0
  148.7817  132.3179  154.4510 C   0  0  0  0  0  0  0  0  0  0  0  0
  148.8575  131.1108  154.2323 O   0  0  0  0  0  0  0  0  0  0  0  0
  147.7516  133.0736  153.8839 N   0  0  0  0  0  0  0  0  0  0  0  0
  147.5585  134.4452  154.0589 C   0  0  0  0  0  0  0  0  0  0  0  0
  146.6146  135.0031  153.5014 O   0  0  0  0  0  0  0  0  0  0  0  0
  147.0244  136.9971  155.7652 C   0  0  2  0  0  0  0  0  0  0  0  0
  146.2873  137.9195  154.9883 O   0  0  0  0  0  0  0  0  0  0  0  0
  147.4598  137.6631  157.0698 C   0  0  1  0  0  0  0  0  0  0  0  0
  147.3813  136.7442  158.1541 O   0  0  0  0  0  0  0  0  0  0  0  0
  147.3341  137.1730  159.4322 C   0  0  0  0  0  0  0  0  0  0  0  0
  147.3075  138.3622  159.7541 O   0  0  0  0  0  0  0  0  0  0  0  0
  147.3057  136.0507  160.4131 C   0  0  0  0  0  0  0  0  0  0  0  0
  147.2509  134.7185  159.9412 C   0  0  0  0  0  0  0  0  0  0  0  0
  147.2273  133.6382  160.8447 C   0  0  0  0  0  0  0  0  0  0  0  0
  147.2585  133.8771  162.2309 C   0  0  0  0  0  0  0  0  0  0  0  0
  147.3130  135.1977  162.7131 C   0  0  0  0  0  0  0  0  0  0  0  0
  147.3363  136.2794  161.8115 C   0  0  0  0  0  0  0  0  0  0  0  0
  151.5203  141.4349  158.4720 C   0  0  0  0  0  0  0  0  0  0  0  0
  150.4353  142.3425  158.4786 C   0  0  0  0  0  0  0  0  0  0  0  0
  150.6049  143.6605  158.9454 C   0  0  0  0  0  0  0  0  0  0  0  0
  151.8620  144.0871  159.4115 C   0  0  0  0  0  0  0  0  0  0  0  0
  152.9491  143.1938  159.4109 C   0  0  0  0  0  0  0  0  0  0  0  0
  152.7813  141.8751  158.9446 C   0  0  0  0  0  0  0  0  0  0  0  0
  147.0922  132.5858  153.2952 H   0  0  0  0  0  0  0  0  0  0  0  0
  150.7160  137.6184  157.9453 H   0  0  0  0  0  0  0  0  0  0  0  0
  149.2625  137.8093  158.9214 H   0  0  0  0  0  0  0  0  0  0  0  0
  148.9347  138.9698  156.2205 H   0  0  0  0  0  0  0  0  0  0  0  0
  148.5193  137.1154  154.1508 H   0  0  0  0  0  0  0  0  0  0  0  0
  150.2433  134.9354  156.0729 H   0  0  0  0  0  0  0  0  0  0  0  0
  150.5409  132.5831  155.7510 H   0  0  0  0  0  0  0  0  0  0  0  0
  146.4021  136.1170  155.9335 H   0  0  0  0  0  0  0  0  0  0  0  0
  146.3147  137.6439  154.0849 H   0  0  0  0  0  0  0  0  0  0  0  0
  146.8723  138.5536  157.3006 H   0  0  0  0  0  0  0  0  0  0  0  0
  147.2264  134.5105  158.8812 H   0  0  0  0  0  0  0  0  0  0  0  0
  147.1853  132.6252  160.4728 H   0  0  0  0  0  0  0  0  0  0  0  0
  147.2392  133.0484  162.9235 H   0  0  0  0  0  0  0  0  0  0  0  0
  147.3365  135.3823  163.7771 H   0  0  0  0  0  0  0  0  0  0  0  0
  147.3777  137.2801  162.2164 H   0  0  0  0  0  0  0  0  0  0  0  0
  149.4606  142.0381  158.1251 H   0  0  0  0  0  0  0  0  0  0  0  0
  149.7689  144.3443  158.9454 H   0  0  0  0  0  0  0  0  0  0  0  0
  151.9923  145.0979  159.7690 H   0  0  0  0  0  0  0  0  0  0  0  0
  153.9143  143.5199  159.7688 H   0  0  0  0  0  0  0  0  0  0  0  0
  153.6365  141.2156  158.9582 H   0  0  0  0  0  0  0  0  0  0  0  0
  1  2  2  0  0  0  0
  2  3  1  0  0  0  0
  2 28  1  0  0  0  0
  3  4  1  0  0  0  0
  4  5  1  0  0  0  0
  4 35  1  0  0  0  0
  4 36  1  0  0  0  0
  5 18  1  0  0  0  0
  5  6  1  0  0  0  0
  5 37  1  0  0  0  0
  6  7  1  0  0  0  0
  7  8  1  0  0  0  0
  7 16  1  0  0  0  0
  7 38  1  0  0  0  0
  8 14  1  0  0  0  0
  8  9  1  0  0  0  0
  9 10  2  0  0  0  0
  9 39  1  0  0  0  0
 10 11  1  0  0  0  0
 10 40  1  0  0  0  0
 11 12  2  0  0  0  0
 11 13  1  0  0  0  0
 13 34  1  0  0  0  0
 13 14  1  0  0  0  0
 14 15  2  0  0  0  0
 16 17  1  0  0  0  0
 16 18  1  0  0  0  0
 16 41  1  0  0  0  0
 17 42  1  0  0  0  0
 18 19  1  0  0  0  0
 18 43  1  0  0  0  0
 19 20  1  0  0  0  0
 20 21  2  0  0  0  0
 20 22  1  0  0  0  0
 22 27  1  0  0  0  0
 22 23  2  0  0  0  0
 23 24  1  0  0  0  0
 23 44  1  0  0  0  0
 24 25  2  0  0  0  0
 24 45  1  0  0  0  0
 25 26  1  0  0  0  0
 25 46  1  0  0  0  0
 26 27  2  0  0  0  0
 26 47  1  0  0  0  0
 27 48  1  0  0  0  0
 28 33  1  0  0  0  0
 28 29  2  0  0  0  0
 29 30  1  0  0  0  0
 29 49  1  0  0  0  0
 30 31  2  0  0  0  0
 30 50  1  0  0  0  0
 31 32  1  0  0  0  0
 31 51  1  0  0  0  0
 32 33  2  0  0  0  0
 32 52  1  0  0  0  0
 33 53  1  0  0  0  0
M  END
> <s_m_source_file>
AV-unprocessed.smi

> <i_m_source_file_index>
99

> <i_lp_mmshare_version>
43012

> <i_f3d_flags>
0

> <s_epik_input>
W2NIXTFbY0hdW2NIXVtjSF1bY0hdYzFDKD1PKU9bQ0gyXVtDQEBIXTJPW0NAQEhdKG4zW2NIXVtjSF1jKD1PKVtuSF1jMz1PKVtDQEBIXShbT0hdKVtDQEhdMk9DKD1PKWM0W2NIXVtjSF1bY0hdW2NIXVtjSF00

> <s_epik_cmdline>
J2VwaWtfcHl0aG9uJywgJy1waCcsICc3LjAnLCAnLXRuJywgJzgnLCAnLW1hJywgJzIwMCcsICctbWV0YWxfYmluZGluZycsICctaW1hZScsICc8aW5maWxlLm1hZT4nLCAnLW9tYWUnLCAnPG91dGZpbGUubWFlPic=

> <r_lp_tautomer_probability>
1

> <r_epik_Ionization_Penalty>
0.00454555

> <r_epik_Ionization_Penalty_Charging>
0.0045191

> <r_epik_Ionization_Penalty_Neutral>
2.64449e-05

> <r_epik_State_Penalty>
-0

> <r_epik_Charging_Adjusted_Penalty>
0.0045191

> <i_epik_Tot_Q>
0

> <i_epik_Tot_abs_Q>
0

> <r_epik_Metal_State_Penalty>
1.27877

> <b_epik_Metal_Only>
0

> <s_epik_Chemistry_Notes>
This compound has an ester and may undergo hydrolysis at high or low pH. This compound contains an acetal/aminal-like group ( X-CH(R)-Y where X, Y are N, S, or O) that may be acid/base labile, releasing an aldehyde.

> <s_lp_Force_Field>
OPLS_2005

> <r_lp_Energy>
31.5911

> <b_lp_Chiralities_Consistent>
1

> <s_lp_Variant>
AV-unprocessed.smi:99-6

> <Gold.Version>
5.8.1

> <Gold.Id.Protein>
6NUR|6NUR_protein|mol2

> <Gold.PLP.Fitness>
59.9896

> <Gold.PLP.PLP>
-55.9115

> <Gold.PLP.part.hbond>
-3.0809

> <Gold.PLP.part.metal>
0.0000

> <Gold.PLP.part.buried>
-8.1515

> <Gold.PLP.part.nonpolar>
-44.8367

> <Gold.PLP.part.repulsive>
0.1862

> <Gold.PLP.ligand.clash>
0.0000

> <Gold.PLP.ligand.torsion>
1.8289

> <Gold.PLP.Chemscore.Hbond>
2.3680

> <Gold.PLP.Chemscore.CHOScore>
0.0000

> <Gold.PLP.Chemscore.Metal>
0.0000

> <Gold.Chemscore.Hbonds>
donor molecule, donor type, donor heavy atom, donor atom, acceptor molecule, acceptor atom, score
      P1  H  6934  6947       L1    21  0.24
      P1  H  7997  8008       L1     1  0.03

> <Gold.PLP.Chemscore.Internal.Correction>
0.6321

> <Gold.Rescore>
     Score         DG    S(hbond)    S(metal)    S(lipo)     H(rot)  DE(clash)    DE(int)     intcor
     17.09     -19.86       2.44        0.00     123.15       3.19       0.05       2.72       ----

> <Gold.Chemscore.Fitness>
17.0941

> <Gold.Chemscore.DG>
-19.8605

> <Gold.Chemscore.ZeroCoef>
-5.4800

> <Gold.Chemscore.Hbond>
2.4370

> <Gold.Chemscore.Metal>
0.0000

> <Gold.Chemscore.Lipo>
123.1461

> <Gold.Chemscore.Internal_Hbond>
0.0000

> <Gold.Chemscore.DEClash>
0.0509

> <Gold.Chemscore.DEInternal>
2.7155

> <Gold.Chemscore.Rot>
3.1903

> <Gold.Chemscore.Internal.Correction>
   9.000000E+99

> <Gold.Chemscore.Hbonds>
donor molecule, donor type, donor heavy atom, donor atom, acceptor molecule, acceptor atom, score
      P1  H  6934  6947       L1    21  0.24
      P1  H  7997  8008       L1     1  0.09

> <Gold.Chemscore.Hbond.Weighted>
-8.1395

> <Gold.Chemscore.Metal.Weighted>
-0.0000

> <Gold.Chemscore.Lipo.Weighted>
-14.4081

> <Gold.Chemscore.Internal_Hbond.Weighted>
0.0000

> <Gold.Chemscore.DEClash.Weighted>
0.0509

> <Gold.Chemscore.DEInternal.Weighted>
2.7155

> <Gold.Chemscore.Rot.Weighted>
8.1671

> <Gold.Chemscore.Internal.Correction.Weighted>
   9.000000E+99

> <Gold.Protein.RotatedTorsions>
[ 6907 6896 6895 6894 ] final -102.89 input  -60.11 | X-H torsion
[ 7974 7965 7964 7962 ] final  121.93 input  175.53 | X-H torsion
[ 8008 7997 7996 7995 ] final  -65.52 input   59.86 | X-H torsion
[ 10167 10162 10161 10158 ] final  -34.21 input  -65.29 | X-H torsion
[ 10718 10713 10712 10709 ] final -131.18 input   66.30 | X-H torsion
[ 10763 10752 10751 10750 ] final  175.81 input  -60.55 | X-H torsion
[ 11005 11000 10999 10996 ] final   56.75 input  -57.11 | X-H torsion

> <Gold.Protein.ActiveResidues>
 VAL166  LYS551  ARG553  GLY616  TRP617  ASP618  TYR619  PRO620  LYS621  CYS622 
 ASP623  PHE694  ASN695  SER759  ASP760  ASP761  ALA762  ILE779  LEU786  VAL792 
 PHE793  MET794  SER795  GLU796  ALA797  LYS798  CYS799  TRP800  GLU811  SER814 

> <Gold.Protein.RotatedAtoms>
  150.7216  134.0512  159.3798 H   0  0  0  0  0  0  0  0  0  0  0  0  # atno 6907 bound_to 6896
  151.8489  135.0562  160.0466 H   0  0  0  0  0  0  0  0  0  0  0  0  # atno 6908 bound_to 6896
  152.2806  133.5430  159.5531 H   0  0  0  0  0  0  0  0  0  0  0  0  # atno 6909 bound_to 6896
  145.1135  139.3436  143.4751 H   0  0  0  0  0  0  0  0  0  0  0  0  # atno 7974 bound_to 7965
  154.4677  140.0931  156.7063 H   0  0  0  0  0  0  0  0  0  0  0  0  # atno 8008 bound_to 7997
  155.4812  140.3467  155.4322 H   0  0  0  0  0  0  0  0  0  0  0  0  # atno 8009 bound_to 7997
  156.0985  140.1416  156.9487 H   0  0  0  0  0  0  0  0  0  0  0  0  # atno 8010 bound_to 7997
  140.7190  143.3564  151.2051 H   0  0  0  0  0  0  0  0  0  0  0  0  # atno 10167 bound_to 10162
  156.2218  130.6983  151.0764 H   0  0  0  0  0  0  0  0  0  0  0  0  # atno 10718 bound_to 10713
  154.4727  135.2771  155.1631 H   0  0  0  0  0  0  0  0  0  0  0  0  # atno 10763 bound_to 10752
  154.3373  135.6177  153.5583 H   0  0  0  0  0  0  0  0  0  0  0  0  # atno 10764 bound_to 10752
  152.9866  135.5780  154.5111 H   0  0  0  0  0  0  0  0  0  0  0  0  # atno 10765 bound_to 10752
  140.0505  134.5744  155.9270 H   0  0  0  0  0  0  0  0  0  0  0  0  # atno 11005 bound_to 11000
  146.3525  140.1064  142.8605 LP  0  0  0  0  0  0  0  0  0  0  0  0  # atno 17320 bound_to 7965
  145.0820  140.9227  143.4820 LP  0  0  0  0  0  0  0  0  0  0  0  0  # atno 17321 bound_to 7965
  139.7106  143.9382  152.2946 LP  0  0  0  0  0  0  0  0  0  0  0  0  # atno 17342 bound_to 10162
  139.9106  144.6858  150.8566 LP  0  0  0  0  0  0  0  0  0  0  0  0  # atno 17343 bound_to 10162
  157.7091  131.0742  150.6564 LP  0  0  0  0  0  0  0  0  0  0  0  0  # atno 17370 bound_to 10713
  156.6627  130.4517  149.5682 LP  0  0  0  0  0  0  0  0  0  0  0  0  # atno 17371 bound_to 10713
  141.1928  133.6576  156.5517 LP  0  0  0  0  0  0  0  0  0  0  0  0  # atno 17394 bound_to 11000
  140.3925  134.7427  157.4730 LP  0  0  0  0  0  0  0  0  0  0  0  0  # atno 17395 bound_to 11000

$$$$
