AV-unprocessed.smi:1190|AV-procd|sdf|4982|dock5
  -GOLD-   22720 3583D 1   1.00000     0.00000
 Structure written by MMmdl.
 44 45  0  0  0  0  0  0  0  0  2 V2000
  154.2012  141.3598  161.2067 C   0  0  0  0  0  0  0  0  0  0  0  0
  153.8282  142.5913  160.5983 O   0  0  0  0  0  0  0  0  0  0  0  0
  152.8946  142.5635  159.5827 C   0  0  0  0  0  0  0  0  0  0  0  0
  152.4654  143.7849  159.0276 C   0  0  0  0  0  0  0  0  0  0  0  0
  151.5146  143.7609  157.9903 C   0  0  0  0  0  0  0  0  0  0  0  0
  151.0259  142.5211  157.5313 C   0  0  0  0  0  0  0  0  0  0  0  0
  150.0553  142.5338  156.4929 N   0  0  0  0  0  0  0  0  0  0  0  0
  149.9015  141.6687  155.4759 C   0  0  0  0  0  0  0  0  0  0  0  0
  150.6147  140.6910  155.2561 O   0  0  0  0  0  0  0  0  0  0  0  0
  148.8666  142.0168  154.6982 N   0  0  0  0  0  0  0  0  0  0  0  0
  148.4135  141.2902  153.5125 C   0  0  0  0  0  0  0  0  0  0  0  0
  147.0507  140.5725  153.7083 C   0  0  2  0  0  0  0  0  0  0  0  0
  146.6478  139.8456  152.4066 C   0  0  0  0  0  0  0  0  0  0  0  0
  145.9787  141.4928  154.2103 N   0  3  0  0  0  0  0  0  0  0  0  0
  145.8209  141.4972  155.6910 C   0  0  0  0  0  0  0  0  0  0  0  0
  144.6924  142.4466  156.1282 C   0  0  0  0  0  0  0  0  0  0  0  0
  144.9493  143.7558  155.6433 O   0  0  0  0  0  0  0  0  0  0  0  0
  144.9870  143.7851  154.2247 C   0  0  0  0  0  0  0  0  0  0  0  0
  146.1312  142.8904  153.7205 C   0  0  0  0  0  0  0  0  0  0  0  0
  151.5099  141.3491  158.1629 C   0  0  0  0  0  0  0  0  0  0  0  0
  152.4213  141.3657  159.1587 N   0  0  0  0  0  0  0  0  0  0  0  0
  154.9430  141.5507  161.9820 H   0  0  0  0  0  0  0  0  0  0  0  0
  154.6482  140.6766  160.4831 H   0  0  0  0  0  0  0  0  0  0  0  0
  153.3469  140.8729  161.6790 H   0  0  0  0  0  0  0  0  0  0  0  0
  152.8581  144.7229  159.3916 H   0  0  0  0  0  0  0  0  0  0  0  0
  151.1698  144.6860  157.5516 H   0  0  0  0  0  0  0  0  0  0  0  0
  149.4293  143.3254  156.5009 H   0  0  0  0  0  0  0  0  0  0  0  0
  148.3328  142.8323  154.9616 H   0  0  0  0  0  0  0  0  0  0  0  0
  148.3773  141.9540  152.6468 H   0  0  0  0  0  0  0  0  0  0  0  0
  149.1845  140.5610  153.2650 H   0  0  0  0  0  0  0  0  0  0  0  0
  147.1990  139.7987  154.4634 H   0  0  0  0  0  0  0  0  0  0  0  0
  147.4890  139.2915  151.9889 H   0  0  0  0  0  0  0  0  0  0  0  0
  146.3040  140.5452  151.6444 H   0  0  0  0  0  0  0  0  0  0  0  0
  145.8580  139.1138  152.5750 H   0  0  0  0  0  0  0  0  0  0  0  0
  145.5736  140.5029  156.0602 H   0  0  0  0  0  0  0  0  0  0  0  0
  146.7614  141.7929  156.1583 H   0  0  0  0  0  0  0  0  0  0  0  0
  143.7249  142.0938  155.7673 H   0  0  0  0  0  0  0  0  0  0  0  0
  144.6316  142.4804  157.2162 H   0  0  0  0  0  0  0  0  0  0  0  0
  144.0286  143.4639  153.8132 H   0  0  0  0  0  0  0  0  0  0  0  0
  145.1441  144.8133  153.8986 H   0  0  0  0  0  0  0  0  0  0  0  0
  147.0899  143.2910  154.0535 H   0  0  0  0  0  0  0  0  0  0  0  0
  146.1311  142.9255  152.6322 H   0  0  0  0  0  0  0  0  0  0  0  0
  151.1593  140.3653  157.8944 H   0  0  0  0  0  0  0  0  0  0  0  0
  145.1078  141.1461  153.8341 H   0  0  0  0  0  0  0  0  0  0  0  0
  1  2  1  0  0  0  0
  1 22  1  0  0  0  0
  1 23  1  0  0  0  0
  1 24  1  0  0  0  0
  2  3  1  0  0  0  0
  3 21  1  0  0  0  0
  3  4  2  0  0  0  0
  4  5  1  0  0  0  0
  4 25  1  0  0  0  0
  5  6  2  0  0  0  0
  5 26  1  0  0  0  0
  6  7  1  0  0  0  0
  6 20  1  0  0  0  0
  7  8  1  0  0  0  0
  7 27  1  0  0  0  0
  8  9  2  0  0  0  0
  8 10  1  0  0  0  0
 10 11  1  0  0  0  0
 10 28  1  0  0  0  0
 11 12  1  0  0  0  0
 11 29  1  0  0  0  0
 11 30  1  0  0  0  0
 12 13  1  0  0  0  0
 12 14  1  0  0  0  0
 12 31  1  0  0  0  0
 13 32  1  0  0  0  0
 13 33  1  0  0  0  0
 13 34  1  0  0  0  0
 14 19  1  0  0  0  0
 14 15  1  0  0  0  0
 14 44  1  0  0  0  0
 15 16  1  0  0  0  0
 15 35  1  0  0  0  0
 15 36  1  0  0  0  0
 16 17  1  0  0  0  0
 16 37  1  0  0  0  0
 16 38  1  0  0  0  0
 17 18  1  0  0  0  0
 18 19  1  0  0  0  0
 18 39  1  0  0  0  0
 18 40  1  0  0  0  0
 19 41  1  0  0  0  0
 19 42  1  0  0  0  0
 20 21  2  0  0  0  0
 20 43  1  0  0  0  0
M  CHG  1  14   1
M  END
> <s_m_source_file>
AV-unprocessed.smi

> <i_m_source_file_index>
1190

> <i_lp_mmshare_version>
43012

> <i_f3d_flags>
0

> <s_epik_input>
W0NIM11PYzFbY0hdW2NIXWMoW2NIXW4xKVtOSF1DKD1PKVtOSF1bQ0gyXVtDQEhdKFtDSDNdKU4yW0NIMl1bQ0gyXU9bQ0gyXVtDSDJdMg==

> <s_epik_cmdline>
J2VwaWtfcHl0aG9uJywgJy1waCcsICc3LjAnLCAnLXRuJywgJzgnLCAnLW1hJywgJzIwMCcsICctbWV0YWxfYmluZGluZycsICctaW1hZScsICc8aW5maWxlLm1hZT4nLCAnLW9tYWUnLCAnPG91dGZpbGUubWFlPic=

> <r_lp_tautomer_probability>
1

> <r_epik_Ionization_Penalty>
0.602608

> <r_epik_Ionization_Penalty_Charging>
0.602531

> <r_epik_Ionization_Penalty_Neutral>
7.70246e-05

> <r_epik_State_Penalty>
0.617039

> <r_epik_Charging_Adjusted_Penalty>
1.21957

> <i_epik_Tot_Q>
1

> <i_epik_Tot_abs_Q>
1

> <r_epik_Metal_State_Penalty>
0.617043

> <b_epik_Metal_Only>
0

> <s_lp_Force_Field>
OPLS_2005

> <r_lp_Energy>
31.3292

> <b_lp_Chiralities_Consistent>
1

> <s_lp_Variant>
AV-unprocessed.smi:1190-3

> <Gold.Version>
5.8.1

> <Gold.Id.Protein>
6NUR|6NUR_protein|mol2

> <Gold.PLP.Fitness>
49.9652

> <Gold.PLP.PLP>
-38.9839

> <Gold.PLP.part.hbond>
-4.0000

> <Gold.PLP.part.metal>
0.0000

> <Gold.PLP.part.buried>
1.4607

> <Gold.PLP.part.nonpolar>
-35.7885

> <Gold.PLP.part.repulsive>
0.6774

> <Gold.PLP.ligand.clash>
0.0000

> <Gold.PLP.ligand.torsion>
1.2196

> <Gold.PLP.Chemscore.Hbond>
4.4442

> <Gold.PLP.Chemscore.CHOScore>
0.0000

> <Gold.PLP.Chemscore.Metal>
0.0000

> <Gold.Chemscore.Hbonds>
donor molecule, donor type, donor heavy atom, donor atom, acceptor molecule, acceptor atom, score
      L1  H     7    27       P1  8028  0.93
      L1  H    10    28       P1  8028  0.61
      L1  H    14    44       P1 10175  1.82
      P1  H  7989  7998       L1     9  0.89

> <Gold.PLP.Chemscore.Internal.Correction>
0.0879

> <Gold.Rescore>
     Score         DG    S(hbond)    S(metal)    S(lipo)     H(rot)  DE(clash)    DE(int)     intcor
     17.67     -20.84       2.70        0.00      93.50       1.79       2.22       0.96       ----

> <Gold.Chemscore.Fitness>
17.6703

> <Gold.Chemscore.DG>
-20.8450

> <Gold.Chemscore.ZeroCoef>
-5.4800

> <Gold.Chemscore.Hbond>
2.6955

> <Gold.Chemscore.Metal>
0.0000

> <Gold.Chemscore.Lipo>
93.4987

> <Gold.Chemscore.Internal_Hbond>
0.0000

> <Gold.Chemscore.DEClash>
2.2163

> <Gold.Chemscore.DEInternal>
0.9584

> <Gold.Chemscore.Rot>
1.7881

> <Gold.Chemscore.Internal.Correction>
   9.000000E+99

> <Gold.Chemscore.Hbonds>
donor molecule, donor type, donor heavy atom, donor atom, acceptor molecule, acceptor atom, score
      L1  H     7    27       P1  8028  0.91
      L1  H    10    28       P1  8028  0.60
      L1  H    14    44       P1 10175  0.58
      P1  H  7989  7998       L1     9  0.64

> <Gold.Chemscore.Hbond.Weighted>
-9.0031

> <Gold.Chemscore.Metal.Weighted>
-0.0000

> <Gold.Chemscore.Lipo.Weighted>
-10.9394

> <Gold.Chemscore.Internal_Hbond.Weighted>
0.0000

> <Gold.Chemscore.DEClash.Weighted>
2.2163

> <Gold.Chemscore.DEInternal.Weighted>
0.9584

> <Gold.Chemscore.Rot.Weighted>
4.5775

> <Gold.Chemscore.Internal.Correction.Weighted>
   9.000000E+99

> <Gold.Protein.RotatedTorsions>
[ 6907 6896 6895 6894 ] final   62.03 input  -60.11 | X-H torsion
[ 7974 7965 7964 7962 ] final -138.90 input  175.53 | X-H torsion
[ 8008 7997 7996 7995 ] final -129.49 input   59.86 | X-H torsion
[ 10167 10162 10161 10158 ] final   24.02 input  -65.29 | X-H torsion
[ 10718 10713 10712 10709 ] final -177.46 input   66.30 | X-H torsion
[ 10763 10752 10751 10750 ] final  160.90 input  -60.55 | X-H torsion
[ 11005 11000 10999 10996 ] final -169.31 input  -57.11 | X-H torsion

> <Gold.Protein.ActiveResidues>
 VAL166  LYS551  ARG553  GLY616  TRP617  ASP618  TYR619  PRO620  LYS621  CYS622 
 ASP623  PHE694  ASN695  SER759  ASP760  ASP761  ALA762  ILE779  LEU786  VAL792 
 PHE793  MET794  SER795  GLU796  ALA797  LYS798  CYS799  TRP800  GLU811  SER814 

> <Gold.Protein.RotatedAtoms>
  152.4138  134.6078  160.0017 H   0  0  0  0  0  0  0  0  0  0  0  0  # atno 6907 bound_to 6896
  151.6247  133.3331  159.3103 H   0  0  0  0  0  0  0  0  0  0  0  0  # atno 6908 bound_to 6896
  150.8027  134.7172  159.6682 H   0  0  0  0  0  0  0  0  0  0  0  0  # atno 6909 bound_to 6896
  144.8720  140.6381  143.5261 H   0  0  0  0  0  0  0  0  0  0  0  0  # atno 7974 bound_to 7965
  155.2801  140.0443  157.3014 H   0  0  0  0  0  0  0  0  0  0  0  0  # atno 8008 bound_to 7997
  154.5602  140.2344  155.8315 H   0  0  0  0  0  0  0  0  0  0  0  0  # atno 8009 bound_to 7997
  156.2041  140.3017  155.9596 H   0  0  0  0  0  0  0  0  0  0  0  0  # atno 8010 bound_to 7997
  140.5222  143.9983  150.6422 H   0  0  0  0  0  0  0  0  0  0  0  0  # atno 10167 bound_to 10162
  156.8299  130.9649  151.3107 H   0  0  0  0  0  0  0  0  0  0  0  0  # atno 10718 bound_to 10713
  154.2546  135.2770  155.2803 H   0  0  0  0  0  0  0  0  0  0  0  0  # atno 10763 bound_to 10752
  154.5436  135.5695  153.6864 H   0  0  0  0  0  0  0  0  0  0  0  0  # atno 10764 bound_to 10752
  152.9974  135.6257  154.2694 H   0  0  0  0  0  0  0  0  0  0  0  0  # atno 10765 bound_to 10752
  140.5322  134.5605  157.5078 H   0  0  0  0  0  0  0  0  0  0  0  0  # atno 11005 bound_to 11000
  145.4112  139.1580  143.4124 LP  0  0  0  0  0  0  0  0  0  0  0  0  # atno 17320 bound_to 7965
  146.2937  140.4216  142.8730 LP  0  0  0  0  0  0  0  0  0  0  0  0  # atno 17321 bound_to 7965
  140.3335  143.3063  152.0662 LP  0  0  0  0  0  0  0  0  0  0  0  0  # atno 17342 bound_to 10162
  139.4927  144.6492  151.6712 LP  0  0  0  0  0  0  0  0  0  0  0  0  # atno 17343 bound_to 10162
  157.6412  130.8807  149.9452 LP  0  0  0  0  0  0  0  0  0  0  0  0  # atno 17370 bound_to 10713
  156.0940  130.3661  150.0341 LP  0  0  0  0  0  0  0  0  0  0  0  0  # atno 17371 bound_to 10713
  139.9548  134.7554  156.0366 LP  0  0  0  0  0  0  0  0  0  0  0  0  # atno 17394 bound_to 11000
  141.1275  133.6595  156.3375 LP  0  0  0  0  0  0  0  0  0  0  0  0  # atno 17395 bound_to 11000

$$$$
