AV-unprocessed.smi:3251|AV-procd|sdf|12435|dock10
  -GOLD-   2272018323D 1   1.00000     0.00000
 Structure written by MMmdl.
 41 42  0  0  0  0  0  0  0  0  2 V2000
  144.6486  133.4874  150.2874 C   0  0  0  0  0  0  0  0  0  0  0  0
  145.1697  134.4549  151.3108 C   0  0  0  0  0  0  0  0  0  0  0  0
  145.9563  134.1703  152.4632 C   0  0  0  0  0  0  0  0  0  0  0  0
  146.2463  135.2523  153.1676 N   0  0  0  0  0  0  0  0  0  0  0  0
  145.6589  136.2622  152.4911 N   0  0  0  0  0  0  0  0  0  0  0  0
  145.7508  137.6201  152.9966 C   0  0  0  0  0  0  0  0  0  0  0  0
  146.4941  138.5404  152.0168 C   0  0  0  0  0  0  0  0  0  0  0  0
  147.8435  138.8816  152.5189 N   0  3  0  0  0  0  0  0  0  0  0  0
  147.8728  139.6329  153.7937 C   0  0  2  0  0  0  0  0  0  0  0  0
  146.8763  140.8006  153.7173 C   0  0  0  0  0  0  0  0  0  0  0  0
  149.2882  140.1672  154.0950 C   0  0  0  0  0  0  0  0  0  0  0  0
  149.4887  141.3819  154.0411 O   0  0  0  0  0  0  0  0  0  0  0  0
  150.2687  139.2973  154.4203 N   0  0  0  0  0  0  0  0  0  0  0  0
  151.6571  139.6326  154.7374 C   0  0  0  0  0  0  0  0  0  0  0  0
  152.4068  138.3009  154.7737 C   0  0  0  0  0  0  0  0  0  0  0  0
  151.3340  137.2790  155.1207 C   0  0  0  0  0  0  0  0  0  0  0  0
  150.0596  137.8524  154.5013 C   0  0  0  0  0  0  0  0  0  0  0  0
  145.0029  135.8097  151.3662 C   0  0  0  0  0  0  0  0  0  0  0  0
  145.1958  132.5445  150.3055 H   0  0  0  0  0  0  0  0  0  0  0  0
  144.7310  133.8862  149.2763 H   0  0  0  0  0  0  0  0  0  0  0  0
  143.5976  133.2528  150.4565 H   0  0  0  0  0  0  0  0  0  0  0  0
  146.3213  133.2137  152.8074 H   0  0  0  0  0  0  0  0  0  0  0  0
  144.7476  137.9968  153.2031 H   0  0  0  0  0  0  0  0  0  0  0  0
  146.2773  137.5920  153.9513 H   0  0  0  0  0  0  0  0  0  0  0  0
  146.5951  138.0524  151.0470 H   0  0  0  0  0  0  0  0  0  0  0  0
  145.9071  139.4457  151.8557 H   0  0  0  0  0  0  0  0  0  0  0  0
  148.3627  138.0245  152.6527 H   0  0  0  0  0  0  0  0  0  0  0  0
  147.5460  138.9498  154.5780 H   0  0  0  0  0  0  0  0  0  0  0  0
  146.8525  141.3723  154.6453 H   0  0  0  0  0  0  0  0  0  0  0  0
  145.8642  140.4385  153.5340 H   0  0  0  0  0  0  0  0  0  0  0  0
  147.1301  141.4913  152.9117 H   0  0  0  0  0  0  0  0  0  0  0  0
  152.1040  140.3090  154.0084 H   0  0  0  0  0  0  0  0  0  0  0  0
  151.6923  140.1131  155.7162 H   0  0  0  0  0  0  0  0  0  0  0  0
  152.8111  138.0819  153.7844 H   0  0  0  0  0  0  0  0  0  0  0  0
  153.2369  138.3008  155.4810 H   0  0  0  0  0  0  0  0  0  0  0  0
  151.5683  136.2782  154.7560 H   0  0  0  0  0  0  0  0  0  0  0  0
  151.2210  137.2215  156.2042 H   0  0  0  0  0  0  0  0  0  0  0  0
  149.1816  137.5966  155.0968 H   0  0  0  0  0  0  0  0  0  0  0  0
  149.9129  137.4577  153.4945 H   0  0  0  0  0  0  0  0  0  0  0  0
  144.4722  136.4811  150.7070 H   0  0  0  0  0  0  0  0  0  0  0  0
  148.3082  139.4296  151.8095 H   0  0  0  0  0  0  0  0  0  0  0  0
  1  2  1  0  0  0  0
  1 19  1  0  0  0  0
  1 20  1  0  0  0  0
  1 21  1  0  0  0  0
  2 18  2  0  0  0  0
  2  3  1  0  0  0  0
  3  4  2  0  0  0  0
  3 22  1  0  0  0  0
  4  5  1  0  0  0  0
  5  6  1  0  0  0  0
  5 18  1  0  0  0  0
  6  7  1  0  0  0  0
  6 23  1  0  0  0  0
  6 24  1  0  0  0  0
  7  8  1  0  0  0  0
  7 25  1  0  0  0  0
  7 26  1  0  0  0  0
  8  9  1  0  0  0  0
  8 27  1  0  0  0  0
  8 41  1  0  0  0  0
  9 10  1  0  0  0  0
  9 11  1  0  0  0  0
  9 28  1  0  0  0  0
 10 29  1  0  0  0  0
 10 30  1  0  0  0  0
 10 31  1  0  0  0  0
 11 12  2  0  0  0  0
 11 13  1  0  0  0  0
 13 17  1  0  0  0  0
 13 14  1  0  0  0  0
 14 15  1  0  0  0  0
 14 32  1  0  0  0  0
 14 33  1  0  0  0  0
 15 16  1  0  0  0  0
 15 34  1  0  0  0  0
 15 35  1  0  0  0  0
 16 17  1  0  0  0  0
 16 36  1  0  0  0  0
 16 37  1  0  0  0  0
 17 38  1  0  0  0  0
 17 39  1  0  0  0  0
 18 40  1  0  0  0  0
M  CHG  1   8   1
M  END
> <s_m_source_file>
AV-unprocessed.smi

> <i_m_source_file_index>
3251

> <i_lp_mmshare_version>
43012

> <i_f3d_flags>
0

> <s_epik_input>
W0NIM11jMVtjSF1ubihbY0hdMSlbQ0gyXVtDSDJdW05IXVtDQEhdKFtDSDNdKUMoPU8pTjJbQ0gyXVtDSDJdW0NIMl1bQ0gyXTI=

> <s_epik_cmdline>
J2VwaWtfcHl0aG9uJywgJy1waCcsICc3LjAnLCAnLXRuJywgJzgnLCAnLW1hJywgJzIwMCcsICctbWV0YWxfYmluZGluZycsICctaW1hZScsICc8aW5maWxlLm1hZT4nLCAnLW9tYWUnLCAnPG91dGZpbGUubWFlPic=

> <r_lp_tautomer_probability>
1

> <r_epik_Ionization_Penalty>
0.203173

> <r_epik_Ionization_Penalty_Charging>
0.203168

> <r_epik_Ionization_Penalty_Neutral>
5.06494e-06

> <r_epik_State_Penalty>
0.193072

> <r_epik_Charging_Adjusted_Penalty>
0.39624

> <i_epik_Tot_Q>
1

> <i_epik_Tot_abs_Q>
1

> <r_epik_Metal_State_Penalty>
0.193587

> <b_epik_Metal_Only>
0

> <s_lp_Force_Field>
OPLS_2005

> <r_lp_Energy>
29.5605

> <b_lp_Chiralities_Consistent>
1

> <s_lp_Variant>
AV-unprocessed.smi:3251-1

> <Gold.Version>
5.8.1

> <Gold.Id.Protein>
6NUR|6NUR_protein|mol2

> <Gold.PLP.Fitness>
48.8803

> <Gold.PLP.PLP>
-36.1681

> <Gold.PLP.part.hbond>
-3.8268

> <Gold.PLP.part.metal>
0.0000

> <Gold.PLP.part.buried>
1.1611

> <Gold.PLP.part.nonpolar>
-34.1378

> <Gold.PLP.part.repulsive>
0.3609

> <Gold.PLP.ligand.clash>
0.0000

> <Gold.PLP.ligand.torsion>
0.5993

> <Gold.PLP.Chemscore.Hbond>
3.6311

> <Gold.PLP.Chemscore.CHOScore>
1.0000

> <Gold.PLP.Chemscore.Metal>
0.0000

> <Gold.Chemscore.Hbonds>
donor molecule, donor type, donor heavy atom, donor atom, acceptor molecule, acceptor atom, score
      L1  H     8    27       P1  7948  1.86
      L1  H     8    41       P1  7957  1.00
      P1  H  7989  7998       L1    12  0.06
      P1  H  8011  8017       L1    12  0.72
      L1  C    18    40       P1 10171  1.00

> <Gold.PLP.Chemscore.Internal.Correction>
0.0177

> <Gold.Rescore>
     Score         DG    S(hbond)    S(metal)    S(lipo)     H(rot)  DE(clash)    DE(int)     intcor
     16.61     -17.96       2.39        0.00      77.11       1.76       0.67       0.68       ----

> <Gold.Chemscore.Fitness>
16.6084

> <Gold.Chemscore.DG>
-17.9626

> <Gold.Chemscore.ZeroCoef>
-5.4800

> <Gold.Chemscore.Hbond>
2.3852

> <Gold.Chemscore.Metal>
0.0000

> <Gold.Chemscore.Lipo>
77.1060

> <Gold.Chemscore.Internal_Hbond>
0.0000

> <Gold.Chemscore.DEClash>
0.6723

> <Gold.Chemscore.DEInternal>
0.6819

> <Gold.Chemscore.Rot>
1.7599

> <Gold.Chemscore.Internal.Correction>
   9.000000E+99

> <Gold.Chemscore.Hbonds>
donor molecule, donor type, donor heavy atom, donor atom, acceptor molecule, acceptor atom, score
      L1  H     8    27       P1  7948  0.85
      L1  H     8    41       P1  7957  0.92
      P1  H  8011  8017       L1    12  0.68

> <Gold.Chemscore.Hbond.Weighted>
-7.9665

> <Gold.Chemscore.Metal.Weighted>
-0.0000

> <Gold.Chemscore.Lipo.Weighted>
-9.0214

> <Gold.Chemscore.Internal_Hbond.Weighted>
0.0000

> <Gold.Chemscore.DEClash.Weighted>
0.6723

> <Gold.Chemscore.DEInternal.Weighted>
0.6819

> <Gold.Chemscore.Rot.Weighted>
4.5053

> <Gold.Chemscore.Internal.Correction.Weighted>
   9.000000E+99

> <Gold.Protein.RotatedTorsions>
[ 6907 6896 6895 6894 ] final  -80.97 input  -60.11 | X-H torsion
[ 7974 7965 7964 7962 ] final  -21.15 input  175.53 | X-H torsion
[ 8008 7997 7996 7995 ] final  138.00 input   59.86 | X-H torsion
[ 10167 10162 10161 10158 ] final -125.99 input  -65.29 | X-H torsion
[ 10718 10713 10712 10709 ] final -125.36 input   66.30 | X-H torsion
[ 10763 10752 10751 10750 ] final -102.65 input  -60.55 | X-H torsion
[ 11005 11000 10999 10996 ] final   72.56 input  -57.11 | X-H torsion

> <Gold.Protein.ActiveResidues>
 VAL166  LYS551  ARG553  GLY616  TRP617  ASP618  TYR619  PRO620  LYS621  CYS622 
 ASP623  PHE694  ASN695  SER759  ASP760  ASP761  ALA762  ILE779  LEU786  VAL792 
 PHE793  MET794  SER795  GLU796  ALA797  LYS798  CYS799  TRP800  GLU811  SER814 

> <Gold.Protein.RotatedAtoms>
  150.6920  134.3889  159.5067 H   0  0  0  0  0  0  0  0  0  0  0  0  # atno 6907 bound_to 6896
  152.1680  134.8855  160.0546 H   0  0  0  0  0  0  0  0  0  0  0  0  # atno 6908 bound_to 6896
  151.9892  133.3750  159.4174 H   0  0  0  0  0  0  0  0  0  0  0  0  # atno 6909 bound_to 6896
  146.1749  140.4301  142.8517 H   0  0  0  0  0  0  0  0  0  0  0  0  # atno 7974 bound_to 7965
  156.3000  140.2405  156.4001 H   0  0  0  0  0  0  0  0  0  0  0  0  # atno 8008 bound_to 7997
  154.8535  140.0423  157.1639 H   0  0  0  0  0  0  0  0  0  0  0  0  # atno 8009 bound_to 7997
  154.8973  140.2972  155.5341 H   0  0  0  0  0  0  0  0  0  0  0  0  # atno 8010 bound_to 7997
  139.9762  143.5791  152.2395 H   0  0  0  0  0  0  0  0  0  0  0  0  # atno 10167 bound_to 10162
  156.1669  130.6640  151.0127 H   0  0  0  0  0  0  0  0  0  0  0  0  # atno 10718 bound_to 10713
  154.7749  135.4853  153.9724 H   0  0  0  0  0  0  0  0  0  0  0  0  # atno 10763 bound_to 10752
  153.1416  135.6773  153.9026 H   0  0  0  0  0  0  0  0  0  0  0  0  # atno 10764 bound_to 10752
  153.8699  135.3145  155.3420 H   0  0  0  0  0  0  0  0  0  0  0  0  # atno 10765 bound_to 10752
  139.9484  134.7270  156.0921 H   0  0  0  0  0  0  0  0  0  0  0  0  # atno 11005 bound_to 11000
  144.8220  140.6566  143.6347 LP  0  0  0  0  0  0  0  0  0  0  0  0  # atno 17320 bound_to 7965
  145.4240  139.1559  143.4059 LP  0  0  0  0  0  0  0  0  0  0  0  0  # atno 17321 bound_to 7965
  139.6444  144.7657  151.2274 LP  0  0  0  0  0  0  0  0  0  0  0  0  # atno 17342 bound_to 10162
  140.7505  143.6264  150.8464 LP  0  0  0  0  0  0  0  0  0  0  0  0  # atno 17343 bound_to 10162
  157.6774  131.0847  150.7459 LP  0  0  0  0  0  0  0  0  0  0  0  0  # atno 17370 bound_to 10713
  156.7519  130.4771  149.5455 LP  0  0  0  0  0  0  0  0  0  0  0  0  # atno 17371 bound_to 10713
  141.1141  133.6633  156.3051 LP  0  0  0  0  0  0  0  0  0  0  0  0  # atno 17394 bound_to 11000
  140.5777  134.5777  157.5472 LP  0  0  0  0  0  0  0  0  0  0  0  0  # atno 17395 bound_to 11000

$$$$
