AV-unprocessed.smi:22|AV-procd|sdf|170|dock3
  -GOLD-   2262015423D 1   1.00000     0.00000
 Structure written by MMmdl.
 56 59  0  0  0  0  0  0  0  0  2 V2000
  147.9696  131.6982  158.6779 C   0  0  0  0  0  0  0  0  0  0  0  0
  147.7307  132.5896  157.5139 N   0  3  1  0  0  0  0  0  0  0  0  0
  146.3934  133.2387  157.6040 C   0  0  0  0  0  0  0  0  0  0  0  0
  145.2522  132.2116  157.5259 C   0  0  0  0  0  0  0  0  0  0  0  0
  144.0055  132.8732  157.5605 O   0  0  0  0  0  0  0  0  0  0  0  0
  148.8317  133.5617  157.2234 C   0  0  0  0  0  0  0  0  0  0  0  0
  148.6973  134.8160  158.1206 C   0  0  0  0  0  0  0  0  0  0  0  0
  149.8175  135.8328  157.8515 C   0  0  0  0  0  0  0  0  0  0  0  0
  149.8564  136.2007  156.4375 N   0  0  0  0  0  0  0  0  0  0  0  0
  150.5752  137.2991  156.0916 C   0  0  0  0  0  0  0  0  0  0  0  0
  151.6882  137.1685  155.3207 N   0  0  0  0  0  0  0  0  0  0  0  0
  152.3953  138.2461  154.9677 C   0  0  0  0  0  0  0  0  0  0  0  0
  152.1743  139.5256  155.2736 N   0  0  0  0  0  0  0  0  0  0  0  0
  151.0642  139.6634  156.0535 C   0  0  0  0  0  0  0  0  0  0  0  0
  150.2140  138.6133  156.5021 C   0  0  0  0  0  0  0  0  0  0  0  0
  149.1884  139.1356  157.2817 N   0  0  0  0  0  0  0  0  0  0  0  0
  149.4156  140.4209  157.2873 C   0  0  0  0  0  0  0  0  0  0  0  0
  150.5257  140.8244  156.5802 N   0  0  0  0  0  0  0  0  0  0  0  0
  151.0117  142.1871  156.4268 C   0  0  0  0  0  0  0  0  0  0  0  0
  151.0740  142.9689  157.7593 C   0  0  1  0  0  0  0  0  0  0  0  0
  149.7633  143.3767  158.1126 O   0  0  0  0  0  0  0  0  0  0  0  0
  151.6669  142.1776  158.9215 C   0  0  0  0  0  0  0  0  0  0  0  0
  152.3288  143.2589  159.7637 C   0  0  0  0  0  0  0  0  0  0  0  0
  152.8883  144.1145  158.7818 O   0  0  0  0  0  0  0  0  0  0  0  0
  151.9728  144.2199  157.6956 C   0  0  0  0  0  0  0  0  0  0  0  0
  149.9908  135.0744  155.5177 C   0  0  0  0  0  0  0  0  0  0  0  0
  148.8792  134.0376  155.7482 C   0  0  0  0  0  0  0  0  0  0  0  0
  148.1660  132.2781  159.5809 H   0  0  0  0  0  0  0  0  0  0  0  0
  148.8106  131.0277  158.5022 H   0  0  0  0  0  0  0  0  0  0  0  0
  147.1062  131.0623  158.8723 H   0  0  0  0  0  0  0  0  0  0  0  0
  146.3269  133.8015  158.5367 H   0  0  0  0  0  0  0  0  0  0  0  0
  146.2473  133.9780  156.8172 H   0  0  0  0  0  0  0  0  0  0  0  0
  145.3164  131.5968  156.6284 H   0  0  0  0  0  0  0  0  0  0  0  0
  145.3036  131.5356  158.3797 H   0  0  0  0  0  0  0  0  0  0  0  0
  143.3802  132.3655  157.0651 H   0  0  0  0  0  0  0  0  0  0  0  0
  149.7804  133.0667  157.4386 H   0  0  0  0  0  0  0  0  0  0  0  0
  147.7314  135.2908  157.9407 H   0  0  0  0  0  0  0  0  0  0  0  0
  148.7131  134.5591  159.1786 H   0  0  0  0  0  0  0  0  0  0  0  0
  149.6534  136.7214  158.4631 H   0  0  0  0  0  0  0  0  0  0  0  0
  150.7808  135.4124  158.1442 H   0  0  0  0  0  0  0  0  0  0  0  0
  153.2615  138.0558  154.3513 H   0  0  0  0  0  0  0  0  0  0  0  0
  148.7797  141.1150  157.8178 H   0  0  0  0  0  0  0  0  0  0  0  0
  152.0014  142.1461  155.9702 H   0  0  0  0  0  0  0  0  0  0  0  0
  150.3680  142.7037  155.7132 H   0  0  0  0  0  0  0  0  0  0  0  0
  149.4128  143.8998  157.4077 H   0  0  0  0  0  0  0  0  0  0  0  0
  150.9352  141.5857  159.4730 H   0  0  0  0  0  0  0  0  0  0  0  0
  152.4395  141.4984  158.5600 H   0  0  0  0  0  0  0  0  0  0  0  0
  151.5914  143.8052  160.3539 H   0  0  0  0  0  0  0  0  0  0  0  0
  153.0900  142.8645  160.4370 H   0  0  0  0  0  0  0  0  0  0  0  0
  152.5361  144.2784  156.7638 H   0  0  0  0  0  0  0  0  0  0  0  0
  151.4000  145.1444  157.7876 H   0  0  0  0  0  0  0  0  0  0  0  0
  149.9625  135.4044  154.4796 H   0  0  0  0  0  0  0  0  0  0  0  0
  150.9672  134.6126  155.6701 H   0  0  0  0  0  0  0  0  0  0  0  0
  149.0610  133.2029  155.0712 H   0  0  0  0  0  0  0  0  0  0  0  0
  147.9194  134.4723  155.4651 H   0  0  0  0  0  0  0  0  0  0  0  0
  147.6901  131.9849  156.7054 H   0  0  0  0  0  0  0  0  0  0  0  0
  1  2  1  0  0  0  0
  1 28  1  0  0  0  0
  1 29  1  0  0  0  0
  1 30  1  0  0  0  0
  2  3  1  0  0  0  0
  2  6  1  0  0  0  0
  2 56  1  0  0  0  0
  3  4  1  0  0  0  0
  3 31  1  0  0  0  0
  3 32  1  0  0  0  0
  4  5  1  0  0  0  0
  4 33  1  0  0  0  0
  4 34  1  0  0  0  0
  5 35  1  0  0  0  0
  6 27  1  0  0  0  0
  6  7  1  0  0  0  0
  6 36  1  0  0  0  0
  7  8  1  0  0  0  0
  7 37  1  0  0  0  0
  7 38  1  0  0  0  0
  8  9  1  0  0  0  0
  8 39  1  0  0  0  0
  8 40  1  0  0  0  0
  9 10  1  0  0  0  0
  9 26  1  0  0  0  0
 10 15  1  0  0  0  0
 10 11  2  0  0  0  0
 11 12  1  0  0  0  0
 12 13  2  0  0  0  0
 12 41  1  0  0  0  0
 13 14  1  0  0  0  0
 14 18  1  0  0  0  0
 14 15  2  0  0  0  0
 15 16  1  0  0  0  0
 16 17  2  0  0  0  0
 17 18  1  0  0  0  0
 17 42  1  0  0  0  0
 18 19  1  0  0  0  0
 19 20  1  0  0  0  0
 19 43  1  0  0  0  0
 19 44  1  0  0  0  0
 20 25  1  0  0  0  0
 20 21  1  0  0  0  0
 20 22  1  0  0  0  0
 21 45  1  0  0  0  0
 22 23  1  0  0  0  0
 22 46  1  0  0  0  0
 22 47  1  0  0  0  0
 23 24  1  0  0  0  0
 23 48  1  0  0  0  0
 23 49  1  0  0  0  0
 24 25  1  0  0  0  0
 25 50  1  0  0  0  0
 25 51  1  0  0  0  0
 26 27  1  0  0  0  0
 26 52  1  0  0  0  0
 26 53  1  0  0  0  0
 27 54  1  0  0  0  0
 27 55  1  0  0  0  0
M  CHG  1   2   1
M  END
> <s_m_source_file>
AV-unprocessed.smi

> <i_m_source_file_index>
22

> <i_lp_mmshare_version>
43012

> <i_f3d_flags>
0

> <s_epik_input>
W09IXVtDSDJdW0NIMl1OKFtDSDNdKVtDSF0xW0NIMl1bQ0gyXU4oW0NIMl1bQ0gyXTEpYyhuW2NIXW4yKWMoYzIzKW5bY0hdbjNbQ0gyXVtDQEBdNChbT0hdKVtDSDJdW0NIMl1PW0NIMl00

> <s_epik_cmdline>
J2VwaWtfcHl0aG9uJywgJy1waCcsICc3LjAnLCAnLXRuJywgJzgnLCAnLW1hJywgJzIwMCcsICctbWV0YWxfYmluZGluZycsICctaW1hZScsICc8aW5maWxlLm1hZT4nLCAnLW9tYWUnLCAnPG91dGZpbGUubWFlPic=

> <r_lp_tautomer_probability>
1

> <r_epik_Ionization_Penalty>
0.00317524

> <r_epik_Ionization_Penalty_Charging>
0.00191487

> <r_epik_Ionization_Penalty_Neutral>
0.00126037

> <r_epik_State_Penalty>
-0

> <r_epik_Charging_Adjusted_Penalty>
0.00191487

> <i_epik_Tot_Q>
1

> <i_epik_Tot_abs_Q>
1

> <r_epik_Metal_State_Penalty>
-0

> <b_epik_Metal_Only>
0

> <s_lp_Force_Field>
OPLS_2005

> <r_lp_Energy>
47.7053

> <b_lp_Chiralities_Consistent>
1

> <s_lp_Variant>
AV-unprocessed.smi:22-2

> <Gold.Version>
5.8.1

> <Gold.Id.Protein>
6NUR|6NUR_protein|mol2

> <Gold.PLP.Fitness>
48.1621

> <Gold.PLP.PLP>
-39.0860

> <Gold.PLP.part.hbond>
-4.0000

> <Gold.PLP.part.metal>
0.0000

> <Gold.PLP.part.buried>
-7.6697

> <Gold.PLP.part.nonpolar>
-27.5253

> <Gold.PLP.part.repulsive>
0.2404

> <Gold.PLP.ligand.clash>
0.0000

> <Gold.PLP.ligand.torsion>
1.1666

> <Gold.PLP.Chemscore.Hbond>
3.6082

> <Gold.PLP.Chemscore.CHOScore>
0.0000

> <Gold.PLP.Chemscore.Metal>
0.0000

> <Gold.Chemscore.Hbonds>
donor molecule, donor type, donor heavy atom, donor atom, acceptor molecule, acceptor atom, score
      L1  H     5    35       P1 10957  0.06
      L1  H    21    45       P1  8028  1.00
      P1  H  7989  7998       L1    13  0.33
      P1  H 10752 10764       L1    11  0.58

> <Gold.PLP.Chemscore.Internal.Correction>
0.5847

> <Gold.Rescore>
     Score         DG    S(hbond)    S(metal)    S(lipo)     H(rot)  DE(clash)    DE(int)     intcor
     12.22     -13.86       2.56        0.00      80.80       3.76       0.09       1.55       ----

> <Gold.Chemscore.Fitness>
12.2174

> <Gold.Chemscore.DG>
-13.8621

> <Gold.Chemscore.ZeroCoef>
-5.4800

> <Gold.Chemscore.Hbond>
2.5598

> <Gold.Chemscore.Metal>
0.0000

> <Gold.Chemscore.Lipo>
80.8009

> <Gold.Chemscore.Internal_Hbond>
0.0000

> <Gold.Chemscore.DEClash>
0.0945

> <Gold.Chemscore.DEInternal>
1.5502

> <Gold.Chemscore.Rot>
3.7583

> <Gold.Chemscore.Internal.Correction>
   9.000000E+99

> <Gold.Chemscore.Hbonds>
donor molecule, donor type, donor heavy atom, donor atom, acceptor molecule, acceptor atom, score
      L1  H     5    35       P1 10957  0.10
      L1  H    21    45       P1  8028  0.34
      P1  H  7989  7998       L1    13  0.10
      P1  H 10752 10764       L1    11  0.13

> <Gold.Chemscore.Hbond.Weighted>
-8.5497

> <Gold.Chemscore.Metal.Weighted>
-0.0000

> <Gold.Chemscore.Lipo.Weighted>
-9.4537

> <Gold.Chemscore.Internal_Hbond.Weighted>
0.0000

> <Gold.Chemscore.DEClash.Weighted>
0.0945

> <Gold.Chemscore.DEInternal.Weighted>
1.5502

> <Gold.Chemscore.Rot.Weighted>
9.6213

> <Gold.Chemscore.Internal.Correction.Weighted>
   9.000000E+99

> <Gold.Protein.RotatedTorsions>
[ 6907 6896 6895 6894 ] final  -88.71 input  -60.11 | X-H torsion
[ 7974 7965 7964 7962 ] final -115.02 input  175.53 | X-H torsion
[ 8008 7997 7996 7995 ] final  146.26 input   59.86 | X-H torsion
[ 10167 10162 10161 10158 ] final   73.70 input  -65.29 | X-H torsion
[ 10718 10713 10712 10709 ] final  -48.41 input   66.30 | X-H torsion
[ 10763 10752 10751 10750 ] final  -71.05 input  -60.55 | X-H torsion
[ 11005 11000 10999 10996 ] final   96.82 input  -57.11 | X-H torsion

> <Gold.Protein.ActiveResidues>
 VAL166  LYS551  ARG553  GLY616  TRP617  ASP618  TYR619  PRO620  LYS621  CYS622 
 ASP623  PHE694  ASN695  SER759  ASP760  ASP761  ALA762  ILE779  LEU786  VAL792 
 PHE793  MET794  SER795  GLU796  ALA797  LYS798  CYS799  TRP800  GLU811  SER814 

> <Gold.Protein.RotatedAtoms>
  150.6870  134.2700  159.4583 H   0  0  0  0  0  0  0  0  0  0  0  0  # atno 6907 bound_to 6896
  152.0623  134.9584  160.0584 H   0  0  0  0  0  0  0  0  0  0  0  0  # atno 6908 bound_to 6896
  152.1006  133.4213  159.4622 H   0  0  0  0  0  0  0  0  0  0  0  0  # atno 6909 bound_to 6896
  145.1133  140.8625  143.3857 H   0  0  0  0  0  0  0  0  0  0  0  0  # atno 7974 bound_to 7965
  156.2860  140.2187  156.5348 H   0  0  0  0  0  0  0  0  0  0  0  0  # atno 8008 bound_to 7997
  154.7419  140.0487  157.0840 H   0  0  0  0  0  0  0  0  0  0  0  0  # atno 8009 bound_to 7997
  155.0220  140.3125  155.4793 H   0  0  0  0  0  0  0  0  0  0  0  0  # atno 8010 bound_to 7997
  140.0217  144.5535  150.7577 H   0  0  0  0  0  0  0  0  0  0  0  0  # atno 10167 bound_to 10162
  156.1990  130.4155  149.9266 H   0  0  0  0  0  0  0  0  0  0  0  0  # atno 10718 bound_to 10713
  154.4264  135.5974  153.6041 H   0  0  0  0  0  0  0  0  0  0  0  0  # atno 10763 bound_to 10752
  152.9796  135.5964  154.3893 H   0  0  0  0  0  0  0  0  0  0  0  0  # atno 10764 bound_to 10752
  154.3725  135.2841  155.2237 H   0  0  0  0  0  0  0  0  0  0  0  0  # atno 10765 bound_to 10752
  139.8779  134.8970  156.4215 H   0  0  0  0  0  0  0  0  0  0  0  0  # atno 11005 bound_to 11000
  145.0823  139.2951  143.5777 LP  0  0  0  0  0  0  0  0  0  0  0  0  # atno 17320 bound_to 7965
  146.3525  140.0333  142.8649 LP  0  0  0  0  0  0  0  0  0  0  0  0  # atno 17321 bound_to 7965
  140.7340  143.2723  151.3849 LP  0  0  0  0  0  0  0  0  0  0  0  0  # atno 17342 bound_to 10162
  139.6135  144.1049  152.2323 LP  0  0  0  0  0  0  0  0  0  0  0  0  # atno 17343 bound_to 10162
  156.6982  130.8922  151.3596 LP  0  0  0  0  0  0  0  0  0  0  0  0  # atno 17370 bound_to 10713
  157.6975  130.9297  150.0686 LP  0  0  0  0  0  0  0  0  0  0  0  0  # atno 17371 bound_to 10713
  140.9130  133.7698  155.9815 LP  0  0  0  0  0  0  0  0  0  0  0  0  # atno 17394 bound_to 11000
  140.8525  134.2937  157.5269 LP  0  0  0  0  0  0  0  0  0  0  0  0  # atno 17395 bound_to 11000

$$$$
