AV-unprocessed.smi:535|AV-procd|sdf|2860|dock7
  -GOLD-   2262023353D 1   1.00000     0.00000
 Structure written by MMmdl.
 45 47  0  0  0  0  0  0  0  0  2 V2000
  156.9662  137.4224  158.6016 C   0  0  0  0  0  0  0  0  0  0  0  0
  156.1563  137.8891  159.6659 O   0  0  0  0  0  0  0  0  0  0  0  0
  155.0592  137.0304  159.9258 C   0  0  0  0  0  0  0  0  0  0  0  0
  153.8371  137.8805  160.2903 C   0  0  0  0  0  0  0  0  0  0  0  0
  153.3180  138.5934  159.1252 N   0  0  0  0  0  0  0  0  0  0  0  0
  153.1589  139.9361  158.9598 C   0  0  0  0  0  0  0  0  0  0  0  0
  153.5133  140.8629  159.9433 N   0  0  0  0  0  0  0  0  0  0  0  0
  154.5869  140.7207  160.9265 C   0  0  0  0  0  0  0  0  0  0  0  0
  154.0860  141.0068  162.3529 C   0  0  0  0  0  0  0  0  0  0  0  0
  153.4920  142.4193  162.4370 C   0  0  0  0  0  0  0  0  0  0  0  0
  152.4378  142.6220  161.3344 C   0  0  1  0  0  0  0  0  0  0  0  0
  151.8924  144.0563  161.3341 C   0  0  0  0  0  0  0  0  0  0  0  0
  153.0284  142.2423  159.9605 C   0  0  0  0  0  0  0  0  0  0  0  0
  152.5867  140.2891  157.8072 N   0  0  0  0  0  0  0  0  0  0  0  0
  152.3778  139.0737  157.1755 C   0  0  0  0  0  0  0  0  0  0  0  0
  152.7933  138.0373  157.9525 C   0  0  0  0  0  0  0  0  0  0  0  0
  152.6481  136.6147  157.5673 C   0  0  0  0  0  0  0  0  0  0  0  0
  153.0027  135.7108  158.3209 O   0  0  0  0  0  0  0  0  0  0  0  0
  152.0849  136.4690  156.3263 N   0  5  0  0  0  0  0  0  0  0  0  0
  151.6610  137.4901  155.5036 C   0  0  0  0  0  0  0  0  0  0  0  0
  151.1599  137.2705  154.4001 O   0  0  0  0  0  0  0  0  0  0  0  0
  151.7929  138.7914  155.9110 N   0  0  0  0  0  0  0  0  0  0  0  0
  151.3419  139.8975  155.0615 C   0  0  0  0  0  0  0  0  0  0  0  0
  157.7952  138.1119  158.4422 H   0  0  0  0  0  0  0  0  0  0  0  0
  156.3979  137.3580  157.6726 H   0  0  0  0  0  0  0  0  0  0  0  0
  157.3841  136.4401  158.8257 H   0  0  0  0  0  0  0  0  0  0  0  0
  154.8433  136.4171  159.0493 H   0  0  0  0  0  0  0  0  0  0  0  0
  155.3042  136.3568  160.7488 H   0  0  0  0  0  0  0  0  0  0  0  0
  153.0641  137.2524  160.7193 H   0  0  0  0  0  0  0  0  0  0  0  0
  154.0794  138.5870  161.0811 H   0  0  0  0  0  0  0  0  0  0  0  0
  155.0354  139.7300  160.8618 H   0  0  0  0  0  0  0  0  0  0  0  0
  155.3864  141.4179  160.6726 H   0  0  0  0  0  0  0  0  0  0  0  0
  153.3301  140.2747  162.6387 H   0  0  0  0  0  0  0  0  0  0  0  0
  154.9042  140.9031  163.0655 H   0  0  0  0  0  0  0  0  0  0  0  0
  153.0522  142.5830  163.4212 H   0  0  0  0  0  0  0  0  0  0  0  0
  154.2900  143.1544  162.3243 H   0  0  0  0  0  0  0  0  0  0  0  0
  151.6018  141.9509  161.5378 H   0  0  0  0  0  0  0  0  0  0  0  0
  152.6813  144.7801  161.1271 H   0  0  0  0  0  0  0  0  0  0  0  0
  151.4527  144.3097  162.2991 H   0  0  0  0  0  0  0  0  0  0  0  0
  151.1188  144.1812  160.5762 H   0  0  0  0  0  0  0  0  0  0  0  0
  153.8445  142.9158  159.6948 H   0  0  0  0  0  0  0  0  0  0  0  0
  152.2644  142.3640  159.1915 H   0  0  0  0  0  0  0  0  0  0  0  0
  151.8507  139.8720  154.0970 H   0  0  0  0  0  0  0  0  0  0  0  0
  151.5356  140.8745  155.5036 H   0  0  0  0  0  0  0  0  0  0  0  0
  150.2680  139.8268  154.8831 H   0  0  0  0  0  0  0  0  0  0  0  0
  1  2  1  0  0  0  0
  1 24  1  0  0  0  0
  1 25  1  0  0  0  0
  1 26  1  0  0  0  0
  2  3  1  0  0  0  0
  3  4  1  0  0  0  0
  3 27  1  0  0  0  0
  3 28  1  0  0  0  0
  4  5  1  0  0  0  0
  4 29  1  0  0  0  0
  4 30  1  0  0  0  0
  5 16  1  0  0  0  0
  5  6  1  0  0  0  0
  6  7  1  0  0  0  0
  6 14  2  0  0  0  0
  7 13  1  0  0  0  0
  7  8  1  0  0  0  0
  8  9  1  0  0  0  0
  8 31  1  0  0  0  0
  8 32  1  0  0  0  0
  9 10  1  0  0  0  0
  9 33  1  0  0  0  0
  9 34  1  0  0  0  0
 10 11  1  0  0  0  0
 10 35  1  0  0  0  0
 10 36  1  0  0  0  0
 11 12  1  0  0  0  0
 11 13  1  0  0  0  0
 11 37  1  0  0  0  0
 12 38  1  0  0  0  0
 12 39  1  0  0  0  0
 12 40  1  0  0  0  0
 13 41  1  0  0  0  0
 13 42  1  0  0  0  0
 14 15  1  0  0  0  0
 15 22  1  0  0  0  0
 15 16  2  0  0  0  0
 16 17  1  0  0  0  0
 17 18  2  0  0  0  0
 17 19  1  0  0  0  0
 19 20  1  0  0  0  0
 20 21  2  0  0  0  0
 20 22  1  0  0  0  0
 22 23  1  0  0  0  0
 23 43  1  0  0  0  0
 23 44  1  0  0  0  0
 23 45  1  0  0  0  0
M  CHG  1  19  -1
M  END
> <s_m_source_file>
AV-unprocessed.smi

> <i_m_source_file_index>
535

> <i_lp_mmshare_version>
43012

> <i_f3d_flags>
0

> <s_epik_input>
W0NIM11uMWMoPU8pW25IXWMoPU8pYyhjMTIpbihbQ0gyXVtDSDJdT1tDSDNdKWMobjIpTjNbQ0gyXVtDSDJdW0NIMl1bQ0BASF0oW0NIM10pW0NIMl0z

> <s_epik_cmdline>
J2VwaWtfcHl0aG9uJywgJy1waCcsICc3LjAnLCAnLXRuJywgJzgnLCAnLW1hJywgJzIwMCcsICctbWV0YWxfYmluZGluZycsICctaW1hZScsICc8aW5maWxlLm1hZT4nLCAnLW9tYWUnLCAnPG91dGZpbGUubWFlPic=

> <r_lp_tautomer_probability>
1

> <r_epik_Ionization_Penalty>
5.11375

> <r_epik_Ionization_Penalty_Charging>
0.0788329

> <r_epik_Ionization_Penalty_Neutral>
5.03492

> <r_epik_State_Penalty>
5.02848

> <r_epik_Charging_Adjusted_Penalty>
5.10731

> <i_epik_Tot_Q>
-1

> <i_epik_Tot_abs_Q>
1

> <r_epik_Metal_State_Penalty>
1.14014

> <b_epik_Metal_Only>
1

> <s_lp_Force_Field>
OPLS_2005

> <r_lp_Energy>
43.1913

> <b_lp_Chiralities_Consistent>
1

> <s_lp_Variant>
AV-unprocessed.smi:535-3

> <Gold.Version>
5.8.1

> <Gold.Id.Protein>
6NUR|6NUR_protein|mol2

> <Gold.PLP.Fitness>
44.6648

> <Gold.PLP.PLP>
-38.7556

> <Gold.PLP.part.hbond>
-3.0000

> <Gold.PLP.part.metal>
0.0000

> <Gold.PLP.part.buried>
-1.7000

> <Gold.PLP.part.nonpolar>
-34.2464

> <Gold.PLP.part.repulsive>
0.2186

> <Gold.PLP.ligand.clash>
0.0000

> <Gold.PLP.ligand.torsion>
0.5297

> <Gold.PLP.Chemscore.Hbond>
2.1602

> <Gold.PLP.Chemscore.CHOScore>
0.0000

> <Gold.PLP.Chemscore.Metal>
0.0000

> <Gold.Chemscore.Hbonds>
donor molecule, donor type, donor heavy atom, donor atom, acceptor molecule, acceptor atom, score
      P1  H  6896  6908       L1    18  0.15
      P1  H 10752 10765       L1    19  2.00

> <Gold.PLP.Chemscore.Internal.Correction>
0.4881

> <Gold.Rescore>
     Score         DG    S(hbond)    S(metal)    S(lipo)     H(rot)  DE(clash)    DE(int)     intcor
     12.29     -13.91       0.54        0.00      88.01       1.44       0.02       1.60       ----

> <Gold.Chemscore.Fitness>
12.2933

> <Gold.Chemscore.DG>
-13.9118

> <Gold.Chemscore.ZeroCoef>
-5.4800

> <Gold.Chemscore.Hbond>
0.5431

> <Gold.Chemscore.Metal>
0.0000

> <Gold.Chemscore.Lipo>
88.0108

> <Gold.Chemscore.Internal_Hbond>
0.0000

> <Gold.Chemscore.DEClash>
0.0170

> <Gold.Chemscore.DEInternal>
1.6015

> <Gold.Chemscore.Rot>
1.4372

> <Gold.Chemscore.Internal.Correction>
   9.000000E+99

> <Gold.Chemscore.Hbonds>
donor molecule, donor type, donor heavy atom, donor atom, acceptor molecule, acceptor atom, score
      P1  H  6896  6908       L1    18  0.15
      P1  H 10752 10765       L1    19  0.22

> <Gold.Chemscore.Hbond.Weighted>
-1.8139

> <Gold.Chemscore.Metal.Weighted>
-0.0000

> <Gold.Chemscore.Lipo.Weighted>
-10.2973

> <Gold.Chemscore.Internal_Hbond.Weighted>
0.0000

> <Gold.Chemscore.DEClash.Weighted>
0.0170

> <Gold.Chemscore.DEInternal.Weighted>
1.6015

> <Gold.Chemscore.Rot.Weighted>
3.6793

> <Gold.Chemscore.Internal.Correction.Weighted>
   9.000000E+99

> <Gold.Protein.RotatedTorsions>
[ 6907 6896 6895 6894 ] final -108.13 input  -60.11 | X-H torsion
[ 7974 7965 7964 7962 ] final -179.64 input  175.53 | X-H torsion
[ 8008 7997 7996 7995 ] final  -29.58 input   59.86 | X-H torsion
[ 10167 10162 10161 10158 ] final  -75.65 input  -65.29 | X-H torsion
[ 10718 10713 10712 10709 ] final  164.83 input   66.30 | X-H torsion
[ 10763 10752 10751 10750 ] final -146.57 input  -60.55 | X-H torsion
[ 11005 11000 10999 10996 ] final -171.51 input  -57.11 | X-H torsion

> <Gold.Protein.ActiveResidues>
 VAL166  LYS551  ARG553  GLY616  TRP617  ASP618  TYR619  PRO620  LYS621  CYS622 
 ASP623  PHE694  ASN695  SER759  ASP760  ASP761  ALA762  ILE779  LEU786  VAL792 
 PHE793  MET794  SER795  GLU796  ALA797  LYS798  CYS799  TRP800  GLU811  SER814 

> <Gold.Protein.RotatedAtoms>
  150.7484  133.9723  159.3549 H   0  0  0  0  0  0  0  0  0  0  0  0  # atno 6907 bound_to 6896
  151.7657  135.0797  160.0362 H   0  0  0  0  0  0  0  0  0  0  0  0  # atno 6908 bound_to 6896
  152.3373  133.5989  159.5887 H   0  0  0  0  0  0  0  0  0  0  0  0  # atno 6909 bound_to 6896
  144.7138  140.0687  143.6430 H   0  0  0  0  0  0  0  0  0  0  0  0  # atno 7974 bound_to 7965
  154.4284  140.1814  156.1270 H   0  0  0  0  0  0  0  0  0  0  0  0  # atno 8008 bound_to 7997
  156.0097  140.3352  155.6903 H   0  0  0  0  0  0  0  0  0  0  0  0  # atno 8009 bound_to 7997
  155.6127  140.0651  157.2692 H   0  0  0  0  0  0  0  0  0  0  0  0  # atno 8010 bound_to 7997
  140.4924  143.2377  151.7885 H   0  0  0  0  0  0  0  0  0  0  0  0  # atno 10167 bound_to 10162
  157.0888  131.0412  151.2545 H   0  0  0  0  0  0  0  0  0  0  0  0  # atno 10718 bound_to 10713
  154.8329  135.3383  154.6682 H   0  0  0  0  0  0  0  0  0  0  0  0  # atno 10763 bound_to 10752
  153.7300  135.6952  153.4996 H   0  0  0  0  0  0  0  0  0  0  0  0  # atno 10764 bound_to 10752
  153.2319  135.4413  155.0557 H   0  0  0  0  0  0  0  0  0  0  0  0  # atno 10765 bound_to 10752
  140.5074  134.5834  157.5008 H   0  0  0  0  0  0  0  0  0  0  0  0  # atno 11005 bound_to 11000
  145.9802  139.2935  143.1047 LP  0  0  0  0  0  0  0  0  0  0  0  0  # atno 17320 bound_to 7965
  145.9019  140.9237  143.0498 LP  0  0  0  0  0  0  0  0  0  0  0  0  # atno 17321 bound_to 7965
  139.4854  144.4632  151.9516 LP  0  0  0  0  0  0  0  0  0  0  0  0  # atno 17342 bound_to 10162
  140.3719  144.2845  150.5919 LP  0  0  0  0  0  0  0  0  0  0  0  0  # atno 17343 bound_to 10162
  157.4738  130.7725  149.7349 LP  0  0  0  0  0  0  0  0  0  0  0  0  # atno 17370 bound_to 10713
  155.9903  130.3945  150.3032 LP  0  0  0  0  0  0  0  0  0  0  0  0  # atno 17371 bound_to 10713
  139.9678  134.7343  156.0102 LP  0  0  0  0  0  0  0  0  0  0  0  0  # atno 17394 bound_to 11000
  141.1403  133.6566  156.3712 LP  0  0  0  0  0  0  0  0  0  0  0  0  # atno 17395 bound_to 11000

$$$$
