AV-unprocessed.smi:1027|AV-procd|sdf|4471|dock7
  -GOLD-   22720 2443D 1   1.00000     0.00000
 Structure written by MMmdl.
 34 35  0  0  0  0  0  0  0  0  2 V2000
  151.7868  138.8069  154.8566 C   0  0  0  0  0  0  0  0  0  0  0  0
  151.5529  137.4891  155.6176 C   0  0  0  0  0  0  0  0  0  0  0  0
  150.6981  136.5429  154.7514 C   0  0  0  0  0  0  0  0  0  0  0  0
  150.9341  137.7176  157.0223 C   0  0  2  0  0  0  0  0  0  0  0  0
  149.5435  138.3791  156.9760 C   0  0  0  0  0  0  0  0  0  0  0  0
  151.8247  138.5471  157.8352 N   0  0  0  0  0  0  0  0  0  0  0  0
  152.3707  138.2140  159.0142 C   0  0  0  0  0  0  0  0  0  0  0  0
  152.1239  137.1172  159.5212 O   0  0  0  0  0  0  0  0  0  0  0  0
  153.1707  139.1738  159.5323 N   0  5  0  0  0  0  0  0  0  0  0  0
  152.7348  140.4422  159.6082 C   0  0  0  0  0  0  0  0  0  0  0  0
  151.4782  140.7899  159.2975 N   0  0  0  0  0  0  0  0  0  0  0  0
  151.2375  142.1484  159.4430 N   0  0  0  0  0  0  0  0  0  0  0  0
  152.3209  142.8107  159.8553 C   0  0  0  0  0  0  0  0  0  0  0  0
  152.3155  144.2842  160.0906 C   0  0  0  0  0  0  0  0  0  0  0  0
  151.0457  145.0995  159.9772 C   0  0  0  0  0  0  0  0  0  0  0  0
  152.1308  145.2490  158.9417 C   0  0  0  0  0  0  0  0  0  0  0  0
  153.7422  141.8061  160.0919 S   0  0  0  0  0  0  0  0  0  0  0  0
  150.8598  139.3703  154.7466 H   0  0  0  0  0  0  0  0  0  0  0  0
  152.1795  138.6181  153.8571 H   0  0  0  0  0  0  0  0  0  0  0  0
  152.5105  139.4450  155.3624 H   0  0  0  0  0  0  0  0  0  0  0  0
  152.5257  137.0134  155.7506 H   0  0  0  0  0  0  0  0  0  0  0  0
  149.6897  136.9356  154.6169 H   0  0  0  0  0  0  0  0  0  0  0  0
  150.6119  135.5504  155.1940 H   0  0  0  0  0  0  0  0  0  0  0  0
  151.1372  136.4113  153.7622 H   0  0  0  0  0  0  0  0  0  0  0  0
  150.8309  136.7417  157.5005 H   0  0  0  0  0  0  0  0  0  0  0  0
  148.8079  137.7417  156.4870 H   0  0  0  0  0  0  0  0  0  0  0  0
  149.5740  139.3295  156.4425 H   0  0  0  0  0  0  0  0  0  0  0  0
  149.1680  138.5764  157.9807 H   0  0  0  0  0  0  0  0  0  0  0  0
  152.0566  139.4570  157.4645 H   0  0  0  0  0  0  0  0  0  0  0  0
  153.0234  144.5512  160.8727 H   0  0  0  0  0  0  0  0  0  0  0  0
  150.1332  144.5922  159.6705 H   0  0  0  0  0  0  0  0  0  0  0  0
  150.9097  145.9155  160.6837 H   0  0  0  0  0  0  0  0  0  0  0  0
  152.7188  146.1644  158.9562 H   0  0  0  0  0  0  0  0  0  0  0  0
  151.9436  144.8296  157.9551 H   0  0  0  0  0  0  0  0  0  0  0  0
  1  2  1  0  0  0  0
  1 18  1  0  0  0  0
  1 19  1  0  0  0  0
  1 20  1  0  0  0  0
  2  3  1  0  0  0  0
  2  4  1  0  0  0  0
  2 21  1  0  0  0  0
  3 22  1  0  0  0  0
  3 23  1  0  0  0  0
  3 24  1  0  0  0  0
  4  5  1  0  0  0  0
  4  6  1  0  0  0  0
  4 25  1  0  0  0  0
  5 26  1  0  0  0  0
  5 27  1  0  0  0  0
  5 28  1  0  0  0  0
  6  7  1  0  0  0  0
  6 29  1  0  0  0  0
  7  8  2  0  0  0  0
  7  9  1  0  0  0  0
  9 10  1  0  0  0  0
 10 17  1  0  0  0  0
 10 11  2  0  0  0  0
 11 12  1  0  0  0  0
 12 13  2  0  0  0  0
 13 14  1  0  0  0  0
 13 17  1  0  0  0  0
 14 16  1  0  0  0  0
 14 15  1  0  0  0  0
 14 30  1  0  0  0  0
 15 16  1  0  0  0  0
 15 31  1  0  0  0  0
 15 32  1  0  0  0  0
 16 33  1  0  0  0  0
 16 34  1  0  0  0  0
M  CHG  1   9  -1
M  END
> <s_m_source_file>
AV-unprocessed.smi

> <i_m_source_file_index>
1027

> <i_lp_mmshare_version>
43012

> <i_f3d_flags>
0

> <s_epik_input>
W0NIM11bQ0hdKFtDSDNdKVtDQEhdKFtDSDNdKVtOSF1DKD1PKVtOSF1jMW5uYyhzMSlbQ0hdMltDSDJdW0NIMl0y

> <s_epik_cmdline>
J2VwaWtfcHl0aG9uJywgJy1waCcsICc3LjAnLCAnLXRuJywgJzgnLCAnLW1hJywgJzIwMCcsICctbWV0YWxfYmluZGluZycsICctaW1hZScsICc8aW5maWxlLm1hZT4nLCAnLW9tYWUnLCAnPG91dGZpbGUubWFlPic=

> <r_lp_tautomer_probability>
1

> <r_epik_Ionization_Penalty>
3.99975

> <r_epik_Ionization_Penalty_Charging>
3.83446

> <r_epik_Ionization_Penalty_Neutral>
0.165297

> <r_epik_State_Penalty>
3.83354

> <r_epik_Charging_Adjusted_Penalty>
7.668

> <i_epik_Tot_Q>
-1

> <i_epik_Tot_abs_Q>
1

> <r_epik_Metal_State_Penalty>
0.575872

> <b_epik_Metal_Only>
1

> <s_lp_Force_Field>
OPLS_2005

> <r_lp_Energy>
2.28672

> <b_lp_Chiralities_Consistent>
1

> <s_lp_Variant>
AV-unprocessed.smi:1027-3

> <Gold.Version>
5.8.1

> <Gold.Id.Protein>
6NUR|6NUR_protein|mol2

> <Gold.PLP.Fitness>
36.0173

> <Gold.PLP.PLP>
-33.9393

> <Gold.PLP.part.hbond>
-1.4798

> <Gold.PLP.part.metal>
0.0000

> <Gold.PLP.part.buried>
-5.5414

> <Gold.PLP.part.nonpolar>
-27.2993

> <Gold.PLP.part.repulsive>
0.0500

> <Gold.PLP.ligand.clash>
0.0000

> <Gold.PLP.ligand.torsion>
0.5274

> <Gold.PLP.Chemscore.Hbond>
0.9913

> <Gold.PLP.Chemscore.CHOScore>
0.0000

> <Gold.PLP.Chemscore.Metal>
0.0000

> <Gold.Chemscore.Hbonds>
donor molecule, donor type, donor heavy atom, donor atom, acceptor molecule, acceptor atom, score
      P1  H  6896  6908       L1     8  0.91

> <Gold.PLP.Chemscore.Internal.Correction>
0.1589

> <Gold.Rescore>
     Score         DG    S(hbond)    S(metal)    S(lipo)     H(rot)  DE(clash)    DE(int)     intcor
     13.45     -15.49       0.97        0.00      87.57       1.36       0.01       2.03       ----

> <Gold.Chemscore.Fitness>
13.4523

> <Gold.Chemscore.DG>
-15.4936

> <Gold.Chemscore.ZeroCoef>
-5.4800

> <Gold.Chemscore.Hbond>
0.9743

> <Gold.Chemscore.Metal>
0.0000

> <Gold.Chemscore.Lipo>
87.5686

> <Gold.Chemscore.Internal_Hbond>
0.0000

> <Gold.Chemscore.DEClash>
0.0144

> <Gold.Chemscore.DEInternal>
2.0268

> <Gold.Chemscore.Rot>
1.3618

> <Gold.Chemscore.Internal.Correction>
   9.000000E+99

> <Gold.Chemscore.Hbonds>
donor molecule, donor type, donor heavy atom, donor atom, acceptor molecule, acceptor atom, score
      P1  H  6896  6908       L1     8  0.87

> <Gold.Chemscore.Hbond.Weighted>
-3.2543

> <Gold.Chemscore.Metal.Weighted>
-0.0000

> <Gold.Chemscore.Lipo.Weighted>
-10.2455

> <Gold.Chemscore.Internal_Hbond.Weighted>
0.0000

> <Gold.Chemscore.DEClash.Weighted>
0.0144

> <Gold.Chemscore.DEInternal.Weighted>
2.0268

> <Gold.Chemscore.Rot.Weighted>
3.4863

> <Gold.Chemscore.Internal.Correction.Weighted>
   9.000000E+99

> <Gold.Protein.RotatedTorsions>
[ 6907 6896 6895 6894 ] final -118.89 input  -60.11 | X-H torsion
[ 7974 7965 7964 7962 ] final  -57.99 input  175.53 | X-H torsion
[ 8008 7997 7996 7995 ] final -129.23 input   59.86 | X-H torsion
[ 10167 10162 10161 10158 ] final   85.87 input  -65.29 | X-H torsion
[ 10718 10713 10712 10709 ] final   51.46 input   66.30 | X-H torsion
[ 10763 10752 10751 10750 ] final  163.54 input  -60.55 | X-H torsion
[ 11005 11000 10999 10996 ] final -172.55 input  -57.11 | X-H torsion

> <Gold.Protein.ActiveResidues>
 VAL166  LYS551  ARG553  GLY616  TRP617  ASP618  TYR619  PRO620  LYS621  CYS622 
 ASP623  PHE694  ASN695  SER759  ASP760  ASP761  ALA762  ILE779  LEU786  VAL792 
 PHE793  MET794  SER795  GLU796  ALA797  LYS798  CYS799  TRP800  GLU811  SER814 

> <Gold.Protein.RotatedAtoms>
  150.8258  133.8175  159.3119 H   0  0  0  0  0  0  0  0  0  0  0  0  # atno 6907 bound_to 6896
  151.5919  135.1051  160.0050 H   0  0  0  0  0  0  0  0  0  0  0  0  # atno 6908 bound_to 6896
  152.4343  133.7291  159.6634 H   0  0  0  0  0  0  0  0  0  0  0  0  # atno 6909 bound_to 6896
  145.8446  140.8394  143.0017 H   0  0  0  0  0  0  0  0  0  0  0  0  # atno 7974 bound_to 7965
  155.2757  140.0442  157.3011 H   0  0  0  0  0  0  0  0  0  0  0  0  # atno 8008 bound_to 7997
  154.5626  140.2350  155.8280 H   0  0  0  0  0  0  0  0  0  0  0  0  # atno 8009 bound_to 7997
  156.2060  140.3012  155.9635 H   0  0  0  0  0  0  0  0  0  0  0  0  # atno 8010 bound_to 7997
  139.8933  144.6373  150.8715 H   0  0  0  0  0  0  0  0  0  0  0  0  # atno 10167 bound_to 10162
  157.4983  130.8421  149.8285 H   0  0  0  0  0  0  0  0  0  0  0  0  # atno 10718 bound_to 10713
  154.2952  135.2760  155.2636 H   0  0  0  0  0  0  0  0  0  0  0  0  # atno 10763 bound_to 10752
  154.5097  135.5785  153.6599 H   0  0  0  0  0  0  0  0  0  0  0  0  # atno 10764 bound_to 10752
  152.9908  135.6178  154.3119 H   0  0  0  0  0  0  0  0  0  0  0  0  # atno 10765 bound_to 10752
  140.4958  134.5941  157.4970 H   0  0  0  0  0  0  0  0  0  0  0  0  # atno 11005 bound_to 11000
  144.6732  140.0863  143.7467 LP  0  0  0  0  0  0  0  0  0  0  0  0  # atno 17320 bound_to 7965
  145.9427  139.2679  143.1259 LP  0  0  0  0  0  0  0  0  0  0  0  0  # atno 17321 bound_to 7965
  140.7722  143.3493  151.2046 LP  0  0  0  0  0  0  0  0  0  0  0  0  # atno 17342 bound_to 10162
  139.7090  143.9407  152.2939 LP  0  0  0  0  0  0  0  0  0  0  0  0  # atno 17343 bound_to 10162
  156.0214  130.3794  150.1952 LP  0  0  0  0  0  0  0  0  0  0  0  0  # atno 17370 bound_to 10713
  157.0141  130.9960  151.3358 LP  0  0  0  0  0  0  0  0  0  0  0  0  # atno 17371 bound_to 10713
  139.9742  134.7242  155.9981 LP  0  0  0  0  0  0  0  0  0  0  0  0  # atno 17394 bound_to 11000
  141.1461  133.6556  156.3872 LP  0  0  0  0  0  0  0  0  0  0  0  0  # atno 17395 bound_to 11000

$$$$
