AV-unprocessed.smi:671|AV-procd|sdf|3280|dock2
  -GOLD-   22720 0243D 1   1.00000     0.00000
 Structure written by MMmdl.
 49 50  0  0  0  0  0  0  0  0  1 V2000
  147.1932  140.9329  157.9429 C   0  0  0  0  0  0  0  0  0  0  0  0
  146.3882  141.8147  157.0316 C   0  0  0  0  0  0  0  0  0  0  0  0
  145.3941  142.5281  157.5341 N   0  0  0  0  0  0  0  0  0  0  0  0
  144.8834  143.1977  156.4814 N   0  0  0  0  0  0  0  0  0  0  0  0
  143.7569  144.0876  156.6863 C   0  0  0  0  0  0  0  0  0  0  0  0
  145.5525  142.9019  155.3097 C   0  0  0  0  0  0  0  0  0  0  0  0
  145.1750  143.5112  153.9976 C   0  0  0  0  0  0  0  0  0  0  0  0
  146.5409  142.0092  155.6274 C   0  0  0  0  0  0  0  0  0  0  0  0
  147.5565  141.3745  154.7128 C   0  0  0  0  0  0  0  0  0  0  0  0
  148.8663  141.0160  155.4494 C   0  0  1  0  0  0  0  0  0  0  0  0
  149.9577  140.5063  154.4949 C   0  0  0  0  0  0  0  0  0  0  0  0
  149.3813  142.1775  156.1787 N   0  0  0  0  0  0  0  0  0  0  0  0
  150.5479  142.2942  156.8396 C   0  0  0  0  0  0  0  0  0  0  0  0
  151.3615  141.3736  156.8882 O   0  0  0  0  0  0  0  0  0  0  0  0
  150.7463  143.4914  157.4160 N   0  0  0  0  0  0  0  0  0  0  0  0
  151.9213  143.8799  158.1895 C   0  0  1  0  0  0  0  0  0  0  0  0
  151.6976  145.2631  158.8271 C   0  0  0  0  0  0  0  0  0  0  0  0
  151.4695  145.0049  160.3154 C   0  0  0  0  0  0  0  0  0  0  0  0
  152.3252  143.7770  160.6065 C   0  0  0  0  0  0  0  0  0  0  0  0
  152.1687  142.8991  159.3596 C   0  0  2  0  0  0  0  0  0  0  0  0
  153.3563  141.9541  159.1324 C   0  0  0  0  0  0  0  0  0  0  0  0
  146.8672  139.8958  157.8667 H   0  0  0  0  0  0  0  0  0  0  0  0
  147.0970  141.2365  158.9858 H   0  0  0  0  0  0  0  0  0  0  0  0
  148.2523  140.9673  157.6885 H   0  0  0  0  0  0  0  0  0  0  0  0
  142.8419  143.6014  156.3483 H   0  0  0  0  0  0  0  0  0  0  0  0
  143.9024  145.0076  156.1202 H   0  0  0  0  0  0  0  0  0  0  0  0
  143.6559  144.3407  157.7426 H   0  0  0  0  0  0  0  0  0  0  0  0
  145.7366  143.0635  153.1784 H   0  0  0  0  0  0  0  0  0  0  0  0
  145.3791  144.5820  153.9957 H   0  0  0  0  0  0  0  0  0  0  0  0
  144.1144  143.3669  153.7916 H   0  0  0  0  0  0  0  0  0  0  0  0
  147.1507  140.4775  154.2440 H   0  0  0  0  0  0  0  0  0  0  0  0
  147.7721  142.0513  153.8856 H   0  0  0  0  0  0  0  0  0  0  0  0
  148.6669  140.2159  156.1644 H   0  0  0  0  0  0  0  0  0  0  0  0
  149.6449  139.5977  153.9800 H   0  0  0  0  0  0  0  0  0  0  0  0
  150.8739  140.2708  155.0374 H   0  0  0  0  0  0  0  0  0  0  0  0
  150.2023  141.2511  153.7367 H   0  0  0  0  0  0  0  0  0  0  0  0
  148.8072  143.0074  156.1370 H   0  0  0  0  0  0  0  0  0  0  0  0
  150.0215  144.1866  157.3151 H   0  0  0  0  0  0  0  0  0  0  0  0
  152.7938  143.9391  157.5359 H   0  0  0  0  0  0  0  0  0  0  0  0
  152.6003  145.8628  158.7046 H   0  0  0  0  0  0  0  0  0  0  0  0
  150.8791  145.8247  158.3747 H   0  0  0  0  0  0  0  0  0  0  0  0
  151.7354  145.8607  160.9362 H   0  0  0  0  0  0  0  0  0  0  0  0
  150.4185  144.7737  160.4944 H   0  0  0  0  0  0  0  0  0  0  0  0
  153.3659  144.0817  160.7259 H   0  0  0  0  0  0  0  0  0  0  0  0
  152.0234  143.2638  161.5199 H   0  0  0  0  0  0  0  0  0  0  0  0
  151.2748  142.2900  159.5076 H   0  0  0  0  0  0  0  0  0  0  0  0
  154.2835  142.5090  158.9886 H   0  0  0  0  0  0  0  0  0  0  0  0
  153.1984  141.3351  158.2491 H   0  0  0  0  0  0  0  0  0  0  0  0
  153.4943  141.2876  159.9841 H   0  0  0  0  0  0  0  0  0  0  0  0
  1  2  1  0  0  0  0
  1 22  1  0  0  0  0
  1 23  1  0  0  0  0
  1 24  1  0  0  0  0
  2  8  1  0  0  0  0
  2  3  2  0  0  0  0
  3  4  1  0  0  0  0
  4  5  1  0  0  0  0
  4  6  1  0  0  0  0
  5 25  1  0  0  0  0
  5 26  1  0  0  0  0
  5 27  1  0  0  0  0
  6  7  1  0  0  0  0
  6  8  2  0  0  0  0
  7 28  1  0  0  0  0
  7 29  1  0  0  0  0
  7 30  1  0  0  0  0
  8  9  1  0  0  0  0
  9 10  1  0  0  0  0
  9 31  1  0  0  0  0
  9 32  1  0  0  0  0
 10 11  1  0  0  0  0
 10 12  1  0  0  0  0
 10 33  1  0  0  0  0
 11 34  1  0  0  0  0
 11 35  1  0  0  0  0
 11 36  1  0  0  0  0
 12 13  1  0  0  0  0
 12 37  1  0  0  0  0
 13 14  2  0  0  0  0
 13 15  1  0  0  0  0
 15 16  1  0  0  0  0
 15 38  1  0  0  0  0
 16 20  1  0  0  0  0
 16 17  1  0  0  0  0
 16 39  1  0  0  0  0
 17 18  1  0  0  0  0
 17 40  1  0  0  0  0
 17 41  1  0  0  0  0
 18 19  1  0  0  0  0
 18 42  1  0  0  0  0
 18 43  1  0  0  0  0
 19 20  1  0  0  0  0
 19 44  1  0  0  0  0
 19 45  1  0  0  0  0
 20 21  1  0  0  0  0
 20 46  1  0  0  0  0
 21 47  1  0  0  0  0
 21 48  1  0  0  0  0
 21 49  1  0  0  0  0
M  END
> <s_m_source_file>
AV-unprocessed.smi

> <i_m_source_file_index>
671

> <i_lp_mmshare_version>
43012

> <i_f3d_flags>
0

> <s_epik_input>
W0NIM11jMW5uKFtDSDNdKWMoW0NIM10pYzFbQ0gyXVtDQEhdKFtDSDNdKVtOSF1DKD1PKVtOSF1bQ0BASF0yW0NIMl1bQ0gyXVtDSDJdW0NASF0yW0NIM10=

> <s_epik_cmdline>
J2VwaWtfcHl0aG9uJywgJy1waCcsICc3LjAnLCAnLXRuJywgJzgnLCAnLW1hJywgJzIwMCcsICctbWV0YWxfYmluZGluZycsICctaW1hZScsICc8aW5maWxlLm1hZT4nLCAnLW9tYWUnLCAnPG91dGZpbGUubWFlPic=

> <r_lp_tautomer_probability>
1

> <r_epik_Ionization_Penalty>
0.0126855

> <r_epik_Ionization_Penalty_Charging>
0

> <r_epik_Ionization_Penalty_Neutral>
0.0126855

> <r_epik_State_Penalty>
0.00977547

> <r_epik_Charging_Adjusted_Penalty>
0.00977547

> <i_epik_Tot_Q>
0

> <i_epik_Tot_abs_Q>
0

> <r_epik_Metal_State_Penalty>
0.00957132

> <b_epik_Metal_Only>
0

> <s_lp_Force_Field>
OPLS_2005

> <r_lp_Energy>
22.0213

> <b_lp_Chiralities_Consistent>
1

> <s_lp_Variant>
AV-unprocessed.smi:671-8

> <Gold.Version>
5.8.1

> <Gold.Id.Protein>
6NUR|6NUR_protein|mol2

> <Gold.PLP.Fitness>
51.9357

> <Gold.PLP.PLP>
-47.3341

> <Gold.PLP.part.hbond>
-2.0000

> <Gold.PLP.part.metal>
0.0000

> <Gold.PLP.part.buried>
-5.6842

> <Gold.PLP.part.nonpolar>
-39.5628

> <Gold.PLP.part.repulsive>
0.2491

> <Gold.PLP.ligand.clash>
0.0000

> <Gold.PLP.ligand.torsion>
0.4992

> <Gold.PLP.Chemscore.Hbond>
1.8480

> <Gold.PLP.Chemscore.CHOScore>
0.0000

> <Gold.PLP.Chemscore.Metal>
0.0000

> <Gold.Chemscore.Hbonds>
donor molecule, donor type, donor heavy atom, donor atom, acceptor molecule, acceptor atom, score
      L1  H    12    37       P1  8028  0.83
      L1  H    15    38       P1  8028  0.60

> <Gold.PLP.Chemscore.Internal.Correction>
0.0561

> <Gold.Rescore>
     Score         DG    S(hbond)    S(metal)    S(lipo)     H(rot)  DE(clash)    DE(int)     intcor
     19.42     -21.30       1.94        0.00     111.65       1.45       0.22       1.65       ----

> <Gold.Chemscore.Fitness>
19.4243

> <Gold.Chemscore.DG>
-21.2957

> <Gold.Chemscore.ZeroCoef>
-5.4800

> <Gold.Chemscore.Hbond>
1.9354

> <Gold.Chemscore.Metal>
0.0000

> <Gold.Chemscore.Lipo>
111.6518

> <Gold.Chemscore.Internal_Hbond>
0.0000

> <Gold.Chemscore.DEClash>
0.2186

> <Gold.Chemscore.DEInternal>
1.6527

> <Gold.Chemscore.Rot>
1.4499

> <Gold.Chemscore.Internal.Correction>
   9.000000E+99

> <Gold.Chemscore.Hbonds>
donor molecule, donor type, donor heavy atom, donor atom, acceptor molecule, acceptor atom, score
      L1  H    12    37       P1  8028  0.83
      L1  H    15    38       P1  8028  0.38

> <Gold.Chemscore.Hbond.Weighted>
-6.4643

> <Gold.Chemscore.Metal.Weighted>
-0.0000

> <Gold.Chemscore.Lipo.Weighted>
-13.0633

> <Gold.Chemscore.Internal_Hbond.Weighted>
0.0000

> <Gold.Chemscore.DEClash.Weighted>
0.2186

> <Gold.Chemscore.DEInternal.Weighted>
1.6527

> <Gold.Chemscore.Rot.Weighted>
3.7118

> <Gold.Chemscore.Internal.Correction.Weighted>
   9.000000E+99

> <Gold.Protein.RotatedTorsions>
[ 6907 6896 6895 6894 ] final -144.47 input  -60.11 | X-H torsion
[ 7974 7965 7964 7962 ] final   87.32 input  175.53 | X-H torsion
[ 8008 7997 7996 7995 ] final -153.65 input   59.86 | X-H torsion
[ 10167 10162 10161 10158 ] final  -54.18 input  -65.29 | X-H torsion
[ 10718 10713 10712 10709 ] final    1.13 input   66.30 | X-H torsion
[ 10763 10752 10751 10750 ] final   92.75 input  -60.55 | X-H torsion
[ 11005 11000 10999 10996 ] final  -62.08 input  -57.11 | X-H torsion

> <Gold.Protein.ActiveResidues>
 VAL166  LYS551  ARG553  GLY616  TRP617  ASP618  TYR619  PRO620  LYS621  CYS622 
 ASP623  PHE694  ASN695  SER759  ASP760  ASP761  ALA762  ILE779  LEU786  VAL792 
 PHE793  MET794  SER795  GLU796  ALA797  LYS798  CYS799  TRP800  GLU811  SER814 

> <Gold.Protein.RotatedAtoms>
  151.1144  133.5149  159.2604 H   0  0  0  0  0  0  0  0  0  0  0  0  # atno 6907 bound_to 6896
  151.1931  135.0410  159.8851 H   0  0  0  0  0  0  0  0  0  0  0  0  # atno 6908 bound_to 6896
  152.5452  134.0982  159.8360 H   0  0  0  0  0  0  0  0  0  0  0  0  # atno 6909 bound_to 6896
  145.5605  139.2303  143.2462 H   0  0  0  0  0  0  0  0  0  0  0  0  # atno 7974 bound_to 7965
  155.6741  140.0736  157.2509 H   0  0  0  0  0  0  0  0  0  0  0  0  # atno 8008 bound_to 7997
  154.4118  140.1694  156.1962 H   0  0  0  0  0  0  0  0  0  0  0  0  # atno 8009 bound_to 7997
  155.9591  140.3371  155.6478 H   0  0  0  0  0  0  0  0  0  0  0  0  # atno 8010 bound_to 7997
  140.6444  143.2527  151.4899 H   0  0  0  0  0  0  0  0  0  0  0  0  # atno 10167 bound_to 10162
  156.8437  130.5529  149.5675 H   0  0  0  0  0  0  0  0  0  0  0  0  # atno 10718 bound_to 10713
  153.2227  135.4350  155.0507 H   0  0  0  0  0  0  0  0  0  0  0  0  # atno 10763 bound_to 10752
  154.8258  135.3360  154.6904 H   0  0  0  0  0  0  0  0  0  0  0  0  # atno 10764 bound_to 10752
  153.7335  135.7009  153.5040 H   0  0  0  0  0  0  0  0  0  0  0  0  # atno 10765 bound_to 10752
  141.1347  133.6636  156.5473 H   0  0  0  0  0  0  0  0  0  0  0  0  # atno 11005 bound_to 11000
  146.1854  140.6430  142.9170 LP  0  0  0  0  0  0  0  0  0  0  0  0  # atno 17320 bound_to 7965
  144.7485  140.5130  143.6818 LP  0  0  0  0  0  0  0  0  0  0  0  0  # atno 17321 bound_to 7965
  139.5654  144.2054  152.1757 LP  0  0  0  0  0  0  0  0  0  0  0  0  # atno 17342 bound_to 10162
  140.1334  144.5267  150.6788 LP  0  0  0  0  0  0  0  0  0  0  0  0  # atno 17343 bound_to 10162
  156.0866  130.5863  150.9660 LP  0  0  0  0  0  0  0  0  0  0  0  0  # atno 17370 bound_to 10713
  157.6342  131.0918  150.8382 LP  0  0  0  0  0  0  0  0  0  0  0  0  # atno 17371 bound_to 10713
  140.4092  134.7288  157.4825 LP  0  0  0  0  0  0  0  0  0  0  0  0  # atno 17394 bound_to 11000
  140.0440  134.6226  155.8945 LP  0  0  0  0  0  0  0  0  0  0  0  0  # atno 17395 bound_to 11000

$$$$
