AV-unprocessed.smi:2881|AV-procd|sdf|11061|dock6
  -GOLD-   2272015533D 1   1.00000     0.00000
 Structure written by MMmdl.
 40 42  0  0  0  0  0  0  0  0  1 V2000
  146.5147  134.1818  163.0480 C   0  0  0  0  0  0  0  0  0  0  0  0
  146.9851  135.0887  161.9622 C   0  0  0  0  0  0  0  0  0  0  0  0
  147.2606  134.8540  160.6449 C   0  0  0  0  0  0  0  0  0  0  0  0
  147.6587  136.1252  160.1346 C   0  0  0  0  0  0  0  0  0  0  0  0
  148.0558  136.4730  158.7245 C   0  0  0  0  0  0  0  0  0  0  0  0
  149.4356  137.1293  158.7331 C   0  0  0  0  0  0  0  0  0  0  0  0
  150.2337  136.8772  159.6356 O   0  0  0  0  0  0  0  0  0  0  0  0
  149.7110  137.9408  157.7006 N   0  0  0  0  0  0  0  0  0  0  0  0
  151.0115  138.5483  157.4186 C   0  0  2  0  0  0  0  0  0  0  0  0
  151.0428  140.0636  157.7363 C   0  0  2  0  0  0  0  0  0  0  0  0
  149.8471  140.8007  157.0959 C   0  0  0  0  0  0  0  0  0  0  0  0
  150.1875  140.7513  155.5959 C   0  0  0  0  0  0  0  0  0  0  0  0
  151.5460  140.0188  155.5728 C   0  0  1  0  0  0  0  0  0  0  0  0
  152.1871  140.5469  156.8508 C   0  0  0  0  0  0  0  0  0  0  0  0
  151.4039  138.5143  155.9125 C   0  0  2  0  0  0  0  0  0  0  0  0
  150.5038  137.6881  154.9631 C   0  0  0  0  0  0  0  0  0  0  0  0
  151.2649  136.7094  154.2882 O   0  0  0  0  0  0  0  0  0  0  0  0
  147.6380  137.0706  161.0648 N   0  0  0  0  0  0  0  0  0  0  0  0
  147.2243  136.4271  162.1723 N   0  0  0  0  0  0  0  0  0  0  0  0
  147.1130  136.9074  163.0540 H   0  0  0  0  0  0  0  0  0  0  0  0
  146.5299  133.1420  162.7208 H   0  0  0  0  0  0  0  0  0  0  0  0
  145.4939  134.4274  163.3414 H   0  0  0  0  0  0  0  0  0  0  0  0
  147.1512  134.2661  163.9292 H   0  0  0  0  0  0  0  0  0  0  0  0
  147.1815  133.9149  160.1172 H   0  0  0  0  0  0  0  0  0  0  0  0
  148.0753  135.5863  158.0888 H   0  0  0  0  0  0  0  0  0  0  0  0
  147.3304  137.1573  158.2832 H   0  0  0  0  0  0  0  0  0  0  0  0
  148.9858  138.0873  157.0131 H   0  0  0  0  0  0  0  0  0  0  0  0
  151.7912  138.0556  158.0027 H   0  0  0  0  0  0  0  0  0  0  0  0
  151.1656  140.2807  158.7979 H   0  0  0  0  0  0  0  0  0  0  0  0
  148.8793  140.3537  157.3235 H   0  0  0  0  0  0  0  0  0  0  0  0
  149.8118  141.8354  157.4397 H   0  0  0  0  0  0  0  0  0  0  0  0
  149.4184  140.2560  155.0052 H   0  0  0  0  0  0  0  0  0  0  0  0
  150.2936  141.7626  155.2017 H   0  0  0  0  0  0  0  0  0  0  0  0
  152.1248  140.2060  154.6679 H   0  0  0  0  0  0  0  0  0  0  0  0
  152.3140  141.6312  156.8579 H   0  0  0  0  0  0  0  0  0  0  0  0
  153.1441  140.0767  157.0843 H   0  0  0  0  0  0  0  0  0  0  0  0
  152.4010  138.0736  155.8529 H   0  0  0  0  0  0  0  0  0  0  0  0
  149.7283  137.1757  155.5329 H   0  0  0  0  0  0  0  0  0  0  0  0
  149.9928  138.3117  154.2303 H   0  0  0  0  0  0  0  0  0  0  0  0
  151.0791  136.7705  153.3636 H   0  0  0  0  0  0  0  0  0  0  0  0
  1  2  1  0  0  0  0
  1 21  1  0  0  0  0
  1 22  1  0  0  0  0
  1 23  1  0  0  0  0
  2 19  1  0  0  0  0
  2  3  2  0  0  0  0
  3  4  1  0  0  0  0
  3 24  1  0  0  0  0
  4  5  1  0  0  0  0
  4 18  2  0  0  0  0
  5  6  1  0  0  0  0
  5 25  1  0  0  0  0
  5 26  1  0  0  0  0
  6  7  2  0  0  0  0
  6  8  1  0  0  0  0
  8  9  1  0  0  0  0
  8 27  1  0  0  0  0
  9 15  1  0  0  0  0
  9 10  1  0  0  0  0
  9 28  1  0  0  0  0
 10 14  1  0  0  0  0
 10 11  1  0  0  0  0
 10 29  1  0  0  0  0
 11 12  1  0  0  0  0
 11 30  1  0  0  0  0
 11 31  1  0  0  0  0
 12 13  1  0  0  0  0
 12 32  1  0  0  0  0
 12 33  1  0  0  0  0
 13 14  1  0  0  0  0
 13 15  1  0  0  0  0
 13 34  1  0  0  0  0
 14 35  1  0  0  0  0
 14 36  1  0  0  0  0
 15 16  1  0  0  0  0
 15 37  1  0  0  0  0
 16 17  1  0  0  0  0
 16 38  1  0  0  0  0
 16 39  1  0  0  0  0
 17 40  1  0  0  0  0
 18 19  1  0  0  0  0
 19 20  1  0  0  0  0
M  END
> <s_m_source_file>
AV-unprocessed.smi

> <i_m_source_file_index>
2881

> <i_lp_mmshare_version>
43012

> <i_f3d_flags>
0

> <s_epik_input>
W0NIM11jMVtjSF1jKG5bbkhdMSlbQ0gyXUMoPU8pW05IXVtDQEhdKFtDQEBIXTIzKVtDQEhdKFtDSDJdW09IXSlbQ0BASF0oW0NIMl0zKVtDSDJdW0NIMl0y

> <s_epik_cmdline>
J2VwaWtfcHl0aG9uJywgJy1waCcsICc3LjAnLCAnLXRuJywgJzgnLCAnLW1hJywgJzIwMCcsICctbWV0YWxfYmluZGluZycsICctaW1hZScsICc8aW5maWxlLm1hZT4nLCAnLW9tYWUnLCAnPG91dGZpbGUubWFlPic=

> <r_lp_tautomer_probability>
0.5

> <r_epik_Ionization_Penalty>
9.4349e-05

> <r_epik_Ionization_Penalty_Charging>
0

> <r_epik_Ionization_Penalty_Neutral>
9.4349e-05

> <r_epik_State_Penalty>
0.41068

> <r_epik_Charging_Adjusted_Penalty>
0.41068

> <i_epik_Tot_Q>
0

> <i_epik_Tot_abs_Q>
0

> <r_epik_Metal_State_Penalty>
0.4107

> <b_epik_Metal_Only>
0

> <s_lp_Force_Field>
OPLS_2005

> <r_lp_Energy>
48.5283

> <b_lp_Chiralities_Consistent>
1

> <s_lp_Variant>
AV-unprocessed.smi:2881-7

> <Gold.Version>
5.8.1

> <Gold.Id.Protein>
6NUR|6NUR_protein|mol2

> <Gold.PLP.Fitness>
39.9837

> <Gold.PLP.PLP>
-28.1102

> <Gold.PLP.part.hbond>
-4.9796

> <Gold.PLP.part.metal>
0.0000

> <Gold.PLP.part.buried>
-2.0130

> <Gold.PLP.part.nonpolar>
-21.6633

> <Gold.PLP.part.repulsive>
0.2140

> <Gold.PLP.ligand.clash>
0.0000

> <Gold.PLP.ligand.torsion>
1.3185

> <Gold.PLP.Chemscore.Hbond>
4.8321

> <Gold.PLP.Chemscore.CHOScore>
0.0000

> <Gold.PLP.Chemscore.Metal>
0.0000

> <Gold.Chemscore.Hbonds>
donor molecule, donor type, donor heavy atom, donor atom, acceptor molecule, acceptor atom, score
      L1  H    17    40       P1  7949  0.99
      P1  H  6896  6907       L1     7  1.00
      P1  H  6931  6943       L1    18  0.91
      P1  H  6934  6947       L1    18  0.93
      P1  H 10752 10765       L1    17  1.00

> <Gold.PLP.Chemscore.Internal.Correction>
0.0144

> <Gold.Rescore>
     Score         DG    S(hbond)    S(metal)    S(lipo)     H(rot)  DE(clash)    DE(int)     intcor
     16.01     -19.78       3.54        0.00      70.85       2.28       1.35       2.43       ----

> <Gold.Chemscore.Fitness>
16.0062

> <Gold.Chemscore.DG>
-19.7776

> <Gold.Chemscore.ZeroCoef>
-5.4800

> <Gold.Chemscore.Hbond>
3.5430

> <Gold.Chemscore.Metal>
0.0000

> <Gold.Chemscore.Lipo>
70.8474

> <Gold.Chemscore.Internal_Hbond>
0.0000

> <Gold.Chemscore.DEClash>
1.3454

> <Gold.Chemscore.DEInternal>
2.4260

> <Gold.Chemscore.Rot>
2.2755

> <Gold.Chemscore.Internal.Correction>
   9.000000E+99

> <Gold.Chemscore.Hbonds>
donor molecule, donor type, donor heavy atom, donor atom, acceptor molecule, acceptor atom, score
      L1  H    17    40       P1  7949  0.35
      P1  H  6896  6907       L1     7  0.93
      P1  H  6931  6943       L1    18  0.19
      P1  H  6934  6947       L1    18  0.81
      P1  H 10752 10765       L1    17  0.34

> <Gold.Chemscore.Hbond.Weighted>
-11.8337

> <Gold.Chemscore.Metal.Weighted>
-0.0000

> <Gold.Chemscore.Lipo.Weighted>
-8.2891

> <Gold.Chemscore.Internal_Hbond.Weighted>
0.0000

> <Gold.Chemscore.DEClash.Weighted>
1.3454

> <Gold.Chemscore.DEInternal.Weighted>
2.4260

> <Gold.Chemscore.Rot.Weighted>
5.8252

> <Gold.Chemscore.Internal.Correction.Weighted>
   9.000000E+99

> <Gold.Protein.RotatedTorsions>
[ 6907 6896 6895 6894 ] final  -34.26 input  -60.11 | X-H torsion
[ 7974 7965 7964 7962 ] final  152.78 input  175.53 | X-H torsion
[ 8008 7997 7996 7995 ] final   -2.22 input   59.86 | X-H torsion
[ 10167 10162 10161 10158 ] final  132.48 input  -65.29 | X-H torsion
[ 10718 10713 10712 10709 ] final   38.83 input   66.30 | X-H torsion
[ 10763 10752 10751 10750 ] final  163.59 input  -60.55 | X-H torsion
[ 11005 11000 10999 10996 ] final   96.63 input  -57.11 | X-H torsion

> <Gold.Protein.ActiveResidues>
 VAL166  LYS551  ARG553  GLY616  TRP617  ASP618  TYR619  PRO620  LYS621  CYS622 
 ASP623  PHE694  ASN695  SER759  ASP760  ASP761  ALA762  ILE779  LEU786  VAL792 
 PHE793  MET794  SER795  GLU796  ALA797  LYS798  CYS799  TRP800  GLU811  SER814 

> <Gold.Protein.RotatedAtoms>
  151.0549  134.9698  159.8230 H   0  0  0  0  0  0  0  0  0  0  0  0  # atno 6907 bound_to 6896
  152.5386  134.2490  159.8901 H   0  0  0  0  0  0  0  0  0  0  0  0  # atno 6908 bound_to 6896
  151.2508  133.4308  159.2645 H   0  0  0  0  0  0  0  0  0  0  0  0  # atno 6909 bound_to 6896
  144.8199  139.6714  143.6105 H   0  0  0  0  0  0  0  0  0  0  0  0  # atno 7974 bound_to 7965
  154.6382  140.2540  155.7353 H   0  0  0  0  0  0  0  0  0  0  0  0  # atno 8008 bound_to 7997
  156.2515  140.2893  156.0684 H   0  0  0  0  0  0  0  0  0  0  0  0  # atno 8009 bound_to 7997
  155.1638  140.0385  157.2838 H   0  0  0  0  0  0  0  0  0  0  0  0  # atno 8010 bound_to 7997
  139.5338  144.6660  151.4857 H   0  0  0  0  0  0  0  0  0  0  0  0  # atno 10167 bound_to 10162
  157.3634  130.7662  149.7065 H   0  0  0  0  0  0  0  0  0  0  0  0  # atno 10718 bound_to 10713
  154.2960  135.2760  155.2633 H   0  0  0  0  0  0  0  0  0  0  0  0  # atno 10763 bound_to 10752
  154.5091  135.5787  153.6594 H   0  0  0  0  0  0  0  0  0  0  0  0  # atno 10764 bound_to 10752
  152.9907  135.6176  154.3127 H   0  0  0  0  0  0  0  0  0  0  0  0  # atno 10765 bound_to 10752
  139.8780  134.8960  156.4187 H   0  0  0  0  0  0  0  0  0  0  0  0  # atno 11005 bound_to 11000
  146.2504  139.6187  142.9431 LP  0  0  0  0  0  0  0  0  0  0  0  0  # atno 17320 bound_to 7965
  145.5129  141.0435  143.2478 LP  0  0  0  0  0  0  0  0  0  0  0  0  # atno 17321 bound_to 7965
  140.6532  143.8653  150.6808 LP  0  0  0  0  0  0  0  0  0  0  0  0  # atno 17342 bound_to 10162
  140.2024  143.3948  152.1781 LP  0  0  0  0  0  0  0  0  0  0  0  0  # atno 17343 bound_to 10162
  155.9742  130.4107  150.3945 LP  0  0  0  0  0  0  0  0  0  0  0  0  # atno 17370 bound_to 10713
  157.2025  131.0441  151.2642 LP  0  0  0  0  0  0  0  0  0  0  0  0  # atno 17371 bound_to 10713
  140.9149  133.7686  155.9836 LP  0  0  0  0  0  0  0  0  0  0  0  0  # atno 17394 bound_to 11000
  140.8505  134.2960  157.5277 LP  0  0  0  0  0  0  0  0  0  0  0  0  # atno 17395 bound_to 11000

$$$$
