AV-unprocessed.smi:1580|AV-procd|sdf|6358|dock9
  -GOLD-   22720 6583D 1   1.00000     0.00000
 Structure written by MMmdl.
 37 38  0  0  0  0  0  0  0  0  1 V2000
  150.3461  139.5423  157.1990 C   0  0  0  0  0  0  0  0  0  0  0  0
  150.5570  140.5236  155.6582 S   0  0  0  0  0  0  0  0  0  0  0  0
  150.3418  141.9402  155.9924 O   0  0  0  0  0  0  0  0  0  0  0  0
  151.8152  140.1115  155.0166 O   0  0  0  0  0  0  0  0  0  0  0  0
  149.2045  139.9787  154.6215 C   0  0  0  0  0  0  0  0  0  0  0  0
  148.3040  140.9149  154.0756 C   0  0  0  0  0  0  0  0  0  0  0  0
  147.2276  140.4316  153.3077 C   0  0  0  0  0  0  0  0  0  0  0  0
  147.0913  139.0333  153.1206 C   0  0  0  0  0  0  0  0  0  0  0  0
  146.0465  138.4121  152.3816 N   0  0  0  0  0  0  0  0  0  0  0  0
  145.5942  137.1476  152.4460 C   0  0  0  0  0  0  0  0  0  0  0  0
  146.0083  136.2763  153.2097 O   0  0  0  0  0  0  0  0  0  0  0  0
  144.6047  136.9436  151.5654 N   0  0  0  0  0  0  0  0  0  0  0  0
  143.8997  135.6805  151.3784 C   0  0  0  0  0  0  0  0  0  0  0  0
  144.6909  134.7099  150.4857 C   0  0  2  0  0  0  0  0  0  0  0  0
  144.0302  133.3405  150.3368 C   0  0  0  0  0  0  0  0  0  0  0  0
  145.2165  132.4629  150.0111 C   0  0  0  0  0  0  0  0  0  0  0  0
  146.2963  133.0585  150.9094 C   0  0  0  0  0  0  0  0  0  0  0  0
  145.9738  134.4404  151.0479 O   0  0  0  0  0  0  0  0  0  0  0  0
  148.0437  138.1920  153.7359 C   0  0  0  0  0  0  0  0  0  0  0  0
  149.0779  138.6430  154.4763 N   0  0  0  0  0  0  0  0  0  0  0  0
  151.1336  139.8023  157.9057 H   0  0  0  0  0  0  0  0  0  0  0  0
  150.4050  138.4795  156.9643 H   0  0  0  0  0  0  0  0  0  0  0  0
  149.3746  139.7634  157.6400 H   0  0  0  0  0  0  0  0  0  0  0  0
  148.4269  141.9750  154.2401 H   0  0  0  0  0  0  0  0  0  0  0  0
  146.5303  141.1435  152.8965 H   0  0  0  0  0  0  0  0  0  0  0  0
  145.5614  139.0173  151.7354 H   0  0  0  0  0  0  0  0  0  0  0  0
  144.3172  137.7150  150.9813 H   0  0  0  0  0  0  0  0  0  0  0  0
  143.7293  135.2334  152.3582 H   0  0  0  0  0  0  0  0  0  0  0  0
  142.9144  135.8704  150.9494 H   0  0  0  0  0  0  0  0  0  0  0  0
  144.8423  135.1351  149.4921 H   0  0  0  0  0  0  0  0  0  0  0  0
  143.5805  133.0234  151.2789 H   0  0  0  0  0  0  0  0  0  0  0  0
  143.2590  133.3222  149.5661 H   0  0  0  0  0  0  0  0  0  0  0  0
  145.0357  131.4050  150.2037 H   0  0  0  0  0  0  0  0  0  0  0  0
  145.4920  132.5796  148.9622 H   0  0  0  0  0  0  0  0  0  0  0  0
  146.2663  132.5971  151.8972 H   0  0  0  0  0  0  0  0  0  0  0  0
  147.2983  132.9207  150.5021 H   0  0  0  0  0  0  0  0  0  0  0  0
  147.9731  137.1189  153.6335 H   0  0  0  0  0  0  0  0  0  0  0  0
  1  2  1  0  0  0  0
  1 21  1  0  0  0  0
  1 22  1  0  0  0  0
  1 23  1  0  0  0  0
  2  3  2  0  0  0  0
  2  4  2  0  0  0  0
  2  5  1  0  0  0  0
  5 20  1  0  0  0  0
  5  6  2  0  0  0  0
  6  7  1  0  0  0  0
  6 24  1  0  0  0  0
  7  8  2  0  0  0  0
  7 25  1  0  0  0  0
  8  9  1  0  0  0  0
  8 19  1  0  0  0  0
  9 10  1  0  0  0  0
  9 26  1  0  0  0  0
 10 11  2  0  0  0  0
 10 12  1  0  0  0  0
 12 13  1  0  0  0  0
 12 27  1  0  0  0  0
 13 14  1  0  0  0  0
 13 28  1  0  0  0  0
 13 29  1  0  0  0  0
 14 18  1  0  0  0  0
 14 15  1  0  0  0  0
 14 30  1  0  0  0  0
 15 16  1  0  0  0  0
 15 31  1  0  0  0  0
 15 32  1  0  0  0  0
 16 17  1  0  0  0  0
 16 33  1  0  0  0  0
 16 34  1  0  0  0  0
 17 18  1  0  0  0  0
 17 35  1  0  0  0  0
 17 36  1  0  0  0  0
 19 20  2  0  0  0  0
 19 37  1  0  0  0  0
M  END
> <s_m_source_file>
AV-unprocessed.smi

> <i_m_source_file_index>
1580

> <i_lp_mmshare_version>
43012

> <i_f3d_flags>
0

> <s_epik_input>
W0NIM11TKD1PKSg9TyljMVtjSF1bY0hdYyhbY0hdbjEpW05IXUMoPU8pW05IXVtDSDJdW0NAQEhdMltDSDJdW0NIMl1bQ0gyXU8y

> <s_epik_cmdline>
J2VwaWtfcHl0aG9uJywgJy1waCcsICc3LjAnLCAnLXRuJywgJzgnLCAnLW1hJywgJzIwMCcsICctbWV0YWxfYmluZGluZycsICctaW1hZScsICc8aW5maWxlLm1hZT4nLCAnLW9tYWUnLCAnPG91dGZpbGUubWFlPic=

> <r_lp_tautomer_probability>
1

> <r_epik_Ionization_Penalty>
3.28405e-05

> <r_epik_Ionization_Penalty_Charging>
0

> <r_epik_Ionization_Penalty_Neutral>
3.28405e-05

> <r_epik_State_Penalty>
-0

> <r_epik_Charging_Adjusted_Penalty>
0

> <i_epik_Tot_Q>
0

> <i_epik_Tot_abs_Q>
0

> <r_epik_Metal_State_Penalty>
-0

> <b_epik_Metal_Only>
0

> <s_lp_Force_Field>
OPLS_2005

> <r_lp_Energy>
18.5173

> <b_lp_Chiralities_Consistent>
1

> <s_lp_Variant>
AV-unprocessed.smi:1580-1

> <Gold.Version>
5.8.1

> <Gold.Id.Protein>
6NUR|6NUR_protein|mol2

> <Gold.PLP.Fitness>
39.4799

> <Gold.PLP.PLP>
-32.2333

> <Gold.PLP.part.hbond>
-2.6664

> <Gold.PLP.part.metal>
0.0000

> <Gold.PLP.part.buried>
-3.8918

> <Gold.PLP.part.nonpolar>
-26.9222

> <Gold.PLP.part.repulsive>
0.9000

> <Gold.PLP.ligand.clash>
0.0000

> <Gold.PLP.ligand.torsion>
1.3445

> <Gold.PLP.Chemscore.Hbond>
1.8800

> <Gold.PLP.Chemscore.CHOScore>
0.7566

> <Gold.PLP.Chemscore.Metal>
0.0000

> <Gold.Chemscore.Hbonds>
donor molecule, donor type, donor heavy atom, donor atom, acceptor molecule, acceptor atom, score
      L1  H    12    27       P1 10171  0.99
      P1  H  7989  7998       L1     4  0.91
      L1  C    19    37       P1  7948  0.72

> <Gold.PLP.Chemscore.Internal.Correction>
2.0259

> <Gold.Rescore>
     Score         DG    S(hbond)    S(metal)    S(lipo)     H(rot)  DE(clash)    DE(int)     intcor
     13.70     -17.81       2.53        0.00      60.90       1.27       0.10       4.00       ----

> <Gold.Chemscore.Fitness>
13.7043

> <Gold.Chemscore.DG>
-17.8077

> <Gold.Chemscore.ZeroCoef>
-5.4800

> <Gold.Chemscore.Hbond>
2.5331

> <Gold.Chemscore.Metal>
0.0000

> <Gold.Chemscore.Lipo>
60.8959

> <Gold.Chemscore.Internal_Hbond>
0.0000

> <Gold.Chemscore.DEClash>
0.1040

> <Gold.Chemscore.DEInternal>
3.9994

> <Gold.Chemscore.Rot>
1.2725

> <Gold.Chemscore.Internal.Correction>
   9.000000E+99

> <Gold.Chemscore.Hbonds>
donor molecule, donor type, donor heavy atom, donor atom, acceptor molecule, acceptor atom, score
      L1  H     9    26       P1 10175  0.01
      L1  H    12    27       P1 10171  0.92
      P1  H  7989  7998       L1     4  0.26

> <Gold.Chemscore.Hbond.Weighted>
-8.4605

> <Gold.Chemscore.Metal.Weighted>
-0.0000

> <Gold.Chemscore.Lipo.Weighted>
-7.1248

> <Gold.Chemscore.Internal_Hbond.Weighted>
0.0000

> <Gold.Chemscore.DEClash.Weighted>
0.1040

> <Gold.Chemscore.DEInternal.Weighted>
3.9994

> <Gold.Chemscore.Rot.Weighted>
3.2576

> <Gold.Chemscore.Internal.Correction.Weighted>
   9.000000E+99

> <Gold.Protein.RotatedTorsions>
[ 6907 6896 6895 6894 ] final  132.37 input  -60.11 | X-H torsion
[ 7974 7965 7964 7962 ] final  153.62 input  175.53 | X-H torsion
[ 8008 7997 7996 7995 ] final  -46.40 input   59.86 | X-H torsion
[ 10167 10162 10161 10158 ] final   -3.22 input  -65.29 | X-H torsion
[ 10718 10713 10712 10709 ] final  166.33 input   66.30 | X-H torsion
[ 10763 10752 10751 10750 ] final -169.08 input  -60.55 | X-H torsion
[ 11005 11000 10999 10996 ] final  162.99 input  -57.11 | X-H torsion

> <Gold.Protein.ActiveResidues>
 VAL166  LYS551  ARG553  GLY616  TRP617  ASP618  TYR619  PRO620  LYS621  CYS622 
 ASP623  PHE694  ASN695  SER759  ASP760  ASP761  ALA762  ILE779  LEU786  VAL792 
 PHE793  MET794  SER795  GLU796  ALA797  LYS798  CYS799  TRP800  GLU811  SER814 

> <Gold.Protein.RotatedAtoms>
  152.3330  133.5980  159.5822 H   0  0  0  0  0  0  0  0  0  0  0  0  # atno 6907 bound_to 6896
  150.7434  133.9838  159.3594 H   0  0  0  0  0  0  0  0  0  0  0  0  # atno 6908 bound_to 6896
  151.7711  135.0787  160.0411 H   0  0  0  0  0  0  0  0  0  0  0  0  # atno 6909 bound_to 6896
  144.8142  139.6825  143.6128 H   0  0  0  0  0  0  0  0  0  0  0  0  # atno 7974 bound_to 7965
  154.4007  140.1372  156.4006 H   0  0  0  0  0  0  0  0  0  0  0  0  # atno 8008 bound_to 7997
  155.7828  140.3481  155.5286 H   0  0  0  0  0  0  0  0  0  0  0  0  # atno 8009 bound_to 7997
  155.8657  140.0963  157.1574 H   0  0  0  0  0  0  0  0  0  0  0  0  # atno 8010 bound_to 7997
  140.6881  143.6566  150.8303 H   0  0  0  0  0  0  0  0  0  0  0  0  # atno 10167 bound_to 10162
  157.0674  131.0357  151.2624 H   0  0  0  0  0  0  0  0  0  0  0  0  # atno 10718 bound_to 10713
  154.6561  135.2918  154.9926 H   0  0  0  0  0  0  0  0  0  0  0  0  # atno 10763 bound_to 10752
  154.1002  135.6578  153.4871 H   0  0  0  0  0  0  0  0  0  0  0  0  # atno 10764 bound_to 10752
  153.0403  135.5241  154.7490 H   0  0  0  0  0  0  0  0  0  0  0  0  # atno 10765 bound_to 10752
  140.2313  134.8122  157.3319 H   0  0  0  0  0  0  0  0  0  0  0  0  # atno 11005 bound_to 11000
  146.2444  139.6067  142.9470 LP  0  0  0  0  0  0  0  0  0  0  0  0  # atno 17320 bound_to 7965
  145.5252  141.0430  143.2413 LP  0  0  0  0  0  0  0  0  0  0  0  0  # atno 17321 bound_to 7965
  140.0275  143.5478  152.2774 LP  0  0  0  0  0  0  0  0  0  0  0  0  # atno 17342 bound_to 10162
  139.6258  144.7637  151.2641 LP  0  0  0  0  0  0  0  0  0  0  0  0  # atno 17343 bound_to 10162
  157.4906  130.7819  149.7503 LP  0  0  0  0  0  0  0  0  0  0  0  0  # atno 17370 bound_to 10713
  155.9960  130.3908  150.2795 LP  0  0  0  0  0  0  0  0  0  0  0  0  # atno 17371 bound_to 10713
  140.1748  134.4563  155.7809 LP  0  0  0  0  0  0  0  0  0  0  0  0  # atno 17394 bound_to 11000
  141.2217  133.6957  156.7769 LP  0  0  0  0  0  0  0  0  0  0  0  0  # atno 17395 bound_to 11000

$$$$
