AV-unprocessed.smi:1875|AV-procd|sdf|7612|dock4
  -GOLD-   22720 9333D 1   1.00000     0.00000
 Structure written by MMmdl.
 48 50  0  0  0  0  0  0  0  0  2 V2000
  147.3798  132.6586  152.8352 C   0  0  0  0  0  0  0  0  0  0  0  0
  148.4346  133.1451  153.8071 C   0  0  0  0  0  0  0  0  0  0  0  0
  149.3786  132.2680  154.1616 N   0  0  0  0  0  0  0  0  0  0  0  0
  150.3250  132.7006  155.0228 C   0  0  0  0  0  0  0  0  0  0  0  0
  150.3218  134.0170  155.5277 C   0  0  0  0  0  0  0  0  0  0  0  0
  149.2786  134.8533  155.0776 C   0  0  0  0  0  0  0  0  0  0  0  0
  149.1493  136.2832  155.5581 C   0  0  0  0  0  0  0  0  0  0  0  0
  149.1104  137.2044  154.4076 N   0  3  0  0  0  0  0  0  0  0  0  0
  150.0193  138.3615  154.5268 C   0  0  0  0  0  0  0  0  0  0  0  0
  149.2560  139.6234  154.9605 C   0  0  2  0  0  0  0  0  0  0  0  0
  148.3231  139.9620  153.9516 O   0  0  0  0  0  0  0  0  0  0  0  0
  150.2004  140.8150  155.2100 C   0  0  0  0  0  0  0  0  0  0  0  0
  151.0714  140.6019  156.3522 N   0  0  0  0  0  0  0  0  0  0  0  0
  151.8898  139.5526  156.5603 C   0  0  0  0  0  0  0  0  0  0  0  0
  152.6053  139.5509  157.6807 N   0  0  0  0  0  0  0  0  0  0  0  0
  152.2053  140.7385  158.2690 C   0  0  0  0  0  0  0  0  0  0  0  0
  152.5935  141.3329  159.4893 C   0  0  0  0  0  0  0  0  0  0  0  0
  152.0457  142.5689  159.9001 C   0  0  0  0  0  0  0  0  0  0  0  0
  152.4902  143.1704  161.2217 C   0  0  0  0  0  0  0  0  0  0  0  0
  151.0941  143.2310  159.0833 C   0  0  0  0  0  0  0  0  0  0  0  0
  150.4933  144.5605  159.5040 C   0  0  0  0  0  0  0  0  0  0  0  0
  150.6950  142.6512  157.8607 C   0  0  0  0  0  0  0  0  0  0  0  0
  151.2469  141.4204  157.4632 C   0  0  0  0  0  0  0  0  0  0  0  0
  148.3322  134.4129  154.2193 N   0  0  0  0  0  0  0  0  0  0  0  0
  147.2883  131.5720  152.8635 H   0  0  0  0  0  0  0  0  0  0  0  0
  147.6424  132.9537  151.8191 H   0  0  0  0  0  0  0  0  0  0  0  0
  146.4047  133.0840  153.0752 H   0  0  0  0  0  0  0  0  0  0  0  0
  151.0872  131.9927  155.3130 H   0  0  0  0  0  0  0  0  0  0  0  0
  151.0788  134.3595  156.2178 H   0  0  0  0  0  0  0  0  0  0  0  0
  148.2407  136.3928  156.1517 H   0  0  0  0  0  0  0  0  0  0  0  0
  149.9924  136.5315  156.2048 H   0  0  0  0  0  0  0  0  0  0  0  0
  149.3602  136.6846  153.5778 H   0  0  0  0  0  0  0  0  0  0  0  0
  150.7828  138.1204  155.2677 H   0  0  0  0  0  0  0  0  0  0  0  0
  150.5348  138.5300  153.5800 H   0  0  0  0  0  0  0  0  0  0  0  0
  148.7041  139.4126  155.8779 H   0  0  0  0  0  0  0  0  0  0  0  0
  148.7489  139.9015  153.1098 H   0  0  0  0  0  0  0  0  0  0  0  0
  150.8277  140.9871  154.3342 H   0  0  0  0  0  0  0  0  0  0  0  0
  149.6311  141.7318  155.3686 H   0  0  0  0  0  0  0  0  0  0  0  0
  151.9629  138.7425  155.8493 H   0  0  0  0  0  0  0  0  0  0  0  0
  153.3189  140.8286  160.1109 H   0  0  0  0  0  0  0  0  0  0  0  0
  151.6358  143.3123  161.8839 H   0  0  0  0  0  0  0  0  0  0  0  0
  152.9686  144.1369  161.0601 H   0  0  0  0  0  0  0  0  0  0  0  0
  153.2048  142.5244  161.7327 H   0  0  0  0  0  0  0  0  0  0  0  0
  149.7925  144.9353  158.7573 H   0  0  0  0  0  0  0  0  0  0  0  0
  151.2754  145.3091  159.6336 H   0  0  0  0  0  0  0  0  0  0  0  0
  149.9545  144.4551  160.4457 H   0  0  0  0  0  0  0  0  0  0  0  0
  149.9699  143.1448  157.2311 H   0  0  0  0  0  0  0  0  0  0  0  0
  148.1651  137.5432  154.3000 H   0  0  0  0  0  0  0  0  0  0  0  0
  1  2  1  0  0  0  0
  1 25  1  0  0  0  0
  1 26  1  0  0  0  0
  1 27  1  0  0  0  0
  2 24  1  0  0  0  0
  2  3  2  0  0  0  0
  3  4  1  0  0  0  0
  4  5  2  0  0  0  0
  4 28  1  0  0  0  0
  5  6  1  0  0  0  0
  5 29  1  0  0  0  0
  6  7  1  0  0  0  0
  6 24  2  0  0  0  0
  7  8  1  0  0  0  0
  7 30  1  0  0  0  0
  7 31  1  0  0  0  0
  8  9  1  0  0  0  0
  8 32  1  0  0  0  0
  8 48  1  0  0  0  0
  9 10  1  0  0  0  0
  9 33  1  0  0  0  0
  9 34  1  0  0  0  0
 10 11  1  0  0  0  0
 10 12  1  0  0  0  0
 10 35  1  0  0  0  0
 11 36  1  0  0  0  0
 12 13  1  0  0  0  0
 12 37  1  0  0  0  0
 12 38  1  0  0  0  0
 13 23  1  0  0  0  0
 13 14  1  0  0  0  0
 14 15  2  0  0  0  0
 14 39  1  0  0  0  0
 15 16  1  0  0  0  0
 16 23  2  0  0  0  0
 16 17  1  0  0  0  0
 17 18  2  0  0  0  0
 17 40  1  0  0  0  0
 18 19  1  0  0  0  0
 18 20  1  0  0  0  0
 19 41  1  0  0  0  0
 19 42  1  0  0  0  0
 19 43  1  0  0  0  0
 20 21  1  0  0  0  0
 20 22  2  0  0  0  0
 21 44  1  0  0  0  0
 21 45  1  0  0  0  0
 21 46  1  0  0  0  0
 22 23  1  0  0  0  0
 22 47  1  0  0  0  0
M  CHG  1   8   1
M  END
> <s_m_source_file>
AV-unprocessed.smi

> <i_m_source_file_index>
1875

> <i_lp_mmshare_version>
43012

> <i_f3d_flags>
0

> <s_epik_input>
W0NIM11jMW5bY0hdW2NIXWMobjEpW0NIMl1bTkhdW0NIMl1bQ0BIXShbT0hdKVtDSDJdbihbY0hdbjIpYyhjMjMpW2NIXWMoW0NIM10pYyhbY0hdMylbQ0gzXQ==

> <s_epik_cmdline>
J2VwaWtfcHl0aG9uJywgJy1waCcsICc3LjAnLCAnLXRuJywgJzgnLCAnLW1hJywgJzIwMCcsICctbWV0YWxfYmluZGluZycsICctaW1hZScsICc8aW5maWxlLm1hZT4nLCAnLW9tYWUnLCAnPG91dGZpbGUubWFlPic=

> <r_lp_tautomer_probability>
1

> <r_epik_Ionization_Penalty>
0.192455

> <r_epik_Ionization_Penalty_Charging>
0.102343

> <r_epik_Ionization_Penalty_Neutral>
0.0901122

> <r_epik_State_Penalty>
0.175389

> <r_epik_Charging_Adjusted_Penalty>
0.277732

> <i_epik_Tot_Q>
1

> <i_epik_Tot_abs_Q>
1

> <r_epik_Metal_State_Penalty>
0.167659

> <b_epik_Metal_Only>
0

> <s_epik_Chemistry_Notes>
This compound contains an electron-poor aromatic ring that is susceptible to covalent hydrolysis at low pH, typically resulting in measured values for nitrogen ring protonation that are around two units higher than predicted values.

> <s_lp_Force_Field>
OPLS_2005

> <r_lp_Energy>
2.18652

> <b_lp_Chiralities_Consistent>
1

> <s_lp_Variant>
AV-unprocessed.smi:1875-1

> <Gold.Version>
5.8.1

> <Gold.Id.Protein>
6NUR|6NUR_protein|mol2

> <Gold.PLP.Fitness>
55.9794

> <Gold.PLP.PLP>
-45.7909

> <Gold.PLP.part.hbond>
-3.0000

> <Gold.PLP.part.metal>
0.0000

> <Gold.PLP.part.buried>
-5.6771

> <Gold.PLP.part.nonpolar>
-38.8751

> <Gold.PLP.part.repulsive>
1.7233

> <Gold.PLP.ligand.clash>
0.0000

> <Gold.PLP.ligand.torsion>
0.7169

> <Gold.PLP.Chemscore.Hbond>
3.8340

> <Gold.PLP.Chemscore.CHOScore>
0.0000

> <Gold.PLP.Chemscore.Metal>
0.0000

> <Gold.Chemscore.Hbonds>
donor molecule, donor type, donor heavy atom, donor atom, acceptor molecule, acceptor atom, score
      L1  H     8    32       P1  7948  1.98
      L1  H    11    36       P1  7957  0.75
      P1  H  7997  8009       L1    15  0.83

> <Gold.PLP.Chemscore.Internal.Correction>
0.1203

> <Gold.Rescore>
     Score         DG    S(hbond)    S(metal)    S(lipo)     H(rot)  DE(clash)    DE(int)     intcor
     17.14     -19.45       1.99        0.00     123.86       2.80       1.41       0.89       ----

> <Gold.Chemscore.Fitness>
17.1426

> <Gold.Chemscore.DG>
-19.4451

> <Gold.Chemscore.ZeroCoef>
-5.4800

> <Gold.Chemscore.Hbond>
1.9920

> <Gold.Chemscore.Metal>
0.0000

> <Gold.Chemscore.Lipo>
123.8626

> <Gold.Chemscore.Internal_Hbond>
0.0000

> <Gold.Chemscore.DEClash>
1.4084

> <Gold.Chemscore.DEInternal>
0.8940

> <Gold.Chemscore.Rot>
2.8047

> <Gold.Chemscore.Internal.Correction>
   9.000000E+99

> <Gold.Chemscore.Hbonds>
donor molecule, donor type, donor heavy atom, donor atom, acceptor molecule, acceptor atom, score
      L1  H     8    32       P1  7948  0.87
      L1  H    11    36       P1  7957  0.73
      P1  H  7997  8009       L1    15  0.07

> <Gold.Chemscore.Hbond.Weighted>
-6.6532

> <Gold.Chemscore.Metal.Weighted>
-0.0000

> <Gold.Chemscore.Lipo.Weighted>
-14.4919

> <Gold.Chemscore.Internal_Hbond.Weighted>
0.0000

> <Gold.Chemscore.DEClash.Weighted>
1.4084

> <Gold.Chemscore.DEInternal.Weighted>
0.8940

> <Gold.Chemscore.Rot.Weighted>
7.1801

> <Gold.Chemscore.Internal.Correction.Weighted>
   9.000000E+99

> <Gold.Protein.RotatedTorsions>
[ 6907 6896 6895 6894 ] final -137.93 input  -60.11 | X-H torsion
[ 7974 7965 7964 7962 ] final  -68.48 input  175.53 | X-H torsion
[ 8008 7997 7996 7995 ] final  163.50 input   59.86 | X-H torsion
[ 10167 10162 10161 10158 ] final  118.30 input  -65.29 | X-H torsion
[ 10718 10713 10712 10709 ] final   11.28 input   66.30 | X-H torsion
[ 10763 10752 10751 10750 ] final   68.53 input  -60.55 | X-H torsion
[ 11005 11000 10999 10996 ] final -113.63 input  -57.11 | X-H torsion

> <Gold.Protein.ActiveResidues>
 VAL166  LYS551  ARG553  GLY616  TRP617  ASP618  TYR619  PRO620  LYS621  CYS622 
 ASP623  PHE694  ASN695  SER759  ASP760  ASP761  ALA762  ILE779  LEU786  VAL792 
 PHE793  MET794  SER795  GLU796  ALA797  LYS798  CYS799  TRP800  GLU811  SER814 

> <Gold.Protein.RotatedAtoms>
  151.0287  133.5810  159.2662 H   0  0  0  0  0  0  0  0  0  0  0  0  # atno 6907 bound_to 6896
  151.2900  135.0738  159.9210 H   0  0  0  0  0  0  0  0  0  0  0  0  # atno 6908 bound_to 6896
  152.5340  133.9986  159.7938 H   0  0  0  0  0  0  0  0  0  0  0  0  # atno 6909 bound_to 6896
  145.7160  140.9059  143.0655 H   0  0  0  0  0  0  0  0  0  0  0  0  # atno 7974 bound_to 7965
  156.1952  140.1722  156.8012 H   0  0  0  0  0  0  0  0  0  0  0  0  # atno 8008 bound_to 7997
  154.5521  140.0715  156.8716 H   0  0  0  0  0  0  0  0  0  0  0  0  # atno 8009 bound_to 7997
  155.3009  140.3361  155.4250 H   0  0  0  0  0  0  0  0  0  0  0  0  # atno 8010 bound_to 7997
  139.6120  144.7084  151.2822 H   0  0  0  0  0  0  0  0  0  0  0  0  # atno 10167 bound_to 10162
  156.9932  130.6050  149.5688 H   0  0  0  0  0  0  0  0  0  0  0  0  # atno 10718 bound_to 10713
  153.0240  135.5244  154.7148 H   0  0  0  0  0  0  0  0  0  0  0  0  # atno 10763 bound_to 10752
  154.6220  135.2890  155.0317 H   0  0  0  0  0  0  0  0  0  0  0  0  # atno 10764 bound_to 10752
  154.1300  135.6594  153.4972 H   0  0  0  0  0  0  0  0  0  0  0  0  # atno 10765 bound_to 10752
  141.0602  133.9547  157.2680 H   0  0  0  0  0  0  0  0  0  0  0  0  # atno 11005 bound_to 11000
  144.6929  139.9138  143.7464 LP  0  0  0  0  0  0  0  0  0  0  0  0  # atno 17320 bound_to 7965
  146.0669  139.3660  143.0546 LP  0  0  0  0  0  0  0  0  0  0  0  0  # atno 17321 bound_to 7965
  140.7326  143.6819  150.7994 LP  0  0  0  0  0  0  0  0  0  0  0  0  # atno 17342 bound_to 10162
  140.0416  143.5341  152.2715 LP  0  0  0  0  0  0  0  0  0  0  0  0  # atno 17343 bound_to 10162
  156.0199  130.5294  150.8245 LP  0  0  0  0  0  0  0  0  0  0  0  0  # atno 17370 bound_to 10713
  157.5443  131.0942  150.9784 LP  0  0  0  0  0  0  0  0  0  0  0  0  # atno 17371 bound_to 10713
  139.9426  135.0189  156.8755 LP  0  0  0  0  0  0  0  0  0  0  0  0  # atno 17394 bound_to 11000
  140.5883  134.0286  155.7490 LP  0  0  0  0  0  0  0  0  0  0  0  0  # atno 17395 bound_to 11000

$$$$
