AV-unprocessed.smi:2069|AV-procd|sdf|8436|dock8
  -GOLD-   2272011133D 1   1.00000     0.00000
 Structure written by MMmdl.
 37 38  0  0  0  0  0  0  0  0  2 V2000
  149.0554  140.5248  154.4029 C   0  0  0  0  0  0  0  0  0  0  0  0
  150.1047  140.0045  155.3242 C   0  0  0  0  0  0  0  0  0  0  0  0
  151.3979  139.9636  154.9946 N   0  0  0  0  0  0  0  0  0  0  0  0
  152.1807  139.4423  156.0143 N   0  0  0  0  0  0  0  0  0  0  0  0
  151.4728  139.1059  157.1018 C   0  0  0  0  0  0  0  0  0  0  0  0
  152.0453  138.5786  158.1966 N   0  5  0  0  0  0  0  0  0  0  0  0
  153.0961  139.2011  158.7779 C   0  0  0  0  0  0  0  0  0  0  0  0
  154.2891  139.0009  158.5383 O   0  0  0  0  0  0  0  0  0  0  0  0
  152.7427  140.1131  159.6931 N   0  0  0  0  0  0  0  0  0  0  0  0
  153.6655  140.9256  160.4794 C   0  0  0  0  0  0  0  0  0  0  0  0
  152.9543  142.1183  161.1758 C   0  0  1  0  0  0  0  0  0  0  0  0
  153.7163  142.4571  162.4826 C   0  0  0  0  0  0  0  0  0  0  0  0
  152.7800  143.2974  160.2947 N   0  0  0  0  0  0  0  0  0  0  0  0
  152.1009  142.9707  159.0354 C   0  0  0  0  0  0  0  0  0  0  0  0
  151.8888  144.1994  158.1339 C   0  0  0  0  0  0  0  0  0  0  0  0
  151.1592  145.1938  158.8393 O   0  0  0  0  0  0  0  0  0  0  0  0
  151.8230  145.5972  160.0289 C   0  0  0  0  0  0  0  0  0  0  0  0
  152.0305  144.3787  160.9448 C   0  0  0  0  0  0  0  0  0  0  0  0
  149.7418  139.3991  156.9317 S   0  0  0  0  0  0  0  0  0  0  0  0
  149.0948  141.6137  154.3719 H   0  0  0  0  0  0  0  0  0  0  0  0
  148.0660  140.2192  154.7436 H   0  0  0  0  0  0  0  0  0  0  0  0
  149.2121  140.1377  153.3957 H   0  0  0  0  0  0  0  0  0  0  0  0
  151.7565  140.2476  159.8610 H   0  0  0  0  0  0  0  0  0  0  0  0
  154.1641  140.3046  161.2255 H   0  0  0  0  0  0  0  0  0  0  0  0
  154.4278  141.2630  159.7792 H   0  0  0  0  0  0  0  0  0  0  0  0
  151.9625  141.7687  161.4672 H   0  0  0  0  0  0  0  0  0  0  0  0
  153.8928  141.5793  163.1033 H   0  0  0  0  0  0  0  0  0  0  0  0
  153.1619  143.1456  163.1184 H   0  0  0  0  0  0  0  0  0  0  0  0
  154.6875  142.9033  162.2666 H   0  0  0  0  0  0  0  0  0  0  0  0
  152.6818  142.2544  158.4581 H   0  0  0  0  0  0  0  0  0  0  0  0
  151.1371  142.5042  159.2449 H   0  0  0  0  0  0  0  0  0  0  0  0
  152.8460  144.6051  157.8027 H   0  0  0  0  0  0  0  0  0  0  0  0
  151.3332  143.9201  157.2386 H   0  0  0  0  0  0  0  0  0  0  0  0
  152.7785  146.0632  159.7829 H   0  0  0  0  0  0  0  0  0  0  0  0
  151.2198  146.3517  160.5338 H   0  0  0  0  0  0  0  0  0  0  0  0
  151.0603  144.0075  161.2788 H   0  0  0  0  0  0  0  0  0  0  0  0
  152.5561  144.7322  161.8299 H   0  0  0  0  0  0  0  0  0  0  0  0
  1  2  1  0  0  0  0
  1 20  1  0  0  0  0
  1 21  1  0  0  0  0
  1 22  1  0  0  0  0
  2 19  1  0  0  0  0
  2  3  2  0  0  0  0
  3  4  1  0  0  0  0
  4  5  2  0  0  0  0
  5  6  1  0  0  0  0
  5 19  1  0  0  0  0
  6  7  1  0  0  0  0
  7  8  2  0  0  0  0
  7  9  1  0  0  0  0
  9 10  1  0  0  0  0
  9 23  1  0  0  0  0
 10 11  1  0  0  0  0
 10 24  1  0  0  0  0
 10 25  1  0  0  0  0
 11 12  1  0  0  0  0
 11 13  1  0  0  0  0
 11 26  1  0  0  0  0
 12 27  1  0  0  0  0
 12 28  1  0  0  0  0
 12 29  1  0  0  0  0
 13 18  1  0  0  0  0
 13 14  1  0  0  0  0
 14 15  1  0  0  0  0
 14 30  1  0  0  0  0
 14 31  1  0  0  0  0
 15 16  1  0  0  0  0
 15 32  1  0  0  0  0
 15 33  1  0  0  0  0
 16 17  1  0  0  0  0
 17 18  1  0  0  0  0
 17 34  1  0  0  0  0
 17 35  1  0  0  0  0
 18 36  1  0  0  0  0
 18 37  1  0  0  0  0
M  CHG  1   6  -1
M  END
> <s_m_source_file>
AV-unprocessed.smi

> <i_m_source_file_index>
2069

> <i_lp_mmshare_version>
43012

> <i_f3d_flags>
0

> <s_epik_input>
W0NIM11jMW5uYyhzMSlbTkhdQyg9TylbTkhdW0NIMl1bQ0BIXShbQ0gzXSlOMltDSDJdW0NIMl1PW0NIMl1bQ0gyXTI=

> <s_epik_cmdline>
J2VwaWtfcHl0aG9uJywgJy1waCcsICc3LjAnLCAnLXRuJywgJzgnLCAnLW1hJywgJzIwMCcsICctbWV0YWxfYmluZGluZycsICctaW1hZScsICc8aW5maWxlLm1hZT4nLCAnLW9tYWUnLCAnPG91dGZpbGUubWFlPic=

> <r_lp_tautomer_probability>
1

> <r_epik_Ionization_Penalty>
3.82002

> <r_epik_Ionization_Penalty_Charging>
3.36369

> <r_epik_Ionization_Penalty_Neutral>
0.456339

> <r_epik_State_Penalty>
3.571

> <r_epik_Charging_Adjusted_Penalty>
6.93469

> <i_epik_Tot_Q>
-1

> <i_epik_Tot_abs_Q>
1

> <r_epik_Metal_State_Penalty>
0.710436

> <b_epik_Metal_Only>
1

> <s_lp_Force_Field>
OPLS_2005

> <r_lp_Energy>
26.7527

> <b_lp_Chiralities_Consistent>
1

> <s_lp_Variant>
AV-unprocessed.smi:2069-6

> <Gold.Version>
5.8.1

> <Gold.Id.Protein>
6NUR|6NUR_protein|mol2

> <Gold.PLP.Fitness>
43.2994

> <Gold.PLP.PLP>
-40.5125

> <Gold.PLP.part.hbond>
-2.3301

> <Gold.PLP.part.metal>
0.0000

> <Gold.PLP.part.buried>
-6.5618

> <Gold.PLP.part.nonpolar>
-32.2350

> <Gold.PLP.part.repulsive>
0.3393

> <Gold.PLP.ligand.clash>
0.0000

> <Gold.PLP.ligand.torsion>
1.6180

> <Gold.PLP.Chemscore.Hbond>
2.0000

> <Gold.PLP.Chemscore.CHOScore>
0.0000

> <Gold.PLP.Chemscore.Metal>
0.0000

> <Gold.Chemscore.Hbonds>
donor molecule, donor type, donor heavy atom, donor atom, acceptor molecule, acceptor atom, score
      P1  H  7989  7998       L1     3  1.00
      P1  H  7997  8009       L1     8  1.00

> <Gold.PLP.Chemscore.Internal.Correction>
0.0228

> <Gold.Rescore>
     Score         DG    S(hbond)    S(metal)    S(lipo)     H(rot)  DE(clash)    DE(int)     intcor
     17.55     -19.14       1.97        0.00      94.91       1.57       0.08       1.51       ----

> <Gold.Chemscore.Fitness>
17.5514

> <Gold.Chemscore.DG>
-19.1384

> <Gold.Chemscore.ZeroCoef>
-5.4800

> <Gold.Chemscore.Hbond>
1.9706

> <Gold.Chemscore.Metal>
0.0000

> <Gold.Chemscore.Lipo>
94.9068

> <Gold.Chemscore.Internal_Hbond>
0.0000

> <Gold.Chemscore.DEClash>
0.0751

> <Gold.Chemscore.DEInternal>
1.5119

> <Gold.Chemscore.Rot>
1.5732

> <Gold.Chemscore.Internal.Correction>
   9.000000E+99

> <Gold.Chemscore.Hbonds>
donor molecule, donor type, donor heavy atom, donor atom, acceptor molecule, acceptor atom, score
      P1  H  7989  7998       L1     3  0.70
      P1  H  7997  8009       L1     8  0.88

> <Gold.Chemscore.Hbond.Weighted>
-6.5818

> <Gold.Chemscore.Metal.Weighted>
-0.0000

> <Gold.Chemscore.Lipo.Weighted>
-11.1041

> <Gold.Chemscore.Internal_Hbond.Weighted>
0.0000

> <Gold.Chemscore.DEClash.Weighted>
0.0751

> <Gold.Chemscore.DEInternal.Weighted>
1.5119

> <Gold.Chemscore.Rot.Weighted>
4.0274

> <Gold.Chemscore.Internal.Correction.Weighted>
   9.000000E+99

> <Gold.Protein.RotatedTorsions>
[ 6907 6896 6895 6894 ] final -163.37 input  -60.11 | X-H torsion
[ 7974 7965 7964 7962 ] final -129.03 input  175.53 | X-H torsion
[ 8008 7997 7996 7995 ] final  131.45 input   59.86 | X-H torsion
[ 10167 10162 10161 10158 ] final -109.64 input  -65.29 | X-H torsion
[ 10718 10713 10712 10709 ] final -170.99 input   66.30 | X-H torsion
[ 10763 10752 10751 10750 ] final -102.46 input  -60.55 | X-H torsion
[ 11005 11000 10999 10996 ] final  116.80 input  -57.11 | X-H torsion

> <Gold.Protein.ActiveResidues>
 VAL166  LYS551  ARG553  GLY616  TRP617  ASP618  TYR619  PRO620  LYS621  CYS622 
 ASP623  PHE694  ASN695  SER759  ASP760  ASP761  ALA762  ILE779  LEU786  VAL792 
 PHE793  MET794  SER795  GLU796  ALA797  LYS798  CYS799  TRP800  GLU811  SER814 

> <Gold.Protein.RotatedAtoms>
  151.3950  133.3776  159.2725 H   0  0  0  0  0  0  0  0  0  0  0  0  # atno 6907 bound_to 6896
  150.9476  134.8880  159.7662 H   0  0  0  0  0  0  0  0  0  0  0  0  # atno 6908 bound_to 6896
  152.5098  134.3904  159.9434 H   0  0  0  0  0  0  0  0  0  0  0  0  # atno 6909 bound_to 6896
  144.9612  140.7448  143.4728 H   0  0  0  0  0  0  0  0  0  0  0  0  # atno 7974 bound_to 7965
  156.2970  140.2571  156.2927 H   0  0  0  0  0  0  0  0  0  0  0  0  # atno 8008 bound_to 7997
  154.9494  140.0394  157.2155 H   0  0  0  0  0  0  0  0  0  0  0  0  # atno 8009 bound_to 7997
  154.8050  140.2835  155.5898 H   0  0  0  0  0  0  0  0  0  0  0  0  # atno 8010 bound_to 7997
  140.1531  143.4182  152.1480 H   0  0  0  0  0  0  0  0  0  0  0  0  # atno 10167 bound_to 10162
  156.7342  130.9318  151.3106 H   0  0  0  0  0  0  0  0  0  0  0  0  # atno 10718 bound_to 10713
  154.7735  135.4860  153.9697 H   0  0  0  0  0  0  0  0  0  0  0  0  # atno 10763 bound_to 10752
  153.1398  135.6770  153.9052 H   0  0  0  0  0  0  0  0  0  0  0  0  # atno 10764 bound_to 10752
  153.8730  135.3141  155.3421 H   0  0  0  0  0  0  0  0  0  0  0  0  # atno 10765 bound_to 10752
  139.9053  134.9602  156.7253 H   0  0  0  0  0  0  0  0  0  0  0  0  # atno 11005 bound_to 11000
  145.2697  139.1959  143.4848 LP  0  0  0  0  0  0  0  0  0  0  0  0  # atno 17320 bound_to 7965
  146.3353  140.2642  142.8603 LP  0  0  0  0  0  0  0  0  0  0  0  0  # atno 17321 bound_to 7965
  139.5416  144.7262  151.4714 LP  0  0  0  0  0  0  0  0  0  0  0  0  # atno 17342 bound_to 10162
  140.6690  143.8335  150.6976 LP  0  0  0  0  0  0  0  0  0  0  0  0  # atno 17343 bound_to 10162
  157.6846  130.9173  150.0353 LP  0  0  0  0  0  0  0  0  0  0  0  0  # atno 17370 bound_to 10713
  156.1508  130.3642  149.9441 LP  0  0  0  0  0  0  0  0  0  0  0  0  # atno 17371 bound_to 10713
  140.6968  133.9341  155.8000 LP  0  0  0  0  0  0  0  0  0  0  0  0  # atno 17394 bound_to 11000
  141.0401  134.0634  157.3912 LP  0  0  0  0  0  0  0  0  0  0  0  0  # atno 17395 bound_to 11000

$$$$
