AV-unprocessed.smi:2447|AV-procd|sdf|9649|dock3
  -GOLD-   2272013283D 1   1.00000     0.00000
 Structure written by MMmdl.
 30 31  0  0  0  0  0  0  0  0  1 V2000
  146.6851  140.6631  152.7560 N   0  0  0  0  0  0  0  0  0  0  0  0
  147.3269  140.9166  153.8981 C   0  0  0  0  0  0  0  0  0  0  0  0
  146.7418  141.2969  154.9107 O   0  0  0  0  0  0  0  0  0  0  0  0
  148.6502  140.7041  153.7862 N   0  0  0  0  0  0  0  0  0  0  0  0
  149.6503  140.8564  154.7824 C   0  0  0  0  0  0  0  0  0  0  0  0
  150.7854  140.1023  154.7058 N   0  0  0  0  0  0  0  0  0  0  0  0
  151.4102  140.5500  155.7872 C   0  0  0  0  0  0  0  0  0  0  0  0
  150.7305  141.4795  156.4649 N   0  0  0  0  0  0  0  0  0  0  0  0
  151.0898  142.2114  157.6700 C   0  0  0  0  0  0  0  0  0  0  0  0
  151.5056  143.6647  157.3574 C   0  0  0  0  0  0  0  0  0  0  0  0
  151.8713  144.4277  158.6414 C   0  0  0  0  0  0  0  0  0  0  0  0
  152.9696  143.6967  159.4306 C   0  0  0  0  0  0  0  0  0  0  0  0
  152.5616  142.2478  159.7422 C   0  0  0  0  0  0  0  0  0  0  0  0
  152.1960  141.4826  158.4596 C   0  0  0  0  0  0  0  0  0  0  0  0
  149.5644  141.7032  155.8107 N   0  0  0  0  0  0  0  0  0  0  0  0
  145.6834  140.7839  152.7116 H   0  0  0  0  0  0  0  0  0  0  0  0
  147.1955  140.3516  151.9428 H   0  0  0  0  0  0  0  0  0  0  0  0
  148.9824  140.3909  152.8862 H   0  0  0  0  0  0  0  0  0  0  0  0
  152.3844  140.1946  156.0898 H   0  0  0  0  0  0  0  0  0  0  0  0
  150.1973  142.2467  158.2967 H   0  0  0  0  0  0  0  0  0  0  0  0
  152.3615  143.6745  156.6811 H   0  0  0  0  0  0  0  0  0  0  0  0
  150.6968  144.1820  156.8401 H   0  0  0  0  0  0  0  0  0  0  0  0
  152.2017  145.4365  158.3922 H   0  0  0  0  0  0  0  0  0  0  0  0
  150.9842  144.5387  159.2661 H   0  0  0  0  0  0  0  0  0  0  0  0
  153.8955  143.6988  158.8541 H   0  0  0  0  0  0  0  0  0  0  0  0
  153.1804  144.2314  160.3574 H   0  0  0  0  0  0  0  0  0  0  0  0
  153.3725  141.7362  160.2612 H   0  0  0  0  0  0  0  0  0  0  0  0
  151.7095  142.2466  160.4230 H   0  0  0  0  0  0  0  0  0  0  0  0
  151.8702  140.4734  158.7145 H   0  0  0  0  0  0  0  0  0  0  0  0
  153.0870  141.3722  157.8397 H   0  0  0  0  0  0  0  0  0  0  0  0
  1  2  1  0  0  0  0
  1 16  1  0  0  0  0
  1 17  1  0  0  0  0
  2  3  2  0  0  0  0
  2  4  1  0  0  0  0
  4  5  1  0  0  0  0
  4 18  1  0  0  0  0
  5 15  2  0  0  0  0
  5  6  1  0  0  0  0
  6  7  2  0  0  0  0
  7  8  1  0  0  0  0
  7 19  1  0  0  0  0
  8  9  1  0  0  0  0
  8 15  1  0  0  0  0
  9 14  1  0  0  0  0
  9 10  1  0  0  0  0
  9 20  1  0  0  0  0
 10 11  1  0  0  0  0
 10 21  1  0  0  0  0
 10 22  1  0  0  0  0
 11 12  1  0  0  0  0
 11 23  1  0  0  0  0
 11 24  1  0  0  0  0
 12 13  1  0  0  0  0
 12 25  1  0  0  0  0
 12 26  1  0  0  0  0
 13 14  1  0  0  0  0
 13 27  1  0  0  0  0
 13 28  1  0  0  0  0
 14 29  1  0  0  0  0
 14 30  1  0  0  0  0
M  END
> <s_m_source_file>
AV-unprocessed.smi

> <i_m_source_file_index>
2447

> <i_lp_mmshare_version>
43012

> <i_f3d_flags>
0

> <s_epik_input>
W05IMl1DKD1PKVtOSF1jMW5bY0hdbihuMSlbQ0hdMltDSDJdW0NIMl1bQ0gyXVtDSDJdW0NIMl0y

> <s_epik_cmdline>
J2VwaWtfcHl0aG9uJywgJy1waCcsICc3LjAnLCAnLXRuJywgJzgnLCAnLW1hJywgJzIwMCcsICctbWV0YWxfYmluZGluZycsICctaW1hZScsICc8aW5maWxlLm1hZT4nLCAnLW9tYWUnLCAnPG91dGZpbGUubWFlPic=

> <r_epik_Ionization_Penalty>
0.00749739

> <r_epik_Ionization_Penalty_Charging>
0

> <r_epik_Ionization_Penalty_Neutral>
0.00749739

> <r_epik_State_Penalty>
2.70815e-06

> <r_epik_Charging_Adjusted_Penalty>
2.70815e-06

> <i_epik_Tot_Q>
0

> <i_epik_Tot_abs_Q>
0

> <r_epik_Metal_State_Penalty>
1.00719

> <b_epik_Metal_Only>
0

> <s_lp_Force_Field>
OPLS_2005

> <r_lp_Energy>
13.5965

> <b_lp_Chiralities_Consistent>
1

> <s_lp_Variant>
AV-unprocessed.smi:2447-1

> <Gold.Version>
5.8.1

> <Gold.Id.Protein>
6NUR|6NUR_protein|mol2

> <Gold.PLP.Fitness>
42.1801

> <Gold.PLP.PLP>
-34.3881

> <Gold.PLP.part.hbond>
-3.0000

> <Gold.PLP.part.metal>
0.0000

> <Gold.PLP.part.buried>
-3.9140

> <Gold.PLP.part.nonpolar>
-28.3434

> <Gold.PLP.part.repulsive>
0.8598

> <Gold.PLP.ligand.clash>
0.0000

> <Gold.PLP.ligand.torsion>
0.6164

> <Gold.PLP.Chemscore.Hbond>
3.0000

> <Gold.PLP.Chemscore.CHOScore>
0.0000

> <Gold.PLP.Chemscore.Metal>
0.0000

> <Gold.Chemscore.Hbonds>
donor molecule, donor type, donor heavy atom, donor atom, acceptor molecule, acceptor atom, score
      L1  H     1    16       P1 10175  1.00
      L1  H     4    18       P1  7957  1.00
      P1  H  7989  7998       L1     6  1.00

> <Gold.PLP.Chemscore.Internal.Correction>
0.0248

> <Gold.Rescore>
     Score         DG    S(hbond)    S(metal)    S(lipo)     H(rot)  DE(clash)    DE(int)     intcor
     16.92     -17.85       2.19        0.00      64.96       1.00       0.21       0.72       ----

> <Gold.Chemscore.Fitness>
16.9174

> <Gold.Chemscore.DG>
-17.8484

> <Gold.Chemscore.ZeroCoef>
-5.4800

> <Gold.Chemscore.Hbond>
2.1941

> <Gold.Chemscore.Metal>
0.0000

> <Gold.Chemscore.Lipo>
64.9573

> <Gold.Chemscore.Internal_Hbond>
0.0000

> <Gold.Chemscore.DEClash>
0.2063

> <Gold.Chemscore.DEInternal>
0.7246

> <Gold.Chemscore.Rot>
1.0000

> <Gold.Chemscore.Internal.Correction>
   9.000000E+99

> <Gold.Chemscore.Hbonds>
donor molecule, donor type, donor heavy atom, donor atom, acceptor molecule, acceptor atom, score
      L1  H     1    16       P1 10175  0.32
      L1  H     1    17       P1  7957  0.01
      L1  H     4    18       P1  7957  1.00
      P1  H  7989  7998       L1     6  0.10

> <Gold.Chemscore.Hbond.Weighted>
-7.3284

> <Gold.Chemscore.Metal.Weighted>
-0.0000

> <Gold.Chemscore.Lipo.Weighted>
-7.6000

> <Gold.Chemscore.Internal_Hbond.Weighted>
0.0000

> <Gold.Chemscore.DEClash.Weighted>
0.2063

> <Gold.Chemscore.DEInternal.Weighted>
0.7246

> <Gold.Chemscore.Rot.Weighted>
2.5600

> <Gold.Chemscore.Internal.Correction.Weighted>
   9.000000E+99

> <Gold.Protein.RotatedTorsions>
[ 6907 6896 6895 6894 ] final  -55.54 input  -60.11 | X-H torsion
[ 7974 7965 7964 7962 ] final   36.34 input  175.53 | X-H torsion
[ 8008 7997 7996 7995 ] final   77.08 input   59.86 | X-H torsion
[ 10167 10162 10161 10158 ] final   97.72 input  -65.29 | X-H torsion
[ 10718 10713 10712 10709 ] final  -84.39 input   66.30 | X-H torsion
[ 10763 10752 10751 10750 ] final  157.46 input  -60.55 | X-H torsion
[ 11005 11000 10999 10996 ] final -174.40 input  -57.11 | X-H torsion

> <Gold.Protein.ActiveResidues>
 VAL166  LYS551  ARG553  GLY616  TRP617  ASP618  TYR619  PRO620  LYS621  CYS622 
 ASP623  PHE694  ASN695  SER759  ASP760  ASP761  ALA762  ILE779  LEU786  VAL792 
 PHE793  MET794  SER795  GLU796  ALA797  LYS798  CYS799  TRP800  GLU811  SER814 

> <Gold.Protein.RotatedAtoms>
  150.8243  134.7466  159.6798 H   0  0  0  0  0  0  0  0  0  0  0  0  # atno 6907 bound_to 6896
  152.4355  134.5691  159.9926 H   0  0  0  0  0  0  0  0  0  0  0  0  # atno 6908 bound_to 6896
  151.5867  133.3334  159.3055 H   0  0  0  0  0  0  0  0  0  0  0  0  # atno 6909 bound_to 6896
  146.1218  139.6030  142.9284 H   0  0  0  0  0  0  0  0  0  0  0  0  # atno 7974 bound_to 7965
  155.8365  140.3464  155.5605 H   0  0  0  0  0  0  0  0  0  0  0  0  # atno 8008 bound_to 7997
  155.8186  140.0909  157.1882 H   0  0  0  0  0  0  0  0  0  0  0  0  # atno 8009 bound_to 7997
  154.4004  140.1434  156.3460 H   0  0  0  0  0  0  0  0  0  0  0  0  # atno 8010 bound_to 7997
  139.7775  144.6900  151.0069 H   0  0  0  0  0  0  0  0  0  0  0  0  # atno 10167 bound_to 10162
  156.0007  130.4696  150.4402 H   0  0  0  0  0  0  0  0  0  0  0  0  # atno 10718 bound_to 10713
  154.2006  135.2790  155.2992 H   0  0  0  0  0  0  0  0  0  0  0  0  # atno 10763 bound_to 10752
  154.5857  135.5575  153.7232 H   0  0  0  0  0  0  0  0  0  0  0  0  # atno 10764 bound_to 10752
  153.0089  135.6356  154.2144 H   0  0  0  0  0  0  0  0  0  0  0  0  # atno 10765 bound_to 10752
  140.4749  134.6130  157.4897 H   0  0  0  0  0  0  0  0  0  0  0  0  # atno 11005 bound_to 11000
  145.5449  141.0418  143.2310 LP  0  0  0  0  0  0  0  0  0  0  0  0  # atno 17320 bound_to 7965
  144.7604  139.6970  143.7236 LP  0  0  0  0  0  0  0  0  0  0  0  0  # atno 17321 bound_to 7965
  140.7817  143.4520  151.0399 LP  0  0  0  0  0  0  0  0  0  0  0  0  # atno 17342 bound_to 10162
  139.8202  143.7831  152.3176 LP  0  0  0  0  0  0  0  0  0  0  0  0  # atno 17343 bound_to 10162
  157.2444  131.0532  151.2417 LP  0  0  0  0  0  0  0  0  0  0  0  0  # atno 17370 bound_to 10713
  157.3589  130.7121  149.6489 LP  0  0  0  0  0  0  0  0  0  0  0  0  # atno 17371 bound_to 10713
  139.9862  134.7058  155.9770 LP  0  0  0  0  0  0  0  0  0  0  0  0  # atno 17394 bound_to 11000
  141.1559  133.6543  156.4160 LP  0  0  0  0  0  0  0  0  0  0  0  0  # atno 17395 bound_to 11000

$$$$
