AV-unprocessed.smi:157|AV-procd|sdf|1301|dock1
  -GOLD-   2262018583D 1   1.00000     0.00000
 Structure written by MMmdl.
 35 37  0  0  0  0  0  0  0  0  1 V2000
  151.3118  140.3140  155.1165 O   0  0  0  0  0  0  0  0  0  0  0  0
  150.0819  139.7615  155.5346 C   0  0  0  0  0  0  0  0  0  0  0  0
  149.0192  139.9353  154.4362 C   0  0  1  0  0  0  0  0  0  0  0  0
  147.8404  139.2008  154.7406 O   0  0  0  0  0  0  0  0  0  0  0  0
  146.7733  139.6913  153.9829 C   0  0  2  0  0  0  0  0  0  0  0  0
  146.5557  138.7888  152.8019 N   0  0  0  0  0  0  0  0  0  0  0  0
  146.8688  139.0368  151.5218 C   0  0  0  0  0  0  0  0  0  0  0  0
  146.5710  138.0595  150.6826 N   0  0  0  0  0  0  0  0  0  0  0  0
  146.0123  137.0764  151.4964 C   0  0  0  0  0  0  0  0  0  0  0  0
  145.9977  137.5068  152.8150 C   0  0  0  0  0  0  0  0  0  0  0  0
  145.5950  136.9829  154.0288 N   0  0  0  0  0  0  0  0  0  0  0  0
  144.7657  135.9873  154.0156 C   0  0  0  0  0  0  0  0  0  0  0  0
  144.2563  135.2609  152.9488 N   0  0  0  0  0  0  0  0  0  0  0  0
  145.0861  134.7186  151.8864 C   0  0  0  0  0  0  0  0  0  0  0  0
  145.5724  135.7764  150.8878 C   0  0  1  0  0  0  0  0  0  0  0  0
  144.5297  136.0771  149.9828 O   0  0  0  0  0  0  0  0  0  0  0  0
  147.1624  141.1014  153.5041 C   0  0  0  0  0  0  0  0  0  0  0  0
  148.4911  141.3549  154.1961 C   0  0  1  0  0  0  0  0  0  0  0  0
  148.2962  142.0631  155.4055 O   0  0  0  0  0  0  0  0  0  0  0  0
  149.4139  139.5465  153.4956 H   0  0  0  0  0  0  0  0  0  0  0  0
  145.8410  139.6475  154.5469 H   0  0  0  0  0  0  0  0  0  0  0  0
  146.3858  135.3487  150.3009 H   0  0  0  0  0  0  0  0  0  0  0  0
  149.1687  141.9334  153.5675 H   0  0  0  0  0  0  0  0  0  0  0  0
  151.7995  140.5742  155.8832 H   0  0  0  0  0  0  0  0  0  0  0  0
  150.2340  138.7010  155.7367 H   0  0  0  0  0  0  0  0  0  0  0  0
  149.7706  140.2205  156.4730 H   0  0  0  0  0  0  0  0  0  0  0  0
  147.3297  139.9550  151.1895 H   0  0  0  0  0  0  0  0  0  0  0  0
  144.3828  135.6195  154.9687 H   0  0  0  0  0  0  0  0  0  0  0  0
  143.4402  134.6868  153.1041 H   0  0  0  0  0  0  0  0  0  0  0  0
  145.9546  134.2572  152.3589 H   0  0  0  0  0  0  0  0  0  0  0  0
  144.5560  133.9152  151.3741 H   0  0  0  0  0  0  0  0  0  0  0  0
  144.3664  137.0075  150.0207 H   0  0  0  0  0  0  0  0  0  0  0  0
  147.2924  141.1066  152.4206 H   0  0  0  0  0  0  0  0  0  0  0  0
  146.3894  141.8270  153.7607 H   0  0  0  0  0  0  0  0  0  0  0  0
  148.4208  142.9843  155.2346 H   0  0  0  0  0  0  0  0  0  0  0  0
  1  2  1  0  0  0  0
  1 24  1  0  0  0  0
  2  3  1  0  0  0  0
  2 25  1  0  0  0  0
  2 26  1  0  0  0  0
  3 20  1  0  0  0  0
  3 18  1  0  0  0  0
  3  4  1  0  0  0  0
  4  5  1  0  0  0  0
  5 21  1  0  0  0  0
  5  6  1  0  0  0  0
  5 17  1  0  0  0  0
  6 10  1  0  0  0  0
  6  7  1  0  0  0  0
  7  8  2  0  0  0  0
  7 27  1  0  0  0  0
  8  9  1  0  0  0  0
  9 15  1  0  0  0  0
  9 10  2  0  0  0  0
 10 11  1  0  0  0  0
 11 12  2  0  0  0  0
 12 13  1  0  0  0  0
 12 28  1  0  0  0  0
 13 14  1  0  0  0  0
 13 29  1  0  0  0  0
 14 15  1  0  0  0  0
 14 30  1  0  0  0  0
 14 31  1  0  0  0  0
 15 22  1  0  0  0  0
 15 16  1  0  0  0  0
 16 32  1  0  0  0  0
 17 18  1  0  0  0  0
 17 33  1  0  0  0  0
 17 34  1  0  0  0  0
 18 23  1  0  0  0  0
 18 19  1  0  0  0  0
 19 35  1  0  0  0  0
M  END
> <s_m_source_file>
AV-unprocessed.smi

> <i_m_source_file_index>
157

> <i_lp_mmshare_version>
43012

> <i_f3d_flags>
0

> <s_epik_input>
W09IXVtDSDJdW0NASF0xT1tDQEhdKFtDSDJdW0NAQEhdMVtPSF0pbihbY0hdbjIpYyhjMjMpTj1bQ0hdW05IXVtDSDJdW0NASF0zW09IXQ==

> <s_epik_cmdline>
J2VwaWtfcHl0aG9uJywgJy1waCcsICc3LjAnLCAnLXRuJywgJzgnLCAnLW1hJywgJzIwMCcsICctbWV0YWxfYmluZGluZycsICctaW1hZScsICc8aW5maWxlLm1hZT4nLCAnLW9tYWUnLCAnPG91dGZpbGUubWFlPic=

> <r_lp_tautomer_probability>
1

> <r_epik_Ionization_Penalty>
0.0357149

> <r_epik_Ionization_Penalty_Charging>
0.0355056

> <r_epik_Ionization_Penalty_Neutral>
0.000209255

> <r_epik_State_Penalty>
0.0296046

> <r_epik_Charging_Adjusted_Penalty>
0.0651102

> <i_epik_Tot_Q>
0

> <i_epik_Tot_abs_Q>
0

> <r_epik_Metal_State_Penalty>
3.03559e-05

> <b_epik_Metal_Only>
0

> <s_epik_Chemistry_Notes>
This compound has an imine and may undergo hydrolysis. This compound contains an acetal/aminal-like group ( X-CH(R)-Y where X, Y are N, S, or O) that may be acid/base labile, releasing an aldehyde.

> <s_lp_Force_Field>
OPLS_2005

> <r_lp_Energy>
44.137

> <b_lp_Chiralities_Consistent>
1

> <s_lp_Variant>
AV-unprocessed.smi:157-11

> <Gold.Version>
5.8.1

> <Gold.Id.Protein>
6NUR|6NUR_protein|mol2

> <Gold.PLP.Fitness>
42.6174

> <Gold.PLP.PLP>
-29.0309

> <Gold.PLP.part.hbond>
-5.0000

> <Gold.PLP.part.metal>
0.0000

> <Gold.PLP.part.buried>
-0.9799

> <Gold.PLP.part.nonpolar>
-26.4407

> <Gold.PLP.part.repulsive>
2.0389

> <Gold.PLP.ligand.clash>
0.0000

> <Gold.PLP.ligand.torsion>
0.3256

> <Gold.PLP.Chemscore.Hbond>
4.0000

> <Gold.PLP.Chemscore.CHOScore>
0.7428

> <Gold.PLP.Chemscore.Metal>
0.0000

> <Gold.Chemscore.Hbonds>
donor molecule, donor type, donor heavy atom, donor atom, acceptor molecule, acceptor atom, score
      L1  H    16    32       P1 10171  1.00
      L1  H    19    35       P1  8028  1.00
      P1  H  7954  7966       L1     8  0.95
      P1  H  7989  7998       L1     1  1.00
      L1  C     7    27       P1  7957  0.76

> <Gold.PLP.Chemscore.Internal.Correction>
0.0094

> <Gold.Rescore>
     Score         DG    S(hbond)    S(metal)    S(lipo)     H(rot)  DE(clash)    DE(int)     intcor
      9.71     -12.34       3.26        0.00      45.23       3.64       2.39       0.24       ----

> <Gold.Chemscore.Fitness>
9.7115

> <Gold.Chemscore.DG>
-12.3425

> <Gold.Chemscore.ZeroCoef>
-5.4800

> <Gold.Chemscore.Hbond>
3.2571

> <Gold.Chemscore.Metal>
0.0000

> <Gold.Chemscore.Lipo>
45.2349

> <Gold.Chemscore.Internal_Hbond>
0.0000

> <Gold.Chemscore.DEClash>
2.3907

> <Gold.Chemscore.DEInternal>
0.2402

> <Gold.Chemscore.Rot>
3.6362

> <Gold.Chemscore.Internal.Correction>
   9.000000E+99

> <Gold.Chemscore.Hbonds>
donor molecule, donor type, donor heavy atom, donor atom, acceptor molecule, acceptor atom, score
      L1  H    16    32       P1 10171  1.00
      L1  H    19    35       P1  8028  0.98
      P1  H  7954  7966       L1     8  0.20
      P1  H  7989  7998       L1     1  0.96

> <Gold.Chemscore.Hbond.Weighted>
-10.8787

> <Gold.Chemscore.Metal.Weighted>
-0.0000

> <Gold.Chemscore.Lipo.Weighted>
-5.2925

> <Gold.Chemscore.Internal_Hbond.Weighted>
0.0000

> <Gold.Chemscore.DEClash.Weighted>
2.3907

> <Gold.Chemscore.DEInternal.Weighted>
0.2402

> <Gold.Chemscore.Rot.Weighted>
9.3087

> <Gold.Chemscore.Internal.Correction.Weighted>
   9.000000E+99

> <Gold.Protein.RotatedTorsions>
[ 6907 6896 6895 6894 ] final   -1.49 input  -60.11 | X-H torsion
[ 7974 7965 7964 7962 ] final  -97.38 input  175.53 | X-H torsion
[ 8008 7997 7996 7995 ] final  106.43 input   59.86 | X-H torsion
[ 10167 10162 10161 10158 ] final  170.59 input  -65.29 | X-H torsion
[ 10718 10713 10712 10709 ] final -153.81 input   66.30 | X-H torsion
[ 10763 10752 10751 10750 ] final -166.39 input  -60.55 | X-H torsion
[ 11005 11000 10999 10996 ] final    7.51 input  -57.11 | X-H torsion

> <Gold.Protein.ActiveResidues>
 VAL166  LYS551  ARG553  GLY616  TRP617  ASP618  TYR619  PRO620  LYS621  CYS622 
 ASP623  PHE694  ASN695  SER759  ASP760  ASP761  ALA762  ILE779  LEU786  VAL792 
 PHE793  MET794  SER795  GLU796  ALA797  LYS798  CYS799  TRP800  GLU811  SER814 

> <Gold.Protein.RotatedAtoms>
  151.5452  135.1068  159.9935 H   0  0  0  0  0  0  0  0  0  0  0  0  # atno 6907 bound_to 6896
  152.4517  133.7638  159.6772 H   0  0  0  0  0  0  0  0  0  0  0  0  # atno 6908 bound_to 6896
  150.8447  133.7813  159.3072 H   0  0  0  0  0  0  0  0  0  0  0  0  # atno 6909 bound_to 6896
  145.3345  140.9448  143.2643 H   0  0  0  0  0  0  0  0  0  0  0  0  # atno 7974 bound_to 7965
  156.1743  140.3113  155.9030 H   0  0  0  0  0  0  0  0  0  0  0  0  # atno 8008 bound_to 7997
  155.3521  140.0471  157.3063 H   0  0  0  0  0  0  0  0  0  0  0  0  # atno 8009 bound_to 7997
  154.5273  140.2219  155.8877 H   0  0  0  0  0  0  0  0  0  0  0  0  # atno 8010 bound_to 7997
  139.5023  144.3580  151.9854 H   0  0  0  0  0  0  0  0  0  0  0  0  # atno 10167 bound_to 10162
  156.4909  130.8347  151.2570 H   0  0  0  0  0  0  0  0  0  0  0  0  # atno 10718 bound_to 10713
  154.6838  135.2959  154.9576 H   0  0  0  0  0  0  0  0  0  0  0  0  # atno 10763 bound_to 10752
  154.0562  135.6637  153.4810 H   0  0  0  0  0  0  0  0  0  0  0  0  # atno 10764 bound_to 10752
  153.0565  135.5141  154.7894 H   0  0  0  0  0  0  0  0  0  0  0  0  # atno 10765 bound_to 10752
  140.5474  134.0316  155.7925 H   0  0  0  0  0  0  0  0  0  0  0  0  # atno 11005 bound_to 11000
  144.8838  139.4867  143.6710 LP  0  0  0  0  0  0  0  0  0  0  0  0  # atno 17320 bound_to 7965
  146.3032  139.7495  142.9075 LP  0  0  0  0  0  0  0  0  0  0  0  0  # atno 17321 bound_to 7965
  140.3016  144.3640  150.6058 LP  0  0  0  0  0  0  0  0  0  0  0  0  # atno 17342 bound_to 10162
  140.5869  143.2169  151.7326 LP  0  0  0  0  0  0  0  0  0  0  0  0  # atno 17343 bound_to 10162
  157.7474  131.0014  150.2961 LP  0  0  0  0  0  0  0  0  0  0  0  0  # atno 17370 bound_to 10713
  156.3428  130.3818  149.7395 LP  0  0  0  0  0  0  0  0  0  0  0  0  # atno 17371 bound_to 10713
  141.1192  133.9490  157.2763 LP  0  0  0  0  0  0  0  0  0  0  0  0  # atno 17394 bound_to 11000
  139.9473  135.0182  156.8889 LP  0  0  0  0  0  0  0  0  0  0  0  0  # atno 17395 bound_to 11000

$$$$
