AV-unprocessed.smi:2630|AV-procd|sdf|10246|dock6
  -GOLD-   2272014253D 1   1.00000     0.00000
 Structure written by MMmdl.
 35 36  0  0  0  0  0  0  0  0  1 V2000
  147.3298  136.5881  162.4018 C   0  0  0  0  0  0  0  0  0  0  0  0
  147.2945  137.1517  161.1030 O   0  0  0  0  0  0  0  0  0  0  0  0
  148.3522  136.6881  160.2795 C   0  0  0  0  0  0  0  0  0  0  0  0
  148.2437  137.3353  158.8888 C   0  0  0  0  0  0  0  0  0  0  0  0
  149.4512  138.0321  158.4919 N   0  0  0  0  0  0  0  0  0  0  0  0
  149.4668  139.3363  157.9902 C   0  0  0  0  0  0  0  0  0  0  0  0
  148.2727  140.0262  157.8675 N   0  0  0  0  0  0  0  0  0  0  0  0
  150.6300  139.9238  157.6067 C   0  0  0  0  0  0  0  0  0  0  0  0
  150.7810  141.5599  156.9293 S   0  0  0  0  0  0  0  0  0  0  0  0
  151.3278  142.4616  158.3425 C   0  0  0  0  0  0  0  0  0  0  0  0
  152.3463  141.9353  159.1623 C   0  0  0  0  0  0  0  0  0  0  0  0
  152.7757  142.6525  160.2959 C   0  0  0  0  0  0  0  0  0  0  0  0
  152.1894  143.8950  160.6074 C   0  0  0  0  0  0  0  0  0  0  0  0
  151.1725  144.4209  159.7859 C   0  0  0  0  0  0  0  0  0  0  0  0
  150.7411  143.7046  158.6524 C   0  0  0  0  0  0  0  0  0  0  0  0
  151.9214  139.2392  157.6990 C   0  0  0  0  0  0  0  0  0  0  0  0
  153.0210  139.6974  157.3898 O   0  0  0  0  0  0  0  0  0  0  0  0
  151.8322  137.9377  158.1922 N   0  0  0  0  0  0  0  0  0  0  0  0
  150.6592  137.2952  158.5850 C   0  0  0  0  0  0  0  0  0  0  0  0
  150.7141  136.1325  158.9871 O   0  0  0  0  0  0  0  0  0  0  0  0
  152.6917  137.4133  158.2670 H   0  0  0  0  0  0  0  0  0  0  0  0
  146.4990  136.9748  162.9919 H   0  0  0  0  0  0  0  0  0  0  0  0
  148.2567  136.8424  162.9176 H   0  0  0  0  0  0  0  0  0  0  0  0
  147.2368  135.5020  162.3617 H   0  0  0  0  0  0  0  0  0  0  0  0
  149.3080  136.9562  160.7314 H   0  0  0  0  0  0  0  0  0  0  0  0
  148.3260  135.6002  160.2012 H   0  0  0  0  0  0  0  0  0  0  0  0
  148.0225  136.5965  158.1196 H   0  0  0  0  0  0  0  0  0  0  0  0
  147.4214  138.0510  158.8402 H   0  0  0  0  0  0  0  0  0  0  0  0
  147.3908  139.6107  158.1314 H   0  0  0  0  0  0  0  0  0  0  0  0
  148.2479  141.0018  157.6078 H   0  0  0  0  0  0  0  0  0  0  0  0
  152.7969  140.9821  158.9278 H   0  0  0  0  0  0  0  0  0  0  0  0
  153.5543  142.2493  160.9266 H   0  0  0  0  0  0  0  0  0  0  0  0
  152.5196  144.4443  161.4767 H   0  0  0  0  0  0  0  0  0  0  0  0
  150.7228  145.3731  160.0258 H   0  0  0  0  0  0  0  0  0  0  0  0
  149.9588  144.1078  158.0259 H   0  0  0  0  0  0  0  0  0  0  0  0
  1  2  1  0  0  0  0
  1 22  1  0  0  0  0
  1 23  1  0  0  0  0
  1 24  1  0  0  0  0
  2  3  1  0  0  0  0
  3  4  1  0  0  0  0
  3 25  1  0  0  0  0
  3 26  1  0  0  0  0
  4  5  1  0  0  0  0
  4 27  1  0  0  0  0
  4 28  1  0  0  0  0
  5 19  1  0  0  0  0
  5  6  1  0  0  0  0
  6  7  1  0  0  0  0
  6  8  2  0  0  0  0
  7 29  1  0  0  0  0
  7 30  1  0  0  0  0
  8  9  1  0  0  0  0
  8 16  1  0  0  0  0
  9 10  1  0  0  0  0
 10 15  1  0  0  0  0
 10 11  2  0  0  0  0
 11 12  1  0  0  0  0
 11 31  1  0  0  0  0
 12 13  2  0  0  0  0
 12 32  1  0  0  0  0
 13 14  1  0  0  0  0
 13 33  1  0  0  0  0
 14 15  2  0  0  0  0
 14 34  1  0  0  0  0
 15 35  1  0  0  0  0
 16 17  2  0  0  0  0
 16 18  1  0  0  0  0
 18 21  1  0  0  0  0
 18 19  1  0  0  0  0
 19 20  2  0  0  0  0
M  END
> <s_m_source_file>
AV-unprocessed.smi

> <i_m_source_file_index>
2630

> <i_lp_mmshare_version>
43012

> <i_f3d_flags>
0

> <s_epik_input>
W0NIM11PW0NIMl1bQ0gyXW4xYyhbTkgyXSljKGMoPU8pW25IXWMxPU8pU2MyW2NIXVtjSF1bY0hdW2NIXVtjSF0y

> <s_epik_cmdline>
J2VwaWtfcHl0aG9uJywgJy1waCcsICc3LjAnLCAnLXRuJywgJzgnLCAnLW1hJywgJzIwMCcsICctbWV0YWxfYmluZGluZycsICctaW1hZScsICc8aW5maWxlLm1hZT4nLCAnLW9tYWUnLCAnPG91dGZpbGUubWFlPic=

> <r_lp_tautomer_probability>
1

> <r_epik_Ionization_Penalty>
1.3786e-05

> <r_epik_Ionization_Penalty_Charging>
1.17844e-05

> <r_epik_Ionization_Penalty_Neutral>
2.00164e-06

> <r_epik_State_Penalty>
-0

> <r_epik_Charging_Adjusted_Penalty>
1.17844e-05

> <i_epik_Tot_Q>
0

> <i_epik_Tot_abs_Q>
0

> <r_epik_Metal_State_Penalty>
0.0115847

> <b_epik_Metal_Only>
0

> <s_epik_Chemistry_Notes>
This compound has an imine and may undergo hydrolysis.

> <s_lp_Force_Field>
OPLS_2005

> <r_lp_Energy>
18.8348

> <b_lp_Chiralities_Consistent>
1

> <s_lp_Variant>
AV-unprocessed.smi:2630-1

> <Gold.Version>
5.8.1

> <Gold.Id.Protein>
6NUR|6NUR_protein|mol2

> <Gold.PLP.Fitness>
42.9937

> <Gold.PLP.PLP>
-36.0306

> <Gold.PLP.part.hbond>
-3.6313

> <Gold.PLP.part.metal>
0.0000

> <Gold.PLP.part.buried>
-4.2774

> <Gold.PLP.part.nonpolar>
-28.9397

> <Gold.PLP.part.repulsive>
0.2353

> <Gold.PLP.ligand.clash>
0.0310

> <Gold.PLP.ligand.torsion>
0.9145

> <Gold.PLP.Chemscore.Hbond>
2.9280

> <Gold.PLP.Chemscore.CHOScore>
0.0000

> <Gold.PLP.Chemscore.Metal>
0.0000

> <Gold.Chemscore.Hbonds>
donor molecule, donor type, donor heavy atom, donor atom, acceptor molecule, acceptor atom, score
      P1  H  6896  6908       L1    20  0.70
      P1  H  6934  6947       L1     2  1.00
      P1  H  7997  8010       L1    17  1.00

> <Gold.PLP.Chemscore.Internal.Correction>
0.0391

> <Gold.Rescore>
     Score         DG    S(hbond)    S(metal)    S(lipo)     H(rot)  DE(clash)    DE(int)     intcor
     17.62     -20.07       2.82        0.00      89.53       2.07       0.11       2.34       ----

> <Gold.Chemscore.Fitness>
17.6171

> <Gold.Chemscore.DG>
-20.0668

> <Gold.Chemscore.ZeroCoef>
-5.4800

> <Gold.Chemscore.Hbond>
2.8160

> <Gold.Chemscore.Metal>
0.0000

> <Gold.Chemscore.Lipo>
89.5337

> <Gold.Chemscore.Internal_Hbond>
0.0000

> <Gold.Chemscore.DEClash>
0.1121

> <Gold.Chemscore.DEInternal>
2.3375

> <Gold.Chemscore.Rot>
2.0680

> <Gold.Chemscore.Internal.Correction>
   9.000000E+99

> <Gold.Chemscore.Hbonds>
donor molecule, donor type, donor heavy atom, donor atom, acceptor molecule, acceptor atom, score
      P1  H  6896  6908       L1    20  0.65
      P1  H  6934  6947       L1     2  0.65
      P1  H  7997  8010       L1    17  0.95

> <Gold.Chemscore.Hbond.Weighted>
-9.4054

> <Gold.Chemscore.Metal.Weighted>
-0.0000

> <Gold.Chemscore.Lipo.Weighted>
-10.4754

> <Gold.Chemscore.Internal_Hbond.Weighted>
0.0000

> <Gold.Chemscore.DEClash.Weighted>
0.1121

> <Gold.Chemscore.DEInternal.Weighted>
2.3375

> <Gold.Chemscore.Rot.Weighted>
5.2941

> <Gold.Chemscore.Internal.Correction.Weighted>
   9.000000E+99

> <Gold.Protein.RotatedTorsions>
[ 6907 6896 6895 6894 ] final -163.24 input  -60.11 | X-H torsion
[ 7974 7965 7964 7962 ] final  -47.89 input  175.53 | X-H torsion
[ 8008 7997 7996 7995 ] final   69.07 input   59.86 | X-H torsion
[ 10167 10162 10161 10158 ] final  -79.10 input  -65.29 | X-H torsion
[ 10718 10713 10712 10709 ] final -118.24 input   66.30 | X-H torsion
[ 10763 10752 10751 10750 ] final  -37.03 input  -60.55 | X-H torsion
[ 11005 11000 10999 10996 ] final -141.16 input  -57.11 | X-H torsion

> <Gold.Protein.ActiveResidues>
 VAL166  LYS551  ARG553  GLY616  TRP617  ASP618  TYR619  PRO620  LYS621  CYS622 
 ASP623  PHE694  ASN695  SER759  ASP760  ASP761  ALA762  ILE779  LEU786  VAL792 
 PHE793  MET794  SER795  GLU796  ALA797  LYS798  CYS799  TRP800  GLU811  SER814 

> <Gold.Protein.RotatedAtoms>
  151.3930  133.3782  159.2722 H   0  0  0  0  0  0  0  0  0  0  0  0  # atno 6907 bound_to 6896
  150.9491  134.8894  159.7671 H   0  0  0  0  0  0  0  0  0  0  0  0  # atno 6908 bound_to 6896
  152.5104  134.3884  159.9427 H   0  0  0  0  0  0  0  0  0  0  0  0  # atno 6909 bound_to 6896
  145.9569  140.7518  142.9477 H   0  0  0  0  0  0  0  0  0  0  0  0  # atno 7974 bound_to 7965
  155.7180  140.3493  155.5003 H   0  0  0  0  0  0  0  0  0  0  0  0  # atno 8008 bound_to 7997
  155.9296  140.1082  157.1165 H   0  0  0  0  0  0  0  0  0  0  0  0  # atno 8009 bound_to 7997
  154.4083  140.1234  156.4772 H   0  0  0  0  0  0  0  0  0  0  0  0  # atno 8010 bound_to 7997
  140.4623  143.2450  151.8330 H   0  0  0  0  0  0  0  0  0  0  0  0  # atno 10167 bound_to 10162
  156.1092  130.6235  150.9266 H   0  0  0  0  0  0  0  0  0  0  0  0  # atno 10718 bound_to 10713
  153.8895  135.6813  153.4761 H   0  0  0  0  0  0  0  0  0  0  0  0  # atno 10763 bound_to 10752
  153.1189  135.4749  154.9159 H   0  0  0  0  0  0  0  0  0  0  0  0  # atno 10764 bound_to 10752
  154.7629  135.3216  154.8296 H   0  0  0  0  0  0  0  0  0  0  0  0  # atno 10765 bound_to 10752
  140.8351  134.2470  157.4838 H   0  0  0  0  0  0  0  0  0  0  0  0  # atno 11005 bound_to 11000
  144.6807  140.2526  143.7329 LP  0  0  0  0  0  0  0  0  0  0  0  0  # atno 17320 bound_to 7965
  145.8094  139.1997  143.2002 LP  0  0  0  0  0  0  0  0  0  0  0  0  # atno 17321 bound_to 7965
  139.4808  144.4992  151.9083 LP  0  0  0  0  0  0  0  0  0  0  0  0  # atno 17342 bound_to 10162
  140.4078  144.2409  150.5890 LP  0  0  0  0  0  0  0  0  0  0  0  0  # atno 17343 bound_to 10162
  157.6271  131.0924  150.8512 LP  0  0  0  0  0  0  0  0  0  0  0  0  # atno 17370 bound_to 10713
  156.8626  130.5118  149.5302 LP  0  0  0  0  0  0  0  0  0  0  0  0  # atno 17371 bound_to 10713
  139.8704  134.9606  156.4371 LP  0  0  0  0  0  0  0  0  0  0  0  0  # atno 17394 bound_to 11000
  140.8956  133.7816  155.9621 LP  0  0  0  0  0  0  0  0  0  0  0  0  # atno 17395 bound_to 11000

$$$$
