AV-unprocessed.smi:577|AV-procd|sdf|2980|dock7
  -GOLD-   2262023493D 1   1.00000     0.00000
 Structure written by MMmdl.
 41 42  0  0  0  0  0  0  0  0  1 V2000
  146.4196  141.7472  157.7639 C   0  0  0  0  0  0  0  0  0  0  0  0
  146.7702  142.0479  156.3166 C   0  0  0  0  0  0  0  0  0  0  0  0
  146.0773  142.8486  155.5001 C   0  0  0  0  0  0  0  0  0  0  0  0
  146.8005  142.9890  153.9165 S   0  0  0  0  0  0  0  0  0  0  0  0
  148.1317  141.8856  154.4173 C   0  0  0  0  0  0  0  0  0  0  0  0
  149.0508  141.5655  153.6652 O   0  0  0  0  0  0  0  0  0  0  0  0
  147.9201  141.4917  155.7383 N   0  0  0  0  0  0  0  0  0  0  0  0
  148.8219  140.5729  156.4458 C   0  0  0  0  0  0  0  0  0  0  0  0
  150.2443  141.1243  156.6130 C   0  0  0  0  0  0  0  0  0  0  0  0
  150.9341  141.4089  155.6328 O   0  0  0  0  0  0  0  0  0  0  0  0
  150.6608  141.2755  157.8796 N   0  0  0  0  0  0  0  0  0  0  0  0
  151.9616  141.7891  158.3065 C   0  0  0  0  0  0  0  0  0  0  0  0
  152.2336  141.3199  159.7509 C   0  0  0  0  0  0  0  0  0  0  0  0
  153.4513  141.9828  160.4216 C   0  0  0  0  0  0  0  0  0  0  0  0
  153.1097  142.8902  161.6182 C   0  0  0  0  0  0  0  0  0  0  0  0
  151.9091  143.8465  161.4576 C   0  0  0  0  0  0  0  0  0  0  0  0
  151.9237  144.7603  160.2194 C   0  0  0  0  0  0  0  0  0  0  0  0
  151.1846  144.2088  158.9806 C   0  0  0  0  0  0  0  0  0  0  0  0
  152.0307  143.3141  158.0553 C   0  0  0  0  0  0  0  0  0  0  0  0
  145.7510  142.5137  158.1565 H   0  0  0  0  0  0  0  0  0  0  0  0
  147.3025  141.7300  158.4023 H   0  0  0  0  0  0  0  0  0  0  0  0
  145.9126  140.7853  157.8384 H   0  0  0  0  0  0  0  0  0  0  0  0
  145.1719  143.3842  155.7448 H   0  0  0  0  0  0  0  0  0  0  0  0
  148.4166  140.3090  157.4227 H   0  0  0  0  0  0  0  0  0  0  0  0
  148.8827  139.6314  155.8970 H   0  0  0  0  0  0  0  0  0  0  0  0
  150.0195  141.0169  158.6154 H   0  0  0  0  0  0  0  0  0  0  0  0
  152.7447  141.3503  157.6859 H   0  0  0  0  0  0  0  0  0  0  0  0
  151.3413  141.4381  160.3645 H   0  0  0  0  0  0  0  0  0  0  0  0
  152.4000  140.2419  159.7248 H   0  0  0  0  0  0  0  0  0  0  0  0
  154.1237  141.2009  160.7764 H   0  0  0  0  0  0  0  0  0  0  0  0
  154.0444  142.5374  159.6962 H   0  0  0  0  0  0  0  0  0  0  0  0
  152.9178  142.2593  162.4869 H   0  0  0  0  0  0  0  0  0  0  0  0
  153.9972  143.4714  161.8715 H   0  0  0  0  0  0  0  0  0  0  0  0
  150.9667  143.3016  161.5078 H   0  0  0  0  0  0  0  0  0  0  0  0
  151.8995  144.4854  162.3415 H   0  0  0  0  0  0  0  0  0  0  0  0
  151.4112  145.6805  160.5030 H   0  0  0  0  0  0  0  0  0  0  0  0
  152.9407  145.0666  159.9719 H   0  0  0  0  0  0  0  0  0  0  0  0
  150.2512  143.7199  159.2611 H   0  0  0  0  0  0  0  0  0  0  0  0
  150.8835  145.0738  158.3885 H   0  0  0  0  0  0  0  0  0  0  0  0
  153.0649  143.6574  158.0591 H   0  0  0  0  0  0  0  0  0  0  0  0
  151.7015  143.4874  157.0296 H   0  0  0  0  0  0  0  0  0  0  0  0
  1  2  1  0  0  0  0
  1 20  1  0  0  0  0
  1 21  1  0  0  0  0
  1 22  1  0  0  0  0
  2  7  1  0  0  0  0
  2  3  2  0  0  0  0
  3  4  1  0  0  0  0
  3 23  1  0  0  0  0
  4  5  1  0  0  0  0
  5  6  2  0  0  0  0
  5  7  1  0  0  0  0
  7  8  1  0  0  0  0
  8  9  1  0  0  0  0
  8 24  1  0  0  0  0
  8 25  1  0  0  0  0
  9 10  2  0  0  0  0
  9 11  1  0  0  0  0
 11 12  1  0  0  0  0
 11 26  1  0  0  0  0
 12 19  1  0  0  0  0
 12 13  1  0  0  0  0
 12 27  1  0  0  0  0
 13 14  1  0  0  0  0
 13 28  1  0  0  0  0
 13 29  1  0  0  0  0
 14 15  1  0  0  0  0
 14 30  1  0  0  0  0
 14 31  1  0  0  0  0
 15 16  1  0  0  0  0
 15 32  1  0  0  0  0
 15 33  1  0  0  0  0
 16 17  1  0  0  0  0
 16 34  1  0  0  0  0
 16 35  1  0  0  0  0
 17 18  1  0  0  0  0
 17 36  1  0  0  0  0
 17 37  1  0  0  0  0
 18 19  1  0  0  0  0
 18 38  1  0  0  0  0
 18 39  1  0  0  0  0
 19 40  1  0  0  0  0
 19 41  1  0  0  0  0
M  END
> <s_m_source_file>
AV-unprocessed.smi

> <i_m_source_file_index>
577

> <i_lp_mmshare_version>
43012

> <i_f3d_flags>
0

> <s_epik_input>
W0NIM11jMVtjSF1zYyg9TyluMVtDSDJdQyg9TylbTkhdW0NIXTJbQ0gyXVtDSDJdW0NIMl1bQ0gyXVtDSDJdW0NIMl1bQ0gyXTI=

> <s_epik_cmdline>
J2VwaWtfcHl0aG9uJywgJy1waCcsICc3LjAnLCAnLXRuJywgJzgnLCAnLW1hJywgJzIwMCcsICctbWV0YWxfYmluZGluZycsICctaW1hZScsICc8aW5maWxlLm1hZT4nLCAnLW9tYWUnLCAnPG91dGZpbGUubWFlPic=

> <r_lp_tautomer_probability>
1

> <r_epik_Ionization_Penalty>
1.32564e-06

> <r_epik_Ionization_Penalty_Charging>
1.22505e-06

> <r_epik_Ionization_Penalty_Neutral>
1.00582e-07

> <r_epik_State_Penalty>
-0

> <r_epik_Charging_Adjusted_Penalty>
1.22505e-06

> <i_epik_Tot_Q>
0

> <i_epik_Tot_abs_Q>
0

> <r_epik_Metal_State_Penalty>
-0

> <b_epik_Metal_Only>
0

> <s_lp_Force_Field>
OPLS_2005

> <r_lp_Energy>
25.6493

> <b_lp_Chiralities_Consistent>
1

> <s_lp_Variant>
AV-unprocessed.smi:577-1

> <Gold.Version>
5.8.1

> <Gold.Id.Protein>
6NUR|6NUR_protein|mol2

> <Gold.PLP.Fitness>
42.6895

> <Gold.PLP.PLP>
-39.8966

> <Gold.PLP.part.hbond>
-3.0000

> <Gold.PLP.part.metal>
0.0000

> <Gold.PLP.part.buried>
-5.5325

> <Gold.PLP.part.nonpolar>
-32.2754

> <Gold.PLP.part.repulsive>
1.8797

> <Gold.PLP.ligand.clash>
0.0000

> <Gold.PLP.ligand.torsion>
0.2256

> <Gold.PLP.Chemscore.Hbond>
1.0690

> <Gold.PLP.Chemscore.CHOScore>
0.0000

> <Gold.PLP.Chemscore.Metal>
0.0000

> <Gold.Chemscore.Hbonds>
donor molecule, donor type, donor heavy atom, donor atom, acceptor molecule, acceptor atom, score
      P1  H  7989  7998       L1    10  0.18
      P1  H  8011  8017       L1     6  0.75

> <Gold.PLP.Chemscore.Internal.Correction>
0.0370

> <Gold.Rescore>
     Score         DG    S(hbond)    S(metal)    S(lipo)     H(rot)  DE(clash)    DE(int)     intcor
     14.81     -17.06       1.08        0.00      98.49       1.39       0.53       1.73       ----

> <Gold.Chemscore.Fitness>
14.8058

> <Gold.Chemscore.DG>
-17.0636

> <Gold.Chemscore.ZeroCoef>
-5.4800

> <Gold.Chemscore.Hbond>
1.0801

> <Gold.Chemscore.Metal>
0.0000

> <Gold.Chemscore.Lipo>
98.4927

> <Gold.Chemscore.Internal_Hbond>
0.0000

> <Gold.Chemscore.DEClash>
0.5308

> <Gold.Chemscore.DEInternal>
1.7270

> <Gold.Chemscore.Rot>
1.3858

> <Gold.Chemscore.Internal.Correction>
   9.000000E+99

> <Gold.Chemscore.Hbonds>
donor molecule, donor type, donor heavy atom, donor atom, acceptor molecule, acceptor atom, score
      P1  H  7989  7998       L1    10  0.18
      P1  H  8011  8017       L1     6  0.74

> <Gold.Chemscore.Hbond.Weighted>
-3.6076

> <Gold.Chemscore.Metal.Weighted>
-0.0000

> <Gold.Chemscore.Lipo.Weighted>
-11.5237

> <Gold.Chemscore.Internal_Hbond.Weighted>
0.0000

> <Gold.Chemscore.DEClash.Weighted>
0.5308

> <Gold.Chemscore.DEInternal.Weighted>
1.7270

> <Gold.Chemscore.Rot.Weighted>
3.5476

> <Gold.Chemscore.Internal.Correction.Weighted>
   9.000000E+99

> <Gold.Protein.RotatedTorsions>
[ 6907 6896 6895 6894 ] final  103.47 input  -60.11 | X-H torsion
[ 7974 7965 7964 7962 ] final   13.13 input  175.53 | X-H torsion
[ 8008 7997 7996 7995 ] final   96.76 input   59.86 | X-H torsion
[ 10167 10162 10161 10158 ] final  -48.30 input  -65.29 | X-H torsion
[ 10718 10713 10712 10709 ] final   98.61 input   66.30 | X-H torsion
[ 10763 10752 10751 10750 ] final  -48.39 input  -60.55 | X-H torsion
[ 11005 11000 10999 10996 ] final -124.02 input  -57.11 | X-H torsion

> <Gold.Protein.ActiveResidues>
 VAL166  LYS551  ARG553  GLY616  TRP617  ASP618  TYR619  PRO620  LYS621  CYS622 
 ASP623  PHE694  ASN695  SER759  ASP760  ASP761  ALA762  ILE779  LEU786  VAL792 
 PHE793  MET794  SER795  GLU796  ALA797  LYS798  CYS799  TRP800  GLU811  SER814 

> <Gold.Protein.RotatedAtoms>
  152.5294  133.9821  159.7811 H   0  0  0  0  0  0  0  0  0  0  0  0  # atno 6907 bound_to 6896
  151.0073  133.5991  159.2694 H   0  0  0  0  0  0  0  0  0  0  0  0  # atno 6908 bound_to 6896
  151.3078  135.0792  159.9315 H   0  0  0  0  0  0  0  0  0  0  0  0  # atno 6909 bound_to 6896
  146.2336  139.9233  142.8507 H   0  0  0  0  0  0  0  0  0  0  0  0  # atno 7974 bound_to 7965
  156.0831  140.3268  155.7718 H   0  0  0  0  0  0  0  0  0  0  0  0  # atno 8008 bound_to 7997
  155.5121  140.0578  157.2939 H   0  0  0  0  0  0  0  0  0  0  0  0  # atno 8009 bound_to 7997
  154.4593  140.1958  156.0306 H   0  0  0  0  0  0  0  0  0  0  0  0  # atno 8010 bound_to 7997
  140.6737  143.2746  151.4051 H   0  0  0  0  0  0  0  0  0  0  0  0  # atno 10167 bound_to 10162
  157.6892  131.0645  150.4822 H   0  0  0  0  0  0  0  0  0  0  0  0  # atno 10718 bound_to 10713
  154.0770  135.6596  153.4832 H   0  0  0  0  0  0  0  0  0  0  0  0  # atno 10763 bound_to 10752
  153.0370  135.5171  154.7511 H   0  0  0  0  0  0  0  0  0  0  0  0  # atno 10764 bound_to 10752
  154.6595  135.3013  154.9853 H   0  0  0  0  0  0  0  0  0  0  0  0  # atno 10765 bound_to 10752
  140.9873  134.0588  157.3695 H   0  0  0  0  0  0  0  0  0  0  0  0  # atno 11005 bound_to 11000
  145.2115  140.9897  143.4098 LP  0  0  0  0  0  0  0  0  0  0  0  0  # atno 17320 bound_to 7965
  144.9687  139.3903  143.6319 LP  0  0  0  0  0  0  0  0  0  0  0  0  # atno 17321 bound_to 7965
  139.6018  144.1280  152.2206 LP  0  0  0  0  0  0  0  0  0  0  0  0  # atno 17342 bound_to 10162
  140.0666  144.5813  150.7223 LP  0  0  0  0  0  0  0  0  0  0  0  0  # atno 17343 bound_to 10162
  156.5154  130.4149  149.6279 LP  0  0  0  0  0  0  0  0  0  0  0  0  # atno 17370 bound_to 10713
  156.3203  130.7277  151.2187 LP  0  0  0  0  0  0  0  0  0  0  0  0  # atno 17371 bound_to 10713
  139.8976  135.0151  156.7110 LP  0  0  0  0  0  0  0  0  0  0  0  0  # atno 17394 bound_to 11000
  140.7094  133.9237  155.8074 LP  0  0  0  0  0  0  0  0  0  0  0  0  # atno 17395 bound_to 11000

$$$$
