AV-unprocessed.smi:3048|AV-procd|sdf|11625|dock10
  -GOLD-   2272017 13D 1   1.00000     0.00000
 Structure written by MMmdl.
 38 39  0  0  0  0  0  0  0  0  2 V2000
  153.7356  142.7728  163.3721 C   0  0  0  0  0  0  0  0  0  0  0  0
  153.1691  142.9229  161.9898 C   0  0  0  0  0  0  0  0  0  0  0  0
  153.5184  142.1940  160.8175 C   0  0  0  0  0  0  0  0  0  0  0  0
  152.8245  142.5674  159.7546 N   0  0  0  0  0  0  0  0  0  0  0  0
  152.0151  143.5482  160.2077 N   0  0  0  0  0  0  0  0  0  0  0  0
  151.0837  144.1931  159.2995 C   0  0  0  0  0  0  0  0  0  0  0  0
  151.7867  144.7341  158.0447 C   0  0  0  0  0  0  0  0  0  0  0  0
  151.4199  143.9594  156.8423 N   0  3  0  0  0  0  0  0  0  0  0  0
  151.1538  142.5309  157.0979 C   0  0  0  0  0  0  0  0  0  0  0  0
  151.1599  141.7297  155.7887 C   0  0  2  0  0  0  0  0  0  0  0  0
  149.7342  141.4784  155.2611 C   0  0  0  0  0  0  0  0  0  0  0  0
  149.7702  140.5960  154.0079 C   0  0  0  0  0  0  0  0  0  0  0  0
  150.5673  139.3195  154.2957 C   0  0  0  0  0  0  0  0  0  0  0  0
  151.9444  139.6701  154.8807 C   0  0  0  0  0  0  0  0  0  0  0  0
  151.7855  140.4738  156.0461 O   0  0  0  0  0  0  0  0  0  0  0  0
  152.2017  143.7831  161.5534 C   0  0  0  0  0  0  0  0  0  0  0  0
  154.4976  141.9944  163.4167 H   0  0  0  0  0  0  0  0  0  0  0  0
  152.9648  142.5082  164.0960 H   0  0  0  0  0  0  0  0  0  0  0  0
  154.2000  143.6963  163.7183 H   0  0  0  0  0  0  0  0  0  0  0  0
  154.2503  141.4070  160.7093 H   0  0  0  0  0  0  0  0  0  0  0  0
  150.3272  143.4613  159.0137 H   0  0  0  0  0  0  0  0  0  0  0  0
  150.5612  144.9930  159.8270 H   0  0  0  0  0  0  0  0  0  0  0  0
  151.5248  145.7831  157.8990 H   0  0  0  0  0  0  0  0  0  0  0  0
  152.8682  144.6903  158.1774 H   0  0  0  0  0  0  0  0  0  0  0  0
  150.6028  144.3770  156.4207 H   0  0  0  0  0  0  0  0  0  0  0  0
  151.9042  142.1339  157.7831 H   0  0  0  0  0  0  0  0  0  0  0  0
  150.1847  142.4376  157.5901 H   0  0  0  0  0  0  0  0  0  0  0  0
  151.7343  142.2759  155.0377 H   0  0  0  0  0  0  0  0  0  0  0  0
  149.1366  140.9901  156.0322 H   0  0  0  0  0  0  0  0  0  0  0  0
  149.2406  142.4242  155.0355 H   0  0  0  0  0  0  0  0  0  0  0  0
  148.7581  140.3485  153.6867 H   0  0  0  0  0  0  0  0  0  0  0  0
  150.2355  141.1425  153.1867 H   0  0  0  0  0  0  0  0  0  0  0  0
  150.0197  138.6962  155.0040 H   0  0  0  0  0  0  0  0  0  0  0  0
  150.6817  138.7319  153.3843 H   0  0  0  0  0  0  0  0  0  0  0  0
  152.4791  138.7596  155.1512 H   0  0  0  0  0  0  0  0  0  0  0  0
  152.5583  140.1927  154.1456 H   0  0  0  0  0  0  0  0  0  0  0  0
  151.6333  144.5322  162.0855 H   0  0  0  0  0  0  0  0  0  0  0  0
  152.1855  144.0221  156.1854 H   0  0  0  0  0  0  0  0  0  0  0  0
  1  2  1  0  0  0  0
  1 17  1  0  0  0  0
  1 18  1  0  0  0  0
  1 19  1  0  0  0  0
  2 16  2  0  0  0  0
  2  3  1  0  0  0  0
  3  4  2  0  0  0  0
  3 20  1  0  0  0  0
  4  5  1  0  0  0  0
  5  6  1  0  0  0  0
  5 16  1  0  0  0  0
  6  7  1  0  0  0  0
  6 21  1  0  0  0  0
  6 22  1  0  0  0  0
  7  8  1  0  0  0  0
  7 23  1  0  0  0  0
  7 24  1  0  0  0  0
  8  9  1  0  0  0  0
  8 25  1  0  0  0  0
  8 38  1  0  0  0  0
  9 10  1  0  0  0  0
  9 26  1  0  0  0  0
  9 27  1  0  0  0  0
 10 15  1  0  0  0  0
 10 11  1  0  0  0  0
 10 28  1  0  0  0  0
 11 12  1  0  0  0  0
 11 29  1  0  0  0  0
 11 30  1  0  0  0  0
 12 13  1  0  0  0  0
 12 31  1  0  0  0  0
 12 32  1  0  0  0  0
 13 14  1  0  0  0  0
 13 33  1  0  0  0  0
 13 34  1  0  0  0  0
 14 15  1  0  0  0  0
 14 35  1  0  0  0  0
 14 36  1  0  0  0  0
 16 37  1  0  0  0  0
M  CHG  1   8   1
M  END
> <s_m_source_file>
AV-unprocessed.smi

> <i_m_source_file_index>
3048

> <i_lp_mmshare_version>
43012

> <i_f3d_flags>
0

> <s_epik_input>
W0NIM11jMVtjSF1ubihbY0hdMSlbQ0gyXVtDSDJdW05IXVtDSDJdW0NAQEhdMltDSDJdW0NIMl1bQ0gyXVtDSDJdTzI=

> <s_epik_cmdline>
J2VwaWtfcHl0aG9uJywgJy1waCcsICc3LjAnLCAnLXRuJywgJzgnLCAnLW1hJywgJzIwMCcsICctbWV0YWxfYmluZGluZycsICctaW1hZScsICc8aW5maWxlLm1hZT4nLCAnLW9tYWUnLCAnPG91dGZpbGUubWFlPic=

> <r_lp_tautomer_probability>
1

> <r_epik_Ionization_Penalty>
0.0084937

> <r_epik_Ionization_Penalty_Charging>
0.00848754

> <r_epik_Ionization_Penalty_Neutral>
6.1613e-06

> <r_epik_State_Penalty>
0.00639836

> <r_epik_Charging_Adjusted_Penalty>
0.0148859

> <i_epik_Tot_Q>
1

> <i_epik_Tot_abs_Q>
1

> <r_epik_Metal_State_Penalty>
0.00642541

> <b_epik_Metal_Only>
0

> <s_lp_Force_Field>
OPLS_2005

> <r_lp_Energy>
10.6877

> <b_lp_Chiralities_Consistent>
1

> <s_lp_Variant>
AV-unprocessed.smi:3048-1

> <Gold.Version>
5.8.1

> <Gold.Id.Protein>
6NUR|6NUR_protein|mol2

> <Gold.PLP.Fitness>
50.1460

> <Gold.PLP.PLP>
-46.4508

> <Gold.PLP.part.hbond>
-1.0000

> <Gold.PLP.part.metal>
0.0000

> <Gold.PLP.part.buried>
-6.0457

> <Gold.PLP.part.nonpolar>
-39.0750

> <Gold.PLP.part.repulsive>
0.0190

> <Gold.PLP.ligand.clash>
0.0000

> <Gold.PLP.ligand.torsion>
1.1633

> <Gold.PLP.Chemscore.Hbond>
2.0000

> <Gold.PLP.Chemscore.CHOScore>
0.0000

> <Gold.PLP.Chemscore.Metal>
0.0000

> <Gold.Chemscore.Hbonds>
donor molecule, donor type, donor heavy atom, donor atom, acceptor molecule, acceptor atom, score
      L1  H     8    25       P1  8028  2.00

> <Gold.PLP.Chemscore.Internal.Correction>
0.0218

> <Gold.Rescore>
     Score         DG    S(hbond)    S(metal)    S(lipo)     H(rot)  DE(clash)    DE(int)     intcor
     17.14     -17.91       1.00        0.00     113.07       1.61       0.04       0.73       ----

> <Gold.Chemscore.Fitness>
17.1353

> <Gold.Chemscore.DG>
-17.9092

> <Gold.Chemscore.ZeroCoef>
-5.4800

> <Gold.Chemscore.Hbond>
0.9983

> <Gold.Chemscore.Metal>
0.0000

> <Gold.Chemscore.Lipo>
113.0679

> <Gold.Chemscore.Internal_Hbond>
0.0000

> <Gold.Chemscore.DEClash>
0.0413

> <Gold.Chemscore.DEInternal>
0.7325

> <Gold.Chemscore.Rot>
1.6149

> <Gold.Chemscore.Internal.Correction>
   9.000000E+99

> <Gold.Chemscore.Hbonds>
donor molecule, donor type, donor heavy atom, donor atom, acceptor molecule, acceptor atom, score
      L1  H     8    25       P1  8028  1.00

> <Gold.Chemscore.Hbond.Weighted>
-3.3343

> <Gold.Chemscore.Metal.Weighted>
-0.0000

> <Gold.Chemscore.Lipo.Weighted>
-13.2289

> <Gold.Chemscore.Internal_Hbond.Weighted>
0.0000

> <Gold.Chemscore.DEClash.Weighted>
0.0413

> <Gold.Chemscore.DEInternal.Weighted>
0.7325

> <Gold.Chemscore.Rot.Weighted>
4.1341

> <Gold.Chemscore.Internal.Correction.Weighted>
   9.000000E+99

> <Gold.Protein.RotatedTorsions>
[ 6907 6896 6895 6894 ] final -143.42 input  -60.11 | X-H torsion
[ 7974 7965 7964 7962 ] final   99.10 input  175.53 | X-H torsion
[ 8008 7997 7996 7995 ] final -120.09 input   59.86 | X-H torsion
[ 10167 10162 10161 10158 ] final -161.75 input  -65.29 | X-H torsion
[ 10718 10713 10712 10709 ] final  126.70 input   66.30 | X-H torsion
[ 10763 10752 10751 10750 ] final -115.96 input  -60.55 | X-H torsion
[ 11005 11000 10999 10996 ] final   12.28 input  -57.11 | X-H torsion

> <Gold.Protein.ActiveResidues>
 VAL166  LYS551  ARG553  GLY616  TRP617  ASP618  TYR619  PRO620  LYS621  CYS622 
 ASP623  PHE694  ASN695  SER759  ASP760  ASP761  ALA762  ILE779  LEU786  VAL792 
 PHE793  MET794  SER795  GLU796  ALA797  LYS798  CYS799  TRP800  GLU811  SER814 

> <Gold.Protein.RotatedAtoms>
  151.1002  133.5249  159.2610 H   0  0  0  0  0  0  0  0  0  0  0  0  # atno 6907 bound_to 6896
  151.2083  135.0470  159.8910 H   0  0  0  0  0  0  0  0  0  0  0  0  # atno 6908 bound_to 6896
  152.5442  134.0821  159.8294 H   0  0  0  0  0  0  0  0  0  0  0  0  # atno 6909 bound_to 6896
  145.4034  139.2344  143.3288 H   0  0  0  0  0  0  0  0  0  0  0  0  # atno 7974 bound_to 7965
  155.1263  140.0399  157.2763 H   0  0  0  0  0  0  0  0  0  0  0  0  # atno 8008 bound_to 7997
  154.6576  140.2583  155.7118 H   0  0  0  0  0  0  0  0  0  0  0  0  # atno 8009 bound_to 7997
  156.2605  140.2823  156.1035 H   0  0  0  0  0  0  0  0  0  0  0  0  # atno 8010 bound_to 7997
  139.6442  144.0203  152.2114 H   0  0  0  0  0  0  0  0  0  0  0  0  # atno 10167 bound_to 10162
  157.5396  131.1097  150.8880 H   0  0  0  0  0  0  0  0  0  0  0  0  # atno 10718 bound_to 10713
  154.8501  135.4363  154.1745 H   0  0  0  0  0  0  0  0  0  0  0  0  # atno 10763 bound_to 10752
  153.2850  135.6957  153.7354 H   0  0  0  0  0  0  0  0  0  0  0  0  # atno 10764 bound_to 10752
  153.6543  135.3446  155.3084 H   0  0  0  0  0  0  0  0  0  0  0  0  # atno 10765 bound_to 10752
  140.4938  134.0814  155.7777 H   0  0  0  0  0  0  0  0  0  0  0  0  # atno 11005 bound_to 11000
  146.2741  140.4735  142.8803 LP  0  0  0  0  0  0  0  0  0  0  0  0  # atno 17320 bound_to 7965
  144.8358  140.6780  143.6261 LP  0  0  0  0  0  0  0  0  0  0  0  0  # atno 17321 bound_to 7965
  139.9901  144.6368  150.7822 LP  0  0  0  0  0  0  0  0  0  0  0  0  # atno 17342 bound_to 10162
  140.7506  143.2958  151.3208 LP  0  0  0  0  0  0  0  0  0  0  0  0  # atno 17343 bound_to 10162
  156.9436  130.5394  149.5280 LP  0  0  0  0  0  0  0  0  0  0  0  0  # atno 17370 bound_to 10713
  156.0486  130.5559  150.8938 LP  0  0  0  0  0  0  0  0  0  0  0  0  # atno 17371 bound_to 10713
  141.1471  133.9036  157.2190 LP  0  0  0  0  0  0  0  0  0  0  0  0  # atno 17394 bound_to 11000
  139.9754  135.0115  156.9617 LP  0  0  0  0  0  0  0  0  0  0  0  0  # atno 17395 bound_to 11000

$$$$
