AV-unprocessed.smi:1176|AV-procd|sdf|4953|dock2
  -GOLD-   22720 3543D 1   1.00000     0.00000
 Structure written by MMmdl.
 50 51  0  0  0  0  0  0  0  0  2 V2000
  145.3320  132.0890  149.1991 C   0  0  0  0  0  0  0  0  0  0  0  0
  145.5384  132.3186  150.7039 C   0  0  0  0  0  0  0  0  0  0  0  0
  144.9263  131.1622  151.5121 C   0  0  0  0  0  0  0  0  0  0  0  0
  144.9602  133.6860  151.1284 C   0  0  0  0  0  0  0  0  0  0  0  0
  145.3514  134.0798  152.5069 N   0  3  2  0  0  0  0  0  0  0  0  0
  144.7135  135.3527  152.9326 C   0  0  0  0  0  0  0  0  0  0  0  0
  145.0215  135.6699  154.4089 C   0  0  0  0  0  0  0  0  0  0  0  0
  146.5340  135.7018  154.6877 C   0  0  2  0  0  0  0  0  0  0  0  0
  147.1344  136.8782  154.0610 N   0  0  0  0  0  0  0  0  0  0  0  0
  146.6997  138.1411  154.1872 C   0  0  0  0  0  0  0  0  0  0  0  0
  145.6999  138.4537  154.8325 O   0  0  0  0  0  0  0  0  0  0  0  0
  147.5243  139.2143  153.4713 C   0  0  0  0  0  0  0  0  0  0  0  0
  148.8157  139.4207  154.1369 N   0  0  0  0  0  0  0  0  0  0  0  0
  149.7562  138.4067  154.1131 C   0  0  0  0  0  0  0  0  0  0  0  0
  150.9589  138.4899  154.7217 C   0  0  0  0  0  0  0  0  0  0  0  0
  151.3428  139.6892  155.4548 C   0  0  0  0  0  0  0  0  0  0  0  0
  152.4178  139.8056  156.0445 O   0  0  0  0  0  0  0  0  0  0  0  0
  150.3725  140.7177  155.4500 N   0  0  0  0  0  0  0  0  0  0  0  0
  150.6998  141.9292  156.1734 C   0  0  0  0  0  0  0  0  0  0  0  0
  149.1080  140.6197  154.8239 C   0  0  0  0  0  0  0  0  0  0  0  0
  148.2773  141.5294  154.8719 O   0  0  0  0  0  0  0  0  0  0  0  0
  147.1688  134.3877  154.1865 C   0  0  0  0  0  0  0  0  0  0  0  0
  146.8235  134.1095  152.7136 C   0  0  0  0  0  0  0  0  0  0  0  0
  144.2727  132.0719  148.9405 H   0  0  0  0  0  0  0  0  0  0  0  0
  145.7663  131.1403  148.8823 H   0  0  0  0  0  0  0  0  0  0  0  0
  145.8051  132.8769  148.6120 H   0  0  0  0  0  0  0  0  0  0  0  0
  146.6142  132.3141  150.8766 H   0  0  0  0  0  0  0  0  0  0  0  0
  143.8444  131.1163  151.3824 H   0  0  0  0  0  0  0  0  0  0  0  0
  145.1307  131.2664  152.5780 H   0  0  0  0  0  0  0  0  0  0  0  0
  145.3383  130.2030  151.1969 H   0  0  0  0  0  0  0  0  0  0  0  0
  145.2668  134.4680  150.4316 H   0  0  0  0  0  0  0  0  0  0  0  0
  143.8728  133.6297  151.0580 H   0  0  0  0  0  0  0  0  0  0  0  0
  145.0544  136.1645  152.2883 H   0  0  0  0  0  0  0  0  0  0  0  0
  143.6326  135.2822  152.8047 H   0  0  0  0  0  0  0  0  0  0  0  0
  144.5643  136.6191  154.6917 H   0  0  0  0  0  0  0  0  0  0  0  0
  144.5569  134.9113  155.0402 H   0  0  0  0  0  0  0  0  0  0  0  0
  146.6862  135.7835  155.7655 H   0  0  0  0  0  0  0  0  0  0  0  0
  147.9539  136.7223  153.4922 H   0  0  0  0  0  0  0  0  0  0  0  0
  147.6813  138.9283  152.4298 H   0  0  0  0  0  0  0  0  0  0  0  0
  146.9517  140.1424  153.4338 H   0  0  0  0  0  0  0  0  0  0  0  0
  149.5159  137.4953  153.5853 H   0  0  0  0  0  0  0  0  0  0  0  0
  151.6450  137.6574  154.6683 H   0  0  0  0  0  0  0  0  0  0  0  0
  150.0543  142.7509  155.8638 H   0  0  0  0  0  0  0  0  0  0  0  0
  151.7315  142.1993  155.9409 H   0  0  0  0  0  0  0  0  0  0  0  0
  150.5737  141.7094  157.2345 H   0  0  0  0  0  0  0  0  0  0  0  0
  148.2509  134.4006  154.3188 H   0  0  0  0  0  0  0  0  0  0  0  0
  146.8059  133.5606  154.7981 H   0  0  0  0  0  0  0  0  0  0  0  0
  147.2672  133.1577  152.4250 H   0  0  0  0  0  0  0  0  0  0  0  0
  147.2706  134.8696  152.0706 H   0  0  0  0  0  0  0  0  0  0  0  0
  144.9825  133.3662  153.1192 H   0  0  0  0  0  0  0  0  0  0  0  0
  1  2  1  0  0  0  0
  1 24  1  0  0  0  0
  1 25  1  0  0  0  0
  1 26  1  0  0  0  0
  2  3  1  0  0  0  0
  2  4  1  0  0  0  0
  2 27  1  0  0  0  0
  3 28  1  0  0  0  0
  3 29  1  0  0  0  0
  3 30  1  0  0  0  0
  4  5  1  0  0  0  0
  4 31  1  0  0  0  0
  4 32  1  0  0  0  0
  5 23  1  0  0  0  0
  5  6  1  0  0  0  0
  5 50  1  0  0  0  0
  6  7  1  0  0  0  0
  6 33  1  0  0  0  0
  6 34  1  0  0  0  0
  7  8  1  0  0  0  0
  7 35  1  0  0  0  0
  7 36  1  0  0  0  0
  8  9  1  0  0  0  0
  8 22  1  0  0  0  0
  8 37  1  0  0  0  0
  9 10  1  0  0  0  0
  9 38  1  0  0  0  0
 10 11  2  0  0  0  0
 10 12  1  0  0  0  0
 12 13  1  0  0  0  0
 12 39  1  0  0  0  0
 12 40  1  0  0  0  0
 13 20  1  0  0  0  0
 13 14  1  0  0  0  0
 14 15  2  0  0  0  0
 14 41  1  0  0  0  0
 15 16  1  0  0  0  0
 15 42  1  0  0  0  0
 16 17  2  0  0  0  0
 16 18  1  0  0  0  0
 18 19  1  0  0  0  0
 18 20  1  0  0  0  0
 19 43  1  0  0  0  0
 19 44  1  0  0  0  0
 19 45  1  0  0  0  0
 20 21  2  0  0  0  0
 22 23  1  0  0  0  0
 22 46  1  0  0  0  0
 22 47  1  0  0  0  0
 23 48  1  0  0  0  0
 23 49  1  0  0  0  0
M  CHG  1   5   1
M  END
> <s_m_source_file>
AV-unprocessed.smi

> <i_m_source_file_index>
1176

> <i_lp_mmshare_version>
43012

> <i_f3d_flags>
0

> <s_epik_input>
W0NIM11bQ0hdKFtDSDNdKVtDSDJdTjFbQ0gyXVtDSDJdW0NIXShbQ0gyXVtDSDJdMSlbTkhdQyg9TylbQ0gyXW4yW2NIXVtjSF1jKD1PKW4oW0NIM10pYzI9Tw==

> <s_epik_cmdline>
J2VwaWtfcHl0aG9uJywgJy1waCcsICc3LjAnLCAnLXRuJywgJzgnLCAnLW1hJywgJzIwMCcsICctbWV0YWxfYmluZGluZycsICctaW1hZScsICc8aW5maWxlLm1hZT4nLCAnLW9tYWUnLCAnPG91dGZpbGUubWFlPic=

> <r_lp_tautomer_probability>
1

> <r_epik_Ionization_Penalty>
0.00401429

> <r_epik_Ionization_Penalty_Charging>
0.00401425

> <r_epik_Ionization_Penalty_Neutral>
4.29561e-08

> <r_epik_State_Penalty>
0.00287487

> <r_epik_Charging_Adjusted_Penalty>
0.00688912

> <i_epik_Tot_Q>
1

> <i_epik_Tot_abs_Q>
1

> <r_epik_Metal_State_Penalty>
-0

> <b_epik_Metal_Only>
0

> <s_lp_Force_Field>
OPLS_2005

> <r_lp_Energy>
29.2662

> <b_lp_Chiralities_Consistent>
1

> <s_lp_Variant>
AV-unprocessed.smi:1176-2

> <Gold.Version>
5.8.1

> <Gold.Id.Protein>
6NUR|6NUR_protein|mol2

> <Gold.PLP.Fitness>
43.5360

> <Gold.PLP.PLP>
-35.0522

> <Gold.PLP.part.hbond>
-2.0000

> <Gold.PLP.part.metal>
0.0000

> <Gold.PLP.part.buried>
-0.8936

> <Gold.PLP.part.nonpolar>
-30.9423

> <Gold.PLP.part.repulsive>
0.1869

> <Gold.PLP.ligand.clash>
0.0000

> <Gold.PLP.ligand.torsion>
0.2958

> <Gold.PLP.Chemscore.Hbond>
2.0000

> <Gold.PLP.Chemscore.CHOScore>
1.0000

> <Gold.PLP.Chemscore.Metal>
0.0000

> <Gold.Chemscore.Hbonds>
donor molecule, donor type, donor heavy atom, donor atom, acceptor molecule, acceptor atom, score
      L1  H     9    38       P1  7948  1.00
      P1  H  7997  8009       L1    17  1.00
      L1  C    14    41       P1  7948  1.00

> <Gold.PLP.Chemscore.Internal.Correction>
0.0754

> <Gold.Rescore>
     Score         DG    S(hbond)    S(metal)    S(lipo)     H(rot)  DE(clash)    DE(int)     intcor
     14.54     -16.16       1.99        0.00      76.45       1.92       0.02       1.59       ----

> <Gold.Chemscore.Fitness>
14.5445

> <Gold.Chemscore.DG>
-16.1597

> <Gold.Chemscore.ZeroCoef>
-5.4800

> <Gold.Chemscore.Hbond>
1.9908

> <Gold.Chemscore.Metal>
0.0000

> <Gold.Chemscore.Lipo>
76.4528

> <Gold.Chemscore.Internal_Hbond>
0.0000

> <Gold.Chemscore.DEClash>
0.0203

> <Gold.Chemscore.DEInternal>
1.5948

> <Gold.Chemscore.Rot>
1.9198

> <Gold.Chemscore.Internal.Correction>
   9.000000E+99

> <Gold.Chemscore.Hbonds>
donor molecule, donor type, donor heavy atom, donor atom, acceptor molecule, acceptor atom, score
      L1  H     9    38       P1  7948  0.96
      P1  H  7997  8009       L1    17  0.95

> <Gold.Chemscore.Hbond.Weighted>
-6.6494

> <Gold.Chemscore.Metal.Weighted>
-0.0000

> <Gold.Chemscore.Lipo.Weighted>
-8.9450

> <Gold.Chemscore.Internal_Hbond.Weighted>
0.0000

> <Gold.Chemscore.DEClash.Weighted>
0.0203

> <Gold.Chemscore.DEInternal.Weighted>
1.5948

> <Gold.Chemscore.Rot.Weighted>
4.9147

> <Gold.Chemscore.Internal.Correction.Weighted>
   9.000000E+99

> <Gold.Protein.RotatedTorsions>
[ 6907 6896 6895 6894 ] final   16.15 input  -60.11 | X-H torsion
[ 7974 7965 7964 7962 ] final  147.20 input  175.53 | X-H torsion
[ 8008 7997 7996 7995 ] final -144.77 input   59.86 | X-H torsion
[ 10167 10162 10161 10158 ] final  -47.89 input  -65.29 | X-H torsion
[ 10718 10713 10712 10709 ] final  153.31 input   66.30 | X-H torsion
[ 10763 10752 10751 10750 ] final  150.66 input  -60.55 | X-H torsion
[ 11005 11000 10999 10996 ] final   75.68 input  -57.11 | X-H torsion

> <Gold.Protein.ActiveResidues>
 VAL166  LYS551  ARG553  GLY616  TRP617  ASP618  TYR619  PRO620  LYS621  CYS622 
 ASP623  PHE694  ASN695  SER759  ASP760  ASP761  ALA762  ILE779  LEU786  VAL792 
 PHE793  MET794  SER795  GLU796  ALA797  LYS798  CYS799  TRP800  GLU811  SER814 

> <Gold.Protein.RotatedAtoms>
  151.8293  135.0627  160.0434 H   0  0  0  0  0  0  0  0  0  0  0  0  # atno 6907 bound_to 6896
  152.2893  133.5541  159.5555 H   0  0  0  0  0  0  0  0  0  0  0  0  # atno 6908 bound_to 6896
  150.7223  134.0368  159.3794 H   0  0  0  0  0  0  0  0  0  0  0  0  # atno 6909 bound_to 6896
  144.8610  139.5999  143.5930 H   0  0  0  0  0  0  0  0  0  0  0  0  # atno 7974 bound_to 7965
  155.5323  140.0601  157.2886 H   0  0  0  0  0  0  0  0  0  0  0  0  # atno 8008 bound_to 7997
  154.4480  140.1933  156.0552 H   0  0  0  0  0  0  0  0  0  0  0  0  # atno 8009 bound_to 7997
  156.0643  140.3268  155.7503 H   0  0  0  0  0  0  0  0  0  0  0  0  # atno 8010 bound_to 7997
  140.6755  143.2764  151.3992 H   0  0  0  0  0  0  0  0  0  0  0  0  # atno 10167 bound_to 10162
  157.2465  131.0770  151.1758 H   0  0  0  0  0  0  0  0  0  0  0  0  # atno 10718 bound_to 10713
  154.0910  135.2852  155.3271 H   0  0  0  0  0  0  0  0  0  0  0  0  # atno 10763 bound_to 10752
  154.6620  135.5331  153.8033 H   0  0  0  0  0  0  0  0  0  0  0  0  # atno 10764 bound_to 10752
  153.0413  135.6536  154.1079 H   0  0  0  0  0  0  0  0  0  0  0  0  # atno 10765 bound_to 10752
  139.9333  134.7537  156.1301 H   0  0  0  0  0  0  0  0  0  0  0  0  # atno 11005 bound_to 11000
  146.2860  139.7007  142.9195 LP  0  0  0  0  0  0  0  0  0  0  0  0  # atno 17320 bound_to 7965
  145.4312  141.0415  143.2910 LP  0  0  0  0  0  0  0  0  0  0  0  0  # atno 17321 bound_to 7965
  139.6045  144.1225  152.2234 LP  0  0  0  0  0  0  0  0  0  0  0  0  # atno 17342 bound_to 10162
  140.0620  144.5849  150.7256 LP  0  0  0  0  0  0  0  0  0  0  0  0  # atno 17343 bound_to 10162
  157.3323  130.6991  149.6332 LP  0  0  0  0  0  0  0  0  0  0  0  0  # atno 17370 bound_to 10713
  155.9668  130.4304  150.4873 LP  0  0  0  0  0  0  0  0  0  0  0  0  # atno 17371 bound_to 10713
  141.0933  133.6705  156.2589 LP  0  0  0  0  0  0  0  0  0  0  0  0  # atno 17394 bound_to 11000
  140.6144  134.5426  157.5538 LP  0  0  0  0  0  0  0  0  0  0  0  0  # atno 17395 bound_to 11000

$$$$
