AV-unprocessed.smi:2831|AV-procd|sdf|10910|dock3
  -GOLD-   2272015353D 1   1.00000     0.00000
 Structure written by MMmdl.
 29 30  0  0  0  0  0  0  0  0  2 V2000
  147.9654  140.5421  154.3170 C   0  0  0  0  0  0  0  0  0  0  0  0
  149.3391  140.3246  154.8524 C   0  0  0  0  0  0  0  0  0  0  0  0
  150.2303  139.5297  154.2553 N   0  0  0  0  0  0  0  0  0  0  0  0
  151.4350  139.4862  154.9425 N   0  0  0  0  0  0  0  0  0  0  0  0
  151.4341  140.2376  156.0528 C   0  0  0  0  0  0  0  0  0  0  0  0
  152.5040  140.3338  156.8596 N   0  5  0  0  0  0  0  0  0  0  0  0
  152.3871  140.9267  158.0696 C   0  0  0  0  0  0  0  0  0  0  0  0
  152.2545  140.3495  159.1506 O   0  0  0  0  0  0  0  0  0  0  0  0
  152.4238  142.2691  158.0122 N   0  0  0  0  0  0  0  0  0  0  0  0
  152.3302  143.2536  159.0999 C   0  0  1  0  0  0  0  0  0  0  0  0
  153.4922  142.9763  160.0720 C   0  0  0  0  0  0  0  0  0  0  0  0
  152.3810  144.7107  158.6067 C   0  0  0  0  0  0  0  0  0  0  0  0
  151.0291  145.2941  159.0141 C   0  0  0  0  0  0  0  0  0  0  0  0
  150.6677  144.5272  160.1494 O   0  0  0  0  0  0  0  0  0  0  0  0
  150.9795  143.1771  159.8433 C   0  0  0  0  0  0  0  0  0  0  0  0
  149.9151  141.0916  156.3223 S   0  0  0  0  0  0  0  0  0  0  0  0
  147.3219  139.7065  154.5926 H   0  0  0  0  0  0  0  0  0  0  0  0
  147.9913  140.6237  153.2301 H   0  0  0  0  0  0  0  0  0  0  0  0
  147.5421  141.4605  154.7243 H   0  0  0  0  0  0  0  0  0  0  0  0
  152.5346  142.6592  157.0879 H   0  0  0  0  0  0  0  0  0  0  0  0
  153.4687  143.6555  160.9250 H   0  0  0  0  0  0  0  0  0  0  0  0
  154.4577  143.0976  159.5791 H   0  0  0  0  0  0  0  0  0  0  0  0
  153.4478  141.9590  160.4627 H   0  0  0  0  0  0  0  0  0  0  0  0
  153.1746  145.2626  159.1121 H   0  0  0  0  0  0  0  0  0  0  0  0
  152.5623  144.8143  157.5363 H   0  0  0  0  0  0  0  0  0  0  0  0
  151.0827  146.3575  159.2470 H   0  0  0  0  0  0  0  0  0  0  0  0
  150.2864  145.1536  158.2273 H   0  0  0  0  0  0  0  0  0  0  0  0
  150.1793  142.7728  159.2222 H   0  0  0  0  0  0  0  0  0  0  0  0
  151.0229  142.5703  160.7482 H   0  0  0  0  0  0  0  0  0  0  0  0
  1  2  1  0  0  0  0
  1 17  1  0  0  0  0
  1 18  1  0  0  0  0
  1 19  1  0  0  0  0
  2 16  1  0  0  0  0
  2  3  2  0  0  0  0
  3  4  1  0  0  0  0
  4  5  2  0  0  0  0
  5  6  1  0  0  0  0
  5 16  1  0  0  0  0
  6  7  1  0  0  0  0
  7  8  2  0  0  0  0
  7  9  1  0  0  0  0
  9 10  1  0  0  0  0
  9 20  1  0  0  0  0
 10 15  1  0  0  0  0
 10 11  1  0  0  0  0
 10 12  1  0  0  0  0
 11 21  1  0  0  0  0
 11 22  1  0  0  0  0
 11 23  1  0  0  0  0
 12 13  1  0  0  0  0
 12 24  1  0  0  0  0
 12 25  1  0  0  0  0
 13 14  1  0  0  0  0
 13 26  1  0  0  0  0
 13 27  1  0  0  0  0
 14 15  1  0  0  0  0
 15 28  1  0  0  0  0
 15 29  1  0  0  0  0
M  CHG  1   6  -1
M  END
> <s_m_source_file>
AV-unprocessed.smi

> <i_m_source_file_index>
2831

> <i_lp_mmshare_version>
43012

> <i_f3d_flags>
0

> <s_epik_input>
W0NIM11jMW5uYyhzMSlbTkhdQyg9TylbTkhdW0NAQF0yKFtDSDNdKVtDSDJdW0NIMl1PW0NIMl0y

> <s_epik_cmdline>
J2VwaWtfcHl0aG9uJywgJy1waCcsICc3LjAnLCAnLXRuJywgJzgnLCAnLW1hJywgJzIwMCcsICctbWV0YWxfYmluZGluZycsICctaW1hZScsICc8aW5maWxlLm1hZT4nLCAnLW9tYWUnLCAnPG91dGZpbGUubWFlPic=

> <r_lp_tautomer_probability>
1

> <r_epik_Ionization_Penalty>
3.33648

> <r_epik_Ionization_Penalty_Charging>
3.18522

> <r_epik_Ionization_Penalty_Neutral>
0.151254

> <r_epik_State_Penalty>
3.18248

> <r_epik_Charging_Adjusted_Penalty>
6.3677

> <i_epik_Tot_Q>
-1

> <i_epik_Tot_abs_Q>
1

> <r_epik_Metal_State_Penalty>
0.469716

> <b_epik_Metal_Only>
1

> <s_lp_Force_Field>
OPLS_2005

> <r_lp_Energy>
14.581

> <b_lp_Chiralities_Consistent>
1

> <s_lp_Variant>
AV-unprocessed.smi:2831-3

> <Gold.Version>
5.8.1

> <Gold.Id.Protein>
6NUR|6NUR_protein|mol2

> <Gold.PLP.Fitness>
35.4301

> <Gold.PLP.PLP>
-30.9382

> <Gold.PLP.part.hbond>
-3.0000

> <Gold.PLP.part.metal>
0.0000

> <Gold.PLP.part.buried>
0.5208

> <Gold.PLP.part.nonpolar>
-27.8868

> <Gold.PLP.part.repulsive>
1.0576

> <Gold.PLP.ligand.clash>
0.0000

> <Gold.PLP.ligand.torsion>
0.7614

> <Gold.PLP.Chemscore.Hbond>
2.0000

> <Gold.PLP.Chemscore.CHOScore>
0.0000

> <Gold.PLP.Chemscore.Metal>
0.0000

> <Gold.Chemscore.Hbonds>
donor molecule, donor type, donor heavy atom, donor atom, acceptor molecule, acceptor atom, score
      P1  H  7997  8008       L1     6  1.98

> <Gold.PLP.Chemscore.Internal.Correction>
0.0147

> <Gold.Rescore>
     Score         DG    S(hbond)    S(metal)    S(lipo)     H(rot)  DE(clash)    DE(int)     intcor
     13.55     -14.86       0.86        0.00      77.57       1.00       0.55       0.77       ----

> <Gold.Chemscore.Fitness>
13.5458

> <Gold.Chemscore.DG>
-14.8612

> <Gold.Chemscore.ZeroCoef>
-5.4800

> <Gold.Chemscore.Hbond>
0.8579

> <Gold.Chemscore.Metal>
0.0000

> <Gold.Chemscore.Lipo>
77.5728

> <Gold.Chemscore.Internal_Hbond>
0.0000

> <Gold.Chemscore.DEClash>
0.5465

> <Gold.Chemscore.DEInternal>
0.7689

> <Gold.Chemscore.Rot>
1.0000

> <Gold.Chemscore.Internal.Correction>
   9.000000E+99

> <Gold.Chemscore.Hbonds>
donor molecule, donor type, donor heavy atom, donor atom, acceptor molecule, acceptor atom, score
      P1  H  7997  8008       L1     6  0.61

> <Gold.Chemscore.Hbond.Weighted>
-2.8652

> <Gold.Chemscore.Metal.Weighted>
-0.0000

> <Gold.Chemscore.Lipo.Weighted>
-9.0760

> <Gold.Chemscore.Internal_Hbond.Weighted>
0.0000

> <Gold.Chemscore.DEClash.Weighted>
0.5465

> <Gold.Chemscore.DEInternal.Weighted>
0.7689

> <Gold.Chemscore.Rot.Weighted>
2.5600

> <Gold.Chemscore.Internal.Correction.Weighted>
   9.000000E+99

> <Gold.Protein.RotatedTorsions>
[ 6907 6896 6895 6894 ] final -107.67 input  -60.11 | X-H torsion
[ 7974 7965 7964 7962 ] final   91.47 input  175.53 | X-H torsion
[ 8008 7997 7996 7995 ] final  -49.52 input   59.86 | X-H torsion
[ 10167 10162 10161 10158 ] final  156.73 input  -65.29 | X-H torsion
[ 10718 10713 10712 10709 ] final  173.52 input   66.30 | X-H torsion
[ 10763 10752 10751 10750 ] final  153.34 input  -60.55 | X-H torsion
[ 11005 11000 10999 10996 ] final  -48.77 input  -57.11 | X-H torsion

> <Gold.Protein.ActiveResidues>
 VAL166  LYS551  ARG553  GLY616  TRP617  ASP618  TYR619  PRO620  LYS621  CYS622 
 ASP623  PHE694  ASN695  SER759  ASP760  ASP761  ALA762  ILE779  LEU786  VAL792 
 PHE793  MET794  SER795  GLU796  ALA797  LYS798  CYS799  TRP800  GLU811  SER814 

> <Gold.Protein.RotatedAtoms>
  150.7457  133.9792  159.3570 H   0  0  0  0  0  0  0  0  0  0  0  0  # atno 6907 bound_to 6896
  151.7732  135.0779  160.0372 H   0  0  0  0  0  0  0  0  0  0  0  0  # atno 6908 bound_to 6896
  152.3325  133.5937  159.5855 H   0  0  0  0  0  0  0  0  0  0  0  0  # atno 6909 bound_to 6896
  145.5053  139.2276  143.2755 H   0  0  0  0  0  0  0  0  0  0  0  0  # atno 7974 bound_to 7965
  154.4045  140.1295  156.4516 H   0  0  0  0  0  0  0  0  0  0  0  0  # atno 8008 bound_to 7997
  155.7361  140.3490  155.5062 H   0  0  0  0  0  0  0  0  0  0  0  0  # atno 8009 bound_to 7997
  155.9083  140.1031  157.1289 H   0  0  0  0  0  0  0  0  0  0  0  0  # atno 8010 bound_to 7997
  139.4821  144.4982  151.8207 H   0  0  0  0  0  0  0  0  0  0  0  0  # atno 10167 bound_to 10162
  156.9631  131.0067  151.2923 H   0  0  0  0  0  0  0  0  0  0  0  0  # atno 10718 bound_to 10713
  154.1346  135.2824  155.3176 H   0  0  0  0  0  0  0  0  0  0  0  0  # atno 10763 bound_to 10752
  154.6331  135.5428  153.7706 H   0  0  0  0  0  0  0  0  0  0  0  0  # atno 10764 bound_to 10752
  153.0270  135.6467  154.1495 H   0  0  0  0  0  0  0  0  0  0  0  0  # atno 10765 bound_to 10752
  141.0720  133.6676  156.3489 H   0  0  0  0  0  0  0  0  0  0  0  0  # atno 11005 bound_to 11000
  146.2201  140.5856  142.9021 LP  0  0  0  0  0  0  0  0  0  0  0  0  # atno 17320 bound_to 7965
  144.7757  140.5735  143.6639 LP  0  0  0  0  0  0  0  0  0  0  0  0  # atno 17321 bound_to 7965
  140.4473  144.1904  150.5895 LP  0  0  0  0  0  0  0  0  0  0  0  0  # atno 17342 bound_to 10162
  140.4621  143.2445  151.9205 LP  0  0  0  0  0  0  0  0  0  0  0  0  # atno 17343 bound_to 10162
  157.5644  130.8268  149.8308 LP  0  0  0  0  0  0  0  0  0  0  0  0  # atno 17370 bound_to 10713
  156.0314  130.3763  150.1678 LP  0  0  0  0  0  0  0  0  0  0  0  0  # atno 17371 bound_to 10713
  140.5653  134.5894  157.5444 LP  0  0  0  0  0  0  0  0  0  0  0  0  # atno 17394 bound_to 11000
  139.9533  134.7579  156.0398 LP  0  0  0  0  0  0  0  0  0  0  0  0  # atno 17395 bound_to 11000

$$$$
