AV-unprocessed.smi:2478|AV-procd|sdf|9764|dock7
  -GOLD-   2272013403D 1   1.00000     0.00000
 Structure written by MMmdl.
 42 43  0  0  0  0  0  0  0  0  1 V2000
  151.7997  144.6117  158.5514 C   0  0  0  0  0  0  0  0  0  0  0  0
  152.5579  143.8790  159.6692 C   0  0  1  0  0  0  0  0  0  0  0  0
  152.0390  144.2708  161.0677 C   0  0  0  0  0  0  0  0  0  0  0  0
  152.8262  143.5614  162.1814 C   0  0  0  0  0  0  0  0  0  0  0  0
  152.8111  142.0371  161.9924 C   0  0  0  0  0  0  0  0  0  0  0  0
  153.3301  141.6445  160.5995 C   0  0  0  0  0  0  0  0  0  0  0  0
  152.5356  142.3460  159.4767 C   0  0  1  0  0  0  0  0  0  0  0  0
  151.1800  141.9118  159.4813 O   0  0  0  0  0  0  0  0  0  0  0  0
  150.6744  141.5333  158.2089 C   0  0  0  0  0  0  0  0  0  0  0  0
  149.3200  142.2060  157.9861 C   0  0  0  0  0  0  0  0  0  0  0  0
  148.8228  142.8971  158.8763 O   0  0  0  0  0  0  0  0  0  0  0  0
  148.7534  141.9748  156.7876 N   0  0  0  0  0  0  0  0  0  0  0  0
  147.5058  142.4428  156.2909 C   0  0  0  0  0  0  0  0  0  0  0  0
  146.5866  143.0664  157.0696 N   0  0  0  0  0  0  0  0  0  0  0  0
  145.4265  143.4810  156.5219 C   0  0  0  0  0  0  0  0  0  0  0  0
  145.1127  143.3022  155.1640 C   0  0  0  0  0  0  0  0  0  0  0  0
  146.0557  142.6580  154.3449 C   0  0  0  0  0  0  0  0  0  0  0  0
  147.2730  142.2087  154.9117 C   0  0  0  0  0  0  0  0  0  0  0  0
  148.2487  141.5846  154.1638 O   0  0  0  0  0  0  0  0  0  0  0  0
  148.2941  140.2260  154.1308 C   0  0  0  0  0  0  0  0  0  0  0  0
  147.4416  139.7465  153.1920 F   0  0  0  0  0  0  0  0  0  0  0  0
  149.5425  139.8185  153.7974 F   0  0  0  0  0  0  0  0  0  0  0  0
  150.7364  144.3702  158.5651 H   0  0  0  0  0  0  0  0  0  0  0  0
  152.1896  144.3418  157.5697 H   0  0  0  0  0  0  0  0  0  0  0  0
  151.8944  145.6926  158.6575 H   0  0  0  0  0  0  0  0  0  0  0  0
  153.5990  144.1994  159.6063 H   0  0  0  0  0  0  0  0  0  0  0  0
  152.1108  145.3504  161.2033 H   0  0  0  0  0  0  0  0  0  0  0  0
  150.9807  144.0207  161.1541 H   0  0  0  0  0  0  0  0  0  0  0  0
  153.8569  143.9183  162.1843 H   0  0  0  0  0  0  0  0  0  0  0  0
  152.4070  143.8189  163.1545 H   0  0  0  0  0  0  0  0  0  0  0  0
  153.4187  141.5619  162.7630 H   0  0  0  0  0  0  0  0  0  0  0  0
  151.7956  141.6614  162.1250 H   0  0  0  0  0  0  0  0  0  0  0  0
  154.3818  141.9223  160.5193 H   0  0  0  0  0  0  0  0  0  0  0  0
  153.2990  140.5618  160.4838 H   0  0  0  0  0  0  0  0  0  0  0  0
  152.9913  142.1148  158.5120 H   0  0  0  0  0  0  0  0  0  0  0  0
  151.3719  141.8360  157.4258 H   0  0  0  0  0  0  0  0  0  0  0  0
  150.5401  140.4540  158.1402 H   0  0  0  0  0  0  0  0  0  0  0  0
  149.2784  141.3922  156.1518 H   0  0  0  0  0  0  0  0  0  0  0  0
  144.7306  143.9726  157.1853 H   0  0  0  0  0  0  0  0  0  0  0  0
  144.1744  143.6535  154.7608 H   0  0  0  0  0  0  0  0  0  0  0  0
  145.8400  142.5211  153.2958 H   0  0  0  0  0  0  0  0  0  0  0  0
  148.0489  139.7904  155.0998 H   0  0  0  0  0  0  0  0  0  0  0  0
  1  2  1  0  0  0  0
  1 23  1  0  0  0  0
  1 24  1  0  0  0  0
  1 25  1  0  0  0  0
  2  7  1  0  0  0  0
  2  3  1  0  0  0  0
  2 26  1  0  0  0  0
  3  4  1  0  0  0  0
  3 27  1  0  0  0  0
  3 28  1  0  0  0  0
  4  5  1  0  0  0  0
  4 29  1  0  0  0  0
  4 30  1  0  0  0  0
  5  6  1  0  0  0  0
  5 31  1  0  0  0  0
  5 32  1  0  0  0  0
  6  7  1  0  0  0  0
  6 33  1  0  0  0  0
  6 34  1  0  0  0  0
  7  8  1  0  0  0  0
  7 35  1  0  0  0  0
  8  9  1  0  0  0  0
  9 10  1  0  0  0  0
  9 36  1  0  0  0  0
  9 37  1  0  0  0  0
 10 11  2  0  0  0  0
 10 12  1  0  0  0  0
 12 13  1  0  0  0  0
 12 38  1  0  0  0  0
 13 18  1  0  0  0  0
 13 14  2  0  0  0  0
 14 15  1  0  0  0  0
 15 16  2  0  0  0  0
 15 39  1  0  0  0  0
 16 17  1  0  0  0  0
 16 40  1  0  0  0  0
 17 18  2  0  0  0  0
 17 41  1  0  0  0  0
 18 19  1  0  0  0  0
 19 20  1  0  0  0  0
 20 21  1  0  0  0  0
 20 22  1  0  0  0  0
 20 42  1  0  0  0  0
M  END
> <s_m_source_file>
AV-unprocessed.smi

> <i_m_source_file_index>
2478

> <i_lp_mmshare_version>
43012

> <i_f3d_flags>
0

> <s_epik_input>
W0NIM11bQ0BASF0xW0NIMl1bQ0gyXVtDSDJdW0NIMl1bQ0BIXTFPW0NIMl1DKD1PKVtOSF1jMm5bY0hdW2NIXVtjSF1jMk9bQ0hdKEYpRg==

> <s_epik_cmdline>
J2VwaWtfcHl0aG9uJywgJy1waCcsICc3LjAnLCAnLXRuJywgJzgnLCAnLW1hJywgJzIwMCcsICctbWV0YWxfYmluZGluZycsICctaW1hZScsICc8aW5maWxlLm1hZT4nLCAnLW9tYWUnLCAnPG91dGZpbGUubWFlPic=

> <r_lp_tautomer_probability>
1

> <r_epik_Ionization_Penalty>
6.06012e-05

> <r_epik_Ionization_Penalty_Charging>
0

> <r_epik_Ionization_Penalty_Neutral>
6.06012e-05

> <r_epik_State_Penalty>
-0

> <r_epik_Charging_Adjusted_Penalty>
0

> <i_epik_Tot_Q>
0

> <i_epik_Tot_abs_Q>
0

> <r_epik_Metal_State_Penalty>
-0

> <b_epik_Metal_Only>
0

> <s_lp_Force_Field>
OPLS_2005

> <r_lp_Energy>
14.9607

> <b_lp_Chiralities_Consistent>
1

> <s_lp_Variant>
AV-unprocessed.smi:2478-2

> <Gold.Version>
5.8.1

> <Gold.Id.Protein>
6NUR|6NUR_protein|mol2

> <Gold.PLP.Fitness>
42.2394

> <Gold.PLP.PLP>
-45.4688

> <Gold.PLP.part.hbond>
-2.4740

> <Gold.PLP.part.metal>
0.0000

> <Gold.PLP.part.buried>
-1.2460

> <Gold.PLP.part.nonpolar>
-41.3738

> <Gold.PLP.part.repulsive>
0.4773

> <Gold.PLP.ligand.clash>
0.0000

> <Gold.PLP.ligand.torsion>
1.6436

> <Gold.PLP.Chemscore.Hbond>
0.0000

> <Gold.PLP.Chemscore.CHOScore>
0.0000

> <Gold.PLP.Chemscore.Metal>
0.0000

> <Gold.PLP.Chemscore.Internal.Correction>
0.0579

> <Gold.Rescore>
     Score         DG    S(hbond)    S(metal)    S(lipo)     H(rot)  DE(clash)    DE(int)     intcor
     10.55     -13.71       0.00        0.00     110.76       1.85       0.37       2.79       ----

> <Gold.Chemscore.Fitness>
10.5480

> <Gold.Chemscore.DG>
-13.7076

> <Gold.Chemscore.ZeroCoef>
-5.4800

> <Gold.Chemscore.Hbond>
0.0000

> <Gold.Chemscore.Metal>
0.0000

> <Gold.Chemscore.Lipo>
110.7582

> <Gold.Chemscore.Internal_Hbond>
0.0000

> <Gold.Chemscore.DEClash>
0.3652

> <Gold.Chemscore.DEInternal>
2.7944

> <Gold.Chemscore.Rot>
1.8481

> <Gold.Chemscore.Internal.Correction>
   9.000000E+99

> <Gold.Chemscore.Hbond.Weighted>
-0.0000

> <Gold.Chemscore.Metal.Weighted>
-0.0000

> <Gold.Chemscore.Lipo.Weighted>
-12.9587

> <Gold.Chemscore.Internal_Hbond.Weighted>
0.0000

> <Gold.Chemscore.DEClash.Weighted>
0.3652

> <Gold.Chemscore.DEInternal.Weighted>
2.7944

> <Gold.Chemscore.Rot.Weighted>
4.7311

> <Gold.Chemscore.Internal.Correction.Weighted>
   9.000000E+99

> <Gold.Protein.RotatedTorsions>
[ 6907 6896 6895 6894 ] final  -54.40 input  -60.11 | X-H torsion
[ 7974 7965 7964 7962 ] final  -93.62 input  175.53 | X-H torsion
[ 8008 7997 7996 7995 ] final  -66.41 input   59.86 | X-H torsion
[ 10167 10162 10161 10158 ] final  161.66 input  -65.29 | X-H torsion
[ 10718 10713 10712 10709 ] final  118.25 input   66.30 | X-H torsion
[ 10763 10752 10751 10750 ] final  159.52 input  -60.55 | X-H torsion
[ 11005 11000 10999 10996 ] final  135.02 input  -57.11 | X-H torsion

> <Gold.Protein.ActiveResidues>
 VAL166  LYS551  ARG553  GLY616  TRP617  ASP618  TYR619  PRO620  LYS621  CYS622 
 ASP623  PHE694  ASN695  SER759  ASP760  ASP761  ALA762  ILE779  LEU786  VAL792 
 PHE793  MET794  SER795  GLU796  ALA797  LYS798  CYS799  TRP800  GLU811  SER814 

> <Gold.Protein.RotatedAtoms>
  150.8341  134.7607  159.6878 H   0  0  0  0  0  0  0  0  0  0  0  0  # atno 6907 bound_to 6896
  152.4441  134.5527  159.9881 H   0  0  0  0  0  0  0  0  0  0  0  0  # atno 6908 bound_to 6896
  151.5681  133.3356  159.3020 H   0  0  0  0  0  0  0  0  0  0  0  0  # atno 6909 bound_to 6896
  145.3841  140.9521  143.2377 H   0  0  0  0  0  0  0  0  0  0  0  0  # atno 7974 bound_to 7965
  154.4732  140.0913  156.7198 H   0  0  0  0  0  0  0  0  0  0  0  0  # atno 8008 bound_to 7997
  155.4666  140.3463  155.4301 H   0  0  0  0  0  0  0  0  0  0  0  0  # atno 8009 bound_to 7997
  156.1074  140.1438  156.9373 H   0  0  0  0  0  0  0  0  0  0  0  0  # atno 8010 bound_to 7997
  139.4852  144.4514  151.8825 H   0  0  0  0  0  0  0  0  0  0  0  0  # atno 10167 bound_to 10162
  157.6043  131.1046  150.7730 H   0  0  0  0  0  0  0  0  0  0  0  0  # atno 10718 bound_to 10713
  154.2331  135.2777  155.2882 H   0  0  0  0  0  0  0  0  0  0  0  0  # atno 10763 bound_to 10752
  154.5608  135.5647  153.7008 H   0  0  0  0  0  0  0  0  0  0  0  0  # atno 10764 bound_to 10752
  153.0016  135.6297  154.2473 H   0  0  0  0  0  0  0  0  0  0  0  0  # atno 10765 bound_to 10752
  139.9952  134.9500  156.9948 H   0  0  0  0  0  0  0  0  0  0  0  0  # atno 11005 bound_to 11000
  144.8486  139.5357  143.6867 LP  0  0  0  0  0  0  0  0  0  0  0  0  # atno 17320 bound_to 7965
  146.2828  139.6923  142.9217 LP  0  0  0  0  0  0  0  0  0  0  0  0  # atno 17321 bound_to 7965
  140.3971  144.2541  150.5895 LP  0  0  0  0  0  0  0  0  0  0  0  0  # atno 17342 bound_to 10162
  140.5092  143.2295  151.8561 LP  0  0  0  0  0  0  0  0  0  0  0  0  # atno 17343 bound_to 10162
  156.8122  130.4956  149.5354 LP  0  0  0  0  0  0  0  0  0  0  0  0  # atno 17370 bound_to 10713
  156.1124  130.6050  151.0068 LP  0  0  0  0  0  0  0  0  0  0  0  0  # atno 17371 bound_to 10713
  140.4831  134.1269  155.7220 LP  0  0  0  0  0  0  0  0  0  0  0  0  # atno 17394 bound_to 11000
  141.1599  133.8813  157.1877 LP  0  0  0  0  0  0  0  0  0  0  0  0  # atno 17395 bound_to 11000

$$$$
