AV-unprocessed.smi:2469|AV-procd|sdf|9734|dock8
  -GOLD-   2272013373D 1   1.00000     0.00000
 Structure written by MMmdl.
 32 33  0  0  0  0  0  0  0  0  1 V2000
  146.6303  137.5036  151.3102 O   0  0  0  0  0  0  0  0  0  0  0  0
  146.6482  138.6984  152.0619 C   0  0  0  0  0  0  0  0  0  0  0  0
  146.8104  138.3860  153.5546 C   0  0  0  0  0  0  0  0  0  0  0  0
  148.1993  138.3342  153.8696 O   0  0  0  0  0  0  0  0  0  0  0  0
  148.7655  139.4028  154.5340 C   0  0  0  0  0  0  0  0  0  0  0  0
  150.0486  139.2449  155.0946 C   0  0  0  0  0  0  0  0  0  0  0  0
  150.6345  140.3320  155.7706 C   0  0  0  0  0  0  0  0  0  0  0  0
  149.9198  141.5488  155.8646 C   0  0  0  0  0  0  0  0  0  0  0  0
  150.4116  142.6907  156.5150 N   0  0  0  0  0  0  0  0  0  0  0  0
  151.6188  142.6507  157.3306 C   0  0  1  0  0  0  0  0  0  0  0  0
  152.0253  144.0019  157.8861 C   0  0  0  0  0  0  0  0  0  0  0  0
  152.9263  143.5983  159.0497 C   0  0  0  0  0  0  0  0  0  0  0  0
  152.4315  142.3434  159.5114 O   0  0  0  0  0  0  0  0  0  0  0  0
  151.4325  141.8557  158.6208 C   0  0  0  0  0  0  0  0  0  0  0  0
  148.6406  141.6017  155.2716 C   0  0  0  0  0  0  0  0  0  0  0  0
  148.0716  140.5642  154.6221 N   0  0  0  0  0  0  0  0  0  0  0  0
  147.4270  137.0264  151.4852 H   0  0  0  0  0  0  0  0  0  0  0  0
  147.4369  139.3623  151.7066 H   0  0  0  0  0  0  0  0  0  0  0  0
  145.6983  139.2067  151.8936 H   0  0  0  0  0  0  0  0  0  0  0  0
  146.3496  139.1900  154.1308 H   0  0  0  0  0  0  0  0  0  0  0  0
  146.3006  137.4567  153.8157 H   0  0  0  0  0  0  0  0  0  0  0  0
  150.5745  138.3056  155.0080 H   0  0  0  0  0  0  0  0  0  0  0  0
  151.6165  140.2139  156.2027 H   0  0  0  0  0  0  0  0  0  0  0  0
  150.0187  143.5931  156.2875 H   0  0  0  0  0  0  0  0  0  0  0  0
  152.4442  142.2124  156.7680 H   0  0  0  0  0  0  0  0  0  0  0  0
  152.5318  144.6387  157.1605 H   0  0  0  0  0  0  0  0  0  0  0  0
  151.1533  144.5399  158.2620 H   0  0  0  0  0  0  0  0  0  0  0  0
  153.9526  143.4607  158.7073 H   0  0  0  0  0  0  0  0  0  0  0  0
  152.9320  144.3420  159.8469 H   0  0  0  0  0  0  0  0  0  0  0  0
  150.4557  142.0557  159.0645 H   0  0  0  0  0  0  0  0  0  0  0  0
  151.5209  140.7798  158.4680 H   0  0  0  0  0  0  0  0  0  0  0  0
  148.0526  142.5070  155.3169 H   0  0  0  0  0  0  0  0  0  0  0  0
  1  2  1  0  0  0  0
  1 17  1  0  0  0  0
  2  3  1  0  0  0  0
  2 18  1  0  0  0  0
  2 19  1  0  0  0  0
  3  4  1  0  0  0  0
  3 20  1  0  0  0  0
  3 21  1  0  0  0  0
  4  5  1  0  0  0  0
  5 16  1  0  0  0  0
  5  6  2  0  0  0  0
  6  7  1  0  0  0  0
  6 22  1  0  0  0  0
  7  8  2  0  0  0  0
  7 23  1  0  0  0  0
  8  9  1  0  0  0  0
  8 15  1  0  0  0  0
  9 10  1  0  0  0  0
  9 24  1  0  0  0  0
 10 14  1  0  0  0  0
 10 11  1  0  0  0  0
 10 25  1  0  0  0  0
 11 12  1  0  0  0  0
 11 26  1  0  0  0  0
 11 27  1  0  0  0  0
 12 13  1  0  0  0  0
 12 28  1  0  0  0  0
 12 29  1  0  0  0  0
 13 14  1  0  0  0  0
 14 30  1  0  0  0  0
 14 31  1  0  0  0  0
 15 16  2  0  0  0  0
 15 32  1  0  0  0  0
M  END
> <s_m_source_file>
AV-unprocessed.smi

> <i_m_source_file_index>
2469

> <i_lp_mmshare_version>
43012

> <i_f3d_flags>
0

> <s_epik_input>
W09IXVtDSDJdW0NIMl1PYzFbY0hdW2NIXWMoW2NIXW4xKVtOSF1bQ0BASF0yW0NIMl1bQ0gyXU9bQ0gyXTI=

> <s_epik_cmdline>
J2VwaWtfcHl0aG9uJywgJy1waCcsICc3LjAnLCAnLXRuJywgJzgnLCAnLW1hJywgJzIwMCcsICctbWV0YWxfYmluZGluZycsICctaW1hZScsICc8aW5maWxlLm1hZT4nLCAnLW9tYWUnLCAnPG91dGZpbGUubWFlPic=

> <r_lp_tautomer_probability>
1

> <r_epik_Ionization_Penalty>
0.000432265

> <r_epik_Ionization_Penalty_Charging>
0

> <r_epik_Ionization_Penalty_Neutral>
0.000432265

> <r_epik_State_Penalty>
-0

> <r_epik_Charging_Adjusted_Penalty>
0

> <i_epik_Tot_Q>
0

> <i_epik_Tot_abs_Q>
0

> <r_epik_Metal_State_Penalty>
-0

> <b_epik_Metal_Only>
0

> <s_lp_Force_Field>
OPLS_2005

> <r_lp_Energy>
23.2185

> <b_lp_Chiralities_Consistent>
1

> <s_lp_Variant>
AV-unprocessed.smi:2469-2

> <Gold.Version>
5.8.1

> <Gold.Id.Protein>
6NUR|6NUR_protein|mol2

> <Gold.PLP.Fitness>
40.6995

> <Gold.PLP.PLP>
-33.3333

> <Gold.PLP.part.hbond>
-3.6319

> <Gold.PLP.part.metal>
0.0000

> <Gold.PLP.part.buried>
-0.8207

> <Gold.PLP.part.nonpolar>
-29.3718

> <Gold.PLP.part.repulsive>
2.0646

> <Gold.PLP.ligand.clash>
0.0000

> <Gold.PLP.ligand.torsion>
0.7139

> <Gold.PLP.Chemscore.Hbond>
2.0000

> <Gold.PLP.Chemscore.CHOScore>
0.9144

> <Gold.PLP.Chemscore.Metal>
0.0000

> <Gold.Chemscore.Hbonds>
donor molecule, donor type, donor heavy atom, donor atom, acceptor molecule, acceptor atom, score
      L1  H     1    17       P1  7948  1.00
      L1  H     9    24       P1  8028  1.00
      L1  C    15    32       P1  8028  0.95

> <Gold.PLP.Chemscore.Internal.Correction>
0.0508

> <Gold.Rescore>
     Score         DG    S(hbond)    S(metal)    S(lipo)     H(rot)  DE(clash)    DE(int)     intcor
     14.02     -16.14       1.92        0.00      87.23       2.32       1.27       0.84       ----

> <Gold.Chemscore.Fitness>
14.0247

> <Gold.Chemscore.DG>
-16.1371

> <Gold.Chemscore.ZeroCoef>
-5.4800

> <Gold.Chemscore.Hbond>
1.9150

> <Gold.Chemscore.Metal>
0.0000

> <Gold.Chemscore.Lipo>
87.2344

> <Gold.Chemscore.Internal_Hbond>
0.0000

> <Gold.Chemscore.DEClash>
1.2692

> <Gold.Chemscore.DEInternal>
0.8432

> <Gold.Chemscore.Rot>
2.3225

> <Gold.Chemscore.Internal.Correction>
   9.000000E+99

> <Gold.Chemscore.Hbonds>
donor molecule, donor type, donor heavy atom, donor atom, acceptor molecule, acceptor atom, score
      L1  H     1    17       P1  7948  1.00
      L1  H     9    24       P1  8028  0.99

> <Gold.Chemscore.Hbond.Weighted>
-6.3963

> <Gold.Chemscore.Metal.Weighted>
-0.0000

> <Gold.Chemscore.Lipo.Weighted>
-10.2064

> <Gold.Chemscore.Internal_Hbond.Weighted>
0.0000

> <Gold.Chemscore.DEClash.Weighted>
1.2692

> <Gold.Chemscore.DEInternal.Weighted>
0.8432

> <Gold.Chemscore.Rot.Weighted>
5.9456

> <Gold.Chemscore.Internal.Correction.Weighted>
   9.000000E+99

> <Gold.Protein.RotatedTorsions>
[ 6907 6896 6895 6894 ] final -170.70 input  -60.11 | X-H torsion
[ 7974 7965 7964 7962 ] final  141.66 input  175.53 | X-H torsion
[ 8008 7997 7996 7995 ] final  121.17 input   59.86 | X-H torsion
[ 10167 10162 10161 10158 ] final -150.15 input  -65.29 | X-H torsion
[ 10718 10713 10712 10709 ] final -113.58 input   66.30 | X-H torsion
[ 10763 10752 10751 10750 ] final  105.80 input  -60.55 | X-H torsion
[ 11005 11000 10999 10996 ] final   82.40 input  -57.11 | X-H torsion

> <Gold.Protein.ActiveResidues>
 VAL166  LYS551  ARG553  GLY616  TRP617  ASP618  TYR619  PRO620  LYS621  CYS622 
 ASP623  PHE694  ASN695  SER759  ASP760  ASP761  ALA762  ILE779  LEU786  VAL792 
 PHE793  MET794  SER795  GLU796  ALA797  LYS798  CYS799  TRP800  GLU811  SER814 

> <Gold.Protein.RotatedAtoms>
  151.5119  133.3483  159.2886 H   0  0  0  0  0  0  0  0  0  0  0  0  # atno 6907 bound_to 6896
  150.8707  134.8082  159.7163 H   0  0  0  0  0  0  0  0  0  0  0  0  # atno 6908 bound_to 6896
  152.4696  134.5003  159.9774 H   0  0  0  0  0  0  0  0  0  0  0  0  # atno 6909 bound_to 6896
  144.9076  139.5336  143.5724 H   0  0  0  0  0  0  0  0  0  0  0  0  # atno 7974 bound_to 7965
  156.2675  140.2814  156.1266 H   0  0  0  0  0  0  0  0  0  0  0  0  # atno 8008 bound_to 7997
  155.1099  140.0390  157.2738 H   0  0  0  0  0  0  0  0  0  0  0  0  # atno 8009 bound_to 7997
  154.6750  140.2596  155.6973 H   0  0  0  0  0  0  0  0  0  0  0  0  # atno 8010 bound_to 7997
  139.7380  143.8706  152.2554 H   0  0  0  0  0  0  0  0  0  0  0  0  # atno 10167 bound_to 10162
  156.0775  130.5980  150.8661 H   0  0  0  0  0  0  0  0  0  0  0  0  # atno 10718 bound_to 10713
  153.3843  135.3898  155.1879 H   0  0  0  0  0  0  0  0  0  0  0  0  # atno 10763 bound_to 10752
  154.8711  135.3733  154.4817 H   0  0  0  0  0  0  0  0  0  0  0  0  # atno 10764 bound_to 10752
  153.5297  135.7086  153.5750 H   0  0  0  0  0  0  0  0  0  0  0  0  # atno 10765 bound_to 10752
  139.9065  134.8069  156.2170 H   0  0  0  0  0  0  0  0  0  0  0  0  # atno 11005 bound_to 11000
  146.3142  139.7857  142.8996 LP  0  0  0  0  0  0  0  0  0  0  0  0  # atno 17320 bound_to 7965
  145.3508  141.0307  143.3339 LP  0  0  0  0  0  0  0  0  0  0  0  0  # atno 17321 bound_to 7965
  139.8648  144.7098  150.9056 LP  0  0  0  0  0  0  0  0  0  0  0  0  # atno 17342 bound_to 10162
  140.7781  143.3787  151.1516 LP  0  0  0  0  0  0  0  0  0  0  0  0  # atno 17343 bound_to 10162
  157.5878  131.0945  150.9168 LP  0  0  0  0  0  0  0  0  0  0  0  0  # atno 17370 bound_to 10713
  156.9351  130.5364  149.5279 LP  0  0  0  0  0  0  0  0  0  0  0  0  # atno 17371 bound_to 10713
  141.0430  133.6928  156.1631 LP  0  0  0  0  0  0  0  0  0  0  0  0  # atno 17394 bound_to 11000
  140.6927  134.4648  157.5588 LP  0  0  0  0  0  0  0  0  0  0  0  0  # atno 17395 bound_to 11000

$$$$
