AV-unprocessed.smi:3250|AV-procd|sdf|12426|dock6
  -GOLD-   2272018313D 1   1.00000     0.00000
 Structure written by MMmdl.
 39 40  0  0  0  0  0  0  0  0  2 V2000
  144.0096  133.0761  149.3642 C   0  0  0  0  0  0  0  0  0  0  0  0
  144.1451  134.2543  150.3390 C   0  0  0  0  0  0  0  0  0  0  0  0
  145.5437  134.7498  150.4409 N   0  3  2  0  0  0  0  0  0  0  0  0
  146.4937  133.7376  150.9635 C   0  0  0  0  0  0  0  0  0  0  0  0
  146.3783  133.6044  152.4923 C   0  0  0  0  0  0  0  0  0  0  0  0
  146.5916  134.8753  153.0933 O   0  0  0  0  0  0  0  0  0  0  0  0
  145.6152  135.8362  152.7028 C   0  0  1  0  0  0  0  0  0  0  0  0
  145.9038  137.1422  153.4553 C   0  0  0  0  0  0  0  0  0  0  0  0
  147.3059  137.5199  153.3598 N   0  0  0  0  0  0  0  0  0  0  0  0
  147.8230  138.7039  153.8499 C   0  0  0  0  0  0  0  0  0  0  0  0
  146.9552  139.7131  153.9473 N   0  0  0  0  0  0  0  0  0  0  0  0
  147.4290  140.8847  154.4246 C   0  0  0  0  0  0  0  0  0  0  0  0
  148.7771  141.0414  154.8035 C   0  0  0  0  0  0  0  0  0  0  0  0
  149.6065  139.9110  154.6590 C   0  0  0  0  0  0  0  0  0  0  0  0
  150.9371  139.9967  155.0124 O   0  0  0  0  0  0  0  0  0  0  0  0
  151.7192  138.8084  154.9733 C   0  0  0  0  0  0  0  0  0  0  0  0
  149.1193  138.7394  154.1786 N   0  0  0  0  0  0  0  0  0  0  0  0
  145.7007  136.0335  151.1729 C   0  0  0  0  0  0  0  0  0  0  0  0
  142.9961  132.6749  149.3886 H   0  0  0  0  0  0  0  0  0  0  0  0
  144.6906  132.2660  149.6270 H   0  0  0  0  0  0  0  0  0  0  0  0
  144.2146  133.3690  148.3348 H   0  0  0  0  0  0  0  0  0  0  0  0
  143.4637  135.0583  150.0613 H   0  0  0  0  0  0  0  0  0  0  0  0
  143.8208  133.9066  151.3206 H   0  0  0  0  0  0  0  0  0  0  0  0
  146.3407  132.7741  150.4761 H   0  0  0  0  0  0  0  0  0  0  0  0
  147.5057  134.0526  150.7061 H   0  0  0  0  0  0  0  0  0  0  0  0
  145.4068  133.2038  152.7854 H   0  0  0  0  0  0  0  0  0  0  0  0
  147.1319  132.9099  152.8642 H   0  0  0  0  0  0  0  0  0  0  0  0
  144.6201  135.4843  152.9787 H   0  0  0  0  0  0  0  0  0  0  0  0
  145.2794  137.9490  153.0695 H   0  0  0  0  0  0  0  0  0  0  0  0
  145.6551  137.0201  154.5101 H   0  0  0  0  0  0  0  0  0  0  0  0
  147.9351  136.9167  152.8503 H   0  0  0  0  0  0  0  0  0  0  0  0
  146.7282  141.7026  154.5048 H   0  0  0  0  0  0  0  0  0  0  0  0
  149.1542  141.9787  155.1848 H   0  0  0  0  0  0  0  0  0  0  0  0
  152.7396  139.0379  155.2794 H   0  0  0  0  0  0  0  0  0  0  0  0
  151.7616  138.3919  153.9660 H   0  0  0  0  0  0  0  0  0  0  0  0
  151.3307  138.0523  155.6571 H   0  0  0  0  0  0  0  0  0  0  0  0
  146.6779  136.4462  150.9178 H   0  0  0  0  0  0  0  0  0  0  0  0
  144.9689  136.7671  150.8373 H   0  0  0  0  0  0  0  0  0  0  0  0
  145.8280  134.9258  149.4876 H   0  0  0  0  0  0  0  0  0  0  0  0
  1  2  1  0  0  0  0
  1 19  1  0  0  0  0
  1 20  1  0  0  0  0
  1 21  1  0  0  0  0
  2  3  1  0  0  0  0
  2 22  1  0  0  0  0
  2 23  1  0  0  0  0
  3 18  1  0  0  0  0
  3  4  1  0  0  0  0
  3 39  1  0  0  0  0
  4  5  1  0  0  0  0
  4 24  1  0  0  0  0
  4 25  1  0  0  0  0
  5  6  1  0  0  0  0
  5 26  1  0  0  0  0
  5 27  1  0  0  0  0
  6  7  1  0  0  0  0
  7  8  1  0  0  0  0
  7 18  1  0  0  0  0
  7 28  1  0  0  0  0
  8  9  1  0  0  0  0
  8 29  1  0  0  0  0
  8 30  1  0  0  0  0
  9 10  1  0  0  0  0
  9 31  1  0  0  0  0
 10 17  1  0  0  0  0
 10 11  2  0  0  0  0
 11 12  1  0  0  0  0
 12 13  2  0  0  0  0
 12 32  1  0  0  0  0
 13 14  1  0  0  0  0
 13 33  1  0  0  0  0
 14 15  1  0  0  0  0
 14 17  2  0  0  0  0
 15 16  1  0  0  0  0
 16 34  1  0  0  0  0
 16 35  1  0  0  0  0
 16 36  1  0  0  0  0
 18 37  1  0  0  0  0
 18 38  1  0  0  0  0
M  CHG  1   3   1
M  END
> <s_m_source_file>
AV-unprocessed.smi

> <i_m_source_file_index>
3250

> <i_lp_mmshare_version>
43012

> <i_f3d_flags>
0

> <s_epik_input>
W0NIM11bQ0gyXU4xW0NIMl1bQ0gyXU9bQ0BIXShbQ0gyXTEpW0NIMl1bTkhdYzJuW2NIXVtjSF1jKG4yKU9bQ0gzXQ==

> <s_epik_cmdline>
J2VwaWtfcHl0aG9uJywgJy1waCcsICc3LjAnLCAnLXRuJywgJzgnLCAnLW1hJywgJzIwMCcsICctbWV0YWxfYmluZGluZycsICctaW1hZScsICc8aW5maWxlLm1hZT4nLCAnLW9tYWUnLCAnPG91dGZpbGUubWFlPic=

> <r_lp_tautomer_probability>
1

> <r_epik_Ionization_Penalty>
0.19684

> <r_epik_Ionization_Penalty_Charging>
0.178504

> <r_epik_Ionization_Penalty_Neutral>
0.0183356

> <r_epik_State_Penalty>
0.162939

> <r_epik_Charging_Adjusted_Penalty>
0.341443

> <i_epik_Tot_Q>
1

> <i_epik_Tot_abs_Q>
1

> <r_epik_Metal_State_Penalty>
0.1608

> <b_epik_Metal_Only>
0

> <s_lp_Force_Field>
OPLS_2005

> <r_lp_Energy>
11.5983

> <b_lp_Chiralities_Consistent>
1

> <s_lp_Variant>
AV-unprocessed.smi:3250-2

> <Gold.Version>
5.8.1

> <Gold.Id.Protein>
6NUR|6NUR_protein|mol2

> <Gold.PLP.Fitness>
40.6942

> <Gold.PLP.PLP>
-32.2189

> <Gold.PLP.part.hbond>
-3.0000

> <Gold.PLP.part.metal>
0.0000

> <Gold.PLP.part.buried>
-4.9152

> <Gold.PLP.part.nonpolar>
-26.0434

> <Gold.PLP.part.repulsive>
1.4493

> <Gold.PLP.ligand.clash>
0.0000

> <Gold.PLP.ligand.torsion>
0.2759

> <Gold.PLP.Chemscore.Hbond>
3.0000

> <Gold.PLP.Chemscore.CHOScore>
0.0000

> <Gold.PLP.Chemscore.Metal>
0.0000

> <Gold.Chemscore.Hbonds>
donor molecule, donor type, donor heavy atom, donor atom, acceptor molecule, acceptor atom, score
      L1  H     3    39       P1  7921  1.00
      L1  H     9    31       P1  7948  1.00
      P1  H  7989  7998       L1    15  0.95

> <Gold.PLP.Chemscore.Internal.Correction>
0.0272

> <Gold.Rescore>
     Score         DG    S(hbond)    S(metal)    S(lipo)     H(rot)  DE(clash)    DE(int)     intcor
     14.95     -15.35       2.07        0.00      62.90       1.71       0.22       0.18       ----

> <Gold.Chemscore.Fitness>
14.9492

> <Gold.Chemscore.DG>
-15.3519

> <Gold.Chemscore.ZeroCoef>
-5.4800

> <Gold.Chemscore.Hbond>
2.0651

> <Gold.Chemscore.Metal>
0.0000

> <Gold.Chemscore.Lipo>
62.8985

> <Gold.Chemscore.Internal_Hbond>
0.0000

> <Gold.Chemscore.DEClash>
0.2242

> <Gold.Chemscore.DEInternal>
0.1785

> <Gold.Chemscore.Rot>
1.7127

> <Gold.Chemscore.Internal.Correction>
   9.000000E+99

> <Gold.Chemscore.Hbonds>
donor molecule, donor type, donor heavy atom, donor atom, acceptor molecule, acceptor atom, score
      L1  H     3    39       P1  7921  0.93
      L1  H     9    31       P1  7948  0.97
      P1  H  7989  7998       L1    15  0.06

> <Gold.Chemscore.Hbond.Weighted>
-6.8974

> <Gold.Chemscore.Metal.Weighted>
-0.0000

> <Gold.Chemscore.Lipo.Weighted>
-7.3591

> <Gold.Chemscore.Internal_Hbond.Weighted>
0.0000

> <Gold.Chemscore.DEClash.Weighted>
0.2242

> <Gold.Chemscore.DEInternal.Weighted>
0.1785

> <Gold.Chemscore.Rot.Weighted>
4.3846

> <Gold.Chemscore.Internal.Correction.Weighted>
   9.000000E+99

> <Gold.Protein.RotatedTorsions>
[ 6907 6896 6895 6894 ] final  -15.78 input  -60.11 | X-H torsion
[ 7974 7965 7964 7962 ] final  101.70 input  175.53 | X-H torsion
[ 8008 7997 7996 7995 ] final  -66.06 input   59.86 | X-H torsion
[ 10167 10162 10161 10158 ] final  122.17 input  -65.29 | X-H torsion
[ 10718 10713 10712 10709 ] final -149.96 input   66.30 | X-H torsion
[ 10763 10752 10751 10750 ] final -146.64 input  -60.55 | X-H torsion
[ 11005 11000 10999 10996 ] final   -6.22 input  -57.11 | X-H torsion

> <Gold.Protein.ActiveResidues>
 VAL166  LYS551  ARG553  GLY616  TRP617  ASP618  TYR619  PRO620  LYS621  CYS622 
 ASP623  PHE694  ASN695  SER759  ASP760  ASP761  ALA762  ILE779  LEU786  VAL792 
 PHE793  MET794  SER795  GLU796  ALA797  LYS798  CYS799  TRP800  GLU811  SER814 

> <Gold.Protein.RotatedAtoms>
  151.3186  135.0813  159.9297 H   0  0  0  0  0  0  0  0  0  0  0  0  # atno 6907 bound_to 6896
  152.5262  133.9662  159.7751 H   0  0  0  0  0  0  0  0  0  0  0  0  # atno 6908 bound_to 6896
  150.9979  133.6033  159.2729 H   0  0  0  0  0  0  0  0  0  0  0  0  # atno 6909 bound_to 6896
  145.3688  139.2402  143.3466 H   0  0  0  0  0  0  0  0  0  0  0  0  # atno 7974 bound_to 7965
  154.4710  140.0920  156.7145 H   0  0  0  0  0  0  0  0  0  0  0  0  # atno 8008 bound_to 7997
  155.4723  140.3465  155.4309 H   0  0  0  0  0  0  0  0  0  0  0  0  # atno 8009 bound_to 7997
  156.1039  140.1429  156.9418 H   0  0  0  0  0  0  0  0  0  0  0  0  # atno 8010 bound_to 7997
  139.5875  144.7012  151.3373 H   0  0  0  0  0  0  0  0  0  0  0  0  # atno 10167 bound_to 10162
  156.4399  130.8117  151.2346 H   0  0  0  0  0  0  0  0  0  0  0  0  # atno 10718 bound_to 10713
  154.8326  135.3381  154.6693 H   0  0  0  0  0  0  0  0  0  0  0  0  # atno 10763 bound_to 10752
  153.7311  135.6952  153.4993 H   0  0  0  0  0  0  0  0  0  0  0  0  # atno 10764 bound_to 10752
  153.2312  135.4416  155.0549 H   0  0  0  0  0  0  0  0  0  0  0  0  # atno 10765 bound_to 10752
  140.6996  133.9001  155.8674 H   0  0  0  0  0  0  0  0  0  0  0  0  # atno 11005 bound_to 11000
  146.2894  140.4335  142.8745 LP  0  0  0  0  0  0  0  0  0  0  0  0  # atno 17320 bound_to 7965
  144.8592  140.7114  143.6118 LP  0  0  0  0  0  0  0  0  0  0  0  0  # atno 17321 bound_to 7965
  140.7144  143.7305  150.7627 LP  0  0  0  0  0  0  0  0  0  0  0  0  # atno 17342 bound_to 10162
  140.0853  143.4929  152.2508 LP  0  0  0  0  0  0  0  0  0  0  0  0  # atno 17343 bound_to 10162
  157.7506  131.0171  150.3573 LP  0  0  0  0  0  0  0  0  0  0  0  0  # atno 17370 bound_to 10713
  156.3928  130.3901  149.7017 LP  0  0  0  0  0  0  0  0  0  0  0  0  # atno 17371 bound_to 10713
  141.0174  134.0936  157.4157 LP  0  0  0  0  0  0  0  0  0  0  0  0  # atno 17394 bound_to 11000
  139.8900  135.0109  156.6713 LP  0  0  0  0  0  0  0  0  0  0  0  0  # atno 17395 bound_to 11000

$$$$
