AV-unprocessed.smi:3264|AV-procd|sdf|12495|dock8
  -GOLD-   2272018393D 1   1.00000     0.00000
 Structure written by MMmdl.
 32 33  0  0  0  0  0  0  0  0  1 V2000
  152.7564  143.5218  162.3269 C   0  0  0  0  0  0  0  0  0  0  0  0
  152.8159  142.5290  161.2169 C   0  0  0  0  0  0  0  0  0  0  0  0
  151.8535  142.3828  160.3024 N   0  0  0  0  0  0  0  0  0  0  0  0
  152.1439  141.3811  159.3707 C   0  0  0  0  0  0  0  0  0  0  0  0
  151.1746  141.0801  158.2681 C   0  0  0  0  0  0  0  0  0  0  0  0
  150.8865  142.3085  157.3942 C   0  0  0  0  0  0  0  0  0  0  0  0
  149.8946  141.9898  156.3762 N   0  0  0  0  0  0  0  0  0  0  0  0
  150.0489  141.0584  155.4241 C   0  0  0  0  0  0  0  0  0  0  0  0
  151.0618  140.3663  155.3164 O   0  0  0  0  0  0  0  0  0  0  0  0
  148.8688  140.8782  154.4615 C   0  0  1  0  0  0  0  0  0  0  0  0
  147.5469  140.4517  155.1297 C   0  0  0  0  0  0  0  0  0  0  0  0
  146.6502  141.6628  154.9598 C   0  0  0  0  0  0  0  0  0  0  0  0
  147.2030  142.2885  153.6876 C   0  0  0  0  0  0  0  0  0  0  0  0
  148.6045  142.1364  153.8444 O   0  0  0  0  0  0  0  0  0  0  0  0
  153.3522  140.7690  159.5934 C   0  0  0  0  0  0  0  0  0  0  0  0
  154.1680  141.4277  160.9847 S   0  0  0  0  0  0  0  0  0  0  0  0
  151.8596  144.1370  162.2458 H   0  0  0  0  0  0  0  0  0  0  0  0
  153.6306  144.1720  162.2926 H   0  0  0  0  0  0  0  0  0  0  0  0
  152.7405  143.0056  163.2869 H   0  0  0  0  0  0  0  0  0  0  0  0
  151.5644  140.2754  157.6433 H   0  0  0  0  0  0  0  0  0  0  0  0
  150.2407  140.7052  158.6891 H   0  0  0  0  0  0  0  0  0  0  0  0
  150.5143  143.1312  158.0065 H   0  0  0  0  0  0  0  0  0  0  0  0
  151.8096  142.6492  156.9215 H   0  0  0  0  0  0  0  0  0  0  0  0
  149.0294  142.5101  156.3973 H   0  0  0  0  0  0  0  0  0  0  0  0
  149.1317  140.1546  153.6877 H   0  0  0  0  0  0  0  0  0  0  0  0
  147.1261  139.5997  154.5940 H   0  0  0  0  0  0  0  0  0  0  0  0
  147.6420  140.1579  156.1758 H   0  0  0  0  0  0  0  0  0  0  0  0
  145.5929  141.4071  154.8865 H   0  0  0  0  0  0  0  0  0  0  0  0
  146.7816  142.3475  155.7987 H   0  0  0  0  0  0  0  0  0  0  0  0
  146.8703  141.7405  152.8045 H   0  0  0  0  0  0  0  0  0  0  0  0
  146.9217  143.3355  153.5740 H   0  0  0  0  0  0  0  0  0  0  0  0
  153.8112  139.9739  159.0247 H   0  0  0  0  0  0  0  0  0  0  0  0
  1  2  1  0  0  0  0
  1 17  1  0  0  0  0
  1 18  1  0  0  0  0
  1 19  1  0  0  0  0
  2 16  1  0  0  0  0
  2  3  2  0  0  0  0
  3  4  1  0  0  0  0
  4  5  1  0  0  0  0
  4 15  2  0  0  0  0
  5  6  1  0  0  0  0
  5 20  1  0  0  0  0
  5 21  1  0  0  0  0
  6  7  1  0  0  0  0
  6 22  1  0  0  0  0
  6 23  1  0  0  0  0
  7  8  1  0  0  0  0
  7 24  1  0  0  0  0
  8  9  2  0  0  0  0
  8 10  1  0  0  0  0
 10 14  1  0  0  0  0
 10 11  1  0  0  0  0
 10 25  1  0  0  0  0
 11 12  1  0  0  0  0
 11 26  1  0  0  0  0
 11 27  1  0  0  0  0
 12 13  1  0  0  0  0
 12 28  1  0  0  0  0
 12 29  1  0  0  0  0
 13 14  1  0  0  0  0
 13 30  1  0  0  0  0
 13 31  1  0  0  0  0
 15 16  1  0  0  0  0
 15 32  1  0  0  0  0
M  END
> <s_m_source_file>
AV-unprocessed.smi

> <i_m_source_file_index>
3264

> <i_lp_mmshare_version>
43012

> <i_f3d_flags>
0

> <s_epik_input>
W0NIM11jMW5jKFtjSF1zMSlbQ0gyXVtDSDJdW05IXUMoPU8pW0NAQEhdMltDSDJdW0NIMl1bQ0gyXU8y

> <s_epik_cmdline>
J2VwaWtfcHl0aG9uJywgJy1waCcsICc3LjAnLCAnLXRuJywgJzgnLCAnLW1hJywgJzIwMCcsICctbWV0YWxfYmluZGluZycsICctaW1hZScsICc8aW5maWxlLm1hZT4nLCAnLW9tYWUnLCAnPG91dGZpbGUubWFlPic=

> <r_epik_Ionization_Penalty>
0.00112246

> <r_epik_Ionization_Penalty_Charging>
0

> <r_epik_Ionization_Penalty_Neutral>
0.00112246

> <r_epik_State_Penalty>
0.000737392

> <r_epik_Charging_Adjusted_Penalty>
0.000737392

> <i_epik_Tot_Q>
0

> <i_epik_Tot_abs_Q>
0

> <r_epik_Metal_State_Penalty>
-0

> <b_epik_Metal_Only>
0

> <s_lp_Force_Field>
OPLS_2005

> <r_lp_Energy>
13.6214

> <b_lp_Chiralities_Consistent>
1

> <s_lp_Variant>
AV-unprocessed.smi:3264-2

> <Gold.Version>
5.8.1

> <Gold.Id.Protein>
6NUR|6NUR_protein|mol2

> <Gold.PLP.Fitness>
39.8028

> <Gold.PLP.PLP>
-35.4874

> <Gold.PLP.part.hbond>
-3.4564

> <Gold.PLP.part.metal>
0.0000

> <Gold.PLP.part.buried>
-5.1848

> <Gold.PLP.part.nonpolar>
-26.3412

> <Gold.PLP.part.repulsive>
0.3477

> <Gold.PLP.ligand.clash>
0.0000

> <Gold.PLP.ligand.torsion>
0.0175

> <Gold.PLP.Chemscore.Hbond>
1.4466

> <Gold.PLP.Chemscore.CHOScore>
0.0000

> <Gold.PLP.Chemscore.Metal>
0.0000

> <Gold.Chemscore.Hbonds>
donor molecule, donor type, donor heavy atom, donor atom, acceptor molecule, acceptor atom, score
      L1  H     7    24       P1  8028  0.11
      P1  H  7989  7998       L1     9  1.00
      P1  H  8011  8017       L1    14  0.35

> <Gold.PLP.Chemscore.Internal.Correction>
0.0106

> <Gold.Rescore>
     Score         DG    S(hbond)    S(metal)    S(lipo)     H(rot)  DE(clash)    DE(int)     intcor
     14.03     -14.76       0.94        0.00      85.61       1.52       0.69       0.03       ----

> <Gold.Chemscore.Fitness>
14.0348

> <Gold.Chemscore.DG>
-14.7583

> <Gold.Chemscore.ZeroCoef>
-5.4800

> <Gold.Chemscore.Hbond>
0.9410

> <Gold.Chemscore.Metal>
0.0000

> <Gold.Chemscore.Lipo>
85.6069

> <Gold.Chemscore.Internal_Hbond>
0.0000

> <Gold.Chemscore.DEClash>
0.6947

> <Gold.Chemscore.DEInternal>
0.0288

> <Gold.Chemscore.Rot>
1.5159

> <Gold.Chemscore.Internal.Correction>
   9.000000E+99

> <Gold.Chemscore.Hbonds>
donor molecule, donor type, donor heavy atom, donor atom, acceptor molecule, acceptor atom, score
      L1  H     7    24       P1  8028  0.11
      P1  H  7989  7998       L1     9  0.24
      P1  H  8011  8017       L1    14  0.29

> <Gold.Chemscore.Hbond.Weighted>
-3.1429

> <Gold.Chemscore.Metal.Weighted>
-0.0000

> <Gold.Chemscore.Lipo.Weighted>
-10.0160

> <Gold.Chemscore.Internal_Hbond.Weighted>
0.0000

> <Gold.Chemscore.DEClash.Weighted>
0.6947

> <Gold.Chemscore.DEInternal.Weighted>
0.0288

> <Gold.Chemscore.Rot.Weighted>
3.8807

> <Gold.Chemscore.Internal.Correction.Weighted>
   9.000000E+99

> <Gold.Protein.RotatedTorsions>
[ 6907 6896 6895 6894 ] final   31.12 input  -60.11 | X-H torsion
[ 7974 7965 7964 7962 ] final   31.06 input  175.53 | X-H torsion
[ 8008 7997 7996 7995 ] final  -44.51 input   59.86 | X-H torsion
[ 10167 10162 10161 10158 ] final   96.85 input  -65.29 | X-H torsion
[ 10718 10713 10712 10709 ] final  -75.23 input   66.30 | X-H torsion
[ 10763 10752 10751 10750 ] final    3.39 input  -60.55 | X-H torsion
[ 11005 11000 10999 10996 ] final  -77.31 input  -57.11 | X-H torsion

> <Gold.Protein.ActiveResidues>
 VAL166  LYS551  ARG553  GLY616  TRP617  ASP618  TYR619  PRO620  LYS621  CYS622 
 ASP623  PHE694  ASN695  SER759  ASP760  ASP761  ALA762  ILE779  LEU786  VAL792 
 PHE793  MET794  SER795  GLU796  ALA797  LYS798  CYS799  TRP800  GLU811  SER814 

> <Gold.Protein.RotatedAtoms>
  152.0557  134.9625  160.0574 H   0  0  0  0  0  0  0  0  0  0  0  0  # atno 6907 bound_to 6896
  152.1009  133.4244  159.4595 H   0  0  0  0  0  0  0  0  0  0  0  0  # atno 6908 bound_to 6896
  150.6839  134.2681  159.4620 H   0  0  0  0  0  0  0  0  0  0  0  0  # atno 6909 bound_to 6896
  146.1574  139.6707  142.9057 H   0  0  0  0  0  0  0  0  0  0  0  0  # atno 7974 bound_to 7965
  154.3997  140.1420  156.3696 H   0  0  0  0  0  0  0  0  0  0  0  0  # atno 8008 bound_to 7997
  155.8105  140.3473  155.5434 H   0  0  0  0  0  0  0  0  0  0  0  0  # atno 8009 bound_to 7997
  155.8391  140.0924  157.1736 H   0  0  0  0  0  0  0  0  0  0  0  0  # atno 8010 bound_to 7997
  139.7856  144.6872  150.9963 H   0  0  0  0  0  0  0  0  0  0  0  0  # atno 10167 bound_to 10162
  156.0215  130.4436  150.3012 H   0  0  0  0  0  0  0  0  0  0  0  0  # atno 10718 bound_to 10713
  153.2839  135.6943  153.7359 H   0  0  0  0  0  0  0  0  0  0  0  0  # atno 10763 bound_to 10752
  153.6336  135.3406  155.3050 H   0  0  0  0  0  0  0  0  0  0  0  0  # atno 10764 bound_to 10752
  154.8503  135.4415  154.1900 H   0  0  0  0  0  0  0  0  0  0  0  0  # atno 10765 bound_to 10752
  141.1659  133.7018  156.7802 H   0  0  0  0  0  0  0  0  0  0  0  0  # atno 11005 bound_to 11000
  145.4675  141.0435  143.2717 LP  0  0  0  0  0  0  0  0  0  0  0  0  # atno 17320 bound_to 7965
  144.7981  139.6195  143.7084 LP  0  0  0  0  0  0  0  0  0  0  0  0  # atno 17321 bound_to 7965
  140.7819  143.4436  151.0515 LP  0  0  0  0  0  0  0  0  0  0  0  0  # atno 17342 bound_to 10162
  139.8115  143.7945  152.3171 LP  0  0  0  0  0  0  0  0  0  0  0  0  # atno 17343 bound_to 10162
  157.1114  131.0222  151.3046 LP  0  0  0  0  0  0  0  0  0  0  0  0  # atno 17370 bound_to 10713
  157.4701  130.7704  149.7315 LP  0  0  0  0  0  0  0  0  0  0  0  0  # atno 17371 bound_to 10713
  140.2400  134.8621  157.3564 LP  0  0  0  0  0  0  0  0  0  0  0  0  # atno 17394 bound_to 11000
  140.1805  134.4495  155.7775 LP  0  0  0  0  0  0  0  0  0  0  0  0  # atno 17395 bound_to 11000

$$$$
