AV-unprocessed.smi:1884|AV-procd|sdf|7646|dock2
  -GOLD-   22720 9373D 1   1.00000     0.00000
 Structure written by MMmdl.
 40 42  0  0  0  0  0  0  0  0  1 V2000
  150.8342  138.6028  157.9429 C   0  0  0  0  0  0  0  0  0  0  0  0
  151.1811  140.0176  158.2818 C   0  0  0  0  0  0  0  0  0  0  0  0
  152.1531  140.3255  159.1407 N   0  0  0  0  0  0  0  0  0  0  0  0
  152.1172  141.7066  159.1560 C   0  0  0  0  0  0  0  0  0  0  0  0
  152.9020  142.6380  159.8730 C   0  0  0  0  0  0  0  0  0  0  0  0
  152.6793  144.0227  159.7256 C   0  0  0  0  0  0  0  0  0  0  0  0
  151.6711  144.4954  158.8606 C   0  0  0  0  0  0  0  0  0  0  0  0
  150.8784  143.5848  158.1359 C   0  0  0  0  0  0  0  0  0  0  0  0
  151.1043  142.2034  158.2871 C   0  0  0  0  0  0  0  0  0  0  0  0
  150.5208  141.0672  157.7341 N   0  0  0  0  0  0  0  0  0  0  0  0
  149.4272  141.0343  156.7721 C   0  0  0  0  0  0  0  0  0  0  0  0
  149.7756  140.2364  155.4989 C   0  0  2  0  0  0  0  0  0  0  0  0
  151.0626  140.5985  155.0393 O   0  0  0  0  0  0  0  0  0  0  0  0
  148.7729  140.4787  154.3614 C   0  0  0  0  0  0  0  0  0  0  0  0
  147.4556  140.2511  154.8449 O   0  0  0  0  0  0  0  0  0  0  0  0
  146.5774  141.3133  154.8679 C   0  0  0  0  0  0  0  0  0  0  0  0
  146.7533  142.3109  153.8870 C   0  0  0  0  0  0  0  0  0  0  0  0
  145.9032  143.4324  153.8366 C   0  0  0  0  0  0  0  0  0  0  0  0
  144.8609  143.5692  154.7744 C   0  0  0  0  0  0  0  0  0  0  0  0
  143.9833  144.7267  154.7278 C   0  0  0  0  0  0  0  0  0  0  0  0
  143.2846  145.6482  154.6911 N   0  0  0  0  0  0  0  0  0  0  0  0
  144.6735  142.5788  155.7586 C   0  0  0  0  0  0  0  0  0  0  0  0
  145.5249  141.4577  155.8071 C   0  0  0  0  0  0  0  0  0  0  0  0
  151.4970  137.9117  158.4649 H   0  0  0  0  0  0  0  0  0  0  0  0
  150.9365  138.4317  156.8716 H   0  0  0  0  0  0  0  0  0  0  0  0
  149.8087  138.3839  158.2408 H   0  0  0  0  0  0  0  0  0  0  0  0
  153.6772  142.2862  160.5378 H   0  0  0  0  0  0  0  0  0  0  0  0
  153.2846  144.7256  160.2791 H   0  0  0  0  0  0  0  0  0  0  0  0
  151.5071  145.5577  158.7535 H   0  0  0  0  0  0  0  0  0  0  0  0
  150.1077  143.9444  157.4704 H   0  0  0  0  0  0  0  0  0  0  0  0
  148.5469  140.6119  157.2569 H   0  0  0  0  0  0  0  0  0  0  0  0
  149.1630  142.0604  156.5138 H   0  0  0  0  0  0  0  0  0  0  0  0
  149.8002  139.1703  155.7261 H   0  0  0  0  0  0  0  0  0  0  0  0
  151.7013  140.2845  155.6614 H   0  0  0  0  0  0  0  0  0  0  0  0
  148.8745  141.4974  153.9829 H   0  0  0  0  0  0  0  0  0  0  0  0
  148.9798  139.7900  153.5402 H   0  0  0  0  0  0  0  0  0  0  0  0
  147.5498  142.2150  153.1636 H   0  0  0  0  0  0  0  0  0  0  0  0
  146.0568  144.1842  153.0756 H   0  0  0  0  0  0  0  0  0  0  0  0
  143.8767  142.6725  156.4827 H   0  0  0  0  0  0  0  0  0  0  0  0
  145.3491  140.7225  156.5775 H   0  0  0  0  0  0  0  0  0  0  0  0
  1  2  1  0  0  0  0
  1 24  1  0  0  0  0
  1 25  1  0  0  0  0
  1 26  1  0  0  0  0
  2 10  1  0  0  0  0
  2  3  2  0  0  0  0
  3  4  1  0  0  0  0
  4  9  2  0  0  0  0
  4  5  1  0  0  0  0
  5  6  2  0  0  0  0
  5 27  1  0  0  0  0
  6  7  1  0  0  0  0
  6 28  1  0  0  0  0
  7  8  2  0  0  0  0
  7 29  1  0  0  0  0
  8  9  1  0  0  0  0
  8 30  1  0  0  0  0
  9 10  1  0  0  0  0
 10 11  1  0  0  0  0
 11 12  1  0  0  0  0
 11 31  1  0  0  0  0
 11 32  1  0  0  0  0
 12 13  1  0  0  0  0
 12 14  1  0  0  0  0
 12 33  1  0  0  0  0
 13 34  1  0  0  0  0
 14 15  1  0  0  0  0
 14 35  1  0  0  0  0
 14 36  1  0  0  0  0
 15 16  1  0  0  0  0
 16 23  1  0  0  0  0
 16 17  2  0  0  0  0
 17 18  1  0  0  0  0
 17 37  1  0  0  0  0
 18 19  2  0  0  0  0
 18 38  1  0  0  0  0
 19 20  1  0  0  0  0
 19 22  1  0  0  0  0
 20 21  3  0  0  0  0
 22 23  2  0  0  0  0
 22 39  1  0  0  0  0
 23 40  1  0  0  0  0
M  END
> <s_m_source_file>
AV-unprocessed.smi

> <i_m_source_file_index>
1884

> <i_lp_mmshare_version>
43012

> <i_f3d_flags>
0

> <s_epik_input>
W2NIXTFbY0hdW2NIXVtjSF1jKGMxMiluKGMobjIpW0NIM10pW0NIMl1bQ0BIXShbT0hdKVtDSDJdT2MzW2NIXVtjSF1jKEMjTilbY0hdW2NIXTM=

> <s_epik_cmdline>
J2VwaWtfcHl0aG9uJywgJy1waCcsICc3LjAnLCAnLXRuJywgJzgnLCAnLW1hJywgJzIwMCcsICctbWV0YWxfYmluZGluZycsICctaW1hZScsICc8aW5maWxlLm1hZT4nLCAnLW9tYWUnLCAnPG91dGZpbGUubWFlPic=

> <r_epik_Ionization_Penalty>
0.110799

> <r_epik_Ionization_Penalty_Charging>
0

> <r_epik_Ionization_Penalty_Neutral>
0.110799

> <r_epik_State_Penalty>
0.100537

> <r_epik_Charging_Adjusted_Penalty>
0.100537

> <i_epik_Tot_Q>
0

> <i_epik_Tot_abs_Q>
0

> <r_epik_Metal_State_Penalty>
0.000109561

> <b_epik_Metal_Only>
0

> <s_lp_Force_Field>
OPLS_2005

> <r_lp_Energy>
14.1942

> <b_lp_Chiralities_Consistent>
1

> <s_lp_Variant>
AV-unprocessed.smi:1884-1

> <Gold.Version>
5.8.1

> <Gold.Id.Protein>
6NUR|6NUR_protein|mol2

> <Gold.PLP.Fitness>
47.0642

> <Gold.PLP.PLP>
-45.7133

> <Gold.PLP.part.hbond>
-1.0000

> <Gold.PLP.part.metal>
0.0000

> <Gold.PLP.part.buried>
-7.7038

> <Gold.PLP.part.nonpolar>
-37.0868

> <Gold.PLP.part.repulsive>
0.1184

> <Gold.PLP.ligand.clash>
0.0000

> <Gold.PLP.ligand.torsion>
0.8920

> <Gold.PLP.Chemscore.Hbond>
1.0000

> <Gold.PLP.Chemscore.CHOScore>
0.0000

> <Gold.PLP.Chemscore.Metal>
0.0000

> <Gold.Chemscore.Hbonds>
donor molecule, donor type, donor heavy atom, donor atom, acceptor molecule, acceptor atom, score
      P1  H  7989  7998       L1    13  0.94

> <Gold.PLP.Chemscore.Internal.Correction>
0.1349

> <Gold.Rescore>
     Score         DG    S(hbond)    S(metal)    S(lipo)     H(rot)  DE(clash)    DE(int)     intcor
     15.73     -16.67       0.95        0.00     118.96       2.31       0.09       0.85       ----

> <Gold.Chemscore.Fitness>
15.7342

> <Gold.Chemscore.DG>
-16.6696

> <Gold.Chemscore.ZeroCoef>
-5.4800

> <Gold.Chemscore.Hbond>
0.9539

> <Gold.Chemscore.Metal>
0.0000

> <Gold.Chemscore.Lipo>
118.9564

> <Gold.Chemscore.Internal_Hbond>
0.0000

> <Gold.Chemscore.DEClash>
0.0893

> <Gold.Chemscore.DEInternal>
0.8461

> <Gold.Chemscore.Rot>
2.3102

> <Gold.Chemscore.Internal.Correction>
   9.000000E+99

> <Gold.Chemscore.Hbonds>
donor molecule, donor type, donor heavy atom, donor atom, acceptor molecule, acceptor atom, score
      P1  H  7989  7998       L1    13  0.82

> <Gold.Chemscore.Hbond.Weighted>
-3.1859

> <Gold.Chemscore.Metal.Weighted>
-0.0000

> <Gold.Chemscore.Lipo.Weighted>
-13.9179

> <Gold.Chemscore.Internal_Hbond.Weighted>
0.0000

> <Gold.Chemscore.DEClash.Weighted>
0.0893

> <Gold.Chemscore.DEInternal.Weighted>
0.8461

> <Gold.Chemscore.Rot.Weighted>
5.9141

> <Gold.Chemscore.Internal.Correction.Weighted>
   9.000000E+99

> <Gold.Protein.RotatedTorsions>
[ 6907 6896 6895 6894 ] final  133.83 input  -60.11 | X-H torsion
[ 7974 7965 7964 7962 ] final   64.55 input  175.53 | X-H torsion
[ 8008 7997 7996 7995 ] final -112.66 input   59.86 | X-H torsion
[ 10167 10162 10161 10158 ] final -145.47 input  -65.29 | X-H torsion
[ 10718 10713 10712 10709 ] final   27.03 input   66.30 | X-H torsion
[ 10763 10752 10751 10750 ] final  113.88 input  -60.55 | X-H torsion
[ 11005 11000 10999 10996 ] final -103.75 input  -57.11 | X-H torsion

> <Gold.Protein.ActiveResidues>
 VAL166  LYS551  ARG553  GLY616  TRP617  ASP618  TYR619  PRO620  LYS621  CYS622 
 ASP623  PHE694  ASN695  SER759  ASP760  ASP761  ALA762  ILE779  LEU786  VAL792 
 PHE793  MET794  SER795  GLU796  ALA797  LYS798  CYS799  TRP800  GLU811  SER814 

> <Gold.Protein.RotatedAtoms>
  152.3178  133.5821  159.5723 H   0  0  0  0  0  0  0  0  0  0  0  0  # atno 6907 bound_to 6896
  150.7356  134.0056  159.3661 H   0  0  0  0  0  0  0  0  0  0  0  0  # atno 6908 bound_to 6896
  151.7943  135.0727  160.0442 H   0  0  0  0  0  0  0  0  0  0  0  0  # atno 6909 bound_to 6896
  145.8489  139.3242  143.0887 H   0  0  0  0  0  0  0  0  0  0  0  0  # atno 7974 bound_to 7965
  155.0087  140.0393  157.2390 H   0  0  0  0  0  0  0  0  0  0  0  0  # atno 8008 bound_to 7997
  154.7479  140.2761  155.6294 H   0  0  0  0  0  0  0  0  0  0  0  0  # atno 8009 bound_to 7997
  156.2879  140.2652  156.2225 H   0  0  0  0  0  0  0  0  0  0  0  0  # atno 8010 bound_to 7997
  139.7802  143.8111  152.2637 H   0  0  0  0  0  0  0  0  0  0  0  0  # atno 10167 bound_to 10162
  157.2147  130.6951  149.6244 H   0  0  0  0  0  0  0  0  0  0  0  0  # atno 10718 bound_to 10713
  153.4991  135.3642  155.2530 H   0  0  0  0  0  0  0  0  0  0  0  0  # atno 10763 bound_to 10752
  154.8748  135.3995  154.3500 H   0  0  0  0  0  0  0  0  0  0  0  0  # atno 10764 bound_to 10752
  153.4133  135.7078  153.6410 H   0  0  0  0  0  0  0  0  0  0  0  0  # atno 10765 bound_to 10752
  141.1131  133.8666  157.1526 H   0  0  0  0  0  0  0  0  0  0  0  0  # atno 11005 bound_to 11000
  145.9380  140.9000  143.0322 LP  0  0  0  0  0  0  0  0  0  0  0  0  # atno 17320 bound_to 7965
  144.6730  140.1509  143.7430 LP  0  0  0  0  0  0  0  0  0  0  0  0  # atno 17321 bound_to 7965
  139.8172  144.7311  150.9620 LP  0  0  0  0  0  0  0  0  0  0  0  0  # atno 17342 bound_to 10162
  140.7818  143.4194  151.0866 LP  0  0  0  0  0  0  0  0  0  0  0  0  # atno 17343 bound_to 10162
  155.9687  130.4539  150.5831 LP  0  0  0  0  0  0  0  0  0  0  0  0  # atno 17370 bound_to 10713
  157.3636  131.0754  151.1616 LP  0  0  0  0  0  0  0  0  0  0  0  0  # atno 17371 bound_to 10713
  140.0037  135.0017  157.0246 LP  0  0  0  0  0  0  0  0  0  0  0  0  # atno 17394 bound_to 11000
  140.4720  134.1377  155.7204 LP  0  0  0  0  0  0  0  0  0  0  0  0  # atno 17395 bound_to 11000

$$$$
