AV-unprocessed.smi:2135|AV-procd|sdf|8699|dock6
  -GOLD-   2272011453D 1   1.00000     0.00000
 Structure written by MMmdl.
 42 43  0  0  0  0  0  0  0  0  1 V2000
  151.3184  137.4032  154.5338 C   0  0  0  0  0  0  0  0  0  0  0  0
  151.5942  139.1585  155.0102 S   0  0  0  0  0  0  0  0  0  0  0  0
  153.0174  139.4703  154.8077 O   0  0  0  0  0  0  0  0  0  0  0  0
  150.5671  139.9779  154.3492 O   0  0  0  0  0  0  0  0  0  0  0  0
  151.2791  139.1918  156.7216 N   0  0  0  0  0  0  0  0  0  0  0  0
  150.5904  138.0563  157.3677 C   0  0  0  0  0  0  0  0  0  0  0  0
  151.5786  137.1452  158.1169 C   0  0  0  0  0  0  0  0  0  0  0  0
  152.4356  137.9473  159.1030 C   0  0  0  0  0  0  0  0  0  0  0  0
  153.1685  139.0763  158.3564 C   0  0  2  0  0  0  0  0  0  0  0  0
  154.0290  139.9106  159.3143 C   0  0  0  0  0  0  0  0  0  0  0  0
  155.2577  139.8561  159.2538 O   0  0  0  0  0  0  0  0  0  0  0  0
  153.3704  140.6743  160.1997 N   0  0  0  0  0  0  0  0  0  0  0  0
  153.9998  141.5143  161.2111 C   0  0  0  0  0  0  0  0  0  0  0  0
  152.9996  142.5117  161.8181 C   0  0  0  0  0  0  0  0  0  0  0  0
  152.5815  143.5759  160.8234 C   0  0  0  0  0  0  0  0  0  0  0  0
  153.0940  143.5826  159.5099 C   0  0  0  0  0  0  0  0  0  0  0  0
  152.6775  144.5955  158.6249 C   0  0  0  0  0  0  0  0  0  0  0  0
  151.7640  145.5611  159.0929 C   0  0  0  0  0  0  0  0  0  0  0  0
  151.2671  145.5644  160.3487 N   0  0  0  0  0  0  0  0  0  0  0  0
  151.6711  144.5893  161.1910 C   0  0  0  0  0  0  0  0  0  0  0  0
  152.1515  139.9754  157.6198 C   0  0  0  0  0  0  0  0  0  0  0  0
  151.4822  137.2965  153.4618 H   0  0  0  0  0  0  0  0  0  0  0  0
  150.2949  137.1130  154.7647 H   0  0  0  0  0  0  0  0  0  0  0  0
  152.0186  136.7595  155.0626 H   0  0  0  0  0  0  0  0  0  0  0  0
  149.8580  138.4543  158.0708 H   0  0  0  0  0  0  0  0  0  0  0  0
  150.0288  137.4827  156.6307 H   0  0  0  0  0  0  0  0  0  0  0  0
  151.0295  136.3696  158.6514 H   0  0  0  0  0  0  0  0  0  0  0  0
  152.2237  136.6269  157.4088 H   0  0  0  0  0  0  0  0  0  0  0  0
  151.7981  138.3572  159.8881 H   0  0  0  0  0  0  0  0  0  0  0  0
  153.1514  137.2862  159.5934 H   0  0  0  0  0  0  0  0  0  0  0  0
  153.8310  138.6194  157.6212 H   0  0  0  0  0  0  0  0  0  0  0  0
  152.3609  140.6618  160.1808 H   0  0  0  0  0  0  0  0  0  0  0  0
  154.4438  140.8920  161.9900 H   0  0  0  0  0  0  0  0  0  0  0  0
  154.8209  142.0536  160.7379 H   0  0  0  0  0  0  0  0  0  0  0  0
  152.1129  141.9846  162.1730 H   0  0  0  0  0  0  0  0  0  0  0  0
  153.4341  143.0028  162.6898 H   0  0  0  0  0  0  0  0  0  0  0  0
  153.7949  142.8276  159.1850 H   0  0  0  0  0  0  0  0  0  0  0  0
  153.0495  144.6319  157.6116 H   0  0  0  0  0  0  0  0  0  0  0  0
  151.4242  146.3526  158.4414 H   0  0  0  0  0  0  0  0  0  0  0  0
  151.2582  144.6209  162.1886 H   0  0  0  0  0  0  0  0  0  0  0  0
  152.6668  140.7531  157.0561 H   0  0  0  0  0  0  0  0  0  0  0  0
  151.5168  140.4928  158.3409 H   0  0  0  0  0  0  0  0  0  0  0  0
  1  2  1  0  0  0  0
  1 22  1  0  0  0  0
  1 23  1  0  0  0  0
  1 24  1  0  0  0  0
  2  3  2  0  0  0  0
  2  4  2  0  0  0  0
  2  5  1  0  0  0  0
  5 21  1  0  0  0  0
  5  6  1  0  0  0  0
  6  7  1  0  0  0  0
  6 25  1  0  0  0  0
  6 26  1  0  0  0  0
  7  8  1  0  0  0  0
  7 27  1  0  0  0  0
  7 28  1  0  0  0  0
  8  9  1  0  0  0  0
  8 29  1  0  0  0  0
  8 30  1  0  0  0  0
  9 10  1  0  0  0  0
  9 21  1  0  0  0  0
  9 31  1  0  0  0  0
 10 11  2  0  0  0  0
 10 12  1  0  0  0  0
 12 13  1  0  0  0  0
 12 32  1  0  0  0  0
 13 14  1  0  0  0  0
 13 33  1  0  0  0  0
 13 34  1  0  0  0  0
 14 15  1  0  0  0  0
 14 35  1  0  0  0  0
 14 36  1  0  0  0  0
 15 20  1  0  0  0  0
 15 16  2  0  0  0  0
 16 17  1  0  0  0  0
 16 37  1  0  0  0  0
 17 18  2  0  0  0  0
 17 38  1  0  0  0  0
 18 19  1  0  0  0  0
 18 39  1  0  0  0  0
 19 20  2  0  0  0  0
 20 40  1  0  0  0  0
 21 41  1  0  0  0  0
 21 42  1  0  0  0  0
M  END
> <s_m_source_file>
AV-unprocessed.smi

> <i_m_source_file_index>
2135

> <i_lp_mmshare_version>
43012

> <i_f3d_flags>
0

> <s_epik_input>
W0NIM11TKD1PKSg9TylOMVtDSDJdW0NIMl1bQ0gyXVtDQEhdKFtDSDJdMSlDKD1PKVtOSF1bQ0gyXVtDSDJdYzJbY0hdW2NIXVtjSF1uW2NIXTI=

> <s_epik_cmdline>
J2VwaWtfcHl0aG9uJywgJy1waCcsICc3LjAnLCAnLXRuJywgJzgnLCAnLW1hJywgJzIwMCcsICctbWV0YWxfYmluZGluZycsICctaW1hZScsICc8aW5maWxlLm1hZT4nLCAnLW9tYWUnLCAnPG91dGZpbGUubWFlPic=

> <r_epik_Ionization_Penalty>
0.0134582

> <r_epik_Ionization_Penalty_Charging>
0

> <r_epik_Ionization_Penalty_Neutral>
0.0134582

> <r_epik_State_Penalty>
0.010475

> <r_epik_Charging_Adjusted_Penalty>
0.010475

> <i_epik_Tot_Q>
0

> <i_epik_Tot_abs_Q>
0

> <r_epik_Metal_State_Penalty>
0.0102416

> <b_epik_Metal_Only>
0

> <s_lp_Force_Field>
OPLS_2005

> <r_lp_Energy>
-1.59051

> <b_lp_Chiralities_Consistent>
1

> <s_lp_Variant>
AV-unprocessed.smi:2135-2

> <Gold.Version>
5.8.1

> <Gold.Id.Protein>
6NUR|6NUR_protein|mol2

> <Gold.PLP.Fitness>
52.7971

> <Gold.PLP.PLP>
-44.5549

> <Gold.PLP.part.hbond>
-3.9598

> <Gold.PLP.part.metal>
0.0000

> <Gold.PLP.part.buried>
-3.6347

> <Gold.PLP.part.nonpolar>
-37.6666

> <Gold.PLP.part.repulsive>
0.4628

> <Gold.PLP.ligand.clash>
0.0000

> <Gold.PLP.ligand.torsion>
1.4079

> <Gold.PLP.Chemscore.Hbond>
2.9913

> <Gold.PLP.Chemscore.CHOScore>
0.0000

> <Gold.PLP.Chemscore.Metal>
0.0000

> <Gold.Chemscore.Hbonds>
donor molecule, donor type, donor heavy atom, donor atom, acceptor molecule, acceptor atom, score
      P1  H  7989  7998       L1     4  0.75
      P1  H  7997  8008       L1     3  1.00
      P1  H  7997  8010       L1    11  0.90

> <Gold.PLP.Chemscore.Internal.Correction>
2.0843

> <Gold.Rescore>
     Score         DG    S(hbond)    S(metal)    S(lipo)     H(rot)  DE(clash)    DE(int)     intcor
     18.67     -21.19       1.82        0.00     116.55       1.56       0.17       2.35       ----

> <Gold.Chemscore.Fitness>
18.6684

> <Gold.Chemscore.DG>
-21.1868

> <Gold.Chemscore.ZeroCoef>
-5.4800

> <Gold.Chemscore.Hbond>
1.8189

> <Gold.Chemscore.Metal>
0.0000

> <Gold.Chemscore.Lipo>
116.5494

> <Gold.Chemscore.Internal_Hbond>
0.0000

> <Gold.Chemscore.DEClash>
0.1708

> <Gold.Chemscore.DEInternal>
2.3476

> <Gold.Chemscore.Rot>
1.5643

> <Gold.Chemscore.Internal.Correction>
   9.000000E+99

> <Gold.Chemscore.Hbonds>
donor molecule, donor type, donor heavy atom, donor atom, acceptor molecule, acceptor atom, score
      P1  H  7989  7998       L1     4  0.09
      P1  H  7997  8008       L1     3  0.99
      P1  H  7997  8010       L1    11  0.18

> <Gold.Chemscore.Hbond.Weighted>
-6.0751

> <Gold.Chemscore.Metal.Weighted>
-0.0000

> <Gold.Chemscore.Lipo.Weighted>
-13.6363

> <Gold.Chemscore.Internal_Hbond.Weighted>
0.0000

> <Gold.Chemscore.DEClash.Weighted>
0.1708

> <Gold.Chemscore.DEInternal.Weighted>
2.3476

> <Gold.Chemscore.Rot.Weighted>
4.0046

> <Gold.Chemscore.Internal.Correction.Weighted>
   9.000000E+99

> <Gold.Protein.RotatedTorsions>
[ 6907 6896 6895 6894 ] final  129.90 input  -60.11 | X-H torsion
[ 7974 7965 7964 7962 ] final  -87.32 input  175.53 | X-H torsion
[ 8008 7997 7996 7995 ] final  -18.90 input   59.86 | X-H torsion
[ 10167 10162 10161 10158 ] final   79.23 input  -65.29 | X-H torsion
[ 10718 10713 10712 10709 ] final  -37.57 input   66.30 | X-H torsion
[ 10763 10752 10751 10750 ] final   16.40 input  -60.55 | X-H torsion
[ 11005 11000 10999 10996 ] final   97.30 input  -57.11 | X-H torsion

> <Gold.Protein.ActiveResidues>
 VAL166  LYS551  ARG553  GLY616  TRP617  ASP618  TYR619  PRO620  LYS621  CYS622 
 ASP623  PHE694  ASN695  SER759  ASP760  ASP761  ALA762  ILE779  LEU786  VAL792 
 PHE793  MET794  SER795  GLU796  ALA797  LYS798  CYS799  TRP800  GLU811  SER814 

> <Gold.Protein.RotatedAtoms>
  152.3578  133.6259  159.5992 H   0  0  0  0  0  0  0  0  0  0  0  0  # atno 6907 bound_to 6896
  150.7581  133.9471  159.3483 H   0  0  0  0  0  0  0  0  0  0  0  0  # atno 6908 bound_to 6896
  151.7314  135.0875  160.0352 H   0  0  0  0  0  0  0  0  0  0  0  0  # atno 6909 bound_to 6896
  145.4680  140.9560  143.1932 H   0  0  0  0  0  0  0  0  0  0  0  0  # atno 7974 bound_to 7965
  154.4874  140.2103  155.9626 H   0  0  0  0  0  0  0  0  0  0  0  0  # atno 8008 bound_to 7997
  156.1255  140.3206  155.8240 H   0  0  0  0  0  0  0  0  0  0  0  0  # atno 8009 bound_to 7997
  155.4391  140.0509  157.3003 H   0  0  0  0  0  0  0  0  0  0  0  0  # atno 8010 bound_to 7997
  139.9625  144.5951  150.8059 H   0  0  0  0  0  0  0  0  0  0  0  0  # atno 10167 bound_to 10162
  156.3136  130.4256  149.8026 H   0  0  0  0  0  0  0  0  0  0  0  0  # atno 10718 bound_to 10713
  153.1434  135.6764  153.8991 H   0  0  0  0  0  0  0  0  0  0  0  0  # atno 10763 bound_to 10752
  153.8441  135.3101  155.3429 H   0  0  0  0  0  0  0  0  0  0  0  0  # atno 10764 bound_to 10752
  154.7806  135.4890  153.9921 H   0  0  0  0  0  0  0  0  0  0  0  0  # atno 10765 bound_to 10752
  139.8777  134.8994  156.4286 H   0  0  0  0  0  0  0  0  0  0  0  0  # atno 11005 bound_to 11000
  144.7962  139.6229  143.7091 LP  0  0  0  0  0  0  0  0  0  0  0  0  # atno 17320 bound_to 7965
  146.2413  139.6007  142.9489 LP  0  0  0  0  0  0  0  0  0  0  0  0  # atno 17321 bound_to 7965
  140.7548  143.3035  151.3021 LP  0  0  0  0  0  0  0  0  0  0  0  0  # atno 17342 bound_to 10162
  139.6543  144.0305  152.2649 LP  0  0  0  0  0  0  0  0  0  0  0  0  # atno 17343 bound_to 10162
  156.5360  130.8279  151.3253 LP  0  0  0  0  0  0  0  0  0  0  0  0  # atno 17370 bound_to 10713
  157.7396  130.9836  150.2328 LP  0  0  0  0  0  0  0  0  0  0  0  0  # atno 17371 bound_to 10713
  140.9083  133.7730  155.9761 LP  0  0  0  0  0  0  0  0  0  0  0  0  # atno 17394 bound_to 11000
  140.8575  134.2880  157.5249 LP  0  0  0  0  0  0  0  0  0  0  0  0  # atno 17395 bound_to 11000

$$$$
