AV-unprocessed.smi:1014|AV-procd|sdf|4430|dock6
  -GOLD-   22720 2383D 1   1.00000     0.00000
 Structure written by MMmdl.
 34 34  0  0  0  0  0  0  0  0  2 V2000
  146.9572  142.4611  154.2808 C   0  0  0  0  0  0  0  0  0  0  0  0
  147.9018  141.3467  153.8046 C   0  0  0  0  0  0  0  0  0  0  0  0
  148.8572  140.8060  154.8907 C   0  0  2  0  0  0  0  0  0  0  0  0
  149.7513  141.8985  155.3371 N   0  3  0  0  0  0  0  0  0  0  0  0
  150.4118  141.6855  156.6442 C   0  0  0  0  0  0  0  0  0  0  0  0
  151.2559  142.9025  157.0558 C   0  0  0  0  0  0  0  0  0  0  0  0
  151.7534  142.7934  158.4155 N   0  0  0  0  0  0  0  0  0  0  0  0
  151.5958  143.6805  159.4593 C   0  0  0  0  0  0  0  0  0  0  0  0
  152.2418  143.1583  160.5440 C   0  0  0  0  0  0  0  0  0  0  0  0
  152.3721  143.7314  161.9258 C   0  0  0  0  0  0  0  0  0  0  0  0
  152.7697  141.9298  160.0551 C   0  0  0  0  0  0  0  0  0  0  0  0
  152.4775  141.7148  158.7826 N   0  0  0  0  0  0  0  0  0  0  0  0
  149.6691  139.6051  154.3783 C   0  0  0  0  0  0  0  0  0  0  0  0
  149.0049  138.6552  153.7147 N   0  0  0  0  0  0  0  0  0  0  0  0
  150.8815  139.5401  154.5729 O   0  0  0  0  0  0  0  0  0  0  0  0
  146.3622  142.8414  153.4500 H   0  0  0  0  0  0  0  0  0  0  0  0
  147.5163  143.2992  154.6973 H   0  0  0  0  0  0  0  0  0  0  0  0
  146.2622  142.1069  155.0421 H   0  0  0  0  0  0  0  0  0  0  0  0
  147.3136  140.5300  153.3830 H   0  0  0  0  0  0  0  0  0  0  0  0
  148.4952  141.7419  152.9788 H   0  0  0  0  0  0  0  0  0  0  0  0
  148.2559  140.4955  155.7472 H   0  0  0  0  0  0  0  0  0  0  0  0
  150.4558  142.0491  154.6286 H   0  0  0  0  0  0  0  0  0  0  0  0
  149.6611  141.4799  157.4087 H   0  0  0  0  0  0  0  0  0  0  0  0
  151.0536  140.8061  156.5830 H   0  0  0  0  0  0  0  0  0  0  0  0
  152.1137  142.9971  156.3887 H   0  0  0  0  0  0  0  0  0  0  0  0
  150.6819  143.8254  156.9569 H   0  0  0  0  0  0  0  0  0  0  0  0
  151.0431  144.6015  159.3460 H   0  0  0  0  0  0  0  0  0  0  0  0
  152.4452  142.9496  162.6821 H   0  0  0  0  0  0  0  0  0  0  0  0
  151.5155  144.3523  162.1898 H   0  0  0  0  0  0  0  0  0  0  0  0
  153.2618  144.3542  162.0195 H   0  0  0  0  0  0  0  0  0  0  0  0
  153.3545  141.1924  160.5848 H   0  0  0  0  0  0  0  0  0  0  0  0
  149.4926  137.8430  153.3650 H   0  0  0  0  0  0  0  0  0  0  0  0
  148.0095  138.7490  153.5705 H   0  0  0  0  0  0  0  0  0  0  0  0
  149.1961  142.7387  155.4177 H   0  0  0  0  0  0  0  0  0  0  0  0
  1  2  1  0  0  0  0
  1 16  1  0  0  0  0
  1 17  1  0  0  0  0
  1 18  1  0  0  0  0
  2  3  1  0  0  0  0
  2 19  1  0  0  0  0
  2 20  1  0  0  0  0
  3  4  1  0  0  0  0
  3 13  1  0  0  0  0
  3 21  1  0  0  0  0
  4  5  1  0  0  0  0
  4 22  1  0  0  0  0
  4 34  1  0  0  0  0
  5  6  1  0  0  0  0
  5 23  1  0  0  0  0
  5 24  1  0  0  0  0
  6  7  1  0  0  0  0
  6 25  1  0  0  0  0
  6 26  1  0  0  0  0
  7 12  1  0  0  0  0
  7  8  1  0  0  0  0
  8  9  2  0  0  0  0
  8 27  1  0  0  0  0
  9 10  1  0  0  0  0
  9 11  1  0  0  0  0
 10 28  1  0  0  0  0
 10 29  1  0  0  0  0
 10 30  1  0  0  0  0
 11 12  2  0  0  0  0
 11 31  1  0  0  0  0
 13 14  1  0  0  0  0
 13 15  2  0  0  0  0
 14 32  1  0  0  0  0
 14 33  1  0  0  0  0
M  CHG  1   4   1
M  END
> <s_m_source_file>
AV-unprocessed.smi

> <i_m_source_file_index>
1014

> <i_lp_mmshare_version>
43012

> <i_f3d_flags>
0

> <s_epik_input>
W0NIM11bQ0gyXVtDQEBIXShDKD1PKVtOSDJdKVtOSF1bQ0gyXVtDSDJdbjFbY0hdYyhbQ0gzXSlbY0hdbjE=

> <s_epik_cmdline>
J2VwaWtfcHl0aG9uJywgJy1waCcsICc3LjAnLCAnLXRuJywgJzgnLCAnLW1hJywgJzIwMCcsICctbWV0YWxfYmluZGluZycsICctaW1hZScsICc8aW5maWxlLm1hZT4nLCAnLW9tYWUnLCAnPG91dGZpbGUubWFlPic=

> <r_lp_tautomer_probability>
1

> <r_epik_Ionization_Penalty>
0.19042

> <r_epik_Ionization_Penalty_Charging>
0.190412

> <r_epik_Ionization_Penalty_Neutral>
7.5834e-06

> <r_epik_State_Penalty>
0.180404

> <r_epik_Charging_Adjusted_Penalty>
0.370816

> <i_epik_Tot_Q>
1

> <i_epik_Tot_abs_Q>
1

> <r_epik_Metal_State_Penalty>
0.180563

> <b_epik_Metal_Only>
0

> <s_lp_Force_Field>
OPLS_2005

> <r_lp_Energy>
2.67467

> <b_lp_Chiralities_Consistent>
1

> <s_lp_Variant>
AV-unprocessed.smi:1014-1

> <Gold.Version>
5.8.1

> <Gold.Id.Protein>
6NUR|6NUR_protein|mol2

> <Gold.PLP.Fitness>
47.6260

> <Gold.PLP.PLP>
-38.3286

> <Gold.PLP.part.hbond>
-4.0000

> <Gold.PLP.part.metal>
0.0000

> <Gold.PLP.part.buried>
-3.6024

> <Gold.PLP.part.nonpolar>
-30.5030

> <Gold.PLP.part.repulsive>
0.3739

> <Gold.PLP.ligand.clash>
0.0000

> <Gold.PLP.ligand.torsion>
0.4937

> <Gold.PLP.Chemscore.Hbond>
3.3978

> <Gold.PLP.Chemscore.CHOScore>
0.0000

> <Gold.PLP.Chemscore.Metal>
0.0000

> <Gold.Chemscore.Hbonds>
donor molecule, donor type, donor heavy atom, donor atom, acceptor molecule, acceptor atom, score
      L1  H     4    34       P1  8028  2.00
      L1  H    14    32       P1  7948  0.34
      P1  H  7989  7998       L1    15  1.00

> <Gold.PLP.Chemscore.Internal.Correction>
0.0913

> <Gold.Rescore>
     Score         DG    S(hbond)    S(metal)    S(lipo)     H(rot)  DE(clash)    DE(int)     intcor
     16.68     -17.57       2.61        0.00      85.38       2.59       0.62       0.26       ----

> <Gold.Chemscore.Fitness>
16.6846

> <Gold.Chemscore.DG>
-17.5653

> <Gold.Chemscore.ZeroCoef>
-5.4800

> <Gold.Chemscore.Hbond>
2.6108

> <Gold.Chemscore.Metal>
0.0000

> <Gold.Chemscore.Lipo>
85.3832

> <Gold.Chemscore.Internal_Hbond>
0.0000

> <Gold.Chemscore.DEClash>
0.6194

> <Gold.Chemscore.DEInternal>
0.2613

> <Gold.Chemscore.Rot>
2.5878

> <Gold.Chemscore.Internal.Correction>
   9.000000E+99

> <Gold.Chemscore.Hbonds>
donor molecule, donor type, donor heavy atom, donor atom, acceptor molecule, acceptor atom, score
      L1  H     4    34       P1  8028  0.93
      L1  H    14    32       P1  7948  0.30
      P1  H  7989  7998       L1    15  0.55

> <Gold.Chemscore.Hbond.Weighted>
-8.7202

> <Gold.Chemscore.Metal.Weighted>
-0.0000

> <Gold.Chemscore.Lipo.Weighted>
-9.9898

> <Gold.Chemscore.Internal_Hbond.Weighted>
0.0000

> <Gold.Chemscore.DEClash.Weighted>
0.6194

> <Gold.Chemscore.DEInternal.Weighted>
0.2613

> <Gold.Chemscore.Rot.Weighted>
6.6247

> <Gold.Chemscore.Internal.Correction.Weighted>
   9.000000E+99

> <Gold.Protein.RotatedTorsions>
[ 6907 6896 6895 6894 ] final  -38.08 input  -60.11 | X-H torsion
[ 7974 7965 7964 7962 ] final  164.37 input  175.53 | X-H torsion
[ 8008 7997 7996 7995 ] final -113.62 input   59.86 | X-H torsion
[ 10167 10162 10161 10158 ] final  107.96 input  -65.29 | X-H torsion
[ 10718 10713 10712 10709 ] final  -83.28 input   66.30 | X-H torsion
[ 10763 10752 10751 10750 ] final  -82.25 input  -60.55 | X-H torsion
[ 11005 11000 10999 10996 ] final  -29.27 input  -57.11 | X-H torsion

> <Gold.Protein.ActiveResidues>
 VAL166  LYS551  ARG553  GLY616  TRP617  ASP618  TYR619  PRO620  LYS621  CYS622 
 ASP623  PHE694  ASN695  SER759  ASP760  ASP761  ALA762  ILE779  LEU786  VAL792 
 PHE793  MET794  SER795  GLU796  ALA797  LYS798  CYS799  TRP800  GLU811  SER814 

> <Gold.Protein.RotatedAtoms>
  151.0068  134.9365  159.7984 H   0  0  0  0  0  0  0  0  0  0  0  0  # atno 6907 bound_to 6896
  152.5292  134.3081  159.9113 H   0  0  0  0  0  0  0  0  0  0  0  0  # atno 6908 bound_to 6896
  151.3087  133.4048  159.2679 H   0  0  0  0  0  0  0  0  0  0  0  0  # atno 6909 bound_to 6896
  144.7548  139.8316  143.6353 H   0  0  0  0  0  0  0  0  0  0  0  0  # atno 7974 bound_to 7965
  155.0235  140.0393  157.2446 H   0  0  0  0  0  0  0  0  0  0  0  0  # atno 8008 bound_to 7997
  154.7357  140.2739  155.6393 H   0  0  0  0  0  0  0  0  0  0  0  0  # atno 8009 bound_to 7997
  156.2852  140.2675  156.2070 H   0  0  0  0  0  0  0  0  0  0  0  0  # atno 8010 bound_to 7997
  139.6885  144.7110  151.1390 H   0  0  0  0  0  0  0  0  0  0  0  0  # atno 10167 bound_to 10162
  156.0020  130.4660  150.4233 H   0  0  0  0  0  0  0  0  0  0  0  0  # atno 10718 bound_to 10713
  154.5735  135.5598  153.7117 H   0  0  0  0  0  0  0  0  0  0  0  0  # atno 10763 bound_to 10752
  153.0056  135.6302  154.2082 H   0  0  0  0  0  0  0  0  0  0  0  0  # atno 10764 bound_to 10752
  154.2022  135.2877  155.2967 H   0  0  0  0  0  0  0  0  0  0  0  0  # atno 10765 bound_to 10752
  140.9281  133.7355  156.0897 H   0  0  0  0  0  0  0  0  0  0  0  0  # atno 11005 bound_to 11000
  146.1545  139.4638  143.0028 LP  0  0  0  0  0  0  0  0  0  0  0  0  # atno 17320 bound_to 7965
  145.6817  141.0189  143.1603 LP  0  0  0  0  0  0  0  0  0  0  0  0  # atno 17321 bound_to 7965
  140.7675  143.5594  150.9116 LP  0  0  0  0  0  0  0  0  0  0  0  0  # atno 17342 bound_to 10162
  139.9270  143.6538  152.3084 LP  0  0  0  0  0  0  0  0  0  0  0  0  # atno 17343 bound_to 10162
  157.2288  131.0499  151.2504 LP  0  0  0  0  0  0  0  0  0  0  0  0  # atno 17370 bound_to 10713
  157.3731  130.7191  149.6578 LP  0  0  0  0  0  0  0  0  0  0  0  0  # atno 17371 bound_to 10713
  140.7898  134.3630  157.5467 LP  0  0  0  0  0  0  0  0  0  0  0  0  # atno 17394 bound_to 11000
  139.8790  134.9133  156.3081 LP  0  0  0  0  0  0  0  0  0  0  0  0  # atno 17395 bound_to 11000

$$$$
