AV-unprocessed.smi:2324|AV-procd|sdf|9292|dock8
  -GOLD-   2272012513D 1   1.00000     0.00000
 Structure written by MMmdl.
 37 39  0  0  0  0  0  0  0  0  1 V2000
  151.1526  134.7989  155.4967 O   0  0  0  0  0  0  0  0  0  0  0  0
  150.4958  135.1466  154.5167 C   0  0  0  0  0  0  0  0  0  0  0  0
  149.9727  134.2322  153.6720 N   0  0  0  0  0  0  0  0  0  0  0  0
  150.0180  132.8074  153.6745 C   0  0  0  0  0  0  0  0  0  0  0  0
  151.0645  132.2521  154.4418 C   0  0  0  0  0  0  0  0  0  0  0  0
  151.1831  130.8530  154.5007 C   0  0  0  0  0  0  0  0  0  0  0  0
  150.2397  130.0968  153.7852 C   0  0  0  0  0  0  0  0  0  0  0  0
  149.2512  130.6679  153.0637 N   0  0  0  0  0  0  0  0  0  0  0  0
  149.1465  132.0001  153.0127 N   0  0  0  0  0  0  0  0  0  0  0  0
  150.2628  136.4359  154.2202 N   0  0  0  0  0  0  0  0  0  0  0  0
  150.7399  137.5836  154.9850 C   0  0  1  0  0  0  0  0  0  0  0  0
  152.1358  138.0181  154.5075 C   0  0  0  0  0  0  0  0  0  0  0  0
  152.5620  139.3240  155.1959 C   0  0  0  0  0  0  0  0  0  0  0  0
  151.5892  140.3372  154.9635 O   0  0  0  0  0  0  0  0  0  0  0  0
  150.3113  140.0230  155.5087 C   0  0  1  0  0  0  0  0  0  0  0  0
  149.4038  141.2187  155.2982 C   0  0  0  0  0  0  0  0  0  0  0  0
  147.9637  141.1855  155.7540 C   0  0  0  0  0  0  0  0  0  0  0  0
  148.2886  141.1725  154.2797 C   0  0  0  0  0  0  0  0  0  0  0  0
  149.7608  138.7563  154.8273 C   0  0  0  0  0  0  0  0  0  0  0  0
  149.4547  134.6289  152.9016 H   0  0  0  0  0  0  0  0  0  0  0  0
  151.7636  132.8812  154.9736 H   0  0  0  0  0  0  0  0  0  0  0  0
  151.9664  130.3781  155.0726 H   0  0  0  0  0  0  0  0  0  0  0  0
  150.2761  129.0176  153.7915 H   0  0  0  0  0  0  0  0  0  0  0  0
  149.7128  136.6359  153.3965 H   0  0  0  0  0  0  0  0  0  0  0  0
  150.7896  137.3181  156.0428 H   0  0  0  0  0  0  0  0  0  0  0  0
  152.8692  137.2362  154.7080 H   0  0  0  0  0  0  0  0  0  0  0  0
  152.1277  138.1696  153.4271 H   0  0  0  0  0  0  0  0  0  0  0  0
  152.6965  139.1724  156.2680 H   0  0  0  0  0  0  0  0  0  0  0  0
  153.5203  139.6600  154.8002 H   0  0  0  0  0  0  0  0  0  0  0  0
  150.4126  139.8494  156.5817 H   0  0  0  0  0  0  0  0  0  0  0  0
  149.9109  142.1764  155.4014 H   0  0  0  0  0  0  0  0  0  0  0  0
  147.5922  140.2623  156.1946 H   0  0  0  0  0  0  0  0  0  0  0  0
  147.5478  142.1008  156.1702 H   0  0  0  0  0  0  0  0  0  0  0  0
  148.0901  142.0793  153.7120 H   0  0  0  0  0  0  0  0  0  0  0  0
  148.1327  140.2406  153.7397 H   0  0  0  0  0  0  0  0  0  0  0  0
  149.5934  138.9578  153.7678 H   0  0  0  0  0  0  0  0  0  0  0  0
  148.7908  138.4939  155.2515 H   0  0  0  0  0  0  0  0  0  0  0  0
  1  2  2  0  0  0  0
  2  3  1  0  0  0  0
  2 10  1  0  0  0  0
  3  4  1  0  0  0  0
  3 20  1  0  0  0  0
  4  9  1  0  0  0  0
  4  5  2  0  0  0  0
  5  6  1  0  0  0  0
  5 21  1  0  0  0  0
  6  7  2  0  0  0  0
  6 22  1  0  0  0  0
  7  8  1  0  0  0  0
  7 23  1  0  0  0  0
  8  9  2  0  0  0  0
 10 11  1  0  0  0  0
 10 24  1  0  0  0  0
 11 19  1  0  0  0  0
 11 12  1  0  0  0  0
 11 25  1  0  0  0  0
 12 13  1  0  0  0  0
 12 26  1  0  0  0  0
 12 27  1  0  0  0  0
 13 14  1  0  0  0  0
 13 28  1  0  0  0  0
 13 29  1  0  0  0  0
 14 15  1  0  0  0  0
 15 16  1  0  0  0  0
 15 19  1  0  0  0  0
 15 30  1  0  0  0  0
 16 18  1  0  0  0  0
 16 17  1  0  0  0  0
 16 31  1  0  0  0  0
 17 18  1  0  0  0  0
 17 32  1  0  0  0  0
 17 33  1  0  0  0  0
 18 34  1  0  0  0  0
 18 35  1  0  0  0  0
 19 36  1  0  0  0  0
 19 37  1  0  0  0  0
M  END
> <s_m_source_file>
AV-unprocessed.smi

> <i_m_source_file_index>
2324

> <i_lp_mmshare_version>
43012

> <i_f3d_flags>
0

> <s_epik_input>
bjFuW2NIXVtjSF1bY0hdYzFbTkhdQyg9TylbTkhdW0NAQEhdMltDSDJdW0NIMl1PW0NASF0oW0NIMl0yKVtDSF0zW0NIMl1bQ0gyXTM=

> <s_epik_cmdline>
J2VwaWtfcHl0aG9uJywgJy1waCcsICc3LjAnLCAnLXRuJywgJzgnLCAnLW1hJywgJzIwMCcsICctbWV0YWxfYmluZGluZycsICctaW1hZScsICc8aW5maWxlLm1hZT4nLCAnLW9tYWUnLCAnPG91dGZpbGUubWFlPic=

> <r_lp_tautomer_probability>
1

> <r_epik_Ionization_Penalty>
0.00521499

> <r_epik_Ionization_Penalty_Charging>
0

> <r_epik_Ionization_Penalty_Neutral>
0.00521499

> <r_epik_State_Penalty>
-0

> <r_epik_Charging_Adjusted_Penalty>
0

> <i_epik_Tot_Q>
0

> <i_epik_Tot_abs_Q>
0

> <r_epik_Metal_State_Penalty>
-0

> <b_epik_Metal_Only>
0

> <s_lp_Force_Field>
OPLS_2005

> <r_lp_Energy>
26.0147

> <b_lp_Chiralities_Consistent>
1

> <s_lp_Variant>
AV-unprocessed.smi:2324-2

> <Gold.Version>
5.8.1

> <Gold.Id.Protein>
6NUR|6NUR_protein|mol2

> <Gold.PLP.Fitness>
41.1676

> <Gold.PLP.PLP>
-34.2609

> <Gold.PLP.part.hbond>
-3.2632

> <Gold.PLP.part.metal>
0.0000

> <Gold.PLP.part.buried>
-3.1261

> <Gold.PLP.part.nonpolar>
-29.2372

> <Gold.PLP.part.repulsive>
0.3623

> <Gold.PLP.ligand.clash>
0.0000

> <Gold.PLP.ligand.torsion>
1.1383

> <Gold.PLP.Chemscore.Hbond>
2.7040

> <Gold.PLP.Chemscore.CHOScore>
0.0000

> <Gold.PLP.Chemscore.Metal>
0.0000

> <Gold.Chemscore.Hbonds>
donor molecule, donor type, donor heavy atom, donor atom, acceptor molecule, acceptor atom, score
      L1  H    10    24       P1  7948  1.00
      P1  H  7989  7998       L1    14  0.94

> <Gold.PLP.Chemscore.Internal.Correction>
1.0712

> <Gold.Rescore>
     Score         DG    S(hbond)    S(metal)    S(lipo)     H(rot)  DE(clash)    DE(int)     intcor
     14.39     -17.10       2.20        0.00      63.85       1.25       0.05       2.67       ----

> <Gold.Chemscore.Fitness>
14.3891

> <Gold.Chemscore.DG>
-17.1036

> <Gold.Chemscore.ZeroCoef>
-5.4800

> <Gold.Chemscore.Hbond>
2.1996

> <Gold.Chemscore.Metal>
0.0000

> <Gold.Chemscore.Lipo>
63.8524

> <Gold.Chemscore.Internal_Hbond>
0.0000

> <Gold.Chemscore.DEClash>
0.0456

> <Gold.Chemscore.DEInternal>
2.6689

> <Gold.Chemscore.Rot>
1.2476

> <Gold.Chemscore.Internal.Correction>
   9.000000E+99

> <Gold.Chemscore.Hbonds>
donor molecule, donor type, donor heavy atom, donor atom, acceptor molecule, acceptor atom, score
      L1  H    10    24       P1  7948  0.43
      P1  H  7989  7998       L1    14  0.68

> <Gold.Chemscore.Hbond.Weighted>
-7.3466

> <Gold.Chemscore.Metal.Weighted>
-0.0000

> <Gold.Chemscore.Lipo.Weighted>
-7.4707

> <Gold.Chemscore.Internal_Hbond.Weighted>
0.0000

> <Gold.Chemscore.DEClash.Weighted>
0.0456

> <Gold.Chemscore.DEInternal.Weighted>
2.6689

> <Gold.Chemscore.Rot.Weighted>
3.1938

> <Gold.Chemscore.Internal.Correction.Weighted>
   9.000000E+99

> <Gold.Protein.RotatedTorsions>
[ 6907 6896 6895 6894 ] final -114.47 input  -60.11 | X-H torsion
[ 7974 7965 7964 7962 ] final  172.48 input  175.53 | X-H torsion
[ 8008 7997 7996 7995 ] final   94.15 input   59.86 | X-H torsion
[ 10167 10162 10161 10158 ] final  -89.02 input  -65.29 | X-H torsion
[ 10718 10713 10712 10709 ] final   15.54 input   66.30 | X-H torsion
[ 10763 10752 10751 10750 ] final  126.40 input  -60.55 | X-H torsion
[ 11005 11000 10999 10996 ] final  119.74 input  -57.11 | X-H torsion

> <Gold.Protein.ActiveResidues>
 VAL166  LYS551  ARG553  GLY616  TRP617  ASP618  TYR619  PRO620  LYS621  CYS622 
 ASP623  PHE694  ASN695  SER759  ASP760  ASP761  ALA762  ILE779  LEU786  VAL792 
 PHE793  MET794  SER795  GLU796  ALA797  LYS798  CYS799  TRP800  GLU811  SER814 

> <Gold.Protein.RotatedAtoms>
  150.7904  133.8797  159.3282 H   0  0  0  0  0  0  0  0  0  0  0  0  # atno 6907 bound_to 6896
  151.6636  135.0984  160.0194 H   0  0  0  0  0  0  0  0  0  0  0  0  # atno 6908 bound_to 6896
  152.3977  133.6733  159.6325 H   0  0  0  0  0  0  0  0  0  0  0  0  # atno 6909 bound_to 6896
  144.7267  139.9505  143.6432 H   0  0  0  0  0  0  0  0  0  0  0  0  # atno 7974 bound_to 7965
  156.0547  140.3303  155.7392 H   0  0  0  0  0  0  0  0  0  0  0  0  # atno 8008 bound_to 7997
  155.5547  140.0613  157.2860 H   0  0  0  0  0  0  0  0  0  0  0  0  # atno 8009 bound_to 7997
  154.4452  140.1888  156.0710 H   0  0  0  0  0  0  0  0  0  0  0  0  # atno 8010 bound_to 7997
  140.3689  143.2804  151.9524 H   0  0  0  0  0  0  0  0  0  0  0  0  # atno 10167 bound_to 10162
  157.0549  130.6285  149.5775 H   0  0  0  0  0  0  0  0  0  0  0  0  # atno 10718 bound_to 10713
  153.6927  135.3296  155.3206 H   0  0  0  0  0  0  0  0  0  0  0  0  # atno 10763 bound_to 10752
  154.8435  135.4435  154.1492 H   0  0  0  0  0  0  0  0  0  0  0  0  # atno 10764 bound_to 10752
  153.2538  135.6984  153.7729 H   0  0  0  0  0  0  0  0  0  0  0  0  # atno 10765 bound_to 10752
  139.9158  134.9630  156.7700 H   0  0  0  0  0  0  0  0  0  0  0  0  # atno 11005 bound_to 11000
  146.0715  139.3704  143.0520 LP  0  0  0  0  0  0  0  0  0  0  0  0  # atno 17320 bound_to 7965
  145.7962  140.9792  143.1023 LP  0  0  0  0  0  0  0  0  0  0  0  0  # atno 17321 bound_to 7965
  139.4806  144.5925  151.7748 LP  0  0  0  0  0  0  0  0  0  0  0  0  # atno 17342 bound_to 10162
  140.5053  144.1108  150.5981 LP  0  0  0  0  0  0  0  0  0  0  0  0  # atno 17343 bound_to 10162
  155.9996  130.5072  150.7613 LP  0  0  0  0  0  0  0  0  0  0  0  0  # atno 17370 bound_to 10713
  157.5000  131.0918  151.0325 LP  0  0  0  0  0  0  0  0  0  0  0  0  # atno 17371 bound_to 10713
  140.6628  133.9629  155.7814 LP  0  0  0  0  0  0  0  0  0  0  0  0  # atno 17394 bound_to 11000
  141.0631  134.0316  157.3631 LP  0  0  0  0  0  0  0  0  0  0  0  0  # atno 17395 bound_to 11000

$$$$
