AV-unprocessed.smi:1244|AV-procd|sdf|5225|dock5
  -GOLD-   22720 4323D 1   1.00000     0.00000
 Structure written by MMmdl.
 55 57  0  0  0  0  0  0  0  0  2 V2000
  144.4427  132.5543  149.6252 C   0  0  0  0  0  0  0  0  0  0  0  0
  145.6544  131.9262  150.3223 C   0  0  1  0  0  0  0  0  0  0  0  0
  146.3097  132.8899  151.3294 C   0  0  0  0  0  0  0  0  0  0  0  0
  147.4311  132.2236  152.0325 N   0  3  1  0  0  0  0  0  0  0  0  0
  148.1317  133.1317  152.9737 C   0  0  0  0  0  0  0  0  0  0  0  0
  147.1521  134.0135  153.7697 C   0  0  0  0  0  0  0  0  0  0  0  0
  147.6297  135.3885  153.8564 N   0  0  0  0  0  0  0  0  0  0  0  0
  148.8058  135.7567  154.3832 C   0  0  0  0  0  0  0  0  0  0  0  0
  149.6203  134.9571  154.8438 O   0  0  0  0  0  0  0  0  0  0  0  0
  148.9672  137.0894  154.3270 N   0  0  0  0  0  0  0  0  0  0  0  0
  150.0960  137.8648  154.7184 C   0  0  0  0  0  0  0  0  0  0  0  0
  151.2942  137.2631  155.1768 C   0  0  0  0  0  0  0  0  0  0  0  0
  152.3540  138.0771  155.6118 C   0  0  0  0  0  0  0  0  0  0  0  0
  152.1741  139.4697  155.5906 C   0  0  0  0  0  0  0  0  0  0  0  0
  151.0361  140.0580  155.1726 N   0  0  0  0  0  0  0  0  0  0  0  0
  150.0100  139.2873  154.7351 C   0  0  0  0  0  0  0  0  0  0  0  0
  148.8473  139.9635  154.2976 N   0  0  0  0  0  0  0  0  0  0  0  0
  147.5510  139.6723  154.9005 C   0  0  0  0  0  0  0  0  0  0  0  0
  146.6467  140.8231  154.4689 C   0  0  0  0  0  0  0  0  0  0  0  0
  147.6067  142.0087  154.4666 C   0  0  0  0  0  0  0  0  0  0  0  0
  148.9413  141.3955  154.0289 C   0  0  0  0  0  0  0  0  0  0  0  0
  146.9664  130.9651  152.6663 C   0  0  0  0  0  0  0  0  0  0  0  0
  146.2878  130.0532  151.6266 C   0  0  1  0  0  0  0  0  0  0  0  0
  145.7165  128.7804  152.2607 C   0  0  0  0  0  0  0  0  0  0  0  0
  145.2161  130.7621  151.0137 O   0  0  0  0  0  0  0  0  0  0  0  0
  144.7288  133.4480  149.0704 H   0  0  0  0  0  0  0  0  0  0  0  0
  143.6753  132.8386  150.3458 H   0  0  0  0  0  0  0  0  0  0  0  0
  143.9937  131.8553  148.9192 H   0  0  0  0  0  0  0  0  0  0  0  0
  146.3812  131.6389  149.5603 H   0  0  0  0  0  0  0  0  0  0  0  0
  146.6776  133.7724  150.8045 H   0  0  0  0  0  0  0  0  0  0  0  0
  145.5746  133.2329  152.0596 H   0  0  0  0  0  0  0  0  0  0  0  0
  148.7058  132.5382  153.6870 H   0  0  0  0  0  0  0  0  0  0  0  0
  148.8556  133.7391  152.4277 H   0  0  0  0  0  0  0  0  0  0  0  0
  146.1550  134.0035  153.3282 H   0  0  0  0  0  0  0  0  0  0  0  0
  147.0450  133.6276  154.7838 H   0  0  0  0  0  0  0  0  0  0  0  0
  147.0223  136.1089  153.4936 H   0  0  0  0  0  0  0  0  0  0  0  0
  148.2414  137.6038  153.8497 H   0  0  0  0  0  0  0  0  0  0  0  0
  151.4132  136.1919  155.2257 H   0  0  0  0  0  0  0  0  0  0  0  0
  153.2774  137.6430  155.9653 H   0  0  0  0  0  0  0  0  0  0  0  0
  152.9614  140.1297  155.9236 H   0  0  0  0  0  0  0  0  0  0  0  0
  147.1662  138.7077  154.5692 H   0  0  0  0  0  0  0  0  0  0  0  0
  147.6242  139.6582  155.9886 H   0  0  0  0  0  0  0  0  0  0  0  0
  146.2707  140.6453  153.4604 H   0  0  0  0  0  0  0  0  0  0  0  0
  145.7925  140.9645  155.1315 H   0  0  0  0  0  0  0  0  0  0  0  0
  147.2797  142.8209  153.8167 H   0  0  0  0  0  0  0  0  0  0  0  0
  147.6996  142.4054  155.4785 H   0  0  0  0  0  0  0  0  0  0  0  0
  149.7816  141.8575  154.5491 H   0  0  0  0  0  0  0  0  0  0  0  0
  149.0823  141.5436  152.9583 H   0  0  0  0  0  0  0  0  0  0  0  0
  147.8057  130.4370  153.1182 H   0  0  0  0  0  0  0  0  0  0  0  0
  146.2677  131.1998  153.4712 H   0  0  0  0  0  0  0  0  0  0  0  0
  147.0112  129.7649  150.8619 H   0  0  0  0  0  0  0  0  0  0  0  0
  146.5008  128.1939  152.7396 H   0  0  0  0  0  0  0  0  0  0  0  0
  145.2421  128.1492  151.5091 H   0  0  0  0  0  0  0  0  0  0  0  0
  144.9670  129.0178  153.0163 H   0  0  0  0  0  0  0  0  0  0  0  0
  148.1004  131.9705  151.3194 H   0  0  0  0  0  0  0  0  0  0  0  0
  1  2  1  0  0  0  0
  1 26  1  0  0  0  0
  1 27  1  0  0  0  0
  1 28  1  0  0  0  0
  2 25  1  0  0  0  0
  2  3  1  0  0  0  0
  2 29  1  0  0  0  0
  3  4  1  0  0  0  0
  3 30  1  0  0  0  0
  3 31  1  0  0  0  0
  4  5  1  0  0  0  0
  4 22  1  0  0  0  0
  4 55  1  0  0  0  0
  5  6  1  0  0  0  0
  5 32  1  0  0  0  0
  5 33  1  0  0  0  0
  6  7  1  0  0  0  0
  6 34  1  0  0  0  0
  6 35  1  0  0  0  0
  7  8  1  0  0  0  0
  7 36  1  0  0  0  0
  8  9  2  0  0  0  0
  8 10  1  0  0  0  0
 10 11  1  0  0  0  0
 10 37  1  0  0  0  0
 11 16  1  0  0  0  0
 11 12  2  0  0  0  0
 12 13  1  0  0  0  0
 12 38  1  0  0  0  0
 13 14  2  0  0  0  0
 13 39  1  0  0  0  0
 14 15  1  0  0  0  0
 14 40  1  0  0  0  0
 15 16  2  0  0  0  0
 16 17  1  0  0  0  0
 17 21  1  0  0  0  0
 17 18  1  0  0  0  0
 18 19  1  0  0  0  0
 18 41  1  0  0  0  0
 18 42  1  0  0  0  0
 19 20  1  0  0  0  0
 19 43  1  0  0  0  0
 19 44  1  0  0  0  0
 20 21  1  0  0  0  0
 20 45  1  0  0  0  0
 20 46  1  0  0  0  0
 21 47  1  0  0  0  0
 21 48  1  0  0  0  0
 22 23  1  0  0  0  0
 22 49  1  0  0  0  0
 22 50  1  0  0  0  0
 23 24  1  0  0  0  0
 23 25  1  0  0  0  0
 23 51  1  0  0  0  0
 24 52  1  0  0  0  0
 24 53  1  0  0  0  0
 24 54  1  0  0  0  0
M  CHG  1   4   1
M  END
> <s_m_source_file>
AV-unprocessed.smi

> <i_m_source_file_index>
1244

> <i_lp_mmshare_version>
43012

> <i_f3d_flags>
0

> <s_epik_input>
W0NIM11bQ0BASF0xW0NIMl1OKFtDSDJdW0NASF0oTzEpW0NIM10pW0NIMl1bQ0gyXVtOSF1DKD1PKVtOSF1jMltjSF1bY0hdW2NIXW5jMk4zW0NIMl1bQ0gyXVtDSDJdW0NIMl0z

> <s_epik_cmdline>
J2VwaWtfcHl0aG9uJywgJy1waCcsICc3LjAnLCAnLXRuJywgJzgnLCAnLW1hJywgJzIwMCcsICctbWV0YWxfYmluZGluZycsICctaW1hZScsICc8aW5maWxlLm1hZT4nLCAnLW9tYWUnLCAnPG91dGZpbGUubWFlPic=

> <r_lp_tautomer_probability>
1

> <r_epik_Ionization_Penalty>
0.684913

> <r_epik_Ionization_Penalty_Charging>
0.602531

> <r_epik_Ionization_Penalty_Neutral>
0.0823829

> <r_epik_State_Penalty>
0.678827

> <r_epik_Charging_Adjusted_Penalty>
1.28136

> <i_epik_Tot_Q>
1

> <i_epik_Tot_abs_Q>
1

> <r_epik_Metal_State_Penalty>
0.67806

> <b_epik_Metal_Only>
0

> <s_lp_Force_Field>
OPLS_2005

> <r_lp_Energy>
42.8464

> <b_lp_Chiralities_Consistent>
1

> <s_lp_Variant>
AV-unprocessed.smi:1244-5

> <Gold.Version>
5.8.1

> <Gold.Id.Protein>
6NUR|6NUR_protein|mol2

> <Gold.PLP.Fitness>
46.9948

> <Gold.PLP.PLP>
-42.2307

> <Gold.PLP.part.hbond>
-4.0000

> <Gold.PLP.part.metal>
0.0000

> <Gold.PLP.part.buried>
-0.7887

> <Gold.PLP.part.nonpolar>
-37.7980

> <Gold.PLP.part.repulsive>
0.4610

> <Gold.PLP.ligand.clash>
0.0000

> <Gold.PLP.ligand.torsion>
0.7258

> <Gold.PLP.Chemscore.Hbond>
1.9500

> <Gold.PLP.Chemscore.CHOScore>
0.0000

> <Gold.PLP.Chemscore.Metal>
0.0000

> <Gold.Chemscore.Hbonds>
donor molecule, donor type, donor heavy atom, donor atom, acceptor molecule, acceptor atom, score
      L1  H     4    55       P1 10747  1.00
      P1  H  7989  7998       L1    15  1.00

> <Gold.PLP.Chemscore.Internal.Correction>
0.3657

> <Gold.Rescore>
     Score         DG    S(hbond)    S(metal)    S(lipo)     H(rot)  DE(clash)    DE(int)     intcor
     13.17     -18.42       1.29        0.00     108.69       1.60       1.32       3.92       ----

> <Gold.Chemscore.Fitness>
13.1739

> <Gold.Chemscore.DG>
-18.4162

> <Gold.Chemscore.ZeroCoef>
-5.4800

> <Gold.Chemscore.Hbond>
1.2905

> <Gold.Chemscore.Metal>
0.0000

> <Gold.Chemscore.Lipo>
108.6866

> <Gold.Chemscore.Internal_Hbond>
0.0000

> <Gold.Chemscore.DEClash>
1.3218

> <Gold.Chemscore.DEInternal>
3.9205

> <Gold.Chemscore.Rot>
1.5978

> <Gold.Chemscore.Internal.Correction>
   9.000000E+99

> <Gold.Chemscore.Hbonds>
donor molecule, donor type, donor heavy atom, donor atom, acceptor molecule, acceptor atom, score
      L1  H     4    55       P1 10747  0.99
      P1  H  7989  7998       L1    15  0.09

> <Gold.Chemscore.Hbond.Weighted>
-4.3104

> <Gold.Chemscore.Metal.Weighted>
-0.0000

> <Gold.Chemscore.Lipo.Weighted>
-12.7163

> <Gold.Chemscore.Internal_Hbond.Weighted>
0.0000

> <Gold.Chemscore.DEClash.Weighted>
1.3218

> <Gold.Chemscore.DEInternal.Weighted>
3.9205

> <Gold.Chemscore.Rot.Weighted>
4.0905

> <Gold.Chemscore.Internal.Correction.Weighted>
   9.000000E+99

> <Gold.Protein.RotatedTorsions>
[ 6907 6896 6895 6894 ] final   23.31 input  -60.11 | X-H torsion
[ 7974 7965 7964 7962 ] final  104.76 input  175.53 | X-H torsion
[ 8008 7997 7996 7995 ] final -175.13 input   59.86 | X-H torsion
[ 10167 10162 10161 10158 ] final  178.14 input  -65.29 | X-H torsion
[ 10718 10713 10712 10709 ] final -131.11 input   66.30 | X-H torsion
[ 10763 10752 10751 10750 ] final   46.89 input  -60.55 | X-H torsion
[ 11005 11000 10999 10996 ] final -133.64 input  -57.11 | X-H torsion

> <Gold.Protein.ActiveResidues>
 VAL166  LYS551  ARG553  GLY616  TRP617  ASP618  TYR619  PRO620  LYS621  CYS622 
 ASP623  PHE694  ASN695  SER759  ASP760  ASP761  ALA762  ILE779  LEU786  VAL792 
 PHE793  MET794  SER795  GLU796  ALA797  LYS798  CYS799  TRP800  GLU811  SER814 

> <Gold.Protein.RotatedAtoms>
  151.9404  135.0216  160.0535 H   0  0  0  0  0  0  0  0  0  0  0  0  # atno 6907 bound_to 6896
  152.2041  133.4858  159.5083 H   0  0  0  0  0  0  0  0  0  0  0  0  # atno 6908 bound_to 6896
  150.6961  134.1469  159.4168 H   0  0  0  0  0  0  0  0  0  0  0  0  # atno 6909 bound_to 6896
  145.3285  139.2493  143.3673 H   0  0  0  0  0  0  0  0  0  0  0  0  # atno 7974 bound_to 7965
  155.9788  140.1177  157.0746 H   0  0  0  0  0  0  0  0  0  0  0  0  # atno 8008 bound_to 7997
  154.4177  140.1148  156.5474 H   0  0  0  0  0  0  0  0  0  0  0  0  # atno 8009 bound_to 7997
  155.6499  140.3473  155.4747 H   0  0  0  0  0  0  0  0  0  0  0  0  # atno 8010 bound_to 7997
  139.5282  144.2715  152.0624 H   0  0  0  0  0  0  0  0  0  0  0  0  # atno 10167 bound_to 10162
  156.2211  130.6979  151.0757 H   0  0  0  0  0  0  0  0  0  0  0  0  # atno 10718 bound_to 10713
  152.9805  135.5993  154.3674 H   0  0  0  0  0  0  0  0  0  0  0  0  # atno 10763 bound_to 10752
  154.3350  135.2768  155.2454 H   0  0  0  0  0  0  0  0  0  0  0  0  # atno 10764 bound_to 10752
  154.4561  135.5977  153.6279 H   0  0  0  0  0  0  0  0  0  0  0  0  # atno 10765 bound_to 10752
  140.9062  134.1627  157.4424 H   0  0  0  0  0  0  0  0  0  0  0  0  # atno 11005 bound_to 11000
  146.3055  140.3857  142.8689 LP  0  0  0  0  0  0  0  0  0  0  0  0  # atno 17320 bound_to 7965
  144.8883  140.7490  143.5943 LP  0  0  0  0  0  0  0  0  0  0  0  0  # atno 17321 bound_to 7965
  140.2174  144.4501  150.6357 LP  0  0  0  0  0  0  0  0  0  0  0  0  # atno 17342 bound_to 10162
  140.6440  143.2209  151.6226 LP  0  0  0  0  0  0  0  0  0  0  0  0  # atno 17343 bound_to 10162
  157.7088  131.0744  150.6575 LP  0  0  0  0  0  0  0  0  0  0  0  0  # atno 17370 bound_to 10713
  156.6638  130.4520  149.5679 LP  0  0  0  0  0  0  0  0  0  0  0  0  # atno 17371 bound_to 10713
  139.8750  134.9918  156.5565 LP  0  0  0  0  0  0  0  0  0  0  0  0  # atno 17394 bound_to 11000
  140.8168  133.8385  155.8859 LP  0  0  0  0  0  0  0  0  0  0  0  0  # atno 17395 bound_to 11000

$$$$
