AV-unprocessed.smi:2416|AV-procd|sdf|9547|dock6
  -GOLD-   2272013183D 1   1.00000     0.00000
 Structure written by MMmdl.
 40 41  0  0  0  0  0  0  0  0  1 V2000
  149.4233  141.4148  154.7094 C   0  0  0  0  0  0  0  0  0  0  0  0
  150.3247  140.3743  154.3540 O   0  0  0  0  0  0  0  0  0  0  0  0
  150.3957  139.2650  155.2514 C   0  0  2  0  0  0  0  0  0  0  0  0
  150.9715  139.7181  156.6023 C   0  0  0  0  0  0  0  0  0  0  0  0
  151.0110  138.0207  154.5855 C   0  0  0  0  0  0  0  0  0  0  0  0
  149.8975  137.2187  155.2556 C   0  0  2  0  0  0  0  0  0  0  0  0
  149.4095  136.1283  154.4180 N   0  0  0  0  0  0  0  0  0  0  0  0
  149.4510  134.8336  154.7614 C   0  0  0  0  0  0  0  0  0  0  0  0
  149.9140  134.4308  155.8289 O   0  0  0  0  0  0  0  0  0  0  0  0
  148.9256  134.0570  153.7974 N   0  0  0  0  0  0  0  0  0  0  0  0
  148.7697  132.6450  153.7942 C   0  0  0  0  0  0  0  0  0  0  0  0
  149.8208  131.9259  154.4073 C   0  0  0  0  0  0  0  0  0  0  0  0
  149.7640  130.5190  154.4537 C   0  0  0  0  0  0  0  0  0  0  0  0
  148.6556  129.8686  153.8833 C   0  0  0  0  0  0  0  0  0  0  0  0
  148.5578  128.5181  153.9018 F   0  0  0  0  0  0  0  0  0  0  0  0
  147.6512  130.6574  153.2929 C   0  0  0  0  0  0  0  0  0  0  0  0
  147.7044  132.0059  153.2483 N   0  0  0  0  0  0  0  0  0  0  0  0
  149.0300  138.5035  155.2286 C   0  0  0  0  0  0  0  0  0  0  0  0
  148.1054  138.7092  156.4328 C   0  0  0  0  0  0  0  0  0  0  0  0
  148.1510  138.7229  153.9806 C   0  0  0  0  0  0  0  0  0  0  0  0
  149.5450  142.2442  154.0130 H   0  0  0  0  0  0  0  0  0  0  0  0
  149.6134  141.7967  155.7126 H   0  0  0  0  0  0  0  0  0  0  0  0
  148.3848  141.0908  154.6482 H   0  0  0  0  0  0  0  0  0  0  0  0
  150.9097  138.9321  157.3545 H   0  0  0  0  0  0  0  0  0  0  0  0
  150.4354  140.5843  156.9905 H   0  0  0  0  0  0  0  0  0  0  0  0
  152.0247  139.9863  156.5263 H   0  0  0  0  0  0  0  0  0  0  0  0
  150.9496  138.0314  153.4955 H   0  0  0  0  0  0  0  0  0  0  0  0
  152.0161  137.7700  154.9255 H   0  0  0  0  0  0  0  0  0  0  0  0
  150.1738  136.9098  156.2663 H   0  0  0  0  0  0  0  0  0  0  0  0
  149.0125  136.3788  153.5243 H   0  0  0  0  0  0  0  0  0  0  0  0
  148.5920  134.5324  152.9720 H   0  0  0  0  0  0  0  0  0  0  0  0
  150.6650  132.4432  154.8397 H   0  0  0  0  0  0  0  0  0  0  0  0
  150.5569  129.9510  154.9176 H   0  0  0  0  0  0  0  0  0  0  0  0
  146.7837  130.1961  152.8444 H   0  0  0  0  0  0  0  0  0  0  0  0
  147.2122  138.0875  156.3642 H   0  0  0  0  0  0  0  0  0  0  0  0
  147.7794  139.7468  156.5116 H   0  0  0  0  0  0  0  0  0  0  0  0
  148.5928  138.4493  157.3723 H   0  0  0  0  0  0  0  0  0  0  0  0
  147.3158  138.0225  153.9473 H   0  0  0  0  0  0  0  0  0  0  0  0
  148.7094  138.5968  153.0530 H   0  0  0  0  0  0  0  0  0  0  0  0
  147.7282  139.7278  153.9634 H   0  0  0  0  0  0  0  0  0  0  0  0
  1  2  1  0  0  0  0
  1 21  1  0  0  0  0
  1 22  1  0  0  0  0
  1 23  1  0  0  0  0
  2  3  1  0  0  0  0
  3 18  1  0  0  0  0
  3  4  1  0  0  0  0
  3  5  1  0  0  0  0
  4 24  1  0  0  0  0
  4 25  1  0  0  0  0
  4 26  1  0  0  0  0
  5  6  1  0  0  0  0
  5 27  1  0  0  0  0
  5 28  1  0  0  0  0
  6  7  1  0  0  0  0
  6 18  1  0  0  0  0
  6 29  1  0  0  0  0
  7  8  1  0  0  0  0
  7 30  1  0  0  0  0
  8  9  2  0  0  0  0
  8 10  1  0  0  0  0
 10 11  1  0  0  0  0
 10 31  1  0  0  0  0
 11 17  1  0  0  0  0
 11 12  2  0  0  0  0
 12 13  1  0  0  0  0
 12 32  1  0  0  0  0
 13 14  2  0  0  0  0
 13 33  1  0  0  0  0
 14 15  1  0  0  0  0
 14 16  1  0  0  0  0
 16 17  2  0  0  0  0
 16 34  1  0  0  0  0
 18 19  1  0  0  0  0
 18 20  1  0  0  0  0
 19 35  1  0  0  0  0
 19 36  1  0  0  0  0
 19 37  1  0  0  0  0
 20 38  1  0  0  0  0
 20 39  1  0  0  0  0
 20 40  1  0  0  0  0
M  END
> <s_m_source_file>
AV-unprocessed.smi

> <i_m_source_file_index>
2416

> <i_lp_mmshare_version>
43012

> <i_f3d_flags>
0

> <s_epik_input>
W0NIM11PW0NAQF0xKFtDSDNdKVtDSDJdW0NASF0oQzEoW0NIM10pW0NIM10pW05IXUMoPU8pW05IXWMyW2NIXVtjSF1jKEYpW2NIXW4y

> <s_epik_cmdline>
J2VwaWtfcHl0aG9uJywgJy1waCcsICc3LjAnLCAnLXRuJywgJzgnLCAnLW1hJywgJzIwMCcsICctbWV0YWxfYmluZGluZycsICctaW1hZScsICc8aW5maWxlLm1hZT4nLCAnLW9tYWUnLCAnPG91dGZpbGUubWFlPic=

> <r_lp_tautomer_probability>
1

> <r_epik_Ionization_Penalty>
3.67756e-05

> <r_epik_Ionization_Penalty_Charging>
0

> <r_epik_Ionization_Penalty_Neutral>
3.67756e-05

> <r_epik_State_Penalty>
-0

> <r_epik_Charging_Adjusted_Penalty>
0

> <i_epik_Tot_Q>
0

> <i_epik_Tot_abs_Q>
0

> <r_epik_Metal_State_Penalty>
-0

> <b_epik_Metal_Only>
0

> <s_lp_Force_Field>
OPLS_2005

> <r_lp_Energy>
27.0586

> <b_lp_Chiralities_Consistent>
1

> <s_lp_Variant>
AV-unprocessed.smi:2416-4

> <Gold.Version>
5.8.1

> <Gold.Id.Protein>
6NUR|6NUR_protein|mol2

> <Gold.PLP.Fitness>
37.8909

> <Gold.PLP.PLP>
-30.2921

> <Gold.PLP.part.hbond>
-3.0000

> <Gold.PLP.part.metal>
0.0000

> <Gold.PLP.part.buried>
-3.4358

> <Gold.PLP.part.nonpolar>
-24.0425

> <Gold.PLP.part.repulsive>
0.2818

> <Gold.PLP.ligand.clash>
0.0000

> <Gold.PLP.ligand.torsion>
0.5237

> <Gold.PLP.Chemscore.Hbond>
2.7592

> <Gold.PLP.Chemscore.CHOScore>
0.0000

> <Gold.PLP.Chemscore.Metal>
0.0000

> <Gold.Chemscore.Hbonds>
donor molecule, donor type, donor heavy atom, donor atom, acceptor molecule, acceptor atom, score
      L1  H     7    30       P1  7948  0.99
      L1  H    10    31       P1  7948  0.73
      P1  H  7989  7998       L1     2  0.99

> <Gold.PLP.Chemscore.Internal.Correction>
0.3685

> <Gold.Rescore>
     Score         DG    S(hbond)    S(metal)    S(lipo)     H(rot)  DE(clash)    DE(int)     intcor
     14.97     -16.73       2.43        0.00      54.50       1.27       0.01       1.76       ----

> <Gold.Chemscore.Fitness>
14.9685

> <Gold.Chemscore.DG>
-16.7298

> <Gold.Chemscore.ZeroCoef>
-5.4800

> <Gold.Chemscore.Hbond>
2.4289

> <Gold.Chemscore.Metal>
0.0000

> <Gold.Chemscore.Lipo>
54.5007

> <Gold.Chemscore.Internal_Hbond>
0.0000

> <Gold.Chemscore.DEClash>
0.0060

> <Gold.Chemscore.DEInternal>
1.7553

> <Gold.Chemscore.Rot>
1.2653

> <Gold.Chemscore.Internal.Correction>
   9.000000E+99

> <Gold.Chemscore.Hbonds>
donor molecule, donor type, donor heavy atom, donor atom, acceptor molecule, acceptor atom, score
      L1  H     7    30       P1  7948  0.92
      L1  H    10    31       P1  7948  0.14
      P1  H  7989  7998       L1     2  0.82

> <Gold.Chemscore.Hbond.Weighted>
-8.1125

> <Gold.Chemscore.Metal.Weighted>
-0.0000

> <Gold.Chemscore.Lipo.Weighted>
-6.3766

> <Gold.Chemscore.Internal_Hbond.Weighted>
0.0000

> <Gold.Chemscore.DEClash.Weighted>
0.0060

> <Gold.Chemscore.DEInternal.Weighted>
1.7553

> <Gold.Chemscore.Rot.Weighted>
3.2392

> <Gold.Chemscore.Internal.Correction.Weighted>
   9.000000E+99

> <Gold.Protein.RotatedTorsions>
[ 6907 6896 6895 6894 ] final -105.83 input  -60.11 | X-H torsion
[ 7974 7965 7964 7962 ] final  158.57 input  175.53 | X-H torsion
[ 8008 7997 7996 7995 ] final  -91.90 input   59.86 | X-H torsion
[ 10167 10162 10161 10158 ] final   91.42 input  -65.29 | X-H torsion
[ 10718 10713 10712 10709 ] final    7.54 input   66.30 | X-H torsion
[ 10763 10752 10751 10750 ] final  -21.72 input  -60.55 | X-H torsion
[ 11005 11000 10999 10996 ] final  144.90 input  -57.11 | X-H torsion

> <Gold.Protein.ActiveResidues>
 VAL166  LYS551  ARG553  GLY616  TRP617  ASP618  TYR619  PRO620  LYS621  CYS622 
 ASP623  PHE694  ASN695  SER759  ASP760  ASP761  ALA762  ILE779  LEU786  VAL792 
 PHE793  MET794  SER795  GLU796  ALA797  LYS798  CYS799  TRP800  GLU811  SER814 

> <Gold.Protein.RotatedAtoms>
  150.7357  134.0067  159.3655 H   0  0  0  0  0  0  0  0  0  0  0  0  # atno 6907 bound_to 6896
  151.8025  135.0702  160.0411 H   0  0  0  0  0  0  0  0  0  0  0  0  # atno 6908 bound_to 6896
  152.3131  133.5737  159.5730 H   0  0  0  0  0  0  0  0  0  0  0  0  # atno 6909 bound_to 6896
  144.7838  139.7496  143.6249 H   0  0  0  0  0  0  0  0  0  0  0  0  # atno 7974 bound_to 7965
  154.7164  140.0514  157.0598 H   0  0  0  0  0  0  0  0  0  0  0  0  # atno 8008 bound_to 7997
  155.0486  140.3176  155.4681 H   0  0  0  0  0  0  0  0  0  0  0  0  # atno 8009 bound_to 7997
  156.2804  140.2120  156.5611 H   0  0  0  0  0  0  0  0  0  0  0  0  # atno 8010 bound_to 7997
  139.8376  144.6657  150.9322 H   0  0  0  0  0  0  0  0  0  0  0  0  # atno 10167 bound_to 10162
  156.9384  130.5852  149.5651 H   0  0  0  0  0  0  0  0  0  0  0  0  # atno 10718 bound_to 10713
  153.6406  135.6985  153.5243 H   0  0  0  0  0  0  0  0  0  0  0  0  # atno 10763 bound_to 10752
  153.2786  135.4193  155.1056 H   0  0  0  0  0  0  0  0  0  0  0  0  # atno 10764 bound_to 10752
  154.8500  135.3596  154.5950 H   0  0  0  0  0  0  0  0  0  0  0  0  # atno 10765 bound_to 10752
  140.0669  134.9173  157.1280 H   0  0  0  0  0  0  0  0  0  0  0  0  # atno 11005 bound_to 11000
  146.2060  139.5385  142.9712 LP  0  0  0  0  0  0  0  0  0  0  0  0  # atno 17320 bound_to 7965
  145.5976  141.0360  143.2036 LP  0  0  0  0  0  0  0  0  0  0  0  0  # atno 17321 bound_to 7965
  140.7801  143.3942  151.1258 LP  0  0  0  0  0  0  0  0  0  0  0  0  # atno 17342 bound_to 10162
  139.7591  143.8662  152.3096 LP  0  0  0  0  0  0  0  0  0  0  0  0  # atno 17343 bound_to 10162
  156.0415  130.5497  150.8782 LP  0  0  0  0  0  0  0  0  0  0  0  0  # atno 17370 bound_to 10713
  157.5801  131.0946  150.9284 LP  0  0  0  0  0  0  0  0  0  0  0  0  # atno 17371 bound_to 10713
  140.3685  134.2416  155.7180 LP  0  0  0  0  0  0  0  0  0  0  0  0  # atno 17394 bound_to 11000
  141.1996  133.8007  157.0527 LP  0  0  0  0  0  0  0  0  0  0  0  0  # atno 17395 bound_to 11000

$$$$
