AV-unprocessed.smi:557|AV-procd|sdf|2919|dock3
  -GOLD-   2262023413D 1   1.00000     0.00000
 Structure written by MMmdl.
 47 49  0  0  0  0  0  0  0  0  2 V2000
  148.7052  141.1516  154.3164 C   0  0  0  0  0  0  0  0  0  0  0  0
  149.6291  140.0932  154.6640 N   0  0  0  0  0  0  0  0  0  0  0  0
  149.4619  138.7306  154.5419 C   0  0  0  0  0  0  0  0  0  0  0  0
  150.6006  138.1345  155.0061 C   0  0  0  0  0  0  0  0  0  0  0  0
  150.9221  136.6691  155.0992 C   0  0  0  0  0  0  0  0  0  0  0  0
  149.7430  135.8740  155.6753 C   0  0  0  0  0  0  0  0  0  0  0  0
  148.8012  135.5097  154.6203 N   0  0  0  0  0  0  0  0  0  0  0  0
  147.5381  135.0784  154.7751 C   0  0  0  0  0  0  0  0  0  0  0  0
  147.0261  134.9408  155.8842 O   0  0  0  0  0  0  0  0  0  0  0  0
  146.8933  134.8134  153.6264 N   0  0  0  0  0  0  0  0  0  0  0  0
  145.5315  134.2947  153.5352 C   0  0  1  0  0  0  0  0  0  0  0  0
  144.5051  135.3540  153.1126 C   0  0  0  0  0  0  0  0  0  0  0  0
  143.4346  134.5809  152.3212 C   0  0  0  0  0  0  0  0  0  0  0  0
  143.8905  133.1736  152.2739 N   0  3  1  0  0  0  0  0  0  0  0  0
  143.4043  132.3583  151.1311 C   0  0  0  0  0  0  0  0  0  0  0  0
  144.1835  132.6289  149.8332 C   0  0  0  0  0  0  0  0  0  0  0  0
  145.6890  132.4629  150.0628 C   0  0  0  0  0  0  0  0  0  0  0  0
  146.1438  133.4119  151.1759 C   0  0  0  0  0  0  0  0  0  0  0  0
  145.3548  133.1792  152.4907 C   0  0  1  0  0  0  0  0  0  0  0  0
  151.4166  139.2363  155.3915 C   0  0  0  0  0  0  0  0  0  0  0  0
  150.8323  140.4058  155.1870 N   0  0  0  0  0  0  0  0  0  0  0  0
  147.8281  140.7349  153.8208 H   0  0  0  0  0  0  0  0  0  0  0  0
  149.1892  141.8599  153.6433 H   0  0  0  0  0  0  0  0  0  0  0  0
  148.3882  141.6743  155.2193 H   0  0  0  0  0  0  0  0  0  0  0  0
  148.5549  138.3008  154.1426 H   0  0  0  0  0  0  0  0  0  0  0  0
  151.1779  136.2732  154.1154 H   0  0  0  0  0  0  0  0  0  0  0  0
  151.8042  136.5103  155.7211 H   0  0  0  0  0  0  0  0  0  0  0  0
  150.1057  134.9688  156.1650 H   0  0  0  0  0  0  0  0  0  0  0  0
  149.2314  136.4725  156.4311 H   0  0  0  0  0  0  0  0  0  0  0  0
  149.1289  135.6303  153.6725 H   0  0  0  0  0  0  0  0  0  0  0  0
  147.3881  134.9640  152.7591 H   0  0  0  0  0  0  0  0  0  0  0  0
  145.2305  133.9087  154.5117 H   0  0  0  0  0  0  0  0  0  0  0  0
  144.0856  135.8742  153.9744 H   0  0  0  0  0  0  0  0  0  0  0  0
  144.9640  136.1055  152.4683 H   0  0  0  0  0  0  0  0  0  0  0  0
  142.4552  134.6374  152.7973 H   0  0  0  0  0  0  0  0  0  0  0  0
  143.3411  134.9968  151.3174 H   0  0  0  0  0  0  0  0  0  0  0  0
  143.5151  131.3072  151.4003 H   0  0  0  0  0  0  0  0  0  0  0  0
  142.3371  132.5283  150.9831 H   0  0  0  0  0  0  0  0  0  0  0  0
  143.8499  131.9452  149.0519 H   0  0  0  0  0  0  0  0  0  0  0  0
  143.9736  133.6353  149.4698 H   0  0  0  0  0  0  0  0  0  0  0  0
  145.9157  131.4311  150.3350 H   0  0  0  0  0  0  0  0  0  0  0  0
  146.2356  132.6730  149.1429 H   0  0  0  0  0  0  0  0  0  0  0  0
  147.2120  133.2785  151.3501 H   0  0  0  0  0  0  0  0  0  0  0  0
  146.0165  134.4404  150.8361 H   0  0  0  0  0  0  0  0  0  0  0  0
  145.6503  132.2166  152.9105 H   0  0  0  0  0  0  0  0  0  0  0  0
  152.4099  139.2197  155.8151 H   0  0  0  0  0  0  0  0  0  0  0  0
  143.5007  132.7514  153.1047 H   0  0  0  0  0  0  0  0  0  0  0  0
  1  2  1  0  0  0  0
  1 22  1  0  0  0  0
  1 23  1  0  0  0  0
  1 24  1  0  0  0  0
  2 21  1  0  0  0  0
  2  3  1  0  0  0  0
  3  4  2  0  0  0  0
  3 25  1  0  0  0  0
  4  5  1  0  0  0  0
  4 20  1  0  0  0  0
  5  6  1  0  0  0  0
  5 26  1  0  0  0  0
  5 27  1  0  0  0  0
  6  7  1  0  0  0  0
  6 28  1  0  0  0  0
  6 29  1  0  0  0  0
  7  8  1  0  0  0  0
  7 30  1  0  0  0  0
  8  9  2  0  0  0  0
  8 10  1  0  0  0  0
 10 11  1  0  0  0  0
 10 31  1  0  0  0  0
 11 19  1  0  0  0  0
 11 12  1  0  0  0  0
 11 32  1  0  0  0  0
 12 13  1  0  0  0  0
 12 33  1  0  0  0  0
 12 34  1  0  0  0  0
 13 14  1  0  0  0  0
 13 35  1  0  0  0  0
 13 36  1  0  0  0  0
 14 19  1  0  0  0  0
 14 15  1  0  0  0  0
 14 47  1  0  0  0  0
 15 16  1  0  0  0  0
 15 37  1  0  0  0  0
 15 38  1  0  0  0  0
 16 17  1  0  0  0  0
 16 39  1  0  0  0  0
 16 40  1  0  0  0  0
 17 18  1  0  0  0  0
 17 41  1  0  0  0  0
 17 42  1  0  0  0  0
 18 19  1  0  0  0  0
 18 43  1  0  0  0  0
 18 44  1  0  0  0  0
 19 45  1  0  0  0  0
 20 21  2  0  0  0  0
 20 46  1  0  0  0  0
M  CHG  1  14   1
M  END
> <s_m_source_file>
AV-unprocessed.smi

> <i_m_source_file_index>
557

> <i_lp_mmshare_version>
43012

> <i_f3d_flags>
0

> <s_epik_input>
W0NIM11uMVtjSF1jKFtjSF1uMSlbQ0gyXVtDSDJdW05IXUMoPU8pW05IXVtDQEhdKFtDSDJdW0NIMl0yKVtDQEhdKE4yMylbQ0gyXVtDSDJdW0NIMl1bQ0gyXTM=

> <s_epik_cmdline>
J2VwaWtfcHl0aG9uJywgJy1waCcsICc3LjAnLCAnLXRuJywgJzgnLCAnLW1hJywgJzIwMCcsICctbWV0YWxfYmluZGluZycsICctaW1hZScsICc8aW5maWxlLm1hZT4nLCAnLW9tYWUnLCAnPG91dGZpbGUubWFlPic=

> <r_lp_tautomer_probability>
1

> <r_epik_Ionization_Penalty>
0.000956547

> <r_epik_Ionization_Penalty_Charging>
0.000435796

> <r_epik_Ionization_Penalty_Neutral>
0.000520752

> <r_epik_State_Penalty>
-0

> <r_epik_Charging_Adjusted_Penalty>
0.000435796

> <i_epik_Tot_Q>
1

> <i_epik_Tot_abs_Q>
1

> <r_epik_Metal_State_Penalty>
-0

> <b_epik_Metal_Only>
0

> <s_lp_Force_Field>
OPLS_2005

> <r_lp_Energy>
42.0696

> <b_lp_Chiralities_Consistent>
1

> <s_lp_Variant>
AV-unprocessed.smi:557-6

> <Gold.Version>
5.8.1

> <Gold.Id.Protein>
6NUR|6NUR_protein|mol2

> <Gold.PLP.Fitness>
49.0112

> <Gold.PLP.PLP>
-37.5618

> <Gold.PLP.part.hbond>
-3.7468

> <Gold.PLP.part.metal>
0.0000

> <Gold.PLP.part.buried>
-2.9088

> <Gold.PLP.part.nonpolar>
-30.6494

> <Gold.PLP.part.repulsive>
0.0937

> <Gold.PLP.ligand.clash>
0.0000

> <Gold.PLP.ligand.torsion>
0.6341

> <Gold.PLP.Chemscore.Hbond>
4.2318

> <Gold.PLP.Chemscore.CHOScore>
0.0000

> <Gold.PLP.Chemscore.Metal>
0.0000

> <Gold.Chemscore.Hbonds>
donor molecule, donor type, donor heavy atom, donor atom, acceptor molecule, acceptor atom, score
      L1  H     7    30       P1  7948  1.00
      L1  H    10    31       P1  7948  0.54
      L1  H    14    47       P1 10957  1.62
      P1  H  7989  7998       L1    21  0.75

> <Gold.PLP.Chemscore.Internal.Correction>
0.0223

> <Gold.Rescore>
     Score         DG    S(hbond)    S(metal)    S(lipo)     H(rot)  DE(clash)    DE(int)     intcor
     18.85     -19.32       2.47        0.00      82.83       1.60       0.01       0.46       ----

> <Gold.Chemscore.Fitness>
18.8512

> <Gold.Chemscore.DG>
-19.3241

> <Gold.Chemscore.ZeroCoef>
-5.4800

> <Gold.Chemscore.Hbond>
2.4713

> <Gold.Chemscore.Metal>
0.0000

> <Gold.Chemscore.Lipo>
82.8251

> <Gold.Chemscore.Internal_Hbond>
0.0000

> <Gold.Chemscore.DEClash>
0.0089

> <Gold.Chemscore.DEInternal>
0.4640

> <Gold.Chemscore.Rot>
1.6018

> <Gold.Chemscore.Internal.Correction>
   9.000000E+99

> <Gold.Chemscore.Hbonds>
donor molecule, donor type, donor heavy atom, donor atom, acceptor molecule, acceptor atom, score
      L1  H     7    30       P1  7948  0.69
      L1  H    10    31       P1  7948  0.53
      L1  H    14    47       P1 10957  0.28
      P1  H  7989  7998       L1    21  0.02

> <Gold.Chemscore.Hbond.Weighted>
-8.2541

> <Gold.Chemscore.Metal.Weighted>
-0.0000

> <Gold.Chemscore.Lipo.Weighted>
-9.6905

> <Gold.Chemscore.Internal_Hbond.Weighted>
0.0000

> <Gold.Chemscore.DEClash.Weighted>
0.0089

> <Gold.Chemscore.DEInternal.Weighted>
0.4640

> <Gold.Chemscore.Rot.Weighted>
4.1006

> <Gold.Chemscore.Internal.Correction.Weighted>
   9.000000E+99

> <Gold.Protein.RotatedTorsions>
[ 6907 6896 6895 6894 ] final  -13.65 input  -60.11 | X-H torsion
[ 7974 7965 7964 7962 ] final -142.95 input  175.53 | X-H torsion
[ 8008 7997 7996 7995 ] final  -31.29 input   59.86 | X-H torsion
[ 10167 10162 10161 10158 ] final   10.20 input  -65.29 | X-H torsion
[ 10718 10713 10712 10709 ] final -142.54 input   66.30 | X-H torsion
[ 10763 10752 10751 10750 ] final    0.41 input  -60.55 | X-H torsion
[ 11005 11000 10999 10996 ] final   27.16 input  -57.11 | X-H torsion

> <Gold.Protein.ActiveResidues>
 VAL166  LYS551  ARG553  GLY616  TRP617  ASP618  TYR619  PRO620  LYS621  CYS622 
 ASP623  PHE694  ASN695  SER759  ASP760  ASP761  ALA762  ILE779  LEU786  VAL792 
 PHE793  MET794  SER795  GLU796  ALA797  LYS798  CYS799  TRP800  GLU811  SER814 

> <Gold.Protein.RotatedAtoms>
  151.3516  135.0885  159.9404 H   0  0  0  0  0  0  0  0  0  0  0  0  # atno 6907 bound_to 6896
  152.5185  133.9347  159.7608 H   0  0  0  0  0  0  0  0  0  0  0  0  # atno 6908 bound_to 6896
  150.9723  133.6277  159.2765 H   0  0  0  0  0  0  0  0  0  0  0  0  # atno 6909 bound_to 6896
  144.8405  140.5895  143.5455 H   0  0  0  0  0  0  0  0  0  0  0  0  # atno 7974 bound_to 7965
  154.4219  140.1768  156.1543 H   0  0  0  0  0  0  0  0  0  0  0  0  # atno 8008 bound_to 7997
  155.9890  140.3370  155.6710 H   0  0  0  0  0  0  0  0  0  0  0  0  # atno 8009 bound_to 7997
  155.6398  140.0679  157.2613 H   0  0  0  0  0  0  0  0  0  0  0  0  # atno 8010 bound_to 7997
  140.6208  143.8207  150.7173 H   0  0  0  0  0  0  0  0  0  0  0  0  # atno 10167 bound_to 10162
  156.3471  130.7668  151.1814 H   0  0  0  0  0  0  0  0  0  0  0  0  # atno 10718 bound_to 10713
  153.3211  135.6969  153.7030 H   0  0  0  0  0  0  0  0  0  0  0  0  # atno 10763 bound_to 10752
  153.5869  135.3487  155.2897 H   0  0  0  0  0  0  0  0  0  0  0  0  # atno 10764 bound_to 10752
  154.8598  135.4308  154.2375 H   0  0  0  0  0  0  0  0  0  0  0  0  # atno 10765 bound_to 10752
  140.3293  134.2456  155.7705 H   0  0  0  0  0  0  0  0  0  0  0  0  # atno 11005 bound_to 11000
  145.4704  139.1504  143.3817 LP  0  0  0  0  0  0  0  0  0  0  0  0  # atno 17320 bound_to 7965
  146.2698  140.4837  142.8819 LP  0  0  0  0  0  0  0  0  0  0  0  0  # atno 17321 bound_to 7965
  140.1797  143.4125  152.1942 LP  0  0  0  0  0  0  0  0  0  0  0  0  # atno 17342 bound_to 10162
  139.5437  144.7280  151.4650 LP  0  0  0  0  0  0  0  0  0  0  0  0  # atno 17343 bound_to 10162
  157.7456  131.0438  150.4762 LP  0  0  0  0  0  0  0  0  0  0  0  0  # atno 17370 bound_to 10713
  156.4951  130.4104  149.6384 LP  0  0  0  0  0  0  0  0  0  0  0  0  # atno 17371 bound_to 10713
  141.2067  133.7825  157.0159 LP  0  0  0  0  0  0  0  0  0  0  0  0  # atno 17394 bound_to 11000
  140.0875  134.9612  157.1723 LP  0  0  0  0  0  0  0  0  0  0  0  0  # atno 17395 bound_to 11000

$$$$
