AV-unprocessed.smi:1056|AV-procd|sdf|4633|dock4
  -GOLD-   22720 3133D 1   1.00000     0.00000
 Structure written by MMmdl.
 45 47  0  0  0  0  0  0  0  0  2 V2000
  153.8456  141.9642  163.3360 C   0  0  0  0  0  0  0  0  0  0  0  0
  153.2091  142.1889  161.9758 C   0  0  0  0  0  0  0  0  0  0  0  0
  152.3952  143.3273  161.7782 C   0  0  0  0  0  0  0  0  0  0  0  0
  151.7837  143.5723  160.5294 C   0  0  0  0  0  0  0  0  0  0  0  0
  150.9599  144.6060  160.1176 N   0  0  0  0  0  0  0  0  0  0  0  0
  150.7213  144.2723  158.8526 C   0  0  0  0  0  0  0  0  0  0  0  0
  151.2902  143.1394  158.3972 N   0  0  0  0  0  0  0  0  0  0  0  0
  151.1801  142.5729  157.0660 C   0  0  0  0  0  0  0  0  0  0  0  0
  149.8362  141.8479  156.8477 C   0  0  1  0  0  0  0  0  0  0  0  0
  148.7777  142.7667  157.0278 O   0  0  0  0  0  0  0  0  0  0  0  0
  149.7060  141.2407  155.4366 C   0  0  0  0  0  0  0  0  0  0  0  0
  150.3154  139.8907  155.3324 N   0  3  1  0  0  0  0  0  0  0  0  0
  150.1880  139.2767  153.9887 C   0  0  0  0  0  0  0  0  0  0  0  0
  150.6452  137.8080  154.0327 C   0  0  0  0  0  0  0  0  0  0  0  0
  151.8736  137.6143  154.7997 N   0  0  0  0  0  0  0  0  0  0  0  0
  152.4154  138.5102  155.6409 C   0  0  0  0  0  0  0  0  0  0  0  0
  153.4469  138.2717  156.2630 O   0  0  0  0  0  0  0  0  0  0  0  0
  151.7188  139.8678  155.8186 C   0  0  0  0  0  0  0  0  0  0  0  0
  152.0111  142.6398  159.4758 C   0  0  0  0  0  0  0  0  0  0  0  0
  152.8197  141.5040  159.6589 C   0  0  0  0  0  0  0  0  0  0  0  0
  153.4212  141.2733  160.9136 C   0  0  0  0  0  0  0  0  0  0  0  0
  154.2887  140.0418  161.1041 C   0  0  0  0  0  0  0  0  0  0  0  0
  153.6434  142.7955  164.0123 H   0  0  0  0  0  0  0  0  0  0  0  0
  154.9274  141.8667  163.2434 H   0  0  0  0  0  0  0  0  0  0  0  0
  153.4531  141.0560  163.7937 H   0  0  0  0  0  0  0  0  0  0  0  0
  152.2327  144.0240  162.5877 H   0  0  0  0  0  0  0  0  0  0  0  0
  150.0938  144.8848  158.2215 H   0  0  0  0  0  0  0  0  0  0  0  0
  151.3112  143.3690  156.3316 H   0  0  0  0  0  0  0  0  0  0  0  0
  152.0140  141.8835  156.9307 H   0  0  0  0  0  0  0  0  0  0  0  0
  149.7095  141.0733  157.6032 H   0  0  0  0  0  0  0  0  0  0  0  0
  148.9106  143.4991  156.4447 H   0  0  0  0  0  0  0  0  0  0  0  0
  148.6586  141.1849  155.1351 H   0  0  0  0  0  0  0  0  0  0  0  0
  150.1923  141.9120  154.7267 H   0  0  0  0  0  0  0  0  0  0  0  0
  149.1617  139.3192  153.6263 H   0  0  0  0  0  0  0  0  0  0  0  0
  150.7972  139.8393  153.2793 H   0  0  0  0  0  0  0  0  0  0  0  0
  149.8690  137.1981  154.4963 H   0  0  0  0  0  0  0  0  0  0  0  0
  150.7843  137.4228  153.0223 H   0  0  0  0  0  0  0  0  0  0  0  0
  152.3462  136.7281  154.6886 H   0  0  0  0  0  0  0  0  0  0  0  0
  152.3011  140.6194  155.2832 H   0  0  0  0  0  0  0  0  0  0  0  0
  151.7401  140.1382  156.8753 H   0  0  0  0  0  0  0  0  0  0  0  0
  152.9741  140.8154  158.8418 H   0  0  0  0  0  0  0  0  0  0  0  0
  154.3094  139.4262  160.2043 H   0  0  0  0  0  0  0  0  0  0  0  0
  153.9070  139.4275  161.9200 H   0  0  0  0  0  0  0  0  0  0  0  0
  155.3140  140.3295  161.3372 H   0  0  0  0  0  0  0  0  0  0  0  0
  149.7990  139.2974  155.9657 H   0  0  0  0  0  0  0  0  0  0  0  0
  1  2  1  0  0  0  0
  1 23  1  0  0  0  0
  1 24  1  0  0  0  0
  1 25  1  0  0  0  0
  2 21  1  0  0  0  0
  2  3  2  0  0  0  0
  3  4  1  0  0  0  0
  3 26  1  0  0  0  0
  4 19  2  0  0  0  0
  4  5  1  0  0  0  0
  5  6  2  0  0  0  0
  6  7  1  0  0  0  0
  6 27  1  0  0  0  0
  7  8  1  0  0  0  0
  7 19  1  0  0  0  0
  8  9  1  0  0  0  0
  8 28  1  0  0  0  0
  8 29  1  0  0  0  0
  9 10  1  0  0  0  0
  9 11  1  0  0  0  0
  9 30  1  0  0  0  0
 10 31  1  0  0  0  0
 11 12  1  0  0  0  0
 11 32  1  0  0  0  0
 11 33  1  0  0  0  0
 12 18  1  0  0  0  0
 12 13  1  0  0  0  0
 12 45  1  0  0  0  0
 13 14  1  0  0  0  0
 13 34  1  0  0  0  0
 13 35  1  0  0  0  0
 14 15  1  0  0  0  0
 14 36  1  0  0  0  0
 14 37  1  0  0  0  0
 15 16  1  0  0  0  0
 15 38  1  0  0  0  0
 16 17  2  0  0  0  0
 16 18  1  0  0  0  0
 18 39  1  0  0  0  0
 18 40  1  0  0  0  0
 19 20  1  0  0  0  0
 20 21  2  0  0  0  0
 20 41  1  0  0  0  0
 21 22  1  0  0  0  0
 22 42  1  0  0  0  0
 22 43  1  0  0  0  0
 22 44  1  0  0  0  0
M  CHG  1  12   1
M  END
> <s_m_source_file>
AV-unprocessed.smi

> <i_m_source_file_index>
1056

> <i_lp_mmshare_version>
43012

> <i_f3d_flags>
0

> <s_epik_input>
W0NIM11jKFtjSF0xKWMoW0NIM10pW2NIXWMoYzEyKW4oW2NIXW4yKVtDSDJdW0NASF0oW09IXSlbQ0gyXU4zW0NIMl1bQ0gyXVtOSF1DKD1PKVtDSDJdMw==

> <s_epik_cmdline>
J2VwaWtfcHl0aG9uJywgJy1waCcsICc3LjAnLCAnLXRuJywgJzgnLCAnLW1hJywgJzIwMCcsICctbWV0YWxfYmluZGluZycsICctaW1hZScsICc8aW5maWxlLm1hZT4nLCAnLW9tYWUnLCAnPG91dGZpbGUubWFlPic=

> <r_epik_Ionization_Penalty>
0.153633

> <r_epik_Ionization_Penalty_Charging>
0.0674887

> <r_epik_Ionization_Penalty_Neutral>
0.0861443

> <r_epik_State_Penalty>
0.135155

> <r_epik_Charging_Adjusted_Penalty>
0.202644

> <i_epik_Tot_Q>
1

> <i_epik_Tot_abs_Q>
1

> <r_epik_Metal_State_Penalty>
0.190685

> <b_epik_Metal_Only>
0

> <s_lp_Force_Field>
OPLS_2005

> <r_lp_Energy>
24.5126

> <b_lp_Chiralities_Consistent>
1

> <s_lp_Variant>
AV-unprocessed.smi:1056-4

> <Gold.Version>
5.8.1

> <Gold.Id.Protein>
6NUR|6NUR_protein|mol2

> <Gold.PLP.Fitness>
59.1305

> <Gold.PLP.PLP>
-51.8345

> <Gold.PLP.part.hbond>
-1.6967

> <Gold.PLP.part.metal>
0.0000

> <Gold.PLP.part.buried>
-6.5581

> <Gold.PLP.part.nonpolar>
-46.2276

> <Gold.PLP.part.repulsive>
1.5395

> <Gold.PLP.ligand.clash>
0.0000

> <Gold.PLP.ligand.torsion>
0.5401

> <Gold.PLP.Chemscore.Hbond>
1.7520

> <Gold.PLP.Chemscore.CHOScore>
1.0121

> <Gold.PLP.Chemscore.Metal>
0.0000

> <Gold.Chemscore.Hbonds>
donor molecule, donor type, donor heavy atom, donor atom, acceptor molecule, acceptor atom, score
      L1  H    10    31       P1  8028  0.80
      P1  H  7997  8008       L1    17  0.69
      L1  C     6    27       P1  8028  0.15
      L1  C     6    27       P1  8029  0.71

> <Gold.PLP.Chemscore.Internal.Correction>
0.0838

> <Gold.Rescore>
     Score         DG    S(hbond)    S(metal)    S(lipo)     H(rot)  DE(clash)    DE(int)     intcor
     17.37     -19.03       1.63        0.00     121.25       2.38       0.14       1.52       ----

> <Gold.Chemscore.Fitness>
17.3728

> <Gold.Chemscore.DG>
-19.0316

> <Gold.Chemscore.ZeroCoef>
-5.4800

> <Gold.Chemscore.Hbond>
1.6329

> <Gold.Chemscore.Metal>
0.0000

> <Gold.Chemscore.Lipo>
121.2491

> <Gold.Chemscore.Internal_Hbond>
0.0000

> <Gold.Chemscore.DEClash>
0.1363

> <Gold.Chemscore.DEInternal>
1.5225

> <Gold.Chemscore.Rot>
2.3783

> <Gold.Chemscore.Internal.Correction>
   9.000000E+99

> <Gold.Chemscore.Hbonds>
donor molecule, donor type, donor heavy atom, donor atom, acceptor molecule, acceptor atom, score
      L1  H    10    31       P1  8028  0.74
      P1  H  7997  8008       L1    17  0.47

> <Gold.Chemscore.Hbond.Weighted>
-5.4538

> <Gold.Chemscore.Metal.Weighted>
-0.0000

> <Gold.Chemscore.Lipo.Weighted>
-14.1861

> <Gold.Chemscore.Internal_Hbond.Weighted>
0.0000

> <Gold.Chemscore.DEClash.Weighted>
0.1363

> <Gold.Chemscore.DEInternal.Weighted>
1.5225

> <Gold.Chemscore.Rot.Weighted>
6.0884

> <Gold.Chemscore.Internal.Correction.Weighted>
   9.000000E+99

> <Gold.Protein.RotatedTorsions>
[ 6907 6896 6895 6894 ] final  130.29 input  -60.11 | X-H torsion
[ 7974 7965 7964 7962 ] final -162.48 input  175.53 | X-H torsion
[ 8008 7997 7996 7995 ] final  -63.24 input   59.86 | X-H torsion
[ 10167 10162 10161 10158 ] final  174.23 input  -65.29 | X-H torsion
[ 10718 10713 10712 10709 ] final -127.53 input   66.30 | X-H torsion
[ 10763 10752 10751 10750 ] final    2.35 input  -60.55 | X-H torsion
[ 11005 11000 10999 10996 ] final   26.15 input  -57.11 | X-H torsion

> <Gold.Protein.ActiveResidues>
 VAL166  LYS551  ARG553  GLY616  TRP617  ASP618  TYR619  PRO620  LYS621  CYS622 
 ASP623  PHE694  ASN695  SER759  ASP760  ASP761  ALA762  ILE779  LEU786  VAL792 
 PHE793  MET794  SER795  GLU796  ALA797  LYS798  CYS799  TRP800  GLU811  SER814 

> <Gold.Protein.RotatedAtoms>
  152.3541  133.6215  159.5966 H   0  0  0  0  0  0  0  0  0  0  0  0  # atno 6907 bound_to 6896
  150.7557  133.9528  159.3500 H   0  0  0  0  0  0  0  0  0  0  0  0  # atno 6908 bound_to 6896
  151.7375  135.0862  160.0361 H   0  0  0  0  0  0  0  0  0  0  0  0  # atno 6909 bound_to 6896
  144.7356  140.3246  143.6164 H   0  0  0  0  0  0  0  0  0  0  0  0  # atno 7974 bound_to 7965
  154.4543  140.0979  156.6712 H   0  0  0  0  0  0  0  0  0  0  0  0  # atno 8008 bound_to 7997
  155.5186  140.3478  155.4384 H   0  0  0  0  0  0  0  0  0  0  0  0  # atno 8009 bound_to 7997
  156.0746  140.1358  156.9776 H   0  0  0  0  0  0  0  0  0  0  0  0  # atno 8010 bound_to 7997
  139.5135  144.3170  152.0238 H   0  0  0  0  0  0  0  0  0  0  0  0  # atno 10167 bound_to 10162
  156.1866  130.6767  151.0372 H   0  0  0  0  0  0  0  0  0  0  0  0  # atno 10718 bound_to 10713
  153.2966  135.6952  153.7242 H   0  0  0  0  0  0  0  0  0  0  0  0  # atno 10763 bound_to 10752
  153.6173  135.3433  155.2999 H   0  0  0  0  0  0  0  0  0  0  0  0  # atno 10764 bound_to 10752
  154.8539  135.4377  154.2065 H   0  0  0  0  0  0  0  0  0  0  0  0  # atno 10765 bound_to 10752
  140.3402  134.2341  155.7691 H   0  0  0  0  0  0  0  0  0  0  0  0  # atno 11005 bound_to 11000
  145.7533  139.1801  143.2309 LP  0  0  0  0  0  0  0  0  0  0  0  0  # atno 17320 bound_to 7965
  146.1043  140.7506  142.9534 LP  0  0  0  0  0  0  0  0  0  0  0  0  # atno 17321 bound_to 7965
  140.2613  144.4064  150.6185 LP  0  0  0  0  0  0  0  0  0  0  0  0  # atno 17342 bound_to 10162
  140.6155  143.2172  151.6800 LP  0  0  0  0  0  0  0  0  0  0  0  0  # atno 17343 bound_to 10162
  157.6903  131.0812  150.7127 LP  0  0  0  0  0  0  0  0  0  0  0  0  # atno 17370 bound_to 10713
  156.7184  130.4673  149.5529 LP  0  0  0  0  0  0  0  0  0  0  0  0  # atno 17371 bound_to 10713
  141.2040  133.7896  157.0307 LP  0  0  0  0  0  0  0  0  0  0  0  0  # atno 17394 bound_to 11000
  140.0787  134.9660  157.1589 LP  0  0  0  0  0  0  0  0  0  0  0  0  # atno 17395 bound_to 11000

$$$$
