AV-unprocessed.smi:2171|AV-procd|sdf|8833|dock3
  -GOLD-   2272012 23D 1   1.00000     0.00000
 Structure written by MMmdl.
 39 41  0  0  0  0  0  0  0  0  2 V2000
  151.6638  141.4394  157.3520 O   0  0  0  0  0  0  0  0  0  0  0  0
  151.0457  142.4769  157.1156 C   0  0  0  0  0  0  0  0  0  0  0  0
  151.5439  143.8098  157.6762 C   0  0  0  0  0  0  0  0  0  0  0  0
  151.9877  143.6680  159.0516 N   0  0  0  0  0  0  0  0  0  0  0  0
  151.6161  144.4121  160.1520 C   0  0  0  0  0  0  0  0  0  0  0  0
  152.3004  143.9188  161.2256 C   0  0  0  0  0  0  0  0  0  0  0  0
  153.0751  142.8596  160.6756 C   0  0  0  0  0  0  0  0  0  0  0  0
  152.8875  142.7127  159.3739 N   0  0  0  0  0  0  0  0  0  0  0  0
  149.9301  142.5212  156.3704 N   0  0  0  0  0  0  0  0  0  0  0  0
  149.2699  141.3688  155.7651 C   0  0  1  0  0  0  0  0  0  0  0  0
  147.9779  141.7438  155.0252 C   0  0  0  0  0  0  0  0  0  0  0  0
  147.9552  140.8566  153.7645 C   0  0  0  0  0  0  0  0  0  0  0  0
  149.1303  139.9598  153.8542 N   0  3  2  0  0  0  0  0  0  0  0  0
  148.7700  138.6202  154.3958 C   0  0  0  0  0  0  0  0  0  0  0  0
  150.0077  137.7717  154.7158 C   0  0  0  0  0  0  0  0  0  0  0  0
  150.9109  138.5065  155.7095 C   0  0  0  0  0  0  0  0  0  0  0  0
  151.3224  139.8580  155.1174 C   0  0  0  0  0  0  0  0  0  0  0  0
  150.1167  140.7134  154.6660 C   0  0  2  0  0  0  0  0  0  0  0  0
  152.3761  144.1808  157.0766 H   0  0  0  0  0  0  0  0  0  0  0  0
  150.7509  144.5573  157.6223 H   0  0  0  0  0  0  0  0  0  0  0  0
  150.9057  145.2223  160.0788 H   0  0  0  0  0  0  0  0  0  0  0  0
  152.2544  144.2621  162.2483 H   0  0  0  0  0  0  0  0  0  0  0  0
  153.7644  142.1985  161.1798 H   0  0  0  0  0  0  0  0  0  0  0  0
  149.4930  143.4220  156.2360 H   0  0  0  0  0  0  0  0  0  0  0  0
  149.0203  140.6311  156.5297 H   0  0  0  0  0  0  0  0  0  0  0  0
  147.1044  141.5728  155.6553 H   0  0  0  0  0  0  0  0  0  0  0  0
  147.9708  142.7963  154.7368 H   0  0  0  0  0  0  0  0  0  0  0  0
  147.0177  140.3091  153.6564 H   0  0  0  0  0  0  0  0  0  0  0  0
  148.0680  141.4802  152.8768 H   0  0  0  0  0  0  0  0  0  0  0  0
  148.1678  138.7331  155.2987 H   0  0  0  0  0  0  0  0  0  0  0  0
  148.1445  138.1008  153.6689 H   0  0  0  0  0  0  0  0  0  0  0  0
  149.7022  136.8109  155.1314 H   0  0  0  0  0  0  0  0  0  0  0  0
  150.5583  137.5539  153.7997 H   0  0  0  0  0  0  0  0  0  0  0  0
  150.3908  138.6513  156.6571 H   0  0  0  0  0  0  0  0  0  0  0  0
  151.7960  137.9083  155.9283 H   0  0  0  0  0  0  0  0  0  0  0  0
  151.9391  140.4088  155.8274 H   0  0  0  0  0  0  0  0  0  0  0  0
  151.9612  139.6743  154.2525 H   0  0  0  0  0  0  0  0  0  0  0  0
  150.5035  141.5093  154.0259 H   0  0  0  0  0  0  0  0  0  0  0  0
  149.5135  139.8160  152.9307 H   0  0  0  0  0  0  0  0  0  0  0  0
  1  2  2  0  0  0  0
  2  3  1  0  0  0  0
  2  9  1  0  0  0  0
  3  4  1  0  0  0  0
  3 19  1  0  0  0  0
  3 20  1  0  0  0  0
  4  8  1  0  0  0  0
  4  5  1  0  0  0  0
  5  6  2  0  0  0  0
  5 21  1  0  0  0  0
  6  7  1  0  0  0  0
  6 22  1  0  0  0  0
  7  8  2  0  0  0  0
  7 23  1  0  0  0  0
  9 10  1  0  0  0  0
  9 24  1  0  0  0  0
 10 18  1  0  0  0  0
 10 11  1  0  0  0  0
 10 25  1  0  0  0  0
 11 12  1  0  0  0  0
 11 26  1  0  0  0  0
 11 27  1  0  0  0  0
 12 13  1  0  0  0  0
 12 28  1  0  0  0  0
 12 29  1  0  0  0  0
 13 18  1  0  0  0  0
 13 14  1  0  0  0  0
 13 39  1  0  0  0  0
 14 15  1  0  0  0  0
 14 30  1  0  0  0  0
 14 31  1  0  0  0  0
 15 16  1  0  0  0  0
 15 32  1  0  0  0  0
 15 33  1  0  0  0  0
 16 17  1  0  0  0  0
 16 34  1  0  0  0  0
 16 35  1  0  0  0  0
 17 18  1  0  0  0  0
 17 36  1  0  0  0  0
 17 37  1  0  0  0  0
 18 38  1  0  0  0  0
M  CHG  1  13   1
M  END
> <s_m_source_file>
AV-unprocessed.smi

> <i_m_source_file_index>
2171

> <i_lp_mmshare_version>
43012

> <i_f3d_flags>
0

> <s_epik_input>
bjFbY0hdW2NIXVtjSF1uMVtDSDJdQyg9TylbTkhdW0NASF0oW0NIMl1bQ0gyXTIpW0NAQEhdKE4yMylbQ0gyXVtDSDJdW0NIMl1bQ0gyXTM=

> <s_epik_cmdline>
J2VwaWtfcHl0aG9uJywgJy1waCcsICc3LjAnLCAnLXRuJywgJzgnLCAnLW1hJywgJzIwMCcsICctbWV0YWxfYmluZGluZycsICctaW1hZScsICc8aW5maWxlLm1hZT4nLCAnLW9tYWUnLCAnPG91dGZpbGUubWFlPic=

> <r_lp_tautomer_probability>
1

> <r_epik_Ionization_Penalty>
0.00204179

> <r_epik_Ionization_Penalty_Charging>
0.00203239

> <r_epik_Ionization_Penalty_Neutral>
9.40205e-06

> <r_epik_State_Penalty>
0.00138983

> <r_epik_Charging_Adjusted_Penalty>
0.00342221

> <i_epik_Tot_Q>
1

> <i_epik_Tot_abs_Q>
1

> <r_epik_Metal_State_Penalty>
-0

> <b_epik_Metal_Only>
0

> <s_lp_Force_Field>
OPLS_2005

> <r_lp_Energy>
36.6444

> <b_lp_Chiralities_Consistent>
1

> <s_lp_Variant>
AV-unprocessed.smi:2171-8

> <Gold.Version>
5.8.1

> <Gold.Id.Protein>
6NUR|6NUR_protein|mol2

> <Gold.PLP.Fitness>
44.1959

> <Gold.PLP.PLP>
-38.8398

> <Gold.PLP.part.hbond>
-1.9761

> <Gold.PLP.part.metal>
0.0000

> <Gold.PLP.part.buried>
-0.1235

> <Gold.PLP.part.nonpolar>
-36.4156

> <Gold.PLP.part.repulsive>
0.2362

> <Gold.PLP.ligand.clash>
0.0000

> <Gold.PLP.ligand.torsion>
0.3293

> <Gold.PLP.Chemscore.Hbond>
2.0000

> <Gold.PLP.Chemscore.CHOScore>
0.0000

> <Gold.PLP.Chemscore.Metal>
0.0000

> <Gold.Chemscore.Hbonds>
donor molecule, donor type, donor heavy atom, donor atom, acceptor molecule, acceptor atom, score
      L1  H     9    24       P1  8028  1.00
      L1  H    13    39       P1  7957  1.00

> <Gold.PLP.Chemscore.Internal.Correction>
0.0146

> <Gold.Rescore>
     Score         DG    S(hbond)    S(metal)    S(lipo)     H(rot)  DE(clash)    DE(int)     intcor
     15.98     -19.20       1.98        0.00      92.24       1.44       0.06       3.16       ----

> <Gold.Chemscore.Fitness>
15.9757

> <Gold.Chemscore.DG>
-19.1974

> <Gold.Chemscore.ZeroCoef>
-5.4800

> <Gold.Chemscore.Hbond>
1.9804

> <Gold.Chemscore.Metal>
0.0000

> <Gold.Chemscore.Lipo>
92.2373

> <Gold.Chemscore.Internal_Hbond>
0.0000

> <Gold.Chemscore.DEClash>
0.0576

> <Gold.Chemscore.DEInternal>
3.1641

> <Gold.Chemscore.Rot>
1.4410

> <Gold.Chemscore.Internal.Correction>
   9.000000E+99

> <Gold.Chemscore.Hbonds>
donor molecule, donor type, donor heavy atom, donor atom, acceptor molecule, acceptor atom, score
      L1  H     9    24       P1  8028  0.94
      L1  H    13    39       P1  7957  0.99

> <Gold.Chemscore.Hbond.Weighted>
-6.6146

> <Gold.Chemscore.Metal.Weighted>
-0.0000

> <Gold.Chemscore.Lipo.Weighted>
-10.7918

> <Gold.Chemscore.Internal_Hbond.Weighted>
0.0000

> <Gold.Chemscore.DEClash.Weighted>
0.0576

> <Gold.Chemscore.DEInternal.Weighted>
3.1641

> <Gold.Chemscore.Rot.Weighted>
3.6889

> <Gold.Chemscore.Internal.Correction.Weighted>
   9.000000E+99

> <Gold.Protein.RotatedTorsions>
[ 6907 6896 6895 6894 ] final  -57.55 input  -60.11 | X-H torsion
[ 7974 7965 7964 7962 ] final -153.27 input  175.53 | X-H torsion
[ 8008 7997 7996 7995 ] final  156.68 input   59.86 | X-H torsion
[ 10167 10162 10161 10158 ] final   36.47 input  -65.29 | X-H torsion
[ 10718 10713 10712 10709 ] final -170.46 input   66.30 | X-H torsion
[ 10763 10752 10751 10750 ] final   28.68 input  -60.55 | X-H torsion
[ 11005 11000 10999 10996 ] final  -70.64 input  -57.11 | X-H torsion

> <Gold.Protein.ActiveResidues>
 VAL166  LYS551  ARG553  GLY616  TRP617  ASP618  TYR619  PRO620  LYS621  CYS622 
 ASP623  PHE694  ASN695  SER759  ASP760  ASP761  ALA762  ILE779  LEU786  VAL792 
 PHE793  MET794  SER795  GLU796  ALA797  LYS798  CYS799  TRP800  GLU811  SER814 

> <Gold.Protein.RotatedAtoms>
  150.8077  134.7213  159.6659 H   0  0  0  0  0  0  0  0  0  0  0  0  # atno 6907 bound_to 6896
  152.4197  134.5974  160.0000 H   0  0  0  0  0  0  0  0  0  0  0  0  # atno 6908 bound_to 6896
  151.6193  133.3303  159.3120 H   0  0  0  0  0  0  0  0  0  0  0  0  # atno 6909 bound_to 6896
  144.7749  140.4548  143.5880 H   0  0  0  0  0  0  0  0  0  0  0  0  # atno 7974 bound_to 7965
  156.2408  140.1906  156.6992 H   0  0  0  0  0  0  0  0  0  0  0  0  # atno 8008 bound_to 7997
  154.6194  140.0610  156.9622 H   0  0  0  0  0  0  0  0  0  0  0  0  # atno 8009 bound_to 7997
  155.1886  140.3282  155.4365 H   0  0  0  0  0  0  0  0  0  0  0  0  # atno 8010 bound_to 7997
  140.4125  144.1573  150.6140 H   0  0  0  0  0  0  0  0  0  0  0  0  # atno 10167 bound_to 10162
  156.7264  130.9290  151.3101 H   0  0  0  0  0  0  0  0  0  0  0  0  # atno 10718 bound_to 10713
  153.0477  135.6507  154.0774 H   0  0  0  0  0  0  0  0  0  0  0  0  # atno 10763 bound_to 10752
  154.0469  135.2899  155.3348 H   0  0  0  0  0  0  0  0  0  0  0  0  # atno 10764 bound_to 10752
  154.6745  135.5343  153.8248 H   0  0  0  0  0  0  0  0  0  0  0  0  # atno 10765 bound_to 10752
  141.1578  133.6795  156.6783 H   0  0  0  0  0  0  0  0  0  0  0  0  # atno 11005 bound_to 11000
  145.6214  139.1524  143.3020 LP  0  0  0  0  0  0  0  0  0  0  0  0  # atno 17320 bound_to 7965
  146.1922  140.6324  142.9140 LP  0  0  0  0  0  0  0  0  0  0  0  0  # atno 17321 bound_to 7965
  140.4623  143.2444  151.9203 LP  0  0  0  0  0  0  0  0  0  0  0  0  # atno 17342 bound_to 10162
  139.4782  144.5455  151.8464 LP  0  0  0  0  0  0  0  0  0  0  0  0  # atno 17343 bound_to 10162
  157.6877  130.9202  150.0429 LP  0  0  0  0  0  0  0  0  0  0  0  0  # atno 17370 bound_to 10713
  156.1559  130.3643  149.9370 LP  0  0  0  0  0  0  0  0  0  0  0  0  # atno 17371 bound_to 10713
  140.3122  134.8077  157.4185 LP  0  0  0  0  0  0  0  0  0  0  0  0  # atno 17394 bound_to 11000
  140.1169  134.5271  155.8217 LP  0  0  0  0  0  0  0  0  0  0  0  0  # atno 17395 bound_to 11000

$$$$
