AV-unprocessed.smi:1487|AV-procd|sdf|6010|dock1
  -GOLD-   22720 6103D 1   1.00000     0.00000
 Structure written by MMmdl.
 48 50  0  0  0  0  0  0  0  0  2 V2000
  152.9705  141.7872  160.6744 C   0  0  0  0  0  0  0  0  0  0  0  0
  152.1833  141.5779  159.3928 C   0  0  0  0  0  0  0  0  0  0  0  0
  152.3199  140.3566  158.6952 C   0  0  0  0  0  0  0  0  0  0  0  0
  151.6049  140.1211  157.5008 C   0  0  0  0  0  0  0  0  0  0  0  0
  151.5876  139.0166  156.6663 N   0  0  0  0  0  0  0  0  0  0  0  0
  150.7296  139.4031  155.7271 C   0  0  0  0  0  0  0  0  0  0  0  0
  150.1922  140.6322  155.8513 N   0  0  0  0  0  0  0  0  0  0  0  0
  149.2412  141.2671  154.9566 C   0  0  0  0  0  0  0  0  0  0  0  0
  147.7813  141.0664  155.4066 C   0  0  1  0  0  0  0  0  0  0  0  0
  147.5300  141.8624  156.5490 O   0  0  0  0  0  0  0  0  0  0  0  0
  146.7875  141.4669  154.2985 C   0  0  0  0  0  0  0  0  0  0  0  0
  145.3701  141.3003  154.7110 N   0  3  2  0  0  0  0  0  0  0  0  0
  144.7953  142.5123  155.3524 C   0  0  0  0  0  0  0  0  0  0  0  0
  143.2893  142.3396  155.6041 C   0  0  0  0  0  0  0  0  0  0  0  0
  143.0129  141.0971  156.4623 C   0  0  0  0  0  0  0  0  0  0  0  0
  143.6739  139.8486  155.8544 C   0  0  1  0  0  0  0  0  0  0  0  0
  143.0005  139.4565  154.6745 O   0  0  0  0  0  0  0  0  0  0  0  0
  145.1649  140.0856  155.5440 C   0  0  0  0  0  0  0  0  0  0  0  0
  150.7420  141.1489  157.0194 C   0  0  0  0  0  0  0  0  0  0  0  0
  150.5969  142.3680  157.7048 C   0  0  0  0  0  0  0  0  0  0  0  0
  151.3192  142.5870  158.8967 C   0  0  0  0  0  0  0  0  0  0  0  0
  151.1576  143.9069  159.6299 C   0  0  0  0  0  0  0  0  0  0  0  0
  153.6232  140.9392  160.8837 H   0  0  0  0  0  0  0  0  0  0  0  0
  152.2941  141.9062  161.5211 H   0  0  0  0  0  0  0  0  0  0  0  0
  153.5948  142.6780  160.6013 H   0  0  0  0  0  0  0  0  0  0  0  0
  152.9770  139.5872  159.0731 H   0  0  0  0  0  0  0  0  0  0  0  0
  150.4800  138.7571  154.8979 H   0  0  0  0  0  0  0  0  0  0  0  0
  149.4790  142.3302  154.8929 H   0  0  0  0  0  0  0  0  0  0  0  0
  149.3878  140.8549  153.9576 H   0  0  0  0  0  0  0  0  0  0  0  0
  147.6448  140.0218  155.6843 H   0  0  0  0  0  0  0  0  0  0  0  0
  147.9175  142.7144  156.4126 H   0  0  0  0  0  0  0  0  0  0  0  0
  146.9748  142.5085  154.0323 H   0  0  0  0  0  0  0  0  0  0  0  0
  146.9680  140.8865  153.3921 H   0  0  0  0  0  0  0  0  0  0  0  0
  145.3134  142.7091  156.2923 H   0  0  0  0  0  0  0  0  0  0  0  0
  144.9475  143.3872  154.7216 H   0  0  0  0  0  0  0  0  0  0  0  0
  142.8901  143.2266  156.0973 H   0  0  0  0  0  0  0  0  0  0  0  0
  142.7656  142.2556  154.6509 H   0  0  0  0  0  0  0  0  0  0  0  0
  143.4124  141.2610  157.4639 H   0  0  0  0  0  0  0  0  0  0  0  0
  141.9392  140.9459  156.5810 H   0  0  0  0  0  0  0  0  0  0  0  0
  143.5849  139.0204  156.5583 H   0  0  0  0  0  0  0  0  0  0  0  0
  143.2232  140.0629  153.9840 H   0  0  0  0  0  0  0  0  0  0  0  0
  145.5748  139.2100  155.0380 H   0  0  0  0  0  0  0  0  0  0  0  0
  145.7223  140.1977  156.4755 H   0  0  0  0  0  0  0  0  0  0  0  0
  149.9350  143.1278  157.3168 H   0  0  0  0  0  0  0  0  0  0  0  0
  150.4323  144.5522  159.1339 H   0  0  0  0  0  0  0  0  0  0  0  0
  152.1081  144.4395  159.6693 H   0  0  0  0  0  0  0  0  0  0  0  0
  150.8120  143.7385  160.6502 H   0  0  0  0  0  0  0  0  0  0  0  0
  144.8480  141.1402  153.8605 H   0  0  0  0  0  0  0  0  0  0  0  0
  1  2  1  0  0  0  0
  1 23  1  0  0  0  0
  1 24  1  0  0  0  0
  1 25  1  0  0  0  0
  2 21  1  0  0  0  0
  2  3  2  0  0  0  0
  3  4  1  0  0  0  0
  3 26  1  0  0  0  0
  4 19  2  0  0  0  0
  4  5  1  0  0  0  0
  5  6  2  0  0  0  0
  6  7  1  0  0  0  0
  6 27  1  0  0  0  0
  7  8  1  0  0  0  0
  7 19  1  0  0  0  0
  8  9  1  0  0  0  0
  8 28  1  0  0  0  0
  8 29  1  0  0  0  0
  9 10  1  0  0  0  0
  9 11  1  0  0  0  0
  9 30  1  0  0  0  0
 10 31  1  0  0  0  0
 11 12  1  0  0  0  0
 11 32  1  0  0  0  0
 11 33  1  0  0  0  0
 12 18  1  0  0  0  0
 12 13  1  0  0  0  0
 12 48  1  0  0  0  0
 13 14  1  0  0  0  0
 13 34  1  0  0  0  0
 13 35  1  0  0  0  0
 14 15  1  0  0  0  0
 14 36  1  0  0  0  0
 14 37  1  0  0  0  0
 15 16  1  0  0  0  0
 15 38  1  0  0  0  0
 15 39  1  0  0  0  0
 16 17  1  0  0  0  0
 16 18  1  0  0  0  0
 16 40  1  0  0  0  0
 17 41  1  0  0  0  0
 18 42  1  0  0  0  0
 18 43  1  0  0  0  0
 19 20  1  0  0  0  0
 20 21  2  0  0  0  0
 20 44  1  0  0  0  0
 21 22  1  0  0  0  0
 22 45  1  0  0  0  0
 22 46  1  0  0  0  0
 22 47  1  0  0  0  0
M  CHG  1  12   1
M  END
> <s_m_source_file>
AV-unprocessed.smi

> <i_m_source_file_index>
1487

> <i_lp_mmshare_version>
43012

> <i_f3d_flags>
0

> <s_epik_input>
W0NIM11jKFtjSF0xKWMoW0NIM10pW2NIXWMoYzEyKW4oW2NIXW4yKVtDSDJdW0NASF0oW09IXSlbQ0gyXU4zW0NIMl1bQ0gyXVtDSDJdW0NAQEhdKFtPSF0pW0NIMl0z

> <s_epik_cmdline>
J2VwaWtfcHl0aG9uJywgJy1waCcsICc3LjAnLCAnLXRuJywgJzgnLCAnLW1hJywgJzIwMCcsICctbWV0YWxfYmluZGluZycsICctaW1hZScsICc8aW5maWxlLm1hZT4nLCAnLW9tYWUnLCAnPG91dGZpbGUubWFlPic=

> <r_epik_Ionization_Penalty>
0.0940186

> <r_epik_Ionization_Penalty_Charging>
0.00679686

> <r_epik_Ionization_Penalty_Neutral>
0.0872218

> <r_epik_State_Penalty>
0.0799311

> <r_epik_Charging_Adjusted_Penalty>
0.086728

> <i_epik_Tot_Q>
1

> <i_epik_Tot_abs_Q>
1

> <r_epik_Metal_State_Penalty>
7.95545e-05

> <b_epik_Metal_Only>
0

> <s_lp_Force_Field>
OPLS_2005

> <r_lp_Energy>
21.7982

> <b_lp_Chiralities_Consistent>
1

> <s_lp_Variant>
AV-unprocessed.smi:1487-4

> <Gold.Version>
5.8.1

> <Gold.Id.Protein>
6NUR|6NUR_protein|mol2

> <Gold.PLP.Fitness>
52.8457

> <Gold.PLP.PLP>
-42.3046

> <Gold.PLP.part.hbond>
-2.6899

> <Gold.PLP.part.metal>
0.0000

> <Gold.PLP.part.buried>
-3.6451

> <Gold.PLP.part.nonpolar>
-36.6235

> <Gold.PLP.part.repulsive>
0.0000

> <Gold.PLP.ligand.clash>
0.0000

> <Gold.PLP.ligand.torsion>
0.7301

> <Gold.PLP.Chemscore.Hbond>
3.9825

> <Gold.PLP.Chemscore.CHOScore>
0.0000

> <Gold.PLP.Chemscore.Metal>
0.0000

> <Gold.Chemscore.Hbonds>
donor molecule, donor type, donor heavy atom, donor atom, acceptor molecule, acceptor atom, score
      L1  H    10    31       P1  8028  0.24
      L1  H    12    48       P1 10175  2.00
      L1  H    17    41       P1 10175  1.00

> <Gold.PLP.Chemscore.Internal.Correction>
0.0538

> <Gold.Rescore>
     Score         DG    S(hbond)    S(metal)    S(lipo)     H(rot)  DE(clash)    DE(int)     intcor
     19.64     -20.49       2.90        0.00     103.91       2.67       0.07       0.78       ----

> <Gold.Chemscore.Fitness>
19.6390

> <Gold.Chemscore.DG>
-20.4914

> <Gold.Chemscore.ZeroCoef>
-5.4800

> <Gold.Chemscore.Hbond>
2.9018

> <Gold.Chemscore.Metal>
0.0000

> <Gold.Chemscore.Lipo>
103.9118

> <Gold.Chemscore.Internal_Hbond>
0.0000

> <Gold.Chemscore.DEClash>
0.0718

> <Gold.Chemscore.DEInternal>
0.7805

> <Gold.Chemscore.Rot>
2.6712

> <Gold.Chemscore.Internal.Correction>
   9.000000E+99

> <Gold.Chemscore.Hbonds>
donor molecule, donor type, donor heavy atom, donor atom, acceptor molecule, acceptor atom, score
      L1  H    10    31       P1  8028  0.12
      L1  H    12    48       P1 10175  0.65
      L1  H    17    41       P1 10175  0.96

> <Gold.Chemscore.Hbond.Weighted>
-9.6920

> <Gold.Chemscore.Metal.Weighted>
-0.0000

> <Gold.Chemscore.Lipo.Weighted>
-12.1577

> <Gold.Chemscore.Internal_Hbond.Weighted>
0.0000

> <Gold.Chemscore.DEClash.Weighted>
0.0718

> <Gold.Chemscore.DEInternal.Weighted>
0.7805

> <Gold.Chemscore.Rot.Weighted>
6.8383

> <Gold.Chemscore.Internal.Correction.Weighted>
   9.000000E+99

> <Gold.Protein.RotatedTorsions>
[ 6907 6896 6895 6894 ] final -170.09 input  -60.11 | X-H torsion
[ 7974 7965 7964 7962 ] final  156.40 input  175.53 | X-H torsion
[ 8008 7997 7996 7995 ] final   93.62 input   59.86 | X-H torsion
[ 10167 10162 10161 10158 ] final  101.53 input  -65.29 | X-H torsion
[ 10718 10713 10712 10709 ] final   12.69 input   66.30 | X-H torsion
[ 10763 10752 10751 10750 ] final   25.71 input  -60.55 | X-H torsion
[ 11005 11000 10999 10996 ] final  100.87 input  -57.11 | X-H torsion

> <Gold.Protein.ActiveResidues>
 VAL166  LYS551  ARG553  GLY616  TRP617  ASP618  TYR619  PRO620  LYS621  CYS622 
 ASP623  PHE694  ASN695  SER759  ASP760  ASP761  ALA762  ILE779  LEU786  VAL792 
 PHE793  MET794  SER795  GLU796  ALA797  LYS798  CYS799  TRP800  GLU811  SER814 

> <Gold.Protein.RotatedAtoms>
  151.5021  133.3502  159.2870 H   0  0  0  0  0  0  0  0  0  0  0  0  # atno 6907 bound_to 6896
  150.8766  134.8152  159.7205 H   0  0  0  0  0  0  0  0  0  0  0  0  # atno 6908 bound_to 6896
  152.4735  134.4913  159.9748 H   0  0  0  0  0  0  0  0  0  0  0  0  # atno 6909 bound_to 6896
  144.7965  139.7199  143.6200 H   0  0  0  0  0  0  0  0  0  0  0  0  # atno 7974 bound_to 7965
  156.0488  140.3310  155.7327 H   0  0  0  0  0  0  0  0  0  0  0  0  # atno 8008 bound_to 7997
  155.5632  140.0621  157.2841 H   0  0  0  0  0  0  0  0  0  0  0  0  # atno 8009 bound_to 7997
  154.4426  140.1873  156.0792 H   0  0  0  0  0  0  0  0  0  0  0  0  # atno 8010 bound_to 7997
  139.7430  144.7006  151.0547 H   0  0  0  0  0  0  0  0  0  0  0  0  # atno 10167 bound_to 10162
  157.0138  130.6128  149.5711 H   0  0  0  0  0  0  0  0  0  0  0  0  # atno 10718 bound_to 10713
  153.0672  135.6577  154.0327 H   0  0  0  0  0  0  0  0  0  0  0  0  # atno 10763 bound_to 10752
  153.9981  135.2939  155.3407 H   0  0  0  0  0  0  0  0  0  0  0  0  # atno 10764 bound_to 10752
  154.7035  135.5235  153.8630 H   0  0  0  0  0  0  0  0  0  0  0  0  # atno 10765 bound_to 10752
  139.8772  134.9159  156.4822 H   0  0  0  0  0  0  0  0  0  0  0  0  # atno 11005 bound_to 11000
  146.2235  139.5679  142.9603 LP  0  0  0  0  0  0  0  0  0  0  0  0  # atno 17320 bound_to 7965
  145.5660  141.0399  143.2200 LP  0  0  0  0  0  0  0  0  0  0  0  0  # atno 17321 bound_to 7965
  140.7788  143.4901  150.9904 LP  0  0  0  0  0  0  0  0  0  0  0  0  # atno 17342 bound_to 10162
  139.8590  143.7340  152.3174 LP  0  0  0  0  0  0  0  0  0  0  0  0  # atno 17343 bound_to 10162
  156.0126  130.5219  150.8037 LP  0  0  0  0  0  0  0  0  0  0  0  0  # atno 17370 bound_to 10713
  157.5300  131.0936  150.9967 LP  0  0  0  0  0  0  0  0  0  0  0  0  # atno 17371 bound_to 10713
  140.8719  133.7982  155.9374 LP  0  0  0  0  0  0  0  0  0  0  0  0  # atno 17394 bound_to 11000
  140.8944  134.2456  157.5077 LP  0  0  0  0  0  0  0  0  0  0  0  0  # atno 17395 bound_to 11000

$$$$
