AV-unprocessed.smi:2676|AV-procd|sdf|10364|dock7
  -GOLD-   2272014393D 1   1.00000     0.00000
 Structure written by MMmdl.
 40 41  0  0  0  0  0  0  0  0  1 V2000
  153.7543  141.7773  159.9672 C   0  0  0  0  0  0  0  0  0  0  0  0
  153.0786  140.6454  160.2146 C   0  0  0  0  0  0  0  0  0  0  0  0
  153.0292  139.4519  159.2774 C   0  0  0  0  0  0  0  0  0  0  0  0
  151.6555  139.2054  158.7843 N   0  0  0  0  0  0  0  0  0  0  0  0
  151.0365  140.1851  158.0596 C   0  0  0  0  0  0  0  0  0  0  0  0
  151.5914  141.2618  157.8203 O   0  0  0  0  0  0  0  0  0  0  0  0
  149.7681  139.9204  157.6241 N   0  0  0  0  0  0  0  0  0  0  0  0
  149.0570  140.9583  156.8441 C   0  0  0  0  0  0  0  0  0  0  0  0
  149.6394  141.1007  155.4493 C   0  0  0  0  0  0  0  0  0  0  0  0
  148.9706  141.5889  154.3943 C   0  0  0  0  0  0  0  0  0  0  0  0
  149.1044  138.7612  157.9122 C   0  0  0  0  0  0  0  0  0  0  0  0
  147.9437  138.5689  157.5371 O   0  0  0  0  0  0  0  0  0  0  0  0
  149.7821  137.8297  158.6487 N   0  0  0  0  0  0  0  0  0  0  0  0
  149.0853  136.5685  159.0062 C   0  0  0  0  0  0  0  0  0  0  0  0
  147.9153  136.7673  159.9839 C   0  0  0  0  0  0  0  0  0  0  0  0
  146.9712  137.5072  159.7017 O   0  0  0  0  0  0  0  0  0  0  0  0
  147.9987  136.0875  161.1363 N   0  0  0  0  0  0  0  0  0  0  0  0
  147.0300  136.1095  162.1840 C   0  0  0  0  0  0  0  0  0  0  0  0
  146.4187  134.7909  162.6052 C   0  0  0  0  0  0  0  0  0  0  0  0
  145.5983  135.7783  161.8218 C   0  0  0  0  0  0  0  0  0  0  0  0
  151.0528  138.0240  159.1139 C   0  0  0  0  0  0  0  0  0  0  0  0
  151.6235  137.1770  159.8078 O   0  0  0  0  0  0  0  0  0  0  0  0
  154.3227  141.9041  159.0576 H   0  0  0  0  0  0  0  0  0  0  0  0
  153.7472  142.5932  160.6747 H   0  0  0  0  0  0  0  0  0  0  0  0
  152.5196  140.5564  161.1349 H   0  0  0  0  0  0  0  0  0  0  0  0
  153.7258  139.6343  158.4577 H   0  0  0  0  0  0  0  0  0  0  0  0
  153.4428  138.5739  159.7771 H   0  0  0  0  0  0  0  0  0  0  0  0
  147.9935  140.7343  156.7477 H   0  0  0  0  0  0  0  0  0  0  0  0
  149.0723  141.9254  157.3502 H   0  0  0  0  0  0  0  0  0  0  0  0
  150.6619  140.7759  155.3205 H   0  0  0  0  0  0  0  0  0  0  0  0
  147.9472  141.9223  154.4842 H   0  0  0  0  0  0  0  0  0  0  0  0
  149.4410  141.6621  153.4248 H   0  0  0  0  0  0  0  0  0  0  0  0
  148.7061  136.0586  158.1188 H   0  0  0  0  0  0  0  0  0  0  0  0
  149.7777  135.8434  159.4378 H   0  0  0  0  0  0  0  0  0  0  0  0
  148.8107  135.5050  161.2823 H   0  0  0  0  0  0  0  0  0  0  0  0
  147.1618  136.8500  162.9719 H   0  0  0  0  0  0  0  0  0  0  0  0
  146.7471  133.8895  162.0907 H   0  0  0  0  0  0  0  0  0  0  0  0
  146.1804  134.6638  163.6593 H   0  0  0  0  0  0  0  0  0  0  0  0
  144.8109  136.3096  162.3528 H   0  0  0  0  0  0  0  0  0  0  0  0
  145.3775  135.5355  160.7840 H   0  0  0  0  0  0  0  0  0  0  0  0
  1  2  2  0  0  0  0
  1 23  1  0  0  0  0
  1 24  1  0  0  0  0
  2  3  1  0  0  0  0
  2 25  1  0  0  0  0
  3  4  1  0  0  0  0
  3 26  1  0  0  0  0
  3 27  1  0  0  0  0
  4 21  1  0  0  0  0
  4  5  1  0  0  0  0
  5  6  2  0  0  0  0
  5  7  1  0  0  0  0
  7  8  1  0  0  0  0
  7 11  1  0  0  0  0
  8  9  1  0  0  0  0
  8 28  1  0  0  0  0
  8 29  1  0  0  0  0
  9 10  2  0  0  0  0
  9 30  1  0  0  0  0
 10 31  1  0  0  0  0
 10 32  1  0  0  0  0
 11 12  2  0  0  0  0
 11 13  1  0  0  0  0
 13 14  1  0  0  0  0
 13 21  1  0  0  0  0
 14 15  1  0  0  0  0
 14 33  1  0  0  0  0
 14 34  1  0  0  0  0
 15 16  2  0  0  0  0
 15 17  1  0  0  0  0
 17 18  1  0  0  0  0
 17 35  1  0  0  0  0
 18 20  1  0  0  0  0
 18 19  1  0  0  0  0
 18 36  1  0  0  0  0
 19 20  1  0  0  0  0
 19 37  1  0  0  0  0
 19 38  1  0  0  0  0
 20 39  1  0  0  0  0
 20 40  1  0  0  0  0
 21 22  2  0  0  0  0
M  END
> <s_m_source_file>
AV-unprocessed.smi

> <i_m_source_file_index>
2676

> <i_lp_mmshare_version>
43012

> <i_f3d_flags>
0

> <s_epik_input>
W0NIMl09W0NIXVtDSDJdbjFjKD1PKW4oW0NIMl1bQ0hdPVtDSDJdKWMoPU8pbihjMT1PKVtDSDJdQyg9TylbTkhdW0NIXTJbQ0gyXVtDSDJdMg==

> <s_epik_cmdline>
J2VwaWtfcHl0aG9uJywgJy1waCcsICc3LjAnLCAnLXRuJywgJzgnLCAnLW1hJywgJzIwMCcsICctbWV0YWxfYmluZGluZycsICctaW1hZScsICc8aW5maWxlLm1hZT4nLCAnLW9tYWUnLCAnPG91dGZpbGUubWFlPic=

> <r_lp_tautomer_probability>
1

> <r_epik_Ionization_Penalty>
2.07961e-08

> <r_epik_Ionization_Penalty_Charging>
1.25795e-10

> <r_epik_Ionization_Penalty_Neutral>
2.06703e-08

> <r_epik_State_Penalty>
-0

> <r_epik_Charging_Adjusted_Penalty>
1.25795e-10

> <i_epik_Tot_Q>
0

> <i_epik_Tot_abs_Q>
0

> <r_epik_Metal_State_Penalty>
-0

> <b_epik_Metal_Only>
0

> <s_lp_Force_Field>
OPLS_2005

> <r_lp_Energy>
27.3169

> <b_lp_Chiralities_Consistent>
1

> <s_lp_Variant>
AV-unprocessed.smi:2676-1

> <Gold.Version>
5.8.1

> <Gold.Id.Protein>
6NUR|6NUR_protein|mol2

> <Gold.PLP.Fitness>
43.2401

> <Gold.PLP.PLP>
-37.9455

> <Gold.PLP.part.hbond>
-1.9680

> <Gold.PLP.part.metal>
0.0000

> <Gold.PLP.part.buried>
-5.7976

> <Gold.PLP.part.nonpolar>
-30.9900

> <Gold.PLP.part.repulsive>
0.1923

> <Gold.PLP.ligand.clash>
0.0000

> <Gold.PLP.ligand.torsion>
0.3769

> <Gold.PLP.Chemscore.Hbond>
1.9833

> <Gold.PLP.Chemscore.CHOScore>
0.0000

> <Gold.PLP.Chemscore.Metal>
0.0000

> <Gold.Chemscore.Hbonds>
donor molecule, donor type, donor heavy atom, donor atom, acceptor molecule, acceptor atom, score
      P1  H  6896  6907       L1    22  1.00
      P1  H  6934  6947       L1    16  0.96

> <Gold.PLP.Chemscore.Internal.Correction>
0.0987

> <Gold.Rescore>
     Score         DG    S(hbond)    S(metal)    S(lipo)     H(rot)  DE(clash)    DE(int)     intcor
     11.29     -14.53       1.97        0.00      73.43       2.39       0.02       3.23       ----

> <Gold.Chemscore.Fitness>
11.2884

> <Gold.Chemscore.DG>
-14.5344

> <Gold.Chemscore.ZeroCoef>
-5.4800

> <Gold.Chemscore.Hbond>
1.9704

> <Gold.Chemscore.Metal>
0.0000

> <Gold.Chemscore.Lipo>
73.4308

> <Gold.Chemscore.Internal_Hbond>
0.0000

> <Gold.Chemscore.DEClash>
0.0180

> <Gold.Chemscore.DEInternal>
3.2281

> <Gold.Chemscore.Rot>
2.3899

> <Gold.Chemscore.Internal.Correction>
   9.000000E+99

> <Gold.Chemscore.Hbonds>
donor molecule, donor type, donor heavy atom, donor atom, acceptor molecule, acceptor atom, score
      P1  H  6896  6907       L1    22  0.95
      P1  H  6934  6947       L1    16  0.46

> <Gold.Chemscore.Hbond.Weighted>
-6.5811

> <Gold.Chemscore.Metal.Weighted>
-0.0000

> <Gold.Chemscore.Lipo.Weighted>
-8.5914

> <Gold.Chemscore.Internal_Hbond.Weighted>
0.0000

> <Gold.Chemscore.DEClash.Weighted>
0.0180

> <Gold.Chemscore.DEInternal.Weighted>
3.2281

> <Gold.Chemscore.Rot.Weighted>
6.1181

> <Gold.Chemscore.Internal.Correction.Weighted>
   9.000000E+99

> <Gold.Protein.RotatedTorsions>
[ 6907 6896 6895 6894 ] final    2.08 input  -60.11 | X-H torsion
[ 7974 7965 7964 7962 ] final   45.77 input  175.53 | X-H torsion
[ 8008 7997 7996 7995 ] final   91.61 input   59.86 | X-H torsion
[ 10167 10162 10161 10158 ] final    0.52 input  -65.29 | X-H torsion
[ 10718 10713 10712 10709 ] final -140.07 input   66.30 | X-H torsion
[ 10763 10752 10751 10750 ] final   72.35 input  -60.55 | X-H torsion
[ 11005 11000 10999 10996 ] final   48.25 input  -57.11 | X-H torsion

> <Gold.Protein.ActiveResidues>
 VAL166  LYS551  ARG553  GLY616  TRP617  ASP618  TYR619  PRO620  LYS621  CYS622 
 ASP623  PHE694  ASN695  SER759  ASP760  ASP761  ALA762  ILE779  LEU786  VAL792 
 PHE793  MET794  SER795  GLU796  ALA797  LYS798  CYS799  TRP800  GLU811  SER814 

> <Gold.Protein.RotatedAtoms>
  151.6030  135.1046  160.0064 H   0  0  0  0  0  0  0  0  0  0  0  0  # atno 6907 bound_to 6896
  152.4248  133.7172  159.6523 H   0  0  0  0  0  0  0  0  0  0  0  0  # atno 6908 bound_to 6896
  150.8136  133.8304  159.3193 H   0  0  0  0  0  0  0  0  0  0  0  0  # atno 6909 bound_to 6896
  146.0450  139.4928  142.9754 H   0  0  0  0  0  0  0  0  0  0  0  0  # atno 7974 bound_to 7965
  156.0258  140.3335  155.7087 H   0  0  0  0  0  0  0  0  0  0  0  0  # atno 8008 bound_to 7997
  155.5957  140.0650  157.2764 H   0  0  0  0  0  0  0  0  0  0  0  0  # atno 8009 bound_to 7997
  154.4333  140.1819  156.1109 H   0  0  0  0  0  0  0  0  0  0  0  0  # atno 8010 bound_to 7997
  140.6725  143.7009  150.7952 H   0  0  0  0  0  0  0  0  0  0  0  0  # atno 10167 bound_to 10162
  156.3181  130.7519  151.1610 H   0  0  0  0  0  0  0  0  0  0  0  0  # atno 10718 bound_to 10713
  153.0454  135.5103  154.7731 H   0  0  0  0  0  0  0  0  0  0  0  0  # atno 10763 bound_to 10752
  154.6635  135.2942  154.9837 H   0  0  0  0  0  0  0  0  0  0  0  0  # atno 10764 bound_to 10752
  154.0680  135.6681  153.4873 H   0  0  0  0  0  0  0  0  0  0  0  0  # atno 10765 bound_to 10752
  140.1207  134.4833  155.8599 H   0  0  0  0  0  0  0  0  0  0  0  0  # atno 11005 bound_to 11000
  145.6821  141.0188  143.1601 LP  0  0  0  0  0  0  0  0  0  0  0  0  # atno 17320 bound_to 7965
  144.7093  139.8434  143.7420 LP  0  0  0  0  0  0  0  0  0  0  0  0  # atno 17321 bound_to 7965
  140.0697  143.5073  152.2586 LP  0  0  0  0  0  0  0  0  0  0  0  0  # atno 17342 bound_to 10162
  139.6000  144.7579  151.3195 LP  0  0  0  0  0  0  0  0  0  0  0  0  # atno 17343 bound_to 10162
  157.7406  131.0515  150.5156 LP  0  0  0  0  0  0  0  0  0  0  0  0  # atno 17370 bound_to 10713
  156.5305  130.4183  149.6204 LP  0  0  0  0  0  0  0  0  0  0  0  0  # atno 17371 bound_to 10713
  141.2151  133.6760  156.6884 LP  0  0  0  0  0  0  0  0  0  0  0  0  # atno 17394 bound_to 11000
  140.2968  134.8196  157.4064 LP  0  0  0  0  0  0  0  0  0  0  0  0  # atno 17395 bound_to 11000

$$$$
