AV-unprocessed.smi:2923|AV-procd|sdf|11212|dock8
  -GOLD-   2272016103D 1   1.00000     0.00000
 Structure written by MMmdl.
 46 48  0  0  0  0  0  0  0  0  1 V2000
  140.2131  143.2937  158.3388 C   0  0  0  0  0  0  0  0  0  0  0  0
  140.9414  142.4924  157.3671 N   0  0  0  0  0  0  0  0  0  0  0  0
  140.4612  142.5516  155.9954 C   0  0  0  0  0  0  0  0  0  0  0  0
  142.3311  142.6414  157.4658 C   0  0  0  0  0  0  0  0  0  0  0  0
  143.0055  142.4537  158.6937 C   0  0  0  0  0  0  0  0  0  0  0  0
  144.4041  142.6127  158.7308 C   0  0  0  0  0  0  0  0  0  0  0  0
  145.0857  142.9475  157.5368 C   0  0  0  0  0  0  0  0  0  0  0  0
  146.4891  143.1503  157.4463 N   0  0  0  0  0  0  0  0  0  0  0  0
  147.4154  143.0241  158.4118 C   0  0  0  0  0  0  0  0  0  0  0  0
  147.1910  142.7019  159.5783 O   0  0  0  0  0  0  0  0  0  0  0  0
  148.6442  143.2715  157.9390 N   0  0  0  0  0  0  0  0  0  0  0  0
  149.8651  143.1849  158.7340 C   0  0  2  0  0  0  0  0  0  0  0  0
  150.7482  144.4353  158.5978 C   0  0  1  0  0  0  0  0  0  0  0  0
  150.9828  145.3213  159.7912 C   0  0  0  0  0  0  0  0  0  0  0  0
  152.3114  144.8008  160.3475 C   0  0  0  0  0  0  0  0  0  0  0  0
  152.4172  143.4718  159.8423 O   0  0  0  0  0  0  0  0  0  0  0  0
  151.9307  143.4831  158.5025 C   0  0  1  0  0  0  0  0  0  0  0  0
  150.9898  142.3285  158.0977 C   0  0  0  0  0  0  0  0  0  0  0  0
  151.2630  140.9764  158.7585 C   0  0  0  0  0  0  0  0  0  0  0  0
  150.9196  142.0753  156.5846 C   0  0  0  0  0  0  0  0  0  0  0  0
  144.3146  143.1285  156.3697 C   0  0  0  0  0  0  0  0  0  0  0  0
  142.9742  142.9764  156.3267 N   0  0  0  0  0  0  0  0  0  0  0  0
  140.6453  143.1848  159.3343 H   0  0  0  0  0  0  0  0  0  0  0  0
  139.1726  142.9714  158.3872 H   0  0  0  0  0  0  0  0  0  0  0  0
  140.2309  144.3498  158.0673 H   0  0  0  0  0  0  0  0  0  0  0  0
  141.0575  141.9078  155.3475 H   0  0  0  0  0  0  0  0  0  0  0  0
  140.5070  143.5703  155.6084 H   0  0  0  0  0  0  0  0  0  0  0  0
  139.4258  142.2137  155.9446 H   0  0  0  0  0  0  0  0  0  0  0  0
  142.4649  142.1969  159.5928 H   0  0  0  0  0  0  0  0  0  0  0  0
  144.9188  142.4883  159.6708 H   0  0  0  0  0  0  0  0  0  0  0  0
  146.8383  143.3454  156.5194 H   0  0  0  0  0  0  0  0  0  0  0  0
  148.7448  143.5263  156.9674 H   0  0  0  0  0  0  0  0  0  0  0  0
  149.6910  142.9264  159.7812 H   0  0  0  0  0  0  0  0  0  0  0  0
  150.5855  144.9672  157.6586 H   0  0  0  0  0  0  0  0  0  0  0  0
  151.0461  146.3767  159.5248 H   0  0  0  0  0  0  0  0  0  0  0  0
  150.1832  145.2071  160.5239 H   0  0  0  0  0  0  0  0  0  0  0  0
  153.1448  145.3920  159.9653 H   0  0  0  0  0  0  0  0  0  0  0  0
  152.3495  144.8209  161.4368 H   0  0  0  0  0  0  0  0  0  0  0  0
  152.6813  143.7758  157.7668 H   0  0  0  0  0  0  0  0  0  0  0  0
  152.2176  140.5593  158.4370 H   0  0  0  0  0  0  0  0  0  0  0  0
  150.4858  140.2503  158.5182 H   0  0  0  0  0  0  0  0  0  0  0  0
  151.2964  141.0589  159.8451 H   0  0  0  0  0  0  0  0  0  0  0  0
  151.8588  141.6717  156.2050 H   0  0  0  0  0  0  0  0  0  0  0  0
  150.7197  142.9921  156.0293 H   0  0  0  0  0  0  0  0  0  0  0  0
  150.1328  141.3641  156.3304 H   0  0  0  0  0  0  0  0  0  0  0  0
  144.7877  143.3984  155.4368 H   0  0  0  0  0  0  0  0  0  0  0  0
  1  2  1  0  0  0  0
  1 23  1  0  0  0  0
  1 24  1  0  0  0  0
  1 25  1  0  0  0  0
  2  3  1  0  0  0  0
  2  4  1  0  0  0  0
  3 26  1  0  0  0  0
  3 27  1  0  0  0  0
  3 28  1  0  0  0  0
  4 22  1  0  0  0  0
  4  5  2  0  0  0  0
  5  6  1  0  0  0  0
  5 29  1  0  0  0  0
  6  7  2  0  0  0  0
  6 30  1  0  0  0  0
  7  8  1  0  0  0  0
  7 21  1  0  0  0  0
  8  9  1  0  0  0  0
  8 31  1  0  0  0  0
  9 10  2  0  0  0  0
  9 11  1  0  0  0  0
 11 12  1  0  0  0  0
 11 32  1  0  0  0  0
 12 18  1  0  0  0  0
 12 13  1  0  0  0  0
 12 33  1  0  0  0  0
 13 17  1  0  0  0  0
 13 14  1  0  0  0  0
 13 34  1  0  0  0  0
 14 15  1  0  0  0  0
 14 35  1  0  0  0  0
 14 36  1  0  0  0  0
 15 16  1  0  0  0  0
 15 37  1  0  0  0  0
 15 38  1  0  0  0  0
 16 17  1  0  0  0  0
 17 18  1  0  0  0  0
 17 39  1  0  0  0  0
 18 19  1  0  0  0  0
 18 20  1  0  0  0  0
 19 40  1  0  0  0  0
 19 41  1  0  0  0  0
 19 42  1  0  0  0  0
 20 43  1  0  0  0  0
 20 44  1  0  0  0  0
 20 45  1  0  0  0  0
 21 22  2  0  0  0  0
 21 46  1  0  0  0  0
M  END
> <s_m_source_file>
AV-unprocessed.smi

> <i_m_source_file_index>
2923

> <i_lp_mmshare_version>
43012

> <i_f3d_flags>
0

> <s_epik_input>
W0NIM11OKFtDSDNdKWMxW2NIXVtjSF1jKFtjSF1uMSlbTkhdQyg9TylbTkhdW0NASF0yQyhbQ0gzXSkoW0NIM10pW0NAQEhdKFtDQEhdMjMpT1tDSDJdW0NIMl0z

> <s_epik_cmdline>
J2VwaWtfcHl0aG9uJywgJy1waCcsICc3LjAnLCAnLXRuJywgJzgnLCAnLW1hJywgJzIwMCcsICctbWV0YWxfYmluZGluZycsICctaW1hZScsICc8aW5maWxlLm1hZT4nLCAnLW9tYWUnLCAnPG91dGZpbGUubWFlPic=

> <r_lp_tautomer_probability>
1

> <r_epik_Ionization_Penalty>
0.628785

> <r_epik_Ionization_Penalty_Charging>
0

> <r_epik_Ionization_Penalty_Neutral>
0.628785

> <r_epik_State_Penalty>
0.644286

> <r_epik_Charging_Adjusted_Penalty>
0.644286

> <i_epik_Tot_Q>
0

> <i_epik_Tot_abs_Q>
0

> <r_epik_Metal_State_Penalty>
0.308404

> <b_epik_Metal_Only>
0

> <s_lp_Force_Field>
OPLS_2005

> <r_lp_Energy>
42.6723

> <b_lp_Chiralities_Consistent>
1

> <s_lp_Variant>
AV-unprocessed.smi:2923-11

> <Gold.Version>
5.8.1

> <Gold.Id.Protein>
6NUR|6NUR_protein|mol2

> <Gold.PLP.Fitness>
34.0334

> <Gold.PLP.PLP>
-28.3423

> <Gold.PLP.part.hbond>
-4.2684

> <Gold.PLP.part.metal>
0.0000

> <Gold.PLP.part.buried>
-4.6473

> <Gold.PLP.part.nonpolar>
-20.1455

> <Gold.PLP.part.repulsive>
0.2126

> <Gold.PLP.ligand.clash>
0.0000

> <Gold.PLP.ligand.torsion>
0.1927

> <Gold.PLP.Chemscore.Hbond>
1.8978

> <Gold.PLP.Chemscore.CHOScore>
0.0000

> <Gold.PLP.Chemscore.Metal>
0.0000

> <Gold.Chemscore.Hbonds>
donor molecule, donor type, donor heavy atom, donor atom, acceptor molecule, acceptor atom, score
      L1  H    11    32       P1  8028  1.00
      P1  H  6933  6944       L1    10  0.25
      P1  H  6934  6946       L1    10  0.50

> <Gold.PLP.Chemscore.Internal.Correction>
0.3829

> <Gold.Rescore>
     Score         DG    S(hbond)    S(metal)    S(lipo)     H(rot)  DE(clash)    DE(int)     intcor
     15.32     -16.81       1.71        0.00      74.24       1.19       0.05       1.44       ----

> <Gold.Chemscore.Fitness>
15.3179

> <Gold.Chemscore.DG>
-16.8125

> <Gold.Chemscore.ZeroCoef>
-5.4800

> <Gold.Chemscore.Hbond>
1.7074

> <Gold.Chemscore.Metal>
0.0000

> <Gold.Chemscore.Lipo>
74.2353

> <Gold.Chemscore.Internal_Hbond>
0.0000

> <Gold.Chemscore.DEClash>
0.0516

> <Gold.Chemscore.DEInternal>
1.4430

> <Gold.Chemscore.Rot>
1.1937

> <Gold.Chemscore.Internal.Correction>
   9.000000E+99

> <Gold.Chemscore.Hbonds>
donor molecule, donor type, donor heavy atom, donor atom, acceptor molecule, acceptor atom, score
      L1  H    11    32       P1  8028  0.33
      P1  H  6933  6944       L1    10  0.24
      P1  H  6934  6946       L1    10  0.49

> <Gold.Chemscore.Hbond.Weighted>
-5.7028

> <Gold.Chemscore.Metal.Weighted>
-0.0000

> <Gold.Chemscore.Lipo.Weighted>
-8.6855

> <Gold.Chemscore.Internal_Hbond.Weighted>
0.0000

> <Gold.Chemscore.DEClash.Weighted>
0.0516

> <Gold.Chemscore.DEInternal.Weighted>
1.4430

> <Gold.Chemscore.Rot.Weighted>
3.0559

> <Gold.Chemscore.Internal.Correction.Weighted>
   9.000000E+99

> <Gold.Protein.RotatedTorsions>
[ 6907 6896 6895 6894 ] final  139.29 input  -60.11 | X-H torsion
[ 7974 7965 7964 7962 ] final  -79.04 input  175.53 | X-H torsion
[ 8008 7997 7996 7995 ] final  140.55 input   59.86 | X-H torsion
[ 10167 10162 10161 10158 ] final -140.90 input  -65.29 | X-H torsion
[ 10718 10713 10712 10709 ] final -178.95 input   66.30 | X-H torsion
[ 10763 10752 10751 10750 ] final  159.45 input  -60.55 | X-H torsion
[ 11005 11000 10999 10996 ] final -117.23 input  -57.11 | X-H torsion

> <Gold.Protein.ActiveResidues>
 VAL166  LYS551  ARG553  GLY616  TRP617  ASP618  TYR619  PRO620  LYS621  CYS622 
 ASP623  PHE694  ASN695  SER759  ASP760  ASP761  ALA762  ILE779  LEU786  VAL792 
 PHE793  MET794  SER795  GLU796  ALA797  LYS798  CYS799  TRP800  GLU811  SER814 

> <Gold.Protein.RotatedAtoms>
  152.2567  133.5261  159.5356 H   0  0  0  0  0  0  0  0  0  0  0  0  # atno 6907 bound_to 6896
  150.7111  134.0886  159.3932 H   0  0  0  0  0  0  0  0  0  0  0  0  # atno 6908 bound_to 6896
  151.8805  135.0455  160.0539 H   0  0  0  0  0  0  0  0  0  0  0  0  # atno 6909 bound_to 6896
  145.5785  140.9453  143.1357 H   0  0  0  0  0  0  0  0  0  0  0  0  # atno 7974 bound_to 7965
  156.2977  140.2338  156.4420 H   0  0  0  0  0  0  0  0  0  0  0  0  # atno 8008 bound_to 7997
  154.8178  140.0439  157.1409 H   0  0  0  0  0  0  0  0  0  0  0  0  # atno 8009 bound_to 7997
  154.9350  140.3022  155.5152 H   0  0  0  0  0  0  0  0  0  0  0  0  # atno 8010 bound_to 7997
  139.8237  143.7540  152.2666 H   0  0  0  0  0  0  0  0  0  0  0  0  # atno 10167 bound_to 10162
  156.8519  130.9722  151.3091 H   0  0  0  0  0  0  0  0  0  0  0  0  # atno 10718 bound_to 10713
  154.2320  135.2778  155.2886 H   0  0  0  0  0  0  0  0  0  0  0  0  # atno 10763 bound_to 10752
  154.5616  135.5645  153.7016 H   0  0  0  0  0  0  0  0  0  0  0  0  # atno 10764 bound_to 10752
  153.0018  135.6299  154.2462 H   0  0  0  0  0  0  0  0  0  0  0  0  # atno 10765 bound_to 10752
  141.0369  133.9896  157.3056 H   0  0  0  0  0  0  0  0  0  0  0  0  # atno 11005 bound_to 11000
  144.7405  139.7463  143.7313 LP  0  0  0  0  0  0  0  0  0  0  0  0  # atno 17320 bound_to 7965
  146.1733  139.4893  142.9913 LP  0  0  0  0  0  0  0  0  0  0  0  0  # atno 17321 bound_to 7965
  139.7726  144.7471  151.0203 LP  0  0  0  0  0  0  0  0  0  0  0  0  # atno 17342 bound_to 10162
  140.7811  143.4629  151.0253 LP  0  0  0  0  0  0  0  0  0  0  0  0  # atno 17343 bound_to 10162
  157.6298  130.8720  149.9254 LP  0  0  0  0  0  0  0  0  0  0  0  0  # atno 17370 bound_to 10713
  156.0823  130.3672  150.0555 LP  0  0  0  0  0  0  0  0  0  0  0  0  # atno 17371 bound_to 10713
  139.9247  135.0201  156.8192 LP  0  0  0  0  0  0  0  0  0  0  0  0  # atno 17394 bound_to 11000
  140.6306  133.9909  155.7660 LP  0  0  0  0  0  0  0  0  0  0  0  0  # atno 17395 bound_to 11000

$$$$
