AV-unprocessed.smi:1937|AV-procd|sdf|7833|dock5
  -GOLD-   22720 9583D 1   1.00000     0.00000
 Structure written by MMmdl.
 40 41  0  0  0  0  0  0  0  0  1 V2000
  144.6473  137.0303  152.2722 O   0  0  0  0  0  0  0  0  0  0  0  0
  145.8127  136.6447  152.1820 C   0  0  0  0  0  0  0  0  0  0  0  0
  146.8653  137.3846  152.5583 N   0  0  0  0  0  0  0  0  0  0  0  0
  146.7850  138.7349  153.1014 C   0  0  0  0  0  0  0  0  0  0  0  0
  147.4080  138.8149  154.5079 C   0  0  0  0  0  0  0  0  0  0  0  0
  148.8356  139.1502  154.4381 N   0  0  0  0  0  0  0  0  0  0  0  0
  149.1628  140.5568  154.1499 C   0  0  0  0  0  0  0  0  0  0  0  0
  149.7789  141.3130  155.3504 C   0  0  0  0  0  0  0  0  0  0  0  0
  150.5967  140.4663  156.3453 C   0  0  0  0  0  0  0  0  0  0  0  0
  151.7033  139.5995  155.7088 C   0  0  0  0  0  0  0  0  0  0  0  0
  151.2661  138.6502  154.5678 C   0  0  0  0  0  0  0  0  0  0  0  0
  149.7941  138.2117  154.6359 C   0  0  0  0  0  0  0  0  0  0  0  0
  149.5384  137.0301  154.8699 O   0  0  0  0  0  0  0  0  0  0  0  0
  146.2042  135.4459  151.7171 N   0  0  0  0  0  0  0  0  0  0  0  0
  145.4075  134.3855  151.2060 C   0  0  0  0  0  0  0  0  0  0  0  0
  145.9006  133.3266  150.4050 C   0  0  0  0  0  0  0  0  0  0  0  0
  145.0067  132.3273  149.9742 C   0  0  0  0  0  0  0  0  0  0  0  0
  143.6566  132.4178  150.3648 C   0  0  0  0  0  0  0  0  0  0  0  0
  143.1758  133.4130  151.1392 N   0  0  0  0  0  0  0  0  0  0  0  0
  144.0385  134.3676  151.5482 C   0  0  0  0  0  0  0  0  0  0  0  0
  147.7886  136.9887  152.4570 H   0  0  0  0  0  0  0  0  0  0  0  0
  147.2740  139.4388  152.4256 H   0  0  0  0  0  0  0  0  0  0  0  0
  145.7334  139.0207  153.1361 H   0  0  0  0  0  0  0  0  0  0  0  0
  146.8782  139.5568  155.1080 H   0  0  0  0  0  0  0  0  0  0  0  0
  147.2622  137.8717  155.0349 H   0  0  0  0  0  0  0  0  0  0  0  0
  149.8444  140.5971  153.3001 H   0  0  0  0  0  0  0  0  0  0  0  0
  148.2856  141.1073  153.8093 H   0  0  0  0  0  0  0  0  0  0  0  0
  150.3945  142.1299  154.9727 H   0  0  0  0  0  0  0  0  0  0  0  0
  148.9724  141.7893  155.9091 H   0  0  0  0  0  0  0  0  0  0  0  0
  151.0506  141.1312  157.0809 H   0  0  0  0  0  0  0  0  0  0  0  0
  149.9213  139.8307  156.9199 H   0  0  0  0  0  0  0  0  0  0  0  0
  152.4915  140.2523  155.3325 H   0  0  0  0  0  0  0  0  0  0  0  0
  152.1676  139.0075  156.4981 H   0  0  0  0  0  0  0  0  0  0  0  0
  151.4515  139.1164  153.6003 H   0  0  0  0  0  0  0  0  0  0  0  0
  151.9034  137.7650  154.5759 H   0  0  0  0  0  0  0  0  0  0  0  0
  147.1930  135.2507  151.7766 H   0  0  0  0  0  0  0  0  0  0  0  0
  146.9392  133.2507  150.1240 H   0  0  0  0  0  0  0  0  0  0  0  0
  145.3501  131.5075  149.3608 H   0  0  0  0  0  0  0  0  0  0  0  0
  142.9453  131.6678  150.0515 H   0  0  0  0  0  0  0  0  0  0  0  0
  143.6187  135.1465  152.1679 H   0  0  0  0  0  0  0  0  0  0  0  0
  1  2  2  0  0  0  0
  2  3  1  0  0  0  0
  2 14  1  0  0  0  0
  3  4  1  0  0  0  0
  3 21  1  0  0  0  0
  4  5  1  0  0  0  0
  4 22  1  0  0  0  0
  4 23  1  0  0  0  0
  5  6  1  0  0  0  0
  5 24  1  0  0  0  0
  5 25  1  0  0  0  0
  6 12  1  0  0  0  0
  6  7  1  0  0  0  0
  7  8  1  0  0  0  0
  7 26  1  0  0  0  0
  7 27  1  0  0  0  0
  8  9  1  0  0  0  0
  8 28  1  0  0  0  0
  8 29  1  0  0  0  0
  9 10  1  0  0  0  0
  9 30  1  0  0  0  0
  9 31  1  0  0  0  0
 10 11  1  0  0  0  0
 10 32  1  0  0  0  0
 10 33  1  0  0  0  0
 11 12  1  0  0  0  0
 11 34  1  0  0  0  0
 11 35  1  0  0  0  0
 12 13  2  0  0  0  0
 14 15  1  0  0  0  0
 14 36  1  0  0  0  0
 15 20  1  0  0  0  0
 15 16  2  0  0  0  0
 16 17  1  0  0  0  0
 16 37  1  0  0  0  0
 17 18  2  0  0  0  0
 17 38  1  0  0  0  0
 18 19  1  0  0  0  0
 18 39  1  0  0  0  0
 19 20  2  0  0  0  0
 20 40  1  0  0  0  0
M  END
> <s_m_source_file>
AV-unprocessed.smi

> <i_m_source_file_index>
1937

> <i_lp_mmshare_version>
43012

> <i_f3d_flags>
0

> <s_epik_input>
W2NIXTFuW2NIXVtjSF1bY0hdYzFbTkhdQyg9TylbTkhdW0NIMl1bQ0gyXU4yW0NIMl1bQ0gyXVtDSDJdW0NIMl1bQ0gyXUMyPU8=

> <s_epik_cmdline>
J2VwaWtfcHl0aG9uJywgJy1waCcsICc3LjAnLCAnLXRuJywgJzgnLCAnLW1hJywgJzIwMCcsICctbWV0YWxfYmluZGluZycsICctaW1hZScsICc8aW5maWxlLm1hZT4nLCAnLW9tYWUnLCAnPG91dGZpbGUubWFlPic=

> <r_epik_Ionization_Penalty>
0.00465308

> <r_epik_Ionization_Penalty_Charging>
0

> <r_epik_Ionization_Penalty_Neutral>
0.00465308

> <r_epik_State_Penalty>
0.00334133

> <r_epik_Charging_Adjusted_Penalty>
0.00334133

> <i_epik_Tot_Q>
0

> <i_epik_Tot_abs_Q>
0

> <r_epik_Metal_State_Penalty>
-0

> <b_epik_Metal_Only>
0

> <s_lp_Force_Field>
OPLS_2005

> <r_lp_Energy>
23.2929

> <b_lp_Chiralities_Consistent>
1

> <s_lp_Variant>
AV-unprocessed.smi:1937-1

> <Gold.Version>
5.8.1

> <Gold.Id.Protein>
6NUR|6NUR_protein|mol2

> <Gold.PLP.Fitness>
43.4445

> <Gold.PLP.PLP>
-35.8909

> <Gold.PLP.part.hbond>
-1.9397

> <Gold.PLP.part.metal>
0.0000

> <Gold.PLP.part.buried>
-4.5221

> <Gold.PLP.part.nonpolar>
-30.7609

> <Gold.PLP.part.repulsive>
1.3523

> <Gold.PLP.ligand.clash>
0.0000

> <Gold.PLP.ligand.torsion>
0.4839

> <Gold.PLP.Chemscore.Hbond>
1.8480

> <Gold.PLP.Chemscore.CHOScore>
0.9873

> <Gold.PLP.Chemscore.Metal>
0.0000

> <Gold.Chemscore.Hbonds>
donor molecule, donor type, donor heavy atom, donor atom, acceptor molecule, acceptor atom, score
      L1  H     3    21       P1  7948  0.93
      L1  H    14    36       P1  7948  0.82
      L1  C    18    39       P1 10952  0.96

> <Gold.PLP.Chemscore.Internal.Correction>
0.0154

> <Gold.Rescore>
     Score         DG    S(hbond)    S(metal)    S(lipo)     H(rot)  DE(clash)    DE(int)     intcor
     15.63     -17.56       1.88        0.00      82.96       1.52       0.10       1.84       ----

> <Gold.Chemscore.Fitness>
15.6250

> <Gold.Chemscore.DG>
-17.5635

> <Gold.Chemscore.ZeroCoef>
-5.4800

> <Gold.Chemscore.Hbond>
1.8764

> <Gold.Chemscore.Metal>
0.0000

> <Gold.Chemscore.Lipo>
82.9596

> <Gold.Chemscore.Internal_Hbond>
0.0000

> <Gold.Chemscore.DEClash>
0.0971

> <Gold.Chemscore.DEInternal>
1.8413

> <Gold.Chemscore.Rot>
1.5195

> <Gold.Chemscore.Internal.Correction>
   9.000000E+99

> <Gold.Chemscore.Hbonds>
donor molecule, donor type, donor heavy atom, donor atom, acceptor molecule, acceptor atom, score
      L1  H     3    21       P1  7948  0.88
      L1  H    14    36       P1  7948  0.78

> <Gold.Chemscore.Hbond.Weighted>
-6.2673

> <Gold.Chemscore.Metal.Weighted>
-0.0000

> <Gold.Chemscore.Lipo.Weighted>
-9.7063

> <Gold.Chemscore.Internal_Hbond.Weighted>
0.0000

> <Gold.Chemscore.DEClash.Weighted>
0.0971

> <Gold.Chemscore.DEInternal.Weighted>
1.8413

> <Gold.Chemscore.Rot.Weighted>
3.8900

> <Gold.Chemscore.Internal.Correction.Weighted>
   9.000000E+99

> <Gold.Protein.RotatedTorsions>
[ 6907 6896 6895 6894 ] final -133.86 input  -60.11 | X-H torsion
[ 7974 7965 7964 7962 ] final  153.77 input  175.53 | X-H torsion
[ 8008 7997 7996 7995 ] final -145.53 input   59.86 | X-H torsion
[ 10167 10162 10161 10158 ] final   -4.79 input  -65.29 | X-H torsion
[ 10718 10713 10712 10709 ] final   77.70 input   66.30 | X-H torsion
[ 10763 10752 10751 10750 ] final   61.62 input  -60.55 | X-H torsion
[ 11005 11000 10999 10996 ] final  166.06 input  -57.11 | X-H torsion

> <Gold.Protein.ActiveResidues>
 VAL166  LYS551  ARG553  GLY616  TRP617  ASP618  TYR619  PRO620  LYS621  CYS622 
 ASP623  PHE694  ASN695  SER759  ASP760  ASP761  ALA762  ILE779  LEU786  VAL792 
 PHE793  MET794  SER795  GLU796  ALA797  LYS798  CYS799  TRP800  GLU811  SER814 

> <Gold.Protein.RotatedAtoms>
  150.9791  133.6264  159.2725 H   0  0  0  0  0  0  0  0  0  0  0  0  # atno 6907 bound_to 6896
  151.3526  135.0886  159.9417 H   0  0  0  0  0  0  0  0  0  0  0  0  # atno 6908 bound_to 6896
  152.5209  133.9380  159.7667 H   0  0  0  0  0  0  0  0  0  0  0  0  # atno 6909 bound_to 6896
  144.8132  139.6845  143.6132 H   0  0  0  0  0  0  0  0  0  0  0  0  # atno 7974 bound_to 7965
  155.5447  140.0611  157.2862 H   0  0  0  0  0  0  0  0  0  0  0  0  # atno 8008 bound_to 7997
  154.4440  140.1913  156.0670 H   0  0  0  0  0  0  0  0  0  0  0  0  # atno 8009 bound_to 7997
  156.0559  140.3278  155.7409 H   0  0  0  0  0  0  0  0  0  0  0  0  # atno 8010 bound_to 7997
  140.6940  143.6382  150.8459 H   0  0  0  0  0  0  0  0  0  0  0  0  # atno 10167 bound_to 10162
  157.6719  130.9834  150.1679 H   0  0  0  0  0  0  0  0  0  0  0  0  # atno 10718 bound_to 10713
  152.9956  135.5494  154.6062 H   0  0  0  0  0  0  0  0  0  0  0  0  # atno 10763 bound_to 10752
  154.5393  135.2818  155.1112 H   0  0  0  0  0  0  0  0  0  0  0  0  # atno 10764 bound_to 10752
  154.2396  135.6419  153.5255 H   0  0  0  0  0  0  0  0  0  0  0  0  # atno 10765 bound_to 10752
  140.2626  134.7890  157.3603 H   0  0  0  0  0  0  0  0  0  0  0  0  # atno 11005 bound_to 11000
  146.2433  139.6046  142.9477 LP  0  0  0  0  0  0  0  0  0  0  0  0  # atno 17320 bound_to 7965
  145.5275  141.0429  143.2401 LP  0  0  0  0  0  0  0  0  0  0  0  0  # atno 17321 bound_to 7965
  140.0098  143.5654  152.2843 LP  0  0  0  0  0  0  0  0  0  0  0  0  # atno 17342 bound_to 10162
  139.6374  144.7651  151.2409 LP  0  0  0  0  0  0  0  0  0  0  0  0  # atno 17343 bound_to 10162
  156.2440  130.3694  149.8305 LP  0  0  0  0  0  0  0  0  0  0  0  0  # atno 17370 bound_to 10713
  156.6097  130.8581  151.3451 LP  0  0  0  0  0  0  0  0  0  0  0  0  # atno 17371 bound_to 10713
  140.1450  134.4923  155.8003 LP  0  0  0  0  0  0  0  0  0  0  0  0  # atno 17394 bound_to 11000
  141.2188  133.6840  156.7278 LP  0  0  0  0  0  0  0  0  0  0  0  0  # atno 17395 bound_to 11000

$$$$
