AV-unprocessed.smi:3188|AV-procd|sdf|12183|dock6
  -GOLD-   2272018 23D 1   1.00000     0.00000
 Structure written by MMmdl.
 40 41  0  0  0  0  0  0  0  0  2 V2000
  151.2910  145.5375  158.0589 C   0  0  0  0  0  0  0  0  0  0  0  0
  151.6675  144.5363  159.1388 C   0  0  0  0  0  0  0  0  0  0  0  0
  151.9131  144.9434  160.3999 C   0  0  0  0  0  0  0  0  0  0  0  0
  152.3526  144.0346  161.5344 C   0  0  0  0  0  0  0  0  0  0  0  0
  152.3163  142.5433  161.1624 C   0  0  0  0  0  0  0  0  0  0  0  0
  152.7486  142.3166  159.7034 C   0  0  1  0  0  0  0  0  0  0  0  0
  152.9466  140.8246  159.3840 C   0  0  0  0  0  0  0  0  0  0  0  0
  151.8055  143.0661  158.7196 C   0  0  1  0  0  0  0  0  0  0  0  0
  150.4291  142.3693  158.5530 C   0  0  0  0  0  0  0  0  0  0  0  0
  149.9279  142.4043  157.1651 N   0  3  0  0  0  0  0  0  0  0  0  0
  150.8273  141.7674  156.1839 C   0  0  0  0  0  0  0  0  0  0  0  0
  150.0639  140.7653  155.3065 C   0  0  0  0  0  0  0  0  0  0  0  0
  150.8687  139.5992  154.9982 N   0  0  0  0  0  0  0  0  0  0  0  0
  150.6811  138.6623  154.0031 C   0  0  0  0  0  0  0  0  0  0  0  0
  151.7258  137.8001  154.1787 C   0  0  0  0  0  0  0  0  0  0  0  0
  152.4928  138.2414  155.2556 N   0  0  0  0  0  0  0  0  0  0  0  0
  151.9664  139.3213  155.7414 N   0  0  0  0  0  0  0  0  0  0  0  0
  151.9035  145.3902  157.1691 H   0  0  0  0  0  0  0  0  0  0  0  0
  151.4492  146.5605  158.4023 H   0  0  0  0  0  0  0  0  0  0  0  0
  150.2422  145.4506  157.7802 H   0  0  0  0  0  0  0  0  0  0  0  0
  151.8306  145.9917  160.6484 H   0  0  0  0  0  0  0  0  0  0  0  0
  153.3702  144.3197  161.8037 H   0  0  0  0  0  0  0  0  0  0  0  0
  151.7318  144.2187  162.4115 H   0  0  0  0  0  0  0  0  0  0  0  0
  152.9618  141.9870  161.8432 H   0  0  0  0  0  0  0  0  0  0  0  0
  151.3104  142.1513  161.3146 H   0  0  0  0  0  0  0  0  0  0  0  0
  153.7351  142.7712  159.5950 H   0  0  0  0  0  0  0  0  0  0  0  0
  152.0542  140.2371  159.5996 H   0  0  0  0  0  0  0  0  0  0  0  0
  153.7558  140.4070  159.9840 H   0  0  0  0  0  0  0  0  0  0  0  0
  153.2077  140.6765  158.3359 H   0  0  0  0  0  0  0  0  0  0  0  0
  152.3025  143.0559  157.7483 H   0  0  0  0  0  0  0  0  0  0  0  0
  150.4932  141.3193  158.8353 H   0  0  0  0  0  0  0  0  0  0  0  0
  149.6901  142.8310  159.2086 H   0  0  0  0  0  0  0  0  0  0  0  0
  149.0363  141.9302  157.1374 H   0  0  0  0  0  0  0  0  0  0  0  0
  151.2828  142.5375  155.5596 H   0  0  0  0  0  0  0  0  0  0  0  0
  151.6355  141.2631  156.7160 H   0  0  0  0  0  0  0  0  0  0  0  0
  149.1505  140.4358  155.8046 H   0  0  0  0  0  0  0  0  0  0  0  0
  149.7622  141.2345  154.3690 H   0  0  0  0  0  0  0  0  0  0  0  0
  149.8655  138.6882  153.2954 H   0  0  0  0  0  0  0  0  0  0  0  0
  151.9872  136.9091  153.6269 H   0  0  0  0  0  0  0  0  0  0  0  0
  149.7897  143.3686  156.8981 H   0  0  0  0  0  0  0  0  0  0  0  0
  1  2  1  0  0  0  0
  1 18  1  0  0  0  0
  1 19  1  0  0  0  0
  1 20  1  0  0  0  0
  2  8  1  0  0  0  0
  2  3  2  0  0  0  0
  3  4  1  0  0  0  0
  3 21  1  0  0  0  0
  4  5  1  0  0  0  0
  4 22  1  0  0  0  0
  4 23  1  0  0  0  0
  5  6  1  0  0  0  0
  5 24  1  0  0  0  0
  5 25  1  0  0  0  0
  6  7  1  0  0  0  0
  6  8  1  0  0  0  0
  6 26  1  0  0  0  0
  7 27  1  0  0  0  0
  7 28  1  0  0  0  0
  7 29  1  0  0  0  0
  8  9  1  0  0  0  0
  8 30  1  0  0  0  0
  9 10  1  0  0  0  0
  9 31  1  0  0  0  0
  9 32  1  0  0  0  0
 10 11  1  0  0  0  0
 10 33  1  0  0  0  0
 10 40  1  0  0  0  0
 11 12  1  0  0  0  0
 11 34  1  0  0  0  0
 11 35  1  0  0  0  0
 12 13  1  0  0  0  0
 12 36  1  0  0  0  0
 12 37  1  0  0  0  0
 13 17  1  0  0  0  0
 13 14  1  0  0  0  0
 14 15  2  0  0  0  0
 14 38  1  0  0  0  0
 15 16  1  0  0  0  0
 15 39  1  0  0  0  0
 16 17  2  0  0  0  0
M  CHG  1  10   1
M  END
> <s_m_source_file>
AV-unprocessed.smi

> <i_m_source_file_index>
3188

> <i_lp_mmshare_version>
43012

> <i_f3d_flags>
0

> <s_epik_input>
W0NIM11DMT1bQ0hdW0NIMl1bQ0gyXVtDQEBIXShbQ0gzXSlbQ0BIXTFbQ0gyXVtOSF1bQ0gyXVtDSDJdbjJbY0hdW2NIXW5uMg==

> <s_epik_cmdline>
J2VwaWtfcHl0aG9uJywgJy1waCcsICc3LjAnLCAnLXRuJywgJzgnLCAnLW1hJywgJzIwMCcsICctbWV0YWxfYmluZGluZycsICctaW1hZScsICc8aW5maWxlLm1hZT4nLCAnLW9tYWUnLCAnPG91dGZpbGUubWFlPic=

> <r_lp_tautomer_probability>
1

> <r_epik_Ionization_Penalty>
0.007268

> <r_epik_Ionization_Penalty_Charging>
0.00726786

> <r_epik_Ionization_Penalty_Neutral>
1.34882e-07

> <r_epik_State_Penalty>
0.00542069

> <r_epik_Charging_Adjusted_Penalty>
0.0126886

> <i_epik_Tot_Q>
1

> <i_epik_Tot_abs_Q>
1

> <r_epik_Metal_State_Penalty>
-0

> <b_epik_Metal_Only>
0

> <s_lp_Force_Field>
OPLS_2005

> <r_lp_Energy>
14.7496

> <b_lp_Chiralities_Consistent>
1

> <s_lp_Variant>
AV-unprocessed.smi:3188-1

> <Gold.Version>
5.8.1

> <Gold.Id.Protein>
6NUR|6NUR_protein|mol2

> <Gold.PLP.Fitness>
48.7783

> <Gold.PLP.PLP>
-39.5113

> <Gold.PLP.part.hbond>
-1.0000

> <Gold.PLP.part.metal>
0.0000

> <Gold.PLP.part.buried>
-3.3226

> <Gold.PLP.part.nonpolar>
-34.2168

> <Gold.PLP.part.repulsive>
0.0358

> <Gold.PLP.ligand.clash>
0.0000

> <Gold.PLP.ligand.torsion>
1.3364

> <Gold.PLP.Chemscore.Hbond>
1.9666

> <Gold.PLP.Chemscore.CHOScore>
1.9942

> <Gold.PLP.Chemscore.Metal>
0.0000

> <Gold.Chemscore.Hbonds>
donor molecule, donor type, donor heavy atom, donor atom, acceptor molecule, acceptor atom, score
      L1  H    10    40       P1  8028  1.97
      L1  C    14    38       P1  7957  0.99
      L1  C    15    39       P1  7949  1.00

> <Gold.PLP.Chemscore.Internal.Correction>
0.0573

> <Gold.Rescore>
     Score         DG    S(hbond)    S(metal)    S(lipo)     H(rot)  DE(clash)    DE(int)     intcor
     15.91     -19.85       0.96        0.00     134.34       1.78       2.64       1.30       ----

> <Gold.Chemscore.Fitness>
15.9093

> <Gold.Chemscore.DG>
-19.8519

> <Gold.Chemscore.ZeroCoef>
-5.4800

> <Gold.Chemscore.Hbond>
0.9620

> <Gold.Chemscore.Metal>
0.0000

> <Gold.Chemscore.Lipo>
134.3392

> <Gold.Chemscore.Internal_Hbond>
0.0000

> <Gold.Chemscore.DEClash>
2.6376

> <Gold.Chemscore.DEInternal>
1.3050

> <Gold.Chemscore.Rot>
1.7809

> <Gold.Chemscore.Internal.Correction>
   9.000000E+99

> <Gold.Chemscore.Hbonds>
donor molecule, donor type, donor heavy atom, donor atom, acceptor molecule, acceptor atom, score
      L1  H    10    40       P1  8028  0.86

> <Gold.Chemscore.Hbond.Weighted>
-3.2132

> <Gold.Chemscore.Metal.Weighted>
-0.0000

> <Gold.Chemscore.Lipo.Weighted>
-15.7177

> <Gold.Chemscore.Internal_Hbond.Weighted>
0.0000

> <Gold.Chemscore.DEClash.Weighted>
2.6376

> <Gold.Chemscore.DEInternal.Weighted>
1.3050

> <Gold.Chemscore.Rot.Weighted>
4.5590

> <Gold.Chemscore.Internal.Correction.Weighted>
   9.000000E+99

> <Gold.Protein.RotatedTorsions>
[ 6907 6896 6895 6894 ] final -113.21 input  -60.11 | X-H torsion
[ 7974 7965 7964 7962 ] final   75.27 input  175.53 | X-H torsion
[ 8008 7997 7996 7995 ] final -152.21 input   59.86 | X-H torsion
[ 10167 10162 10161 10158 ] final -113.54 input  -65.29 | X-H torsion
[ 10718 10713 10712 10709 ] final  115.94 input   66.30 | X-H torsion
[ 10763 10752 10751 10750 ] final  173.11 input  -60.55 | X-H torsion
[ 11005 11000 10999 10996 ] final  177.97 input  -57.11 | X-H torsion

> <Gold.Protein.ActiveResidues>
 VAL166  LYS551  ARG553  GLY616  TRP617  ASP618  TYR619  PRO620  LYS621  CYS622 
 ASP623  PHE694  ASN695  SER759  ASP760  ASP761  ALA762  ILE779  LEU786  VAL792 
 PHE793  MET794  SER795  GLU796  ALA797  LYS798  CYS799  TRP800  GLU811  SER814 

> <Gold.Protein.RotatedAtoms>
  150.7813  133.8977  159.3331 H   0  0  0  0  0  0  0  0  0  0  0  0  # atno 6907 bound_to 6896
  151.6839  135.0955  160.0230 H   0  0  0  0  0  0  0  0  0  0  0  0  # atno 6908 bound_to 6896
  152.3865  133.6580  159.6238 H   0  0  0  0  0  0  0  0  0  0  0  0  # atno 6909 bound_to 6896
  145.7177  139.2637  143.1614 H   0  0  0  0  0  0  0  0  0  0  0  0  # atno 7974 bound_to 7965
  155.6515  140.0712  157.2585 H   0  0  0  0  0  0  0  0  0  0  0  0  # atno 8008 bound_to 7997
  154.4161  140.1732  156.1730 H   0  0  0  0  0  0  0  0  0  0  0  0  # atno 8009 bound_to 7997
  155.9772  140.3357  155.6633 H   0  0  0  0  0  0  0  0  0  0  0  0  # atno 8010 bound_to 7997
  140.1107  143.4530  152.1754 H   0  0  0  0  0  0  0  0  0  0  0  0  # atno 10167 bound_to 10162
  157.6191  131.1019  150.7402 H   0  0  0  0  0  0  0  0  0  0  0  0  # atno 10718 bound_to 10713
  154.4355  135.2761  155.1883 H   0  0  0  0  0  0  0  0  0  0  0  0  # atno 10763 bound_to 10752
  154.3771  135.6096  153.5774 H   0  0  0  0  0  0  0  0  0  0  0  0  # atno 10764 bound_to 10752
  152.9838  135.5871  154.4674 H   0  0  0  0  0  0  0  0  0  0  0  0  # atno 10765 bound_to 10752
  140.3900  134.6871  157.4502 H   0  0  0  0  0  0  0  0  0  0  0  0  # atno 11005 bound_to 11000
  146.0654  140.7926  142.9714 LP  0  0  0  0  0  0  0  0  0  0  0  0  # atno 17320 bound_to 7965
  144.6925  140.3261  143.7224 LP  0  0  0  0  0  0  0  0  0  0  0  0  # atno 17321 bound_to 7965
  139.5621  144.7412  151.4126 LP  0  0  0  0  0  0  0  0  0  0  0  0  # atno 17342 bound_to 10162
  140.6927  143.7823  150.7280 LP  0  0  0  0  0  0  0  0  0  0  0  0  # atno 17343 bound_to 10162
  156.7763  130.4845  149.5409 LP  0  0  0  0  0  0  0  0  0  0  0  0  # atno 17370 bound_to 10713
  156.1327  130.6189  151.0357 LP  0  0  0  0  0  0  0  0  0  0  0  0  # atno 17371 bound_to 10713
  140.0414  134.6262  155.8976 LP  0  0  0  0  0  0  0  0  0  0  0  0  # atno 17394 bound_to 11000
  141.1894  133.6565  156.5366 LP  0  0  0  0  0  0  0  0  0  0  0  0  # atno 17395 bound_to 11000

$$$$
