AV-unprocessed.smi:1753|AV-procd|sdf|7062|dock1
  -GOLD-   22720 8283D 1   1.00000     0.00000
 Structure written by MMmdl.
 37 38  0  0  0  0  0  0  0  0  1 V2000
  147.0301  128.6877  152.4658 C   0  0  0  0  0  0  0  0  0  0  0  0
  147.3072  130.1618  152.4936 C   0  0  0  0  0  0  0  0  0  0  0  0
  148.2503  130.8625  153.3005 C   0  0  0  0  0  0  0  0  0  0  0  0
  148.0717  132.1621  152.9120 C   0  0  0  0  0  0  0  0  0  0  0  0
  148.7059  133.2813  153.3518 N   0  0  0  0  0  0  0  0  0  0  0  0
  149.4320  133.4511  154.4704 C   0  0  0  0  0  0  0  0  0  0  0  0
  149.6639  132.5827  155.3116 O   0  0  0  0  0  0  0  0  0  0  0  0
  149.8832  134.7098  154.5672 N   0  0  0  0  0  0  0  0  0  0  0  0
  150.6919  135.2283  155.6659 C   0  0  0  0  0  0  0  0  0  0  0  0
  150.5839  136.7603  155.8064 C   0  0  2  0  0  0  0  0  0  0  0  0
  151.4641  137.5357  154.8036 C   0  0  0  0  0  0  0  0  0  0  0  0
  151.5032  139.0073  155.2251 C   0  0  0  0  0  0  0  0  0  0  0  0
  151.4626  138.9939  157.0551 S   0  0  0  0  0  0  0  0  0  0  0  0
  152.8308  139.1354  157.5756 O   0  0  0  0  0  0  0  0  0  0  0  0
  150.3811  139.8767  157.5180 O   0  0  0  0  0  0  0  0  0  0  0  0
  150.9436  137.2428  157.2210 C   0  0  0  0  0  0  0  0  0  0  0  0
  147.0920  132.2071  151.9452 N   0  0  0  0  0  0  0  0  0  0  0  0
  146.5533  133.3492  151.2328 C   0  0  0  0  0  0  0  0  0  0  0  0
  146.6218  130.9672  151.6898 N   0  0  0  0  0  0  0  0  0  0  0  0
  147.6361  128.1590  153.2018 H   0  0  0  0  0  0  0  0  0  0  0  0
  147.2545  128.2649  151.4864 H   0  0  0  0  0  0  0  0  0  0  0  0
  145.9831  128.4802  152.6883 H   0  0  0  0  0  0  0  0  0  0  0  0
  148.9317  130.4588  154.0341 H   0  0  0  0  0  0  0  0  0  0  0  0
  148.6096  134.0907  152.7566 H   0  0  0  0  0  0  0  0  0  0  0  0
  149.6491  135.3584  153.8299 H   0  0  0  0  0  0  0  0  0  0  0  0
  150.4001  134.7417  156.5982 H   0  0  0  0  0  0  0  0  0  0  0  0
  151.7279  134.9426  155.4824 H   0  0  0  0  0  0  0  0  0  0  0  0
  149.5500  137.0567  155.6226 H   0  0  0  0  0  0  0  0  0  0  0  0
  152.4776  137.1334  154.8297 H   0  0  0  0  0  0  0  0  0  0  0  0
  151.1048  137.4305  153.7793 H   0  0  0  0  0  0  0  0  0  0  0  0
  152.3887  139.5339  154.8687 H   0  0  0  0  0  0  0  0  0  0  0  0
  150.6159  139.5334  154.8719 H   0  0  0  0  0  0  0  0  0  0  0  0
  150.1103  137.1634  157.9193 H   0  0  0  0  0  0  0  0  0  0  0  0
  151.7884  136.6852  157.6264 H   0  0  0  0  0  0  0  0  0  0  0  0
  147.3620  133.8860  150.7358 H   0  0  0  0  0  0  0  0  0  0  0  0
  146.0594  134.0195  151.9368 H   0  0  0  0  0  0  0  0  0  0  0  0
  145.8296  133.0277  150.4821 H   0  0  0  0  0  0  0  0  0  0  0  0
  1  2  1  0  0  0  0
  1 20  1  0  0  0  0
  1 21  1  0  0  0  0
  1 22  1  0  0  0  0
  2 19  2  0  0  0  0
  2  3  1  0  0  0  0
  3  4  2  0  0  0  0
  3 23  1  0  0  0  0
  4  5  1  0  0  0  0
  4 17  1  0  0  0  0
  5  6  1  0  0  0  0
  5 24  1  0  0  0  0
  6  7  2  0  0  0  0
  6  8  1  0  0  0  0
  8  9  1  0  0  0  0
  8 25  1  0  0  0  0
  9 10  1  0  0  0  0
  9 26  1  0  0  0  0
  9 27  1  0  0  0  0
 10 16  1  0  0  0  0
 10 11  1  0  0  0  0
 10 28  1  0  0  0  0
 11 12  1  0  0  0  0
 11 29  1  0  0  0  0
 11 30  1  0  0  0  0
 12 13  1  0  0  0  0
 12 31  1  0  0  0  0
 12 32  1  0  0  0  0
 13 14  2  0  0  0  0
 13 15  2  0  0  0  0
 13 16  1  0  0  0  0
 16 33  1  0  0  0  0
 16 34  1  0  0  0  0
 17 18  1  0  0  0  0
 17 19  1  0  0  0  0
 18 35  1  0  0  0  0
 18 36  1  0  0  0  0
 18 37  1  0  0  0  0
M  END
> <s_m_source_file>
AV-unprocessed.smi

> <i_m_source_file_index>
1753

> <i_lp_mmshare_version>
43012

> <i_f3d_flags>
0

> <s_epik_input>
W0NIM11jMVtjSF1jKG4objEpW0NIM10pW05IXUMoPU8pW05IXVtDSDJdW0NAQEhdKFtDSDJdMilbQ0gyXVtDSDJdUzIoPU8pPU8=

> <s_epik_cmdline>
J2VwaWtfcHl0aG9uJywgJy1waCcsICc3LjAnLCAnLXRuJywgJzgnLCAnLW1hJywgJzIwMCcsICctbWV0YWxfYmluZGluZycsICctaW1hZScsICc8aW5maWxlLm1hZT4nLCAnLW9tYWUnLCAnPG91dGZpbGUubWFlPic=

> <r_lp_tautomer_probability>
1

> <r_epik_Ionization_Penalty>
9.06651e-05

> <r_epik_Ionization_Penalty_Charging>
0

> <r_epik_Ionization_Penalty_Neutral>
9.06651e-05

> <r_epik_State_Penalty>
-0

> <r_epik_Charging_Adjusted_Penalty>
0

> <i_epik_Tot_Q>
0

> <i_epik_Tot_abs_Q>
0

> <r_epik_Metal_State_Penalty>
-0

> <b_epik_Metal_Only>
0

> <s_lp_Force_Field>
OPLS_2005

> <r_lp_Energy>
5.34898

> <b_lp_Chiralities_Consistent>
1

> <s_lp_Variant>
AV-unprocessed.smi:1753-1

> <Gold.Version>
5.8.1

> <Gold.Id.Protein>
6NUR|6NUR_protein|mol2

> <Gold.PLP.Fitness>
39.2997

> <Gold.PLP.PLP>
-31.1716

> <Gold.PLP.part.hbond>
-3.0108

> <Gold.PLP.part.metal>
0.0000

> <Gold.PLP.part.buried>
-2.4871

> <Gold.PLP.part.nonpolar>
-24.8716

> <Gold.PLP.part.repulsive>
0.1904

> <Gold.PLP.ligand.clash>
0.0000

> <Gold.PLP.ligand.torsion>
0.4383

> <Gold.PLP.Chemscore.Hbond>
3.0000

> <Gold.PLP.Chemscore.CHOScore>
0.0000

> <Gold.PLP.Chemscore.Metal>
0.0000

> <Gold.Chemscore.Hbonds>
donor molecule, donor type, donor heavy atom, donor atom, acceptor molecule, acceptor atom, score
      L1  H     5    24       P1  7948  0.18
      L1  H     8    25       P1  7948  0.42
      P1  H  7997  8008       L1    14  1.00

> <Gold.PLP.Chemscore.Internal.Correction>
0.0047

> <Gold.Rescore>
     Score         DG    S(hbond)    S(metal)    S(lipo)     H(rot)  DE(clash)    DE(int)     intcor
     15.54     -16.83       2.58        0.00      51.90       1.31       0.00       1.29       ----

> <Gold.Chemscore.Fitness>
15.5404

> <Gold.Chemscore.DG>
-16.8261

> <Gold.Chemscore.ZeroCoef>
-5.4800

> <Gold.Chemscore.Hbond>
2.5816

> <Gold.Chemscore.Metal>
0.0000

> <Gold.Chemscore.Lipo>
51.8966

> <Gold.Chemscore.Internal_Hbond>
0.0000

> <Gold.Chemscore.DEClash>
0.0000

> <Gold.Chemscore.DEInternal>
1.2857

> <Gold.Chemscore.Rot>
1.3080

> <Gold.Chemscore.Internal.Correction>
   9.000000E+99

> <Gold.Chemscore.Hbonds>
donor molecule, donor type, donor heavy atom, donor atom, acceptor molecule, acceptor atom, score
      L1  H     5    24       P1  7948  0.01
      L1  H     8    25       P1  7948  0.06
      P1  H  7997  8008       L1    14  0.94

> <Gold.Chemscore.Hbond.Weighted>
-8.6227

> <Gold.Chemscore.Metal.Weighted>
-0.0000

> <Gold.Chemscore.Lipo.Weighted>
-6.0719

> <Gold.Chemscore.Internal_Hbond.Weighted>
0.0000

> <Gold.Chemscore.DEClash.Weighted>
0.0000

> <Gold.Chemscore.DEInternal.Weighted>
1.2857

> <Gold.Chemscore.Rot.Weighted>
3.3485

> <Gold.Chemscore.Internal.Correction.Weighted>
   9.000000E+99

> <Gold.Protein.RotatedTorsions>
[ 6907 6896 6895 6894 ] final -120.49 input  -60.11 | X-H torsion
[ 7974 7965 7964 7962 ] final  -90.69 input  175.53 | X-H torsion
[ 8008 7997 7996 7995 ] final  -65.44 input   59.86 | X-H torsion
[ 10167 10162 10161 10158 ] final  -13.46 input  -65.29 | X-H torsion
[ 10718 10713 10712 10709 ] final   -4.14 input   66.30 | X-H torsion
[ 10763 10752 10751 10750 ] final  168.89 input  -60.55 | X-H torsion
[ 11005 11000 10999 10996 ] final -158.23 input  -57.11 | X-H torsion

> <Gold.Protein.ActiveResidues>
 VAL166  LYS551  ARG553  GLY616  TRP617  ASP618  TYR619  PRO620  LYS621  CYS622 
 ASP623  PHE694  ASN695  SER759  ASP760  ASP761  ALA762  ILE779  LEU786  VAL792 
 PHE793  MET794  SER795  GLU796  ALA797  LYS798  CYS799  TRP800  GLU811  SER814 

> <Gold.Protein.RotatedAtoms>
  150.8398  133.7954  159.3065 H   0  0  0  0  0  0  0  0  0  0  0  0  # atno 6907 bound_to 6896
  151.5659  135.1062  159.9993 H   0  0  0  0  0  0  0  0  0  0  0  0  # atno 6908 bound_to 6896
  152.4464  133.7502  159.6746 H   0  0  0  0  0  0  0  0  0  0  0  0  # atno 6909 bound_to 6896
  145.4231  140.9552  143.2170 H   0  0  0  0  0  0  0  0  0  0  0  0  # atno 7974 bound_to 7965
  154.4672  140.0933  156.7051 H   0  0  0  0  0  0  0  0  0  0  0  0  # atno 8008 bound_to 7997
  155.4825  140.3468  155.4323 H   0  0  0  0  0  0  0  0  0  0  0  0  # atno 8009 bound_to 7997
  156.0977  140.1414  156.9498 H   0  0  0  0  0  0  0  0  0  0  0  0  # atno 8010 bound_to 7997
  140.7182  143.5424  150.9394 H   0  0  0  0  0  0  0  0  0  0  0  0  # atno 10167 bound_to 10162
  156.7656  130.5283  149.5777 H   0  0  0  0  0  0  0  0  0  0  0  0  # atno 10718 bound_to 10713
  154.3752  135.2753  155.2243 H   0  0  0  0  0  0  0  0  0  0  0  0  # atno 10763 bound_to 10752
  154.4374  135.5962  153.6111 H   0  0  0  0  0  0  0  0  0  0  0  0  # atno 10764 bound_to 10752
  152.9836  135.6010  154.3988 H   0  0  0  0  0  0  0  0  0  0  0  0  # atno 10765 bound_to 10752
  140.6559  134.4401  157.5235 H   0  0  0  0  0  0  0  0  0  0  0  0  # atno 11005 bound_to 11000
  144.8232  139.5755  143.6977 LP  0  0  0  0  0  0  0  0  0  0  0  0  # atno 17320 bound_to 7965
  146.2646  139.6490  142.9338 LP  0  0  0  0  0  0  0  0  0  0  0  0  # atno 17321 bound_to 7965
  139.9147  143.6678  152.3108 LP  0  0  0  0  0  0  0  0  0  0  0  0  # atno 17342 bound_to 10162
  139.7073  144.7626  151.1171 LP  0  0  0  0  0  0  0  0  0  0  0  0  # atno 17343 bound_to 10162
  156.1311  130.6178  151.0334 LP  0  0  0  0  0  0  0  0  0  0  0  0  # atno 17370 bound_to 10713
  157.6714  131.0860  150.7602 LP  0  0  0  0  0  0  0  0  0  0  0  0  # atno 17371 bound_to 10713
  139.9029  134.8514  156.1820 LP  0  0  0  0  0  0  0  0  0  0  0  0  # atno 17394 bound_to 11000
  141.0502  133.6893  156.1757 LP  0  0  0  0  0  0  0  0  0  0  0  0  # atno 17395 bound_to 11000

$$$$
