AV-unprocessed.smi:1616|AV-procd|sdf|6482|dock10
  -GOLD-   22720 7143D 1   1.00000     0.00000
 Structure written by MMmdl.
 38 39  0  0  0  0  0  0  0  0  1 V2000
  149.8203  128.4480  154.2173 C   0  0  0  0  0  0  0  0  0  0  0  0
  150.0814  129.8701  154.6346 C   0  0  0  0  0  0  0  0  0  0  0  0
  149.5797  130.7961  153.8856 N   0  0  0  0  0  0  0  0  0  0  0  0
  149.7649  132.1343  154.1743 N   0  0  0  0  0  0  0  0  0  0  0  0
  149.1438  133.0467  153.2027 C   0  0  0  0  0  0  0  0  0  0  0  0
  147.6258  132.8567  153.0629 C   0  0  0  0  0  0  0  0  0  0  0  0
  146.8617  133.1484  153.9845 O   0  0  0  0  0  0  0  0  0  0  0  0
  147.2051  132.3728  151.8840 N   0  0  0  0  0  0  0  0  0  0  0  0
  145.8153  132.1214  151.5156 C   0  0  2  0  0  0  0  0  0  0  0  0
  145.7306  131.7698  150.0220 C   0  0  0  0  0  0  0  0  0  0  0  0
  144.9076  133.2903  151.8490 C   0  0  0  0  0  0  0  0  0  0  0  0
  143.4578  133.2968  151.4273 C   0  0  0  0  0  0  0  0  0  0  0  0
  144.4402  134.2444  150.7760 C   0  0  0  0  0  0  0  0  0  0  0  0
  150.4658  132.6082  155.2448 C   0  0  0  0  0  0  0  0  0  0  0  0
  150.6066  133.8124  155.4635 O   0  0  0  0  0  0  0  0  0  0  0  0
  151.0280  131.5533  156.0914 C   0  0  0  0  0  0  0  0  0  0  0  0
  151.7711  132.0051  157.2232 C   0  0  0  0  0  0  0  0  0  0  0  0
  152.3912  132.3604  158.1341 N   0  0  0  0  0  0  0  0  0  0  0  0
  150.8554  130.2360  155.8164 C   0  0  0  0  0  0  0  0  0  0  0  0
  151.4207  129.1020  156.6610 C   0  0  0  0  0  0  0  0  0  0  0  0
  149.2557  127.9172  154.9842 H   0  0  0  0  0  0  0  0  0  0  0  0
  150.7571  127.9143  154.0553 H   0  0  0  0  0  0  0  0  0  0  0  0
  149.2473  128.3945  153.2900 H   0  0  0  0  0  0  0  0  0  0  0  0
  149.3290  134.0830  153.4915 H   0  0  0  0  0  0  0  0  0  0  0  0
  149.6128  132.9297  152.2238 H   0  0  0  0  0  0  0  0  0  0  0  0
  147.9026  132.1639  151.1845 H   0  0  0  0  0  0  0  0  0  0  0  0
  145.4535  131.2618  152.0831 H   0  0  0  0  0  0  0  0  0  0  0  0
  144.7041  131.5453  149.7302 H   0  0  0  0  0  0  0  0  0  0  0  0
  146.3359  130.8942  149.7852 H   0  0  0  0  0  0  0  0  0  0  0  0
  146.0802  132.5944  149.3997 H   0  0  0  0  0  0  0  0  0  0  0  0
  145.1205  133.7432  152.8158 H   0  0  0  0  0  0  0  0  0  0  0  0
  143.0985  132.4592  150.8327 H   0  0  0  0  0  0  0  0  0  0  0  0
  142.7347  133.7199  152.1214 H   0  0  0  0  0  0  0  0  0  0  0  0
  144.3713  135.2984  151.0367 H   0  0  0  0  0  0  0  0  0  0  0  0
  144.7316  134.0357  149.7485 H   0  0  0  0  0  0  0  0  0  0  0  0
  151.9469  129.4665  157.5427 H   0  0  0  0  0  0  0  0  0  0  0  0
  152.1267  128.5087  156.0794 H   0  0  0  0  0  0  0  0  0  0  0  0
  150.6220  128.4452  157.0072 H   0  0  0  0  0  0  0  0  0  0  0  0
  1  2  1  0  0  0  0
  1 21  1  0  0  0  0
  1 22  1  0  0  0  0
  1 23  1  0  0  0  0
  2 19  1  0  0  0  0
  2  3  2  0  0  0  0
  3  4  1  0  0  0  0
  4  5  1  0  0  0  0
  4 14  1  0  0  0  0
  5  6  1  0  0  0  0
  5 24  1  0  0  0  0
  5 25  1  0  0  0  0
  6  7  2  0  0  0  0
  6  8  1  0  0  0  0
  8  9  1  0  0  0  0
  8 26  1  0  0  0  0
  9 10  1  0  0  0  0
  9 11  1  0  0  0  0
  9 27  1  0  0  0  0
 10 28  1  0  0  0  0
 10 29  1  0  0  0  0
 10 30  1  0  0  0  0
 11 13  1  0  0  0  0
 11 12  1  0  0  0  0
 11 31  1  0  0  0  0
 12 13  1  0  0  0  0
 12 32  1  0  0  0  0
 12 33  1  0  0  0  0
 13 34  1  0  0  0  0
 13 35  1  0  0  0  0
 14 15  2  0  0  0  0
 14 16  1  0  0  0  0
 16 17  1  0  0  0  0
 16 19  2  0  0  0  0
 17 18  3  0  0  0  0
 19 20  1  0  0  0  0
 20 36  1  0  0  0  0
 20 37  1  0  0  0  0
 20 38  1  0  0  0  0
M  END
> <s_m_source_file>
AV-unprocessed.smi

> <i_m_source_file_index>
1616

> <i_lp_mmshare_version>
43012

> <i_f3d_flags>
0

> <s_epik_input>
TiNDYyhjMVtDSDNdKWMoPU8pbihuYzFbQ0gzXSlbQ0gyXUMoPU8pW05IXVtDQEhdKFtDSDNdKVtDSF0yW0NIMl1bQ0gyXTI=

> <s_epik_cmdline>
J2VwaWtfcHl0aG9uJywgJy1waCcsICc3LjAnLCAnLXRuJywgJzgnLCAnLW1hJywgJzIwMCcsICctbWV0YWxfYmluZGluZycsICctaW1hZScsICc8aW5maWxlLm1hZT4nLCAnLW9tYWUnLCAnPG91dGZpbGUubWFlPic=

> <r_lp_tautomer_probability>
1

> <r_epik_Ionization_Penalty>
1.93246e-08

> <r_epik_Ionization_Penalty_Charging>
2.27031e-11

> <r_epik_Ionization_Penalty_Neutral>
1.93019e-08

> <r_epik_State_Penalty>
-0

> <r_epik_Charging_Adjusted_Penalty>
2.27031e-11

> <i_epik_Tot_Q>
0

> <i_epik_Tot_abs_Q>
0

> <r_epik_Metal_State_Penalty>
-0

> <b_epik_Metal_Only>
0

> <s_lp_Force_Field>
OPLS_2005

> <r_lp_Energy>
28.018

> <b_lp_Chiralities_Consistent>
1

> <s_lp_Variant>
AV-unprocessed.smi:1616-1

> <Gold.Version>
5.8.1

> <Gold.Id.Protein>
6NUR|6NUR_protein|mol2

> <Gold.PLP.Fitness>
38.4442

> <Gold.PLP.PLP>
-32.9867

> <Gold.PLP.part.hbond>
-2.0000

> <Gold.PLP.part.metal>
0.0000

> <Gold.PLP.part.buried>
-4.5510

> <Gold.PLP.part.nonpolar>
-26.9182

> <Gold.PLP.part.repulsive>
0.2183

> <Gold.PLP.ligand.clash>
0.0000

> <Gold.PLP.ligand.torsion>
0.7670

> <Gold.PLP.Chemscore.Hbond>
1.9760

> <Gold.PLP.Chemscore.CHOScore>
0.0000

> <Gold.PLP.Chemscore.Metal>
0.0000

> <Gold.Chemscore.Hbonds>
donor molecule, donor type, donor heavy atom, donor atom, acceptor molecule, acceptor atom, score
      L1  H     8    26       P1 10747  0.99
      P1  H  6896  6908       L1    18  1.00

> <Gold.PLP.Chemscore.Internal.Correction>
1.0635

> <Gold.Rescore>
     Score         DG    S(hbond)    S(metal)    S(lipo)     H(rot)  DE(clash)    DE(int)     intcor
     13.87     -15.63       1.98        0.00      66.85       1.68       0.07       1.69       ----

> <Gold.Chemscore.Fitness>
13.8737

> <Gold.Chemscore.DG>
-15.6251

> <Gold.Chemscore.ZeroCoef>
-5.4800

> <Gold.Chemscore.Hbond>
1.9841

> <Gold.Chemscore.Metal>
0.0000

> <Gold.Chemscore.Lipo>
66.8474

> <Gold.Chemscore.Internal_Hbond>
0.0000

> <Gold.Chemscore.DEClash>
0.0659

> <Gold.Chemscore.DEInternal>
1.6855

> <Gold.Chemscore.Rot>
1.6809

> <Gold.Chemscore.Internal.Correction>
   9.000000E+99

> <Gold.Chemscore.Hbonds>
donor molecule, donor type, donor heavy atom, donor atom, acceptor molecule, acceptor atom, score
      L1  H     8    26       P1 10747  0.93
      P1  H  6896  6908       L1    18  0.98

> <Gold.Chemscore.Hbond.Weighted>
-6.6270

> <Gold.Chemscore.Metal.Weighted>
-0.0000

> <Gold.Chemscore.Lipo.Weighted>
-7.8211

> <Gold.Chemscore.Internal_Hbond.Weighted>
0.0000

> <Gold.Chemscore.DEClash.Weighted>
0.0659

> <Gold.Chemscore.DEInternal.Weighted>
1.6855

> <Gold.Chemscore.Rot.Weighted>
4.3030

> <Gold.Chemscore.Internal.Correction.Weighted>
   9.000000E+99

> <Gold.Protein.RotatedTorsions>
[ 6907 6896 6895 6894 ] final   34.15 input  -60.11 | X-H torsion
[ 7974 7965 7964 7962 ] final  -61.59 input  175.53 | X-H torsion
[ 8008 7997 7996 7995 ] final  -44.42 input   59.86 | X-H torsion
[ 10167 10162 10161 10158 ] final   96.85 input  -65.29 | X-H torsion
[ 10718 10713 10712 10709 ] final -134.61 input   66.30 | X-H torsion
[ 10763 10752 10751 10750 ] final  -10.34 input  -60.55 | X-H torsion
[ 11005 11000 10999 10996 ] final  -96.59 input  -57.11 | X-H torsion

> <Gold.Protein.ActiveResidues>
 VAL166  LYS551  ARG553  GLY616  TRP617  ASP618  TYR619  PRO620  LYS621  CYS622 
 ASP623  PHE694  ASN695  SER759  ASP760  ASP761  ALA762  ILE779  LEU786  VAL792 
 PHE793  MET794  SER795  GLU796  ALA797  LYS798  CYS799  TRP800  GLU811  SER814 

> <Gold.Protein.RotatedAtoms>
  152.0984  134.9359  160.0569 H   0  0  0  0  0  0  0  0  0  0  0  0  # atno 6907 bound_to 6896
  152.0583  133.4045  159.4415 H   0  0  0  0  0  0  0  0  0  0  0  0  # atno 6908 bound_to 6896
  150.6838  134.3150  159.4806 H   0  0  0  0  0  0  0  0  0  0  0  0  # atno 6909 bound_to 6896
  145.8017  140.8651  143.0228 H   0  0  0  0  0  0  0  0  0  0  0  0  # atno 7974 bound_to 7965
  154.3997  140.1423  156.3679 H   0  0  0  0  0  0  0  0  0  0  0  0  # atno 8008 bound_to 7997
  155.8120  140.3472  155.5442 H   0  0  0  0  0  0  0  0  0  0  0  0  # atno 8009 bound_to 7997
  155.8377  140.0922  157.1744 H   0  0  0  0  0  0  0  0  0  0  0  0  # atno 8010 bound_to 7997
  139.7856  144.6872  150.9962 H   0  0  0  0  0  0  0  0  0  0  0  0  # atno 10167 bound_to 10162
  156.2573  130.7189  151.1110 H   0  0  0  0  0  0  0  0  0  0  0  0  # atno 10718 bound_to 10713
  153.4678  135.7016  153.6011 H   0  0  0  0  0  0  0  0  0  0  0  0  # atno 10763 bound_to 10752
  153.4278  135.3810  155.2152 H   0  0  0  0  0  0  0  0  0  0  0  0  # atno 10764 bound_to 10752
  154.8726  135.3943  154.4112 H   0  0  0  0  0  0  0  0  0  0  0  0  # atno 10765 bound_to 10752
  141.1406  133.8108  157.0591 H   0  0  0  0  0  0  0  0  0  0  0  0  # atno 11005 bound_to 11000
  144.6768  140.0268  143.7483 LP  0  0  0  0  0  0  0  0  0  0  0  0  # atno 17320 bound_to 7965
  145.9871  139.2986  143.1007 LP  0  0  0  0  0  0  0  0  0  0  0  0  # atno 17321 bound_to 7965
  140.7819  143.4436  151.0516 LP  0  0  0  0  0  0  0  0  0  0  0  0  # atno 17342 bound_to 10162
  139.8115  143.7945  152.3171 LP  0  0  0  0  0  0  0  0  0  0  0  0  # atno 17343 bound_to 10162
  157.7237  131.0664  150.6025 LP  0  0  0  0  0  0  0  0  0  0  0  0  # atno 17370 bound_to 10713
  156.6109  130.4380  149.5859 LP  0  0  0  0  0  0  0  0  0  0  0  0  # atno 17371 bound_to 10713
  140.0583  134.9769  157.1259 LP  0  0  0  0  0  0  0  0  0  0  0  0  # atno 17394 bound_to 11000
  140.3887  134.2208  155.7167 LP  0  0  0  0  0  0  0  0  0  0  0  0  # atno 17395 bound_to 11000

$$$$
