AV-unprocessed.smi:2001|AV-procd|sdf|8108|dock3
  -GOLD-   2272010333D 1   1.00000     0.00000
 Structure written by MMmdl.
 51 52  0  0  0  0  0  0  0  0  2 V2000
  152.5261  144.4186  157.9542 C   0  0  0  0  0  0  0  0  0  0  0  0
  151.5528  143.4002  158.1055 O   0  0  0  0  0  0  0  0  0  0  0  0
  151.4603  142.5658  156.9636 C   0  0  0  0  0  0  0  0  0  0  0  0
  150.6133  141.3332  157.3156 C   0  0  0  0  0  0  0  0  0  0  0  0
  150.5367  140.3959  156.1905 N   0  0  0  0  0  0  0  0  0  0  0  0
  149.3641  140.4888  155.4610 N   0  0  0  0  0  0  0  0  0  0  0  0
  149.1826  139.7390  154.4220 C   0  0  0  0  0  0  0  0  0  0  0  0
  147.9376  139.8199  153.6088 C   0  0  0  0  0  0  0  0  0  0  0  0
  147.1515  140.7632  153.7043 O   0  0  0  0  0  0  0  0  0  0  0  0
  147.7357  138.7848  152.7773 N   0  0  0  0  0  0  0  0  0  0  0  0
  146.5644  138.5984  151.9309 C   0  0  0  0  0  0  0  0  0  0  0  0
  146.1685  137.1120  151.8509 C   0  0  0  0  0  0  0  0  0  0  0  0
  144.8091  136.8737  151.2871 N   0  3  1  0  0  0  0  0  0  0  0  0
  144.7069  135.5916  150.5470 C   0  0  0  0  0  0  0  0  0  0  0  0
  144.5944  134.3899  151.5131 C   0  0  2  0  0  0  0  0  0  0  0  0
  144.3647  133.0719  150.7658 C   0  0  0  0  0  0  0  0  0  0  0  0
  143.4964  134.5915  152.3992 O   0  0  0  0  0  0  0  0  0  0  0  0
  143.6242  135.7697  153.1890 C   0  0  2  0  0  0  0  0  0  0  0  0
  142.4325  135.8408  154.1495 C   0  0  0  0  0  0  0  0  0  0  0  0
  143.6803  136.9877  152.2454 C   0  0  0  0  0  0  0  0  0  0  0  0
  150.1974  138.7875  154.0041 C   0  0  0  0  0  0  0  0  0  0  0  0
  151.3337  138.7027  154.7305 C   0  0  0  0  0  0  0  0  0  0  0  0
  151.5654  139.5406  155.9087 C   0  0  0  0  0  0  0  0  0  0  0  0
  152.5941  139.4871  156.5819 O   0  0  0  0  0  0  0  0  0  0  0  0
  152.5641  145.0277  158.8570 H   0  0  0  0  0  0  0  0  0  0  0  0
  152.2839  145.0742  157.1168 H   0  0  0  0  0  0  0  0  0  0  0  0
  153.5181  143.9949  157.7923 H   0  0  0  0  0  0  0  0  0  0  0  0
  151.0015  143.1155  156.1402 H   0  0  0  0  0  0  0  0  0  0  0  0
  152.4570  142.2624  156.6396 H   0  0  0  0  0  0  0  0  0  0  0  0
  151.0176  140.8393  158.2008 H   0  0  0  0  0  0  0  0  0  0  0  0
  149.6085  141.6548  157.5960 H   0  0  0  0  0  0  0  0  0  0  0  0
  148.4381  138.0597  152.7554 H   0  0  0  0  0  0  0  0  0  0  0  0
  145.7337  139.2103  152.2853 H   0  0  0  0  0  0  0  0  0  0  0  0
  146.8123  138.9524  150.9291 H   0  0  0  0  0  0  0  0  0  0  0  0
  146.8812  136.6245  151.1844 H   0  0  0  0  0  0  0  0  0  0  0  0
  146.2933  136.6290  152.8201 H   0  0  0  0  0  0  0  0  0  0  0  0
  143.8198  135.6343  149.9135 H   0  0  0  0  0  0  0  0  0  0  0  0
  145.5564  135.4714  149.8735 H   0  0  0  0  0  0  0  0  0  0  0  0
  145.5095  134.2918  152.0987 H   0  0  0  0  0  0  0  0  0  0  0  0
  145.1860  132.8607  150.0807 H   0  0  0  0  0  0  0  0  0  0  0  0
  143.4428  133.1023  150.1842 H   0  0  0  0  0  0  0  0  0  0  0  0
  144.2908  132.2363  151.4627 H   0  0  0  0  0  0  0  0  0  0  0  0
  144.5354  135.7099  153.7859 H   0  0  0  0  0  0  0  0  0  0  0  0
  142.4872  136.7353  154.7694 H   0  0  0  0  0  0  0  0  0  0  0  0
  142.4130  134.9773  154.8148 H   0  0  0  0  0  0  0  0  0  0  0  0
  141.4864  135.8667  153.6081 H   0  0  0  0  0  0  0  0  0  0  0  0
  143.7183  137.9219  152.8018 H   0  0  0  0  0  0  0  0  0  0  0  0
  142.7553  137.0345  151.6686 H   0  0  0  0  0  0  0  0  0  0  0  0
  150.0524  138.1573  153.1386 H   0  0  0  0  0  0  0  0  0  0  0  0
  152.0961  137.9976  154.4329 H   0  0  0  0  0  0  0  0  0  0  0  0
  144.6751  137.6041  150.6022 H   0  0  0  0  0  0  0  0  0  0  0  0
  1  2  1  0  0  0  0
  1 25  1  0  0  0  0
  1 26  1  0  0  0  0
  1 27  1  0  0  0  0
  2  3  1  0  0  0  0
  3  4  1  0  0  0  0
  3 28  1  0  0  0  0
  3 29  1  0  0  0  0
  4  5  1  0  0  0  0
  4 30  1  0  0  0  0
  4 31  1  0  0  0  0
  5 23  1  0  0  0  0
  5  6  1  0  0  0  0
  6  7  2  0  0  0  0
  7  8  1  0  0  0  0
  7 21  1  0  0  0  0
  8  9  2  0  0  0  0
  8 10  1  0  0  0  0
 10 11  1  0  0  0  0
 10 32  1  0  0  0  0
 11 12  1  0  0  0  0
 11 33  1  0  0  0  0
 11 34  1  0  0  0  0
 12 13  1  0  0  0  0
 12 35  1  0  0  0  0
 12 36  1  0  0  0  0
 13 20  1  0  0  0  0
 13 14  1  0  0  0  0
 13 51  1  0  0  0  0
 14 15  1  0  0  0  0
 14 37  1  0  0  0  0
 14 38  1  0  0  0  0
 15 16  1  0  0  0  0
 15 17  1  0  0  0  0
 15 39  1  0  0  0  0
 16 40  1  0  0  0  0
 16 41  1  0  0  0  0
 16 42  1  0  0  0  0
 17 18  1  0  0  0  0
 18 19  1  0  0  0  0
 18 20  1  0  0  0  0
 18 43  1  0  0  0  0
 19 44  1  0  0  0  0
 19 45  1  0  0  0  0
 19 46  1  0  0  0  0
 20 47  1  0  0  0  0
 20 48  1  0  0  0  0
 21 22  2  0  0  0  0
 21 49  1  0  0  0  0
 22 23  1  0  0  0  0
 22 50  1  0  0  0  0
 23 24  2  0  0  0  0
M  CHG  1  13   1
M  END
> <s_m_source_file>
AV-unprocessed.smi

> <i_m_source_file_index>
2001

> <i_lp_mmshare_version>
43012

> <i_f3d_flags>
0

> <s_epik_input>
W0NIM11PW0NIMl1bQ0gyXW4xbmMoW2NIXVtjSF1jMT1PKUMoPU8pW05IXVtDSDJdW0NIMl1OMltDSDJdW0NAQEhdKFtDSDNdKU9bQ0BASF0oW0NIM10pW0NIMl0y

> <s_epik_cmdline>
J2VwaWtfcHl0aG9uJywgJy1waCcsICc3LjAnLCAnLXRuJywgJzgnLCAnLW1hJywgJzIwMCcsICctbWV0YWxfYmluZGluZycsICctaW1hZScsICc8aW5maWxlLm1hZT4nLCAnLW9tYWUnLCAnPG91dGZpbGUubWFlPic=

> <r_lp_tautomer_probability>
1

> <r_epik_Ionization_Penalty>
0.724354

> <r_epik_Ionization_Penalty_Charging>
0.724348

> <r_epik_Ionization_Penalty_Neutral>
6.1656e-06

> <r_epik_State_Penalty>
0.749058

> <r_epik_Charging_Adjusted_Penalty>
1.47341

> <i_epik_Tot_Q>
1

> <i_epik_Tot_abs_Q>
1

> <r_epik_Metal_State_Penalty>
0.750779

> <b_epik_Metal_Only>
0

> <s_lp_Force_Field>
OPLS_2005

> <r_lp_Energy>
47.3249

> <b_lp_Chiralities_Consistent>
1

> <s_lp_Variant>
AV-unprocessed.smi:2001-7

> <Gold.Version>
5.8.1

> <Gold.Id.Protein>
6NUR|6NUR_protein|mol2

> <Gold.PLP.Fitness>
52.4035

> <Gold.PLP.PLP>
-45.3213

> <Gold.PLP.part.hbond>
-4.0000

> <Gold.PLP.part.metal>
0.0000

> <Gold.PLP.part.buried>
-2.1987

> <Gold.PLP.part.nonpolar>
-39.5935

> <Gold.PLP.part.repulsive>
0.5540

> <Gold.PLP.ligand.clash>
0.0000

> <Gold.PLP.ligand.torsion>
0.9594

> <Gold.PLP.Chemscore.Hbond>
2.8723

> <Gold.PLP.Chemscore.CHOScore>
0.0000

> <Gold.PLP.Chemscore.Metal>
0.0000

> <Gold.Chemscore.Hbonds>
donor molecule, donor type, donor heavy atom, donor atom, acceptor molecule, acceptor atom, score
      L1  H    10    32       P1  7948  0.77
      L1  H    13    51       P1 10171  0.91
      P1  H  7997  8009       L1    24  1.00

> <Gold.PLP.Chemscore.Internal.Correction>
0.3840

> <Gold.Rescore>
     Score         DG    S(hbond)    S(metal)    S(lipo)     H(rot)  DE(clash)    DE(int)     intcor
     19.73     -20.94       2.81        0.00      97.26       2.07       0.63       0.58       ----

> <Gold.Chemscore.Fitness>
19.7279

> <Gold.Chemscore.DG>
-20.9373

> <Gold.Chemscore.ZeroCoef>
-5.4800

> <Gold.Chemscore.Hbond>
2.8090

> <Gold.Chemscore.Metal>
0.0000

> <Gold.Chemscore.Lipo>
97.2629

> <Gold.Chemscore.Internal_Hbond>
0.0000

> <Gold.Chemscore.DEClash>
0.6274

> <Gold.Chemscore.DEInternal>
0.5819

> <Gold.Chemscore.Rot>
2.0721

> <Gold.Chemscore.Internal.Correction>
   9.000000E+99

> <Gold.Chemscore.Hbonds>
donor molecule, donor type, donor heavy atom, donor atom, acceptor molecule, acceptor atom, score
      L1  H    10    32       P1  7948  0.74
      L1  H    13    51       P1 10171  0.85
      P1  H  7997  8009       L1    24  1.00

> <Gold.Chemscore.Hbond.Weighted>
-9.3822

> <Gold.Chemscore.Metal.Weighted>
-0.0000

> <Gold.Chemscore.Lipo.Weighted>
-11.3798

> <Gold.Chemscore.Internal_Hbond.Weighted>
0.0000

> <Gold.Chemscore.DEClash.Weighted>
0.6274

> <Gold.Chemscore.DEInternal.Weighted>
0.5819

> <Gold.Chemscore.Rot.Weighted>
5.3047

> <Gold.Chemscore.Internal.Correction.Weighted>
   9.000000E+99

> <Gold.Protein.RotatedTorsions>
[ 6907 6896 6895 6894 ] final  153.16 input  -60.11 | X-H torsion
[ 7974 7965 7964 7962 ] final   -9.99 input  175.53 | X-H torsion
[ 8008 7997 7996 7995 ] final -164.05 input   59.86 | X-H torsion
[ 10167 10162 10161 10158 ] final   35.16 input  -65.29 | X-H torsion
[ 10718 10713 10712 10709 ] final -108.10 input   66.30 | X-H torsion
[ 10763 10752 10751 10750 ] final   71.45 input  -60.55 | X-H torsion
[ 11005 11000 10999 10996 ] final  -72.98 input  -57.11 | X-H torsion

> <Gold.Protein.ActiveResidues>
 VAL166  LYS551  ARG553  GLY616  TRP617  ASP618  TYR619  PRO620  LYS621  CYS622 
 ASP623  PHE694  ASN695  SER759  ASP760  ASP761  ALA762  ILE779  LEU786  VAL792 
 PHE793  MET794  SER795  GLU796  ALA797  LYS798  CYS799  TRP800  GLU811  SER814 

> <Gold.Protein.RotatedAtoms>
  152.0766  133.4132  159.4482 H   0  0  0  0  0  0  0  0  0  0  0  0  # atno 6907 bound_to 6896
  150.6862  134.3030  159.4723 H   0  0  0  0  0  0  0  0  0  0  0  0  # atno 6908 bound_to 6896
  152.0867  134.9434  160.0623 H   0  0  0  0  0  0  0  0  0  0  0  0  # atno 6909 bound_to 6896
  146.2235  140.2698  142.8356 H   0  0  0  0  0  0  0  0  0  0  0  0  # atno 7974 bound_to 7965
  155.8301  140.0932  157.1798 H   0  0  0  0  0  0  0  0  0  0  0  0  # atno 8008 bound_to 7997
  154.3980  140.1420  156.3664 H   0  0  0  0  0  0  0  0  0  0  0  0  # atno 8009 bound_to 7997
  155.8175  140.3447  155.5497 H   0  0  0  0  0  0  0  0  0  0  0  0  # atno 8010 bound_to 7997
  140.4247  144.1409  150.6152 H   0  0  0  0  0  0  0  0  0  0  0  0  # atno 10167 bound_to 10162
  156.0469  130.5696  150.7915 H   0  0  0  0  0  0  0  0  0  0  0  0  # atno 10718 bound_to 10713
  153.0399  135.5136  154.7595 H   0  0  0  0  0  0  0  0  0  0  0  0  # atno 10763 bound_to 10752
  154.6540  135.2929  154.9953 H   0  0  0  0  0  0  0  0  0  0  0  0  # atno 10764 bound_to 10752
  154.0827  135.6661  153.4893 H   0  0  0  0  0  0  0  0  0  0  0  0  # atno 10765 bound_to 10752
  141.1616  133.6864  156.7142 H   0  0  0  0  0  0  0  0  0  0  0  0  # atno 11005 bound_to 11000
  144.9277  140.7939  143.5709 LP  0  0  0  0  0  0  0  0  0  0  0  0  # atno 17320 bound_to 7965
  145.2639  139.1981  143.4877 LP  0  0  0  0  0  0  0  0  0  0  0  0  # atno 17321 bound_to 7965
  140.4494  143.2493  151.9368 LP  0  0  0  0  0  0  0  0  0  0  0  0  # atno 17342 bound_to 10162
  139.4783  144.5577  151.8288 LP  0  0  0  0  0  0  0  0  0  0  0  0  # atno 17343 bound_to 10162
  157.5354  131.0938  150.9899 LP  0  0  0  0  0  0  0  0  0  0  0  0  # atno 17370 bound_to 10713
  157.0195  130.5668  149.5330 LP  0  0  0  0  0  0  0  0  0  0  0  0  # atno 17371 bound_to 10713
  140.2864  134.8276  157.3978 LP  0  0  0  0  0  0  0  0  0  0  0  0  # atno 17394 bound_to 11000
  140.1386  134.5001  155.8049 LP  0  0  0  0  0  0  0  0  0  0  0  0  # atno 17395 bound_to 11000

$$$$
