AV-unprocessed.smi:2344|AV-procd|sdf|9357|dock5
  -GOLD-   2272012583D 1   1.00000     0.00000
 Structure written by MMmdl.
 35 36  0  0  0  0  0  0  0  0  1 V2000
  153.2581  142.9597  162.1350 C   0  0  0  0  0  0  0  0  0  0  0  0
  152.4663  142.8855  160.8464 C   0  0  0  0  0  0  0  0  0  0  0  0
  151.6638  143.9642  160.4302 C   0  0  0  0  0  0  0  0  0  0  0  0
  150.9477  143.8515  159.2231 C   0  0  0  0  0  0  0  0  0  0  0  0
  151.0505  142.6656  158.4613 C   0  0  0  0  0  0  0  0  0  0  0  0
  150.2883  142.6531  157.2629 N   0  0  0  0  0  0  0  0  0  0  0  0
  150.2738  141.7180  156.2968 C   0  0  0  0  0  0  0  0  0  0  0  0
  150.9515  140.6898  156.2883 O   0  0  0  0  0  0  0  0  0  0  0  0
  149.4123  142.0410  155.3216 N   0  0  0  0  0  0  0  0  0  0  0  0
  149.1535  141.2302  154.1372 C   0  0  2  0  0  0  0  0  0  0  0  0
  147.7652  141.4856  153.6180 C   0  0  0  0  0  0  0  0  0  0  0  0
  147.0387  140.3744  153.5246 C   0  0  0  0  0  0  0  0  0  0  0  0
  147.7888  139.1450  153.9703 C   0  0  2  0  0  0  0  0  0  0  0  0
  147.0508  138.3595  155.0681 C   0  0  0  0  0  0  0  0  0  0  0  0
  147.8200  137.2529  155.4902 O   0  0  0  0  0  0  0  0  0  0  0  0
  149.1548  139.7080  154.4387 C   0  0  0  0  0  0  0  0  0  0  0  0
  151.8275  141.6319  158.8702 N   0  0  0  0  0  0  0  0  0  0  0  0
  152.5140  141.7407  160.0269 C   0  0  0  0  0  0  0  0  0  0  0  0
  149.8669  141.4731  153.3480 H   0  0  0  0  0  0  0  0  0  0  0  0
  147.9380  138.5072  153.0979 H   0  0  0  0  0  0  0  0  0  0  0  0
  152.6518  143.3903  162.9324 H   0  0  0  0  0  0  0  0  0  0  0  0
  154.1413  143.5837  161.9984 H   0  0  0  0  0  0  0  0  0  0  0  0
  153.5834  141.9689  162.4539 H   0  0  0  0  0  0  0  0  0  0  0  0
  151.5962  144.8638  161.0241 H   0  0  0  0  0  0  0  0  0  0  0  0
  150.3266  144.6701  158.8893 H   0  0  0  0  0  0  0  0  0  0  0  0
  149.6770  143.4449  157.1297 H   0  0  0  0  0  0  0  0  0  0  0  0
  148.8946  142.9035  155.4055 H   0  0  0  0  0  0  0  0  0  0  0  0
  147.4260  142.4735  153.3429 H   0  0  0  0  0  0  0  0  0  0  0  0
  146.0220  140.3274  153.1630 H   0  0  0  0  0  0  0  0  0  0  0  0
  146.8653  138.9996  155.9310 H   0  0  0  0  0  0  0  0  0  0  0  0
  146.0819  138.0082  154.7114 H   0  0  0  0  0  0  0  0  0  0  0  0
  148.7230  137.5230  155.5609 H   0  0  0  0  0  0  0  0  0  0  0  0
  149.9766  139.2132  153.9195 H   0  0  0  0  0  0  0  0  0  0  0  0
  149.3031  139.5189  155.5033 H   0  0  0  0  0  0  0  0  0  0  0  0
  153.1175  140.8886  160.3032 H   0  0  0  0  0  0  0  0  0  0  0  0
  1  2  1  0  0  0  0
  1 21  1  0  0  0  0
  1 22  1  0  0  0  0
  1 23  1  0  0  0  0
  2 18  1  0  0  0  0
  2  3  2  0  0  0  0
  3  4  1  0  0  0  0
  3 24  1  0  0  0  0
  4  5  2  0  0  0  0
  4 25  1  0  0  0  0
  5  6  1  0  0  0  0
  5 17  1  0  0  0  0
  6  7  1  0  0  0  0
  6 26  1  0  0  0  0
  7  8  2  0  0  0  0
  7  9  1  0  0  0  0
  9 10  1  0  0  0  0
  9 27  1  0  0  0  0
 10 19  1  0  0  0  0
 10 16  1  0  0  0  0
 10 11  1  0  0  0  0
 11 12  2  0  0  0  0
 11 28  1  0  0  0  0
 12 13  1  0  0  0  0
 12 29  1  0  0  0  0
 13 20  1  0  0  0  0
 13 14  1  0  0  0  0
 13 16  1  0  0  0  0
 14 15  1  0  0  0  0
 14 30  1  0  0  0  0
 14 31  1  0  0  0  0
 15 32  1  0  0  0  0
 16 33  1  0  0  0  0
 16 34  1  0  0  0  0
 17 18  2  0  0  0  0
 18 35  1  0  0  0  0
M  END
> <s_m_source_file>
AV-unprocessed.smi

> <i_m_source_file_index>
2344

> <i_lp_mmshare_version>
43012

> <i_f3d_flags>
0

> <s_epik_input>
W0NIM11jMVtjSF1bY0hdYyhuW2NIXTEpW05IXUMoPU8pW05IXVtDQEBIXTJbQ0hdPVtDSF1bQ0BASF0oW0NIMl0yKVtDSDJdW09IXQ==

> <s_epik_cmdline>
J2VwaWtfcHl0aG9uJywgJy1waCcsICc3LjAnLCAnLXRuJywgJzgnLCAnLW1hJywgJzIwMCcsICctbWV0YWxfYmluZGluZycsICctaW1hZScsICc8aW5maWxlLm1hZT4nLCAnLW9tYWUnLCAnPG91dGZpbGUubWFlPic=

> <r_lp_tautomer_probability>
1

> <r_epik_Ionization_Penalty>
5.7643e-05

> <r_epik_Ionization_Penalty_Charging>
0

> <r_epik_Ionization_Penalty_Neutral>
5.7643e-05

> <r_epik_State_Penalty>
-0

> <r_epik_Charging_Adjusted_Penalty>
0

> <i_epik_Tot_Q>
0

> <i_epik_Tot_abs_Q>
0

> <r_epik_Metal_State_Penalty>
-0

> <b_epik_Metal_Only>
0

> <s_lp_Force_Field>
OPLS_2005

> <r_lp_Energy>
16.9507

> <b_lp_Chiralities_Consistent>
1

> <s_lp_Variant>
AV-unprocessed.smi:2344-1

> <Gold.Version>
5.8.1

> <Gold.Id.Protein>
6NUR|6NUR_protein|mol2

> <Gold.PLP.Fitness>
39.2060

> <Gold.PLP.PLP>
-34.7267

> <Gold.PLP.part.hbond>
-2.0000

> <Gold.PLP.part.metal>
0.0000

> <Gold.PLP.part.buried>
-2.9321

> <Gold.PLP.part.nonpolar>
-28.3491

> <Gold.PLP.part.repulsive>
0.2224

> <Gold.PLP.ligand.clash>
0.0000

> <Gold.PLP.ligand.torsion>
0.3518

> <Gold.PLP.Chemscore.Hbond>
1.7221

> <Gold.PLP.Chemscore.CHOScore>
0.0000

> <Gold.PLP.Chemscore.Metal>
0.0000

> <Gold.Chemscore.Hbonds>
donor molecule, donor type, donor heavy atom, donor atom, acceptor molecule, acceptor atom, score
      L1  H     6    26       P1  8028  0.74
      L1  H     9    27       P1  8028  1.00

> <Gold.PLP.Chemscore.Internal.Correction>
0.0166

> <Gold.Rescore>
     Score         DG    S(hbond)    S(metal)    S(lipo)     H(rot)  DE(clash)    DE(int)     intcor
     14.05     -17.71       1.85        0.00      91.36       1.82       0.49       3.17       ----

> <Gold.Chemscore.Fitness>
14.0458

> <Gold.Chemscore.DG>
-17.7054

> <Gold.Chemscore.ZeroCoef>
-5.4800

> <Gold.Chemscore.Hbond>
1.8538

> <Gold.Chemscore.Metal>
0.0000

> <Gold.Chemscore.Lipo>
91.3572

> <Gold.Chemscore.Internal_Hbond>
0.0000

> <Gold.Chemscore.DEClash>
0.4914

> <Gold.Chemscore.DEInternal>
3.1682

> <Gold.Chemscore.Rot>
1.8184

> <Gold.Chemscore.Internal.Correction>
   9.000000E+99

> <Gold.Chemscore.Hbonds>
donor molecule, donor type, donor heavy atom, donor atom, acceptor molecule, acceptor atom, score
      L1  H     6    26       P1  8028  0.70
      L1  H     9    27       P1  8028  0.94

> <Gold.Chemscore.Hbond.Weighted>
-6.1916

> <Gold.Chemscore.Metal.Weighted>
-0.0000

> <Gold.Chemscore.Lipo.Weighted>
-10.6888

> <Gold.Chemscore.Internal_Hbond.Weighted>
0.0000

> <Gold.Chemscore.DEClash.Weighted>
0.4914

> <Gold.Chemscore.DEInternal.Weighted>
3.1682

> <Gold.Chemscore.Rot.Weighted>
4.6551

> <Gold.Chemscore.Internal.Correction.Weighted>
   9.000000E+99

> <Gold.Protein.RotatedTorsions>
[ 6907 6896 6895 6894 ] final    9.31 input  -60.11 | X-H torsion
[ 7974 7965 7964 7962 ] final   66.36 input  175.53 | X-H torsion
[ 8008 7997 7996 7995 ] final  -91.93 input   59.86 | X-H torsion
[ 10167 10162 10161 10158 ] final   64.75 input  -65.29 | X-H torsion
[ 10718 10713 10712 10709 ] final  176.89 input   66.30 | X-H torsion
[ 10763 10752 10751 10750 ] final   70.29 input  -60.55 | X-H torsion
[ 11005 11000 10999 10996 ] final  -33.74 input  -57.11 | X-H torsion

> <Gold.Protein.ActiveResidues>
 VAL166  LYS551  ARG553  GLY616  TRP617  ASP618  TYR619  PRO620  LYS621  CYS622 
 ASP623  PHE694  ASN695  SER759  ASP760  ASP761  ALA762  ILE779  LEU786  VAL792 
 PHE793  MET794  SER795  GLU796  ALA797  LYS798  CYS799  TRP800  GLU811  SER814 

> <Gold.Protein.RotatedAtoms>
  151.7201  135.0896  160.0282 H   0  0  0  0  0  0  0  0  0  0  0  0  # atno 6907 bound_to 6896
  152.3607  133.6289  159.6021 H   0  0  0  0  0  0  0  0  0  0  0  0  # atno 6908 bound_to 6896
  150.7602  133.9344  159.3478 H   0  0  0  0  0  0  0  0  0  0  0  0  # atno 6909 bound_to 6896
  145.8275  139.3119  143.1007 H   0  0  0  0  0  0  0  0  0  0  0  0  # atno 7974 bound_to 7965
  154.7168  140.0514  157.0602 H   0  0  0  0  0  0  0  0  0  0  0  0  # atno 8008 bound_to 7997
  155.0481  140.3176  155.4682 H   0  0  0  0  0  0  0  0  0  0  0  0  # atno 8009 bound_to 7997
  156.2805  140.2121  156.5606 H   0  0  0  0  0  0  0  0  0  0  0  0  # atno 8010 bound_to 7997
  140.1188  144.4751  150.6933 H   0  0  0  0  0  0  0  0  0  0  0  0  # atno 10167 bound_to 10162
  156.9134  130.9917  151.3017 H   0  0  0  0  0  0  0  0  0  0  0  0  # atno 10718 bound_to 10713
  153.0333  135.5179  154.7418 H   0  0  0  0  0  0  0  0  0  0  0  0  # atno 10763 bound_to 10752
  154.6415  135.2913  155.0100 H   0  0  0  0  0  0  0  0  0  0  0  0  # atno 10764 bound_to 10752
  154.1016  135.6635  153.4922 H   0  0  0  0  0  0  0  0  0  0  0  0  # atno 10765 bound_to 10752
  140.9659  133.7137  156.1445 H   0  0  0  0  0  0  0  0  0  0  0  0  # atno 11005 bound_to 11000
  145.9608  140.8837  143.0212 LP  0  0  0  0  0  0  0  0  0  0  0  0  # atno 17320 bound_to 7965
  144.6742  140.1809  143.7406 LP  0  0  0  0  0  0  0  0  0  0  0  0  # atno 17321 bound_to 7965
  140.6884  143.2362  151.5198 LP  0  0  0  0  0  0  0  0  0  0  0  0  # atno 17342 bound_to 10162
  139.5580  144.2227  152.1644 LP  0  0  0  0  0  0  0  0  0  0  0  0  # atno 17343 bound_to 10162
  157.5953  130.8473  149.8719 LP  0  0  0  0  0  0  0  0  0  0  0  0  # atno 17370 bound_to 10713
  156.0525  130.3715  150.1168 LP  0  0  0  0  0  0  0  0  0  0  0  0  # atno 17371 bound_to 10713
  140.7400  134.4161  157.5556 LP  0  0  0  0  0  0  0  0  0  0  0  0  # atno 17394 bound_to 11000
  139.8894  134.8830  156.2421 LP  0  0  0  0  0  0  0  0  0  0  0  0  # atno 17395 bound_to 11000

$$$$
