AV-unprocessed.smi:3345|AV-procd|sdf|12902|dock7
  -GOLD-   2272019313D 1   1.00000     0.00000
 Structure written by MMmdl.
 40 41  0  0  0  0  0  0  0  0  1 V2000
  151.7438  139.0300  156.5897 C   0  0  0  0  0  0  0  0  0  0  0  0
  151.0349  139.1909  157.9406 C   0  0  1  0  0  0  0  0  0  0  0  0
  150.5198  140.6320  158.1461 C   0  0  0  0  0  0  0  0  0  0  0  0
  151.5572  141.6600  158.2603 N   0  0  0  0  0  0  0  0  0  0  0  0
  151.0418  143.0109  158.0526 C   0  0  0  0  0  0  0  0  0  0  0  0
  152.1511  144.0694  158.1768 C   0  0  0  0  0  0  0  0  0  0  0  0
  152.7814  143.9550  159.4485 O   0  0  0  0  0  0  0  0  0  0  0  0
  153.3341  142.6622  159.6739 C   0  0  0  0  0  0  0  0  0  0  0  0
  152.2279  141.5996  159.5534 C   0  0  0  0  0  0  0  0  0  0  0  0
  149.9122  138.2592  158.0171 N   0  0  0  0  0  0  0  0  0  0  0  0
  149.7108  137.3484  158.9829 C   0  0  0  0  0  0  0  0  0  0  0  0
  150.5528  137.0662  159.8362 O   0  0  0  0  0  0  0  0  0  0  0  0
  148.3201  136.6969  159.0052 C   0  0  1  0  0  0  0  0  0  0  0  0
  148.1840  135.5330  158.0019 C   0  0  0  0  0  0  0  0  0  0  0  0
  147.9949  136.2951  160.3696 N   0  0  0  0  0  0  0  0  0  0  0  0
  147.7188  135.0858  160.8634 C   0  0  0  0  0  0  0  0  0  0  0  0
  147.3927  135.0887  162.1481 N   0  0  0  0  0  0  0  0  0  0  0  0
  147.4806  136.4279  162.4017 C   0  0  0  0  0  0  0  0  0  0  0  0
  147.8264  137.1965  161.3693 N   0  0  0  0  0  0  0  0  0  0  0  0
  152.5925  139.7099  156.5106 H   0  0  0  0  0  0  0  0  0  0  0  0
  151.0706  139.2403  155.7578 H   0  0  0  0  0  0  0  0  0  0  0  0
  152.1224  138.0151  156.4640 H   0  0  0  0  0  0  0  0  0  0  0  0
  151.7699  138.9677  158.7149 H   0  0  0  0  0  0  0  0  0  0  0  0
  149.8332  140.8916  157.3390 H   0  0  0  0  0  0  0  0  0  0  0  0
  149.9212  140.6417  159.0584 H   0  0  0  0  0  0  0  0  0  0  0  0
  150.5890  143.0979  157.0658 H   0  0  0  0  0  0  0  0  0  0  0  0
  150.2552  143.2231  158.7782 H   0  0  0  0  0  0  0  0  0  0  0  0
  152.8902  143.9477  157.3838 H   0  0  0  0  0  0  0  0  0  0  0  0
  151.7333  145.0710  158.0739 H   0  0  0  0  0  0  0  0  0  0  0  0
  154.1337  142.4715  158.9570 H   0  0  0  0  0  0  0  0  0  0  0  0
  153.7815  142.6331  160.6674 H   0  0  0  0  0  0  0  0  0  0  0  0
  151.5011  141.7419  160.3546 H   0  0  0  0  0  0  0  0  0  0  0  0
  152.6636  140.6105  159.6988 H   0  0  0  0  0  0  0  0  0  0  0  0
  149.1652  138.4072  157.3545 H   0  0  0  0  0  0  0  0  0  0  0  0
  147.5975  137.4616  158.7151 H   0  0  0  0  0  0  0  0  0  0  0  0
  148.3719  135.8704  156.9821 H   0  0  0  0  0  0  0  0  0  0  0  0
  147.1772  135.1152  158.0265 H   0  0  0  0  0  0  0  0  0  0  0  0
  148.8824  134.7225  158.2152 H   0  0  0  0  0  0  0  0  0  0  0  0
  147.7469  134.1854  160.2675 H   0  0  0  0  0  0  0  0  0  0  0  0
  147.2740  136.8502  163.3741 H   0  0  0  0  0  0  0  0  0  0  0  0
  1  2  1  0  0  0  0
  1 20  1  0  0  0  0
  1 21  1  0  0  0  0
  1 22  1  0  0  0  0
  2  3  1  0  0  0  0
  2 10  1  0  0  0  0
  2 23  1  0  0  0  0
  3  4  1  0  0  0  0
  3 24  1  0  0  0  0
  3 25  1  0  0  0  0
  4  9  1  0  0  0  0
  4  5  1  0  0  0  0
  5  6  1  0  0  0  0
  5 26  1  0  0  0  0
  5 27  1  0  0  0  0
  6  7  1  0  0  0  0
  6 28  1  0  0  0  0
  6 29  1  0  0  0  0
  7  8  1  0  0  0  0
  8  9  1  0  0  0  0
  8 30  1  0  0  0  0
  8 31  1  0  0  0  0
  9 32  1  0  0  0  0
  9 33  1  0  0  0  0
 10 11  1  0  0  0  0
 10 34  1  0  0  0  0
 11 12  2  0  0  0  0
 11 13  1  0  0  0  0
 13 14  1  0  0  0  0
 13 15  1  0  0  0  0
 13 35  1  0  0  0  0
 14 36  1  0  0  0  0
 14 37  1  0  0  0  0
 14 38  1  0  0  0  0
 15 19  1  0  0  0  0
 15 16  1  0  0  0  0
 16 17  2  0  0  0  0
 16 39  1  0  0  0  0
 17 18  1  0  0  0  0
 18 19  2  0  0  0  0
 18 40  1  0  0  0  0
M  END
> <s_m_source_file>
AV-unprocessed.smi

> <i_m_source_file_index>
3345

> <i_lp_mmshare_version>
43012

> <i_f3d_flags>
0

> <s_epik_input>
W0NIMl0xW0NIMl1PW0NIMl1bQ0gyXU4xW0NIMl1bQ0BASF0oW0NIM10pW05IXUMoPU8pW0NASF0oW0NIM10pbjJbY0hdbltjSF1uMg==

> <s_epik_cmdline>
J2VwaWtfcHl0aG9uJywgJy1waCcsICc3LjAnLCAnLXRuJywgJzgnLCAnLW1hJywgJzIwMCcsICctbWV0YWxfYmluZGluZycsICctaW1hZScsICc8aW5maWxlLm1hZT4nLCAnLW9tYWUnLCAnPG91dGZpbGUubWFlPic=

> <r_lp_tautomer_probability>
1

> <r_epik_Ionization_Penalty>
0.211373

> <r_epik_Ionization_Penalty_Charging>
0

> <r_epik_Ionization_Penalty_Neutral>
0.211373

> <r_epik_State_Penalty>
0.201459

> <r_epik_Charging_Adjusted_Penalty>
0.201459

> <i_epik_Tot_Q>
0

> <i_epik_Tot_abs_Q>
0

> <r_epik_Metal_State_Penalty>
0.201458

> <b_epik_Metal_Only>
0

> <s_lp_Force_Field>
OPLS_2005

> <r_lp_Energy>
29.1888

> <b_lp_Chiralities_Consistent>
1

> <s_lp_Variant>
AV-unprocessed.smi:3345-4

> <Gold.Version>
5.8.1

> <Gold.Id.Protein>
6NUR|6NUR_protein|mol2

> <Gold.PLP.Fitness>
40.5188

> <Gold.PLP.PLP>
-33.9839

> <Gold.PLP.part.hbond>
-3.3465

> <Gold.PLP.part.metal>
0.0000

> <Gold.PLP.part.buried>
-6.1062

> <Gold.PLP.part.nonpolar>
-25.5037

> <Gold.PLP.part.repulsive>
0.1010

> <Gold.PLP.ligand.clash>
0.0000

> <Gold.PLP.ligand.torsion>
0.9303

> <Gold.PLP.Chemscore.Hbond>
2.7433

> <Gold.PLP.Chemscore.CHOScore>
0.0000

> <Gold.PLP.Chemscore.Metal>
0.0000

> <Gold.Chemscore.Hbonds>
donor molecule, donor type, donor heavy atom, donor atom, acceptor molecule, acceptor atom, score
      P1  H  6896  6909       L1    12  0.94
      P1  H  6931  6943       L1    19  1.00
      P1  H  6934  6947       L1    19  0.75

> <Gold.PLP.Chemscore.Internal.Correction>
0.1657

> <Gold.Rescore>
     Score         DG    S(hbond)    S(metal)    S(lipo)     H(rot)  DE(clash)    DE(int)     intcor
     13.61     -14.51       2.51        0.00      60.84       2.54       0.00       0.89       ----

> <Gold.Chemscore.Fitness>
13.6144

> <Gold.Chemscore.DG>
-14.5069

> <Gold.Chemscore.ZeroCoef>
-5.4800

> <Gold.Chemscore.Hbond>
2.5146

> <Gold.Chemscore.Metal>
0.0000

> <Gold.Chemscore.Lipo>
60.8434

> <Gold.Chemscore.Internal_Hbond>
0.0000

> <Gold.Chemscore.DEClash>
0.0000

> <Gold.Chemscore.DEInternal>
0.8925

> <Gold.Chemscore.Rot>
2.5353

> <Gold.Chemscore.Internal.Correction>
   9.000000E+99

> <Gold.Chemscore.Hbonds>
donor molecule, donor type, donor heavy atom, donor atom, acceptor molecule, acceptor atom, score
      P1  H  6896  6909       L1    12  0.85
      P1  H  6931  6943       L1    19  0.57
      P1  H  6934  6947       L1    19  0.71

> <Gold.Chemscore.Hbond.Weighted>
-8.3987

> <Gold.Chemscore.Metal.Weighted>
-0.0000

> <Gold.Chemscore.Lipo.Weighted>
-7.1187

> <Gold.Chemscore.Internal_Hbond.Weighted>
0.0000

> <Gold.Chemscore.DEClash.Weighted>
0.0000

> <Gold.Chemscore.DEInternal.Weighted>
0.8925

> <Gold.Chemscore.Rot.Weighted>
6.4905

> <Gold.Chemscore.Internal.Correction.Weighted>
   9.000000E+99

> <Gold.Protein.RotatedTorsions>
[ 6907 6896 6895 6894 ] final   96.59 input  -60.11 | X-H torsion
[ 7974 7965 7964 7962 ] final  118.87 input  175.53 | X-H torsion
[ 8008 7997 7996 7995 ] final -146.42 input   59.86 | X-H torsion
[ 10167 10162 10161 10158 ] final -124.57 input  -65.29 | X-H torsion
[ 10718 10713 10712 10709 ] final   88.23 input   66.30 | X-H torsion
[ 10763 10752 10751 10750 ] final  -29.87 input  -60.55 | X-H torsion
[ 11005 11000 10999 10996 ] final  110.63 input  -57.11 | X-H torsion

> <Gold.Protein.ActiveResidues>
 VAL166  LYS551  ARG553  GLY616  TRP617  ASP618  TYR619  PRO620  LYS621  CYS622 
 ASP623  PHE694  ASN695  SER759  ASP760  ASP761  ALA762  ILE779  LEU786  VAL792 
 PHE793  MET794  SER795  GLU796  ALA797  LYS798  CYS799  TRP800  GLU811  SER814 

> <Gold.Protein.RotatedAtoms>
  152.5433  134.0863  159.8257 H   0  0  0  0  0  0  0  0  0  0  0  0  # atno 6907 bound_to 6896
  151.0958  133.5273  159.2620 H   0  0  0  0  0  0  0  0  0  0  0  0  # atno 6908 bound_to 6896
  151.2047  135.0466  159.8941 H   0  0  0  0  0  0  0  0  0  0  0  0  # atno 6909 bound_to 6896
  145.1499  139.3216  143.4572 H   0  0  0  0  0  0  0  0  0  0  0  0  # atno 7974 bound_to 7965
  155.5591  140.0623  157.2833 H   0  0  0  0  0  0  0  0  0  0  0  0  # atno 8008 bound_to 7997
  154.4396  140.1889  156.0809 H   0  0  0  0  0  0  0  0  0  0  0  0  # atno 8009 bound_to 7997
  156.0460  140.3290  155.7301 H   0  0  0  0  0  0  0  0  0  0  0  0  # atno 8010 bound_to 7997
  139.9914  143.5637  152.2340 H   0  0  0  0  0  0  0  0  0  0  0  0  # atno 10167 bound_to 10162
  157.6947  131.0287  150.3243 H   0  0  0  0  0  0  0  0  0  0  0  0  # atno 10718 bound_to 10713
  153.7717  135.6912  153.4905 H   0  0  0  0  0  0  0  0  0  0  0  0  # atno 10763 bound_to 10752
  153.1870  135.4485  155.0099 H   0  0  0  0  0  0  0  0  0  0  0  0  # atno 10764 bound_to 10752
  154.8115  135.3379  154.7226 H   0  0  0  0  0  0  0  0  0  0  0  0  # atno 10765 bound_to 10752
  139.8886  134.9489  156.6309 H   0  0  0  0  0  0  0  0  0  0  0  0  # atno 11005 bound_to 11000
  146.3496  140.1570  142.8591 LP  0  0  0  0  0  0  0  0  0  0  0  0  # atno 17320 bound_to 7965
  145.0441  140.8968  143.5034 LP  0  0  0  0  0  0  0  0  0  0  0  0  # atno 17321 bound_to 7965
  139.6337  144.7647  151.2482 LP  0  0  0  0  0  0  0  0  0  0  0  0  # atno 17342 bound_to 10162
  140.7453  143.6435  150.8313 LP  0  0  0  0  0  0  0  0  0  0  0  0  # atno 17343 bound_to 10162
  156.3726  130.3866  149.7163 LP  0  0  0  0  0  0  0  0  0  0  0  0  # atno 17370 bound_to 10713
  156.4573  130.7935  151.2956 LP  0  0  0  0  0  0  0  0  0  0  0  0  # atno 17371 bound_to 10713
  140.7667  133.8772  155.8460 LP  0  0  0  0  0  0  0  0  0  0  0  0  # atno 17394 bound_to 11000
  140.9876  134.1321  157.4437 LP  0  0  0  0  0  0  0  0  0  0  0  0  # atno 17395 bound_to 11000

$$$$
