AV-unprocessed.smi:1245|AV-procd|sdf|5239|dock6
  -GOLD-   22720 4343D 1   1.00000     0.00000
 Structure written by MMmdl.
 43 44  0  0  0  0  0  0  0  0  1 V2000
  148.5820  134.8133  156.3733 O   0  0  0  0  0  0  0  0  0  0  0  0
  149.1841  135.4670  155.5217 C   0  0  0  0  0  0  0  0  0  0  0  0
  149.5349  136.9325  155.7848 C   0  0  0  0  0  0  0  0  0  0  0  0
  151.0306  137.2328  155.5855 C   0  0  0  0  0  0  0  0  0  0  0  0
  151.3299  139.0290  155.2663 S   0  0  0  0  0  0  0  0  0  0  0  0
  152.7828  139.2586  155.2460 O   0  0  0  0  0  0  0  0  0  0  0  0
  150.5232  139.4332  154.1046 O   0  0  0  0  0  0  0  0  0  0  0  0
  150.6242  139.8292  156.7812 C   0  0  0  0  0  0  0  0  0  0  0  0
  150.7584  141.3627  156.6942 C   0  0  0  0  0  0  0  0  0  0  0  0
  151.6406  141.8000  157.8696 C   0  0  0  0  0  0  0  0  0  0  0  0
  152.3906  140.5425  158.3006 C   0  0  0  0  0  0  0  0  0  0  0  0
  151.3884  139.4177  158.0505 C   0  0  0  0  0  0  0  0  0  0  0  0
  149.5638  134.9663  154.3370 N   0  0  0  0  0  0  0  0  0  0  0  0
  149.3260  133.5978  153.8889 C   0  0  0  0  0  0  0  0  0  0  0  0
  147.8920  133.1139  154.1820 C   0  0  0  0  0  0  0  0  0  0  0  0
  147.1006  132.7706  152.9311 C   0  0  0  0  0  0  0  0  0  0  0  0
  146.5619  131.4784  152.7499 C   0  0  0  0  0  0  0  0  0  0  0  0
  145.8257  131.2162  151.5784 C   0  0  0  0  0  0  0  0  0  0  0  0
  145.6574  132.2504  150.6378 C   0  0  0  0  0  0  0  0  0  0  0  0
  146.2365  133.5057  150.9111 C   0  0  0  0  0  0  0  0  0  0  0  0
  146.9445  133.7676  152.0311 N   0  0  0  0  0  0  0  0  0  0  0  0
  148.9305  137.5905  155.1590 H   0  0  0  0  0  0  0  0  0  0  0  0
  149.2587  137.1546  156.8158 H   0  0  0  0  0  0  0  0  0  0  0  0
  151.5821  136.9613  156.4853 H   0  0  0  0  0  0  0  0  0  0  0  0
  151.4462  136.6503  154.7637 H   0  0  0  0  0  0  0  0  0  0  0  0
  149.5765  139.5343  156.8469 H   0  0  0  0  0  0  0  0  0  0  0  0
  151.2258  141.6576  155.7540 H   0  0  0  0  0  0  0  0  0  0  0  0
  149.7856  141.8539  156.7323 H   0  0  0  0  0  0  0  0  0  0  0  0
  152.3127  142.6176  157.6071 H   0  0  0  0  0  0  0  0  0  0  0  0
  151.0087  142.1431  158.6899 H   0  0  0  0  0  0  0  0  0  0  0  0
  153.2737  140.4040  157.6758 H   0  0  0  0  0  0  0  0  0  0  0  0
  152.7207  140.5862  159.3389 H   0  0  0  0  0  0  0  0  0  0  0  0
  150.6924  139.3674  158.8884 H   0  0  0  0  0  0  0  0  0  0  0  0
  151.8722  138.4446  157.9743 H   0  0  0  0  0  0  0  0  0  0  0  0
  150.0559  135.5755  153.6991 H   0  0  0  0  0  0  0  0  0  0  0  0
  149.5044  133.5727  152.8136 H   0  0  0  0  0  0  0  0  0  0  0  0
  150.0556  132.9215  154.3368 H   0  0  0  0  0  0  0  0  0  0  0  0
  147.9268  132.2379  154.8309 H   0  0  0  0  0  0  0  0  0  0  0  0
  147.3538  133.8791  154.7427 H   0  0  0  0  0  0  0  0  0  0  0  0
  146.7036  130.7079  153.4938 H   0  0  0  0  0  0  0  0  0  0  0  0
  145.3966  130.2400  151.4061 H   0  0  0  0  0  0  0  0  0  0  0  0
  145.0980  132.0861  149.7287 H   0  0  0  0  0  0  0  0  0  0  0  0
  146.1271  134.3219  150.2124 H   0  0  0  0  0  0  0  0  0  0  0  0
  1  2  2  0  0  0  0
  2  3  1  0  0  0  0
  2 13  1  0  0  0  0
  3  4  1  0  0  0  0
  3 22  1  0  0  0  0
  3 23  1  0  0  0  0
  4  5  1  0  0  0  0
  4 24  1  0  0  0  0
  4 25  1  0  0  0  0
  5  6  2  0  0  0  0
  5  7  2  0  0  0  0
  5  8  1  0  0  0  0
  8 12  1  0  0  0  0
  8  9  1  0  0  0  0
  8 26  1  0  0  0  0
  9 10  1  0  0  0  0
  9 27  1  0  0  0  0
  9 28  1  0  0  0  0
 10 11  1  0  0  0  0
 10 29  1  0  0  0  0
 10 30  1  0  0  0  0
 11 12  1  0  0  0  0
 11 31  1  0  0  0  0
 11 32  1  0  0  0  0
 12 33  1  0  0  0  0
 12 34  1  0  0  0  0
 13 14  1  0  0  0  0
 13 35  1  0  0  0  0
 14 15  1  0  0  0  0
 14 36  1  0  0  0  0
 14 37  1  0  0  0  0
 15 16  1  0  0  0  0
 15 38  1  0  0  0  0
 15 39  1  0  0  0  0
 16 21  1  0  0  0  0
 16 17  2  0  0  0  0
 17 18  1  0  0  0  0
 17 40  1  0  0  0  0
 18 19  2  0  0  0  0
 18 41  1  0  0  0  0
 19 20  1  0  0  0  0
 19 42  1  0  0  0  0
 20 21  2  0  0  0  0
 20 43  1  0  0  0  0
M  END
> <s_m_source_file>
AV-unprocessed.smi

> <i_m_source_file_index>
1245

> <i_lp_mmshare_version>
43012

> <i_f3d_flags>
0

> <s_epik_input>
W0NIMl0xW0NIMl1bQ0gyXVtDSDJdW0NIXTFTKD1PKSg9TylbQ0gyXVtDSDJdQyg9TylbTkhdW0NIMl1bQ0gyXWMyW2NIXVtjSF1bY0hdW2NIXW4y

> <s_epik_cmdline>
J2VwaWtfcHl0aG9uJywgJy1waCcsICc3LjAnLCAnLXRuJywgJzgnLCAnLW1hJywgJzIwMCcsICctbWV0YWxfYmluZGluZycsICctaW1hZScsICc8aW5maWxlLm1hZT4nLCAnLW9tYWUnLCAnPG91dGZpbGUubWFlPic=

> <r_epik_Ionization_Penalty>
0.0243247

> <r_epik_Ionization_Penalty_Charging>
0

> <r_epik_Ionization_Penalty_Neutral>
0.0243247

> <r_epik_State_Penalty>
0.0197389

> <r_epik_Charging_Adjusted_Penalty>
0.0197389

> <i_epik_Tot_Q>
0

> <i_epik_Tot_abs_Q>
0

> <r_epik_Metal_State_Penalty>
0.0189562

> <b_epik_Metal_Only>
0

> <s_lp_Force_Field>
OPLS_2005

> <r_lp_Energy>
12.2182

> <b_lp_Chiralities_Consistent>
1

> <s_lp_Variant>
AV-unprocessed.smi:1245-1

> <Gold.Version>
5.8.1

> <Gold.Id.Protein>
6NUR|6NUR_protein|mol2

> <Gold.PLP.Fitness>
41.5831

> <Gold.PLP.PLP>
-33.5535

> <Gold.PLP.part.hbond>
-3.0249

> <Gold.PLP.part.metal>
0.0000

> <Gold.PLP.part.buried>
-4.9846

> <Gold.PLP.part.nonpolar>
-26.0696

> <Gold.PLP.part.repulsive>
0.8288

> <Gold.PLP.ligand.clash>
0.0000

> <Gold.PLP.ligand.torsion>
0.7352

> <Gold.PLP.Chemscore.Hbond>
2.0728

> <Gold.PLP.Chemscore.CHOScore>
0.9957

> <Gold.PLP.Chemscore.Metal>
0.0000

> <Gold.Chemscore.Hbonds>
donor molecule, donor type, donor heavy atom, donor atom, acceptor molecule, acceptor atom, score
      L1  H    13    35       P1  7948  0.09
      P1  H  7989  7998       L1     7  0.95
      P1  H  7997  8008       L1     6  1.00
      L1  C    20    43       P1  7921  0.79

> <Gold.PLP.Chemscore.Internal.Correction>
0.2945

> <Gold.Rescore>
     Score         DG    S(hbond)    S(metal)    S(lipo)     H(rot)  DE(clash)    DE(int)     intcor
     14.73     -16.96       1.99        0.00      85.17       2.00       0.17       2.06       ----

> <Gold.Chemscore.Fitness>
14.7345

> <Gold.Chemscore.DG>
-16.9577

> <Gold.Chemscore.ZeroCoef>
-5.4800

> <Gold.Chemscore.Hbond>
1.9870

> <Gold.Chemscore.Metal>
0.0000

> <Gold.Chemscore.Lipo>
85.1689

> <Gold.Chemscore.Internal_Hbond>
0.0000

> <Gold.Chemscore.DEClash>
0.1668

> <Gold.Chemscore.DEInternal>
2.0564

> <Gold.Chemscore.Rot>
2.0014

> <Gold.Chemscore.Internal.Correction>
   9.000000E+99

> <Gold.Chemscore.Hbonds>
donor molecule, donor type, donor heavy atom, donor atom, acceptor molecule, acceptor atom, score
      P1  H  7989  7998       L1     7  0.21
      P1  H  7997  8008       L1     6  0.95

> <Gold.Chemscore.Hbond.Weighted>
-6.6366

> <Gold.Chemscore.Metal.Weighted>
-0.0000

> <Gold.Chemscore.Lipo.Weighted>
-9.9648

> <Gold.Chemscore.Internal_Hbond.Weighted>
0.0000

> <Gold.Chemscore.DEClash.Weighted>
0.1668

> <Gold.Chemscore.DEInternal.Weighted>
2.0564

> <Gold.Chemscore.Rot.Weighted>
5.1236

> <Gold.Chemscore.Internal.Correction.Weighted>
   9.000000E+99

> <Gold.Protein.RotatedTorsions>
[ 6907 6896 6895 6894 ] final -114.63 input  -60.11 | X-H torsion
[ 7974 7965 7964 7962 ] final -104.89 input  175.53 | X-H torsion
[ 8008 7997 7996 7995 ] final  -21.67 input   59.86 | X-H torsion
[ 10167 10162 10161 10158 ] final  -77.52 input  -65.29 | X-H torsion
[ 10718 10713 10712 10709 ] final  -48.95 input   66.30 | X-H torsion
[ 10763 10752 10751 10750 ] final  152.09 input  -60.55 | X-H torsion
[ 11005 11000 10999 10996 ] final -132.29 input  -57.11 | X-H torsion

> <Gold.Protein.ActiveResidues>
 VAL166  LYS551  ARG553  GLY616  TRP617  ASP618  TYR619  PRO620  LYS621  CYS622 
 ASP623  PHE694  ASN695  SER759  ASP760  ASP761  ALA762  ILE779  LEU786  VAL792 
 PHE793  MET794  SER795  GLU796  ALA797  LYS798  CYS799  TRP800  GLU811  SER814 

> <Gold.Protein.RotatedAtoms>
  150.7917  133.8773  159.3275 H   0  0  0  0  0  0  0  0  0  0  0  0  # atno 6907 bound_to 6896
  151.6610  135.0987  160.0189 H   0  0  0  0  0  0  0  0  0  0  0  0  # atno 6908 bound_to 6896
  152.3992  133.6753  159.6337 H   0  0  0  0  0  0  0  0  0  0  0  0  # atno 6909 bound_to 6896
  145.2374  140.9193  143.3170 H   0  0  0  0  0  0  0  0  0  0  0  0  # atno 7974 bound_to 7965
  154.4691  140.2028  156.0041 H   0  0  0  0  0  0  0  0  0  0  0  0  # atno 8008 bound_to 7997
  156.0979  140.3248  155.7874 H   0  0  0  0  0  0  0  0  0  0  0  0  # atno 8009 bound_to 7997
  155.4846  140.0541  157.2953 H   0  0  0  0  0  0  0  0  0  0  0  0  # atno 8010 bound_to 7997
  140.4763  143.2413  151.8128 H   0  0  0  0  0  0  0  0  0  0  0  0  # atno 10167 bound_to 10162
  156.1939  130.4153  149.9333 H   0  0  0  0  0  0  0  0  0  0  0  0  # atno 10718 bound_to 10713
  154.1143  135.2837  155.3223 H   0  0  0  0  0  0  0  0  0  0  0  0  # atno 10763 bound_to 10752
  154.6468  135.5383  153.7857 H   0  0  0  0  0  0  0  0  0  0  0  0  # atno 10764 bound_to 10752
  153.0334  135.6500  154.1300 H   0  0  0  0  0  0  0  0  0  0  0  0  # atno 10765 bound_to 10752
  140.9183  134.1477  157.4334 H   0  0  0  0  0  0  0  0  0  0  0  0  # atno 11005 bound_to 11000
  144.9621  139.3969  143.6351 LP  0  0  0  0  0  0  0  0  0  0  0  0  # atno 17320 bound_to 7965
  146.3337  139.8679  142.8845 LP  0  0  0  0  0  0  0  0  0  0  0  0  # atno 17321 bound_to 7965
  139.4826  144.4829  151.9283 LP  0  0  0  0  0  0  0  0  0  0  0  0  # atno 17342 bound_to 10162
  140.3914  144.2610  150.5899 LP  0  0  0  0  0  0  0  0  0  0  0  0  # atno 17343 bound_to 10162
  156.7065  130.8953  151.3605 LP  0  0  0  0  0  0  0  0  0  0  0  0  # atno 17370 bound_to 10713
  157.6946  130.9268  150.0607 LP  0  0  0  0  0  0  0  0  0  0  0  0  # atno 17371 bound_to 10713
  139.8770  134.9962  156.5782 LP  0  0  0  0  0  0  0  0  0  0  0  0  # atno 17394 bound_to 11000
  140.8021  133.8497  155.8735 LP  0  0  0  0  0  0  0  0  0  0  0  0  # atno 17395 bound_to 11000

$$$$
