AV-unprocessed.smi:798|AV-procd|sdf|3784|dock4
  -GOLD-   22720 1223D 1   1.00000     0.00000
 Structure written by MMmdl.
 33 35  0  0  0  0  0  0  0  0  2 V2000
  149.6603  138.4703  159.4517 O   0  0  0  0  0  0  0  0  0  0  0  0
  149.5609  137.4504  158.7656 C   0  0  0  0  0  0  0  0  0  0  0  0
  149.3521  136.1944  159.2225 N   0  5  0  0  0  0  0  0  0  0  0  0
  148.5010  135.9839  160.2400 C   0  0  0  0  0  0  0  0  0  0  0  0
  148.0080  136.9860  160.9856 N   0  0  0  0  0  0  0  0  0  0  0  0
  147.1436  136.5513  161.9815 N   0  0  0  0  0  0  0  0  0  0  0  0
  147.0005  135.2264  161.9561 C   0  0  0  0  0  0  0  0  0  0  0  0
  147.9047  134.3899  160.7116 S   0  0  0  0  0  0  0  0  0  0  0  0
  149.6717  137.5286  157.4321 N   0  0  0  0  0  0  0  0  0  0  0  0
  149.9229  138.7492  156.6668 C   0  0  1  0  0  0  0  0  0  0  0  0
  151.3018  139.3941  156.9645 C   0  0  1  0  0  0  0  0  0  0  0  0
  152.4444  138.3618  156.8549 C   0  0  0  0  0  0  0  0  0  0  0  0
  152.4956  138.0782  155.3422 C   0  0  0  0  0  0  0  0  0  0  0  0
  151.4054  139.0133  154.7825 C   0  0  2  0  0  0  0  0  0  0  0  0
  151.5346  140.2193  155.7057 C   0  0  0  0  0  0  0  0  0  0  0  0
  150.0099  138.4535  155.1453 C   0  0  2  0  0  0  0  0  0  0  0  0
  148.8784  139.1049  154.3261 C   0  0  0  0  0  0  0  0  0  0  0  0
  148.8143  138.5344  153.0363 O   0  0  0  0  0  0  0  0  0  0  0  0
  146.3560  134.7389  162.6720 H   0  0  0  0  0  0  0  0  0  0  0  0
  149.5788  136.6715  156.9074 H   0  0  0  0  0  0  0  0  0  0  0  0
  149.1292  139.4713  156.8680 H   0  0  0  0  0  0  0  0  0  0  0  0
  151.3228  139.9664  157.8925 H   0  0  0  0  0  0  0  0  0  0  0  0
  153.3855  138.8002  157.1896 H   0  0  0  0  0  0  0  0  0  0  0  0
  152.2791  137.4618  157.4472 H   0  0  0  0  0  0  0  0  0  0  0  0
  153.4754  138.3360  154.9381 H   0  0  0  0  0  0  0  0  0  0  0  0
  152.3043  137.0302  155.1088 H   0  0  0  0  0  0  0  0  0  0  0  0
  151.5315  139.2308  153.7215 H   0  0  0  0  0  0  0  0  0  0  0  0
  150.7734  140.9834  155.5428 H   0  0  0  0  0  0  0  0  0  0  0  0
  152.5196  140.6884  155.6704 H   0  0  0  0  0  0  0  0  0  0  0  0
  149.9946  137.3800  154.9469 H   0  0  0  0  0  0  0  0  0  0  0  0
  147.9118  138.9917  154.8168 H   0  0  0  0  0  0  0  0  0  0  0  0
  149.0602  140.1742  154.2164 H   0  0  0  0  0  0  0  0  0  0  0  0
  149.1947  139.1404  152.4193 H   0  0  0  0  0  0  0  0  0  0  0  0
  1  2  2  0  0  0  0
  2  3  1  0  0  0  0
  2  9  1  0  0  0  0
  3  4  1  0  0  0  0
  4  8  1  0  0  0  0
  4  5  2  0  0  0  0
  5  6  1  0  0  0  0
  6  7  2  0  0  0  0
  7  8  1  0  0  0  0
  7 19  1  0  0  0  0
  9 10  1  0  0  0  0
  9 20  1  0  0  0  0
 10 16  1  0  0  0  0
 10 11  1  0  0  0  0
 10 21  1  0  0  0  0
 11 15  1  0  0  0  0
 11 12  1  0  0  0  0
 11 22  1  0  0  0  0
 12 13  1  0  0  0  0
 12 23  1  0  0  0  0
 12 24  1  0  0  0  0
 13 14  1  0  0  0  0
 13 25  1  0  0  0  0
 13 26  1  0  0  0  0
 14 15  1  0  0  0  0
 14 16  1  0  0  0  0
 14 27  1  0  0  0  0
 15 28  1  0  0  0  0
 15 29  1  0  0  0  0
 16 17  1  0  0  0  0
 16 30  1  0  0  0  0
 17 18  1  0  0  0  0
 17 31  1  0  0  0  0
 17 32  1  0  0  0  0
 18 33  1  0  0  0  0
M  CHG  1   3  -1
M  END
> <s_m_source_file>
AV-unprocessed.smi

> <i_m_source_file_index>
798

> <i_lp_mmshare_version>
43012

> <i_f3d_flags>
0

> <s_epik_input>
W0NIMl0xW0NIMl1bQ0BASF0oW0NIMl0yKVtDQEBIXShbQ0gyXVtPSF0pW0NAQEhdKFtDQEhdMTIpW05IXUMoPU8pW05IXWMzbm5bY0hdczM=

> <s_epik_cmdline>
J2VwaWtfcHl0aG9uJywgJy1waCcsICc3LjAnLCAnLXRuJywgJzgnLCAnLW1hJywgJzIwMCcsICctbWV0YWxfYmluZGluZycsICctaW1hZScsICc8aW5maWxlLm1hZT4nLCAnLW9tYWUnLCAnPG91dGZpbGUubWFlPic=

> <r_lp_tautomer_probability>
1

> <r_epik_Ionization_Penalty>
4.53732

> <r_epik_Ionization_Penalty_Charging>
4.48632

> <r_epik_Ionization_Penalty_Neutral>
0.0510007

> <r_epik_State_Penalty>
4.48602

> <r_epik_Charging_Adjusted_Penalty>
8.97234

> <i_epik_Tot_Q>
-1

> <i_epik_Tot_abs_Q>
1

> <r_epik_Metal_State_Penalty>
0.812492

> <b_epik_Metal_Only>
1

> <s_lp_Force_Field>
OPLS_2005

> <r_lp_Energy>
46.8423

> <b_lp_Chiralities_Consistent>
1

> <s_lp_Variant>
AV-unprocessed.smi:798-16

> <Gold.Version>
5.8.1

> <Gold.Id.Protein>
6NUR|6NUR_protein|mol2

> <Gold.PLP.Fitness>
39.0706

> <Gold.PLP.PLP>
-26.9984

> <Gold.PLP.part.hbond>
-6.9468

> <Gold.PLP.part.metal>
0.0000

> <Gold.PLP.part.buried>
-1.7925

> <Gold.PLP.part.nonpolar>
-20.4027

> <Gold.PLP.part.repulsive>
0.0304

> <Gold.PLP.ligand.clash>
0.0000

> <Gold.PLP.ligand.torsion>
0.4860

> <Gold.PLP.Chemscore.Hbond>
4.3391

> <Gold.PLP.Chemscore.CHOScore>
0.0000

> <Gold.PLP.Chemscore.Metal>
0.0000

> <Gold.Chemscore.Hbonds>
donor molecule, donor type, donor heavy atom, donor atom, acceptor molecule, acceptor atom, score
      L1  H    18    33       P1  7957  1.00
      P1  H  6896  6909       L1     3  1.95
      P1  H  6931  6943       L1     5  1.00
      P1  H  6934  6947       L1     5  0.35

> <Gold.PLP.Chemscore.Internal.Correction>
0.0270

> <Gold.Rescore>
     Score         DG    S(hbond)    S(metal)    S(lipo)     H(rot)  DE(clash)    DE(int)     intcor
     11.90     -15.25       2.36        0.00      58.09       1.92       1.34       2.00       ----

> <Gold.Chemscore.Fitness>
11.9046

> <Gold.Chemscore.DG>
-15.2486

> <Gold.Chemscore.ZeroCoef>
-5.4800

> <Gold.Chemscore.Hbond>
2.3619

> <Gold.Chemscore.Metal>
0.0000

> <Gold.Chemscore.Lipo>
58.0908

> <Gold.Chemscore.Internal_Hbond>
0.0000

> <Gold.Chemscore.DEClash>
1.3405

> <Gold.Chemscore.DEInternal>
2.0035

> <Gold.Chemscore.Rot>
1.9207

> <Gold.Chemscore.Internal.Correction>
   9.000000E+99

> <Gold.Chemscore.Hbonds>
donor molecule, donor type, donor heavy atom, donor atom, acceptor molecule, acceptor atom, score
      L1  H    18    33       P1  7957  0.97
      P1  H  6896  6909       L1     3  0.23
      P1  H  6931  6943       L1     5  0.33
      P1  H  6934  6947       L1     5  0.04

> <Gold.Chemscore.Hbond.Weighted>
-7.8888

> <Gold.Chemscore.Metal.Weighted>
-0.0000

> <Gold.Chemscore.Lipo.Weighted>
-6.7966

> <Gold.Chemscore.Internal_Hbond.Weighted>
0.0000

> <Gold.Chemscore.DEClash.Weighted>
1.3405

> <Gold.Chemscore.DEInternal.Weighted>
2.0035

> <Gold.Chemscore.Rot.Weighted>
4.9169

> <Gold.Chemscore.Internal.Correction.Weighted>
   9.000000E+99

> <Gold.Protein.RotatedTorsions>
[ 6907 6896 6895 6894 ] final   68.19 input  -60.11 | X-H torsion
[ 7974 7965 7964 7962 ] final   17.50 input  175.53 | X-H torsion
[ 8008 7997 7996 7995 ] final  146.57 input   59.86 | X-H torsion
[ 10167 10162 10161 10158 ] final  -88.82 input  -65.29 | X-H torsion
[ 10718 10713 10712 10709 ] final  172.17 input   66.30 | X-H torsion
[ 10763 10752 10751 10750 ] final -107.16 input  -60.55 | X-H torsion
[ 11005 11000 10999 10996 ] final  -44.08 input  -57.11 | X-H torsion

> <Gold.Protein.ActiveResidues>
 VAL166  LYS551  ARG553  GLY616  TRP617  ASP618  TYR619  PRO620  LYS621  CYS622 
 ASP623  PHE694  ASN695  SER759  ASP760  ASP761  ALA762  ILE779  LEU786  VAL792 
 PHE793  MET794  SER795  GLU796  ALA797  LYS798  CYS799  TRP800  GLU811  SER814 

> <Gold.Protein.RotatedAtoms>
  152.4603  134.5199  159.9779 H   0  0  0  0  0  0  0  0  0  0  0  0  # atno 6907 bound_to 6896
  151.5249  133.3454  159.2916 H   0  0  0  0  0  0  0  0  0  0  0  0  # atno 6908 bound_to 6896
  150.8563  134.7933  159.7111 H   0  0  0  0  0  0  0  0  0  0  0  0  # atno 6909 bound_to 6896
  146.2216  139.8593  142.8608 H   0  0  0  0  0  0  0  0  0  0  0  0  # atno 7974 bound_to 7965
  156.2851  140.2179  156.5398 H   0  0  0  0  0  0  0  0  0  0  0  0  # atno 8008 bound_to 7997
  154.7379  140.0490  157.0807 H   0  0  0  0  0  0  0  0  0  0  0  0  # atno 8009 bound_to 7997
  155.0268  140.3130  155.4776 H   0  0  0  0  0  0  0  0  0  0  0  0  # atno 8010 bound_to 7997
  140.3709  143.2795  151.9501 H   0  0  0  0  0  0  0  0  0  0  0  0  # atno 10167 bound_to 10162
  156.9828  131.0124  151.2877 H   0  0  0  0  0  0  0  0  0  0  0  0  # atno 10718 bound_to 10713
  154.8058  135.4685  154.0388 H   0  0  0  0  0  0  0  0  0  0  0  0  # atno 10763 bound_to 10752
  153.1858  135.6847  153.8424 H   0  0  0  0  0  0  0  0  0  0  0  0  # atno 10764 bound_to 10752
  153.7958  135.3237  155.3361 H   0  0  0  0  0  0  0  0  0  0  0  0  # atno 10765 bound_to 10752
  141.0427  133.6773  156.2823 H   0  0  0  0  0  0  0  0  0  0  0  0  # atno 11005 bound_to 11000
  145.2721  141.0112  143.3766 LP  0  0  0  0  0  0  0  0  0  0  0  0  # atno 17320 bound_to 7965
  144.9215  139.4406  143.6539 LP  0  0  0  0  0  0  0  0  0  0  0  0  # atno 17321 bound_to 7965
  139.4804  144.5907  151.7776 LP  0  0  0  0  0  0  0  0  0  0  0  0  # atno 17342 bound_to 10162
  140.5034  144.1135  150.5976 LP  0  0  0  0  0  0  0  0  0  0  0  0  # atno 17343 bound_to 10162
  157.5514  130.8185  149.8150 LP  0  0  0  0  0  0  0  0  0  0  0  0  # atno 17370 bound_to 10713
  156.0238  130.3786  150.1884 LP  0  0  0  0  0  0  0  0  0  0  0  0  # atno 17371 bound_to 10713
  140.6205  134.5367  157.5547 LP  0  0  0  0  0  0  0  0  0  0  0  0  # atno 17394 bound_to 11000
  139.9288  134.8004  156.0991 LP  0  0  0  0  0  0  0  0  0  0  0  0  # atno 17395 bound_to 11000

$$$$
