AV-unprocessed.smi:290|AV-procd|sdf|2242|dock10
  -GOLD-   2262022123D 1   1.00000     0.00000
 Structure written by MMmdl.
 59 62  0  0  0  0  0  0  0  0  2 V2000
  151.3124  139.4307  155.1173 C   0  0  0  0  0  0  0  0  0  0  0  0
  151.2496  139.4954  156.6516 C   0  0  1  0  0  0  0  0  0  0  0  0
  152.5323  139.9051  157.1181 O   0  0  0  0  0  0  0  0  0  0  0  0
  152.3711  140.6227  158.3284 C   0  0  0  0  0  0  0  0  0  0  0  0
  151.1324  141.4598  158.0482 C   0  0  0  0  0  0  0  0  0  0  0  0
  150.2355  140.4988  157.2717 C   0  0  2  0  0  0  0  0  0  0  0  0
  149.4482  139.7869  158.2115 O   0  0  0  0  0  0  0  0  0  0  0  0
  149.2751  141.2076  156.2805 C   0  0  0  0  0  0  0  0  0  0  0  0
  148.5358  140.2889  155.4278 N   0  0  0  0  0  0  0  0  0  0  0  0
  148.5609  140.2431  154.0529 C   0  0  0  0  0  0  0  0  0  0  0  0
  147.8112  139.3214  153.5141 N   0  0  0  0  0  0  0  0  0  0  0  0
  147.2337  138.6693  154.5981 C   0  0  0  0  0  0  0  0  0  0  0  0
  146.3262  137.5789  154.7410 C   0  0  0  0  0  0  0  0  0  0  0  0
  145.8081  136.8720  153.7037 N   0  0  0  0  0  0  0  0  0  0  0  0
  145.7959  137.3720  152.3436 C   0  0  0  0  0  0  0  0  0  0  0  0
  145.5269  136.1231  151.5160 C   0  0  0  0  0  0  0  0  0  0  0  0
  144.5666  135.2965  152.3922 C   0  0  1  0  0  0  0  0  0  0  0  0
  144.6301  133.8288  152.1065 N   0  3  2  0  0  0  0  0  0  0  0  0
  146.0317  133.3353  152.0553 C   0  0  0  0  0  0  0  0  0  0  0  0
  143.8493  133.4074  150.9075 C   0  0  0  0  0  0  0  0  0  0  0  0
  143.9875  131.9090  150.5777 C   0  0  0  0  0  0  0  0  0  0  0  0
  143.1865  131.5819  149.4616 O   0  0  0  0  0  0  0  0  0  0  0  0
  144.9455  135.7024  153.8455 C   0  0  2  0  0  0  0  0  0  0  0  0
  143.6920  136.0358  154.6857 C   0  0  0  0  0  0  0  0  0  0  0  0
  145.9579  137.2358  156.0030 N   0  0  0  0  0  0  0  0  0  0  0  0
  146.4548  137.8907  157.0559 C   0  0  0  0  0  0  0  0  0  0  0  0
  147.3157  138.9093  157.0733 N   0  0  0  0  0  0  0  0  0  0  0  0
  147.6771  139.2729  155.8101 C   0  0  0  0  0  0  0  0  0  0  0  0
  143.5517  135.6407  152.1825 H   0  0  0  0  0  0  0  0  0  0  0  0
  145.5300  134.9095  154.3118 H   0  0  0  0  0  0  0  0  0  0  0  0
  150.3586  139.1186  154.6917 H   0  0  0  0  0  0  0  0  0  0  0  0
  152.0638  138.7098  154.7943 H   0  0  0  0  0  0  0  0  0  0  0  0
  151.5813  140.3953  154.6862 H   0  0  0  0  0  0  0  0  0  0  0  0
  151.0669  138.4880  157.0305 H   0  0  0  0  0  0  0  0  0  0  0  0
  152.2011  139.9276  159.1520 H   0  0  0  0  0  0  0  0  0  0  0  0
  153.2484  141.2276  158.5586 H   0  0  0  0  0  0  0  0  0  0  0  0
  150.6727  141.8632  158.9516 H   0  0  0  0  0  0  0  0  0  0  0  0
  151.4162  142.3016  157.4152 H   0  0  0  0  0  0  0  0  0  0  0  0
  148.6341  140.2507  158.3347 H   0  0  0  0  0  0  0  0  0  0  0  0
  148.5425  141.8058  156.8227 H   0  0  0  0  0  0  0  0  0  0  0  0
  149.8267  141.8994  155.6425 H   0  0  0  0  0  0  0  0  0  0  0  0
  149.1548  140.9215  153.4577 H   0  0  0  0  0  0  0  0  0  0  0  0
  144.9949  138.1036  152.2297 H   0  0  0  0  0  0  0  0  0  0  0  0
  146.7411  137.8399  152.0657 H   0  0  0  0  0  0  0  0  0  0  0  0
  145.1179  136.3620  150.5338 H   0  0  0  0  0  0  0  0  0  0  0  0
  146.4638  135.5828  151.3700 H   0  0  0  0  0  0  0  0  0  0  0  0
  146.5693  133.7790  151.2162 H   0  0  0  0  0  0  0  0  0  0  0  0
  146.0789  132.2527  151.9534 H   0  0  0  0  0  0  0  0  0  0  0  0
  146.5794  133.5692  152.9675 H   0  0  0  0  0  0  0  0  0  0  0  0
  142.7869  133.5881  151.0535 H   0  0  0  0  0  0  0  0  0  0  0  0
  144.1486  134.0126  150.0506 H   0  0  0  0  0  0  0  0  0  0  0  0
  145.0248  131.6877  150.3250 H   0  0  0  0  0  0  0  0  0  0  0  0
  143.7355  131.2643  151.4184 H   0  0  0  0  0  0  0  0  0  0  0  0
  142.2777  131.6183  149.7207 H   0  0  0  0  0  0  0  0  0  0  0  0
  142.9911  135.2034  154.7255 H   0  0  0  0  0  0  0  0  0  0  0  0
  143.1557  136.8887  154.2680 H   0  0  0  0  0  0  0  0  0  0  0  0
  143.9465  136.2860  155.7148 H   0  0  0  0  0  0  0  0  0  0  0  0
  146.1159  137.5482  158.0226 H   0  0  0  0  0  0  0  0  0  0  0  0
  144.1897  133.3743  152.8942 H   0  0  0  0  0  0  0  0  0  0  0  0
  1  2  1  0  0  0  0
  1 31  1  0  0  0  0
  1 32  1  0  0  0  0
  1 33  1  0  0  0  0
  2  6  1  0  0  0  0
  2  3  1  0  0  0  0
  2 34  1  0  0  0  0
  3  4  1  0  0  0  0
  4  5  1  0  0  0  0
  4 35  1  0  0  0  0
  4 36  1  0  0  0  0
  5  6  1  0  0  0  0
  5 37  1  0  0  0  0
  5 38  1  0  0  0  0
  6  7  1  0  0  0  0
  6  8  1  0  0  0  0
  7 39  1  0  0  0  0
  8  9  1  0  0  0  0
  8 40  1  0  0  0  0
  8 41  1  0  0  0  0
  9 28  1  0  0  0  0
  9 10  1  0  0  0  0
 10 11  2  0  0  0  0
 10 42  1  0  0  0  0
 11 12  1  0  0  0  0
 12 28  2  0  0  0  0
 12 13  1  0  0  0  0
 13 14  1  0  0  0  0
 13 25  2  0  0  0  0
 14 23  1  0  0  0  0
 14 15  1  0  0  0  0
 15 16  1  0  0  0  0
 15 43  1  0  0  0  0
 15 44  1  0  0  0  0
 16 17  1  0  0  0  0
 16 45  1  0  0  0  0
 16 46  1  0  0  0  0
 17 29  1  0  0  0  0
 17 18  1  0  0  0  0
 17 23  1  0  0  0  0
 18 19  1  0  0  0  0
 18 20  1  0  0  0  0
 18 59  1  0  0  0  0
 19 47  1  0  0  0  0
 19 48  1  0  0  0  0
 19 49  1  0  0  0  0
 20 21  1  0  0  0  0
 20 50  1  0  0  0  0
 20 51  1  0  0  0  0
 21 22  1  0  0  0  0
 21 52  1  0  0  0  0
 21 53  1  0  0  0  0
 22 54  1  0  0  0  0
 23 30  1  0  0  0  0
 23 24  1  0  0  0  0
 24 55  1  0  0  0  0
 24 56  1  0  0  0  0
 24 57  1  0  0  0  0
 25 26  1  0  0  0  0
 26 27  2  0  0  0  0
 26 58  1  0  0  0  0
 27 28  1  0  0  0  0
M  CHG  1  18   1
M  END
> <s_m_source_file>
AV-unprocessed.smi

> <i_m_source_file_index>
290

> <i_lp_mmshare_version>
43012

> <i_f3d_flags>
0

> <s_epik_input>
W0NIMl0xW0NIMl1PW0NAQEhdKFtDSDNdKVtDQEBdMShbT0hdKVtDSDJdbihbY0hdbjIpYyhjMjMpbltjSF1uYzNONFtDSDJdW0NIMl1bQ0BIXShbQ0BIXTRbQ0gzXSlOKFtDSDNdKVtDSDJdW0NIMl1bT0hd

> <s_epik_cmdline>
J2VwaWtfcHl0aG9uJywgJy1waCcsICc3LjAnLCAnLXRuJywgJzgnLCAnLW1hJywgJzIwMCcsICctbWV0YWxfYmluZGluZycsICctaW1hZScsICc8aW5maWxlLm1hZT4nLCAnLW9tYWUnLCAnPG91dGZpbGUubWFlPic=

> <r_lp_tautomer_probability>
1

> <r_epik_Ionization_Penalty>
0.0036983

> <r_epik_Ionization_Penalty_Charging>
0.0032725

> <r_epik_Ionization_Penalty_Neutral>
0.000425798

> <r_epik_State_Penalty>
-0

> <r_epik_Charging_Adjusted_Penalty>
0.0032725

> <i_epik_Tot_Q>
1

> <i_epik_Tot_abs_Q>
1

> <r_epik_Metal_State_Penalty>
-0

> <b_epik_Metal_Only>
0

> <s_lp_Force_Field>
OPLS_2005

> <r_lp_Energy>
64.6527

> <b_lp_Chiralities_Consistent>
1

> <s_lp_Variant>
AV-unprocessed.smi:290-28

> <Gold.Version>
5.8.1

> <Gold.Id.Protein>
6NUR|6NUR_protein|mol2

> <Gold.PLP.Fitness>
41.5729

> <Gold.PLP.PLP>
-32.2310

> <Gold.PLP.part.hbond>
-3.0000

> <Gold.PLP.part.metal>
0.0000

> <Gold.PLP.part.buried>
-6.2543

> <Gold.PLP.part.nonpolar>
-25.0051

> <Gold.PLP.part.repulsive>
0.8342

> <Gold.PLP.ligand.clash>
0.0000

> <Gold.PLP.ligand.torsion>
0.4160

> <Gold.PLP.Chemscore.Hbond>
2.6720

> <Gold.PLP.Chemscore.CHOScore>
0.6619

> <Gold.PLP.Chemscore.Metal>
0.0000

> <Gold.Chemscore.Hbonds>
donor molecule, donor type, donor heavy atom, donor atom, acceptor molecule, acceptor atom, score
      L1  H    22    54       P1 10952  0.66
      P1  H  7997  8008       L1     3  1.00
      P1  H 10785 10796       L1    22  0.95
      L1  C    10    42       P1  7957  0.66

> <Gold.PLP.Chemscore.Internal.Correction>
0.1722

> <Gold.Rescore>
     Score         DG    S(hbond)    S(metal)    S(lipo)     H(rot)  DE(clash)    DE(int)     intcor
      7.19     -13.25       2.24        0.00      75.65       3.35       0.21       5.84       ----

> <Gold.Chemscore.Fitness>
7.1911

> <Gold.Chemscore.DG>
-13.2476

> <Gold.Chemscore.ZeroCoef>
-5.4800

> <Gold.Chemscore.Hbond>
2.2448

> <Gold.Chemscore.Metal>
0.0000

> <Gold.Chemscore.Lipo>
75.6454

> <Gold.Chemscore.Internal_Hbond>
0.0000

> <Gold.Chemscore.DEClash>
0.2141

> <Gold.Chemscore.DEInternal>
5.8425

> <Gold.Chemscore.Rot>
3.3518

> <Gold.Chemscore.Internal.Correction>
   9.000000E+99

> <Gold.Chemscore.Hbonds>
donor molecule, donor type, donor heavy atom, donor atom, acceptor molecule, acceptor atom, score
      L1  H    22    54       P1 10952  0.65
      P1  H  7997  8008       L1     3  0.55
      P1  H 10785 10796       L1    22  0.21

> <Gold.Chemscore.Hbond.Weighted>
-7.4977

> <Gold.Chemscore.Metal.Weighted>
-0.0000

> <Gold.Chemscore.Lipo.Weighted>
-8.8505

> <Gold.Chemscore.Internal_Hbond.Weighted>
0.0000

> <Gold.Chemscore.DEClash.Weighted>
0.2141

> <Gold.Chemscore.DEInternal.Weighted>
5.8425

> <Gold.Chemscore.Rot.Weighted>
8.5806

> <Gold.Chemscore.Internal.Correction.Weighted>
   9.000000E+99

> <Gold.Protein.RotatedTorsions>
[ 6907 6896 6895 6894 ] final -145.67 input  -60.11 | X-H torsion
[ 7974 7965 7964 7962 ] final  126.86 input  175.53 | X-H torsion
[ 8008 7997 7996 7995 ] final  -59.01 input   59.86 | X-H torsion
[ 10167 10162 10161 10158 ] final  -20.48 input  -65.29 | X-H torsion
[ 10718 10713 10712 10709 ] final   70.23 input   66.30 | X-H torsion
[ 10763 10752 10751 10750 ] final  -55.22 input  -60.55 | X-H torsion
[ 11005 11000 10999 10996 ] final   37.19 input  -57.11 | X-H torsion

> <Gold.Protein.ActiveResidues>
 VAL166  LYS551  ARG553  GLY616  TRP617  ASP618  TYR619  PRO620  LYS621  CYS622 
 ASP623  PHE694  ASN695  SER759  ASP760  ASP761  ALA762  ILE779  LEU786  VAL792 
 PHE793  MET794  SER795  GLU796  ALA797  LYS798  CYS799  TRP800  GLU811  SER814 

> <Gold.Protein.RotatedAtoms>
  151.1310  133.5037  159.2598 H   0  0  0  0  0  0  0  0  0  0  0  0  # atno 6907 bound_to 6896
  151.1757  135.0338  159.8781 H   0  0  0  0  0  0  0  0  0  0  0  0  # atno 6908 bound_to 6896
  152.5460  134.1168  159.8435 H   0  0  0  0  0  0  0  0  0  0  0  0  # atno 6909 bound_to 6896
  145.0570  139.3836  143.5025 H   0  0  0  0  0  0  0  0  0  0  0  0  # atno 7974 bound_to 7965
  154.4333  140.1071  156.6048 H   0  0  0  0  0  0  0  0  0  0  0  0  # atno 8008 bound_to 7997
  155.5873  140.3491  155.4538 H   0  0  0  0  0  0  0  0  0  0  0  0  # atno 8009 bound_to 7997
  156.0273  140.1253  157.0284 H   0  0  0  0  0  0  0  0  0  0  0  0  # atno 8010 bound_to 7997
  140.7276  143.4718  151.0236 H   0  0  0  0  0  0  0  0  0  0  0  0  # atno 10167 bound_to 10162
  157.6389  130.9467  150.0623 H   0  0  0  0  0  0  0  0  0  0  0  0  # atno 10718 bound_to 10713
  154.1873  135.6433  153.5050 H   0  0  0  0  0  0  0  0  0  0  0  0  # atno 10763 bound_to 10752
  153.0044  135.5420  154.6452 H   0  0  0  0  0  0  0  0  0  0  0  0  # atno 10764 bound_to 10752
  154.5832  135.2927  155.0684 H   0  0  0  0  0  0  0  0  0  0  0  0  # atno 10765 bound_to 10752
  140.2250  134.3596  155.7988 H   0  0  0  0  0  0  0  0  0  0  0  0  # atno 11005 bound_to 11000
  146.3522  140.0249  142.8655 LP  0  0  0  0  0  0  0  0  0  0  0  0  # atno 17320 bound_to 7965
  145.1456  140.9595  143.4463 LP  0  0  0  0  0  0  0  0  0  0  0  0  # atno 17321 bound_to 7965
  139.8411  143.7563  152.3180 LP  0  0  0  0  0  0  0  0  0  0  0  0  # atno 17342 bound_to 10162
  139.7712  144.7476  151.0222 LP  0  0  0  0  0  0  0  0  0  0  0  0  # atno 17343 bound_to 10162
  156.1652  130.3645  149.9243 LP  0  0  0  0  0  0  0  0  0  0  0  0  # atno 17370 bound_to 10713
  156.7231  130.9014  151.3620 LP  0  0  0  0  0  0  0  0  0  0  0  0  # atno 17371 bound_to 10713
  141.2221  133.7214  156.8638 LP  0  0  0  0  0  0  0  0  0  0  0  0  # atno 17394 bound_to 11000
  140.1810  134.9033  157.2948 LP  0  0  0  0  0  0  0  0  0  0  0  0  # atno 17395 bound_to 11000

$$$$
