AV-unprocessed.smi:1508|AV-procd|sdf|6087|dock9
  -GOLD-   22720 6213D 1   1.00000     0.00000
 Structure written by MMmdl.
 38 39  0  0  0  0  0  0  0  0  2 V2000
  149.4980  149.0492  155.0796 C   0  0  0  0  0  0  0  0  0  0  0  0
  149.8091  148.4831  156.4734 C   0  0  0  0  0  0  0  0  0  0  0  0
  148.7675  148.8488  157.5658 C   0  0  1  0  0  0  0  0  0  0  0  0
  148.7667  147.8323  158.7430 C   0  0  0  0  0  0  0  0  0  0  0  0
  149.2651  146.5096  158.3667 N   0  0  0  0  0  0  0  0  0  0  0  0
  150.0024  145.7027  159.1431 C   0  0  0  0  0  0  0  0  0  0  0  0
  150.3422  145.9897  160.2899 O   0  0  0  0  0  0  0  0  0  0  0  0
  150.3055  144.5605  158.5057 N   0  0  0  0  0  0  0  0  0  0  0  0
  151.0489  143.4587  158.9983 C   0  0  0  0  0  0  0  0  0  0  0  0
  151.7194  143.6174  160.1451 N   0  0  0  0  0  0  0  0  0  0  0  0
  152.4030  142.4647  160.5119 N   0  0  0  0  0  0  0  0  0  0  0  0
  152.2205  141.4805  159.6262 C   0  0  0  0  0  0  0  0  0  0  0  0
  151.1972  141.8643  158.2534 S   0  0  0  0  0  0  0  0  0  0  0  0
  148.9607  150.2442  158.0669 N   0  3  0  0  0  0  0  0  0  0  0  0
  147.8820  150.7900  158.9200 C   0  0  0  0  0  0  0  0  0  0  0  0
  148.5186  151.9575  159.6646 C   0  0  0  0  0  0  0  0  0  0  0  0
  149.9338  151.4626  159.9371 C   0  0  0  0  0  0  0  0  0  0  0  0
  150.2336  150.4806  158.7963 C   0  0  0  0  0  0  0  0  0  0  0  0
  150.3219  148.8502  154.3941 H   0  0  0  0  0  0  0  0  0  0  0  0
  149.3537  150.1293  155.1155 H   0  0  0  0  0  0  0  0  0  0  0  0
  148.6060  148.6038  154.6419 H   0  0  0  0  0  0  0  0  0  0  0  0
  149.9327  147.4018  156.4120 H   0  0  0  0  0  0  0  0  0  0  0  0
  150.7878  148.8780  156.7432 H   0  0  0  0  0  0  0  0  0  0  0  0
  147.7837  148.8107  157.0947 H   0  0  0  0  0  0  0  0  0  0  0  0
  149.4161  148.1944  159.5397 H   0  0  0  0  0  0  0  0  0  0  0  0
  147.7848  147.7597  159.2102 H   0  0  0  0  0  0  0  0  0  0  0  0
  149.0492  146.1934  157.4325 H   0  0  0  0  0  0  0  0  0  0  0  0
  149.9635  144.4622  157.5612 H   0  0  0  0  0  0  0  0  0  0  0  0
  152.6923  140.5217  159.7823 H   0  0  0  0  0  0  0  0  0  0  0  0
  147.0189  151.1098  158.3353 H   0  0  0  0  0  0  0  0  0  0  0  0
  147.5542  150.0311  159.6328 H   0  0  0  0  0  0  0  0  0  0  0  0
  148.5509  152.8352  159.0180 H   0  0  0  0  0  0  0  0  0  0  0  0
  147.9796  152.2272  160.5734 H   0  0  0  0  0  0  0  0  0  0  0  0
  150.6559  152.2782  159.9892 H   0  0  0  0  0  0  0  0  0  0  0  0
  149.9617  150.9360  160.8923 H   0  0  0  0  0  0  0  0  0  0  0  0
  150.6385  149.5563  159.2112 H   0  0  0  0  0  0  0  0  0  0  0  0
  150.9743  150.8869  158.1069 H   0  0  0  0  0  0  0  0  0  0  0  0
  148.9912  150.8438  157.2547 H   0  0  0  0  0  0  0  0  0  0  0  0
  1  2  1  0  0  0  0
  1 19  1  0  0  0  0
  1 20  1  0  0  0  0
  1 21  1  0  0  0  0
  2  3  1  0  0  0  0
  2 22  1  0  0  0  0
  2 23  1  0  0  0  0
  3  4  1  0  0  0  0
  3 14  1  0  0  0  0
  3 24  1  0  0  0  0
  4  5  1  0  0  0  0
  4 25  1  0  0  0  0
  4 26  1  0  0  0  0
  5  6  1  0  0  0  0
  5 27  1  0  0  0  0
  6  7  2  0  0  0  0
  6  8  1  0  0  0  0
  8  9  1  0  0  0  0
  8 28  1  0  0  0  0
  9 13  1  0  0  0  0
  9 10  2  0  0  0  0
 10 11  1  0  0  0  0
 11 12  2  0  0  0  0
 12 13  1  0  0  0  0
 12 29  1  0  0  0  0
 14 18  1  0  0  0  0
 14 15  1  0  0  0  0
 14 38  1  0  0  0  0
 15 16  1  0  0  0  0
 15 30  1  0  0  0  0
 15 31  1  0  0  0  0
 16 17  1  0  0  0  0
 16 32  1  0  0  0  0
 16 33  1  0  0  0  0
 17 18  1  0  0  0  0
 17 34  1  0  0  0  0
 17 35  1  0  0  0  0
 18 36  1  0  0  0  0
 18 37  1  0  0  0  0
M  CHG  1  14   1
M  END
> <s_m_source_file>
AV-unprocessed.smi

> <i_m_source_file_index>
1508

> <i_lp_mmshare_version>
43012

> <i_f3d_flags>
0

> <s_epik_input>
W0NIMl0xW0NIMl1bQ0gyXVtDSDJdTjFbQ0BIXShbQ0gyXVtDSDNdKVtDSDJdW05IXUMoPU8pW05IXWMybm5bY0hdczI=

> <s_epik_cmdline>
J2VwaWtfcHl0aG9uJywgJy1waCcsICc3LjAnLCAnLXRuJywgJzgnLCAnLW1hJywgJzIwMCcsICctbWV0YWxfYmluZGluZycsICctaW1hZScsICc8aW5maWxlLm1hZT4nLCAnLW9tYWUnLCAnPG91dGZpbGUubWFlPic=

> <r_lp_tautomer_probability>
1

> <r_epik_Ionization_Penalty>
0.00193711

> <r_epik_Ionization_Penalty_Charging>
0.00115997

> <r_epik_Ionization_Penalty_Neutral>
0.000777142

> <r_epik_State_Penalty>
-0

> <r_epik_Charging_Adjusted_Penalty>
0.00115997

> <i_epik_Tot_Q>
1

> <i_epik_Tot_abs_Q>
1

> <r_epik_Metal_State_Penalty>
0.264283

> <b_epik_Metal_Only>
0

> <s_lp_Force_Field>
OPLS_2005

> <r_lp_Energy>
37.6611

> <b_lp_Chiralities_Consistent>
1

> <s_lp_Variant>
AV-unprocessed.smi:1508-2

> <Gold.Version>
5.8.1

> <Gold.Id.Protein>
6NUR|6NUR_protein|mol2

> <Gold.PLP.Fitness>
48.1797

> <Gold.PLP.PLP>
-37.8723

> <Gold.PLP.part.hbond>
-3.0000

> <Gold.PLP.part.metal>
0.0000

> <Gold.PLP.part.buried>
-4.8618

> <Gold.PLP.part.nonpolar>
-30.9027

> <Gold.PLP.part.repulsive>
0.3033

> <Gold.PLP.ligand.clash>
0.0000

> <Gold.PLP.ligand.torsion>
0.8748

> <Gold.PLP.Chemscore.Hbond>
4.0000

> <Gold.PLP.Chemscore.CHOScore>
0.0000

> <Gold.PLP.Chemscore.Metal>
0.0000

> <Gold.Chemscore.Hbonds>
donor molecule, donor type, donor heavy atom, donor atom, acceptor molecule, acceptor atom, score
      L1  H     5    27       P1  8029  0.01
      L1  H     8    28       P1  8028  0.63

> <Gold.PLP.Chemscore.Internal.Correction>
0.0569

> <Gold.Rescore>
     Score         DG    S(hbond)    S(metal)    S(lipo)     H(rot)  DE(clash)    DE(int)     intcor
     15.10     -18.04       2.95        0.00      64.68       1.89       0.13       2.81       ----

> <Gold.Chemscore.Fitness>
15.1039

> <Gold.Chemscore.DG>
-18.0408

> <Gold.Chemscore.ZeroCoef>
-5.4800

> <Gold.Chemscore.Hbond>
2.9474

> <Gold.Chemscore.Metal>
0.0000

> <Gold.Chemscore.Lipo>
64.6807

> <Gold.Chemscore.Internal_Hbond>
0.0000

> <Gold.Chemscore.DEClash>
0.1286

> <Gold.Chemscore.DEInternal>
2.8083

> <Gold.Chemscore.Rot>
1.8950

> <Gold.Chemscore.Internal.Correction>
   9.000000E+99

> <Gold.Chemscore.Hbonds>
donor molecule, donor type, donor heavy atom, donor atom, acceptor molecule, acceptor atom, score
      L1  H     8    28       P1  8028  0.14

> <Gold.Chemscore.Hbond.Weighted>
-9.8442

> <Gold.Chemscore.Metal.Weighted>
-0.0000

> <Gold.Chemscore.Lipo.Weighted>
-7.5676

> <Gold.Chemscore.Internal_Hbond.Weighted>
0.0000

> <Gold.Chemscore.DEClash.Weighted>
0.1286

> <Gold.Chemscore.DEInternal.Weighted>
2.8083

> <Gold.Chemscore.Rot.Weighted>
4.8511

> <Gold.Chemscore.Internal.Correction.Weighted>
   9.000000E+99

> <Gold.Protein.RotatedTorsions>
[ 6907 6896 6895 6894 ] final   97.15 input  -60.11 | X-H torsion
[ 7974 7965 7964 7962 ] final   18.32 input  175.53 | X-H torsion
[ 8008 7997 7996 7995 ] final -118.96 input   59.86 | X-H torsion
[ 10167 10162 10161 10158 ] final -115.74 input  -65.29 | X-H torsion
[ 10718 10713 10712 10709 ] final  -82.60 input   66.30 | X-H torsion
[ 10763 10752 10751 10750 ] final   20.76 input  -60.55 | X-H torsion
[ 11005 11000 10999 10996 ] final -110.22 input  -57.11 | X-H torsion

> <Gold.Protein.ActiveResidues>
 VAL166  LYS551  ARG553  GLY616  TRP617  ASP618  TYR619  PRO620  LYS621  CYS622 
 ASP623  PHE694  ASN695  SER759  ASP760  ASP761  ALA762  ILE779  LEU786  VAL792 
 PHE793  MET794  SER795  GLU796  ALA797  LYS798  CYS799  TRP800  GLU811  SER814 

> <Gold.Protein.RotatedAtoms>
  152.5427  134.0777  159.8221 H   0  0  0  0  0  0  0  0  0  0  0  0  # atno 6907 bound_to 6896
  151.0883  133.5328  159.2624 H   0  0  0  0  0  0  0  0  0  0  0  0  # atno 6908 bound_to 6896
  151.2130  135.0497  159.8973 H   0  0  0  0  0  0  0  0  0  0  0  0  # atno 6909 bound_to 6896
  146.2189  139.8473  142.8629 H   0  0  0  0  0  0  0  0  0  0  0  0  # atno 7974 bound_to 7965
  155.1080  140.0397  157.2716 H   0  0  0  0  0  0  0  0  0  0  0  0  # atno 8008 bound_to 7997
  154.6707  140.2611  155.6985 H   0  0  0  0  0  0  0  0  0  0  0  0  # atno 8009 bound_to 7997
  156.2657  140.2798  156.1214 H   0  0  0  0  0  0  0  0  0  0  0  0  # atno 8010 bound_to 7997
  140.0868  143.4737  152.1894 H   0  0  0  0  0  0  0  0  0  0  0  0  # atno 10167 bound_to 10162
  156.0030  130.4639  150.4130 H   0  0  0  0  0  0  0  0  0  0  0  0  # atno 10718 bound_to 10713
  153.1050  135.6682  153.9602 H   0  0  0  0  0  0  0  0  0  0  0  0  # atno 10763 bound_to 10752
  153.9162  135.3019  155.3449 H   0  0  0  0  0  0  0  0  0  0  0  0  # atno 10764 bound_to 10752
  154.7472  135.5052  153.9300 H   0  0  0  0  0  0  0  0  0  0  0  0  # atno 10765 bound_to 10752
  141.0804  133.9229  157.2300 H   0  0  0  0  0  0  0  0  0  0  0  0  # atno 11005 bound_to 11000
  145.2837  141.0146  143.3703 LP  0  0  0  0  0  0  0  0  0  0  0  0  # atno 17320 bound_to 7965
  144.9130  139.4505  143.6578 LP  0  0  0  0  0  0  0  0  0  0  0  0  # atno 17321 bound_to 7965
  139.5748  144.7481  151.3795 LP  0  0  0  0  0  0  0  0  0  0  0  0  # atno 17342 bound_to 10162
  140.7049  143.7538  150.7465 LP  0  0  0  0  0  0  0  0  0  0  0  0  # atno 17343 bound_to 10162
  157.2191  131.0478  151.2556 LP  0  0  0  0  0  0  0  0  0  0  0  0  # atno 17370 bound_to 10713
  157.3817  130.7235  149.6634 LP  0  0  0  0  0  0  0  0  0  0  0  0  # atno 17371 bound_to 10713
  139.9618  135.0152  156.9280 LP  0  0  0  0  0  0  0  0  0  0  0  0  # atno 17394 bound_to 11000
  140.5481  134.0654  155.7361 LP  0  0  0  0  0  0  0  0  0  0  0  0  # atno 17395 bound_to 11000

$$$$
