AV-unprocessed.smi:1230|AV-procd|sdf|5152|dock5
  -GOLD-   22720 4223D 1   1.00000     0.00000
 Structure written by MMmdl.
 38 39  0  0  0  0  0  0  0  0  2 V2000
  153.6018  141.4554  160.6078 C   0  0  0  0  0  0  0  0  0  0  0  0
  152.9715  142.5441  159.7238 C   0  0  2  0  0  0  0  0  0  0  0  0
  152.4434  143.7074  160.5876 C   0  0  0  0  0  0  0  0  0  0  0  0
  151.8008  144.8085  159.7305 C   0  0  0  0  0  0  0  0  0  0  0  0
  150.6791  144.2382  158.8518 C   0  0  0  0  0  0  0  0  0  0  0  0
  151.1974  143.0867  157.9788 C   0  0  0  0  0  0  0  0  0  0  0  0
  151.8472  141.9746  158.8297 C   0  0  1  0  0  0  0  0  0  0  0  0
  152.4225  141.0133  157.9566 O   0  0  0  0  0  0  0  0  0  0  0  0
  151.5442  139.9627  157.5804 C   0  0  0  0  0  0  0  0  0  0  0  0
  152.3224  138.6391  157.6013 C   0  0  0  0  0  0  0  0  0  0  0  0
  151.4159  137.4971  157.7847 N   0  0  0  0  0  0  0  0  0  0  0  0
  150.4305  137.6052  158.7808 C   0  0  0  0  0  0  0  0  0  0  0  0
  149.5757  136.5983  159.0411 C   0  0  0  0  0  0  0  0  0  0  0  0
  148.5748  136.6790  160.0534 C   0  0  0  0  0  0  0  0  0  0  0  0
  147.7767  136.7699  160.8875 N   0  0  0  0  0  0  0  0  0  0  0  0
  149.6834  135.3689  158.2595 C   0  0  0  0  0  0  0  0  0  0  0  0
  148.9109  134.4349  158.4710 O   0  0  0  0  0  0  0  0  0  0  0  0
  150.6628  135.3157  157.3093 N   0  5  0  0  0  0  0  0  0  0  0  0
  151.5326  136.3441  157.0598 C   0  0  0  0  0  0  0  0  0  0  0  0
  152.4180  136.2642  156.2079 O   0  0  0  0  0  0  0  0  0  0  0  0
  152.8636  141.0112  161.2760 H   0  0  0  0  0  0  0  0  0  0  0  0
  154.4032  141.8649  161.2229 H   0  0  0  0  0  0  0  0  0  0  0  0
  154.0303  140.6538  160.0057 H   0  0  0  0  0  0  0  0  0  0  0  0
  153.7541  142.9387  159.0738 H   0  0  0  0  0  0  0  0  0  0  0  0
  151.7099  143.3318  161.3025 H   0  0  0  0  0  0  0  0  0  0  0  0
  153.2564  144.1336  161.1764 H   0  0  0  0  0  0  0  0  0  0  0  0
  151.4064  145.5974  160.3714 H   0  0  0  0  0  0  0  0  0  0  0  0
  152.5602  145.2720  159.0995 H   0  0  0  0  0  0  0  0  0  0  0  0
  149.8631  143.8821  159.4820 H   0  0  0  0  0  0  0  0  0  0  0  0
  150.2640  145.0248  158.2210 H   0  0  0  0  0  0  0  0  0  0  0  0
  150.3760  142.6869  157.3845 H   0  0  0  0  0  0  0  0  0  0  0  0
  151.9277  143.4729  157.2666 H   0  0  0  0  0  0  0  0  0  0  0  0
  151.0954  141.5066  159.4689 H   0  0  0  0  0  0  0  0  0  0  0  0
  150.7139  139.9247  158.2863 H   0  0  0  0  0  0  0  0  0  0  0  0
  151.1155  140.1278  156.5915 H   0  0  0  0  0  0  0  0  0  0  0  0
  152.8942  138.5305  156.6786 H   0  0  0  0  0  0  0  0  0  0  0  0
  153.0682  138.6619  158.3973 H   0  0  0  0  0  0  0  0  0  0  0  0
  150.4228  138.5413  159.3201 H   0  0  0  0  0  0  0  0  0  0  0  0
  1  2  1  0  0  0  0
  1 21  1  0  0  0  0
  1 22  1  0  0  0  0
  1 23  1  0  0  0  0
  2  7  1  0  0  0  0
  2  3  1  0  0  0  0
  2 24  1  0  0  0  0
  3  4  1  0  0  0  0
  3 25  1  0  0  0  0
  3 26  1  0  0  0  0
  4  5  1  0  0  0  0
  4 27  1  0  0  0  0
  4 28  1  0  0  0  0
  5  6  1  0  0  0  0
  5 29  1  0  0  0  0
  5 30  1  0  0  0  0
  6  7  1  0  0  0  0
  6 31  1  0  0  0  0
  6 32  1  0  0  0  0
  7  8  1  0  0  0  0
  7 33  1  0  0  0  0
  8  9  1  0  0  0  0
  9 10  1  0  0  0  0
  9 34  1  0  0  0  0
  9 35  1  0  0  0  0
 10 11  1  0  0  0  0
 10 36  1  0  0  0  0
 10 37  1  0  0  0  0
 11 19  1  0  0  0  0
 11 12  1  0  0  0  0
 12 13  2  0  0  0  0
 12 38  1  0  0  0  0
 13 14  1  0  0  0  0
 13 16  1  0  0  0  0
 14 15  3  0  0  0  0
 16 17  2  0  0  0  0
 16 18  1  0  0  0  0
 18 19  1  0  0  0  0
 19 20  2  0  0  0  0
M  CHG  1  18  -1
M  END
> <s_m_source_file>
AV-unprocessed.smi

> <i_m_source_file_index>
1230

> <i_lp_mmshare_version>
43012

> <i_f3d_flags>
0

> <s_epik_input>
W0NIM11bQ0BASF0xW0NIMl1bQ0gyXVtDSDJdW0NIMl1bQ0BIXTFPW0NIMl1bQ0gyXW4yW2NIXWMoQyNOKWMoPU8pW25IXWMyPU8=

> <s_epik_cmdline>
J2VwaWtfcHl0aG9uJywgJy1waCcsICc3LjAnLCAnLXRuJywgJzgnLCAnLW1hJywgJzIwMCcsICctbWV0YWxfYmluZGluZycsICctaW1hZScsICc8aW5maWxlLm1hZT4nLCAnLW9tYWUnLCAnPG91dGZpbGUubWFlPic=

> <r_epik_Ionization_Penalty>
0.400014

> <r_epik_Ionization_Penalty_Charging>
4.81474e-10

> <r_epik_Ionization_Penalty_Neutral>
0.400014

> <r_epik_State_Penalty>
0.399305

> <r_epik_Charging_Adjusted_Penalty>
0.399305

> <i_epik_Tot_Q>
-1

> <i_epik_Tot_abs_Q>
1

> <r_epik_Metal_State_Penalty>
0.00056968

> <b_epik_Metal_Only>
0

> <s_lp_Force_Field>
OPLS_2005

> <r_lp_Energy>
24.1099

> <b_lp_Chiralities_Consistent>
1

> <s_lp_Variant>
AV-unprocessed.smi:1230-1

> <Gold.Version>
5.8.1

> <Gold.Id.Protein>
6NUR|6NUR_protein|mol2

> <Gold.PLP.Fitness>
39.4408

> <Gold.PLP.PLP>
-34.8029

> <Gold.PLP.part.hbond>
-4.8243

> <Gold.PLP.part.metal>
0.0000

> <Gold.PLP.part.buried>
-0.3282

> <Gold.PLP.part.nonpolar>
-29.0418

> <Gold.PLP.part.repulsive>
0.0000

> <Gold.PLP.ligand.clash>
0.0000

> <Gold.PLP.ligand.torsion>
0.9855

> <Gold.PLP.Chemscore.Hbond>
2.1958

> <Gold.PLP.Chemscore.CHOScore>
0.0000

> <Gold.PLP.Chemscore.Metal>
0.0000

> <Gold.Chemscore.Hbonds>
donor molecule, donor type, donor heavy atom, donor atom, acceptor molecule, acceptor atom, score
      P1  H  6931  6943       L1    15  0.27
      P1  H  6934  6947       L1    15  0.24
      P1  H 10752 10764       L1    20  1.00

> <Gold.PLP.Chemscore.Internal.Correction>
0.0213

> <Gold.Rescore>
     Score         DG    S(hbond)    S(metal)    S(lipo)     H(rot)  DE(clash)    DE(int)     intcor
     16.85     -17.95       1.87        0.00      94.63       1.90       0.04       1.05       ----

> <Gold.Chemscore.Fitness>
16.8528

> <Gold.Chemscore.DG>
-17.9456

> <Gold.Chemscore.ZeroCoef>
-5.4800

> <Gold.Chemscore.Hbond>
1.8725

> <Gold.Chemscore.Metal>
0.0000

> <Gold.Chemscore.Lipo>
94.6261

> <Gold.Chemscore.Internal_Hbond>
0.0000

> <Gold.Chemscore.DEClash>
0.0407

> <Gold.Chemscore.DEInternal>
1.0521

> <Gold.Chemscore.Rot>
1.8984

> <Gold.Chemscore.Internal.Correction>
   9.000000E+99

> <Gold.Chemscore.Hbonds>
donor molecule, donor type, donor heavy atom, donor atom, acceptor molecule, acceptor atom, score
      P1  H  6931  6943       L1    15  0.01
      P1  H  6934  6947       L1    15  0.12
      P1  H 10752 10764       L1    20  0.97

> <Gold.Chemscore.Hbond.Weighted>
-6.2541

> <Gold.Chemscore.Metal.Weighted>
-0.0000

> <Gold.Chemscore.Lipo.Weighted>
-11.0712

> <Gold.Chemscore.Internal_Hbond.Weighted>
0.0000

> <Gold.Chemscore.DEClash.Weighted>
0.0407

> <Gold.Chemscore.DEInternal.Weighted>
1.0521

> <Gold.Chemscore.Rot.Weighted>
4.8598

> <Gold.Chemscore.Internal.Correction.Weighted>
   9.000000E+99

> <Gold.Protein.RotatedTorsions>
[ 6907 6896 6895 6894 ] final   16.53 input  -60.11 | X-H torsion
[ 7974 7965 7964 7962 ] final  -95.52 input  175.53 | X-H torsion
[ 8008 7997 7996 7995 ] final   51.68 input   59.86 | X-H torsion
[ 10167 10162 10161 10158 ] final  157.39 input  -65.29 | X-H torsion
[ 10718 10713 10712 10709 ] final  130.75 input   66.30 | X-H torsion
[ 10763 10752 10751 10750 ] final  -26.47 input  -60.55 | X-H torsion
[ 11005 11000 10999 10996 ] final   47.38 input  -57.11 | X-H torsion

> <Gold.Protein.ActiveResidues>
 VAL166  LYS551  ARG553  GLY616  TRP617  ASP618  TYR619  PRO620  LYS621  CYS622 
 ASP623  PHE694  ASN695  SER759  ASP760  ASP761  ALA762  ILE779  LEU786  VAL792 
 PHE793  MET794  SER795  GLU796  ALA797  LYS798  CYS799  TRP800  GLU811  SER814 

> <Gold.Protein.RotatedAtoms>
  151.8353  135.0608  160.0441 H   0  0  0  0  0  0  0  0  0  0  0  0  # atno 6907 bound_to 6896
  152.2850  133.5502  159.5530 H   0  0  0  0  0  0  0  0  0  0  0  0  # atno 6908 bound_to 6896
  150.7205  134.0426  159.3813 H   0  0  0  0  0  0  0  0  0  0  0  0  # atno 6909 bound_to 6896
  145.3590  140.9489  143.2511 H   0  0  0  0  0  0  0  0  0  0  0  0  # atno 7974 bound_to 7965
  155.4393  140.3454  155.4288 H   0  0  0  0  0  0  0  0  0  0  0  0  # atno 8008 bound_to 7997
  156.1289  140.1508  156.9126 H   0  0  0  0  0  0  0  0  0  0  0  0  # atno 8009 bound_to 7997
  154.4879  140.0850  156.7508 H   0  0  0  0  0  0  0  0  0  0  0  0  # atno 8010 bound_to 7997
  139.4823  144.4921  151.8292 H   0  0  0  0  0  0  0  0  0  0  0  0  # atno 10167 bound_to 10162
  157.5033  131.1095  150.9397 H   0  0  0  0  0  0  0  0  0  0  0  0  # atno 10718 bound_to 10713
  153.7165  135.6947  153.5024 H   0  0  0  0  0  0  0  0  0  0  0  0  # atno 10763 bound_to 10752
  153.2234  135.4362  155.0514 H   0  0  0  0  0  0  0  0  0  0  0  0  # atno 10764 bound_to 10752
  154.8298  135.3466  154.6700 H   0  0  0  0  0  0  0  0  0  0  0  0  # atno 10765 bound_to 10752
  140.1285  134.4737  155.8540 H   0  0  0  0  0  0  0  0  0  0  0  0  # atno 11005 bound_to 11000
  144.8661  139.5106  143.6790 LP  0  0  0  0  0  0  0  0  0  0  0  0  # atno 17320 bound_to 7965
  146.2935  139.7210  142.9143 LP  0  0  0  0  0  0  0  0  0  0  0  0  # atno 17321 bound_to 7965
  140.4407  144.1991  150.5891 LP  0  0  0  0  0  0  0  0  0  0  0  0  # atno 17342 bound_to 10162
  140.4686  143.2421  151.9120 LP  0  0  0  0  0  0  0  0  0  0  0  0  # atno 17343 bound_to 10162
  157.0061  130.5618  149.5316 LP  0  0  0  0  0  0  0  0  0  0  0  0  # atno 17370 bound_to 10713
  156.0242  130.5337  150.8361 LP  0  0  0  0  0  0  0  0  0  0  0  0  # atno 17371 bound_to 10713
  141.2166  133.6787  156.7023 LP  0  0  0  0  0  0  0  0  0  0  0  0  # atno 17394 bound_to 11000
  140.2873  134.8269  157.3986 LP  0  0  0  0  0  0  0  0  0  0  0  0  # atno 17395 bound_to 11000

$$$$
