AV-unprocessed.smi:221|AV-procd|sdf|1698|dock9
  -GOLD-   2262020153D 1   1.00000     0.00000
 Structure written by MMmdl.
 50 53  0  0  0  0  0  0  0  0  1 V2000
  147.4096  144.4874  159.5575 N   0  0  0  0  0  0  0  0  0  0  0  0
  146.2446  143.8411  159.6432 C   0  0  0  0  0  0  0  0  0  0  0  0
  146.0616  142.9273  160.4458 O   0  0  0  0  0  0  0  0  0  0  0  0
  145.1251  144.3063  158.7007 C   0  0  2  0  0  0  0  0  0  0  0  0
  143.9382  144.9019  159.4698 C   0  0  0  0  0  0  0  0  0  0  0  0
  142.7766  144.7268  158.4983 C   0  0  1  0  0  0  0  0  0  0  0  0
  142.7966  145.7091  157.5959 F   0  0  0  0  0  0  0  0  0  0  0  0
  143.0937  143.3967  157.8125 C   0  0  0  0  0  0  0  0  0  0  0  0
  144.5349  143.1967  157.9479 N   0  0  0  0  0  0  0  0  0  0  0  0
  145.1910  142.8398  156.8209 C   0  0  0  0  0  0  0  0  0  0  0  0
  144.5770  142.9470  155.6131 N   0  0  0  0  0  0  0  0  0  0  0  0
  145.2317  142.6006  154.5004 C   0  0  0  0  0  0  0  0  0  0  0  0
  146.4762  142.1341  154.3748 N   0  0  0  0  0  0  0  0  0  0  0  0
  147.0911  142.0263  155.5880 C   0  0  0  0  0  0  0  0  0  0  0  0
  146.5245  142.3562  156.8501 C   0  0  0  0  0  0  0  0  0  0  0  0
  147.4434  142.1195  157.8643 N   0  0  0  0  0  0  0  0  0  0  0  0
  148.4970  141.6725  157.2366 C   0  0  0  0  0  0  0  0  0  0  0  0
  148.3693  141.5763  155.8690 N   0  0  0  0  0  0  0  0  0  0  0  0
  149.3779  141.1045  154.9361 C   0  0  0  0  0  0  0  0  0  0  0  0
  149.2336  139.6012  154.5913 C   0  0  1  0  0  0  0  0  0  0  0  0
  148.3543  139.3543  153.3408 C   0  0  0  0  0  0  0  0  0  0  0  0
  147.9226  138.0108  153.2696 O   0  0  0  0  0  0  0  0  0  0  0  0
  150.6133  138.9042  154.4817 C   0  0  1  0  0  0  0  0  0  0  0  0
  151.6025  139.2660  155.5755 C   0  0  0  0  0  0  0  0  0  0  0  0
  152.6156  138.1317  155.4742 C   0  0  0  0  0  0  0  0  0  0  0  0
  151.8634  136.9848  155.0960 O   0  0  0  0  0  0  0  0  0  0  0  0
  150.5754  137.3789  154.6317 C   0  0  0  0  0  0  0  0  0  0  0  0
  145.5168  145.0588  158.0128 H   0  0  0  0  0  0  0  0  0  0  0  0
  141.7991  144.7426  158.9809 H   0  0  0  0  0  0  0  0  0  0  0  0
  148.1768  144.2170  160.1556 H   0  0  0  0  0  0  0  0  0  0  0  0
  147.5209  145.2418  158.8958 H   0  0  0  0  0  0  0  0  0  0  0  0
  143.7386  144.3340  160.3806 H   0  0  0  0  0  0  0  0  0  0  0  0
  144.0968  145.9429  159.7528 H   0  0  0  0  0  0  0  0  0  0  0  0
  142.6005  142.5799  158.3403 H   0  0  0  0  0  0  0  0  0  0  0  0
  142.7342  143.3759  156.7818 H   0  0  0  0  0  0  0  0  0  0  0  0
  144.6799  142.7144  153.5791 H   0  0  0  0  0  0  0  0  0  0  0  0
  149.4010  141.3923  157.7577 H   0  0  0  0  0  0  0  0  0  0  0  0
  149.3248  141.7075  154.0288 H   0  0  0  0  0  0  0  0  0  0  0  0
  150.3531  141.3039  155.3805 H   0  0  0  0  0  0  0  0  0  0  0  0
  148.7079  139.1388  155.4280 H   0  0  0  0  0  0  0  0  0  0  0  0
  147.4770  140.0010  153.3490 H   0  0  0  0  0  0  0  0  0  0  0  0
  148.8946  139.5972  152.4259 H   0  0  0  0  0  0  0  0  0  0  0  0
  148.5589  137.5153  152.7772 H   0  0  0  0  0  0  0  0  0  0  0  0
  151.0691  139.1468  153.5200 H   0  0  0  0  0  0  0  0  0  0  0  0
  152.0610  140.2453  155.4364 H   0  0  0  0  0  0  0  0  0  0  0  0
  151.1174  139.2492  156.5527 H   0  0  0  0  0  0  0  0  0  0  0  0
  153.3445  138.3425  154.6907 H   0  0  0  0  0  0  0  0  0  0  0  0
  153.1568  137.9677  156.4062 H   0  0  0  0  0  0  0  0  0  0  0  0
  149.8402  137.0804  155.3802 H   0  0  0  0  0  0  0  0  0  0  0  0
  150.3263  136.8762  153.6971 H   0  0  0  0  0  0  0  0  0  0  0  0
  1  2  1  0  0  0  0
  1 30  1  0  0  0  0
  1 31  1  0  0  0  0
  2  3  2  0  0  0  0
  2  4  1  0  0  0  0
  4 28  1  0  0  0  0
  4  9  1  0  0  0  0
  4  5  1  0  0  0  0
  5  6  1  0  0  0  0
  5 32  1  0  0  0  0
  5 33  1  0  0  0  0
  6 29  1  0  0  0  0
  6  7  1  0  0  0  0
  6  8  1  0  0  0  0
  8  9  1  0  0  0  0
  8 34  1  0  0  0  0
  8 35  1  0  0  0  0
  9 10  1  0  0  0  0
 10 15  1  0  0  0  0
 10 11  2  0  0  0  0
 11 12  1  0  0  0  0
 12 13  2  0  0  0  0
 12 36  1  0  0  0  0
 13 14  1  0  0  0  0
 14 18  1  0  0  0  0
 14 15  2  0  0  0  0
 15 16  1  0  0  0  0
 16 17  2  0  0  0  0
 17 18  1  0  0  0  0
 17 37  1  0  0  0  0
 18 19  1  0  0  0  0
 19 20  1  0  0  0  0
 19 38  1  0  0  0  0
 19 39  1  0  0  0  0
 20 21  1  0  0  0  0
 20 23  1  0  0  0  0
 20 40  1  0  0  0  0
 21 22  1  0  0  0  0
 21 41  1  0  0  0  0
 21 42  1  0  0  0  0
 22 43  1  0  0  0  0
 23 27  1  0  0  0  0
 23 24  1  0  0  0  0
 23 44  1  0  0  0  0
 24 25  1  0  0  0  0
 24 45  1  0  0  0  0
 24 46  1  0  0  0  0
 25 26  1  0  0  0  0
 25 47  1  0  0  0  0
 25 48  1  0  0  0  0
 26 27  1  0  0  0  0
 27 49  1  0  0  0  0
 27 50  1  0  0  0  0
M  END
> <s_m_source_file>
AV-unprocessed.smi

> <i_m_source_file_index>
221

> <i_lp_mmshare_version>
43012

> <i_f3d_flags>
0

> <s_epik_input>
W05IMl1DKD1PKVtDQEBIXTFbQ0gyXVtDQEBIXShGKVtDSDJdTjFjKG5bY0hdbjIpYyhjMjMpbltjSF1uM1tDSDJdW0NASF0oW0NIMl1bT0hdKVtDQEBIXTRbQ0gyXVtDSDJdT1tDSDJdNA==

> <s_epik_cmdline>
J2VwaWtfcHl0aG9uJywgJy1waCcsICc3LjAnLCAnLXRuJywgJzgnLCAnLW1hJywgJzIwMCcsICctbWV0YWxfYmluZGluZycsICctaW1hZScsICc8aW5maWxlLm1hZT4nLCAnLW9tYWUnLCAnPG91dGZpbGUubWFlPic=

> <r_lp_tautomer_probability>
1

> <r_epik_Ionization_Penalty>
0.000818822

> <r_epik_Ionization_Penalty_Charging>
0

> <r_epik_Ionization_Penalty_Neutral>
0.000818822

> <r_epik_State_Penalty>
0.000440551

> <r_epik_Charging_Adjusted_Penalty>
0.000440551

> <i_epik_Tot_Q>
0

> <i_epik_Tot_abs_Q>
0

> <r_epik_Metal_State_Penalty>
-0

> <b_epik_Metal_Only>
0

> <s_lp_Force_Field>
OPLS_2005

> <r_lp_Energy>
50.4935

> <b_lp_Chiralities_Consistent>
1

> <s_lp_Variant>
AV-unprocessed.smi:221-13

> <Gold.Version>
5.8.1

> <Gold.Id.Protein>
6NUR|6NUR_protein|mol2

> <Gold.PLP.Fitness>
45.6798

> <Gold.PLP.PLP>
-33.6440

> <Gold.PLP.part.hbond>
-5.0000

> <Gold.PLP.part.metal>
0.0000

> <Gold.PLP.part.buried>
-3.4321

> <Gold.PLP.part.nonpolar>
-27.2672

> <Gold.PLP.part.repulsive>
0.6280

> <Gold.PLP.ligand.clash>
0.0000

> <Gold.PLP.ligand.torsion>
1.3789

> <Gold.PLP.Chemscore.Hbond>
4.6122

> <Gold.PLP.Chemscore.CHOScore>
0.2426

> <Gold.PLP.Chemscore.Metal>
0.0000

> <Gold.Chemscore.Hbonds>
donor molecule, donor type, donor heavy atom, donor atom, acceptor molecule, acceptor atom, score
      L1  H     1    31       P1  8029  1.00
      L1  H    22    43       P1  7948  1.00
      P1  H  6934  6946       L1     3  0.46
      P1  H 10752 10765       L1    26  1.00

> <Gold.PLP.Chemscore.Internal.Correction>
0.2294

> <Gold.Rescore>
     Score         DG    S(hbond)    S(metal)    S(lipo)     H(rot)  DE(clash)    DE(int)     intcor
     12.19     -18.32       4.39        0.00      65.91       3.72       1.68       4.45       ----

> <Gold.Chemscore.Fitness>
12.1866

> <Gold.Chemscore.DG>
-18.3169

> <Gold.Chemscore.ZeroCoef>
-5.4800

> <Gold.Chemscore.Hbond>
4.3860

> <Gold.Chemscore.Metal>
0.0000

> <Gold.Chemscore.Lipo>
65.9092

> <Gold.Chemscore.Internal_Hbond>
0.0000

> <Gold.Chemscore.DEClash>
1.6829

> <Gold.Chemscore.DEInternal>
4.4474

> <Gold.Chemscore.Rot>
3.7202

> <Gold.Chemscore.Internal.Correction>
   9.000000E+99

> <Gold.Chemscore.Hbonds>
donor molecule, donor type, donor heavy atom, donor atom, acceptor molecule, acceptor atom, score
      L1  H     1    31       P1  8029  0.98
      L1  H    22    43       P1  7948  0.95
      P1  H  6934  6946       L1     3  0.46
      P1  H 10752 10765       L1    26  0.80

> <Gold.Chemscore.Hbond.Weighted>
-14.6492

> <Gold.Chemscore.Metal.Weighted>
-0.0000

> <Gold.Chemscore.Lipo.Weighted>
-7.7114

> <Gold.Chemscore.Internal_Hbond.Weighted>
0.0000

> <Gold.Chemscore.DEClash.Weighted>
1.6829

> <Gold.Chemscore.DEInternal.Weighted>
4.4474

> <Gold.Chemscore.Rot.Weighted>
9.5237

> <Gold.Chemscore.Internal.Correction.Weighted>
   9.000000E+99

> <Gold.Protein.RotatedTorsions>
[ 6907 6896 6895 6894 ] final  157.06 input  -60.11 | X-H torsion
[ 7974 7965 7964 7962 ] final -102.17 input  175.53 | X-H torsion
[ 8008 7997 7996 7995 ] final   61.55 input   59.86 | X-H torsion
[ 10167 10162 10161 10158 ] final  -91.90 input  -65.29 | X-H torsion
[ 10718 10713 10712 10709 ] final -124.80 input   66.30 | X-H torsion
[ 10763 10752 10751 10750 ] final  175.68 input  -60.55 | X-H torsion
[ 11005 11000 10999 10996 ] final  176.40 input  -57.11 | X-H torsion

> <Gold.Protein.ActiveResidues>
 VAL166  LYS551  ARG553  GLY616  TRP617  ASP618  TYR619  PRO620  LYS621  CYS622 
 ASP623  PHE694  ASN695  SER759  ASP760  ASP761  ALA762  ILE779  LEU786  VAL792 
 PHE793  MET794  SER795  GLU796  ALA797  LYS798  CYS799  TRP800  GLU811  SER814 

> <Gold.Protein.RotatedAtoms>
  152.0205  133.3897  159.4256 H   0  0  0  0  0  0  0  0  0  0  0  0  # atno 6907 bound_to 6896
  150.6890  134.3631  159.4968 H   0  0  0  0  0  0  0  0  0  0  0  0  # atno 6908 bound_to 6896
  152.1404  134.9067  160.0605 H   0  0  0  0  0  0  0  0  0  0  0  0  # atno 6909 bound_to 6896
  145.2721  140.9302  143.2980 H   0  0  0  0  0  0  0  0  0  0  0  0  # atno 7974 bound_to 7965
  155.6001  140.3494  155.4591 H   0  0  0  0  0  0  0  0  0  0  0  0  # atno 8008 bound_to 7997
  156.0235  140.1259  157.0358 H   0  0  0  0  0  0  0  0  0  0  0  0  # atno 8009 bound_to 7997
  154.4324  140.1058  156.5983 H   0  0  0  0  0  0  0  0  0  0  0  0  # atno 8010 bound_to 7997
  140.3402  143.2946  151.9844 H   0  0  0  0  0  0  0  0  0  0  0  0  # atno 10167 bound_to 10162
  156.1619  130.6607  151.0061 H   0  0  0  0  0  0  0  0  0  0  0  0  # atno 10718 bound_to 10713
  154.4709  135.2771  155.1643 H   0  0  0  0  0  0  0  0  0  0  0  0  # atno 10763 bound_to 10752
  154.3392  135.6173  153.5592 H   0  0  0  0  0  0  0  0  0  0  0  0  # atno 10764 bound_to 10752
  152.9864  135.5784  154.5090 H   0  0  0  0  0  0  0  0  0  0  0  0  # atno 10765 bound_to 10752
  140.3727  134.7015  157.4402 H   0  0  0  0  0  0  0  0  0  0  0  0  # atno 11005 bound_to 11000
  144.9326  139.4281  143.6488 LP  0  0  0  0  0  0  0  0  0  0  0  0  # atno 17320 bound_to 7965
  146.3243  139.8244  142.8920 LP  0  0  0  0  0  0  0  0  0  0  0  0  # atno 17321 bound_to 7965
  139.4842  144.6163  151.7340 LP  0  0  0  0  0  0  0  0  0  0  0  0  # atno 17342 bound_to 10162
  140.5316  144.0721  150.6055 LP  0  0  0  0  0  0  0  0  0  0  0  0  # atno 17343 bound_to 10162
  157.6739  131.0855  150.7544 LP  0  0  0  0  0  0  0  0  0  0  0  0  # atno 17370 bound_to 10713
  156.7607  130.4797  149.5437 LP  0  0  0  0  0  0  0  0  0  0  0  0  # atno 17371 bound_to 10713
  140.0539  134.6091  155.8829 LP  0  0  0  0  0  0  0  0  0  0  0  0  # atno 17394 bound_to 11000
  141.1949  133.6585  156.5618 LP  0  0  0  0  0  0  0  0  0  0  0  0  # atno 17395 bound_to 11000

$$$$
