AV-unprocessed.smi:652|AV-procd|sdf|3195|dock6
  -GOLD-   22720 0123D 1   1.00000     0.00000
 Structure written by MMmdl.
 48 49  0  0  0  0  0  0  0  0  2 V2000
  152.5397  139.5774  160.2206 C   0  0  0  0  0  0  0  0  0  0  0  0
  152.5179  140.5356  159.0191 C   0  0  0  0  0  0  0  0  0  0  0  0
  152.4022  141.9989  159.4657 C   0  0  0  0  0  0  0  0  0  0  0  0
  151.4100  140.2113  158.1242 N   0  0  0  0  0  0  0  0  0  0  0  0
  151.4643  139.3413  157.1033 C   0  0  0  0  0  0  0  0  0  0  0  0
  152.4780  138.7068  156.8098 O   0  0  0  0  0  0  0  0  0  0  0  0
  150.1763  139.1717  156.2907 C   0  0  0  0  0  0  0  0  0  0  0  0
  150.3886  139.3738  154.7758 C   0  0  0  0  0  0  0  0  0  0  0  0
  149.1572  139.8246  154.0799 N   0  3  2  0  0  0  0  0  0  0  0  0
  148.7045  141.1554  154.5503 C   0  0  0  0  0  0  0  0  0  0  0  0
  147.4525  141.6033  153.7798 C   0  0  0  0  0  0  0  0  0  0  0  0
  146.4331  140.6230  153.9239 O   0  0  0  0  0  0  0  0  0  0  0  0
  146.8138  139.3644  153.3771 C   0  0  2  0  0  0  0  0  0  0  0  0
  145.6209  138.4061  153.5011 C   0  0  0  0  0  0  0  0  0  0  0  0
  144.4311  138.9493  152.8640 N   0  0  0  0  0  0  0  0  0  0  0  0
  143.2349  138.2213  152.8564 C   0  0  0  0  0  0  0  0  0  0  0  0
  141.9613  138.8352  152.8374 C   0  0  0  0  0  0  0  0  0  0  0  0
  140.8347  137.9945  152.8263 C   0  0  0  0  0  0  0  0  0  0  0  0
  141.0638  136.6067  152.8355 C   0  0  0  0  0  0  0  0  0  0  0  0
  142.3062  136.0746  152.8553 N   0  0  0  0  0  0  0  0  0  0  0  0
  143.3779  136.8754  152.8659 N   0  0  0  0  0  0  0  0  0  0  0  0
  148.0433  138.8459  154.1489 C   0  0  0  0  0  0  0  0  0  0  0  0
  153.3684  139.8098  160.8898 H   0  0  0  0  0  0  0  0  0  0  0  0
  152.6591  138.5416  159.9013 H   0  0  0  0  0  0  0  0  0  0  0  0
  151.6178  139.6440  160.7990 H   0  0  0  0  0  0  0  0  0  0  0  0
  153.4572  140.4296  158.4733 H   0  0  0  0  0  0  0  0  0  0  0  0
  153.2394  142.2798  160.1053 H   0  0  0  0  0  0  0  0  0  0  0  0
  151.4830  142.1725  160.0263 H   0  0  0  0  0  0  0  0  0  0  0  0
  152.4034  142.6734  158.6087 H   0  0  0  0  0  0  0  0  0  0  0  0
  150.5384  140.6925  158.2918 H   0  0  0  0  0  0  0  0  0  0  0  0
  149.7786  138.1717  156.4722 H   0  0  0  0  0  0  0  0  0  0  0  0
  149.4424  139.8793  156.6765 H   0  0  0  0  0  0  0  0  0  0  0  0
  151.1969  140.0828  154.5882 H   0  0  0  0  0  0  0  0  0  0  0  0
  150.7018  138.4236  154.3391 H   0  0  0  0  0  0  0  0  0  0  0  0
  148.4880  141.1114  155.6190 H   0  0  0  0  0  0  0  0  0  0  0  0
  149.4999  141.8891  154.4139 H   0  0  0  0  0  0  0  0  0  0  0  0
  147.0882  142.5522  154.1738 H   0  0  0  0  0  0  0  0  0  0  0  0
  147.6782  141.7618  152.7240 H   0  0  0  0  0  0  0  0  0  0  0  0
  147.0707  139.4818  152.3223 H   0  0  0  0  0  0  0  0  0  0  0  0
  145.8655  137.4588  153.0194 H   0  0  0  0  0  0  0  0  0  0  0  0
  145.4167  138.1938  154.5515 H   0  0  0  0  0  0  0  0  0  0  0  0
  144.3910  139.9424  152.6835 H   0  0  0  0  0  0  0  0  0  0  0  0
  141.8354  139.9074  152.8331 H   0  0  0  0  0  0  0  0  0  0  0  0
  139.8330  138.3975  152.8114 H   0  0  0  0  0  0  0  0  0  0  0  0
  140.2380  135.9110  152.8272 H   0  0  0  0  0  0  0  0  0  0  0  0
  148.3537  137.8918  153.7239 H   0  0  0  0  0  0  0  0  0  0  0  0
  147.7830  138.6621  155.1927 H   0  0  0  0  0  0  0  0  0  0  0  0
  149.3952  139.9344  153.1043 H   0  0  0  0  0  0  0  0  0  0  0  0
  1  2  1  0  0  0  0
  1 23  1  0  0  0  0
  1 24  1  0  0  0  0
  1 25  1  0  0  0  0
  2  3  1  0  0  0  0
  2  4  1  0  0  0  0
  2 26  1  0  0  0  0
  3 27  1  0  0  0  0
  3 28  1  0  0  0  0
  3 29  1  0  0  0  0
  4  5  1  0  0  0  0
  4 30  1  0  0  0  0
  5  6  2  0  0  0  0
  5  7  1  0  0  0  0
  7  8  1  0  0  0  0
  7 31  1  0  0  0  0
  7 32  1  0  0  0  0
  8  9  1  0  0  0  0
  8 33  1  0  0  0  0
  8 34  1  0  0  0  0
  9 22  1  0  0  0  0
  9 10  1  0  0  0  0
  9 48  1  0  0  0  0
 10 11  1  0  0  0  0
 10 35  1  0  0  0  0
 10 36  1  0  0  0  0
 11 12  1  0  0  0  0
 11 37  1  0  0  0  0
 11 38  1  0  0  0  0
 12 13  1  0  0  0  0
 13 14  1  0  0  0  0
 13 22  1  0  0  0  0
 13 39  1  0  0  0  0
 14 15  1  0  0  0  0
 14 40  1  0  0  0  0
 14 41  1  0  0  0  0
 15 16  1  0  0  0  0
 15 42  1  0  0  0  0
 16 21  1  0  0  0  0
 16 17  2  0  0  0  0
 17 18  1  0  0  0  0
 17 43  1  0  0  0  0
 18 19  2  0  0  0  0
 18 44  1  0  0  0  0
 19 20  1  0  0  0  0
 19 45  1  0  0  0  0
 20 21  2  0  0  0  0
 22 46  1  0  0  0  0
 22 47  1  0  0  0  0
M  CHG  1   9   1
M  END
> <s_m_source_file>
AV-unprocessed.smi

> <i_m_source_file_index>
652

> <i_lp_mmshare_version>
43012

> <i_f3d_flags>
0

> <s_epik_input>
W0NIM11bQ0hdKFtDSDNdKVtOSF1DKD1PKVtDSDJdW0NIMl1OMVtDSDJdW0NIMl1PW0NASF0oW0NIMl0xKVtDSDJdW05IXWMyW2NIXVtjSF1bY0hdbm4y

> <s_epik_cmdline>
J2VwaWtfcHl0aG9uJywgJy1waCcsICc3LjAnLCAnLXRuJywgJzgnLCAnLW1hJywgJzIwMCcsICctbWV0YWxfYmluZGluZycsICctaW1hZScsICc8aW5maWxlLm1hZT4nLCAnLW9tYWUnLCAnPG91dGZpbGUubWFlPic=

> <r_lp_tautomer_probability>
0.999978

> <r_epik_Ionization_Penalty>
0.433079

> <r_epik_Ionization_Penalty_Charging>
0.413784

> <r_epik_Ionization_Penalty_Neutral>
0.0192945

> <r_epik_State_Penalty>
0.425138

> <r_epik_Charging_Adjusted_Penalty>
0.838922

> <i_epik_Tot_Q>
1

> <i_epik_Tot_abs_Q>
1

> <r_epik_Metal_State_Penalty>
0.422073

> <b_epik_Metal_Only>
0

> <s_lp_Force_Field>
OPLS_2005

> <r_lp_Energy>
22.402

> <b_lp_Chiralities_Consistent>
1

> <s_lp_Variant>
AV-unprocessed.smi:652-4

> <Gold.Version>
5.8.1

> <Gold.Id.Protein>
6NUR|6NUR_protein|mol2

> <Gold.PLP.Fitness>
42.4637

> <Gold.PLP.PLP>
-34.8397

> <Gold.PLP.part.hbond>
-2.9432

> <Gold.PLP.part.metal>
0.0000

> <Gold.PLP.part.buried>
-5.2524

> <Gold.PLP.part.nonpolar>
-27.4481

> <Gold.PLP.part.repulsive>
0.5266

> <Gold.PLP.ligand.clash>
0.0000

> <Gold.PLP.ligand.torsion>
0.7720

> <Gold.PLP.Chemscore.Hbond>
3.0000

> <Gold.PLP.Chemscore.CHOScore>
0.0000

> <Gold.PLP.Chemscore.Metal>
0.0000

> <Gold.Chemscore.Hbonds>
donor molecule, donor type, donor heavy atom, donor atom, acceptor molecule, acceptor atom, score
      L1  H     9    48       P1  7957  1.00
      P1  H  7997  8009       L1     6  0.05
      L1  C    19    45       P1 10187  0.47

> <Gold.PLP.Chemscore.Internal.Correction>
0.1680

> <Gold.Rescore>
     Score         DG    S(hbond)    S(metal)    S(lipo)     H(rot)  DE(clash)    DE(int)     intcor
     18.41     -19.37       2.96        0.00      83.59       2.26       0.14       0.82       ----

> <Gold.Chemscore.Fitness>
18.4146

> <Gold.Chemscore.DG>
-19.3672

> <Gold.Chemscore.ZeroCoef>
-5.4800

> <Gold.Chemscore.Hbond>
2.9615

> <Gold.Chemscore.Metal>
0.0000

> <Gold.Chemscore.Lipo>
83.5884

> <Gold.Chemscore.Internal_Hbond>
0.0000

> <Gold.Chemscore.DEClash>
0.1363

> <Gold.Chemscore.DEInternal>
0.8164

> <Gold.Chemscore.Rot>
2.2594

> <Gold.Chemscore.Internal.Correction>
   9.000000E+99

> <Gold.Chemscore.Hbonds>
donor molecule, donor type, donor heavy atom, donor atom, acceptor molecule, acceptor atom, score
      L1  H     9    48       P1  7957  0.99
      P1  H  7997  8009       L1     6  0.08

> <Gold.Chemscore.Hbond.Weighted>
-9.8915

> <Gold.Chemscore.Metal.Weighted>
-0.0000

> <Gold.Chemscore.Lipo.Weighted>
-9.7798

> <Gold.Chemscore.Internal_Hbond.Weighted>
0.0000

> <Gold.Chemscore.DEClash.Weighted>
0.1363

> <Gold.Chemscore.DEInternal.Weighted>
0.8164

> <Gold.Chemscore.Rot.Weighted>
5.7841

> <Gold.Chemscore.Internal.Correction.Weighted>
   9.000000E+99

> <Gold.Protein.RotatedTorsions>
[ 6907 6896 6895 6894 ] final   75.36 input  -60.11 | X-H torsion
[ 7974 7965 7964 7962 ] final  148.54 input  175.53 | X-H torsion
[ 8008 7997 7996 7995 ] final -156.67 input   59.86 | X-H torsion
[ 10167 10162 10161 10158 ] final   -4.53 input  -65.29 | X-H torsion
[ 10718 10713 10712 10709 ] final  158.40 input   66.30 | X-H torsion
[ 10763 10752 10751 10750 ] final  142.44 input  -60.55 | X-H torsion
[ 11005 11000 10999 10996 ] final   20.43 input  -57.11 | X-H torsion

> <Gold.Protein.ActiveResidues>
 VAL166  LYS551  ARG553  GLY616  TRP617  ASP618  TYR619  PRO620  LYS621  CYS622 
 ASP623  PHE694  ASN695  SER759  ASP760  ASP761  ALA762  ILE779  LEU786  VAL792 
 PHE793  MET794  SER795  GLU796  ALA797  LYS798  CYS799  TRP800  GLU811  SER814 

> <Gold.Protein.RotatedAtoms>
  152.5022  134.4131  159.9455 H   0  0  0  0  0  0  0  0  0  0  0  0  # atno 6907 bound_to 6896
  151.4100  133.3724  159.2750 H   0  0  0  0  0  0  0  0  0  0  0  0  # atno 6908 bound_to 6896
  150.9298  134.8735  159.7603 H   0  0  0  0  0  0  0  0  0  0  0  0  # atno 6909 bound_to 6896
  144.8506  139.6166  143.5975 H   0  0  0  0  0  0  0  0  0  0  0  0  # atno 7974 bound_to 7965
  155.7207  140.0789  157.2332 H   0  0  0  0  0  0  0  0  0  0  0  0  # atno 8008 bound_to 7997
  154.4045  140.1613  156.2453 H   0  0  0  0  0  0  0  0  0  0  0  0  # atno 8009 bound_to 7997
  155.9199  140.3398  155.6167 H   0  0  0  0  0  0  0  0  0  0  0  0  # atno 8010 bound_to 7997
  140.6931  143.6413  150.8433 H   0  0  0  0  0  0  0  0  0  0  0  0  # atno 10167 bound_to 10162
  157.1783  131.0626  151.2145 H   0  0  0  0  0  0  0  0  0  0  0  0  # atno 10718 bound_to 10713
  153.9558  135.2965  155.3436 H   0  0  0  0  0  0  0  0  0  0  0  0  # atno 10763 bound_to 10752
  154.7401  135.5028  153.9112 H   0  0  0  0  0  0  0  0  0  0  0  0  # atno 10764 bound_to 10752
  153.0971  135.6724  153.9852 H   0  0  0  0  0  0  0  0  0  0  0  0  # atno 10765 bound_to 10752
  140.4027  134.1702  155.7664 H   0  0  0  0  0  0  0  0  0  0  0  0  # atno 11005 bound_to 11000
  146.2782  139.6806  142.9248 LP  0  0  0  0  0  0  0  0  0  0  0  0  # atno 17320 bound_to 7965
  145.4507  141.0428  143.2806 LP  0  0  0  0  0  0  0  0  0  0  0  0  # atno 17321 bound_to 7965
  140.0128  143.5624  152.2832 LP  0  0  0  0  0  0  0  0  0  0  0  0  # atno 17342 bound_to 10162
  139.6354  144.7649  151.2448 LP  0  0  0  0  0  0  0  0  0  0  0  0  # atno 17343 bound_to 10162
  157.3977  130.7316  149.6744 LP  0  0  0  0  0  0  0  0  0  0  0  0  # atno 17370 bound_to 10713
  155.9728  130.4129  150.4056 LP  0  0  0  0  0  0  0  0  0  0  0  0  # atno 17371 bound_to 10713
  141.1851  133.8331  157.1117 LP  0  0  0  0  0  0  0  0  0  0  0  0  # atno 17394 bound_to 11000
  140.0325  134.9894  157.0807 LP  0  0  0  0  0  0  0  0  0  0  0  0  # atno 17395 bound_to 11000

$$$$
