AV-unprocessed.smi:249|AV-procd|sdf|1911|dock1
  -GOLD-   2262021 03D 1   1.00000     0.00000
 Structure written by MMmdl.
 64 67  0  0  0  0  0  0  0  0  2 V2000
  146.1545  131.2406  152.6645 C   0  0  0  0  0  0  0  0  0  0  0  0
  147.2765  131.0985  153.7046 C   0  0  0  0  0  0  0  0  0  0  0  0
  148.6123  131.5220  153.1898 N   0  3  1  0  0  0  0  0  0  0  0  0
  148.7177  132.9791  152.8927 C   0  0  0  0  0  0  0  0  0  0  0  0
  148.7867  133.8267  154.1779 C   0  0  0  0  0  0  0  0  0  0  0  0
  149.9482  133.3644  155.0786 C   0  0  1  0  0  0  0  0  0  0  0  0
  150.0250  134.1352  156.3229 N   0  0  0  0  0  0  0  0  0  0  0  0
  149.1899  133.7903  157.4715 C   0  0  0  0  0  0  0  0  0  0  0  0
  150.5819  135.3737  156.2885 C   0  0  0  0  0  0  0  0  0  0  0  0
  151.1625  135.8023  155.1364 N   0  0  0  0  0  0  0  0  0  0  0  0
  151.7261  137.0120  155.0710 C   0  0  0  0  0  0  0  0  0  0  0  0
  151.8156  137.9426  156.0225 N   0  0  0  0  0  0  0  0  0  0  0  0
  151.2217  137.5269  157.1769 C   0  0  0  0  0  0  0  0  0  0  0  0
  150.5875  136.2708  157.3961 C   0  0  0  0  0  0  0  0  0  0  0  0
  150.0886  136.2172  158.6936 N   0  0  0  0  0  0  0  0  0  0  0  0
  150.4241  137.3654  159.2152 C   0  0  0  0  0  0  0  0  0  0  0  0
  151.1135  138.2095  158.3756 N   0  0  0  0  0  0  0  0  0  0  0  0
  151.6065  139.5367  158.6983 C   0  0  0  0  0  0  0  0  0  0  0  0
  151.0291  140.6577  157.7936 C   0  0  1  0  0  0  0  0  0  0  0  0
  149.5188  140.9020  158.0469 C   0  0  0  0  0  0  0  0  0  0  0  0
  148.8575  141.3642  156.8872 O   0  0  0  0  0  0  0  0  0  0  0  0
  151.8406  141.9680  157.9700 C   0  0  1  0  0  0  0  0  0  0  0  0
  151.1644  143.2190  157.4327 C   0  0  0  0  0  0  0  0  0  0  0  0
  151.9241  144.3270  158.1493 C   0  0  0  0  0  0  0  0  0  0  0  0
  152.2049  143.8054  159.4407 O   0  0  0  0  0  0  0  0  0  0  0  0
  152.0846  142.3857  159.4279 C   0  0  0  0  0  0  0  0  0  0  0  0
  149.8665  131.8481  155.3379 C   0  0  0  0  0  0  0  0  0  0  0  0
  149.7801  131.0710  154.0080 C   0  0  1  0  0  0  0  0  0  0  0  0
  149.8409  129.5461  154.2104 C   0  0  0  0  0  0  0  0  0  0  0  0
  145.2366  130.7806  153.0313 H   0  0  0  0  0  0  0  0  0  0  0  0
  146.4173  130.7477  151.7281 H   0  0  0  0  0  0  0  0  0  0  0  0
  145.9212  132.2826  152.4486 H   0  0  0  0  0  0  0  0  0  0  0  0
  147.0168  131.6423  154.6124 H   0  0  0  0  0  0  0  0  0  0  0  0
  147.3056  130.0461  153.9797 H   0  0  0  0  0  0  0  0  0  0  0  0
  149.6233  133.1436  152.3073 H   0  0  0  0  0  0  0  0  0  0  0  0
  147.9008  133.3161  152.2568 H   0  0  0  0  0  0  0  0  0  0  0  0
  148.9205  134.8768  153.9152 H   0  0  0  0  0  0  0  0  0  0  0  0
  147.8373  133.7668  154.7098 H   0  0  0  0  0  0  0  0  0  0  0  0
  150.8526  133.5389  154.4973 H   0  0  0  0  0  0  0  0  0  0  0  0
  149.6752  134.0852  158.4026 H   0  0  0  0  0  0  0  0  0  0  0  0
  149.0036  132.7183  157.5215 H   0  0  0  0  0  0  0  0  0  0  0  0
  148.2260  134.2964  157.4103 H   0  0  0  0  0  0  0  0  0  0  0  0
  152.1700  137.2701  154.1208 H   0  0  0  0  0  0  0  0  0  0  0  0
  150.1806  137.6295  160.2342 H   0  0  0  0  0  0  0  0  0  0  0  0
  151.3827  139.7468  159.7449 H   0  0  0  0  0  0  0  0  0  0  0  0
  152.6929  139.4999  158.6201 H   0  0  0  0  0  0  0  0  0  0  0  0
  151.1477  140.3458  156.7546 H   0  0  0  0  0  0  0  0  0  0  0  0
  149.0338  139.9949  158.4084 H   0  0  0  0  0  0  0  0  0  0  0  0
  149.3620  141.6638  158.8085 H   0  0  0  0  0  0  0  0  0  0  0  0
  148.2440  140.7007  156.6105 H   0  0  0  0  0  0  0  0  0  0  0  0
  152.8073  141.8637  157.4738 H   0  0  0  0  0  0  0  0  0  0  0  0
  151.2261  143.3132  156.3483 H   0  0  0  0  0  0  0  0  0  0  0  0
  150.1121  143.2402  157.7205 H   0  0  0  0  0  0  0  0  0  0  0  0
  152.8670  144.5317  157.6408 H   0  0  0  0  0  0  0  0  0  0  0  0
  151.3586  145.2572  158.2057 H   0  0  0  0  0  0  0  0  0  0  0  0
  151.2382  142.1125  160.0594 H   0  0  0  0  0  0  0  0  0  0  0  0
  152.9785  141.9229  159.8465 H   0  0  0  0  0  0  0  0  0  0  0  0
  150.7504  131.5301  155.8921 H   0  0  0  0  0  0  0  0  0  0  0  0
  149.0099  131.6047  155.9662 H   0  0  0  0  0  0  0  0  0  0  0  0
  150.6680  131.3246  153.4263 H   0  0  0  0  0  0  0  0  0  0  0  0
  150.8078  129.2537  154.6209 H   0  0  0  0  0  0  0  0  0  0  0  0
  149.7132  129.0154  153.2664 H   0  0  0  0  0  0  0  0  0  0  0  0
  149.0829  129.1905  154.9084 H   0  0  0  0  0  0  0  0  0  0  0  0
  148.7102  131.0527  152.3006 H   0  0  0  0  0  0  0  0  0  0  0  0
  1  2  1  0  0  0  0
  1 30  1  0  0  0  0
  1 31  1  0  0  0  0
  1 32  1  0  0  0  0
  2  3  1  0  0  0  0
  2 33  1  0  0  0  0
  2 34  1  0  0  0  0
  3 28  1  0  0  0  0
  3  4  1  0  0  0  0
  3 64  1  0  0  0  0
  4  5  1  0  0  0  0
  4 35  1  0  0  0  0
  4 36  1  0  0  0  0
  5  6  1  0  0  0  0
  5 37  1  0  0  0  0
  5 38  1  0  0  0  0
  6  7  1  0  0  0  0
  6 27  1  0  0  0  0
  6 39  1  0  0  0  0
  7  8  1  0  0  0  0
  7  9  1  0  0  0  0
  8 40  1  0  0  0  0
  8 41  1  0  0  0  0
  8 42  1  0  0  0  0
  9 14  1  0  0  0  0
  9 10  2  0  0  0  0
 10 11  1  0  0  0  0
 11 12  2  0  0  0  0
 11 43  1  0  0  0  0
 12 13  1  0  0  0  0
 13 17  1  0  0  0  0
 13 14  2  0  0  0  0
 14 15  1  0  0  0  0
 15 16  2  0  0  0  0
 16 17  1  0  0  0  0
 16 44  1  0  0  0  0
 17 18  1  0  0  0  0
 18 19  1  0  0  0  0
 18 45  1  0  0  0  0
 18 46  1  0  0  0  0
 19 20  1  0  0  0  0
 19 22  1  0  0  0  0
 19 47  1  0  0  0  0
 20 21  1  0  0  0  0
 20 48  1  0  0  0  0
 20 49  1  0  0  0  0
 21 50  1  0  0  0  0
 22 26  1  0  0  0  0
 22 23  1  0  0  0  0
 22 51  1  0  0  0  0
 23 24  1  0  0  0  0
 23 52  1  0  0  0  0
 23 53  1  0  0  0  0
 24 25  1  0  0  0  0
 24 54  1  0  0  0  0
 24 55  1  0  0  0  0
 25 26  1  0  0  0  0
 26 56  1  0  0  0  0
 26 57  1  0  0  0  0
 27 28  1  0  0  0  0
 27 58  1  0  0  0  0
 27 59  1  0  0  0  0
 28 29  1  0  0  0  0
 28 60  1  0  0  0  0
 29 61  1  0  0  0  0
 29 62  1  0  0  0  0
 29 63  1  0  0  0  0
M  CHG  1   3   1
M  END
> <s_m_source_file>
AV-unprocessed.smi

> <i_m_source_file_index>
249

> <i_lp_mmshare_version>
43012

> <i_f3d_flags>
0

> <s_epik_input>
W0NIM11bQ0gyXU4xW0NIMl1bQ0gyXVtDQEhdKFtDSDJdW0NASF0xW0NIM10pTihbQ0gzXSljKG5bY0hdbjIpYyhjMjMpbltjSF1uM1tDSDJdW0NASF0oW0NIMl1bT0hdKVtDQEBIXTRbQ0gyXVtDSDJdT1tDSDJdNA==

> <s_epik_cmdline>
J2VwaWtfcHl0aG9uJywgJy1waCcsICc3LjAnLCAnLXRuJywgJzgnLCAnLW1hJywgJzIwMCcsICctbWV0YWxfYmluZGluZycsICctaW1hZScsICc8aW5maWxlLm1hZT4nLCAnLW9tYWUnLCAnPG91dGZpbGUubWFlPic=

> <r_lp_tautomer_probability>
1

> <r_epik_Ionization_Penalty>
0.00294688

> <r_epik_Ionization_Penalty_Charging>
0.00169971

> <r_epik_Ionization_Penalty_Neutral>
0.00124717

> <r_epik_State_Penalty>
-0

> <r_epik_Charging_Adjusted_Penalty>
0.00169971

> <i_epik_Tot_Q>
1

> <i_epik_Tot_abs_Q>
1

> <r_epik_Metal_State_Penalty>
-0

> <b_epik_Metal_Only>
0

> <s_lp_Force_Field>
OPLS_2005

> <r_lp_Energy>
53.8972

> <b_lp_Chiralities_Consistent>
1

> <s_lp_Variant>
AV-unprocessed.smi:249-14

> <Gold.Version>
5.8.1

> <Gold.Id.Protein>
6NUR|6NUR_protein|mol2

> <Gold.PLP.Fitness>
48.5063

> <Gold.PLP.PLP>
-44.0351

> <Gold.PLP.part.hbond>
-3.0000

> <Gold.PLP.part.metal>
0.0000

> <Gold.PLP.part.buried>
-4.7471

> <Gold.PLP.part.nonpolar>
-36.0507

> <Gold.PLP.part.repulsive>
0.1232

> <Gold.PLP.ligand.clash>
0.0000

> <Gold.PLP.ligand.torsion>
1.3358

> <Gold.PLP.Chemscore.Hbond>
1.9750

> <Gold.PLP.Chemscore.CHOScore>
0.0000

> <Gold.PLP.Chemscore.Metal>
0.0000

> <Gold.Chemscore.Hbonds>
donor molecule, donor type, donor heavy atom, donor atom, acceptor molecule, acceptor atom, score
      L1  H     3    64       P1 10747  1.00
      P1  H  6896  6908       L1    15  0.96

> <Gold.PLP.Chemscore.Internal.Correction>
1.2178

> <Gold.Rescore>
     Score         DG    S(hbond)    S(metal)    S(lipo)     H(rot)  DE(clash)    DE(int)     intcor
     12.06     -16.17       1.51        0.00     106.20       2.65       0.95       3.16       ----

> <Gold.Chemscore.Fitness>
12.0552

> <Gold.Chemscore.DG>
-16.1665

> <Gold.Chemscore.ZeroCoef>
-5.4800

> <Gold.Chemscore.Hbond>
1.5118

> <Gold.Chemscore.Metal>
0.0000

> <Gold.Chemscore.Lipo>
106.1983

> <Gold.Chemscore.Internal_Hbond>
0.0000

> <Gold.Chemscore.DEClash>
0.9538

> <Gold.Chemscore.DEInternal>
3.1576

> <Gold.Chemscore.Rot>
2.6515

> <Gold.Chemscore.Internal.Correction>
   9.000000E+99

> <Gold.Chemscore.Hbonds>
donor molecule, donor type, donor heavy atom, donor atom, acceptor molecule, acceptor atom, score
      L1  H     3    64       P1 10747  0.76
      P1  H  6896  6908       L1    15  0.20

> <Gold.Chemscore.Hbond.Weighted>
-5.0493

> <Gold.Chemscore.Metal.Weighted>
-0.0000

> <Gold.Chemscore.Lipo.Weighted>
-12.4252

> <Gold.Chemscore.Internal_Hbond.Weighted>
0.0000

> <Gold.Chemscore.DEClash.Weighted>
0.9538

> <Gold.Chemscore.DEInternal.Weighted>
3.1576

> <Gold.Chemscore.Rot.Weighted>
6.7880

> <Gold.Chemscore.Internal.Correction.Weighted>
   9.000000E+99

> <Gold.Protein.RotatedTorsions>
[ 6907 6896 6895 6894 ] final -151.15 input  -60.11 | X-H torsion
[ 7974 7965 7964 7962 ] final   30.30 input  175.53 | X-H torsion
[ 8008 7997 7996 7995 ] final  -68.56 input   59.86 | X-H torsion
[ 10167 10162 10161 10158 ] final   24.20 input  -65.29 | X-H torsion
[ 10718 10713 10712 10709 ] final   37.92 input   66.30 | X-H torsion
[ 10763 10752 10751 10750 ] final  112.96 input  -60.55 | X-H torsion
[ 11005 11000 10999 10996 ] final  -69.89 input  -57.11 | X-H torsion

> <Gold.Protein.ActiveResidues>
 VAL166  LYS551  ARG553  GLY616  TRP617  ASP618  TYR619  PRO620  LYS621  CYS622 
 ASP623  PHE694  ASN695  SER759  ASP760  ASP761  ALA762  ILE779  LEU786  VAL792 
 PHE793  MET794  SER795  GLU796  ALA797  LYS798  CYS799  TRP800  GLU811  SER814 

> <Gold.Protein.RotatedAtoms>
  151.2089  133.4567  159.2597 H   0  0  0  0  0  0  0  0  0  0  0  0  # atno 6907 bound_to 6896
  151.0996  134.9964  159.8452 H   0  0  0  0  0  0  0  0  0  0  0  0  # atno 6908 bound_to 6896
  152.5442  134.2016  159.8767 H   0  0  0  0  0  0  0  0  0  0  0  0  # atno 6909 bound_to 6896
  146.1620  139.6807  142.9027 H   0  0  0  0  0  0  0  0  0  0  0  0  # atno 7974 bound_to 7965
  154.4876  140.0870  156.7523 H   0  0  0  0  0  0  0  0  0  0  0  0  # atno 8008 bound_to 7997
  155.4310  140.3450  155.4262 H   0  0  0  0  0  0  0  0  0  0  0  0  # atno 8009 bound_to 7997
  156.1284  140.1494  156.9089 H   0  0  0  0  0  0  0  0  0  0  0  0  # atno 8010 bound_to 7997
  140.5208  144.0006  150.6416 H   0  0  0  0  0  0  0  0  0  0  0  0  # atno 10167 bound_to 10162
  157.3527  130.7607  149.6990 H   0  0  0  0  0  0  0  0  0  0  0  0  # atno 10718 bound_to 10713
  153.4855  135.3670  155.2464 H   0  0  0  0  0  0  0  0  0  0  0  0  # atno 10763 bound_to 10752
  154.8754  135.3964  154.3650 H   0  0  0  0  0  0  0  0  0  0  0  0  # atno 10764 bound_to 10752
  153.4261  135.7081  153.6327 H   0  0  0  0  0  0  0  0  0  0  0  0  # atno 10765 bound_to 10752
  141.1563  133.6776  156.6668 H   0  0  0  0  0  0  0  0  0  0  0  0  # atno 11005 bound_to 11000
  145.4564  141.0431  143.2776 LP  0  0  0  0  0  0  0  0  0  0  0  0  # atno 17320 bound_to 7965
  144.8040  139.6087  143.7059 LP  0  0  0  0  0  0  0  0  0  0  0  0  # atno 17321 bound_to 7965
  140.3354  143.3052  152.0643 LP  0  0  0  0  0  0  0  0  0  0  0  0  # atno 17342 bound_to 10162
  139.4923  144.6480  151.6738 LP  0  0  0  0  0  0  0  0  0  0  0  0  # atno 17343 bound_to 10162
  155.9724  130.4136  150.4090 LP  0  0  0  0  0  0  0  0  0  0  0  0  # atno 17370 bound_to 10713
  157.2156  131.0470  151.2575 LP  0  0  0  0  0  0  0  0  0  0  0  0  # atno 17371 bound_to 10713
  140.3205  134.8011  157.4248 LP  0  0  0  0  0  0  0  0  0  0  0  0  # atno 17394 bound_to 11000
  140.1101  134.5357  155.8274 LP  0  0  0  0  0  0  0  0  0  0  0  0  # atno 17395 bound_to 11000

$$$$
