AV-unprocessed.smi:1809|AV-procd|sdf|7312|dock3
  -GOLD-   22720 8573D 1   1.00000     0.00000
 Structure written by MMmdl.
 40 42  0  0  0  0  0  0  0  0  2 V2000
  150.8975  142.0697  156.4148 C   0  0  0  0  0  0  0  0  0  0  0  0
  150.4084  140.9344  155.5817 C   0  0  0  0  0  0  0  0  0  0  0  0
  151.2313  140.1246  154.9034 N   0  0  0  0  0  0  0  0  0  0  0  0
  150.5460  139.1431  154.1996 N   0  0  0  0  0  0  0  0  0  0  0  0
  149.2243  139.2401  154.3666 C   0  0  0  0  0  0  0  0  0  0  0  0
  148.3973  138.3026  153.6986 N   0  0  0  0  0  0  0  0  0  0  0  0
  147.0768  138.1114  153.8487 C   0  0  0  0  0  0  0  0  0  0  0  0
  146.3539  138.7123  154.6433 O   0  0  0  0  0  0  0  0  0  0  0  0
  146.6251  137.1641  153.0146 N   0  0  0  0  0  0  0  0  0  0  0  0
  145.2337  136.7383  152.9090 C   0  0  0  0  0  0  0  0  0  0  0  0
  145.0683  135.2335  153.1841 C   0  0  1  0  0  0  0  0  0  0  0  0
  144.1711  134.5600  152.1337 C   0  0  0  0  0  0  0  0  0  0  0  0
  144.0512  133.0994  152.3725 N   0  3  1  0  0  0  0  0  0  0  0  0
  143.4454  132.3929  151.2204 C   0  0  0  0  0  0  0  0  0  0  0  0
  144.6036  131.7521  150.4329 C   0  0  0  0  0  0  0  0  0  0  0  0
  145.8766  132.1101  151.2064 C   0  0  0  0  0  0  0  0  0  0  0  0
  145.3554  132.4400  152.6041 C   0  0  1  0  0  0  0  0  0  0  0  0
  146.3045  133.2564  153.5053 C   0  0  0  0  0  0  0  0  0  0  0  0
  146.3485  134.6194  153.1086 O   0  0  0  0  0  0  0  0  0  0  0  0
  148.6981  140.5580  155.4142 S   0  0  0  0  0  0  0  0  0  0  0  0
  151.9862  142.0600  156.4780 H   0  0  0  0  0  0  0  0  0  0  0  0
  150.4894  141.9958  157.4228 H   0  0  0  0  0  0  0  0  0  0  0  0
  150.5816  143.0165  155.9764 H   0  0  0  0  0  0  0  0  0  0  0  0
  148.8636  137.7251  153.0145 H   0  0  0  0  0  0  0  0  0  0  0  0
  147.2871  136.7147  152.3986 H   0  0  0  0  0  0  0  0  0  0  0  0
  144.6223  137.3190  153.6019 H   0  0  0  0  0  0  0  0  0  0  0  0
  144.8761  136.9786  151.9073 H   0  0  0  0  0  0  0  0  0  0  0  0
  144.6401  135.0906  154.1782 H   0  0  0  0  0  0  0  0  0  0  0  0
  143.1749  135.0034  152.1470 H   0  0  0  0  0  0  0  0  0  0  0  0
  144.5839  134.7387  151.1390 H   0  0  0  0  0  0  0  0  0  0  0  0
  142.7839  131.6139  151.6010 H   0  0  0  0  0  0  0  0  0  0  0  0
  142.8390  133.0542  150.5996 H   0  0  0  0  0  0  0  0  0  0  0  0
  144.4729  130.6701  150.3924 H   0  0  0  0  0  0  0  0  0  0  0  0
  144.6492  132.1157  149.4059 H   0  0  0  0  0  0  0  0  0  0  0  0
  146.6096  131.3027  151.2092 H   0  0  0  0  0  0  0  0  0  0  0  0
  146.3477  132.9874  150.7611 H   0  0  0  0  0  0  0  0  0  0  0  0
  145.1491  131.4918  153.1041 H   0  0  0  0  0  0  0  0  0  0  0  0
  145.9824  133.1958  154.5461 H   0  0  0  0  0  0  0  0  0  0  0  0
  147.3112  132.8394  153.4689 H   0  0  0  0  0  0  0  0  0  0  0  0
  143.4712  132.9730  153.1901 H   0  0  0  0  0  0  0  0  0  0  0  0
  1  2  1  0  0  0  0
  1 21  1  0  0  0  0
  1 22  1  0  0  0  0
  1 23  1  0  0  0  0
  2 20  1  0  0  0  0
  2  3  2  0  0  0  0
  3  4  1  0  0  0  0
  4  5  2  0  0  0  0
  5  6  1  0  0  0  0
  5 20  1  0  0  0  0
  6  7  1  0  0  0  0
  6 24  1  0  0  0  0
  7  8  2  0  0  0  0
  7  9  1  0  0  0  0
  9 10  1  0  0  0  0
  9 25  1  0  0  0  0
 10 11  1  0  0  0  0
 10 26  1  0  0  0  0
 10 27  1  0  0  0  0
 11 19  1  0  0  0  0
 11 12  1  0  0  0  0
 11 28  1  0  0  0  0
 12 13  1  0  0  0  0
 12 29  1  0  0  0  0
 12 30  1  0  0  0  0
 13 17  1  0  0  0  0
 13 14  1  0  0  0  0
 13 40  1  0  0  0  0
 14 15  1  0  0  0  0
 14 31  1  0  0  0  0
 14 32  1  0  0  0  0
 15 16  1  0  0  0  0
 15 33  1  0  0  0  0
 15 34  1  0  0  0  0
 16 17  1  0  0  0  0
 16 35  1  0  0  0  0
 16 36  1  0  0  0  0
 17 18  1  0  0  0  0
 17 37  1  0  0  0  0
 18 19  1  0  0  0  0
 18 38  1  0  0  0  0
 18 39  1  0  0  0  0
M  CHG  1  13   1
M  END
> <s_m_source_file>
AV-unprocessed.smi

> <i_m_source_file_index>
1809

> <i_lp_mmshare_version>
43012

> <i_f3d_flags>
0

> <s_epik_input>
W0NIM11jMW5uYyhzMSlbTkhdQyg9TylbTkhdW0NIMl1bQ0BIXShbQ0gyXTIpT1tDSDJdW0NAQEhdKE4yMylbQ0gyXVtDSDJdW0NIMl0z

> <s_epik_cmdline>
J2VwaWtfcHl0aG9uJywgJy1waCcsICc3LjAnLCAnLXRuJywgJzgnLCAnLW1hJywgJzIwMCcsICctbWV0YWxfYmluZGluZycsICctaW1hZScsICc8aW5maWxlLm1hZT4nLCAnLW9tYWUnLCAnPG91dGZpbGUubWFlPic=

> <r_lp_tautomer_probability>
1

> <r_epik_Ionization_Penalty>
0.112474

> <r_epik_Ionization_Penalty_Charging>
0.108916

> <r_epik_Ionization_Penalty_Neutral>
0.00355844

> <r_epik_State_Penalty>
0.0565397

> <r_epik_Charging_Adjusted_Penalty>
0.165456

> <i_epik_Tot_Q>
1

> <i_epik_Tot_abs_Q>
1

> <r_epik_Metal_State_Penalty>
0.422831

> <b_epik_Metal_Only>
0

> <s_lp_Force_Field>
OPLS_2005

> <r_lp_Energy>
33.5148

> <b_lp_Chiralities_Consistent>
1

> <s_lp_Variant>
AV-unprocessed.smi:1809-4

> <Gold.Version>
5.8.1

> <Gold.Id.Protein>
6NUR|6NUR_protein|mol2

> <Gold.PLP.Fitness>
39.2818

> <Gold.PLP.PLP>
-28.6710

> <Gold.PLP.part.hbond>
-4.6578

> <Gold.PLP.part.metal>
0.0000

> <Gold.PLP.part.buried>
-7.1325

> <Gold.PLP.part.nonpolar>
-19.7403

> <Gold.PLP.part.repulsive>
0.4472

> <Gold.PLP.ligand.clash>
0.0000

> <Gold.PLP.ligand.torsion>
0.6658

> <Gold.PLP.Chemscore.Hbond>
3.9800

> <Gold.PLP.Chemscore.CHOScore>
0.0000

> <Gold.PLP.Chemscore.Metal>
0.0000

> <Gold.Chemscore.Hbonds>
donor molecule, donor type, donor heavy atom, donor atom, acceptor molecule, acceptor atom, score
      L1  H     6    24       P1  7948  1.00
      L1  H     9    25       P1  7948  1.00
      L1  H    13    40       P1 10957  1.43
      P1  H  7989  7998       L1     3  0.55

> <Gold.PLP.Chemscore.Internal.Correction>
0.0023

> <Gold.Rescore>
     Score         DG    S(hbond)    S(metal)    S(lipo)     H(rot)  DE(clash)    DE(int)     intcor
     17.94     -18.64       2.75        0.00      63.33       1.34       0.01       0.69       ----

> <Gold.Chemscore.Fitness>
17.9362

> <Gold.Chemscore.DG>
-18.6370

> <Gold.Chemscore.ZeroCoef>
-5.4800

> <Gold.Chemscore.Hbond>
2.7472

> <Gold.Chemscore.Metal>
0.0000

> <Gold.Chemscore.Lipo>
63.3291

> <Gold.Chemscore.Internal_Hbond>
0.0000

> <Gold.Chemscore.DEClash>
0.0127

> <Gold.Chemscore.DEInternal>
0.6881

> <Gold.Chemscore.Rot>
1.3391

> <Gold.Chemscore.Internal.Correction>
   9.000000E+99

> <Gold.Chemscore.Hbonds>
donor molecule, donor type, donor heavy atom, donor atom, acceptor molecule, acceptor atom, score
      L1  H     6    24       P1  7948  0.98
      L1  H     9    25       P1  7948  0.98
      L1  H    13    40       P1 10957  0.44
      P1  H  7989  7998       L1     3  0.02

> <Gold.Chemscore.Hbond.Weighted>
-9.1755

> <Gold.Chemscore.Metal.Weighted>
-0.0000

> <Gold.Chemscore.Lipo.Weighted>
-7.4095

> <Gold.Chemscore.Internal_Hbond.Weighted>
0.0000

> <Gold.Chemscore.DEClash.Weighted>
0.0127

> <Gold.Chemscore.DEInternal.Weighted>
0.6881

> <Gold.Chemscore.Rot.Weighted>
3.4281

> <Gold.Chemscore.Internal.Correction.Weighted>
   9.000000E+99

> <Gold.Protein.RotatedTorsions>
[ 6907 6896 6895 6894 ] final  162.32 input  -60.11 | X-H torsion
[ 7974 7965 7964 7962 ] final -170.72 input  175.53 | X-H torsion
[ 8008 7997 7996 7995 ] final -119.69 input   59.86 | X-H torsion
[ 10167 10162 10161 10158 ] final -148.27 input  -65.29 | X-H torsion
[ 10718 10713 10712 10709 ] final   24.77 input   66.30 | X-H torsion
[ 10763 10752 10751 10750 ] final  176.59 input  -60.55 | X-H torsion
[ 11005 11000 10999 10996 ] final -176.15 input  -57.11 | X-H torsion

> <Gold.Protein.ActiveResidues>
 VAL166  LYS551  ARG553  GLY616  TRP617  ASP618  TYR619  PRO620  LYS621  CYS622 
 ASP623  PHE694  ASN695  SER759  ASP760  ASP761  ALA762  ILE779  LEU786  VAL792 
 PHE793  MET794  SER795  GLU796  ALA797  LYS798  CYS799  TRP800  GLU811  SER814 

> <Gold.Protein.RotatedAtoms>
  151.9422  133.3641  159.3968 H   0  0  0  0  0  0  0  0  0  0  0  0  # atno 6907 bound_to 6896
  150.6996  134.4428  159.5309 H   0  0  0  0  0  0  0  0  0  0  0  0  # atno 6908 bound_to 6896
  152.2086  134.8522  160.0550 H   0  0  0  0  0  0  0  0  0  0  0  0  # atno 6909 bound_to 6896
  144.7166  140.2030  143.6336 H   0  0  0  0  0  0  0  0  0  0  0  0  # atno 7974 bound_to 7965
  155.1198  140.0398  157.2747 H   0  0  0  0  0  0  0  0  0  0  0  0  # atno 8008 bound_to 7997
  154.6622  140.2593  155.7071 H   0  0  0  0  0  0  0  0  0  0  0  0  # atno 8009 bound_to 7997
  156.2624  140.2814  156.1098 H   0  0  0  0  0  0  0  0  0  0  0  0  # atno 8010 bound_to 7997
  139.7546  143.8467  152.2594 H   0  0  0  0  0  0  0  0  0  0  0  0  # atno 10167 bound_to 10162
  157.1843  130.6817  149.6125 H   0  0  0  0  0  0  0  0  0  0  0  0  # atno 10718 bound_to 10713
  154.4831  135.2775  155.1555 H   0  0  0  0  0  0  0  0  0  0  0  0  # atno 10763 bound_to 10752
  154.3257  135.6200  153.5532 H   0  0  0  0  0  0  0  0  0  0  0  0  # atno 10764 bound_to 10752
  152.9878  135.5753  154.5236 H   0  0  0  0  0  0  0  0  0  0  0  0  # atno 10765 bound_to 10752
  140.4554  134.6305  157.4819 H   0  0  0  0  0  0  0  0  0  0  0  0  # atno 11005 bound_to 11000
  145.8662  139.2248  143.1688 LP  0  0  0  0  0  0  0  0  0  0  0  0  # atno 17320 bound_to 7965
  146.0128  140.8420  142.9962 LP  0  0  0  0  0  0  0  0  0  0  0  0  # atno 17321 bound_to 7965
  139.8455  144.7189  150.9278 LP  0  0  0  0  0  0  0  0  0  0  0  0  # atno 17342 bound_to 10162
  140.7801  143.3945  151.1253 LP  0  0  0  0  0  0  0  0  0  0  0  0  # atno 17343 bound_to 10162
  155.9720  130.4636  150.6188 LP  0  0  0  0  0  0  0  0  0  0  0  0  # atno 17370 bound_to 10713
  157.3922  131.0797  151.1383 LP  0  0  0  0  0  0  0  0  0  0  0  0  # atno 17371 bound_to 10713
  139.9980  134.6881  155.9578 LP  0  0  0  0  0  0  0  0  0  0  0  0  # atno 17394 bound_to 11000
  141.1645  133.6537  156.4433 LP  0  0  0  0  0  0  0  0  0  0  0  0  # atno 17395 bound_to 11000

$$$$
