AV-unprocessed.smi:1815|AV-procd|sdf|7360|dock6
  -GOLD-   22720 9 23D 1   1.00000     0.00000
 Structure written by MMmdl.
 39 40  0  0  0  0  0  0  0  0  3 V2000
  145.5026  132.1655  149.5707 C   0  0  0  0  0  0  0  0  0  0  0  0
  145.9774  133.2771  150.5132 C   0  0  2  0  0  0  0  0  0  0  0  0
  146.9084  132.7407  151.6151 C   0  0  0  0  0  0  0  0  0  0  0  0
  147.2786  133.8257  152.5526 N   0  3  2  0  0  0  0  0  0  0  0  0
  148.2639  133.3856  153.5707 C   0  0  0  0  0  0  0  0  0  0  0  0
  148.3963  134.3921  154.7237 C   0  0  0  0  0  0  0  0  0  0  0  0
  149.4977  135.3100  154.4715 N   0  0  0  0  0  0  0  0  0  0  0  0
  150.5691  135.4610  155.2605 C   0  0  0  0  0  0  0  0  0  0  0  0
  150.6757  134.7849  156.2863 O   0  0  0  0  0  0  0  0  0  0  0  0
  151.4475  136.3851  154.8111 N   0  5  0  0  0  0  0  0  0  0  0  0
  151.4453  137.6234  155.3310 C   0  0  0  0  0  0  0  0  0  0  0  0
  150.5914  138.0124  156.2847 N   0  0  0  0  0  0  0  0  0  0  0  0
  150.7607  139.3426  156.6726 C   0  0  0  0  0  0  0  0  0  0  0  0
  151.7611  139.9840  155.9918 C   0  0  0  0  0  0  0  0  0  0  0  0
  152.5264  138.9295  154.8380 S   0  0  0  0  0  0  0  0  0  0  0  0
  146.0596  134.4409  153.1329 C   0  0  0  0  0  0  0  0  0  0  0  0
  145.1023  134.9273  152.0272 C   0  0  1  0  0  0  0  0  0  0  0  0
  145.5829  136.2049  151.3158 C   0  0  0  0  0  0  0  0  0  0  0  0
  144.8262  133.8679  151.1105 O   0  0  0  0  0  0  0  0  0  0  0  0
  146.3458  131.6854  149.0733 H   0  0  0  0  0  0  0  0  0  0  0  0
  144.8453  132.5646  148.7979 H   0  0  0  0  0  0  0  0  0  0  0  0
  144.9508  131.3965  150.1119 H   0  0  0  0  0  0  0  0  0  0  0  0
  146.5059  134.0209  149.9165 H   0  0  0  0  0  0  0  0  0  0  0  0
  146.4224  131.9332  152.1656 H   0  0  0  0  0  0  0  0  0  0  0  0
  147.8077  132.3230  151.1600 H   0  0  0  0  0  0  0  0  0  0  0  0
  147.9952  132.3967  153.9457 H   0  0  0  0  0  0  0  0  0  0  0  0
  149.2423  133.2818  153.0988 H   0  0  0  0  0  0  0  0  0  0  0  0
  147.4701  134.9588  154.8339 H   0  0  0  0  0  0  0  0  0  0  0  0
  148.5811  133.8836  155.6700 H   0  0  0  0  0  0  0  0  0  0  0  0
  149.4473  135.8801  153.6397 H   0  0  0  0  0  0  0  0  0  0  0  0
  150.1217  139.7519  157.4407 H   0  0  0  0  0  0  0  0  0  0  0  0
  152.0925  141.0059  156.0963 H   0  0  0  0  0  0  0  0  0  0  0  0
  145.5517  133.7025  153.7551 H   0  0  0  0  0  0  0  0  0  0  0  0
  146.3165  135.2751  153.7847 H   0  0  0  0  0  0  0  0  0  0  0  0
  144.1502  135.1716  152.4992 H   0  0  0  0  0  0  0  0  0  0  0  0
  145.6645  137.0314  152.0221 H   0  0  0  0  0  0  0  0  0  0  0  0
  144.8797  136.5054  150.5389 H   0  0  0  0  0  0  0  0  0  0  0  0
  146.5609  136.0796  150.8521 H   0  0  0  0  0  0  0  0  0  0  0  0
  147.7372  134.5359  151.9994 H   0  0  0  0  0  0  0  0  0  0  0  0
  1  2  1  0  0  0  0
  1 20  1  0  0  0  0
  1 21  1  0  0  0  0
  1 22  1  0  0  0  0
  2 19  1  0  0  0  0
  2  3  1  0  0  0  0
  2 23  1  0  0  0  0
  3  4  1  0  0  0  0
  3 24  1  0  0  0  0
  3 25  1  0  0  0  0
  4  5  1  0  0  0  0
  4 16  1  0  0  0  0
  4 39  1  0  0  0  0
  5  6  1  0  0  0  0
  5 26  1  0  0  0  0
  5 27  1  0  0  0  0
  6  7  1  0  0  0  0
  6 28  1  0  0  0  0
  6 29  1  0  0  0  0
  7  8  1  0  0  0  0
  7 30  1  0  0  0  0
  8  9  2  0  0  0  0
  8 10  1  0  0  0  0
 10 11  1  0  0  0  0
 11 15  1  0  0  0  0
 11 12  2  0  0  0  0
 12 13  1  0  0  0  0
 13 14  2  0  0  0  0
 13 31  1  0  0  0  0
 14 15  1  0  0  0  0
 14 32  1  0  0  0  0
 16 17  1  0  0  0  0
 16 33  1  0  0  0  0
 16 34  1  0  0  0  0
 17 18  1  0  0  0  0
 17 19  1  0  0  0  0
 17 35  1  0  0  0  0
 18 36  1  0  0  0  0
 18 37  1  0  0  0  0
 18 38  1  0  0  0  0
M  CHG  1   4   1
M  CHG  1  10  -1
M  END
> <s_m_source_file>
AV-unprocessed.smi

> <i_m_source_file_index>
1815

> <i_lp_mmshare_version>
43012

> <i_f3d_flags>
0

> <s_epik_input>
W0NIM11bQ0BASF0xW0NIMl1OKFtDSDJdW0NASF0oTzEpW0NIM10pW0NIMl1bQ0gyXVtOSF1DKD1PKVtOSF1jMm5bY0hdW2NIXXMy

> <s_epik_cmdline>
J2VwaWtfcHl0aG9uJywgJy1waCcsICc3LjAnLCAnLXRuJywgJzgnLCAnLW1hJywgJzIwMCcsICctbWV0YWxfYmluZGluZycsICctaW1hZScsICc8aW5maWxlLm1hZT4nLCAnLW9tYWUnLCAnPG91dGZpbGUubWFlPic=

> <r_lp_tautomer_probability>
0.999

> <r_epik_Ionization_Penalty>
6.71699

> <r_epik_Ionization_Penalty_Charging>
5.88592

> <r_epik_Ionization_Penalty_Neutral>
0.831074

> <r_epik_State_Penalty>
6.08365

> <r_epik_Charging_Adjusted_Penalty>
11.9696

> <i_epik_Tot_Q>
0

> <i_epik_Tot_abs_Q>
2

> <r_epik_Metal_State_Penalty>
2.0947

> <b_epik_Metal_Only>
1

> <s_lp_Force_Field>
OPLS_2005

> <r_lp_Energy>
8.1919

> <b_lp_Chiralities_Consistent>
1

> <s_lp_Variant>
AV-unprocessed.smi:1815-11

> <Gold.Version>
5.8.1

> <Gold.Id.Protein>
6NUR|6NUR_protein|mol2

> <Gold.PLP.Fitness>
45.0455

> <Gold.PLP.PLP>
-32.2182

> <Gold.PLP.part.hbond>
-3.0000

> <Gold.PLP.part.metal>
0.0000

> <Gold.PLP.part.buried>
-2.6581

> <Gold.PLP.part.nonpolar>
-26.7976

> <Gold.PLP.part.repulsive>
0.3347

> <Gold.PLP.ligand.clash>
0.0000

> <Gold.PLP.ligand.torsion>
1.0944

> <Gold.PLP.Chemscore.Hbond>
5.0000

> <Gold.PLP.Chemscore.CHOScore>
0.0000

> <Gold.PLP.Chemscore.Metal>
0.0000

> <Gold.Chemscore.Hbonds>
donor molecule, donor type, donor heavy atom, donor atom, acceptor molecule, acceptor atom, score
      L1  H     4    39       P1  7948  1.95
      L1  H     7    30       P1  7948  1.00
      P1  H 10752 10763       L1    10  1.95

> <Gold.PLP.Chemscore.Internal.Correction>
0.0160

> <Gold.Rescore>
     Score         DG    S(hbond)    S(metal)    S(lipo)     H(rot)  DE(clash)    DE(int)     intcor
     14.55     -15.70       1.93        0.00      67.42       1.61       0.01       1.14       ----

> <Gold.Chemscore.Fitness>
14.5477

> <Gold.Chemscore.DG>
-15.6992

> <Gold.Chemscore.ZeroCoef>
-5.4800

> <Gold.Chemscore.Hbond>
1.9286

> <Gold.Chemscore.Metal>
0.0000

> <Gold.Chemscore.Lipo>
67.4250

> <Gold.Chemscore.Internal_Hbond>
0.0000

> <Gold.Chemscore.DEClash>
0.0098

> <Gold.Chemscore.DEInternal>
1.1417

> <Gold.Chemscore.Rot>
1.6060

> <Gold.Chemscore.Internal.Correction>
   9.000000E+99

> <Gold.Chemscore.Hbonds>
donor molecule, donor type, donor heavy atom, donor atom, acceptor molecule, acceptor atom, score
      L1  H     4    39       P1  7948  0.35
      L1  H     7    30       P1  7948  0.44
      P1  H 10752 10763       L1    10  0.78

> <Gold.Chemscore.Hbond.Weighted>
-6.4417

> <Gold.Chemscore.Metal.Weighted>
-0.0000

> <Gold.Chemscore.Lipo.Weighted>
-7.8887

> <Gold.Chemscore.Internal_Hbond.Weighted>
0.0000

> <Gold.Chemscore.DEClash.Weighted>
0.0098

> <Gold.Chemscore.DEInternal.Weighted>
1.1417

> <Gold.Chemscore.Rot.Weighted>
4.1112

> <Gold.Chemscore.Internal.Correction.Weighted>
   9.000000E+99

> <Gold.Protein.RotatedTorsions>
[ 6907 6896 6895 6894 ] final  145.85 input  -60.11 | X-H torsion
[ 7974 7965 7964 7962 ] final -149.36 input  175.53 | X-H torsion
[ 8008 7997 7996 7995 ] final -119.05 input   59.86 | X-H torsion
[ 10167 10162 10161 10158 ] final  -99.02 input  -65.29 | X-H torsion
[ 10718 10713 10712 10709 ] final -160.23 input   66.30 | X-H torsion
[ 10763 10752 10751 10750 ] final   33.94 input  -60.55 | X-H torsion
[ 11005 11000 10999 10996 ] final -175.68 input  -57.11 | X-H torsion

> <Gold.Protein.ActiveResidues>
 VAL166  LYS551  ARG553  GLY616  TRP617  ASP618  TYR619  PRO620  LYS621  CYS622 
 ASP623  PHE694  ASN695  SER759  ASP760  ASP761  ALA762  ILE779  LEU786  VAL792 
 PHE793  MET794  SER795  GLU796  ALA797  LYS798  CYS799  TRP800  GLU811  SER814 

> <Gold.Protein.RotatedAtoms>
  152.1756  133.4672  159.4931 H   0  0  0  0  0  0  0  0  0  0  0  0  # atno 6907 bound_to 6896
  150.6926  134.1899  159.4290 H   0  0  0  0  0  0  0  0  0  0  0  0  # atno 6908 bound_to 6896
  151.9807  135.0029  160.0608 H   0  0  0  0  0  0  0  0  0  0  0  0  # atno 6909 bound_to 6896
  144.7972  140.5074  143.5732 H   0  0  0  0  0  0  0  0  0  0  0  0  # atno 7974 bound_to 7965
  155.1095  140.0397  157.2720 H   0  0  0  0  0  0  0  0  0  0  0  0  # atno 8008 bound_to 7997
  154.6696  140.2609  155.6996 H   0  0  0  0  0  0  0  0  0  0  0  0  # atno 8009 bound_to 7997
  156.2653  140.2800  156.1200 H   0  0  0  0  0  0  0  0  0  0  0  0  # atno 8010 bound_to 7997
  140.2669  143.3370  152.0572 H   0  0  0  0  0  0  0  0  0  0  0  0  # atno 10167 bound_to 10162
  156.5792  130.8722  151.2860 H   0  0  0  0  0  0  0  0  0  0  0  0  # atno 10718 bound_to 10713
  153.0188  135.6374  154.1590 H   0  0  0  0  0  0  0  0  0  0  0  0  # atno 10763 bound_to 10752
  154.1326  135.2839  155.3183 H   0  0  0  0  0  0  0  0  0  0  0  0  # atno 10764 bound_to 10752
  154.6183  135.5533  153.7609 H   0  0  0  0  0  0  0  0  0  0  0  0  # atno 10765 bound_to 10752
  140.4606  134.6258  157.4841 H   0  0  0  0  0  0  0  0  0  0  0  0  # atno 11005 bound_to 11000
  145.5644  139.1480  143.3323 LP  0  0  0  0  0  0  0  0  0  0  0  0  # atno 17320 bound_to 7965
  146.2243  140.5779  142.9003 LP  0  0  0  0  0  0  0  0  0  0  0  0  # atno 17321 bound_to 7965
  139.5000  144.6682  151.6305 LP  0  0  0  0  0  0  0  0  0  0  0  0  # atno 17342 bound_to 10162
  140.5921  143.9761  150.6331 LP  0  0  0  0  0  0  0  0  0  0  0  0  # atno 17343 bound_to 10162
  157.7330  130.9724  150.1958 LP  0  0  0  0  0  0  0  0  0  0  0  0  # atno 17370 bound_to 10713
  156.2646  130.3715  149.8094 LP  0  0  0  0  0  0  0  0  0  0  0  0  # atno 17371 bound_to 10713
  139.9948  134.6929  155.9629 LP  0  0  0  0  0  0  0  0  0  0  0  0  # atno 17394 bound_to 11000
  141.1623  133.6538  156.4360 LP  0  0  0  0  0  0  0  0  0  0  0  0  # atno 17395 bound_to 11000

$$$$
