AV-unprocessed.smi:2604|AV-procd|sdf|10191|dock6
  -GOLD-   2272014203D 1   1.00000     0.00000
 Structure written by MMmdl.
 26 27  0  0  0  0  0  0  0  0  2 V2000
  152.7357  143.3600  159.9400 C   0  0  0  0  0  0  0  0  0  0  0  0
  152.0495  144.5766  160.1230 C   0  0  0  0  0  0  0  0  0  0  0  0
  150.9063  144.8854  159.4745 N   0  0  0  0  0  0  0  0  0  0  0  0
  150.4020  143.9774  158.6120 C   0  0  0  0  0  0  0  0  0  0  0  0
  151.0072  142.7276  158.3538 C   0  0  0  0  0  0  0  0  0  0  0  0
  150.3857  141.7600  157.3587 C   0  0  2  0  0  0  0  0  0  0  0  0
  151.3408  141.3906  156.2001 C   0  0  0  0  0  0  0  0  0  0  0  0
  150.6946  140.4331  155.3077 N   0  0  0  0  0  0  0  0  0  0  0  0
  149.5069  141.0535  154.7285 C   0  0  0  0  0  0  0  0  0  0  0  0
  148.5050  141.4043  155.8446 C   0  0  0  0  0  0  0  0  0  0  0  0
  149.1296  142.3229  156.8182 N   0  3  0  0  0  0  0  0  0  0  0  0
  152.2035  142.4187  159.0383 C   0  0  0  0  0  0  0  0  0  0  0  0
  153.6499  143.1558  160.4776 H   0  0  0  0  0  0  0  0  0  0  0  0
  152.4304  145.3226  160.8050 H   0  0  0  0  0  0  0  0  0  0  0  0
  149.4887  144.2617  158.1104 H   0  0  0  0  0  0  0  0  0  0  0  0
  150.1306  140.8456  157.8979 H   0  0  0  0  0  0  0  0  0  0  0  0
  151.6417  142.2709  155.6308 H   0  0  0  0  0  0  0  0  0  0  0  0
  152.2510  140.9385  156.5956 H   0  0  0  0  0  0  0  0  0  0  0  0
  151.3350  140.1726  154.5702 H   0  0  0  0  0  0  0  0  0  0  0  0
  149.7877  141.9429  154.1624 H   0  0  0  0  0  0  0  0  0  0  0  0
  149.0525  140.3562  154.0243 H   0  0  0  0  0  0  0  0  0  0  0  0
  147.6190  141.8801  155.4240 H   0  0  0  0  0  0  0  0  0  0  0  0
  148.1703  140.5017  156.3582 H   0  0  0  0  0  0  0  0  0  0  0  0
  148.4857  142.4984  157.5762 H   0  0  0  0  0  0  0  0  0  0  0  0
  152.7139  141.4813  158.8737 H   0  0  0  0  0  0  0  0  0  0  0  0
  149.3391  143.1942  156.3527 H   0  0  0  0  0  0  0  0  0  0  0  0
  1 12  1  0  0  0  0
  1  2  2  0  0  0  0
  1 13  1  0  0  0  0
  2  3  1  0  0  0  0
  2 14  1  0  0  0  0
  3  4  2  0  0  0  0
  4  5  1  0  0  0  0
  4 15  1  0  0  0  0
  5  6  1  0  0  0  0
  5 12  2  0  0  0  0
  6 11  1  0  0  0  0
  6  7  1  0  0  0  0
  6 16  1  0  0  0  0
  7  8  1  0  0  0  0
  7 17  1  0  0  0  0
  7 18  1  0  0  0  0
  8  9  1  0  0  0  0
  8 19  1  0  0  0  0
  9 10  1  0  0  0  0
  9 20  1  0  0  0  0
  9 21  1  0  0  0  0
 10 11  1  0  0  0  0
 10 22  1  0  0  0  0
 10 23  1  0  0  0  0
 11 24  1  0  0  0  0
 11 26  1  0  0  0  0
 12 25  1  0  0  0  0
M  CHG  1  11   1
M  END
> <s_m_source_file>
AV-unprocessed.smi

> <i_m_source_file_index>
2604

> <i_lp_mmshare_version>
43012

> <i_f3d_flags>
0

> <s_epik_input>
W2NIXTFbY0hdW2NIXW5bY0hdYzFbQ0BASF0yW0NIMl1bTkhdW0NIMl1bQ0gyXVtOSF0y

> <s_epik_cmdline>
J2VwaWtfcHl0aG9uJywgJy1waCcsICc3LjAnLCAnLXRuJywgJzgnLCAnLW1hJywgJzIwMCcsICctbWV0YWxfYmluZGluZycsICctaW1hZScsICc8aW5maWxlLm1hZT4nLCAnLW9tYWUnLCAnPG91dGZpbGUubWFlPic=

> <r_epik_Ionization_Penalty>
0.0278512

> <r_epik_Ionization_Penalty_Charging>
0.015072

> <r_epik_Ionization_Penalty_Neutral>
0.0127792

> <r_epik_State_Penalty>
0.548815

> <r_epik_Charging_Adjusted_Penalty>
0.563887

> <i_epik_Tot_Q>
1

> <i_epik_Tot_abs_Q>
1

> <r_epik_Metal_State_Penalty>
0.542887

> <b_epik_Metal_Only>
0

> <s_lp_Force_Field>
OPLS_2005

> <r_lp_Energy>
7.72855

> <b_lp_Chiralities_Consistent>
1

> <s_lp_Variant>
AV-unprocessed.smi:2604-3

> <Gold.Version>
5.8.1

> <Gold.Id.Protein>
6NUR|6NUR_protein|mol2

> <Gold.PLP.Fitness>
35.3438

> <Gold.PLP.PLP>
-25.7957

> <Gold.PLP.part.hbond>
-2.0000

> <Gold.PLP.part.metal>
0.0000

> <Gold.PLP.part.buried>
-4.2834

> <Gold.PLP.part.nonpolar>
-19.7615

> <Gold.PLP.part.repulsive>
0.1394

> <Gold.PLP.ligand.clash>
0.0000

> <Gold.PLP.ligand.torsion>
0.0061

> <Gold.PLP.Chemscore.Hbond>
2.0000

> <Gold.PLP.Chemscore.CHOScore>
1.1827

> <Gold.PLP.Chemscore.Metal>
0.0000

> <Gold.Chemscore.Hbonds>
donor molecule, donor type, donor heavy atom, donor atom, acceptor molecule, acceptor atom, score
      L1  H    11    26       P1  8028  2.00
      L1  C     4    15       P1  8028  0.50
      L1  C     4    15       P1  8029  0.68

> <Gold.PLP.Chemscore.Internal.Correction>
0.0121

> <Gold.Rescore>
     Score         DG    S(hbond)    S(metal)    S(lipo)     H(rot)  DE(clash)    DE(int)     intcor
     15.55     -15.59       0.99        0.00      80.04       1.00       0.03       0.01       ----

> <Gold.Chemscore.Fitness>
15.5479

> <Gold.Chemscore.DG>
-15.5855

> <Gold.Chemscore.ZeroCoef>
-5.4800

> <Gold.Chemscore.Hbond>
0.9884

> <Gold.Chemscore.Metal>
0.0000

> <Gold.Chemscore.Lipo>
80.0351

> <Gold.Chemscore.Internal_Hbond>
0.0000

> <Gold.Chemscore.DEClash>
0.0253

> <Gold.Chemscore.DEInternal>
0.0124

> <Gold.Chemscore.Rot>
1.0000

> <Gold.Chemscore.Internal.Correction>
   9.000000E+99

> <Gold.Chemscore.Hbonds>
donor molecule, donor type, donor heavy atom, donor atom, acceptor molecule, acceptor atom, score
      L1  H    11    26       P1  8028  0.96

> <Gold.Chemscore.Hbond.Weighted>
-3.3014

> <Gold.Chemscore.Metal.Weighted>
-0.0000

> <Gold.Chemscore.Lipo.Weighted>
-9.3641

> <Gold.Chemscore.Internal_Hbond.Weighted>
0.0000

> <Gold.Chemscore.DEClash.Weighted>
0.0253

> <Gold.Chemscore.DEInternal.Weighted>
0.0124

> <Gold.Chemscore.Rot.Weighted>
2.5600

> <Gold.Chemscore.Internal.Correction.Weighted>
   9.000000E+99

> <Gold.Protein.RotatedTorsions>
[ 6907 6896 6895 6894 ] final -148.75 input  -60.11 | X-H torsion
[ 7974 7965 7964 7962 ] final  -87.85 input  175.53 | X-H torsion
[ 8008 7997 7996 7995 ] final   92.85 input   59.86 | X-H torsion
[ 10167 10162 10161 10158 ] final  165.08 input  -65.29 | X-H torsion
[ 10718 10713 10712 10709 ] final   41.83 input   66.30 | X-H torsion
[ 10763 10752 10751 10750 ] final   43.97 input  -60.55 | X-H torsion
[ 11005 11000 10999 10996 ] final -156.41 input  -57.11 | X-H torsion

> <Gold.Protein.ActiveResidues>
 VAL166  LYS551  ARG553  GLY616  TRP617  ASP618  TYR619  PRO620  LYS621  CYS622 
 ASP623  PHE694  ASN695  SER759  ASP760  ASP761  ALA762  ILE779  LEU786  VAL792 
 PHE793  MET794  SER795  GLU796  ALA797  LYS798  CYS799  TRP800  GLU811  SER814 

> <Gold.Protein.RotatedAtoms>
  151.1743  133.4764  159.2593 H   0  0  0  0  0  0  0  0  0  0  0  0  # atno 6907 bound_to 6896
  151.1324  135.0137  159.8598 H   0  0  0  0  0  0  0  0  0  0  0  0  # atno 6908 bound_to 6896
  152.5460  134.1644  159.8624 H   0  0  0  0  0  0  0  0  0  0  0  0  # atno 6909 bound_to 6896
  145.4610  140.9561  143.1969 H   0  0  0  0  0  0  0  0  0  0  0  0  # atno 7974 bound_to 7965
  156.0401  140.3320  155.7234 H   0  0  0  0  0  0  0  0  0  0  0  0  # atno 8008 bound_to 7997
  155.5757  140.0632  157.2813 H   0  0  0  0  0  0  0  0  0  0  0  0  # atno 8009 bound_to 7997
  154.4389  140.1853  156.0913 H   0  0  0  0  0  0  0  0  0  0  0  0  # atno 8010 bound_to 7997
  139.4899  144.4169  151.9233 H   0  0  0  0  0  0  0  0  0  0  0  0  # atno 10167 bound_to 10162
  157.3980  130.7844  149.7325 H   0  0  0  0  0  0  0  0  0  0  0  0  # atno 10718 bound_to 10713
  152.9850  135.6085  154.3199 H   0  0  0  0  0  0  0  0  0  0  0  0  # atno 10763 bound_to 10752
  154.2909  135.2775  155.2657 H   0  0  0  0  0  0  0  0  0  0  0  0  # atno 10764 bound_to 10752
  154.4953  135.5881  153.6546 H   0  0  0  0  0  0  0  0  0  0  0  0  # atno 10765 bound_to 10752
  140.6758  134.4197  157.5229 H   0  0  0  0  0  0  0  0  0  0  0  0  # atno 11005 bound_to 11000
  144.8003  139.6154  143.7075 LP  0  0  0  0  0  0  0  0  0  0  0  0  # atno 17320 bound_to 7965
  146.2451  139.6081  142.9465 LP  0  0  0  0  0  0  0  0  0  0  0  0  # atno 17321 bound_to 7965
  140.3612  144.2971  150.5933 LP  0  0  0  0  0  0  0  0  0  0  0  0  # atno 17342 bound_to 10162
  140.5401  143.2225  151.8098 LP  0  0  0  0  0  0  0  0  0  0  0  0  # atno 17343 bound_to 10162
  155.9815  130.4018  150.3465 LP  0  0  0  0  0  0  0  0  0  0  0  0  # atno 17370 bound_to 10713
  157.1589  131.0340  151.2850 LP  0  0  0  0  0  0  0  0  0  0  0  0  # atno 17371 bound_to 10713
  139.8967  134.8654  156.2076 LP  0  0  0  0  0  0  0  0  0  0  0  0  # atno 17394 bound_to 11000
  141.0356  133.6965  156.1507 LP  0  0  0  0  0  0  0  0  0  0  0  0  # atno 17395 bound_to 11000

$$$$
