AV-unprocessed.smi:218|AV-procd|sdf|1673|dock4
  -GOLD-   2262020 93D 1   1.00000     0.00000
 Structure written by MMmdl.
 54 57  0  0  0  0  0  0  0  0  1 V2000
  151.5821  141.5468  159.1196 C   0  0  0  0  0  0  0  0  0  0  0  0
  151.8998  142.5803  158.0324 C   0  0  0  0  0  0  0  0  0  0  0  0
  152.2034  143.9582  158.6459 C   0  0  0  0  0  0  0  0  0  0  0  0
  150.7519  142.6562  157.1850 O   0  0  0  0  0  0  0  0  0  0  0  0
  150.4893  141.6471  156.2786 C   0  0  0  0  0  0  0  0  0  0  0  0
  149.4358  141.8326  155.3606 C   0  0  0  0  0  0  0  0  0  0  0  0
  149.1552  140.8122  154.4274 C   0  0  0  0  0  0  0  0  0  0  0  0
  148.0319  140.9620  153.4143 C   0  0  0  0  0  0  0  0  0  0  0  0
  147.8332  139.8132  152.5361 N   0  0  0  0  0  0  0  0  0  0  0  0
  147.1666  138.7213  152.9717 C   0  0  0  0  0  0  0  0  0  0  0  0
  147.0112  138.4762  154.2991 N   0  0  0  0  0  0  0  0  0  0  0  0
  146.3444  137.3914  154.7041 C   0  0  0  0  0  0  0  0  0  0  0  0
  145.7607  136.4466  153.9639 N   0  0  0  0  0  0  0  0  0  0  0  0
  145.9081  136.6907  152.6295 C   0  0  0  0  0  0  0  0  0  0  0  0
  146.5941  137.7988  152.0582 C   0  0  0  0  0  0  0  0  0  0  0  0
  146.5448  137.7205  150.6726 N   0  0  0  0  0  0  0  0  0  0  0  0
  145.8661  136.6286  150.4427 C   0  0  0  0  0  0  0  0  0  0  0  0
  145.4416  135.9490  151.5629 N   0  0  0  0  0  0  0  0  0  0  0  0
  144.6436  134.6869  151.6118 C   0  0  1  0  0  0  0  0  0  0  0  0
  144.1197  134.4526  150.3433 O   0  0  0  0  0  0  0  0  0  0  0  0
  144.0976  133.0537  150.1086 C   0  0  1  0  0  0  0  0  0  0  0  0
  143.9512  132.7529  148.6067 C   0  0  0  0  0  0  0  0  0  0  0  0
  143.6408  133.9332  147.8971 O   0  0  0  0  0  0  0  0  0  0  0  0
  145.3672  132.5394  150.8055 C   0  0  1  0  0  0  0  0  0  0  0  0
  146.4991  132.6038  149.9591 O   0  0  0  0  0  0  0  0  0  0  0  0
  145.5312  133.4874  151.9921 C   0  0  2  0  0  0  0  0  0  0  0  0
  145.0554  132.8574  153.1648 O   0  0  0  0  0  0  0  0  0  0  0  0
  149.9353  139.6393  154.4581 C   0  0  0  0  0  0  0  0  0  0  0  0
  150.9657  139.5445  155.4131 C   0  0  0  0  0  0  0  0  0  0  0  0
  151.2412  140.5186  156.3059 N   0  0  0  0  0  0  0  0  0  0  0  0
  143.8426  134.8849  152.3259 H   0  0  0  0  0  0  0  0  0  0  0  0
  143.2280  132.6601  150.6385 H   0  0  0  0  0  0  0  0  0  0  0  0
  145.2516  131.4986  151.1125 H   0  0  0  0  0  0  0  0  0  0  0  0
  146.5683  133.7923  152.1444 H   0  0  0  0  0  0  0  0  0  0  0  0
  152.4202  141.4279  159.8067 H   0  0  0  0  0  0  0  0  0  0  0  0
  151.3736  140.5710  158.6801 H   0  0  0  0  0  0  0  0  0  0  0  0
  150.7096  141.8416  159.7035 H   0  0  0  0  0  0  0  0  0  0  0  0
  152.7700  142.2150  157.4848 H   0  0  0  0  0  0  0  0  0  0  0  0
  153.0514  143.9028  159.3289 H   0  0  0  0  0  0  0  0  0  0  0  0
  151.3481  144.3351  159.2071 H   0  0  0  0  0  0  0  0  0  0  0  0
  152.4483  144.6963  157.8827 H   0  0  0  0  0  0  0  0  0  0  0  0
  148.8582  142.7451  155.3730 H   0  0  0  0  0  0  0  0  0  0  0  0
  147.0970  141.1892  153.9283 H   0  0  0  0  0  0  0  0  0  0  0  0
  148.2543  141.8275  152.7900 H   0  0  0  0  0  0  0  0  0  0  0  0
  148.3571  139.8256  151.6730 H   0  0  0  0  0  0  0  0  0  0  0  0
  146.2656  137.2626  155.7734 H   0  0  0  0  0  0  0  0  0  0  0  0
  145.6495  136.2885  149.4404 H   0  0  0  0  0  0  0  0  0  0  0  0
  144.8882  132.3550  148.2164 H   0  0  0  0  0  0  0  0  0  0  0  0
  143.1869  131.9978  148.4211 H   0  0  0  0  0  0  0  0  0  0  0  0
  144.4453  134.3084  147.5721 H   0  0  0  0  0  0  0  0  0  0  0  0
  147.1380  131.9796  150.2680 H   0  0  0  0  0  0  0  0  0  0  0  0
  145.7612  132.8241  153.7922 H   0  0  0  0  0  0  0  0  0  0  0  0
  149.7550  138.8320  153.7636 H   0  0  0  0  0  0  0  0  0  0  0  0
  151.5853  138.6613  155.4620 H   0  0  0  0  0  0  0  0  0  0  0  0
  1  2  1  0  0  0  0
  1 35  1  0  0  0  0
  1 36  1  0  0  0  0
  1 37  1  0  0  0  0
  2  3  1  0  0  0  0
  2  4  1  0  0  0  0
  2 38  1  0  0  0  0
  3 39  1  0  0  0  0
  3 40  1  0  0  0  0
  3 41  1  0  0  0  0
  4  5  1  0  0  0  0
  5 30  1  0  0  0  0
  5  6  2  0  0  0  0
  6  7  1  0  0  0  0
  6 42  1  0  0  0  0
  7  8  1  0  0  0  0
  7 28  2  0  0  0  0
  8  9  1  0  0  0  0
  8 43  1  0  0  0  0
  8 44  1  0  0  0  0
  9 10  1  0  0  0  0
  9 45  1  0  0  0  0
 10 15  1  0  0  0  0
 10 11  2  0  0  0  0
 11 12  1  0  0  0  0
 12 13  2  0  0  0  0
 12 46  1  0  0  0  0
 13 14  1  0  0  0  0
 14 18  1  0  0  0  0
 14 15  2  0  0  0  0
 15 16  1  0  0  0  0
 16 17  2  0  0  0  0
 17 18  1  0  0  0  0
 17 47  1  0  0  0  0
 18 19  1  0  0  0  0
 19 31  1  0  0  0  0
 19 26  1  0  0  0  0
 19 20  1  0  0  0  0
 20 21  1  0  0  0  0
 21 32  1  0  0  0  0
 21 22  1  0  0  0  0
 21 24  1  0  0  0  0
 22 23  1  0  0  0  0
 22 48  1  0  0  0  0
 22 49  1  0  0  0  0
 23 50  1  0  0  0  0
 24 33  1  0  0  0  0
 24 25  1  0  0  0  0
 24 26  1  0  0  0  0
 25 51  1  0  0  0  0
 26 34  1  0  0  0  0
 26 27  1  0  0  0  0
 27 52  1  0  0  0  0
 28 29  1  0  0  0  0
 28 53  1  0  0  0  0
 29 30  2  0  0  0  0
 29 54  1  0  0  0  0
M  END
> <s_m_source_file>
AV-unprocessed.smi

> <i_m_source_file_index>
218

> <i_lp_mmshare_version>
43012

> <i_f3d_flags>
0

> <s_epik_input>
W0NIM11bQ0hdKFtDSDNdKU9jMVtjSF1jKFtjSF1bY0hdbjEpW0NIMl1bTkhdYyhuW2NIXW4yKWMoYzIzKW5bY0hdbjNbQ0BASF00T1tDQEhdKFtDSDJdW09IXSlbQ0BASF0oW09IXSlbQ0BIXTRbT0hd

> <s_epik_cmdline>
J2VwaWtfcHl0aG9uJywgJy1waCcsICc3LjAnLCAnLXRuJywgJzgnLCAnLW1hJywgJzIwMCcsICctbWV0YWxfYmluZGluZycsICctaW1hZScsICc8aW5maWxlLm1hZT4nLCAnLW9tYWUnLCAnPG91dGZpbGUubWFlPic=

> <r_lp_tautomer_probability>
1

> <r_epik_Ionization_Penalty>
0.00457014

> <r_epik_Ionization_Penalty_Charging>
0

> <r_epik_Ionization_Penalty_Neutral>
0.00457014

> <r_epik_State_Penalty>
-0

> <r_epik_Charging_Adjusted_Penalty>
0

> <i_epik_Tot_Q>
0

> <i_epik_Tot_abs_Q>
0

> <r_epik_Metal_State_Penalty>
-0

> <b_epik_Metal_Only>
0

> <s_epik_Chemistry_Notes>
This compound contains an acetal/aminal-like group ( X-CH(R)-Y where X, Y are N, S, or O) that may be acid/base labile, releasing an aldehyde.

> <s_lp_Force_Field>
OPLS_2005

> <r_lp_Energy>
38.5835

> <b_lp_Chiralities_Consistent>
1

> <s_lp_Variant>
AV-unprocessed.smi:218-12

> <Gold.Version>
5.8.1

> <Gold.Id.Protein>
6NUR|6NUR_protein|mol2

> <Gold.PLP.Fitness>
65.6866

> <Gold.PLP.PLP>
-52.0113

> <Gold.PLP.part.hbond>
-7.8820

> <Gold.PLP.part.metal>
0.0000

> <Gold.PLP.part.buried>
-0.2944

> <Gold.PLP.part.nonpolar>
-46.7419

> <Gold.PLP.part.repulsive>
3.0099

> <Gold.PLP.ligand.clash>
0.0000

> <Gold.PLP.ligand.torsion>
1.4557

> <Gold.PLP.Chemscore.Hbond>
4.4570

> <Gold.PLP.Chemscore.CHOScore>
1.0000

> <Gold.PLP.Chemscore.Metal>
0.0000

> <Gold.Chemscore.Hbonds>
donor molecule, donor type, donor heavy atom, donor atom, acceptor molecule, acceptor atom, score
      L1  H     9    45       P1  7957  0.47
      L1  H    23    50       P1  7921  1.00
      L1  H    25    51       P1 10747  0.71
      P1  H  7954  7966       L1    16  1.00
      P1  H 10192 10197       L1    23  0.67
      L1  C    17    47       P1  7921  1.00

> <Gold.PLP.Chemscore.Internal.Correction>
0.2158

> <Gold.Rescore>
     Score         DG    S(hbond)    S(metal)    S(lipo)     H(rot)  DE(clash)    DE(int)     intcor
     11.32     -18.40       3.66        0.00     113.14       4.90       5.34       1.75       ----

> <Gold.Chemscore.Fitness>
11.3162

> <Gold.Chemscore.DG>
-18.4032

> <Gold.Chemscore.ZeroCoef>
-5.4800

> <Gold.Chemscore.Hbond>
3.6640

> <Gold.Chemscore.Metal>
0.0000

> <Gold.Chemscore.Lipo>
113.1354

> <Gold.Chemscore.Internal_Hbond>
0.0000

> <Gold.Chemscore.DEClash>
5.3384

> <Gold.Chemscore.DEInternal>
1.7486

> <Gold.Chemscore.Rot>
4.9029

> <Gold.Chemscore.Internal.Correction>
   9.000000E+99

> <Gold.Chemscore.Hbonds>
donor molecule, donor type, donor heavy atom, donor atom, acceptor molecule, acceptor atom, score
      L1  H     9    45       P1  7957  0.46
      L1  H    23    50       P1  7921  0.99
      L1  H    25    51       P1 10747  0.70
      P1  H  7954  7966       L1    16  0.81
      P1  H 10192 10197       L1    23  0.40

> <Gold.Chemscore.Hbond.Weighted>
-12.2379

> <Gold.Chemscore.Metal.Weighted>
-0.0000

> <Gold.Chemscore.Lipo.Weighted>
-13.2368

> <Gold.Chemscore.Internal_Hbond.Weighted>
0.0000

> <Gold.Chemscore.DEClash.Weighted>
5.3384

> <Gold.Chemscore.DEInternal.Weighted>
1.7486

> <Gold.Chemscore.Rot.Weighted>
12.5515

> <Gold.Chemscore.Internal.Correction.Weighted>
   9.000000E+99

> <Gold.Protein.RotatedTorsions>
[ 6907 6896 6895 6894 ] final  -20.84 input  -60.11 | X-H torsion
[ 7974 7965 7964 7962 ] final -101.83 input  175.53 | X-H torsion
[ 8008 7997 7996 7995 ] final  160.47 input   59.86 | X-H torsion
[ 10167 10162 10161 10158 ] final -146.78 input  -65.29 | X-H torsion
[ 10718 10713 10712 10709 ] final  124.84 input   66.30 | X-H torsion
[ 10763 10752 10751 10750 ] final -107.34 input  -60.55 | X-H torsion
[ 11005 11000 10999 10996 ] final  120.21 input  -57.11 | X-H torsion

> <Gold.Protein.ActiveResidues>
 VAL166  LYS551  ARG553  GLY616  TRP617  ASP618  TYR619  PRO620  LYS621  CYS622 
 ASP623  PHE694  ASN695  SER759  ASP760  ASP761  ALA762  ILE779  LEU786  VAL792 
 PHE793  MET794  SER795  GLU796  ALA797  LYS798  CYS799  TRP800  GLU811  SER814 

> <Gold.Protein.RotatedAtoms>
  151.2422  135.0593  159.9029 H   0  0  0  0  0  0  0  0  0  0  0  0  # atno 6907 bound_to 6896
  152.5391  134.0422  159.8082 H   0  0  0  0  0  0  0  0  0  0  0  0  # atno 6908 bound_to 6896
  151.0617  133.5489  159.2665 H   0  0  0  0  0  0  0  0  0  0  0  0  # atno 6909 bound_to 6896
  145.2765  140.9314  143.2956 H   0  0  0  0  0  0  0  0  0  0  0  0  # atno 7974 bound_to 7965
  156.2170  140.1803  156.7566 H   0  0  0  0  0  0  0  0  0  0  0  0  # atno 8008 bound_to 7997
  154.5806  140.0667  156.9128 H   0  0  0  0  0  0  0  0  0  0  0  0  # atno 8009 bound_to 7997
  155.2509  140.3329  155.4285 H   0  0  0  0  0  0  0  0  0  0  0  0  # atno 8010 bound_to 7997
  139.7682  143.8276  152.2620 H   0  0  0  0  0  0  0  0  0  0  0  0  # atno 10167 bound_to 10162
  157.5552  131.1092  150.8634 H   0  0  0  0  0  0  0  0  0  0  0  0  # atno 10718 bound_to 10713
  154.8069  135.4678  154.0415 H   0  0  0  0  0  0  0  0  0  0  0  0  # atno 10763 bound_to 10752
  153.1877  135.6850  153.8401 H   0  0  0  0  0  0  0  0  0  0  0  0  # atno 10764 bound_to 10752
  153.7929  135.3240  155.3358 H   0  0  0  0  0  0  0  0  0  0  0  0  # atno 10765 bound_to 10752
  139.9176  134.9633  156.7772 H   0  0  0  0  0  0  0  0  0  0  0  0  # atno 11005 bound_to 11000
  144.9289  139.4321  143.6504 LP  0  0  0  0  0  0  0  0  0  0  0  0  # atno 17320 bound_to 7965
  146.3230  139.8190  142.8930 LP  0  0  0  0  0  0  0  0  0  0  0  0  # atno 17321 bound_to 7965
  139.8303  144.7257  150.9459 LP  0  0  0  0  0  0  0  0  0  0  0  0  # atno 17342 bound_to 10162
  140.7812  143.4076  151.1045 LP  0  0  0  0  0  0  0  0  0  0  0  0  # atno 17343 bound_to 10162
  156.9147  130.5293  149.5280 LP  0  0  0  0  0  0  0  0  0  0  0  0  # atno 17370 bound_to 10713
  156.0612  130.5664  150.9196 LP  0  0  0  0  0  0  0  0  0  0  0  0  # atno 17371 bound_to 10713
  140.6573  133.9677  155.7786 LP  0  0  0  0  0  0  0  0  0  0  0  0  # atno 17394 bound_to 11000
  141.0667  134.0266  157.3583 LP  0  0  0  0  0  0  0  0  0  0  0  0  # atno 17395 bound_to 11000

$$$$
