AV-unprocessed.smi:1517|AV-procd|sdf|6120|dock6
  -GOLD-   22720 6253D 1   1.00000     0.00000
 Structure written by MMmdl.
 42 44  0  0  0  0  0  0  0  0  2 V2000
  148.2442  140.6603  153.3061 O   0  0  0  0  0  0  0  0  0  0  0  0
  146.9134  140.2301  153.1270 C   0  0  0  0  0  0  0  0  0  0  0  0
  146.8999  138.7254  152.8383 C   0  0  0  0  0  0  0  0  0  0  0  0
  145.5969  138.2868  152.3674 N   0  0  0  0  0  0  0  0  0  0  0  0
  145.4116  136.9213  152.1266 C   0  0  0  0  0  0  0  0  0  0  0  0
  146.3948  136.0067  151.9127 N   0  3  0  0  0  0  0  0  0  0  0  0
  145.7992  134.7543  151.7372 C   0  0  0  0  0  0  0  0  0  0  0  0
  146.3642  133.5059  151.4957 C   0  0  0  0  0  0  0  0  0  0  0  0
  145.4728  132.4197  151.3742 C   0  0  0  0  0  0  0  0  0  0  0  0
  144.0786  132.5949  151.4933 C   0  0  0  0  0  0  0  0  0  0  0  0
  143.5139  133.8641  151.7371 C   0  0  0  0  0  0  0  0  0  0  0  0
  144.3996  134.9346  151.8533 C   0  0  0  0  0  0  0  0  0  0  0  0
  144.2038  136.3005  152.0920 N   0  0  0  0  0  0  0  0  0  0  0  0
  142.8429  136.8212  152.2893 C   0  0  0  0  0  0  0  0  0  0  0  0
  142.6538  137.4542  153.6824 C   0  0  2  0  0  0  0  0  0  0  0  0
  142.9765  136.4789  154.6525 O   0  0  0  0  0  0  0  0  0  0  0  0
  141.2496  138.0196  153.8687 C   0  0  0  0  0  0  0  0  0  0  0  0
  141.0599  139.4052  154.0718 C   0  0  0  0  0  0  0  0  0  0  0  0
  139.7674  139.9248  154.2767 C   0  0  0  0  0  0  0  0  0  0  0  0
  138.6550  139.0625  154.2853 C   0  0  0  0  0  0  0  0  0  0  0  0
  137.4129  139.5611  154.4897 F   0  0  0  0  0  0  0  0  0  0  0  0
  138.8358  137.6809  154.0864 C   0  0  0  0  0  0  0  0  0  0  0  0
  140.1276  137.1588  153.8792 C   0  0  0  0  0  0  0  0  0  0  0  0
  140.2846  135.8238  153.7091 F   0  0  0  0  0  0  0  0  0  0  0  0
  148.7028  140.5702  152.4844 H   0  0  0  0  0  0  0  0  0  0  0  0
  146.3432  140.4574  154.0281 H   0  0  0  0  0  0  0  0  0  0  0  0
  146.4650  140.7876  152.3041 H   0  0  0  0  0  0  0  0  0  0  0  0
  147.6528  138.4838  152.0868 H   0  0  0  0  0  0  0  0  0  0  0  0
  147.1557  138.1738  153.7442 H   0  0  0  0  0  0  0  0  0  0  0  0
  144.7912  138.8529  152.5923 H   0  0  0  0  0  0  0  0  0  0  0  0
  147.4318  133.3670  151.4070 H   0  0  0  0  0  0  0  0  0  0  0  0
  145.8670  131.4310  151.1876 H   0  0  0  0  0  0  0  0  0  0  0  0
  143.4280  131.7378  151.3964 H   0  0  0  0  0  0  0  0  0  0  0  0
  142.4448  133.9869  151.8290 H   0  0  0  0  0  0  0  0  0  0  0  0
  142.6436  137.5511  151.5032 H   0  0  0  0  0  0  0  0  0  0  0  0
  142.1389  136.0030  152.1316 H   0  0  0  0  0  0  0  0  0  0  0  0
  143.3799  138.2573  153.8112 H   0  0  0  0  0  0  0  0  0  0  0  0
  143.4827  136.8907  155.3362 H   0  0  0  0  0  0  0  0  0  0  0  0
  141.9070  140.0755  154.0806 H   0  0  0  0  0  0  0  0  0  0  0  0
  139.6303  140.9846  154.4334 H   0  0  0  0  0  0  0  0  0  0  0  0
  137.9822  137.0193  154.0980 H   0  0  0  0  0  0  0  0  0  0  0  0
  147.3835  136.2205  151.8931 H   0  0  0  0  0  0  0  0  0  0  0  0
  1  2  1  0  0  0  0
  1 25  1  0  0  0  0
  2  3  1  0  0  0  0
  2 26  1  0  0  0  0
  2 27  1  0  0  0  0
  3  4  1  0  0  0  0
  3 28  1  0  0  0  0
  3 29  1  0  0  0  0
  4  5  1  0  0  0  0
  4 30  1  0  0  0  0
  5 13  1  0  0  0  0
  5  6  2  0  0  0  0
  6  7  1  0  0  0  0
  6 42  1  0  0  0  0
  7 12  2  0  0  0  0
  7  8  1  0  0  0  0
  8  9  2  0  0  0  0
  8 31  1  0  0  0  0
  9 10  1  0  0  0  0
  9 32  1  0  0  0  0
 10 11  2  0  0  0  0
 10 33  1  0  0  0  0
 11 12  1  0  0  0  0
 11 34  1  0  0  0  0
 12 13  1  0  0  0  0
 13 14  1  0  0  0  0
 14 15  1  0  0  0  0
 14 35  1  0  0  0  0
 14 36  1  0  0  0  0
 15 16  1  0  0  0  0
 15 17  1  0  0  0  0
 15 37  1  0  0  0  0
 16 38  1  0  0  0  0
 17 23  1  0  0  0  0
 17 18  2  0  0  0  0
 18 19  1  0  0  0  0
 18 39  1  0  0  0  0
 19 20  2  0  0  0  0
 19 40  1  0  0  0  0
 20 21  1  0  0  0  0
 20 22  1  0  0  0  0
 22 23  2  0  0  0  0
 22 41  1  0  0  0  0
 23 24  1  0  0  0  0
M  CHG  1   6   1
M  END
> <s_m_source_file>
AV-unprocessed.smi

> <i_m_source_file_index>
1517

> <i_lp_mmshare_version>
43012

> <i_f3d_flags>
0

> <s_epik_input>
W09IXVtDSDJdW0NIMl1bTkhdYyhuMSluKGMoYzEyKVtjSF1bY0hdW2NIXVtjSF0yKVtDSDJdW0NASF0oW09IXSljM1tjSF1bY0hdYyhGKVtjSF1jM0Y=

> <s_epik_cmdline>
J2VwaWtfcHl0aG9uJywgJy1waCcsICc3LjAnLCAnLXRuJywgJzgnLCAnLW1hJywgJzIwMCcsICctbWV0YWxfYmluZGluZycsICctaW1hZScsICc8aW5maWxlLm1hZT4nLCAnLW9tYWUnLCAnPG91dGZpbGUubWFlPic=

> <r_epik_Ionization_Penalty>
0.0688096

> <r_epik_Ionization_Penalty_Charging>
0.0688055

> <r_epik_Ionization_Penalty_Neutral>
4.12262e-06

> <r_epik_State_Penalty>
0.0602293

> <r_epik_Charging_Adjusted_Penalty>
0.129035

> <i_epik_Tot_Q>
1

> <i_epik_Tot_abs_Q>
1

> <r_epik_Metal_State_Penalty>
2.77411

> <b_epik_Metal_Only>
0

> <s_lp_Force_Field>
OPLS_2005

> <r_lp_Energy>
18.8563

> <b_lp_Chiralities_Consistent>
1

> <s_lp_Variant>
AV-unprocessed.smi:1517-1

> <Gold.Version>
5.8.1

> <Gold.Id.Protein>
6NUR|6NUR_protein|mol2

> <Gold.PLP.Fitness>
56.5768

> <Gold.PLP.PLP>
-41.6745

> <Gold.PLP.part.hbond>
-3.9884

> <Gold.PLP.part.metal>
0.0000

> <Gold.PLP.part.buried>
-2.5393

> <Gold.PLP.part.nonpolar>
-35.4537

> <Gold.PLP.part.repulsive>
0.0843

> <Gold.PLP.ligand.clash>
0.0000

> <Gold.PLP.ligand.torsion>
0.0721

> <Gold.PLP.Chemscore.Hbond>
5.0000

> <Gold.PLP.Chemscore.CHOScore>
0.0000

> <Gold.PLP.Chemscore.Metal>
0.0000

> <Gold.Chemscore.Hbonds>
donor molecule, donor type, donor heavy atom, donor atom, acceptor molecule, acceptor atom, score
      L1  H     1    25       P1  7957  1.00
      L1  H     4    30       P1 10175  2.00
      L1  H     6    42       P1  7948  2.00

> <Gold.PLP.Chemscore.Internal.Correction>
0.0465

> <Gold.Rescore>
     Score         DG    S(hbond)    S(metal)    S(lipo)     H(rot)  DE(clash)    DE(int)     intcor
     15.50     -17.50       2.96        0.00      90.17       3.29       0.71       1.29       ----

> <Gold.Chemscore.Fitness>
15.4959

> <Gold.Chemscore.DG>
-17.5001

> <Gold.Chemscore.ZeroCoef>
-5.4800

> <Gold.Chemscore.Hbond>
2.9597

> <Gold.Chemscore.Metal>
0.0000

> <Gold.Chemscore.Lipo>
90.1737

> <Gold.Chemscore.Internal_Hbond>
0.0000

> <Gold.Chemscore.DEClash>
0.7127

> <Gold.Chemscore.DEInternal>
1.2915

> <Gold.Chemscore.Rot>
3.2874

> <Gold.Chemscore.Internal.Correction>
   9.000000E+99

> <Gold.Chemscore.Hbonds>
donor molecule, donor type, donor heavy atom, donor atom, acceptor molecule, acceptor atom, score
      L1  H     1    25       P1  7957  1.00
      L1  H     4    30       P1 10175  0.96
      L1  H     6    42       P1  7948  0.94

> <Gold.Chemscore.Hbond.Weighted>
-9.8855

> <Gold.Chemscore.Metal.Weighted>
-0.0000

> <Gold.Chemscore.Lipo.Weighted>
-10.5503

> <Gold.Chemscore.Internal_Hbond.Weighted>
0.0000

> <Gold.Chemscore.DEClash.Weighted>
0.7127

> <Gold.Chemscore.DEInternal.Weighted>
1.2915

> <Gold.Chemscore.Rot.Weighted>
8.4158

> <Gold.Chemscore.Internal.Correction.Weighted>
   9.000000E+99

> <Gold.Protein.RotatedTorsions>
[ 6907 6896 6895 6894 ] final   25.20 input  -60.11 | X-H torsion
[ 7974 7965 7964 7962 ] final  153.97 input  175.53 | X-H torsion
[ 8008 7997 7996 7995 ] final  107.67 input   59.86 | X-H torsion
[ 10167 10162 10161 10158 ] final  -24.17 input  -65.29 | X-H torsion
[ 10718 10713 10712 10709 ] final    0.03 input   66.30 | X-H torsion
[ 10763 10752 10751 10750 ] final  -70.20 input  -60.55 | X-H torsion
[ 11005 11000 10999 10996 ] final   20.16 input  -57.11 | X-H torsion

> <Gold.Protein.ActiveResidues>
 VAL166  LYS551  ARG553  GLY616  TRP617  ASP618  TYR619  PRO620  LYS621  CYS622 
 ASP623  PHE694  ASN695  SER759  ASP760  ASP761  ALA762  ILE779  LEU786  VAL792 
 PHE793  MET794  SER795  GLU796  ALA797  LYS798  CYS799  TRP800  GLU811  SER814 

> <Gold.Protein.RotatedAtoms>
  151.9690  135.0086  160.0551 H   0  0  0  0  0  0  0  0  0  0  0  0  # atno 6907 bound_to 6896
  152.1800  133.4696  159.4961 H   0  0  0  0  0  0  0  0  0  0  0  0  # atno 6908 bound_to 6896
  150.6916  134.1763  159.4274 H   0  0  0  0  0  0  0  0  0  0  0  0  # atno 6909 bound_to 6896
  144.8119  139.6871  143.6138 H   0  0  0  0  0  0  0  0  0  0  0  0  # atno 7974 bound_to 7965
  156.1843  140.3090  155.9207 H   0  0  0  0  0  0  0  0  0  0  0  0  # atno 8008 bound_to 7997
  155.3316  140.0461  157.3060 H   0  0  0  0  0  0  0  0  0  0  0  0  # atno 8009 bound_to 7997
  154.5377  140.2251  155.8704 H   0  0  0  0  0  0  0  0  0  0  0  0  # atno 8010 bound_to 7997
  140.7288  143.4377  151.0704 H   0  0  0  0  0  0  0  0  0  0  0  0  # atno 10167 bound_to 10162
  156.8274  130.5477  149.5690 H   0  0  0  0  0  0  0  0  0  0  0  0  # atno 10718 bound_to 10713
  154.4143  135.6001  153.5971 H   0  0  0  0  0  0  0  0  0  0  0  0  # atno 10763 bound_to 10752
  152.9791  135.5937  154.4032 H   0  0  0  0  0  0  0  0  0  0  0  0  # atno 10764 bound_to 10752
  154.3849  135.2841  155.2168 H   0  0  0  0  0  0  0  0  0  0  0  0  # atno 10765 bound_to 10752
  140.4056  134.1672  155.7665 H   0  0  0  0  0  0  0  0  0  0  0  0  # atno 11005 bound_to 11000
  146.2419  139.6018  142.9486 LP  0  0  0  0  0  0  0  0  0  0  0  0  # atno 17320 bound_to 7965
  145.5303  141.0427  143.2386 LP  0  0  0  0  0  0  0  0  0  0  0  0  # atno 17321 bound_to 7965
  139.8041  143.8042  152.3165 LP  0  0  0  0  0  0  0  0  0  0  0  0  # atno 17342 bound_to 10162
  139.8069  144.7351  150.9749 LP  0  0  0  0  0  0  0  0  0  0  0  0  # atno 17343 bound_to 10162
  156.0954  130.5928  150.9804 LP  0  0  0  0  0  0  0  0  0  0  0  0  # atno 17370 bound_to 10713
  157.6425  131.0908  150.8222 LP  0  0  0  0  0  0  0  0  0  0  0  0  # atno 17371 bound_to 10713
  141.1840  133.8352  157.1154 LP  0  0  0  0  0  0  0  0  0  0  0  0  # atno 17394 bound_to 11000
  140.0304  134.9904  157.0769 LP  0  0  0  0  0  0  0  0  0  0  0  0  # atno 17395 bound_to 11000

$$$$
