AV-unprocessed.smi:3335|AV-procd|sdf|12838|dock4
  -GOLD-   2272019223D 1   1.00000     0.00000
 Structure written by MMmdl.
 47 48  0  0  0  0  0  0  0  0  2 V2000
  143.7972  132.2900  149.8192 C   0  0  0  0  0  0  0  0  0  0  0  0
  144.1796  133.2798  150.8815 C   0  0  0  0  0  0  0  0  0  0  0  0
  143.6058  133.4427  152.1737 C   0  0  0  0  0  0  0  0  0  0  0  0
  144.1804  134.4081  152.8716 N   0  0  0  0  0  0  0  0  0  0  0  0
  145.1306  134.9090  152.0494 N   0  0  0  0  0  0  0  0  0  0  0  0
  146.0124  135.9891  152.4817 C   0  0  1  0  0  0  0  0  0  0  0  0
  145.4046  137.3821  152.2078 C   0  0  0  0  0  0  0  0  0  0  0  0
  146.4882  135.7873  153.9440 C   0  0  2  0  0  0  0  0  0  0  0  0
  145.4534  136.2063  155.0087 C   0  0  0  0  0  0  0  0  0  0  0  0
  147.7836  136.4825  154.1478 N   0  3  0  0  0  0  0  0  0  0  0  0
  148.6606  135.9601  155.2243 C   0  0  2  0  0  0  0  0  0  0  0  0
  148.0857  136.3742  156.5885 C   0  0  0  0  0  0  0  0  0  0  0  0
  150.1047  136.4840  155.0862 C   0  0  0  0  0  0  0  0  0  0  0  0
  151.0166  135.6719  154.9207 O   0  0  0  0  0  0  0  0  0  0  0  0
  150.3345  137.8138  155.1397 N   0  0  0  0  0  0  0  0  0  0  0  0
  151.6691  138.3996  155.0213 C   0  0  0  0  0  0  0  0  0  0  0  0
  151.5100  139.8774  155.3785 C   0  0  0  0  0  0  0  0  0  0  0  0
  150.0542  140.1819  155.0560 C   0  0  0  0  0  0  0  0  0  0  0  0
  149.3295  138.8620  155.3198 C   0  0  0  0  0  0  0  0  0  0  0  0
  145.1575  134.2326  150.8471 C   0  0  0  0  0  0  0  0  0  0  0  0
  142.8448  131.8067  150.0382 H   0  0  0  0  0  0  0  0  0  0  0  0
  144.5423  131.5009  149.7187 H   0  0  0  0  0  0  0  0  0  0  0  0
  143.6976  132.7656  148.8432 H   0  0  0  0  0  0  0  0  0  0  0  0
  142.7960  132.8873  152.6238 H   0  0  0  0  0  0  0  0  0  0  0  0
  146.8972  135.9129  151.8473 H   0  0  0  0  0  0  0  0  0  0  0  0
  146.1131  138.1780  152.4372 H   0  0  0  0  0  0  0  0  0  0  0  0
  144.5053  137.5632  152.7967 H   0  0  0  0  0  0  0  0  0  0  0  0
  145.1336  137.4865  151.1567 H   0  0  0  0  0  0  0  0  0  0  0  0
  146.6630  134.7176  154.0652 H   0  0  0  0  0  0  0  0  0  0  0  0
  144.5032  135.6924  154.8684 H   0  0  0  0  0  0  0  0  0  0  0  0
  145.2596  137.2785  154.9819 H   0  0  0  0  0  0  0  0  0  0  0  0
  145.7894  135.9615  156.0155 H   0  0  0  0  0  0  0  0  0  0  0  0
  148.3092  136.4221  153.2872 H   0  0  0  0  0  0  0  0  0  0  0  0
  148.6443  134.8731  155.1689 H   0  0  0  0  0  0  0  0  0  0  0  0
  148.6935  135.9988  157.4124 H   0  0  0  0  0  0  0  0  0  0  0  0
  147.0783  135.9795  156.7236 H   0  0  0  0  0  0  0  0  0  0  0  0
  148.0311  137.4594  156.6875 H   0  0  0  0  0  0  0  0  0  0  0  0
  152.3928  137.9114  155.6761 H   0  0  0  0  0  0  0  0  0  0  0  0
  152.0145  138.2896  153.9922 H   0  0  0  0  0  0  0  0  0  0  0  0
  151.6836  140.0166  156.4466 H   0  0  0  0  0  0  0  0  0  0  0  0
  152.2070  140.5203  154.8400 H   0  0  0  0  0  0  0  0  0  0  0  0
  149.6543  141.0096  155.6424 H   0  0  0  0  0  0  0  0  0  0  0  0
  149.9624  140.4450  154.0014 H   0  0  0  0  0  0  0  0  0  0  0  0
  148.4779  138.7464  154.6490 H   0  0  0  0  0  0  0  0  0  0  0  0
  148.9628  138.8310  156.3470 H   0  0  0  0  0  0  0  0  0  0  0  0
  145.8645  134.4846  150.0704 H   0  0  0  0  0  0  0  0  0  0  0  0
  147.5863  137.4556  154.3316 H   0  0  0  0  0  0  0  0  0  0  0  0
  1  2  1  0  0  0  0
  1 21  1  0  0  0  0
  1 22  1  0  0  0  0
  1 23  1  0  0  0  0
  2 20  2  0  0  0  0
  2  3  1  0  0  0  0
  3  4  2  0  0  0  0
  3 24  1  0  0  0  0
  4  5  1  0  0  0  0
  5  6  1  0  0  0  0
  5 20  1  0  0  0  0
  6  7  1  0  0  0  0
  6  8  1  0  0  0  0
  6 25  1  0  0  0  0
  7 26  1  0  0  0  0
  7 27  1  0  0  0  0
  7 28  1  0  0  0  0
  8  9  1  0  0  0  0
  8 10  1  0  0  0  0
  8 29  1  0  0  0  0
  9 30  1  0  0  0  0
  9 31  1  0  0  0  0
  9 32  1  0  0  0  0
 10 11  1  0  0  0  0
 10 33  1  0  0  0  0
 10 47  1  0  0  0  0
 11 12  1  0  0  0  0
 11 13  1  0  0  0  0
 11 34  1  0  0  0  0
 12 35  1  0  0  0  0
 12 36  1  0  0  0  0
 12 37  1  0  0  0  0
 13 14  2  0  0  0  0
 13 15  1  0  0  0  0
 15 19  1  0  0  0  0
 15 16  1  0  0  0  0
 16 17  1  0  0  0  0
 16 38  1  0  0  0  0
 16 39  1  0  0  0  0
 17 18  1  0  0  0  0
 17 40  1  0  0  0  0
 17 41  1  0  0  0  0
 18 19  1  0  0  0  0
 18 42  1  0  0  0  0
 18 43  1  0  0  0  0
 19 44  1  0  0  0  0
 19 45  1  0  0  0  0
 20 46  1  0  0  0  0
M  CHG  1  10   1
M  END
> <s_m_source_file>
AV-unprocessed.smi

> <i_m_source_file_index>
3335

> <i_lp_mmshare_version>
43012

> <i_f3d_flags>
0

> <s_epik_input>
W0NIM11jMVtjSF1ubihbY0hdMSlbQ0BIXShbQ0gzXSlbQ0BIXShbQ0gzXSlbTkhdW0NASF0oW0NIM10pQyg9TylOMltDSDJdW0NIMl1bQ0gyXVtDSDJdMg==

> <s_epik_cmdline>
J2VwaWtfcHl0aG9uJywgJy1waCcsICc3LjAnLCAnLXRuJywgJzgnLCAnLW1hJywgJzIwMCcsICctbWV0YWxfYmluZGluZycsICctaW1hZScsICc8aW5maWxlLm1hZT4nLCAnLW9tYWUnLCAnPG91dGZpbGUubWFlPic=

> <r_lp_tautomer_probability>
1

> <r_epik_Ionization_Penalty>
0.14175

> <r_epik_Ionization_Penalty_Charging>
0.141731

> <r_epik_Ionization_Penalty_Neutral>
1.91261e-05

> <r_epik_State_Penalty>
0.131043

> <r_epik_Charging_Adjusted_Penalty>
0.272773

> <i_epik_Tot_Q>
1

> <i_epik_Tot_abs_Q>
1

> <r_epik_Metal_State_Penalty>
0.131408

> <b_epik_Metal_Only>
0

> <s_lp_Force_Field>
OPLS_2005

> <r_lp_Energy>
39.0238

> <b_lp_Chiralities_Consistent>
1

> <s_lp_Variant>
AV-unprocessed.smi:3335-2

> <Gold.Version>
5.8.1

> <Gold.Id.Protein>
6NUR|6NUR_protein|mol2

> <Gold.PLP.Fitness>
40.3011

> <Gold.PLP.PLP>
-27.5867

> <Gold.PLP.part.hbond>
-2.0000

> <Gold.PLP.part.metal>
0.0000

> <Gold.PLP.part.buried>
0.9882

> <Gold.PLP.part.nonpolar>
-27.2139

> <Gold.PLP.part.repulsive>
0.2466

> <Gold.PLP.ligand.clash>
0.0000

> <Gold.PLP.ligand.torsion>
1.2586

> <Gold.PLP.Chemscore.Hbond>
3.0000

> <Gold.PLP.Chemscore.CHOScore>
1.9942

> <Gold.PLP.Chemscore.Metal>
0.0000

> <Gold.Chemscore.Hbonds>
donor molecule, donor type, donor heavy atom, donor atom, acceptor molecule, acceptor atom, score
      L1  H    10    33       P1  7948  2.00
      P1  H 10752 10764       L1    14  1.00
      L1  C     3    24       P1 10957  0.91
      L1  C    20    46       P1  7921  1.00

> <Gold.PLP.Chemscore.Internal.Correction>
0.2489

> <Gold.Rescore>
     Score         DG    S(hbond)    S(metal)    S(lipo)     H(rot)  DE(clash)    DE(int)     intcor
     12.81     -15.88       1.99        0.00      68.83       1.68       1.28       1.79       ----

> <Gold.Chemscore.Fitness>
12.8066

> <Gold.Chemscore.DG>
-15.8778

> <Gold.Chemscore.ZeroCoef>
-5.4800

> <Gold.Chemscore.Hbond>
1.9881

> <Gold.Chemscore.Metal>
0.0000

> <Gold.Chemscore.Lipo>
68.8252

> <Gold.Chemscore.Internal_Hbond>
0.0000

> <Gold.Chemscore.DEClash>
1.2822

> <Gold.Chemscore.DEInternal>
1.7889

> <Gold.Chemscore.Rot>
1.6778

> <Gold.Chemscore.Internal.Correction>
   9.000000E+99

> <Gold.Chemscore.Hbonds>
donor molecule, donor type, donor heavy atom, donor atom, acceptor molecule, acceptor atom, score
      L1  H    10    33       P1  7948  0.97
      P1  H 10752 10764       L1    14  0.99

> <Gold.Chemscore.Hbond.Weighted>
-6.6404

> <Gold.Chemscore.Metal.Weighted>
-0.0000

> <Gold.Chemscore.Lipo.Weighted>
-8.0525

> <Gold.Chemscore.Internal_Hbond.Weighted>
0.0000

> <Gold.Chemscore.DEClash.Weighted>
1.2822

> <Gold.Chemscore.DEInternal.Weighted>
1.7889

> <Gold.Chemscore.Rot.Weighted>
4.2952

> <Gold.Chemscore.Internal.Correction.Weighted>
   9.000000E+99

> <Gold.Protein.RotatedTorsions>
[ 6907 6896 6895 6894 ] final   90.12 input  -60.11 | X-H torsion
[ 7974 7965 7964 7962 ] final  -15.58 input  175.53 | X-H torsion
[ 8008 7997 7996 7995 ] final  159.83 input   59.86 | X-H torsion
[ 10167 10162 10161 10158 ] final -143.81 input  -65.29 | X-H torsion
[ 10718 10713 10712 10709 ] final  115.20 input   66.30 | X-H torsion
[ 10763 10752 10751 10750 ] final  -57.71 input  -60.55 | X-H torsion
[ 11005 11000 10999 10996 ] final -166.26 input  -57.11 | X-H torsion

> <Gold.Protein.ActiveResidues>
 VAL166  LYS551  ARG553  GLY616  TRP617  ASP618  TYR619  PRO620  LYS621  CYS622 
 ASP623  PHE694  ASN695  SER759  ASP760  ASP761  ALA762  ILE779  LEU786  VAL792 
 PHE793  MET794  SER795  GLU796  ALA797  LYS798  CYS799  TRP800  GLU811  SER814 

> <Gold.Protein.RotatedAtoms>
  152.5442  134.1860  159.8654 H   0  0  0  0  0  0  0  0  0  0  0  0  # atno 6907 bound_to 6896
  151.1859  133.4689  159.2602 H   0  0  0  0  0  0  0  0  0  0  0  0  # atno 6908 bound_to 6896
  151.1132  135.0050  159.8559 H   0  0  0  0  0  0  0  0  0  0  0  0  # atno 6909 bound_to 6896
  146.2026  140.3513  142.8418 H   0  0  0  0  0  0  0  0  0  0  0  0  # atno 7974 bound_to 7965
  156.2213  140.1820  156.7470 H   0  0  0  0  0  0  0  0  0  0  0  0  # atno 8008 bound_to 7997
  154.5870  140.0657  156.9213 H   0  0  0  0  0  0  0  0  0  0  0  0  # atno 8009 bound_to 7997
  155.2403  140.3321  155.4295 H   0  0  0  0  0  0  0  0  0  0  0  0  # atno 8010 bound_to 7997
  139.7958  143.7902  152.2654 H   0  0  0  0  0  0  0  0  0  0  0  0  # atno 10167 bound_to 10162
  157.6236  131.1009  150.7296 H   0  0  0  0  0  0  0  0  0  0  0  0  # atno 10718 bound_to 10713
  154.2267  135.6368  153.5162 H   0  0  0  0  0  0  0  0  0  0  0  0  # atno 10763 bound_to 10752
  152.9957  135.5509  154.6056 H   0  0  0  0  0  0  0  0  0  0  0  0  # atno 10764 bound_to 10752
  154.5529  135.2903  155.0965 H   0  0  0  0  0  0  0  0  0  0  0  0  # atno 10765 bound_to 10752
  140.5664  134.5281  157.5153 H   0  0  0  0  0  0  0  0  0  0  0  0  # atno 11005 bound_to 11000
  144.8717  140.7282  143.6042 LP  0  0  0  0  0  0  0  0  0  0  0  0  # atno 17320 bound_to 7965
  145.3432  139.1726  143.4474 LP  0  0  0  0  0  0  0  0  0  0  0  0  # atno 17321 bound_to 7965
  139.8007  144.7375  150.9829 LP  0  0  0  0  0  0  0  0  0  0  0  0  # atno 17342 bound_to 10162
  140.7820  143.4348  151.0640 LP  0  0  0  0  0  0  0  0  0  0  0  0  # atno 17343 bound_to 10162
  156.7648  130.4810  149.5429 LP  0  0  0  0  0  0  0  0  0  0  0  0  # atno 17370 bound_to 10713
  156.1395  130.6234  151.0447 LP  0  0  0  0  0  0  0  0  0  0  0  0  # atno 17371 bound_to 10713
  139.9383  134.7835  156.0746 LP  0  0  0  0  0  0  0  0  0  0  0  0  # atno 17394 bound_to 11000
  141.1083  133.6652  156.2917 LP  0  0  0  0  0  0  0  0  0  0  0  0  # atno 17395 bound_to 11000

$$$$
