AV-unprocessed.smi:869|AV-procd|sdf|4005|dock8
  -GOLD-   22720 1493D 1   1.00000     0.00000
 Structure written by MMmdl.
 47 49  0  0  0  0  0  0  0  0  2 V2000
  147.4961  141.3306  153.6256 C   0  0  0  0  0  0  0  0  0  0  0  0
  148.3601  141.7581  154.6640 O   0  0  0  0  0  0  0  0  0  0  0  0
  148.9644  140.6728  155.3485 C   0  0  0  0  0  0  0  0  0  0  0  0
  149.9545  141.1369  156.3657 C   0  0  0  0  0  0  0  0  0  0  0  0
  150.3200  142.4287  156.6016 N   0  3  0  0  0  0  0  0  0  0  0  0
  151.2673  142.4731  157.6246 C   0  0  0  0  0  0  0  0  0  0  0  0
  151.9269  143.5502  158.2085 C   0  0  0  0  0  0  0  0  0  0  0  0
  152.8389  143.2492  159.2413 C   0  0  0  0  0  0  0  0  0  0  0  0
  153.0650  141.9210  159.6568 C   0  0  0  0  0  0  0  0  0  0  0  0
  152.3910  140.8372  159.0562 C   0  0  0  0  0  0  0  0  0  0  0  0
  151.4919  141.1426  158.0343 C   0  0  0  0  0  0  0  0  0  0  0  0
  150.6613  140.3533  157.2292 N   0  0  0  0  0  0  0  0  0  0  0  0
  150.6515  138.8915  157.4006 C   0  0  0  0  0  0  0  0  0  0  0  0
  150.4926  138.4614  158.8731 C   0  0  2  0  0  0  0  0  0  0  0  0
  151.6461  137.7679  159.3059 O   0  0  0  0  0  0  0  0  0  0  0  0
  149.2729  137.5543  159.0895 C   0  0  0  0  0  0  0  0  0  0  0  0
  149.1376  137.2848  160.4785 O   0  0  0  0  0  0  0  0  0  0  0  0
  148.2849  136.2737  160.8669 C   0  0  0  0  0  0  0  0  0  0  0  0
  148.0556  135.2378  159.9381 C   0  0  0  0  0  0  0  0  0  0  0  0
  147.1971  134.1660  160.2494 C   0  0  0  0  0  0  0  0  0  0  0  0
  146.5522  134.1177  161.5007 C   0  0  0  0  0  0  0  0  0  0  0  0
  145.6296  132.9648  161.8380 C   0  0  0  0  0  0  0  0  0  0  0  0
  146.7753  135.1459  162.4376 C   0  0  0  0  0  0  0  0  0  0  0  0
  147.6347  136.2175  162.1256 C   0  0  0  0  0  0  0  0  0  0  0  0
  147.0665  142.1987  153.1256 H   0  0  0  0  0  0  0  0  0  0  0  0
  146.6758  140.7285  154.0187 H   0  0  0  0  0  0  0  0  0  0  0  0
  148.0346  140.7448  152.8794 H   0  0  0  0  0  0  0  0  0  0  0  0
  148.2000  140.0768  155.8494 H   0  0  0  0  0  0  0  0  0  0  0  0
  149.4750  140.0225  154.6369 H   0  0  0  0  0  0  0  0  0  0  0  0
  151.7534  144.5685  157.8931 H   0  0  0  0  0  0  0  0  0  0  0  0
  153.3740  144.0530  159.7260 H   0  0  0  0  0  0  0  0  0  0  0  0
  153.7683  141.7289  160.4540 H   0  0  0  0  0  0  0  0  0  0  0  0
  152.5674  139.8248  159.3880 H   0  0  0  0  0  0  0  0  0  0  0  0
  149.8211  138.5047  156.8089 H   0  0  0  0  0  0  0  0  0  0  0  0
  151.5548  138.4700  156.9598 H   0  0  0  0  0  0  0  0  0  0  0  0
  150.3918  139.3467  159.5018 H   0  0  0  0  0  0  0  0  0  0  0  0
  151.5751  136.8670  159.0285 H   0  0  0  0  0  0  0  0  0  0  0  0
  148.3742  138.0356  158.6996 H   0  0  0  0  0  0  0  0  0  0  0  0
  149.4150  136.6151  158.5517 H   0  0  0  0  0  0  0  0  0  0  0  0
  148.5438  135.2646  158.9751 H   0  0  0  0  0  0  0  0  0  0  0  0
  147.0352  133.3821  159.5240 H   0  0  0  0  0  0  0  0  0  0  0  0
  144.8686  133.2716  162.5563 H   0  0  0  0  0  0  0  0  0  0  0  0
  146.1992  132.1419  162.2703 H   0  0  0  0  0  0  0  0  0  0  0  0
  145.1220  132.6005  160.9443 H   0  0  0  0  0  0  0  0  0  0  0  0
  146.2872  135.1169  163.4008 H   0  0  0  0  0  0  0  0  0  0  0  0
  147.7764  136.9852  162.8706 H   0  0  0  0  0  0  0  0  0  0  0  0
  149.9425  143.2197  156.0958 H   0  0  0  0  0  0  0  0  0  0  0  0
  1  2  1  0  0  0  0
  1 25  1  0  0  0  0
  1 26  1  0  0  0  0
  1 27  1  0  0  0  0
  2  3  1  0  0  0  0
  3  4  1  0  0  0  0
  3 28  1  0  0  0  0
  3 29  1  0  0  0  0
  4 12  1  0  0  0  0
  4  5  2  0  0  0  0
  5  6  1  0  0  0  0
  5 47  1  0  0  0  0
  6 11  2  0  0  0  0
  6  7  1  0  0  0  0
  7  8  2  0  0  0  0
  7 30  1  0  0  0  0
  8  9  1  0  0  0  0
  8 31  1  0  0  0  0
  9 10  2  0  0  0  0
  9 32  1  0  0  0  0
 10 11  1  0  0  0  0
 10 33  1  0  0  0  0
 11 12  1  0  0  0  0
 12 13  1  0  0  0  0
 13 14  1  0  0  0  0
 13 34  1  0  0  0  0
 13 35  1  0  0  0  0
 14 15  1  0  0  0  0
 14 16  1  0  0  0  0
 14 36  1  0  0  0  0
 15 37  1  0  0  0  0
 16 17  1  0  0  0  0
 16 38  1  0  0  0  0
 16 39  1  0  0  0  0
 17 18  1  0  0  0  0
 18 24  1  0  0  0  0
 18 19  2  0  0  0  0
 19 20  1  0  0  0  0
 19 40  1  0  0  0  0
 20 21  2  0  0  0  0
 20 41  1  0  0  0  0
 21 22  1  0  0  0  0
 21 23  1  0  0  0  0
 22 42  1  0  0  0  0
 22 43  1  0  0  0  0
 22 44  1  0  0  0  0
 23 24  2  0  0  0  0
 23 45  1  0  0  0  0
 24 46  1  0  0  0  0
M  CHG  1   5   1
M  END
> <s_m_source_file>
AV-unprocessed.smi

> <i_m_source_file_index>
869

> <i_lp_mmshare_version>
43012

> <i_f3d_flags>
0

> <s_epik_input>
W2NIXTFbY0hdW2NIXVtjSF1jKGMxMiluKGMobjIpW0NIMl1PW0NIM10pW0NIMl1bQ0BIXShbT0hdKVtDSDJdT2MzW2NIXVtjSF1jKFtDSDNdKVtjSF1bY0hdMw==

> <s_epik_cmdline>
J2VwaWtfcHl0aG9uJywgJy1waCcsICc3LjAnLCAnLXRuJywgJzgnLCAnLW1hJywgJzIwMCcsICctbWV0YWxfYmluZGluZycsICctaW1hZScsICc8aW5maWxlLm1hZT4nLCAnLW9tYWUnLCAnPG91dGZpbGUubWFlPic=

> <r_lp_tautomer_probability>
1

> <r_epik_Ionization_Penalty>
1.5538

> <r_epik_Ionization_Penalty_Charging>
1.5538

> <r_epik_Ionization_Penalty_Neutral>
2.3993e-06

> <r_epik_State_Penalty>
1.64824

> <r_epik_Charging_Adjusted_Penalty>
3.20204

> <i_epik_Tot_Q>
1

> <i_epik_Tot_abs_Q>
1

> <r_epik_Metal_State_Penalty>
5.70315

> <b_epik_Metal_Only>
0

> <s_lp_Force_Field>
OPLS_2005

> <r_lp_Energy>
18.5065

> <b_lp_Chiralities_Consistent>
1

> <s_lp_Variant>
AV-unprocessed.smi:869-3

> <Gold.Version>
5.8.1

> <Gold.Id.Protein>
6NUR|6NUR_protein|mol2

> <Gold.PLP.Fitness>
52.5892

> <Gold.PLP.PLP>
-47.5566

> <Gold.PLP.part.hbond>
-2.0160

> <Gold.PLP.part.metal>
0.0000

> <Gold.PLP.part.buried>
-7.2812

> <Gold.PLP.part.nonpolar>
-39.1734

> <Gold.PLP.part.repulsive>
0.2095

> <Gold.PLP.ligand.clash>
0.0000

> <Gold.PLP.ligand.torsion>
1.2790

> <Gold.PLP.Chemscore.Hbond>
2.5120

> <Gold.PLP.Chemscore.CHOScore>
0.0000

> <Gold.PLP.Chemscore.Metal>
0.0000

> <Gold.Chemscore.Hbonds>
donor molecule, donor type, donor heavy atom, donor atom, acceptor molecule, acceptor atom, score
      L1  H     5    47       P1  8028  2.00
      P1  H  6931  6943       L1    17  0.53

> <Gold.PLP.Chemscore.Internal.Correction>
0.0546

> <Gold.Rescore>
     Score         DG    S(hbond)    S(metal)    S(lipo)     H(rot)  DE(clash)    DE(int)     intcor
     17.87     -19.09       1.41        0.00     129.71       2.45       0.04       1.18       ----

> <Gold.Chemscore.Fitness>
17.8720

> <Gold.Chemscore.DG>
-19.0912

> <Gold.Chemscore.ZeroCoef>
-5.4800

> <Gold.Chemscore.Hbond>
1.4088

> <Gold.Chemscore.Metal>
0.0000

> <Gold.Chemscore.Lipo>
129.7124

> <Gold.Chemscore.Internal_Hbond>
0.0000

> <Gold.Chemscore.DEClash>
0.0402

> <Gold.Chemscore.DEInternal>
1.1790

> <Gold.Chemscore.Rot>
2.4494

> <Gold.Chemscore.Internal.Correction>
   9.000000E+99

> <Gold.Chemscore.Hbonds>
donor molecule, donor type, donor heavy atom, donor atom, acceptor molecule, acceptor atom, score
      L1  H     5    47       P1  8028  1.00
      P1  H  6931  6943       L1    17  0.13

> <Gold.Chemscore.Hbond.Weighted>
-4.7053

> <Gold.Chemscore.Metal.Weighted>
-0.0000

> <Gold.Chemscore.Lipo.Weighted>
-15.1764

> <Gold.Chemscore.Internal_Hbond.Weighted>
0.0000

> <Gold.Chemscore.DEClash.Weighted>
0.0402

> <Gold.Chemscore.DEInternal.Weighted>
1.1790

> <Gold.Chemscore.Rot.Weighted>
6.2704

> <Gold.Chemscore.Internal.Correction.Weighted>
   9.000000E+99

> <Gold.Protein.RotatedTorsions>
[ 6907 6896 6895 6894 ] final  114.22 input  -60.11 | X-H torsion
[ 7974 7965 7964 7962 ] final   11.54 input  175.53 | X-H torsion
[ 8008 7997 7996 7995 ] final   11.67 input   59.86 | X-H torsion
[ 10167 10162 10161 10158 ] final -127.58 input  -65.29 | X-H torsion
[ 10718 10713 10712 10709 ] final -151.32 input   66.30 | X-H torsion
[ 10763 10752 10751 10750 ] final -129.26 input  -60.55 | X-H torsion
[ 11005 11000 10999 10996 ] final  -70.03 input  -57.11 | X-H torsion

> <Gold.Protein.ActiveResidues>
 VAL166  LYS551  ARG553  GLY616  TRP617  ASP618  TYR619  PRO620  LYS621  CYS622 
 ASP623  PHE694  ASN695  SER759  ASP760  ASP761  ALA762  ILE779  LEU786  VAL792 
 PHE793  MET794  SER795  GLU796  ALA797  LYS798  CYS799  TRP800  GLU811  SER814 

> <Gold.Protein.RotatedAtoms>
  152.4815  133.8267  159.7081 H   0  0  0  0  0  0  0  0  0  0  0  0  # atno 6907 bound_to 6896
  150.8869  133.7286  159.2922 H   0  0  0  0  0  0  0  0  0  0  0  0  # atno 6908 bound_to 6896
  151.4772  135.1053  159.9820 H   0  0  0  0  0  0  0  0  0  0  0  0  # atno 6909 bound_to 6896
  146.2369  139.9470  142.8475 H   0  0  0  0  0  0  0  0  0  0  0  0  # atno 7974 bound_to 7965
  154.8101  140.2866  155.5859 H   0  0  0  0  0  0  0  0  0  0  0  0  # atno 8008 bound_to 7997
  156.2987  140.2570  156.2918 H   0  0  0  0  0  0  0  0  0  0  0  0  # atno 8009 bound_to 7997
  154.9457  140.0380  157.2108 H   0  0  0  0  0  0  0  0  0  0  0  0  # atno 8010 bound_to 7997
  139.9594  143.5967  152.2450 H   0  0  0  0  0  0  0  0  0  0  0  0  # atno 10167 bound_to 10162
  156.4577  130.8198  151.2429 H   0  0  0  0  0  0  0  0  0  0  0  0  # atno 10718 bound_to 10713
  154.8757  135.3901  154.3891 H   0  0  0  0  0  0  0  0  0  0  0  0  # atno 10763 bound_to 10752
  153.4629  135.7029  153.6044 H   0  0  0  0  0  0  0  0  0  0  0  0  # atno 10764 bound_to 10752
  153.4535  135.3828  155.2266 H   0  0  0  0  0  0  0  0  0  0  0  0  # atno 10765 bound_to 10752
  141.1566  133.6779  156.6691 H   0  0  0  0  0  0  0  0  0  0  0  0  # atno 11005 bound_to 11000
  145.1898  140.9806  143.4218 LP  0  0  0  0  0  0  0  0  0  0  0  0  # atno 17320 bound_to 7965
  144.9868  139.3729  143.6235 LP  0  0  0  0  0  0  0  0  0  0  0  0  # atno 17321 bound_to 7965
  139.6566  144.7662  151.2044 LP  0  0  0  0  0  0  0  0  0  0  0  0  # atno 17342 bound_to 10162
  140.7558  143.6076  150.8637 LP  0  0  0  0  0  0  0  0  0  0  0  0  # atno 17343 bound_to 10162
  157.7499  131.0117  150.3356 LP  0  0  0  0  0  0  0  0  0  0  0  0  # atno 17370 bound_to 10713
  156.3749  130.3870  149.7146 LP  0  0  0  0  0  0  0  0  0  0  0  0  # atno 17371 bound_to 10713
  140.3189  134.8024  157.4236 LP  0  0  0  0  0  0  0  0  0  0  0  0  # atno 17394 bound_to 11000
  140.1114  134.5340  155.8263 LP  0  0  0  0  0  0  0  0  0  0  0  0  # atno 17395 bound_to 11000

$$$$
