AV-unprocessed.smi:2457|AV-procd|sdf|9707|dock1
  -GOLD-   2272013343D 1   1.00000     0.00000
 Structure written by MMmdl.
 40 41  0  0  0  0  0  0  0  0  1 V2000
  144.8918  143.1865  157.7195 C   0  0  0  0  0  0  0  0  0  0  0  0
  145.3097  143.1651  156.2833 C   0  0  0  0  0  0  0  0  0  0  0  0
  145.0155  144.1002  155.3229 C   0  0  0  0  0  0  0  0  0  0  0  0
  145.6895  143.6738  153.7746 S   0  0  0  0  0  0  0  0  0  0  0  0
  146.3560  142.2137  154.4992 C   0  0  0  0  0  0  0  0  0  0  0  0
  147.1053  141.1775  153.7160 C   0  0  1  0  0  0  0  0  0  0  0  0
  147.2056  141.5406  152.2275 C   0  0  0  0  0  0  0  0  0  0  0  0
  148.4708  140.8094  154.3387 C   0  0  0  0  0  0  0  0  0  0  0  0
  148.9766  141.8624  155.2181 N   0  0  0  0  0  0  0  0  0  0  0  0
  149.9369  141.7061  156.1409 C   0  0  0  0  0  0  0  0  0  0  0  0
  150.4466  140.6246  156.4344 O   0  0  0  0  0  0  0  0  0  0  0  0
  150.3090  142.8781  156.6732 N   0  0  0  0  0  0  0  0  0  0  0  0
  151.4128  143.0559  157.6118 C   0  0  1  0  0  0  0  0  0  0  0  0
  151.3703  144.4758  158.2163 C   0  0  0  0  0  0  0  0  0  0  0  0
  152.5459  144.7456  159.1688 C   0  0  0  0  0  0  0  0  0  0  0  0
  152.5614  143.7852  160.3666 C   0  0  0  0  0  0  0  0  0  0  0  0
  152.7548  142.0643  159.8282 S   0  0  0  0  0  0  0  0  0  0  0  0
  151.3373  141.9711  158.6998 C   0  0  0  0  0  0  0  0  0  0  0  0
  146.0785  142.1023  155.8019 N   0  0  0  0  0  0  0  0  0  0  0  0
  144.4487  144.1448  157.9914 H   0  0  0  0  0  0  0  0  0  0  0  0
  145.7419  143.0169  158.3807 H   0  0  0  0  0  0  0  0  0  0  0  0
  144.1529  142.4111  157.9236 H   0  0  0  0  0  0  0  0  0  0  0  0
  144.4416  145.0087  155.4304 H   0  0  0  0  0  0  0  0  0  0  0  0
  146.4972  140.2729  153.7620 H   0  0  0  0  0  0  0  0  0  0  0  0
  146.2172  141.6980  151.7946 H   0  0  0  0  0  0  0  0  0  0  0  0
  147.6923  140.7463  151.6615 H   0  0  0  0  0  0  0  0  0  0  0  0
  147.7832  142.4539  152.0808 H   0  0  0  0  0  0  0  0  0  0  0  0
  148.3761  139.8946  154.9243 H   0  0  0  0  0  0  0  0  0  0  0  0
  149.1930  140.5899  153.5504 H   0  0  0  0  0  0  0  0  0  0  0  0
  148.6229  142.7941  155.0577 H   0  0  0  0  0  0  0  0  0  0  0  0
  149.8318  143.7134  156.3677 H   0  0  0  0  0  0  0  0  0  0  0  0
  152.3535  142.9280  157.0725 H   0  0  0  0  0  0  0  0  0  0  0  0
  151.3908  145.2185  157.4175 H   0  0  0  0  0  0  0  0  0  0  0  0
  150.4284  144.6273  158.7454 H   0  0  0  0  0  0  0  0  0  0  0  0
  153.4875  144.6703  158.6232 H   0  0  0  0  0  0  0  0  0  0  0  0
  152.4845  145.7719  159.5325 H   0  0  0  0  0  0  0  0  0  0  0  0
  153.3820  144.0340  161.0398 H   0  0  0  0  0  0  0  0  0  0  0  0
  151.6384  143.8770  160.9400 H   0  0  0  0  0  0  0  0  0  0  0  0
  150.4184  142.0704  159.2787 H   0  0  0  0  0  0  0  0  0  0  0  0
  151.3261  140.9785  158.2484 H   0  0  0  0  0  0  0  0  0  0  0  0
  1  2  1  0  0  0  0
  1 20  1  0  0  0  0
  1 21  1  0  0  0  0
  1 22  1  0  0  0  0
  2 19  1  0  0  0  0
  2  3  2  0  0  0  0
  3  4  1  0  0  0  0
  3 23  1  0  0  0  0
  4  5  1  0  0  0  0
  5  6  1  0  0  0  0
  5 19  2  0  0  0  0
  6  7  1  0  0  0  0
  6  8  1  0  0  0  0
  6 24  1  0  0  0  0
  7 25  1  0  0  0  0
  7 26  1  0  0  0  0
  7 27  1  0  0  0  0
  8  9  1  0  0  0  0
  8 28  1  0  0  0  0
  8 29  1  0  0  0  0
  9 10  1  0  0  0  0
  9 30  1  0  0  0  0
 10 11  2  0  0  0  0
 10 12  1  0  0  0  0
 12 13  1  0  0  0  0
 12 31  1  0  0  0  0
 13 18  1  0  0  0  0
 13 14  1  0  0  0  0
 13 32  1  0  0  0  0
 14 15  1  0  0  0  0
 14 33  1  0  0  0  0
 14 34  1  0  0  0  0
 15 16  1  0  0  0  0
 15 35  1  0  0  0  0
 15 36  1  0  0  0  0
 16 17  1  0  0  0  0
 16 37  1  0  0  0  0
 16 38  1  0  0  0  0
 17 18  1  0  0  0  0
 18 39  1  0  0  0  0
 18 40  1  0  0  0  0
M  END
> <s_m_source_file>
AV-unprocessed.smi

> <i_m_source_file_index>
2457

> <i_lp_mmshare_version>
43012

> <i_f3d_flags>
0

> <s_epik_input>
W0NIM11jMVtjSF1zYyhuMSlbQ0BIXShbQ0gzXSlbQ0gyXVtOSF1DKD1PKVtOSF1bQ0BASF0yW0NIMl1bQ0gyXVtDSDJdU1tDSDJdMg==

> <s_epik_cmdline>
J2VwaWtfcHl0aG9uJywgJy1waCcsICc3LjAnLCAnLXRuJywgJzgnLCAnLW1hJywgJzIwMCcsICctbWV0YWxfYmluZGluZycsICctaW1hZScsICc8aW5maWxlLm1hZT4nLCAnLW9tYWUnLCAnPG91dGZpbGUubWFlPic=

> <r_epik_Ionization_Penalty>
0.00154805

> <r_epik_Ionization_Penalty_Charging>
0

> <r_epik_Ionization_Penalty_Neutral>
0.00154805

> <r_epik_State_Penalty>
0.00100357

> <r_epik_Charging_Adjusted_Penalty>
0.00100357

> <i_epik_Tot_Q>
0

> <i_epik_Tot_abs_Q>
0

> <r_epik_Metal_State_Penalty>
-0

> <b_epik_Metal_Only>
0

> <s_lp_Force_Field>
OPLS_2005

> <r_lp_Energy>
-7.34104

> <b_lp_Chiralities_Consistent>
1

> <s_lp_Variant>
AV-unprocessed.smi:2457-4

> <Gold.Version>
5.8.1

> <Gold.Id.Protein>
6NUR|6NUR_protein|mol2

> <Gold.PLP.Fitness>
40.7374

> <Gold.PLP.PLP>
-37.2578

> <Gold.PLP.part.hbond>
-2.0000

> <Gold.PLP.part.metal>
0.0000

> <Gold.PLP.part.buried>
-6.4637

> <Gold.PLP.part.nonpolar>
-29.0209

> <Gold.PLP.part.repulsive>
0.3372

> <Gold.PLP.ligand.clash>
0.3615

> <Gold.PLP.ligand.torsion>
0.9132

> <Gold.PLP.Chemscore.Hbond>
1.8480

> <Gold.PLP.Chemscore.CHOScore>
0.0000

> <Gold.PLP.Chemscore.Metal>
0.0000

> <Gold.Chemscore.Hbonds>
donor molecule, donor type, donor heavy atom, donor atom, acceptor molecule, acceptor atom, score
      L1  H     9    30       P1  8028  0.85
      L1  H    12    31       P1  8028  1.00

> <Gold.PLP.Chemscore.Internal.Correction>
0.1235

> <Gold.Rescore>
     Score         DG    S(hbond)    S(metal)    S(lipo)     H(rot)  DE(clash)    DE(int)     intcor
     15.83     -20.55       1.87        0.00     107.41       1.46       2.99       1.73       ----

> <Gold.Chemscore.Fitness>
15.8285

> <Gold.Chemscore.DG>
-20.5481

> <Gold.Chemscore.ZeroCoef>
-5.4800

> <Gold.Chemscore.Hbond>
1.8692

> <Gold.Chemscore.Metal>
0.0000

> <Gold.Chemscore.Lipo>
107.4078

> <Gold.Chemscore.Internal_Hbond>
0.0000

> <Gold.Chemscore.DEClash>
2.9880

> <Gold.Chemscore.DEInternal>
1.7316

> <Gold.Chemscore.Rot>
1.4616

> <Gold.Chemscore.Internal.Correction>
   9.000000E+99

> <Gold.Chemscore.Hbonds>
donor molecule, donor type, donor heavy atom, donor atom, acceptor molecule, acceptor atom, score
      L1  H     9    30       P1  8028  0.80
      L1  H    12    31       P1  8028  0.94

> <Gold.Chemscore.Hbond.Weighted>
-6.2431

> <Gold.Chemscore.Metal.Weighted>
-0.0000

> <Gold.Chemscore.Lipo.Weighted>
-12.5667

> <Gold.Chemscore.Internal_Hbond.Weighted>
0.0000

> <Gold.Chemscore.DEClash.Weighted>
2.9880

> <Gold.Chemscore.DEInternal.Weighted>
1.7316

> <Gold.Chemscore.Rot.Weighted>
3.7416

> <Gold.Chemscore.Internal.Correction.Weighted>
   9.000000E+99

> <Gold.Protein.RotatedTorsions>
[ 6907 6896 6895 6894 ] final    4.18 input  -60.11 | X-H torsion
[ 7974 7965 7964 7962 ] final -164.22 input  175.53 | X-H torsion
[ 8008 7997 7996 7995 ] final -132.54 input   59.86 | X-H torsion
[ 10167 10162 10161 10158 ] final   18.25 input  -65.29 | X-H torsion
[ 10718 10713 10712 10709 ] final  116.13 input   66.30 | X-H torsion
[ 10763 10752 10751 10750 ] final   15.41 input  -60.55 | X-H torsion
[ 11005 11000 10999 10996 ] final   38.88 input  -57.11 | X-H torsion

> <Gold.Protein.ActiveResidues>
 VAL166  LYS551  ARG553  GLY616  TRP617  ASP618  TYR619  PRO620  LYS621  CYS622 
 ASP623  PHE694  ASN695  SER759  ASP760  ASP761  ALA762  ILE779  LEU786  VAL792 
 PHE793  MET794  SER795  GLU796  ALA797  LYS798  CYS799  TRP800  GLU811  SER814 

> <Gold.Protein.RotatedAtoms>
  151.6371  135.1017  160.0133 H   0  0  0  0  0  0  0  0  0  0  0  0  # atno 6907 bound_to 6896
  152.4075  133.6907  159.6377 H   0  0  0  0  0  0  0  0  0  0  0  0  # atno 6908 bound_to 6896
  150.7968  133.8601  159.3270 H   0  0  0  0  0  0  0  0  0  0  0  0  # atno 6909 bound_to 6896
  144.7303  140.2992  143.6207 H   0  0  0  0  0  0  0  0  0  0  0  0  # atno 7974 bound_to 7965
  155.3305  140.0467  157.3042 H   0  0  0  0  0  0  0  0  0  0  0  0  # atno 8008 bound_to 7997
  154.5331  140.2263  155.8736 H   0  0  0  0  0  0  0  0  0  0  0  0  # atno 8009 bound_to 7997
  156.1808  140.3074  155.9151 H   0  0  0  0  0  0  0  0  0  0  0  0  # atno 8010 bound_to 7997
  140.5667  143.9238  150.6682 H   0  0  0  0  0  0  0  0  0  0  0  0  # atno 10167 bound_to 10162
  157.6179  131.1021  150.7429 H   0  0  0  0  0  0  0  0  0  0  0  0  # atno 10718 bound_to 10713
  153.1528  135.6781  153.8857 H   0  0  0  0  0  0  0  0  0  0  0  0  # atno 10763 bound_to 10752
  153.8278  135.3121  155.3417 H   0  0  0  0  0  0  0  0  0  0  0  0  # atno 10764 bound_to 10752
  154.7875  135.4854  154.0065 H   0  0  0  0  0  0  0  0  0  0  0  0  # atno 10765 bound_to 10752
  140.2083  134.3787  155.8062 H   0  0  0  0  0  0  0  0  0  0  0  0  # atno 11005 bound_to 11000
  145.7777  139.1880  143.2176 LP  0  0  0  0  0  0  0  0  0  0  0  0  # atno 17320 bound_to 7965
  146.0859  140.7711  142.9619 LP  0  0  0  0  0  0  0  0  0  0  0  0  # atno 17321 bound_to 7965
  140.2703  143.3461  152.1244 LP  0  0  0  0  0  0  0  0  0  0  0  0  # atno 17342 bound_to 10162
  139.5096  144.6870  151.5860 LP  0  0  0  0  0  0  0  0  0  0  0  0  # atno 17343 bound_to 10162
  156.7792  130.4854  149.5404 LP  0  0  0  0  0  0  0  0  0  0  0  0  # atno 17370 bound_to 10713
  156.1310  130.6178  151.0334 LP  0  0  0  0  0  0  0  0  0  0  0  0  # atno 17371 bound_to 10713
  141.2226  133.7129  156.8374 LP  0  0  0  0  0  0  0  0  0  0  0  0  # atno 17394 bound_to 11000
  140.1979  134.8918  157.3135 LP  0  0  0  0  0  0  0  0  0  0  0  0  # atno 17395 bound_to 11000

$$$$
