AV-unprocessed.smi:182|AV-procd|sdf|1456|dock8
  -GOLD-   2262019263D 1   1.00000     0.00000
 Structure written by MMmdl.
 56 59  0  0  0  0  0  0  0  0  1 V2000
  153.8428  133.7658  165.5278 N   0  0  0  0  0  0  0  0  0  0  0  0
  154.5193  132.7547  164.9778 C   0  0  0  0  0  0  0  0  0  0  0  0
  154.8029  131.7392  165.6104 O   0  0  0  0  0  0  0  0  0  0  0  0
  154.9328  132.9233  163.5119 C   0  0  0  0  0  0  0  0  0  0  0  0
  154.5125  134.2782  162.9053 C   0  0  0  0  0  0  0  0  0  0  0  0
  155.5406  135.4043  163.1326 C   0  0  1  0  0  0  0  0  0  0  0  0
  156.8652  135.1053  162.4029 C   0  0  0  0  0  0  0  0  0  0  0  0
  157.8798  136.2362  162.6324 C   0  0  0  0  0  0  0  0  0  0  0  0
  157.2920  137.5970  162.2275 C   0  0  0  0  0  0  0  0  0  0  0  0
  156.0126  137.8289  162.8990 N   0  0  0  0  0  0  0  0  0  0  0  0
  155.5244  139.0959  162.9221 C   0  0  0  0  0  0  0  0  0  0  0  0
  155.5660  139.8181  164.0741 N   0  0  0  0  0  0  0  0  0  0  0  0
  155.0979  141.0691  164.1053 C   0  0  0  0  0  0  0  0  0  0  0  0
  154.5571  141.7821  163.1161 N   0  0  0  0  0  0  0  0  0  0  0  0
  154.5071  141.0639  161.9581 C   0  0  0  0  0  0  0  0  0  0  0  0
  154.9568  139.7251  161.7773 C   0  0  0  0  0  0  0  0  0  0  0  0
  154.7118  139.3187  160.4704 N   0  0  0  0  0  0  0  0  0  0  0  0
  154.1578  140.3590  159.9105 C   0  0  0  0  0  0  0  0  0  0  0  0
  154.0259  141.4623  160.7229 N   0  0  0  0  0  0  0  0  0  0  0  0
  153.4212  142.7152  160.3759 C   0  0  0  0  0  0  0  0  0  0  0  0
  152.1444  143.1981  161.0689 C   0  0  0  0  0  0  0  0  0  0  0  0
  151.7074  143.8964  159.7608 C   0  0  0  0  0  0  0  0  0  0  0  0
  150.2188  143.7599  159.3992 C   0  0  0  0  0  0  0  0  0  0  0  0
  149.9875  144.1002  158.0474 O   0  0  0  0  0  0  0  0  0  0  0  0
  152.1256  145.3750  159.6317 C   0  0  0  0  0  0  0  0  0  0  0  0
  151.2802  146.2182  160.3875 O   0  0  0  0  0  0  0  0  0  0  0  0
  152.6467  142.8855  159.0672 C   0  0  0  0  0  0  0  0  0  0  0  0
  155.0088  136.7850  162.6931 C   0  0  0  0  0  0  0  0  0  0  0  0
  153.5476  133.7051  166.4917 H   0  0  0  0  0  0  0  0  0  0  0  0
  153.6290  134.5871  164.9809 H   0  0  0  0  0  0  0  0  0  0  0  0
  156.0140  132.8020  163.4467 H   0  0  0  0  0  0  0  0  0  0  0  0
  154.4904  132.1083  162.9381 H   0  0  0  0  0  0  0  0  0  0  0  0
  154.3707  134.1523  161.8307 H   0  0  0  0  0  0  0  0  0  0  0  0
  153.5436  134.5813  163.3050 H   0  0  0  0  0  0  0  0  0  0  0  0
  155.7561  135.4481  164.2015 H   0  0  0  0  0  0  0  0  0  0  0  0
  157.2846  134.1606  162.7509 H   0  0  0  0  0  0  0  0  0  0  0  0
  156.6823  134.9896  161.3337 H   0  0  0  0  0  0  0  0  0  0  0  0
  158.1641  136.2616  163.6850 H   0  0  0  0  0  0  0  0  0  0  0  0
  158.7927  136.0415  162.0691 H   0  0  0  0  0  0  0  0  0  0  0  0
  158.0006  138.3866  162.4823 H   0  0  0  0  0  0  0  0  0  0  0  0
  157.1427  137.6322  161.1473 H   0  0  0  0  0  0  0  0  0  0  0  0
  155.1701  141.5716  165.0586 H   0  0  0  0  0  0  0  0  0  0  0  0
  153.8329  140.3499  158.8802 H   0  0  0  0  0  0  0  0  0  0  0  0
  154.2114  143.4634  160.4573 H   0  0  0  0  0  0  0  0  0  0  0  0
  151.4869  142.3735  161.3510 H   0  0  0  0  0  0  0  0  0  0  0  0
  152.3179  143.8632  161.9152 H   0  0  0  0  0  0  0  0  0  0  0  0
  149.8776  142.7347  159.5455 H   0  0  0  0  0  0  0  0  0  0  0  0
  149.5905  144.3838  160.0352 H   0  0  0  0  0  0  0  0  0  0  0  0
  149.1983  144.6177  157.9986 H   0  0  0  0  0  0  0  0  0  0  0  0
  153.1465  145.5289  159.9813 H   0  0  0  0  0  0  0  0  0  0  0  0
  152.1110  145.7050  158.5927 H   0  0  0  0  0  0  0  0  0  0  0  0
  151.6564  146.3274  161.2475 H   0  0  0  0  0  0  0  0  0  0  0  0
  153.2337  143.2951  158.2446 H   0  0  0  0  0  0  0  0  0  0  0  0
  152.1370  141.9691  158.7632 H   0  0  0  0  0  0  0  0  0  0  0  0
  154.7439  136.7627  161.6351 H   0  0  0  0  0  0  0  0  0  0  0  0
  154.0936  137.0176  163.2330 H   0  0  0  0  0  0  0  0  0  0  0  0
  1  2  1  0  0  0  0
  1 29  1  0  0  0  0
  1 30  1  0  0  0  0
  2  3  2  0  0  0  0
  2  4  1  0  0  0  0
  4  5  1  0  0  0  0
  4 31  1  0  0  0  0
  4 32  1  0  0  0  0
  5  6  1  0  0  0  0
  5 33  1  0  0  0  0
  5 34  1  0  0  0  0
  6 28  1  0  0  0  0
  6  7  1  0  0  0  0
  6 35  1  0  0  0  0
  7  8  1  0  0  0  0
  7 36  1  0  0  0  0
  7 37  1  0  0  0  0
  8  9  1  0  0  0  0
  8 38  1  0  0  0  0
  8 39  1  0  0  0  0
  9 10  1  0  0  0  0
  9 40  1  0  0  0  0
  9 41  1  0  0  0  0
 10 11  1  0  0  0  0
 10 28  1  0  0  0  0
 11 16  1  0  0  0  0
 11 12  2  0  0  0  0
 12 13  1  0  0  0  0
 13 14  2  0  0  0  0
 13 42  1  0  0  0  0
 14 15  1  0  0  0  0
 15 19  1  0  0  0  0
 15 16  2  0  0  0  0
 16 17  1  0  0  0  0
 17 18  2  0  0  0  0
 18 19  1  0  0  0  0
 18 43  1  0  0  0  0
 19 20  1  0  0  0  0
 20 27  1  0  0  0  0
 20 21  1  0  0  0  0
 20 44  1  0  0  0  0
 21 22  1  0  0  0  0
 21 45  1  0  0  0  0
 21 46  1  0  0  0  0
 22 23  1  0  0  0  0
 22 25  1  0  0  0  0
 22 27  1  0  0  0  0
 23 24  1  0  0  0  0
 23 47  1  0  0  0  0
 23 48  1  0  0  0  0
 24 49  1  0  0  0  0
 25 26  1  0  0  0  0
 25 50  1  0  0  0  0
 25 51  1  0  0  0  0
 26 52  1  0  0  0  0
 27 53  1  0  0  0  0
 27 54  1  0  0  0  0
 28 55  1  0  0  0  0
 28 56  1  0  0  0  0
M  END
> <s_m_source_file>
AV-unprocessed.smi

> <i_m_source_file_index>
182

> <i_lp_mmshare_version>
43012

> <i_f3d_flags>
0

> <s_epik_input>
W05IMl1DKD1PKVtDSDJdW0NIMl1bQ0BASF0xW0NIMl1bQ0gyXVtDSDJdTihbQ0gyXTEpYyhuW2NIXW4yKWMoYzIzKW5bY0hdbjNbQ0hdKFtDSDJdNClbQ0gyXUM0KFtDSDJdW09IXSlbQ0gyXVtPSF0=

> <s_epik_cmdline>
J2VwaWtfcHl0aG9uJywgJy1waCcsICc3LjAnLCAnLXRuJywgJzgnLCAnLW1hJywgJzIwMCcsICctbWV0YWxfYmluZGluZycsICctaW1hZScsICc8aW5maWxlLm1hZT4nLCAnLW9tYWUnLCAnPG91dGZpbGUubWFlPic=

> <r_lp_tautomer_probability>
1

> <r_epik_Ionization_Penalty>
0.00186057

> <r_epik_Ionization_Penalty_Charging>
0

> <r_epik_Ionization_Penalty_Neutral>
0.00186057

> <r_epik_State_Penalty>
0.00110736

> <r_epik_Charging_Adjusted_Penalty>
0.00110736

> <i_epik_Tot_Q>
0

> <i_epik_Tot_abs_Q>
0

> <r_epik_Metal_State_Penalty>
-0

> <b_epik_Metal_Only>
0

> <s_lp_Force_Field>
OPLS_2005

> <r_lp_Energy>
37.6951

> <b_lp_Chiralities_Consistent>
1

> <s_lp_Variant>
AV-unprocessed.smi:182-2

> <Gold.Version>
5.8.1

> <Gold.Id.Protein>
6NUR|6NUR_protein|mol2

> <Gold.PLP.Fitness>
50.2490

> <Gold.PLP.PLP>
-47.7205

> <Gold.PLP.part.hbond>
-7.0000

> <Gold.PLP.part.metal>
0.0000

> <Gold.PLP.part.buried>
-2.3005

> <Gold.PLP.part.nonpolar>
-38.2773

> <Gold.PLP.part.repulsive>
0.0942

> <Gold.PLP.ligand.clash>
0.0000

> <Gold.PLP.ligand.torsion>
0.7172

> <Gold.PLP.Chemscore.Hbond>
1.0000

> <Gold.PLP.Chemscore.CHOScore>
0.0000

> <Gold.PLP.Chemscore.Metal>
0.0000

> <Gold.Chemscore.Hbonds>
donor molecule, donor type, donor heavy atom, donor atom, acceptor molecule, acceptor atom, score
      L1  H    24    49       P1  8029  0.75

> <Gold.PLP.Chemscore.Internal.Correction>
0.9629

> <Gold.Rescore>
     Score         DG    S(hbond)    S(metal)    S(lipo)     H(rot)  DE(clash)    DE(int)     intcor
      1.88      -5.11       0.25        0.00      94.50       4.79       2.49       0.74       ----

> <Gold.Chemscore.Fitness>
1.8835

> <Gold.Chemscore.DG>
-5.1127

> <Gold.Chemscore.ZeroCoef>
-5.4800

> <Gold.Chemscore.Hbond>
0.2528

> <Gold.Chemscore.Metal>
0.0000

> <Gold.Chemscore.Lipo>
94.4985

> <Gold.Chemscore.Internal_Hbond>
0.0000

> <Gold.Chemscore.DEClash>
2.4934

> <Gold.Chemscore.DEInternal>
0.7358

> <Gold.Chemscore.Rot>
4.7922

> <Gold.Chemscore.Internal.Correction>
   9.000000E+99

> <Gold.Chemscore.Hbonds>
donor molecule, donor type, donor heavy atom, donor atom, acceptor molecule, acceptor atom, score
      L1  H    24    49       P1  8029  0.09

> <Gold.Chemscore.Hbond.Weighted>
-0.8444

> <Gold.Chemscore.Metal.Weighted>
-0.0000

> <Gold.Chemscore.Lipo.Weighted>
-11.0563

> <Gold.Chemscore.Internal_Hbond.Weighted>
0.0000

> <Gold.Chemscore.DEClash.Weighted>
2.4934

> <Gold.Chemscore.DEInternal.Weighted>
0.7358

> <Gold.Chemscore.Rot.Weighted>
12.2680

> <Gold.Chemscore.Internal.Correction.Weighted>
   9.000000E+99

> <Gold.Protein.RotatedTorsions>
[ 6907 6896 6895 6894 ] final  -51.50 input  -60.11 | X-H torsion
[ 7974 7965 7964 7962 ] final   78.01 input  175.53 | X-H torsion
[ 8008 7997 7996 7995 ] final  -96.58 input   59.86 | X-H torsion
[ 10167 10162 10161 10158 ] final   -6.52 input  -65.29 | X-H torsion
[ 10718 10713 10712 10709 ] final -104.79 input   66.30 | X-H torsion
[ 10763 10752 10751 10750 ] final   59.99 input  -60.55 | X-H torsion
[ 11005 11000 10999 10996 ] final -176.00 input  -57.11 | X-H torsion

> <Gold.Protein.ActiveResidues>
 VAL166  LYS551  ARG553  GLY616  TRP617  ASP618  TYR619  PRO620  LYS621  CYS622 
 ASP623  PHE694  ASN695  SER759  ASP760  ASP761  ALA762  ILE779  LEU786  VAL792 
 PHE793  MET794  SER795  GLU796  ALA797  LYS798  CYS799  TRP800  GLU811  SER814 

> <Gold.Protein.RotatedAtoms>
  150.8606  134.7956  159.7079 H   0  0  0  0  0  0  0  0  0  0  0  0  # atno 6907 bound_to 6896
  152.4644  134.5107  159.9762 H   0  0  0  0  0  0  0  0  0  0  0  0  # atno 6908 bound_to 6896
  151.5211  133.3428  159.2937 H   0  0  0  0  0  0  0  0  0  0  0  0  # atno 6909 bound_to 6896
  145.6826  139.2528  143.1805 H   0  0  0  0  0  0  0  0  0  0  0  0  # atno 7974 bound_to 7965
  154.7764  140.0470  157.1092 H   0  0  0  0  0  0  0  0  0  0  0  0  # atno 8008 bound_to 7997
  154.9758  140.3095  155.4948 H   0  0  0  0  0  0  0  0  0  0  0  0  # atno 8009 bound_to 7997
  156.2929  140.2245  156.4853 H   0  0  0  0  0  0  0  0  0  0  0  0  # atno 8010 bound_to 7997
  140.6999  143.6185  150.8635 H   0  0  0  0  0  0  0  0  0  0  0  0  # atno 10167 bound_to 10162
  156.0319  130.5532  150.7446 H   0  0  0  0  0  0  0  0  0  0  0  0  # atno 10718 bound_to 10713
  152.9909  135.5552  154.5801 H   0  0  0  0  0  0  0  0  0  0  0  0  # atno 10763 bound_to 10752
  154.5184  135.2806  155.1285 H   0  0  0  0  0  0  0  0  0  0  0  0  # atno 10764 bound_to 10752
  154.2649  135.6374  153.5341 H   0  0  0  0  0  0  0  0  0  0  0  0  # atno 10765 bound_to 10752
  140.4570  134.6290  157.4826 H   0  0  0  0  0  0  0  0  0  0  0  0  # atno 11005 bound_to 11000
  146.0951  140.7610  142.9576 LP  0  0  0  0  0  0  0  0  0  0  0  0  # atno 17320 bound_to 7965
  144.7021  140.3698  143.7147 LP  0  0  0  0  0  0  0  0  0  0  0  0  # atno 17321 bound_to 7965
  139.9906  143.5851  152.2911 LP  0  0  0  0  0  0  0  0  0  0  0  0  # atno 17342 bound_to 10162
  139.6505  144.7660  151.2158 LP  0  0  0  0  0  0  0  0  0  0  0  0  # atno 17343 bound_to 10162
  157.5006  131.0918  151.0319 LP  0  0  0  0  0  0  0  0  0  0  0  0  # atno 17370 bound_to 10713
  157.0700  130.5860  149.5401 LP  0  0  0  0  0  0  0  0  0  0  0  0  # atno 17371 bound_to 10713
  139.9970  134.6896  155.9593 LP  0  0  0  0  0  0  0  0  0  0  0  0  # atno 17394 bound_to 11000
  141.1638  133.6537  156.4411 LP  0  0  0  0  0  0  0  0  0  0  0  0  # atno 17395 bound_to 11000

$$$$
