AV-unprocessed.smi:3030|AV-procd|sdf|11540|dock10
  -GOLD-   2272016483D 1   1.00000     0.00000
 Structure written by MMmdl.
 52 53  0  0  0  0  0  0  0  0  1 V2000
  146.4753  131.4283  161.2085 C   0  0  0  0  0  0  0  0  0  0  0  0
  147.7918  132.1598  160.9243 C   0  0  0  0  0  0  0  0  0  0  0  0
  147.7102  133.5714  161.2703 N   0  0  0  0  0  0  0  0  0  0  0  0
  147.2662  133.9836  162.5223 C   0  0  0  0  0  0  0  0  0  0  0  0
  147.1107  135.2725  162.8809 C   0  0  0  0  0  0  0  0  0  0  0  0
  147.4182  136.3374  161.9048 C   0  0  0  0  0  0  0  0  0  0  0  0
  147.2876  137.5255  162.1997 O   0  0  0  0  0  0  0  0  0  0  0  0
  147.8880  135.8972  160.5642 C   0  0  0  0  0  0  0  0  0  0  0  0
  148.1851  136.9177  159.6456 N   0  0  0  0  0  0  0  0  0  0  0  0
  149.1771  136.9910  158.7394 C   0  0  0  0  0  0  0  0  0  0  0  0
  150.0288  136.1285  158.5278 O   0  0  0  0  0  0  0  0  0  0  0  0
  149.1218  138.1502  158.0686 N   0  0  0  0  0  0  0  0  0  0  0  0
  150.0493  138.5712  157.0200 C   0  0  1  0  0  0  0  0  0  0  0  0
  149.4522  138.2077  155.6428 C   0  0  0  0  0  0  0  0  0  0  0  0
  150.3262  138.6755  154.4641 C   0  0  2  0  0  0  0  0  0  0  0  0
  151.5969  137.8243  154.2937 C   0  0  0  0  0  0  0  0  0  0  0  0
  150.6288  140.1798  154.5878 C   0  0  0  0  0  0  0  0  0  0  0  0
  151.2410  140.5448  155.9498 C   0  0  0  0  0  0  0  0  0  0  0  0
  150.3460  140.0923  157.1279 C   0  0  2  0  0  0  0  0  0  0  0  0
  150.8944  140.5308  158.5196 C   0  0  0  0  0  0  0  0  0  0  0  0
  151.0605  142.0563  158.6308 C   0  0  0  0  0  0  0  0  0  0  0  0
  152.1890  139.8116  158.9416 C   0  0  0  0  0  0  0  0  0  0  0  0
  148.0032  134.5635  160.3367 C   0  0  0  0  0  0  0  0  0  0  0  0
  146.5562  130.3723  160.9512 H   0  0  0  0  0  0  0  0  0  0  0  0
  145.6561  131.8514  160.6267 H   0  0  0  0  0  0  0  0  0  0  0  0
  146.2074  131.4943  162.2634 H   0  0  0  0  0  0  0  0  0  0  0  0
  148.6029  131.6942  161.4854 H   0  0  0  0  0  0  0  0  0  0  0  0
  148.0521  132.0573  159.8702 H   0  0  0  0  0  0  0  0  0  0  0  0
  147.0552  133.1757  163.2080 H   0  0  0  0  0  0  0  0  0  0  0  0
  146.7666  135.5459  163.8677 H   0  0  0  0  0  0  0  0  0  0  0  0
  147.5479  137.7007  159.6742 H   0  0  0  0  0  0  0  0  0  0  0  0
  148.3858  138.7991  158.3060 H   0  0  0  0  0  0  0  0  0  0  0  0
  150.9888  138.0298  157.1372 H   0  0  0  0  0  0  0  0  0  0  0  0
  149.2894  137.1310  155.5747 H   0  0  0  0  0  0  0  0  0  0  0  0
  148.4661  138.6657  155.5501 H   0  0  0  0  0  0  0  0  0  0  0  0
  149.7422  138.5365  153.5533 H   0  0  0  0  0  0  0  0  0  0  0  0
  152.2557  137.8896  155.1591 H   0  0  0  0  0  0  0  0  0  0  0  0
  152.1672  138.1446  153.4215 H   0  0  0  0  0  0  0  0  0  0  0  0
  151.3454  136.7731  154.1510 H   0  0  0  0  0  0  0  0  0  0  0  0
  151.2925  140.4985  153.7835 H   0  0  0  0  0  0  0  0  0  0  0  0
  149.7034  140.7416  154.4553 H   0  0  0  0  0  0  0  0  0  0  0  0
  152.2307  140.0962  156.0321 H   0  0  0  0  0  0  0  0  0  0  0  0
  151.3931  141.6230  155.9791 H   0  0  0  0  0  0  0  0  0  0  0  0
  149.3879  140.6002  157.0033 H   0  0  0  0  0  0  0  0  0  0  0  0
  150.1420  140.2737  159.2650 H   0  0  0  0  0  0  0  0  0  0  0  0
  151.8717  142.4248  158.0033 H   0  0  0  0  0  0  0  0  0  0  0  0
  151.2878  142.3481  159.6565 H   0  0  0  0  0  0  0  0  0  0  0  0
  150.1473  142.5761  158.3400 H   0  0  0  0  0  0  0  0  0  0  0  0
  153.0204  140.0508  158.2791 H   0  0  0  0  0  0  0  0  0  0  0  0
  152.0671  138.7289  158.9519 H   0  0  0  0  0  0  0  0  0  0  0  0
  152.4833  140.1072  159.9489 H   0  0  0  0  0  0  0  0  0  0  0  0
  148.3505  134.1537  159.4021 H   0  0  0  0  0  0  0  0  0  0  0  0
  1  2  1  0  0  0  0
  1 24  1  0  0  0  0
  1 25  1  0  0  0  0
  1 26  1  0  0  0  0
  2  3  1  0  0  0  0
  2 27  1  0  0  0  0
  2 28  1  0  0  0  0
  3 23  1  0  0  0  0
  3  4  1  0  0  0  0
  4  5  2  0  0  0  0
  4 29  1  0  0  0  0
  5  6  1  0  0  0  0
  5 30  1  0  0  0  0
  6  7  2  0  0  0  0
  6  8  1  0  0  0  0
  8  9  1  0  0  0  0
  8 23  2  0  0  0  0
  9 10  1  0  0  0  0
  9 31  1  0  0  0  0
 10 11  2  0  0  0  0
 10 12  1  0  0  0  0
 12 13  1  0  0  0  0
 12 32  1  0  0  0  0
 13 19  1  0  0  0  0
 13 14  1  0  0  0  0
 13 33  1  0  0  0  0
 14 15  1  0  0  0  0
 14 34  1  0  0  0  0
 14 35  1  0  0  0  0
 15 16  1  0  0  0  0
 15 17  1  0  0  0  0
 15 36  1  0  0  0  0
 16 37  1  0  0  0  0
 16 38  1  0  0  0  0
 16 39  1  0  0  0  0
 17 18  1  0  0  0  0
 17 40  1  0  0  0  0
 17 41  1  0  0  0  0
 18 19  1  0  0  0  0
 18 42  1  0  0  0  0
 18 43  1  0  0  0  0
 19 20  1  0  0  0  0
 19 44  1  0  0  0  0
 20 21  1  0  0  0  0
 20 22  1  0  0  0  0
 20 45  1  0  0  0  0
 21 46  1  0  0  0  0
 21 47  1  0  0  0  0
 21 48  1  0  0  0  0
 22 49  1  0  0  0  0
 22 50  1  0  0  0  0
 22 51  1  0  0  0  0
 23 52  1  0  0  0  0
M  END
> <s_m_source_file>
AV-unprocessed.smi

> <i_m_source_file_index>
3030

> <i_lp_mmshare_version>
43012

> <i_f3d_flags>
0

> <s_epik_input>
W0NIM11bQ0gyXW4xW2NIXVtjSF1jKD1PKWMoW2NIXTEpW05IXUMoPU8pW05IXVtDQEBIXTJbQ0gyXVtDQEBIXShbQ0gzXSlbQ0gyXVtDSDJdW0NASF0yW0NIXShbQ0gzXSlbQ0gzXQ==

> <s_epik_cmdline>
J2VwaWtfcHl0aG9uJywgJy1waCcsICc3LjAnLCAnLXRuJywgJzgnLCAnLW1hJywgJzIwMCcsICctbWV0YWxfYmluZGluZycsICctaW1hZScsICc8aW5maWxlLm1hZT4nLCAnLW9tYWUnLCAnPG91dGZpbGUubWFlPic=

> <r_lp_tautomer_probability>
1

> <r_epik_Ionization_Penalty>
0.00147933

> <r_epik_Ionization_Penalty_Charging>
0.00145753

> <r_epik_Ionization_Penalty_Neutral>
2.17987e-05

> <r_epik_State_Penalty>
0.00097457

> <r_epik_Charging_Adjusted_Penalty>
0.0024321

> <i_epik_Tot_Q>
0

> <i_epik_Tot_abs_Q>
0

> <r_epik_Metal_State_Penalty>
-0

> <b_epik_Metal_Only>
0

> <s_lp_Force_Field>
OPLS_2005

> <r_lp_Energy>
11.4945

> <b_lp_Chiralities_Consistent>
1

> <s_lp_Variant>
AV-unprocessed.smi:3030-8

> <Gold.Version>
5.8.1

> <Gold.Id.Protein>
6NUR|6NUR_protein|mol2

> <Gold.PLP.Fitness>
47.8853

> <Gold.PLP.PLP>
-42.3027

> <Gold.PLP.part.hbond>
-3.0000

> <Gold.PLP.part.metal>
0.0000

> <Gold.PLP.part.buried>
-1.4594

> <Gold.PLP.part.nonpolar>
-37.6790

> <Gold.PLP.part.repulsive>
0.3038

> <Gold.PLP.ligand.clash>
0.0000

> <Gold.PLP.ligand.torsion>
0.6849

> <Gold.PLP.Chemscore.Hbond>
2.2960

> <Gold.PLP.Chemscore.CHOScore>
0.0000

> <Gold.PLP.Chemscore.Metal>
0.0000

> <Gold.Chemscore.Hbonds>
donor molecule, donor type, donor heavy atom, donor atom, acceptor molecule, acceptor atom, score
      P1  H  6896  6908       L1    11  1.00
      P1  H  6931  6943       L1     7  0.67
      P1  H  6934  6947       L1     7  0.58

> <Gold.PLP.Chemscore.Internal.Correction>
0.0645

> <Gold.Rescore>
     Score         DG    S(hbond)    S(metal)    S(lipo)     H(rot)  DE(clash)    DE(int)     intcor
     18.39     -20.87       2.17        0.00      97.27       1.27       1.72       0.76       ----

> <Gold.Chemscore.Fitness>
18.3888

> <Gold.Chemscore.DG>
-20.8667

> <Gold.Chemscore.ZeroCoef>
-5.4800

> <Gold.Chemscore.Hbond>
2.1718

> <Gold.Chemscore.Metal>
0.0000

> <Gold.Chemscore.Lipo>
97.2685

> <Gold.Chemscore.Internal_Hbond>
0.0000

> <Gold.Chemscore.DEClash>
1.7217

> <Gold.Chemscore.DEInternal>
0.7561

> <Gold.Chemscore.Rot>
1.2685

> <Gold.Chemscore.Internal.Correction>
   9.000000E+99

> <Gold.Chemscore.Hbonds>
donor molecule, donor type, donor heavy atom, donor atom, acceptor molecule, acceptor atom, score
      P1  H  6896  6908       L1    11  0.94
      P1  H  6931  6943       L1     7  0.34
      P1  H  6934  6947       L1     7  0.57

> <Gold.Chemscore.Hbond.Weighted>
-7.2537

> <Gold.Chemscore.Metal.Weighted>
-0.0000

> <Gold.Chemscore.Lipo.Weighted>
-11.3804

> <Gold.Chemscore.Internal_Hbond.Weighted>
0.0000

> <Gold.Chemscore.DEClash.Weighted>
1.7217

> <Gold.Chemscore.DEInternal.Weighted>
0.7561

> <Gold.Chemscore.Rot.Weighted>
3.2474

> <Gold.Chemscore.Internal.Correction.Weighted>
   9.000000E+99

> <Gold.Protein.RotatedTorsions>
[ 6907 6896 6895 6894 ] final  174.99 input  -60.11 | X-H torsion
[ 7974 7965 7964 7962 ] final  -24.57 input  175.53 | X-H torsion
[ 8008 7997 7996 7995 ] final  100.57 input   59.86 | X-H torsion
[ 10167 10162 10161 10158 ] final -166.52 input  -65.29 | X-H torsion
[ 10718 10713 10712 10709 ] final  117.32 input   66.30 | X-H torsion
[ 10763 10752 10751 10750 ] final  -99.75 input  -60.55 | X-H torsion
[ 11005 11000 10999 10996 ] final  -32.62 input  -57.11 | X-H torsion

> <Gold.Protein.ActiveResidues>
 VAL166  LYS551  ARG553  GLY616  TRP617  ASP618  TYR619  PRO620  LYS621  CYS622 
 ASP623  PHE694  ASN695  SER759  ASP760  ASP761  ALA762  ILE779  LEU786  VAL792 
 PHE793  MET794  SER795  GLU796  ALA797  LYS798  CYS799  TRP800  GLU811  SER814 

> <Gold.Protein.RotatedAtoms>
  151.7434  133.3323  159.3371 H   0  0  0  0  0  0  0  0  0  0  0  0  # atno 6907 bound_to 6896
  150.7564  134.6258  159.6169 H   0  0  0  0  0  0  0  0  0  0  0  0  # atno 6908 bound_to 6896
  152.3516  134.7000  160.0286 H   0  0  0  0  0  0  0  0  0  0  0  0  # atno 6909 bound_to 6896
  146.1546  140.4769  142.8597 H   0  0  0  0  0  0  0  0  0  0  0  0  # atno 7974 bound_to 7965
  156.1216  140.3211  155.8216 H   0  0  0  0  0  0  0  0  0  0  0  0  # atno 8008 bound_to 7997
  155.4495  140.0531  157.3020 H   0  0  0  0  0  0  0  0  0  0  0  0  # atno 8009 bound_to 7997
  154.4831  140.2061  155.9730 H   0  0  0  0  0  0  0  0  0  0  0  0  # atno 8010 bound_to 7997
  139.6109  144.0816  152.1841 H   0  0  0  0  0  0  0  0  0  0  0  0  # atno 10167 bound_to 10162
  157.6104  131.1036  150.7599 H   0  0  0  0  0  0  0  0  0  0  0  0  # atno 10718 bound_to 10713
  154.7523  135.4960  153.9312 H   0  0  0  0  0  0  0  0  0  0  0  0  # atno 10763 bound_to 10752
  153.1157  135.6720  153.9430 H   0  0  0  0  0  0  0  0  0  0  0  0  # atno 10764 bound_to 10752
  153.9176  135.3092  155.3427 H   0  0  0  0  0  0  0  0  0  0  0  0  # atno 10765 bound_to 10752
  140.9567  133.7188  156.1305 H   0  0  0  0  0  0  0  0  0  0  0  0  # atno 11005 bound_to 11000
  144.7947  140.6100  143.6518 LP  0  0  0  0  0  0  0  0  0  0  0  0  # atno 17320 bound_to 7965
  145.4739  139.1501  143.3799 LP  0  0  0  0  0  0  0  0  0  0  0  0  # atno 17321 bound_to 7965
  140.0434  144.5989  150.7393 LP  0  0  0  0  0  0  0  0  0  0  0  0  # atno 17342 bound_to 10162
  140.7318  143.2699  151.3922 LP  0  0  0  0  0  0  0  0  0  0  0  0  # atno 17343 bound_to 10162
  156.7978  130.4911  149.5374 LP  0  0  0  0  0  0  0  0  0  0  0  0  # atno 17370 bound_to 10713
  156.1204  130.6106  151.0185 LP  0  0  0  0  0  0  0  0  0  0  0  0  # atno 17371 bound_to 10713
  140.7525  134.4029  157.5539 LP  0  0  0  0  0  0  0  0  0  0  0  0  # atno 17394 bound_to 11000
  139.8864  134.8909  156.2584 LP  0  0  0  0  0  0  0  0  0  0  0  0  # atno 17395 bound_to 11000

$$$$
