AV-unprocessed.smi:2439|AV-procd|sdf|9606|dock6
  -GOLD-   2272013243D 1   1.00000     0.00000
 Structure written by MMmdl.
 41 43  0  0  0  0  0  0  0  0  2 V2000
  154.2240  140.8558  161.0053 N   0  0  0  0  0  0  0  0  0  0  0  0
  153.4954  141.6901  160.6711 C   0  0  0  0  0  0  0  0  0  0  0  0
  152.5781  142.7424  160.2503 C   0  0  0  0  0  0  0  0  0  0  0  0
  152.5243  143.9391  160.9955 C   0  0  0  0  0  0  0  0  0  0  0  0
  151.6391  144.9567  160.5957 C   0  0  0  0  0  0  0  0  0  0  0  0
  150.8405  144.7362  159.4592 C   0  0  0  0  0  0  0  0  0  0  0  0
  150.8820  143.5968  158.7376 N   0  0  0  0  0  0  0  0  0  0  0  0
  151.7312  142.6101  159.1171 C   0  0  0  0  0  0  0  0  0  0  0  0
  151.7520  141.4329  158.3458 N   0  0  0  0  0  0  0  0  0  0  0  0
  151.6072  141.4540  156.8950 C   0  0  0  0  0  0  0  0  0  0  0  0
  150.3736  140.6705  156.4143 C   0  0  1  0  0  0  0  0  0  0  0  0
  149.0661  141.3555  156.8496 C   0  0  0  0  0  0  0  0  0  0  0  0
  147.8907  140.6342  156.3015 N   0  3  1  0  0  0  0  0  0  0  0  0
  146.5846  141.2038  156.7246 C   0  0  0  0  0  0  0  0  0  0  0  0
  146.2522  142.5128  155.9828 C   0  0  0  0  0  0  0  0  0  0  0  0
  146.3190  142.3184  154.4619 C   0  0  0  0  0  0  0  0  0  0  0  0
  147.6799  141.7355  154.0553 C   0  0  0  0  0  0  0  0  0  0  0  0
  147.9820  140.4330  154.8288 C   0  0  1  0  0  0  0  0  0  0  0  0
  149.3498  139.8264  154.4587 C   0  0  0  0  0  0  0  0  0  0  0  0
  150.4019  140.6216  154.9917 O   0  0  0  0  0  0  0  0  0  0  0  0
  153.1511  144.0805  161.8645 H   0  0  0  0  0  0  0  0  0  0  0  0
  151.5747  145.8836  161.1464 H   0  0  0  0  0  0  0  0  0  0  0  0
  150.1489  145.4935  159.1209 H   0  0  0  0  0  0  0  0  0  0  0  0
  151.7649  140.5371  158.8127 H   0  0  0  0  0  0  0  0  0  0  0  0
  151.5585  142.4880  156.5516 H   0  0  0  0  0  0  0  0  0  0  0  0
  152.5097  141.0316  156.4525 H   0  0  0  0  0  0  0  0  0  0  0  0
  150.3989  139.6567  156.8181 H   0  0  0  0  0  0  0  0  0  0  0  0
  149.0026  141.3711  157.9385 H   0  0  0  0  0  0  0  0  0  0  0  0
  149.0654  142.3942  156.5190 H   0  0  0  0  0  0  0  0  0  0  0  0
  145.8078  140.4657  156.5200 H   0  0  0  0  0  0  0  0  0  0  0  0
  146.5788  141.3635  157.8034 H   0  0  0  0  0  0  0  0  0  0  0  0
  145.2570  142.8558  156.2674 H   0  0  0  0  0  0  0  0  0  0  0  0
  146.9412  143.3018  156.2843 H   0  0  0  0  0  0  0  0  0  0  0  0
  145.5216  141.6463  154.1425 H   0  0  0  0  0  0  0  0  0  0  0  0
  146.1487  143.2677  153.9530 H   0  0  0  0  0  0  0  0  0  0  0  0
  147.6854  141.5399  152.9826 H   0  0  0  0  0  0  0  0  0  0  0  0
  148.4628  142.4737  154.2320 H   0  0  0  0  0  0  0  0  0  0  0  0
  147.2159  139.7056  154.5558 H   0  0  0  0  0  0  0  0  0  0  0  0
  149.4328  138.8059  154.8361 H   0  0  0  0  0  0  0  0  0  0  0  0
  149.4605  139.7677  153.3757 H   0  0  0  0  0  0  0  0  0  0  0  0
  147.9346  139.7113  156.7100 H   0  0  0  0  0  0  0  0  0  0  0  0
  1  2  3  0  0  0  0
  2  3  1  0  0  0  0
  3  8  1  0  0  0  0
  3  4  2  0  0  0  0
  4  5  1  0  0  0  0
  4 21  1  0  0  0  0
  5  6  2  0  0  0  0
  5 22  1  0  0  0  0
  6  7  1  0  0  0  0
  6 23  1  0  0  0  0
  7  8  2  0  0  0  0
  8  9  1  0  0  0  0
  9 10  1  0  0  0  0
  9 24  1  0  0  0  0
 10 11  1  0  0  0  0
 10 25  1  0  0  0  0
 10 26  1  0  0  0  0
 11 20  1  0  0  0  0
 11 12  1  0  0  0  0
 11 27  1  0  0  0  0
 12 13  1  0  0  0  0
 12 28  1  0  0  0  0
 12 29  1  0  0  0  0
 13 18  1  0  0  0  0
 13 14  1  0  0  0  0
 13 41  1  0  0  0  0
 14 15  1  0  0  0  0
 14 30  1  0  0  0  0
 14 31  1  0  0  0  0
 15 16  1  0  0  0  0
 15 32  1  0  0  0  0
 15 33  1  0  0  0  0
 16 17  1  0  0  0  0
 16 34  1  0  0  0  0
 16 35  1  0  0  0  0
 17 18  1  0  0  0  0
 17 36  1  0  0  0  0
 17 37  1  0  0  0  0
 18 19  1  0  0  0  0
 18 38  1  0  0  0  0
 19 20  1  0  0  0  0
 19 39  1  0  0  0  0
 19 40  1  0  0  0  0
M  CHG  1  13   1
M  END
> <s_m_source_file>
AV-unprocessed.smi

> <i_m_source_file_index>
2439

> <i_lp_mmshare_version>
43012

> <i_f3d_flags>
0

> <s_epik_input>
TiNDYzFbY0hdW2NIXVtjSF1uYzFbTkhdW0NIMl1bQ0BIXShbQ0gyXTIpT1tDSDJdW0NAQEhdKE4yMylbQ0gyXVtDSDJdW0NIMl1bQ0gyXTM=

> <s_epik_cmdline>
J2VwaWtfcHl0aG9uJywgJy1waCcsICc3LjAnLCAnLXRuJywgJzgnLCAnLW1hJywgJzIwMCcsICctbWV0YWxfYmluZGluZycsICctaW1hZScsICc8aW5maWxlLm1hZT4nLCAnLW9tYWUnLCAnPG91dGZpbGUubWFlPic=

> <r_epik_Ionization_Penalty>
0.0803594

> <r_epik_Ionization_Penalty_Charging>
0.0803403

> <r_epik_Ionization_Penalty_Neutral>
1.90988e-05

> <r_epik_State_Penalty>
0.0711481

> <r_epik_Charging_Adjusted_Penalty>
0.151488

> <i_epik_Tot_Q>
1

> <i_epik_Tot_abs_Q>
1

> <r_epik_Metal_State_Penalty>
0.0711482

> <b_epik_Metal_Only>
0

> <s_lp_Force_Field>
OPLS_2005

> <r_lp_Energy>
29.8986

> <b_lp_Chiralities_Consistent>
1

> <s_lp_Variant>
AV-unprocessed.smi:2439-4

> <Gold.Version>
5.8.1

> <Gold.Id.Protein>
6NUR|6NUR_protein|mol2

> <Gold.PLP.Fitness>
45.5981

> <Gold.PLP.PLP>
-40.1917

> <Gold.PLP.part.hbond>
-1.0000

> <Gold.PLP.part.metal>
0.0000

> <Gold.PLP.part.buried>
-7.0774

> <Gold.PLP.part.nonpolar>
-31.8010

> <Gold.PLP.part.repulsive>
0.3067

> <Gold.PLP.ligand.clash>
0.0000

> <Gold.PLP.ligand.torsion>
0.2982

> <Gold.PLP.Chemscore.Hbond>
1.0000

> <Gold.PLP.Chemscore.CHOScore>
1.0000

> <Gold.PLP.Chemscore.Metal>
0.0000

> <Gold.Chemscore.Hbonds>
donor molecule, donor type, donor heavy atom, donor atom, acceptor molecule, acceptor atom, score
      P1  H  7989  7998       L1    20  0.93

> <Gold.PLP.Chemscore.Internal.Correction>
0.0028

> <Gold.Rescore>
     Score         DG    S(hbond)    S(metal)    S(lipo)     H(rot)  DE(clash)    DE(int)     intcor
     16.28     -16.83       0.92        0.00      98.50       1.27       0.22       0.33       ----

> <Gold.Chemscore.Fitness>
16.2784

> <Gold.Chemscore.DG>
-16.8267

> <Gold.Chemscore.ZeroCoef>
-5.4800

> <Gold.Chemscore.Hbond>
0.9170

> <Gold.Chemscore.Metal>
0.0000

> <Gold.Chemscore.Lipo>
98.5018

> <Gold.Chemscore.Internal_Hbond>
0.0000

> <Gold.Chemscore.DEClash>
0.2225

> <Gold.Chemscore.DEInternal>
0.3258

> <Gold.Chemscore.Rot>
1.2659

> <Gold.Chemscore.Internal.Correction>
   9.000000E+99

> <Gold.Chemscore.Hbonds>
donor molecule, donor type, donor heavy atom, donor atom, acceptor molecule, acceptor atom, score
      P1  H  7989  7998       L1    20  0.44

> <Gold.Chemscore.Hbond.Weighted>
-3.0628

> <Gold.Chemscore.Metal.Weighted>
-0.0000

> <Gold.Chemscore.Lipo.Weighted>
-11.5247

> <Gold.Chemscore.Internal_Hbond.Weighted>
0.0000

> <Gold.Chemscore.DEClash.Weighted>
0.2225

> <Gold.Chemscore.DEInternal.Weighted>
0.3258

> <Gold.Chemscore.Rot.Weighted>
3.2408

> <Gold.Chemscore.Internal.Correction.Weighted>
   9.000000E+99

> <Gold.Protein.RotatedTorsions>
[ 6907 6896 6895 6894 ] final   86.21 input  -60.11 | X-H torsion
[ 7974 7965 7964 7962 ] final   -5.34 input  175.53 | X-H torsion
[ 8008 7997 7996 7995 ] final  -13.90 input   59.86 | X-H torsion
[ 10167 10162 10161 10158 ] final -130.23 input  -65.29 | X-H torsion
[ 10718 10713 10712 10709 ] final -106.42 input   66.30 | X-H torsion
[ 10763 10752 10751 10750 ] final   50.48 input  -60.55 | X-H torsion
[ 11005 11000 10999 10996 ] final -146.17 input  -57.11 | X-H torsion

> <Gold.Protein.ActiveResidues>
 VAL166  LYS551  ARG553  GLY616  TRP617  ASP618  TYR619  PRO620  LYS621  CYS622 
 ASP623  PHE694  ASN695  SER759  ASP760  ASP761  ALA762  ILE779  LEU786  VAL792 
 PHE793  MET794  SER795  GLU796  ALA797  LYS798  CYS799  TRP800  GLU811  SER814 

> <Gold.Protein.RotatedAtoms>
  152.5390  134.2467  159.8882 H   0  0  0  0  0  0  0  0  0  0  0  0  # atno 6907 bound_to 6896
  151.2432  133.4382  159.2616 H   0  0  0  0  0  0  0  0  0  0  0  0  # atno 6908 bound_to 6896
  151.0607  134.9749  159.8315 H   0  0  0  0  0  0  0  0  0  0  0  0  # atno 6909 bound_to 6896
  146.2355  140.2006  142.8333 H   0  0  0  0  0  0  0  0  0  0  0  0  # atno 7974 bound_to 7965
  154.5254  140.2237  155.8899 H   0  0  0  0  0  0  0  0  0  0  0  0  # atno 8008 bound_to 7997
  156.1708  140.3122  155.8934 H   0  0  0  0  0  0  0  0  0  0  0  0  # atno 8009 bound_to 7997
  155.3562  140.0458  157.3037 H   0  0  0  0  0  0  0  0  0  0  0  0  # atno 8010 bound_to 7997
  139.9315  143.6267  152.2528 H   0  0  0  0  0  0  0  0  0  0  0  0  # atno 10167 bound_to 10162
  156.0389  130.5612  150.7678 H   0  0  0  0  0  0  0  0  0  0  0  0  # atno 10718 bound_to 10713
  152.9784  135.5877  154.4259 H   0  0  0  0  0  0  0  0  0  0  0  0  # atno 10763 bound_to 10752
  154.3878  135.2767  155.2175 H   0  0  0  0  0  0  0  0  0  0  0  0  # atno 10764 bound_to 10752
  154.4060  135.6092  153.5979 H   0  0  0  0  0  0  0  0  0  0  0  0  # atno 10765 bound_to 10752
  140.7847  134.3038  157.5034 H   0  0  0  0  0  0  0  0  0  0  0  0  # atno 11005 bound_to 11000
  144.9785  140.8437  143.5412 LP  0  0  0  0  0  0  0  0  0  0  0  0  # atno 17320 bound_to 7965
  145.1996  139.2259  143.5200 LP  0  0  0  0  0  0  0  0  0  0  0  0  # atno 17321 bound_to 7965
  139.6779  144.7657  151.1663 LP  0  0  0  0  0  0  0  0  0  0  0  0  # atno 17342 bound_to 10162
  140.7636  143.5768  150.8937 LP  0  0  0  0  0  0  0  0  0  0  0  0  # atno 17343 bound_to 10162
  157.5180  131.0930  151.0114 LP  0  0  0  0  0  0  0  0  0  0  0  0  # atno 17370 bound_to 10713
  157.0452  130.5765  149.5362 LP  0  0  0  0  0  0  0  0  0  0  0  0  # atno 17371 bound_to 10713
  139.8738  134.9339  156.3593 LP  0  0  0  0  0  0  0  0  0  0  0  0  # atno 17394 bound_to 11000
  140.9448  133.7490  156.0194 LP  0  0  0  0  0  0  0  0  0  0  0  0  # atno 17395 bound_to 11000

$$$$
