AV-unprocessed.smi:576|AV-procd|sdf|2979|dock1
  -GOLD-   2262023483D 1   1.00000     0.00000
 Structure written by MMmdl.
 35 36  0  0  0  0  0  0  0  0  1 V2000
  149.4590  140.7382  154.4624 C   0  0  0  0  0  0  0  0  0  0  0  0
  148.7881  141.3006  155.7234 C   0  0  1  0  0  0  0  0  0  0  0  0
  149.6378  142.3507  156.2753 N   0  0  0  0  0  0  0  0  0  0  0  0
  150.8053  142.1560  156.9071 C   0  0  0  0  0  0  0  0  0  0  0  0
  151.3113  141.0442  157.0666 O   0  0  0  0  0  0  0  0  0  0  0  0
  151.5123  143.4191  157.4179 C   0  0  0  0  0  0  0  0  0  0  0  0
  151.9578  143.3064  158.8170 N   0  0  0  0  0  0  0  0  0  0  0  0
  152.8134  142.2333  159.1353 C   0  0  0  0  0  0  0  0  0  0  0  0
  153.2758  142.0088  160.3803 C   0  0  0  0  0  0  0  0  0  0  0  0
  154.2384  140.8707  160.6817 C   0  0  0  0  0  0  0  0  0  0  0  0
  154.5648  140.8459  161.9742 F   0  0  0  0  0  0  0  0  0  0  0  0
  153.6721  139.7048  160.3737 F   0  0  0  0  0  0  0  0  0  0  0  0
  155.3594  140.9884  159.9692 F   0  0  0  0  0  0  0  0  0  0  0  0
  152.8751  142.9600  161.3987 C   0  0  0  0  0  0  0  0  0  0  0  0
  152.0623  143.9953  161.1100 C   0  0  0  0  0  0  0  0  0  0  0  0
  151.5472  144.2112  159.7559 C   0  0  0  0  0  0  0  0  0  0  0  0
  150.7956  145.1474  159.4822 O   0  0  0  0  0  0  0  0  0  0  0  0
  147.3732  141.7663  155.4219 C   0  0  0  0  0  0  0  0  0  0  0  0
  146.5059  141.0515  154.4124 C   0  0  0  0  0  0  0  0  0  0  0  0
  147.0382  142.4331  154.1087 C   0  0  0  0  0  0  0  0  0  0  0  0
  148.8820  139.9119  154.0462 H   0  0  0  0  0  0  0  0  0  0  0  0
  150.4585  140.3611  154.6818 H   0  0  0  0  0  0  0  0  0  0  0  0
  149.5520  141.5008  153.6881 H   0  0  0  0  0  0  0  0  0  0  0  0
  148.7285  140.4863  156.4484 H   0  0  0  0  0  0  0  0  0  0  0  0
  149.3031  143.2991  156.1839 H   0  0  0  0  0  0  0  0  0  0  0  0
  152.3576  143.6232  156.7594 H   0  0  0  0  0  0  0  0  0  0  0  0
  150.8498  144.2796  157.3059 H   0  0  0  0  0  0  0  0  0  0  0  0
  153.0671  141.5972  158.2998 H   0  0  0  0  0  0  0  0  0  0  0  0
  153.2283  142.8383  162.4120 H   0  0  0  0  0  0  0  0  0  0  0  0
  151.7819  144.6830  161.8943 H   0  0  0  0  0  0  0  0  0  0  0  0
  146.8547  142.1658  156.2920 H   0  0  0  0  0  0  0  0  0  0  0  0
  146.9408  140.2173  153.8656 H   0  0  0  0  0  0  0  0  0  0  0  0
  145.4460  140.9573  154.6406 H   0  0  0  0  0  0  0  0  0  0  0  0
  146.3329  143.2614  154.1322 H   0  0  0  0  0  0  0  0  0  0  0  0
  147.8274  142.5128  153.3637 H   0  0  0  0  0  0  0  0  0  0  0  0
  1  2  1  0  0  0  0
  1 21  1  0  0  0  0
  1 22  1  0  0  0  0
  1 23  1  0  0  0  0
  2  3  1  0  0  0  0
  2 18  1  0  0  0  0
  2 24  1  0  0  0  0
  3  4  1  0  0  0  0
  3 25  1  0  0  0  0
  4  5  2  0  0  0  0
  4  6  1  0  0  0  0
  6  7  1  0  0  0  0
  6 26  1  0  0  0  0
  6 27  1  0  0  0  0
  7 16  1  0  0  0  0
  7  8  1  0  0  0  0
  8  9  2  0  0  0  0
  8 28  1  0  0  0  0
  9 10  1  0  0  0  0
  9 14  1  0  0  0  0
 10 11  1  0  0  0  0
 10 12  1  0  0  0  0
 10 13  1  0  0  0  0
 14 15  2  0  0  0  0
 14 29  1  0  0  0  0
 15 16  1  0  0  0  0
 15 30  1  0  0  0  0
 16 17  2  0  0  0  0
 18 20  1  0  0  0  0
 18 19  1  0  0  0  0
 18 31  1  0  0  0  0
 19 20  1  0  0  0  0
 19 32  1  0  0  0  0
 19 33  1  0  0  0  0
 20 34  1  0  0  0  0
 20 35  1  0  0  0  0
M  END
> <s_m_source_file>
AV-unprocessed.smi

> <i_m_source_file_index>
576

> <i_lp_mmshare_version>
43012

> <i_f3d_flags>
0

> <s_epik_input>
W0NIMl0xW0NIMl1bQ0hdMVtDQEhdKFtDSDNdKVtOSF1DKD1PKVtDSDJdbjJbY0hdYyhDKEYpKEYpRilbY0hdW2NIXWMyPU8=

> <s_epik_cmdline>
J2VwaWtfcHl0aG9uJywgJy1waCcsICc3LjAnLCAnLXRuJywgJzgnLCAnLW1hJywgJzIwMCcsICctbWV0YWxfYmluZGluZycsICctaW1hZScsICc8aW5maWxlLm1hZT4nLCAnLW9tYWUnLCAnPG91dGZpbGUubWFlPic=

> <r_lp_tautomer_probability>
1

> <r_epik_Ionization_Penalty>
3.84201e-08

> <r_epik_Ionization_Penalty_Charging>
1.91184e-08

> <r_epik_Ionization_Penalty_Neutral>
1.93017e-08

> <r_epik_State_Penalty>
-0

> <r_epik_Charging_Adjusted_Penalty>
1.91184e-08

> <i_epik_Tot_Q>
0

> <i_epik_Tot_abs_Q>
0

> <r_epik_Metal_State_Penalty>
-0

> <b_epik_Metal_Only>
0

> <s_lp_Force_Field>
OPLS_2005

> <r_lp_Energy>
24.3329

> <b_lp_Chiralities_Consistent>
1

> <s_lp_Variant>
AV-unprocessed.smi:576-2

> <Gold.Version>
5.8.1

> <Gold.Id.Protein>
6NUR|6NUR_protein|mol2

> <Gold.PLP.Fitness>
51.0854

> <Gold.PLP.PLP>
-48.6266

> <Gold.PLP.part.hbond>
-1.0000

> <Gold.PLP.part.metal>
0.0000

> <Gold.PLP.part.buried>
-4.4024

> <Gold.PLP.part.nonpolar>
-44.1018

> <Gold.PLP.part.repulsive>
0.2639

> <Gold.PLP.ligand.clash>
0.0000

> <Gold.PLP.ligand.torsion>
0.8458

> <Gold.PLP.Chemscore.Hbond>
1.0000

> <Gold.PLP.Chemscore.CHOScore>
0.0000

> <Gold.PLP.Chemscore.Metal>
0.0000

> <Gold.Chemscore.Hbonds>
donor molecule, donor type, donor heavy atom, donor atom, acceptor molecule, acceptor atom, score
      L1  H     3    25       P1  8028  1.00

> <Gold.PLP.Chemscore.Internal.Correction>
1.1505

> <Gold.Rescore>
     Score         DG    S(hbond)    S(metal)    S(lipo)     H(rot)  DE(clash)    DE(int)     intcor
     13.11     -15.42       0.98        0.00      95.50       1.77       0.04       2.27       ----

> <Gold.Chemscore.Fitness>
13.1072

> <Gold.Chemscore.DG>
-15.4166

> <Gold.Chemscore.ZeroCoef>
-5.4800

> <Gold.Chemscore.Hbond>
0.9827

> <Gold.Chemscore.Metal>
0.0000

> <Gold.Chemscore.Lipo>
95.4994

> <Gold.Chemscore.Internal_Hbond>
0.0000

> <Gold.Chemscore.DEClash>
0.0353

> <Gold.Chemscore.DEInternal>
2.2741

> <Gold.Chemscore.Rot>
1.7653

> <Gold.Chemscore.Internal.Correction>
   9.000000E+99

> <Gold.Chemscore.Hbonds>
donor molecule, donor type, donor heavy atom, donor atom, acceptor molecule, acceptor atom, score
      L1  H     3    25       P1  8028  0.97

> <Gold.Chemscore.Hbond.Weighted>
-3.2823

> <Gold.Chemscore.Metal.Weighted>
-0.0000

> <Gold.Chemscore.Lipo.Weighted>
-11.1734

> <Gold.Chemscore.Internal_Hbond.Weighted>
0.0000

> <Gold.Chemscore.DEClash.Weighted>
0.0353

> <Gold.Chemscore.DEInternal.Weighted>
2.2741

> <Gold.Chemscore.Rot.Weighted>
4.5191

> <Gold.Chemscore.Internal.Correction.Weighted>
   9.000000E+99

> <Gold.Protein.RotatedTorsions>
[ 6907 6896 6895 6894 ] final   -5.60 input  -60.11 | X-H torsion
[ 7974 7965 7964 7962 ] final  159.73 input  175.53 | X-H torsion
[ 8008 7997 7996 7995 ] final -119.45 input   59.86 | X-H torsion
[ 10167 10162 10161 10158 ] final -170.67 input  -65.29 | X-H torsion
[ 10718 10713 10712 10709 ] final -156.72 input   66.30 | X-H torsion
[ 10763 10752 10751 10750 ] final  -40.54 input  -60.55 | X-H torsion
[ 11005 11000 10999 10996 ] final  -92.21 input  -57.11 | X-H torsion

> <Gold.Protein.ActiveResidues>
 VAL166  LYS551  ARG553  GLY616  TRP617  ASP618  TYR619  PRO620  LYS621  CYS622 
 ASP623  PHE694  ASN695  SER759  ASP760  ASP761  ALA762  ILE779  LEU786  VAL792 
 PHE793  MET794  SER795  GLU796  ALA797  LYS798  CYS799  TRP800  GLU811  SER814 

> <Gold.Protein.RotatedAtoms>
  151.4789  135.1051  159.9772 H   0  0  0  0  0  0  0  0  0  0  0  0  # atno 6907 bound_to 6896
  152.4787  133.8197  159.7057 H   0  0  0  0  0  0  0  0  0  0  0  0  # atno 6908 bound_to 6896
  150.8843  133.7268  159.2949 H   0  0  0  0  0  0  0  0  0  0  0  0  # atno 6909 bound_to 6896
  144.7774  139.7658  143.6273 H   0  0  0  0  0  0  0  0  0  0  0  0  # atno 7974 bound_to 7965
  155.1159  140.0398  157.2737 H   0  0  0  0  0  0  0  0  0  0  0  0  # atno 8008 bound_to 7997
  154.6650  140.2599  155.7042 H   0  0  0  0  0  0  0  0  0  0  0  0  # atno 8009 bound_to 7997
  156.2635  140.2809  156.1137 H   0  0  0  0  0  0  0  0  0  0  0  0  # atno 8010 bound_to 7997
  139.5848  144.1343  152.1561 H   0  0  0  0  0  0  0  0  0  0  0  0  # atno 10167 bound_to 10162
  156.5305  130.8518  151.2714 H   0  0  0  0  0  0  0  0  0  0  0  0  # atno 10718 bound_to 10713
  153.9477  135.6754  153.4744 H   0  0  0  0  0  0  0  0  0  0  0  0  # atno 10763 bound_to 10752
  153.0900  135.4879  154.8668 H   0  0  0  0  0  0  0  0  0  0  0  0  # atno 10764 bound_to 10752
  154.7343  135.3145  154.8798 H   0  0  0  0  0  0  0  0  0  0  0  0  # atno 10765 bound_to 10752
  141.1527  133.7806  156.9988 H   0  0  0  0  0  0  0  0  0  0  0  0  # atno 11005 bound_to 11000
  146.1963  139.5231  142.9772 LP  0  0  0  0  0  0  0  0  0  0  0  0  # atno 17320 bound_to 7965
  145.6146  141.0333  143.1948 LP  0  0  0  0  0  0  0  0  0  0  0  0  # atno 17321 bound_to 7965
  140.0904  144.5625  150.7058 LP  0  0  0  0  0  0  0  0  0  0  0  0  # atno 17342 bound_to 10162
  140.7121  143.2514  151.4548 LP  0  0  0  0  0  0  0  0  0  0  0  0  # atno 17343 bound_to 10162
  157.7422  130.9886  150.2503 LP  0  0  0  0  0  0  0  0  0  0  0  0  # atno 17370 bound_to 10713
  156.3065  130.3766  149.7702 LP  0  0  0  0  0  0  0  0  0  0  0  0  # atno 17371 bound_to 10713
  140.0954  134.9567  157.1841 LP  0  0  0  0  0  0  0  0  0  0  0  0  # atno 17394 bound_to 11000
  140.3390  134.2725  155.7215 LP  0  0  0  0  0  0  0  0  0  0  0  0  # atno 17395 bound_to 11000

$$$$
