AV-unprocessed.smi:1412|AV-procd|sdf|5746|dock7
  -GOLD-   22720 5383D 1   1.00000     0.00000
 Structure written by MMmdl.
 41 42  0  0  0  0  0  0  0  0  3 V2000
  151.5965  138.3847  154.7210 C   0  0  0  0  0  0  0  0  0  0  0  0
  151.9501  139.3001  155.9064 C   0  0  0  0  0  0  0  0  0  0  0  0
  150.8608  139.4516  157.0118 C   0  0  1  0  0  0  0  0  0  0  0  0
  149.4577  139.4862  156.3485 C   0  0  0  0  0  0  0  0  0  0  0  0
  150.8815  138.2189  157.9657 C   0  0  0  0  0  0  0  0  0  0  0  0
  149.6715  138.1327  158.7856 N   0  0  0  0  0  0  0  0  0  0  0  0
  149.1149  137.0177  159.2798 C   0  0  0  0  0  0  0  0  0  0  0  0
  149.5537  135.9115  158.9598 O   0  0  0  0  0  0  0  0  0  0  0  0
  148.1034  137.2559  160.1426 N   0  5  0  0  0  0  0  0  0  0  0  0
  147.5104  136.2301  160.7750 C   0  0  0  0  0  0  0  0  0  0  0  0
  147.4178  135.0078  160.2262 N   0  0  0  0  0  0  0  0  0  0  0  0
  146.7667  134.0922  161.0412 N   0  0  0  0  0  0  0  0  0  0  0  0
  146.3910  134.6480  162.1929 C   0  0  0  0  0  0  0  0  0  0  0  0
  146.7983  136.3402  162.3862 S   0  0  0  0  0  0  0  0  0  0  0  0
  151.0933  140.7018  157.8261 N   0  3  0  0  0  0  0  0  0  0  0  0
  152.3156  140.6974  158.6765 C   0  0  0  0  0  0  0  0  0  0  0  0
  152.2734  141.8733  159.6626 C   0  0  0  0  0  0  0  0  0  0  0  0
  152.2118  143.0878  158.9267 O   0  0  0  0  0  0  0  0  0  0  0  0
  151.0351  143.1650  158.1325 C   0  0  0  0  0  0  0  0  0  0  0  0
  150.9971  142.0079  157.1169 C   0  0  0  0  0  0  0  0  0  0  0  0
  152.4367  138.3209  154.0292 H   0  0  0  0  0  0  0  0  0  0  0  0
  150.7456  138.7608  154.1540 H   0  0  0  0  0  0  0  0  0  0  0  0
  151.3692  137.3692  155.0439 H   0  0  0  0  0  0  0  0  0  0  0  0
  152.8698  138.9096  156.3421 H   0  0  0  0  0  0  0  0  0  0  0  0
  152.2022  140.2832  155.5078 H   0  0  0  0  0  0  0  0  0  0  0  0
  149.1820  138.5157  155.9354 H   0  0  0  0  0  0  0  0  0  0  0  0
  149.4129  140.1988  155.5241 H   0  0  0  0  0  0  0  0  0  0  0  0
  148.6779  139.7514  157.0634 H   0  0  0  0  0  0  0  0  0  0  0  0
  150.9372  137.2946  157.3910 H   0  0  0  0  0  0  0  0  0  0  0  0
  151.7752  138.2149  158.5901 H   0  0  0  0  0  0  0  0  0  0  0  0
  149.2554  139.0096  159.0646 H   0  0  0  0  0  0  0  0  0  0  0  0
  145.8723  134.0578  162.9333 H   0  0  0  0  0  0  0  0  0  0  0  0
  152.4123  139.7671  159.2324 H   0  0  0  0  0  0  0  0  0  0  0  0
  153.2078  140.7878  158.0558 H   0  0  0  0  0  0  0  0  0  0  0  0
  151.4206  141.7905  160.3390 H   0  0  0  0  0  0  0  0  0  0  0  0
  153.1721  141.8797  160.2793 H   0  0  0  0  0  0  0  0  0  0  0  0
  150.1522  143.1447  158.7738 H   0  0  0  0  0  0  0  0  0  0  0  0
  151.0253  144.1222  157.6109 H   0  0  0  0  0  0  0  0  0  0  0  0
  151.8140  142.1043  156.4008 H   0  0  0  0  0  0  0  0  0  0  0  0
  150.0665  142.1045  156.5610 H   0  0  0  0  0  0  0  0  0  0  0  0
  150.3190  140.7099  158.4762 H   0  0  0  0  0  0  0  0  0  0  0  0
  1  2  1  0  0  0  0
  1 21  1  0  0  0  0
  1 22  1  0  0  0  0
  1 23  1  0  0  0  0
  2  3  1  0  0  0  0
  2 24  1  0  0  0  0
  2 25  1  0  0  0  0
  3  4  1  0  0  0  0
  3  5  1  0  0  0  0
  3 15  1  0  0  0  0
  4 26  1  0  0  0  0
  4 27  1  0  0  0  0
  4 28  1  0  0  0  0
  5  6  1  0  0  0  0
  5 29  1  0  0  0  0
  5 30  1  0  0  0  0
  6  7  1  0  0  0  0
  6 31  1  0  0  0  0
  7  8  2  0  0  0  0
  7  9  1  0  0  0  0
  9 10  1  0  0  0  0
 10 14  1  0  0  0  0
 10 11  2  0  0  0  0
 11 12  1  0  0  0  0
 12 13  2  0  0  0  0
 13 14  1  0  0  0  0
 13 32  1  0  0  0  0
 15 20  1  0  0  0  0
 15 16  1  0  0  0  0
 15 41  1  0  0  0  0
 16 17  1  0  0  0  0
 16 33  1  0  0  0  0
 16 34  1  0  0  0  0
 17 18  1  0  0  0  0
 17 35  1  0  0  0  0
 17 36  1  0  0  0  0
 18 19  1  0  0  0  0
 19 20  1  0  0  0  0
 19 37  1  0  0  0  0
 19 38  1  0  0  0  0
 20 39  1  0  0  0  0
 20 40  1  0  0  0  0
M  CHG  1   9  -1
M  CHG  1  15   1
M  END
> <s_m_source_file>
AV-unprocessed.smi

> <i_m_source_file_index>
1412

> <i_lp_mmshare_version>
43012

> <i_f3d_flags>
0

> <s_epik_input>
W0NIMl0xW0NIMl1PW0NIMl1bQ0gyXU4xW0NAQF0oW0NIM10pKFtDSDJdW0NIM10pW0NIMl1bTkhdQyg9TylbTkhdYzJubltjSF1zMg==

> <s_epik_cmdline>
J2VwaWtfcHl0aG9uJywgJy1waCcsICc3LjAnLCAnLXRuJywgJzgnLCAnLW1hJywgJzIwMCcsICctbWV0YWxfYmluZGluZycsICctaW1hZScsICc8aW5maWxlLm1hZT4nLCAnLW9tYWUnLCAnPG91dGZpbGUubWFlPic=

> <r_lp_tautomer_probability>
1

> <r_epik_Ionization_Penalty>
4.35651

> <r_epik_Ionization_Penalty_Charging>
4.3235

> <r_epik_Ionization_Penalty_Neutral>
0.0330098

> <r_epik_State_Penalty>
4.4846

> <r_epik_Charging_Adjusted_Penalty>
8.8081

> <i_epik_Tot_Q>
0

> <i_epik_Tot_abs_Q>
2

> <r_epik_Metal_State_Penalty>
1.11611

> <b_epik_Metal_Only>
1

> <s_lp_Force_Field>
OPLS_2005

> <r_lp_Energy>
23.2339

> <b_lp_Chiralities_Consistent>
1

> <s_lp_Variant>
AV-unprocessed.smi:1412-7

> <Gold.Version>
5.8.1

> <Gold.Id.Protein>
6NUR|6NUR_protein|mol2

> <Gold.PLP.Fitness>
42.2297

> <Gold.PLP.PLP>
-34.0086

> <Gold.PLP.part.hbond>
-3.0000

> <Gold.PLP.part.metal>
0.0000

> <Gold.PLP.part.buried>
-6.5252

> <Gold.PLP.part.nonpolar>
-26.6300

> <Gold.PLP.part.repulsive>
0.3065

> <Gold.PLP.ligand.clash>
0.0000

> <Gold.PLP.ligand.torsion>
0.8922

> <Gold.PLP.Chemscore.Hbond>
3.2769

> <Gold.PLP.Chemscore.CHOScore>
0.0000

> <Gold.PLP.Chemscore.Metal>
0.0000

> <Gold.Chemscore.Hbonds>
donor molecule, donor type, donor heavy atom, donor atom, acceptor molecule, acceptor atom, score
      P1  H  6896  6908       L1     8  1.00
      P1  H  6931  6943       L1     9  0.67
      P1  H  6934  6947       L1     9  1.00

> <Gold.PLP.Chemscore.Internal.Correction>
0.1747

> <Gold.Rescore>
     Score         DG    S(hbond)    S(metal)    S(lipo)     H(rot)  DE(clash)    DE(int)     intcor
     12.67     -15.46       1.75        0.00      76.32       1.88       0.06       2.72       ----

> <Gold.Chemscore.Fitness>
12.6709

> <Gold.Chemscore.DG>
-15.4575

> <Gold.Chemscore.ZeroCoef>
-5.4800

> <Gold.Chemscore.Hbond>
1.7532

> <Gold.Chemscore.Metal>
0.0000

> <Gold.Chemscore.Lipo>
76.3170

> <Gold.Chemscore.Internal_Hbond>
0.0000

> <Gold.Chemscore.DEClash>
0.0621

> <Gold.Chemscore.DEInternal>
2.7244

> <Gold.Chemscore.Rot>
1.8779

> <Gold.Chemscore.Internal.Correction>
   9.000000E+99

> <Gold.Chemscore.Hbonds>
donor molecule, donor type, donor heavy atom, donor atom, acceptor molecule, acceptor atom, score
      P1  H  6896  6908       L1     8  1.00
      P1  H  6931  6943       L1     9  0.04
      P1  H  6934  6947       L1     9  0.28

> <Gold.Chemscore.Hbond.Weighted>
-5.8558

> <Gold.Chemscore.Metal.Weighted>
-0.0000

> <Gold.Chemscore.Lipo.Weighted>
-8.9291

> <Gold.Chemscore.Internal_Hbond.Weighted>
0.0000

> <Gold.Chemscore.DEClash.Weighted>
0.0621

> <Gold.Chemscore.DEInternal.Weighted>
2.7244

> <Gold.Chemscore.Rot.Weighted>
4.8074

> <Gold.Chemscore.Internal.Correction.Weighted>
   9.000000E+99

> <Gold.Protein.RotatedTorsions>
[ 6907 6896 6895 6894 ] final  172.45 input  -60.11 | X-H torsion
[ 7974 7965 7964 7962 ] final   15.71 input  175.53 | X-H torsion
[ 8008 7997 7996 7995 ] final  -38.01 input   59.86 | X-H torsion
[ 10167 10162 10161 10158 ] final   66.33 input  -65.29 | X-H torsion
[ 10718 10713 10712 10709 ] final  165.43 input   66.30 | X-H torsion
[ 10763 10752 10751 10750 ] final   42.62 input  -60.55 | X-H torsion
[ 11005 11000 10999 10996 ] final -153.65 input  -57.11 | X-H torsion

> <Gold.Protein.ActiveResidues>
 VAL166  LYS551  ARG553  GLY616  TRP617  ASP618  TYR619  PRO620  LYS621  CYS622 
 ASP623  PHE694  ASN695  SER759  ASP760  ASP761  ALA762  ILE779  LEU786  VAL792 
 PHE793  MET794  SER795  GLU796  ALA797  LYS798  CYS799  TRP800  GLU811  SER814 

> <Gold.Protein.RotatedAtoms>
  151.7841  133.3352  159.3479 H   0  0  0  0  0  0  0  0  0  0  0  0  # atno 6907 bound_to 6896
  150.7415  134.5903  159.5993 H   0  0  0  0  0  0  0  0  0  0  0  0  # atno 6908 bound_to 6896
  152.3256  134.7327  160.0354 H   0  0  0  0  0  0  0  0  0  0  0  0  # atno 6909 bound_to 6896
  146.2270  139.8854  142.8563 H   0  0  0  0  0  0  0  0  0  0  0  0  # atno 7974 bound_to 7965
  154.4044  140.1589  156.2630 H   0  0  0  0  0  0  0  0  0  0  0  0  # atno 8008 bound_to 7997
  155.9020  140.3432  155.6011 H   0  0  0  0  0  0  0  0  0  0  0  0  # atno 8009 bound_to 7997
  155.7437  140.0796  157.2224 H   0  0  0  0  0  0  0  0  0  0  0  0  # atno 8010 bound_to 7997
  140.1015  144.4899  150.7034 H   0  0  0  0  0  0  0  0  0  0  0  0  # atno 10167 bound_to 10162
  157.0802  131.0390  151.2578 H   0  0  0  0  0  0  0  0  0  0  0  0  # atno 10718 bound_to 10713
  152.9879  135.6126  154.2978 H   0  0  0  0  0  0  0  0  0  0  0  0  # atno 10763 bound_to 10752
  154.2700  135.2780  155.2744 H   0  0  0  0  0  0  0  0  0  0  0  0  # atno 10764 bound_to 10752
  154.5130  135.5835  153.6677 H   0  0  0  0  0  0  0  0  0  0  0  0  # atno 10765 bound_to 10752
  140.7058  134.3887  157.5204 H   0  0  0  0  0  0  0  0  0  0  0  0  # atno 11005 bound_to 11000
  145.2470  141.0030  143.3903 LP  0  0  0  0  0  0  0  0  0  0  0  0  # atno 17320 bound_to 7965
  144.9405  139.4194  143.6451 LP  0  0  0  0  0  0  0  0  0  0  0  0  # atno 17321 bound_to 7965
  140.6975  143.2413  151.4960 LP  0  0  0  0  0  0  0  0  0  0  0  0  # atno 17342 bound_to 10162
  139.5668  144.2022  152.1777 LP  0  0  0  0  0  0  0  0  0  0  0  0  # atno 17343 bound_to 10162
  157.4806  130.7763  149.7410 LP  0  0  0  0  0  0  0  0  0  0  0  0  # atno 17370 bound_to 10713
  155.9926  130.3930  150.2937 LP  0  0  0  0  0  0  0  0  0  0  0  0  # atno 17371 bound_to 10713
  139.8884  134.8856  156.2474 LP  0  0  0  0  0  0  0  0  0  0  0  0  # atno 17394 bound_to 11000
  141.0126  133.7087  156.1136 LP  0  0  0  0  0  0  0  0  0  0  0  0  # atno 17395 bound_to 11000

$$$$
