AV-unprocessed.smi:287|AV-procd|sdf|2199|dock7
  -GOLD-   2262022 13D 1   1.00000     0.00000
 Structure written by MMmdl.
 55 58  0  0  0  0  0  0  0  0  1 V2000
  152.3807  141.6883  158.7006 C   0  0  0  0  0  0  0  0  0  0  0  0
  151.6237  141.2729  157.4860 C   0  0  0  0  0  0  0  0  0  0  0  0
  150.5020  141.7414  156.8668 C   0  0  0  0  0  0  0  0  0  0  0  0
  150.2591  140.9069  155.7352 C   0  0  0  0  0  0  0  0  0  0  0  0
  149.1045  141.0510  154.7524 C   0  0  1  0  0  0  0  0  0  0  0  0
  147.7659  140.9397  155.5005 C   0  0  0  0  0  0  0  0  0  0  0  0
  149.0758  142.3154  154.1188 O   0  0  0  0  0  0  0  0  0  0  0  0
  149.1686  140.0049  153.6157 C   0  0  0  0  0  0  0  0  0  0  0  0
  147.8955  139.8512  152.9197 N   0  0  0  0  0  0  0  0  0  0  0  0
  147.0653  138.8352  153.2326 C   0  0  0  0  0  0  0  0  0  0  0  0
  146.6834  138.6110  154.5169 N   0  0  0  0  0  0  0  0  0  0  0  0
  145.8636  137.5940  154.7992 C   0  0  0  0  0  0  0  0  0  0  0  0
  145.3233  136.7019  153.9663 N   0  0  0  0  0  0  0  0  0  0  0  0
  145.7013  136.9255  152.6742 C   0  0  0  0  0  0  0  0  0  0  0  0
  146.5647  137.9655  152.2304 C   0  0  0  0  0  0  0  0  0  0  0  0
  146.7301  137.8870  150.8539 N   0  0  0  0  0  0  0  0  0  0  0  0
  146.0030  136.8593  150.5076 C   0  0  0  0  0  0  0  0  0  0  0  0
  145.3492  136.2226  151.5392 N   0  0  0  0  0  0  0  0  0  0  0  0
  144.4505  135.0333  151.4464 C   0  0  1  0  0  0  0  0  0  0  0  0
  144.2253  134.7589  150.1009 O   0  0  0  0  0  0  0  0  0  0  0  0
  144.1284  133.3532  149.9252 C   0  0  1  0  0  0  0  0  0  0  0  0
  144.3446  132.9667  148.4518 C   0  0  0  0  0  0  0  0  0  0  0  0
  143.3103  133.5024  147.6547 O   0  0  0  0  0  0  0  0  0  0  0  0
  145.1608  132.8003  150.9204 C   0  0  1  0  0  0  0  0  0  0  0  0
  146.4600  132.7613  150.3599 O   0  0  0  0  0  0  0  0  0  0  0  0
  145.1068  133.7935  152.0793 C   0  0  2  0  0  0  0  0  0  0  0  0
  144.2999  133.2666  153.1142 O   0  0  0  0  0  0  0  0  0  0  0  0
  151.2821  139.9890  155.7508 C   0  0  0  0  0  0  0  0  0  0  0  0
  151.6611  138.8412  154.8739 C   0  0  0  0  0  0  0  0  0  0  0  0
  152.1114  140.2026  156.8106 O   0  0  0  0  0  0  0  0  0  0  0  0
  143.5243  135.3401  151.9350 H   0  0  0  0  0  0  0  0  0  0  0  0
  143.1377  133.0340  150.2558 H   0  0  0  0  0  0  0  0  0  0  0  0
  144.9105  131.7837  151.2273 H   0  0  0  0  0  0  0  0  0  0  0  0
  146.0958  134.0262  152.4789 H   0  0  0  0  0  0  0  0  0  0  0  0
  151.8379  142.4550  159.2537 H   0  0  0  0  0  0  0  0  0  0  0  0
  153.3551  142.0938  158.4282 H   0  0  0  0  0  0  0  0  0  0  0  0
  152.5394  140.8402  159.3669 H   0  0  0  0  0  0  0  0  0  0  0  0
  149.9132  142.5858  157.1935 H   0  0  0  0  0  0  0  0  0  0  0  0
  147.6695  139.9737  155.9976 H   0  0  0  0  0  0  0  0  0  0  0  0
  146.9182  141.0432  154.8219 H   0  0  0  0  0  0  0  0  0  0  0  0
  147.6738  141.7122  156.2652 H   0  0  0  0  0  0  0  0  0  0  0  0
  148.8324  142.9660  154.7594 H   0  0  0  0  0  0  0  0  0  0  0  0
  149.9008  140.3387  152.8787 H   0  0  0  0  0  0  0  0  0  0  0  0
  149.5182  139.0408  153.9882 H   0  0  0  0  0  0  0  0  0  0  0  0
  147.7291  140.4912  152.1559 H   0  0  0  0  0  0  0  0  0  0  0  0
  145.6032  137.4777  155.8407 H   0  0  0  0  0  0  0  0  0  0  0  0
  145.9205  136.5366  149.4800 H   0  0  0  0  0  0  0  0  0  0  0  0
  145.3158  133.3068  148.0905 H   0  0  0  0  0  0  0  0  0  0  0  0
  144.3141  131.8830  148.3378 H   0  0  0  0  0  0  0  0  0  0  0  0
  143.1176  132.8907  146.9605 H   0  0  0  0  0  0  0  0  0  0  0  0
  147.0814  133.0327  151.0175 H   0  0  0  0  0  0  0  0  0  0  0  0
  144.2165  132.3344  152.9849 H   0  0  0  0  0  0  0  0  0  0  0  0
  151.7905  139.1694  153.8426 H   0  0  0  0  0  0  0  0  0  0  0  0
  150.8901  138.0710  154.8918 H   0  0  0  0  0  0  0  0  0  0  0  0
  152.5964  138.3861  155.2003 H   0  0  0  0  0  0  0  0  0  0  0  0
  1  2  1  0  0  0  0
  1 35  1  0  0  0  0
  1 36  1  0  0  0  0
  1 37  1  0  0  0  0
  2 30  1  0  0  0  0
  2  3  2  0  0  0  0
  3  4  1  0  0  0  0
  3 38  1  0  0  0  0
  4  5  1  0  0  0  0
  4 28  2  0  0  0  0
  5  6  1  0  0  0  0
  5  7  1  0  0  0  0
  5  8  1  0  0  0  0
  6 39  1  0  0  0  0
  6 40  1  0  0  0  0
  6 41  1  0  0  0  0
  7 42  1  0  0  0  0
  8  9  1  0  0  0  0
  8 43  1  0  0  0  0
  8 44  1  0  0  0  0
  9 10  1  0  0  0  0
  9 45  1  0  0  0  0
 10 15  1  0  0  0  0
 10 11  2  0  0  0  0
 11 12  1  0  0  0  0
 12 13  2  0  0  0  0
 12 46  1  0  0  0  0
 13 14  1  0  0  0  0
 14 18  1  0  0  0  0
 14 15  2  0  0  0  0
 15 16  1  0  0  0  0
 16 17  2  0  0  0  0
 17 18  1  0  0  0  0
 17 47  1  0  0  0  0
 18 19  1  0  0  0  0
 19 31  1  0  0  0  0
 19 26  1  0  0  0  0
 19 20  1  0  0  0  0
 20 21  1  0  0  0  0
 21 32  1  0  0  0  0
 21 22  1  0  0  0  0
 21 24  1  0  0  0  0
 22 23  1  0  0  0  0
 22 48  1  0  0  0  0
 22 49  1  0  0  0  0
 23 50  1  0  0  0  0
 24 33  1  0  0  0  0
 24 25  1  0  0  0  0
 24 26  1  0  0  0  0
 25 51  1  0  0  0  0
 26 34  1  0  0  0  0
 26 27  1  0  0  0  0
 27 52  1  0  0  0  0
 28 29  1  0  0  0  0
 28 30  1  0  0  0  0
 29 53  1  0  0  0  0
 29 54  1  0  0  0  0
 29 55  1  0  0  0  0
M  END
> <s_m_source_file>
AV-unprocessed.smi

> <i_m_source_file_index>
287

> <i_lp_mmshare_version>
43012

> <i_f3d_flags>
0

> <s_epik_input>
W0NIM11jMVtjSF1jKGMobzEpW0NIM10pW0NAQF0oW0NIM10pKFtPSF0pW0NIMl1bTkhdYyhuW2NIXW4yKWMoYzIzKW5bY0hdbjNbQ0BASF00T1tDQEhdKFtDSDJdW09IXSlbQ0BASF0oW09IXSlbQ0BIXTRbT0hd

> <s_epik_cmdline>
J2VwaWtfcHl0aG9uJywgJy1waCcsICc3LjAnLCAnLXRuJywgJzgnLCAnLW1hJywgJzIwMCcsICctbWV0YWxfYmluZGluZycsICctaW1hZScsICc8aW5maWxlLm1hZT4nLCAnLW9tYWUnLCAnPG91dGZpbGUubWFlPic=

> <r_lp_tautomer_probability>
1

> <r_epik_Ionization_Penalty>
0.000992612

> <r_epik_Ionization_Penalty_Charging>
0

> <r_epik_Ionization_Penalty_Neutral>
0.000992612

> <r_epik_State_Penalty>
-0

> <r_epik_Charging_Adjusted_Penalty>
0

> <i_epik_Tot_Q>
0

> <i_epik_Tot_abs_Q>
0

> <r_epik_Metal_State_Penalty>
-0

> <b_epik_Metal_Only>
0

> <s_epik_Chemistry_Notes>
This compound contains an acetal/aminal-like group ( X-CH(R)-Y where X, Y are N, S, or O) that may be acid/base labile, releasing an aldehyde.

> <s_lp_Force_Field>
OPLS_2005

> <r_lp_Energy>
38.8116

> <b_lp_Chiralities_Consistent>
1

> <s_lp_Variant>
AV-unprocessed.smi:287-23

> <Gold.Version>
5.8.1

> <Gold.Id.Protein>
6NUR|6NUR_protein|mol2

> <Gold.PLP.Fitness>
59.9133

> <Gold.PLP.PLP>
-45.6383

> <Gold.PLP.part.hbond>
-9.8559

> <Gold.PLP.part.metal>
0.0000

> <Gold.PLP.part.buried>
5.8728

> <Gold.PLP.part.nonpolar>
-42.8628

> <Gold.PLP.part.repulsive>
2.4092

> <Gold.PLP.ligand.clash>
0.0052

> <Gold.PLP.ligand.torsion>
1.0121

> <Gold.PLP.Chemscore.Hbond>
4.4823

> <Gold.PLP.Chemscore.CHOScore>
0.9247

> <Gold.PLP.Chemscore.Metal>
0.0000

> <Gold.Chemscore.Hbonds>
donor molecule, donor type, donor heavy atom, donor atom, acceptor molecule, acceptor atom, score
      L1  H     7    42       P1  8028  1.00
      L1  H    23    50       P1 10195  0.50
      P1  H  7954  7966       L1    16  1.00
      P1  H  7997  8010       L1    30  0.44
      P1  H  8011  8017       L1     7  0.22
      P1  H 10192 10197       L1    23  0.68
      L1  C    17    47       P1  7921  1.00

> <Gold.PLP.Chemscore.Internal.Correction>
0.0834

> <Gold.Rescore>
     Score         DG    S(hbond)    S(metal)    S(lipo)     H(rot)  DE(clash)    DE(int)     intcor
      4.16     -14.04       2.85        0.00     106.98       5.27       6.50       3.38       ----

> <Gold.Chemscore.Fitness>
4.1595

> <Gold.Chemscore.DG>
-14.0403

> <Gold.Chemscore.ZeroCoef>
-5.4800

> <Gold.Chemscore.Hbond>
2.8527

> <Gold.Chemscore.Metal>
0.0000

> <Gold.Chemscore.Lipo>
106.9761

> <Gold.Chemscore.Internal_Hbond>
0.0000

> <Gold.Chemscore.DEClash>
6.5001

> <Gold.Chemscore.DEInternal>
3.3807

> <Gold.Chemscore.Rot>
5.2672

> <Gold.Chemscore.Internal.Correction>
   9.000000E+99

> <Gold.Chemscore.Hbonds>
donor molecule, donor type, donor heavy atom, donor atom, acceptor molecule, acceptor atom, score
      L1  H     7    42       P1  8028  0.97
      L1  H     9    45       P1  7957  0.01
      L1  H    23    50       P1 10195  0.49
      P1  H  7954  7966       L1    16  0.65
      P1  H  7997  8010       L1    30  0.39
      P1  H  8011  8017       L1     7  0.21
      P1  H 10192 10197       L1    23  0.21

> <Gold.Chemscore.Hbond.Weighted>
-9.5280

> <Gold.Chemscore.Metal.Weighted>
-0.0000

> <Gold.Chemscore.Lipo.Weighted>
-12.5162

> <Gold.Chemscore.Internal_Hbond.Weighted>
0.0000

> <Gold.Chemscore.DEClash.Weighted>
6.5001

> <Gold.Chemscore.DEInternal.Weighted>
3.3807

> <Gold.Chemscore.Rot.Weighted>
13.4839

> <Gold.Chemscore.Internal.Correction.Weighted>
   9.000000E+99

> <Gold.Protein.RotatedTorsions>
[ 6907 6896 6895 6894 ] final  147.06 input  -60.11 | X-H torsion
[ 7974 7965 7964 7962 ] final  121.77 input  175.53 | X-H torsion
[ 8008 7997 7996 7995 ] final   72.56 input   59.86 | X-H torsion
[ 10167 10162 10161 10158 ] final -144.67 input  -65.29 | X-H torsion
[ 10718 10713 10712 10709 ] final   59.87 input   66.30 | X-H torsion
[ 10763 10752 10751 10750 ] final  -35.09 input  -60.55 | X-H torsion
[ 11005 11000 10999 10996 ] final  123.96 input  -57.11 | X-H torsion

> <Gold.Protein.ActiveResidues>
 VAL166  LYS551  ARG553  GLY616  TRP617  ASP618  TYR619  PRO620  LYS621  CYS622 
 ASP623  PHE694  ASN695  SER759  ASP760  ASP761  ALA762  ILE779  LEU786  VAL792 
 PHE793  MET794  SER795  GLU796  ALA797  LYS798  CYS799  TRP800  GLU811  SER814 

> <Gold.Protein.RotatedAtoms>
  152.1597  133.4574  159.4854 H   0  0  0  0  0  0  0  0  0  0  0  0  # atno 6907 bound_to 6896
  150.6905  134.2087  159.4360 H   0  0  0  0  0  0  0  0  0  0  0  0  # atno 6908 bound_to 6896
  151.9988  134.9939  160.0615 H   0  0  0  0  0  0  0  0  0  0  0  0  # atno 6909 bound_to 6896
  145.1153  139.3425  143.4742 H   0  0  0  0  0  0  0  0  0  0  0  0  # atno 7974 bound_to 7965
  155.7707  140.3484  155.5245 H   0  0  0  0  0  0  0  0  0  0  0  0  # atno 8008 bound_to 7997
  155.8824  140.1004  157.1496 H   0  0  0  0  0  0  0  0  0  0  0  0  # atno 8009 bound_to 7997
  154.4026  140.1320  156.4201 H   0  0  0  0  0  0  0  0  0  0  0  0  # atno 8010 bound_to 7997
  139.7878  143.8010  152.2646 H   0  0  0  0  0  0  0  0  0  0  0  0  # atno 10167 bound_to 10162
  157.5709  130.8907  149.9265 H   0  0  0  0  0  0  0  0  0  0  0  0  # atno 10718 bound_to 10713
  153.8575  135.6843  153.4786 H   0  0  0  0  0  0  0  0  0  0  0  0  # atno 10763 bound_to 10752
  153.1361  135.4677  154.9422 H   0  0  0  0  0  0  0  0  0  0  0  0  # atno 10764 bound_to 10752
  154.7774  135.3257  154.8012 H   0  0  0  0  0  0  0  0  0  0  0  0  # atno 10765 bound_to 10752
  139.9337  134.9640  156.8338 H   0  0  0  0  0  0  0  0  0  0  0  0  # atno 11005 bound_to 11000
  146.3524  140.1090  142.8604 LP  0  0  0  0  0  0  0  0  0  0  0  0  # atno 17320 bound_to 7965
  145.0800  140.9215  143.4831 LP  0  0  0  0  0  0  0  0  0  0  0  0  # atno 17321 bound_to 7965
  139.8092  144.7343  150.9721 LP  0  0  0  0  0  0  0  0  0  0  0  0  # atno 17342 bound_to 10162
  140.7820  143.4268  151.0756 LP  0  0  0  0  0  0  0  0  0  0  0  0  # atno 17343 bound_to 10162
  156.0755  130.3679  150.0687 LP  0  0  0  0  0  0  0  0  0  0  0  0  # atno 17370 bound_to 10713
  156.8840  130.9566  151.3596 LP  0  0  0  0  0  0  0  0  0  0  0  0  # atno 17371 bound_to 10713
  140.6134  134.0061  155.7586 LP  0  0  0  0  0  0  0  0  0  0  0  0  # atno 17394 bound_to 11000
  141.0939  133.9874  157.3192 LP  0  0  0  0  0  0  0  0  0  0  0  0  # atno 17395 bound_to 11000

$$$$
