AV-unprocessed.smi:2002|AV-procd|sdf|8116|dock8
  -GOLD-   2272010353D 1   1.00000     0.00000
 Structure written by MMmdl.
 39 40  0  0  0  0  0  0  0  0  2 V2000
  145.8971  133.2559  150.6076 C   0  0  0  0  0  0  0  0  0  0  0  0
  145.9769  132.0855  151.5969 C   0  0  0  0  0  0  0  0  0  0  0  0
  147.3591  131.8503  152.0780 N   0  3  2  0  0  0  0  0  0  0  0  0
  147.5101  130.6461  152.9293 C   0  0  0  0  0  0  0  0  0  0  0  0
  148.3075  131.0744  154.1655 C   0  0  0  0  0  0  0  0  0  0  0  0
  149.0103  132.3613  153.7336 C   0  0  2  0  0  0  0  0  0  0  0  0
  149.4517  133.2871  154.8834 C   0  0  0  0  0  0  0  0  0  0  0  0
  150.0853  134.5066  154.3904 N   0  0  0  0  0  0  0  0  0  0  0  0
  150.3970  135.5778  155.1352 C   0  0  0  0  0  0  0  0  0  0  0  0
  150.1832  135.6468  156.3455 O   0  0  0  0  0  0  0  0  0  0  0  0
  150.9726  136.5367  154.3905 N   0  0  0  0  0  0  0  0  0  0  0  0
  151.4253  137.8178  154.7993 C   0  0  0  0  0  0  0  0  0  0  0  0
  150.6722  138.7885  155.5224 C   0  0  0  0  0  0  0  0  0  0  0  0
  151.5507  139.8275  155.6460 C   0  0  0  0  0  0  0  0  0  0  0  0
  151.4473  141.1723  156.2796 C   0  0  0  0  0  0  0  0  0  0  0  0
  152.7358  139.5195  155.0538 O   0  0  0  0  0  0  0  0  0  0  0  0
  152.6458  138.2317  154.5123 N   0  0  0  0  0  0  0  0  0  0  0  0
  147.9716  132.9866  152.8020 C   0  0  0  0  0  0  0  0  0  0  0  0
  144.8798  133.3741  150.2335 H   0  0  0  0  0  0  0  0  0  0  0  0
  146.5481  133.0916  149.7484 H   0  0  0  0  0  0  0  0  0  0  0  0
  146.1851  134.1986  151.0734 H   0  0  0  0  0  0  0  0  0  0  0  0
  145.3111  132.2557  152.4443 H   0  0  0  0  0  0  0  0  0  0  0  0
  145.6232  131.1827  151.0967 H   0  0  0  0  0  0  0  0  0  0  0  0
  146.5510  130.2134  153.2179 H   0  0  0  0  0  0  0  0  0  0  0  0
  148.0552  129.8911  152.3623 H   0  0  0  0  0  0  0  0  0  0  0  0
  147.6188  131.2846  154.9850 H   0  0  0  0  0  0  0  0  0  0  0  0
  149.0014  130.3042  154.5036 H   0  0  0  0  0  0  0  0  0  0  0  0
  149.8846  132.0928  153.1379 H   0  0  0  0  0  0  0  0  0  0  0  0
  148.5794  133.5825  155.4670 H   0  0  0  0  0  0  0  0  0  0  0  0
  150.1120  132.7584  155.5731 H   0  0  0  0  0  0  0  0  0  0  0  0
  150.2960  134.5403  153.4034 H   0  0  0  0  0  0  0  0  0  0  0  0
  151.1043  136.3272  153.4120 H   0  0  0  0  0  0  0  0  0  0  0  0
  149.6587  138.7491  155.8915 H   0  0  0  0  0  0  0  0  0  0  0  0
  150.4177  141.3895  156.5647 H   0  0  0  0  0  0  0  0  0  0  0  0
  151.7781  141.9509  155.5921 H   0  0  0  0  0  0  0  0  0  0  0  0
  152.0653  141.2257  157.1758 H   0  0  0  0  0  0  0  0  0  0  0  0
  148.4129  133.7082  152.1139 H   0  0  0  0  0  0  0  0  0  0  0  0
  147.2102  133.5036  153.3891 H   0  0  0  0  0  0  0  0  0  0  0  0
  147.9340  131.6842  151.2640 H   0  0  0  0  0  0  0  0  0  0  0  0
  1  2  1  0  0  0  0
  1 19  1  0  0  0  0
  1 20  1  0  0  0  0
  1 21  1  0  0  0  0
  2  3  1  0  0  0  0
  2 22  1  0  0  0  0
  2 23  1  0  0  0  0
  3 18  1  0  0  0  0
  3  4  1  0  0  0  0
  3 39  1  0  0  0  0
  4  5  1  0  0  0  0
  4 24  1  0  0  0  0
  4 25  1  0  0  0  0
  5  6  1  0  0  0  0
  5 26  1  0  0  0  0
  5 27  1  0  0  0  0
  6  7  1  0  0  0  0
  6 18  1  0  0  0  0
  6 28  1  0  0  0  0
  7  8  1  0  0  0  0
  7 29  1  0  0  0  0
  7 30  1  0  0  0  0
  8  9  1  0  0  0  0
  8 31  1  0  0  0  0
  9 10  2  0  0  0  0
  9 11  1  0  0  0  0
 11 12  1  0  0  0  0
 11 32  1  0  0  0  0
 12 17  2  0  0  0  0
 12 13  1  0  0  0  0
 13 14  2  0  0  0  0
 13 33  1  0  0  0  0
 14 15  1  0  0  0  0
 14 16  1  0  0  0  0
 15 34  1  0  0  0  0
 15 35  1  0  0  0  0
 15 36  1  0  0  0  0
 16 17  1  0  0  0  0
 18 37  1  0  0  0  0
 18 38  1  0  0  0  0
M  CHG  1   3   1
M  END
> <s_m_source_file>
AV-unprocessed.smi

> <i_m_source_file_index>
2002

> <i_lp_mmshare_version>
43012

> <i_f3d_flags>
0

> <s_epik_input>
W0NIM11bQ0gyXU4xW0NIMl1bQ0gyXVtDQEhdKFtDSDJdMSlbQ0gyXVtOSF1DKD1PKVtOSF1jMltjSF1jKFtDSDNdKW9uMg==

> <s_epik_cmdline>
J2VwaWtfcHl0aG9uJywgJy1waCcsICc3LjAnLCAnLXRuJywgJzgnLCAnLW1hJywgJzIwMCcsICctbWV0YWxfYmluZGluZycsICctaW1hZScsICc8aW5maWxlLm1hZT4nLCAnLW9tYWUnLCAnPG91dGZpbGUubWFlPic=

> <r_epik_Ionization_Penalty>
0.000632871

> <r_epik_Ionization_Penalty_Charging>
0.000610951

> <r_epik_Ionization_Penalty_Neutral>
2.19198e-05

> <r_epik_State_Penalty>
0.000385263

> <r_epik_Charging_Adjusted_Penalty>
0.000996214

> <i_epik_Tot_Q>
1

> <i_epik_Tot_abs_Q>
1

> <r_epik_Metal_State_Penalty>
-0

> <b_epik_Metal_Only>
0

> <s_lp_Force_Field>
OPLS_2005

> <r_lp_Energy>
28.1542

> <b_lp_Chiralities_Consistent>
1

> <s_lp_Variant>
AV-unprocessed.smi:2002-4

> <Gold.Version>
5.8.1

> <Gold.Id.Protein>
6NUR|6NUR_protein|mol2

> <Gold.PLP.Fitness>
41.0594

> <Gold.PLP.PLP>
-33.0838

> <Gold.PLP.part.hbond>
-5.2292

> <Gold.PLP.part.metal>
0.0000

> <Gold.PLP.part.buried>
-3.4749

> <Gold.PLP.part.nonpolar>
-24.4354

> <Gold.PLP.part.repulsive>
0.2449

> <Gold.PLP.ligand.clash>
0.0000

> <Gold.PLP.ligand.torsion>
0.5191

> <Gold.PLP.Chemscore.Hbond>
3.0000

> <Gold.PLP.Chemscore.CHOScore>
0.0000

> <Gold.PLP.Chemscore.Metal>
0.0000

> <Gold.Chemscore.Hbonds>
donor molecule, donor type, donor heavy atom, donor atom, acceptor molecule, acceptor atom, score
      L1  H     3    39       P1 10747  1.00
      L1  H    11    32       P1  7949  1.00
      P1  H  7997  8008       L1    16  1.00

> <Gold.PLP.Chemscore.Internal.Correction>
0.0138

> <Gold.Rescore>
     Score         DG    S(hbond)    S(metal)    S(lipo)     H(rot)  DE(clash)    DE(int)     intcor
     16.02     -16.79       2.34        0.00      63.30       1.52       0.23       0.54       ----

> <Gold.Chemscore.Fitness>
16.0176

> <Gold.Chemscore.DG>
-16.7881

> <Gold.Chemscore.ZeroCoef>
-5.4800

> <Gold.Chemscore.Hbond>
2.3351

> <Gold.Chemscore.Metal>
0.0000

> <Gold.Chemscore.Lipo>
63.2981

> <Gold.Chemscore.Internal_Hbond>
0.0000

> <Gold.Chemscore.DEClash>
0.2297

> <Gold.Chemscore.DEInternal>
0.5408

> <Gold.Chemscore.Rot>
1.5223

> <Gold.Chemscore.Internal.Correction>
   9.000000E+99

> <Gold.Chemscore.Hbonds>
donor molecule, donor type, donor heavy atom, donor atom, acceptor molecule, acceptor atom, score
      L1  H     3    39       P1 10747  0.99
      L1  H    11    32       P1  7949  0.34
      P1  H  7997  8008       L1    16  0.88

> <Gold.Chemscore.Hbond.Weighted>
-7.7993

> <Gold.Chemscore.Metal.Weighted>
-0.0000

> <Gold.Chemscore.Lipo.Weighted>
-7.4059

> <Gold.Chemscore.Internal_Hbond.Weighted>
0.0000

> <Gold.Chemscore.DEClash.Weighted>
0.2297

> <Gold.Chemscore.DEInternal.Weighted>
0.5408

> <Gold.Chemscore.Rot.Weighted>
3.8971

> <Gold.Chemscore.Internal.Correction.Weighted>
   9.000000E+99

> <Gold.Protein.RotatedTorsions>
[ 6907 6896 6895 6894 ] final -120.36 input  -60.11 | X-H torsion
[ 7974 7965 7964 7962 ] final -148.99 input  175.53 | X-H torsion
[ 8008 7997 7996 7995 ] final  -21.66 input   59.86 | X-H torsion
[ 10167 10162 10161 10158 ] final   22.45 input  -65.29 | X-H torsion
[ 10718 10713 10712 10709 ] final -124.36 input   66.30 | X-H torsion
[ 10763 10752 10751 10750 ] final  -19.54 input  -60.55 | X-H torsion
[ 11005 11000 10999 10996 ] final   15.27 input  -57.11 | X-H torsion

> <Gold.Protein.ActiveResidues>
 VAL166  LYS551  ARG553  GLY616  TRP617  ASP618  TYR619  PRO620  LYS621  CYS622 
 ASP623  PHE694  ASN695  SER759  ASP760  ASP761  ALA762  ILE779  LEU786  VAL792 
 PHE793  MET794  SER795  GLU796  ALA797  LYS798  CYS799  TRP800  GLU811  SER814 

> <Gold.Protein.RotatedAtoms>
  150.8386  133.7972  159.3069 H   0  0  0  0  0  0  0  0  0  0  0  0  # atno 6907 bound_to 6896
  151.5681  135.1062  159.9998 H   0  0  0  0  0  0  0  0  0  0  0  0  # atno 6908 bound_to 6896
  152.4454  133.7484  159.6736 H   0  0  0  0  0  0  0  0  0  0  0  0  # atno 6909 bound_to 6896
  144.7995  140.5124  143.5717 H   0  0  0  0  0  0  0  0  0  0  0  0  # atno 7974 bound_to 7965
  154.4692  140.2029  156.0039 H   0  0  0  0  0  0  0  0  0  0  0  0  # atno 8008 bound_to 7997
  156.0980  140.3248  155.7875 H   0  0  0  0  0  0  0  0  0  0  0  0  # atno 8009 bound_to 7997
  155.4845  140.0541  157.2953 H   0  0  0  0  0  0  0  0  0  0  0  0  # atno 8010 bound_to 7997
  140.5347  143.9781  150.6485 H   0  0  0  0  0  0  0  0  0  0  0  0  # atno 10167 bound_to 10162
  156.1581  130.6582  151.0010 H   0  0  0  0  0  0  0  0  0  0  0  0  # atno 10718 bound_to 10713
  153.6064  135.6997  153.5364 H   0  0  0  0  0  0  0  0  0  0  0  0  # atno 10763 bound_to 10752
  153.3053  135.4117  155.1288 H   0  0  0  0  0  0  0  0  0  0  0  0  # atno 10764 bound_to 10752
  154.8572  135.3659  154.5602 H   0  0  0  0  0  0  0  0  0  0  0  0  # atno 10765 bound_to 10752
  140.4602  134.1135  155.7715 H   0  0  0  0  0  0  0  0  0  0  0  0  # atno 11005 bound_to 11000
  145.5589  139.1479  143.3352 LP  0  0  0  0  0  0  0  0  0  0  0  0  # atno 17320 bound_to 7965
  146.2273  140.5725  142.8991 LP  0  0  0  0  0  0  0  0  0  0  0  0  # atno 17321 bound_to 7965
  140.3165  143.3164  152.0827 LP  0  0  0  0  0  0  0  0  0  0  0  0  # atno 17342 bound_to 10162
  139.4966  144.6602  151.6482 LP  0  0  0  0  0  0  0  0  0  0  0  0  # atno 17343 bound_to 10162
  157.6711  131.0861  150.7610 LP  0  0  0  0  0  0  0  0  0  0  0  0  # atno 17370 bound_to 10713
  156.7675  130.4818  149.5425 LP  0  0  0  0  0  0  0  0  0  0  0  0  # atno 17371 bound_to 10713
  141.1625  133.8766  157.1809 LP  0  0  0  0  0  0  0  0  0  0  0  0  # atno 17394 bound_to 11000
  139.9950  135.0050  157.0062 LP  0  0  0  0  0  0  0  0  0  0  0  0  # atno 17395 bound_to 11000

$$$$
