AV-unprocessed.smi:686|AV-procd|sdf|3349|dock6
  -GOLD-   22720 0323D 1   1.00000     0.00000
 Structure written by MMmdl.
 40 41  0  0  0  0  0  0  0  0  3 V2000
  150.4234  135.7984  155.0783 C   0  0  0  0  0  0  0  0  0  0  0  0
  149.9079  134.3543  155.2928 C   0  0  2  0  0  0  0  0  0  0  0  0
  149.7894  133.6141  153.9545 C   0  0  0  0  0  0  0  0  0  0  0  0
  148.4451  133.9539  153.4293 N   0  3  1  0  0  0  0  0  0  0  0  0
  147.8679  132.9895  152.4496 C   0  0  0  0  0  0  0  0  0  0  0  0
  146.5537  133.5128  151.8377 C   0  0  0  0  0  0  0  0  0  0  0  0
  147.6150  131.6192  153.1060 C   0  0  0  0  0  0  0  0  0  0  0  0
  147.5812  134.2752  154.5954 C   0  0  0  0  0  0  0  0  0  0  0  0
  148.4731  134.2156  155.8435 C   0  0  2  0  0  0  0  0  0  0  0  0
  148.1115  135.2303  156.8279 N   0  5  0  0  0  0  0  0  0  0  0  0
  147.6362  134.8307  158.3331 S   0  0  0  0  0  0  0  0  0  0  0  0
  146.2189  134.4416  158.4257 O   0  0  0  0  0  0  0  0  0  0  0  0
  148.6073  133.9252  158.9654 O   0  0  0  0  0  0  0  0  0  0  0  0
  147.8010  136.4367  159.2386 C   0  0  0  0  0  0  0  0  0  0  0  0
  147.2202  136.3078  160.6184 C   0  0  0  0  0  0  0  0  0  0  0  0
  147.1663  135.1569  161.4528 C   0  0  0  0  0  0  0  0  0  0  0  0
  146.5422  135.6083  162.5795 C   0  0  0  0  0  0  0  0  0  0  0  0
  146.2427  136.9263  162.4612 O   0  0  0  0  0  0  0  0  0  0  0  0
  146.6824  137.3649  161.2071 N   0  0  0  0  0  0  0  0  0  0  0  0
  149.7681  136.3884  154.4348 H   0  0  0  0  0  0  0  0  0  0  0  0
  151.4074  135.7854  154.6090 H   0  0  0  0  0  0  0  0  0  0  0  0
  150.5378  136.3354  156.0215 H   0  0  0  0  0  0  0  0  0  0  0  0
  150.6143  133.8366  155.9427 H   0  0  0  0  0  0  0  0  0  0  0  0
  150.5733  133.9001  153.2521 H   0  0  0  0  0  0  0  0  0  0  0  0
  149.8724  132.5336  154.1037 H   0  0  0  0  0  0  0  0  0  0  0  0
  148.5880  132.8574  151.6407 H   0  0  0  0  0  0  0  0  0  0  0  0
  146.1173  132.7761  151.1621 H   0  0  0  0  0  0  0  0  0  0  0  0
  146.7048  134.4211  151.2544 H   0  0  0  0  0  0  0  0  0  0  0  0
  145.8151  133.7288  152.6104 H   0  0  0  0  0  0  0  0  0  0  0  0
  147.1756  130.9210  152.3929 H   0  0  0  0  0  0  0  0  0  0  0  0
  146.9273  131.7054  153.9480 H   0  0  0  0  0  0  0  0  0  0  0  0
  148.5326  131.1597  153.4728 H   0  0  0  0  0  0  0  0  0  0  0  0
  147.1611  135.2700  154.4393 H   0  0  0  0  0  0  0  0  0  0  0  0
  146.7488  133.5787  154.7034 H   0  0  0  0  0  0  0  0  0  0  0  0
  148.3773  133.2099  156.2554 H   0  0  0  0  0  0  0  0  0  0  0  0
  148.8585  136.6954  159.2862 H   0  0  0  0  0  0  0  0  0  0  0  0
  147.2921  137.2169  158.6733 H   0  0  0  0  0  0  0  0  0  0  0  0
  147.5224  134.1577  161.2510 H   0  0  0  0  0  0  0  0  0  0  0  0
  146.2551  135.1374  163.5080 H   0  0  0  0  0  0  0  0  0  0  0  0
  148.5646  134.8286  152.9389 H   0  0  0  0  0  0  0  0  0  0  0  0
  1  2  1  0  0  0  0
  1 20  1  0  0  0  0
  1 21  1  0  0  0  0
  1 22  1  0  0  0  0
  2  9  1  0  0  0  0
  2  3  1  0  0  0  0
  2 23  1  0  0  0  0
  3  4  1  0  0  0  0
  3 24  1  0  0  0  0
  3 25  1  0  0  0  0
  4  5  1  0  0  0  0
  4  8  1  0  0  0  0
  4 40  1  0  0  0  0
  5  6  1  0  0  0  0
  5  7  1  0  0  0  0
  5 26  1  0  0  0  0
  6 27  1  0  0  0  0
  6 28  1  0  0  0  0
  6 29  1  0  0  0  0
  7 30  1  0  0  0  0
  7 31  1  0  0  0  0
  7 32  1  0  0  0  0
  8  9  1  0  0  0  0
  8 33  1  0  0  0  0
  8 34  1  0  0  0  0
  9 10  1  0  0  0  0
  9 35  1  0  0  0  0
 10 11  1  0  0  0  0
 11 12  2  0  0  0  0
 11 13  2  0  0  0  0
 11 14  1  0  0  0  0
 14 15  1  0  0  0  0
 14 36  1  0  0  0  0
 14 37  1  0  0  0  0
 15 19  2  0  0  0  0
 15 16  1  0  0  0  0
 16 17  2  0  0  0  0
 16 38  1  0  0  0  0
 17 18  1  0  0  0  0
 17 39  1  0  0  0  0
 18 19  1  0  0  0  0
M  CHG  1   4   1
M  CHG  1  10  -1
M  END
> <s_m_source_file>
AV-unprocessed.smi

> <i_m_source_file_index>
686

> <i_lp_mmshare_version>
43012

> <i_f3d_flags>
0

> <s_epik_input>
W0NIM11bQ0BASF0xW0NIMl1OKFtDSF0oW0NIM10pW0NIM10pW0NIMl1bQ0BIXTFbTkhdUyg9TykoPU8pW0NIMl1jMltjSF1bY0hdb24y

> <s_epik_cmdline>
J2VwaWtfcHl0aG9uJywgJy1waCcsICc3LjAnLCAnLXRuJywgJzgnLCAnLW1hJywgJzIwMCcsICctbWV0YWxfYmluZGluZycsICctaW1hZScsICc8aW5maWxlLm1hZT4nLCAnLW9tYWUnLCAnPG91dGZpbGUubWFlPic=

> <r_epik_Ionization_Penalty>
3.62478

> <r_epik_Ionization_Penalty_Charging>
3.62478

> <r_epik_Ionization_Penalty_Neutral>
2.03645e-10

> <r_epik_State_Penalty>
3.6247

> <r_epik_Charging_Adjusted_Penalty>
7.24949

> <i_epik_Tot_Q>
0

> <i_epik_Tot_abs_Q>
2

> <r_epik_Metal_State_Penalty>
0.530836

> <b_epik_Metal_Only>
1

> <s_lp_Force_Field>
OPLS_2005

> <r_lp_Energy>
21.5589

> <b_lp_Chiralities_Consistent>
1

> <s_lp_Variant>
AV-unprocessed.smi:686-13

> <Gold.Version>
5.8.1

> <Gold.Id.Protein>
6NUR|6NUR_protein|mol2

> <Gold.PLP.Fitness>
44.2166

> <Gold.PLP.PLP>
-30.9577

> <Gold.PLP.part.hbond>
-4.0000

> <Gold.PLP.part.metal>
0.0000

> <Gold.PLP.part.buried>
-5.3200

> <Gold.PLP.part.nonpolar>
-22.4745

> <Gold.PLP.part.repulsive>
0.0000

> <Gold.PLP.ligand.clash>
0.0000

> <Gold.PLP.ligand.torsion>
1.1442

> <Gold.PLP.Chemscore.Hbond>
4.8400

> <Gold.PLP.Chemscore.CHOScore>
0.0000

> <Gold.PLP.Chemscore.Metal>
0.0000

> <Gold.Chemscore.Hbonds>
donor molecule, donor type, donor heavy atom, donor atom, acceptor molecule, acceptor atom, score
      L1  H     4    40       P1  7948  2.00
      P1  H  6896  6908       L1    13  0.70
      P1  H  6934  6947       L1    19  1.00

> <Gold.PLP.Chemscore.Internal.Correction>
1.0274

> <Gold.Rescore>
     Score         DG    S(hbond)    S(metal)    S(lipo)     H(rot)  DE(clash)    DE(int)     intcor
     18.17     -19.57       3.16        0.00      65.59       1.61       0.08       1.31       ----

> <Gold.Chemscore.Fitness>
18.1745

> <Gold.Chemscore.DG>
-19.5651

> <Gold.Chemscore.ZeroCoef>
-5.4800

> <Gold.Chemscore.Hbond>
3.1573

> <Gold.Chemscore.Metal>
0.0000

> <Gold.Chemscore.Lipo>
65.5889

> <Gold.Chemscore.Internal_Hbond>
0.0000

> <Gold.Chemscore.DEClash>
0.0810

> <Gold.Chemscore.DEInternal>
1.3096

> <Gold.Chemscore.Rot>
1.6149

> <Gold.Chemscore.Internal.Correction>
   9.000000E+99

> <Gold.Chemscore.Hbonds>
donor molecule, donor type, donor heavy atom, donor atom, acceptor molecule, acceptor atom, score
      L1  H     4    40       P1  7948  0.40
      P1  H  6896  6908       L1    13  0.67
      P1  H  6934  6947       L1    19  0.98

> <Gold.Chemscore.Hbond.Weighted>
-10.5453

> <Gold.Chemscore.Metal.Weighted>
-0.0000

> <Gold.Chemscore.Lipo.Weighted>
-7.6739

> <Gold.Chemscore.Internal_Hbond.Weighted>
0.0000

> <Gold.Chemscore.DEClash.Weighted>
0.0810

> <Gold.Chemscore.DEInternal.Weighted>
1.3096

> <Gold.Chemscore.Rot.Weighted>
4.1341

> <Gold.Chemscore.Internal.Correction.Weighted>
   9.000000E+99

> <Gold.Protein.RotatedTorsions>
[ 6907 6896 6895 6894 ] final  126.43 input  -60.11 | X-H torsion
[ 7974 7965 7964 7962 ] final -129.15 input  175.53 | X-H torsion
[ 8008 7997 7996 7995 ] final  -73.71 input   59.86 | X-H torsion
[ 10167 10162 10161 10158 ] final  -85.94 input  -65.29 | X-H torsion
[ 10718 10713 10712 10709 ] final   35.72 input   66.30 | X-H torsion
[ 10763 10752 10751 10750 ] final  146.42 input  -60.55 | X-H torsion
[ 11005 11000 10999 10996 ] final  169.90 input  -57.11 | X-H torsion

> <Gold.Protein.ActiveResidues>
 VAL166  LYS551  ARG553  GLY616  TRP617  ASP618  TYR619  PRO620  LYS621  CYS622 
 ASP623  PHE694  ASN695  SER759  ASP760  ASP761  ALA762  ILE779  LEU786  VAL792 
 PHE793  MET794  SER795  GLU796  ALA797  LYS798  CYS799  TRP800  GLU811  SER814 

> <Gold.Protein.RotatedAtoms>
  152.3904  133.6670  159.6232 H   0  0  0  0  0  0  0  0  0  0  0  0  # atno 6907 bound_to 6896
  150.7813  133.8964  159.3337 H   0  0  0  0  0  0  0  0  0  0  0  0  # atno 6908 bound_to 6896
  151.6752  135.0971  160.0257 H   0  0  0  0  0  0  0  0  0  0  0  0  # atno 6909 bound_to 6896
  144.9600  140.7437  143.4735 H   0  0  0  0  0  0  0  0  0  0  0  0  # atno 7974 bound_to 7965
  154.5270  140.0774  156.8276 H   0  0  0  0  0  0  0  0  0  0  0  0  # atno 8008 bound_to 7997
  155.3455  140.3409  155.4221 H   0  0  0  0  0  0  0  0  0  0  0  0  # atno 8009 bound_to 7997
  156.1742  140.1630  156.8380 H   0  0  0  0  0  0  0  0  0  0  0  0  # atno 8010 bound_to 7997
  140.3989  143.2671  151.9168 H   0  0  0  0  0  0  0  0  0  0  0  0  # atno 10167 bound_to 10162
  157.3261  130.7473  149.6817 H   0  0  0  0  0  0  0  0  0  0  0  0  # atno 10718 bound_to 10713
  154.0216  135.2905  155.3380 H   0  0  0  0  0  0  0  0  0  0  0  0  # atno 10763 bound_to 10752
  154.7042  135.5176  153.8574 H   0  0  0  0  0  0  0  0  0  0  0  0  # atno 10764 bound_to 10752
  153.0678  135.6637  154.0437 H   0  0  0  0  0  0  0  0  0  0  0  0  # atno 10765 bound_to 10752
  140.3026  134.7582  157.3928 H   0  0  0  0  0  0  0  0  0  0  0  0  # atno 11005 bound_to 11000
  145.2714  139.1953  143.4840 LP  0  0  0  0  0  0  0  0  0  0  0  0  # atno 17320 bound_to 7965
  146.3350  140.2660  142.8604 LP  0  0  0  0  0  0  0  0  0  0  0  0  # atno 17321 bound_to 7965
  139.4785  144.5653  151.8175 LP  0  0  0  0  0  0  0  0  0  0  0  0  # atno 17342 bound_to 10162
  140.4760  144.1518  150.5925 LP  0  0  0  0  0  0  0  0  0  0  0  0  # atno 17343 bound_to 10162
  155.9691  130.4209  150.4443 LP  0  0  0  0  0  0  0  0  0  0  0  0  # atno 17370 bound_to 10713
  157.2467  131.0537  151.2404 LP  0  0  0  0  0  0  0  0  0  0  0  0  # atno 17371 bound_to 10713
  140.1095  134.5364  155.8279 LP  0  0  0  0  0  0  0  0  0  0  0  0  # atno 17394 bound_to 11000
  141.2125  133.6720  156.6663 LP  0  0  0  0  0  0  0  0  0  0  0  0  # atno 17395 bound_to 11000

$$$$
