AV-unprocessed.smi:837|AV-procd|sdf|3903|dock6
  -GOLD-   22720 1363D 1   1.00000     0.00000
 Structure written by MMmdl.
 48 50  0  0  0  0  0  0  0  0  2 V2000
  152.1590  138.0070  158.9602 C   0  0  0  0  0  0  0  0  0  0  0  0
  151.9714  139.5196  159.2086 C   0  0  1  0  0  0  0  0  0  0  0  0
  153.1907  140.1055  159.9538 C   0  0  0  0  0  0  0  0  0  0  0  0
  152.9868  141.5852  160.3114 C   0  0  0  0  0  0  0  0  0  0  0  0
  152.6767  142.4195  159.0620 C   0  0  0  0  0  0  0  0  0  0  0  0
  151.4584  141.8603  158.3069 C   0  0  0  0  0  0  0  0  0  0  0  0
  151.6181  140.3617  157.9390 C   0  0  1  0  0  0  0  0  0  0  0  0
  152.6155  140.2072  156.8914 N   0  5  0  0  0  0  0  0  0  0  0  0
  152.0154  139.7197  155.7811 C   0  0  0  0  0  0  0  0  0  0  0  0
  152.5526  139.4802  154.7001 O   0  0  0  0  0  0  0  0  0  0  0  0
  150.7014  139.5134  155.9916 N   0  0  0  0  0  0  0  0  0  0  0  0
  149.7608  139.0100  154.9822 C   0  0  0  0  0  0  0  0  0  0  0  0
  148.8755  140.1164  154.3937 C   0  0  0  0  0  0  0  0  0  0  0  0
  149.3736  141.0668  153.7891 O   0  0  0  0  0  0  0  0  0  0  0  0
  147.5567  139.9922  154.6049 N   0  0  0  0  0  0  0  0  0  0  0  0
  146.5426  140.9340  154.1419 C   0  0  0  0  0  0  0  0  0  0  0  0
  147.0064  142.3996  154.2424 C   0  0  0  0  0  0  0  0  0  0  0  0
  145.8586  143.3943  154.2367 C   0  0  0  0  0  0  0  0  0  0  0  0
  145.6038  144.2043  153.1104 C   0  0  0  0  0  0  0  0  0  0  0  0
  144.5323  145.1167  153.1603 C   0  0  0  0  0  0  0  0  0  0  0  0
  143.7595  145.1802  154.3369 C   0  0  0  0  0  0  0  0  0  0  0  0
  143.9942  144.4098  155.4209 N   0  0  0  0  0  0  0  0  0  0  0  0
  145.0228  143.5367  155.3645 C   0  0  0  0  0  0  0  0  0  0  0  0
  150.3616  139.8647  157.2368 C   0  0  0  0  0  0  0  0  0  0  0  0
  149.2446  139.8105  157.7539 O   0  0  0  0  0  0  0  0  0  0  0  0
  152.9988  137.8115  158.2932 H   0  0  0  0  0  0  0  0  0  0  0  0
  151.2711  137.5524  158.5213 H   0  0  0  0  0  0  0  0  0  0  0  0
  152.3572  137.4826  159.8950 H   0  0  0  0  0  0  0  0  0  0  0  0
  151.1249  139.6084  159.8919 H   0  0  0  0  0  0  0  0  0  0  0  0
  153.3762  139.5384  160.8665 H   0  0  0  0  0  0  0  0  0  0  0  0
  154.0870  139.9982  159.3412 H   0  0  0  0  0  0  0  0  0  0  0  0
  152.1697  141.6800  161.0277 H   0  0  0  0  0  0  0  0  0  0  0  0
  153.8783  141.9738  160.8046 H   0  0  0  0  0  0  0  0  0  0  0  0
  152.4931  143.4562  159.3447 H   0  0  0  0  0  0  0  0  0  0  0  0
  153.5464  142.4308  158.4039 H   0  0  0  0  0  0  0  0  0  0  0  0
  150.5761  141.9891  158.9358 H   0  0  0  0  0  0  0  0  0  0  0  0
  151.2771  142.4600  157.4130 H   0  0  0  0  0  0  0  0  0  0  0  0
  150.3130  138.5111  154.1837 H   0  0  0  0  0  0  0  0  0  0  0  0
  149.1120  138.2457  155.4131 H   0  0  0  0  0  0  0  0  0  0  0  0
  147.2320  139.1849  155.1170 H   0  0  0  0  0  0  0  0  0  0  0  0
  146.2483  140.6982  153.1182 H   0  0  0  0  0  0  0  0  0  0  0  0
  145.6540  140.7891  154.7570 H   0  0  0  0  0  0  0  0  0  0  0  0
  147.5954  142.5400  155.1496 H   0  0  0  0  0  0  0  0  0  0  0  0
  147.6749  142.6297  153.4119 H   0  0  0  0  0  0  0  0  0  0  0  0
  146.2199  144.1324  152.2259 H   0  0  0  0  0  0  0  0  0  0  0  0
  144.3089  145.7539  152.3175 H   0  0  0  0  0  0  0  0  0  0  0  0
  142.9312  145.8692  154.4100 H   0  0  0  0  0  0  0  0  0  0  0  0
  145.1869  142.9370  156.2477 H   0  0  0  0  0  0  0  0  0  0  0  0
  1  2  1  0  0  0  0
  1 26  1  0  0  0  0
  1 27  1  0  0  0  0
  1 28  1  0  0  0  0
  2  7  1  0  0  0  0
  2  3  1  0  0  0  0
  2 29  1  0  0  0  0
  3  4  1  0  0  0  0
  3 30  1  0  0  0  0
  3 31  1  0  0  0  0
  4  5  1  0  0  0  0
  4 32  1  0  0  0  0
  4 33  1  0  0  0  0
  5  6  1  0  0  0  0
  5 34  1  0  0  0  0
  5 35  1  0  0  0  0
  6  7  1  0  0  0  0
  6 36  1  0  0  0  0
  6 37  1  0  0  0  0
  7 24  1  0  0  0  0
  7  8  1  0  0  0  0
  8  9  1  0  0  0  0
  9 10  2  0  0  0  0
  9 11  1  0  0  0  0
 11 12  1  0  0  0  0
 11 24  1  0  0  0  0
 12 13  1  0  0  0  0
 12 38  1  0  0  0  0
 12 39  1  0  0  0  0
 13 14  2  0  0  0  0
 13 15  1  0  0  0  0
 15 16  1  0  0  0  0
 15 40  1  0  0  0  0
 16 17  1  0  0  0  0
 16 41  1  0  0  0  0
 16 42  1  0  0  0  0
 17 18  1  0  0  0  0
 17 43  1  0  0  0  0
 17 44  1  0  0  0  0
 18 23  1  0  0  0  0
 18 19  2  0  0  0  0
 19 20  1  0  0  0  0
 19 45  1  0  0  0  0
 20 21  2  0  0  0  0
 20 46  1  0  0  0  0
 21 22  1  0  0  0  0
 21 47  1  0  0  0  0
 22 23  2  0  0  0  0
 23 48  1  0  0  0  0
 24 25  2  0  0  0  0
M  CHG  1   8  -1
M  END
> <s_m_source_file>
AV-unprocessed.smi

> <i_m_source_file_index>
837

> <i_lp_mmshare_version>
43012

> <i_f3d_flags>
0

> <s_epik_input>
W0NIMl0xW0NIMl1bQ0gyXVtDSDJdW0NAQEhdKFtDSDNdKVtDQEBdMTJbTkhdQyg9TylOKEMyPU8pW0NIMl1DKD1PKVtOSF1bQ0gyXVtDSDJdYzNbY0hdW2NIXVtjSF1uW2NIXTM=

> <s_epik_cmdline>
J2VwaWtfcHl0aG9uJywgJy1waCcsICc3LjAnLCAnLXRuJywgJzgnLCAnLW1hJywgJzIwMCcsICctbWV0YWxfYmluZGluZycsICctaW1hZScsICc8aW5maWxlLm1hZT4nLCAnLW9tYWUnLCAnPG91dGZpbGUubWFlPic=

> <r_lp_tautomer_probability>
1

> <r_epik_Ionization_Penalty>
6.03002

> <r_epik_Ionization_Penalty_Charging>
6.01728

> <r_epik_Ionization_Penalty_Neutral>
0.0127382

> <r_epik_State_Penalty>
6.02713

> <r_epik_Charging_Adjusted_Penalty>
12.0444

> <i_epik_Tot_Q>
-1

> <i_epik_Tot_abs_Q>
1

> <r_epik_Metal_State_Penalty>
1.99078

> <b_epik_Metal_Only>
1

> <s_lp_Force_Field>
OPLS_2005

> <r_lp_Energy>
20.5142

> <b_lp_Chiralities_Consistent>
1

> <s_lp_Variant>
AV-unprocessed.smi:837-12

> <Gold.Version>
5.8.1

> <Gold.Id.Protein>
6NUR|6NUR_protein|mol2

> <Gold.PLP.Fitness>
55.2153

> <Gold.PLP.PLP>
-45.7023

> <Gold.PLP.part.hbond>
-4.0000

> <Gold.PLP.part.metal>
0.0000

> <Gold.PLP.part.buried>
-3.8103

> <Gold.PLP.part.nonpolar>
-40.3932

> <Gold.PLP.part.repulsive>
2.1288

> <Gold.PLP.ligand.clash>
0.0000

> <Gold.PLP.ligand.torsion>
0.5980

> <Gold.PLP.Chemscore.Hbond>
3.5597

> <Gold.PLP.Chemscore.CHOScore>
0.0000

> <Gold.PLP.Chemscore.Metal>
0.0000

> <Gold.Chemscore.Hbonds>
donor molecule, donor type, donor heavy atom, donor atom, acceptor molecule, acceptor atom, score
      P1  H  7989  7998       L1    10  0.61
      P1  H  7997  8009       L1     8  2.00
      P1  H  8011  8017       L1    14  0.94

> <Gold.PLP.Chemscore.Internal.Correction>
0.0297

> <Gold.Rescore>
     Score         DG    S(hbond)    S(metal)    S(lipo)     H(rot)  DE(clash)    DE(int)     intcor
     15.94     -19.02       1.90        0.00     101.07       1.81       0.88       2.20       ----

> <Gold.Chemscore.Fitness>
15.9407

> <Gold.Chemscore.DG>
-19.0209

> <Gold.Chemscore.ZeroCoef>
-5.4800

> <Gold.Chemscore.Hbond>
1.9001

> <Gold.Chemscore.Metal>
0.0000

> <Gold.Chemscore.Lipo>
101.0725

> <Gold.Chemscore.Internal_Hbond>
0.0000

> <Gold.Chemscore.DEClash>
0.8812

> <Gold.Chemscore.DEInternal>
2.1990

> <Gold.Chemscore.Rot>
1.8090

> <Gold.Chemscore.Internal.Correction>
   9.000000E+99

> <Gold.Chemscore.Hbonds>
donor molecule, donor type, donor heavy atom, donor atom, acceptor molecule, acceptor atom, score
      P1  H  7989  7998       L1    10  0.20
      P1  H  7997  8009       L1     8  0.58
      P1  H  8011  8017       L1    14  0.85

> <Gold.Chemscore.Hbond.Weighted>
-6.3464

> <Gold.Chemscore.Metal.Weighted>
-0.0000

> <Gold.Chemscore.Lipo.Weighted>
-11.8255

> <Gold.Chemscore.Internal_Hbond.Weighted>
0.0000

> <Gold.Chemscore.DEClash.Weighted>
0.8812

> <Gold.Chemscore.DEInternal.Weighted>
2.1990

> <Gold.Chemscore.Rot.Weighted>
4.6310

> <Gold.Chemscore.Internal.Correction.Weighted>
   9.000000E+99

> <Gold.Protein.RotatedTorsions>
[ 6907 6896 6895 6894 ] final  -60.26 input  -60.11 | X-H torsion
[ 7974 7965 7964 7962 ] final  -90.16 input  175.53 | X-H torsion
[ 8008 7997 7996 7995 ] final -179.66 input   59.86 | X-H torsion
[ 10167 10162 10161 10158 ] final -159.32 input  -65.29 | X-H torsion
[ 10718 10713 10712 10709 ] final -122.39 input   66.30 | X-H torsion
[ 10763 10752 10751 10750 ] final  -82.98 input  -60.55 | X-H torsion
[ 11005 11000 10999 10996 ] final   20.17 input  -57.11 | X-H torsion

> <Gold.Protein.ActiveResidues>
 VAL166  LYS551  ARG553  GLY616  TRP617  ASP618  TYR619  PRO620  LYS621  CYS622 
 ASP623  PHE694  ASN695  SER759  ASP760  ASP761  ALA762  ILE779  LEU786  VAL792 
 PHE793  MET794  SER795  GLU796  ALA797  LYS798  CYS799  TRP800  GLU811  SER814 

> <Gold.Protein.RotatedAtoms>
  150.7869  134.6861  159.6470 H   0  0  0  0  0  0  0  0  0  0  0  0  # atno 6907 bound_to 6896
  152.3967  134.6350  160.0095 H   0  0  0  0  0  0  0  0  0  0  0  0  # atno 6908 bound_to 6896
  151.6634  133.3279  159.3215 H   0  0  0  0  0  0  0  0  0  0  0  0  # atno 6909 bound_to 6896
  145.4301  140.9555  143.2133 H   0  0  0  0  0  0  0  0  0  0  0  0  # atno 7974 bound_to 7965
  156.0330  140.1286  157.0238 H   0  0  0  0  0  0  0  0  0  0  0  0  # atno 8008 bound_to 7997
  154.4358  140.1045  156.6197 H   0  0  0  0  0  0  0  0  0  0  0  0  # atno 8009 bound_to 7997
  155.5779  140.3467  155.4534 H   0  0  0  0  0  0  0  0  0  0  0  0  # atno 8010 bound_to 7997
  139.6624  143.9889  152.2234 H   0  0  0  0  0  0  0  0  0  0  0  0  # atno 10167 bound_to 10162
  156.1415  130.6469  150.9778 H   0  0  0  0  0  0  0  0  0  0  0  0  # atno 10718 bound_to 10713
  154.5823  135.5572  153.7197 H   0  0  0  0  0  0  0  0  0  0  0  0  # atno 10763 bound_to 10752
  153.0086  135.6323  154.1965 H   0  0  0  0  0  0  0  0  0  0  0  0  # atno 10764 bound_to 10752
  154.1906  135.2882  155.3003 H   0  0  0  0  0  0  0  0  0  0  0  0  # atno 10765 bound_to 10752
  140.4056  134.1672  155.7665 H   0  0  0  0  0  0  0  0  0  0  0  0  # atno 11005 bound_to 11000
  144.8188  139.5828  143.6996 LP  0  0  0  0  0  0  0  0  0  0  0  0  # atno 17320 bound_to 7965
  146.2611  139.6413  142.9361 LP  0  0  0  0  0  0  0  0  0  0  0  0  # atno 17321 bound_to 7965
  139.9631  144.6544  150.8060 LP  0  0  0  0  0  0  0  0  0  0  0  0  # atno 17342 bound_to 10162
  140.7585  143.3109  151.2846 LP  0  0  0  0  0  0  0  0  0  0  0  0  # atno 17343 bound_to 10162
  157.6579  131.0886  150.7904 LP  0  0  0  0  0  0  0  0  0  0  0  0  # atno 17370 bound_to 10713
  156.7979  130.4911  149.5374 LP  0  0  0  0  0  0  0  0  0  0  0  0  # atno 17371 bound_to 10713
  141.1840  133.8352  157.1153 LP  0  0  0  0  0  0  0  0  0  0  0  0  # atno 17394 bound_to 11000
  140.0305  134.9903  157.0770 LP  0  0  0  0  0  0  0  0  0  0  0  0  # atno 17395 bound_to 11000

$$$$
