AV-unprocessed.smi:2770|AV-procd|sdf|10658|dock3
  -GOLD-   2272015103D 1   1.00000     0.00000
 Structure written by MMmdl.
 34 35  0  0  0  0  0  0  0  0  1 V2000
  146.4807  142.6660  154.6081 C   0  0  0  0  0  0  0  0  0  0  0  0
  147.5224  141.9348  155.3127 N   0  0  0  0  0  0  0  0  0  0  0  0
  148.5715  141.3501  154.7167 C   0  0  0  0  0  0  0  0  0  0  0  0
  148.7489  141.3703  153.4981 O   0  0  0  0  0  0  0  0  0  0  0  0
  149.5627  140.6395  155.6453 C   0  0  2  0  0  0  0  0  0  0  0  0
  150.2234  141.5980  156.6610 C   0  0  0  0  0  0  0  0  0  0  0  0
  151.2159  140.8791  157.4503 N   0  0  0  0  0  0  0  0  0  0  0  0
  151.7745  141.6449  158.4832 C   0  0  0  0  0  0  0  0  0  0  0  0
  152.6246  141.0172  159.4176 C   0  0  0  0  0  0  0  0  0  0  0  0
  153.1812  141.7918  160.4537 C   0  0  0  0  0  0  0  0  0  0  0  0
  152.8701  143.1632  160.5189 C   0  0  0  0  0  0  0  0  0  0  0  0
  152.0107  143.7018  159.5387 C   0  0  0  0  0  0  0  0  0  0  0  0
  151.6377  145.1691  159.5516 C   0  0  0  0  0  0  0  0  0  0  0  0
  151.4735  142.9647  158.5420 N   0  0  0  0  0  0  0  0  0  0  0  0
  152.2092  140.2119  156.6187 C   0  0  0  0  0  0  0  0  0  0  0  0
  151.5099  139.2896  155.6058 C   0  0  0  0  0  0  0  0  0  0  0  0
  150.5753  140.0424  154.8370 O   0  0  0  0  0  0  0  0  0  0  0  0
  145.7569  143.0610  155.3207 H   0  0  0  0  0  0  0  0  0  0  0  0
  145.9528  142.0144  153.9109 H   0  0  0  0  0  0  0  0  0  0  0  0
  146.9028  143.5034  154.0509 H   0  0  0  0  0  0  0  0  0  0  0  0
  147.4439  141.8693  156.3173 H   0  0  0  0  0  0  0  0  0  0  0  0
  149.0264  139.8553  156.1838 H   0  0  0  0  0  0  0  0  0  0  0  0
  150.7055  142.4290  156.1432 H   0  0  0  0  0  0  0  0  0  0  0  0
  149.4688  142.0233  157.3241 H   0  0  0  0  0  0  0  0  0  0  0  0
  152.8461  139.9625  159.3439 H   0  0  0  0  0  0  0  0  0  0  0  0
  153.8355  141.3417  161.1857 H   0  0  0  0  0  0  0  0  0  0  0  0
  153.2821  143.7830  161.3016 H   0  0  0  0  0  0  0  0  0  0  0  0
  152.0988  145.6877  160.3925 H   0  0  0  0  0  0  0  0  0  0  0  0
  150.5564  145.2847  159.6319 H   0  0  0  0  0  0  0  0  0  0  0  0
  151.9683  145.6512  158.6313 H   0  0  0  0  0  0  0  0  0  0  0  0
  152.8086  140.9552  156.0910 H   0  0  0  0  0  0  0  0  0  0  0  0
  152.8896  139.6342  157.2454 H   0  0  0  0  0  0  0  0  0  0  0  0
  152.2437  138.8421  154.9354 H   0  0  0  0  0  0  0  0  0  0  0  0
  151.0006  138.4688  156.1136 H   0  0  0  0  0  0  0  0  0  0  0  0
  1  2  1  0  0  0  0
  1 18  1  0  0  0  0
  1 19  1  0  0  0  0
  1 20  1  0  0  0  0
  2  3  1  0  0  0  0
  2 21  1  0  0  0  0
  3  4  2  0  0  0  0
  3  5  1  0  0  0  0
  5 17  1  0  0  0  0
  5  6  1  0  0  0  0
  5 22  1  0  0  0  0
  6  7  1  0  0  0  0
  6 23  1  0  0  0  0
  6 24  1  0  0  0  0
  7  8  1  0  0  0  0
  7 15  1  0  0  0  0
  8 14  1  0  0  0  0
  8  9  2  0  0  0  0
  9 10  1  0  0  0  0
  9 25  1  0  0  0  0
 10 11  2  0  0  0  0
 10 26  1  0  0  0  0
 11 12  1  0  0  0  0
 11 27  1  0  0  0  0
 12 13  1  0  0  0  0
 12 14  2  0  0  0  0
 13 28  1  0  0  0  0
 13 29  1  0  0  0  0
 13 30  1  0  0  0  0
 15 16  1  0  0  0  0
 15 31  1  0  0  0  0
 15 32  1  0  0  0  0
 16 17  1  0  0  0  0
 16 33  1  0  0  0  0
 16 34  1  0  0  0  0
M  END
> <s_m_source_file>
AV-unprocessed.smi

> <i_m_source_file_index>
2770

> <i_lp_mmshare_version>
43012

> <i_f3d_flags>
0

> <s_epik_input>
W0NIM11bTkhdQyg9TylbQ0BASF0xW0NIMl1OKFtDSDJdW0NIMl1PMSljMltjSF1bY0hdW2NIXWMobjIpW0NIM10=

> <s_epik_cmdline>
J2VwaWtfcHl0aG9uJywgJy1waCcsICc3LjAnLCAnLXRuJywgJzgnLCAnLW1hJywgJzIwMCcsICctbWV0YWxfYmluZGluZycsICctaW1hZScsICc8aW5maWxlLm1hZT4nLCAnLW9tYWUnLCAnPG91dGZpbGUubWFlPic=

> <r_lp_tautomer_probability>
1

> <r_epik_Ionization_Penalty>
0.0115449

> <r_epik_Ionization_Penalty_Charging>
0

> <r_epik_Ionization_Penalty_Neutral>
0.0115449

> <r_epik_State_Penalty>
0.00889041

> <r_epik_Charging_Adjusted_Penalty>
0.00889041

> <i_epik_Tot_Q>
0

> <i_epik_Tot_abs_Q>
0

> <r_epik_Metal_State_Penalty>
0.00871946

> <b_epik_Metal_Only>
0

> <s_lp_Force_Field>
OPLS_2005

> <r_lp_Energy>
19.0153

> <b_lp_Chiralities_Consistent>
1

> <s_lp_Variant>
AV-unprocessed.smi:2770-1

> <Gold.Version>
5.8.1

> <Gold.Id.Protein>
6NUR|6NUR_protein|mol2

> <Gold.PLP.Fitness>
42.0205

> <Gold.PLP.PLP>
-36.4633

> <Gold.PLP.part.hbond>
-3.2445

> <Gold.PLP.part.metal>
0.0000

> <Gold.PLP.part.buried>
-4.5091

> <Gold.PLP.part.nonpolar>
-31.1368

> <Gold.PLP.part.repulsive>
2.5894

> <Gold.PLP.ligand.clash>
0.0000

> <Gold.PLP.ligand.torsion>
0.0688

> <Gold.PLP.Chemscore.Hbond>
1.8640

> <Gold.PLP.Chemscore.CHOScore>
0.0000

> <Gold.PLP.Chemscore.Metal>
0.0000

> <Gold.Chemscore.Hbonds>
donor molecule, donor type, donor heavy atom, donor atom, acceptor molecule, acceptor atom, score
      P1  H  7989  7998       L1    17  1.00
      P1  H  8011  8017       L1     4  0.85

> <Gold.PLP.Chemscore.Internal.Correction>
0.1029

> <Gold.Rescore>
     Score         DG    S(hbond)    S(metal)    S(lipo)     H(rot)  DE(clash)    DE(int)     intcor
     16.71     -18.12       1.86        0.00      82.62       1.27       1.34       0.06       ----

> <Gold.Chemscore.Fitness>
16.7139

> <Gold.Chemscore.DG>
-18.1154

> <Gold.Chemscore.ZeroCoef>
-5.4800

> <Gold.Chemscore.Hbond>
1.8648

> <Gold.Chemscore.Metal>
0.0000

> <Gold.Chemscore.Lipo>
82.6210

> <Gold.Chemscore.Internal_Hbond>
0.0000

> <Gold.Chemscore.DEClash>
1.3441

> <Gold.Chemscore.DEInternal>
0.0574

> <Gold.Chemscore.Rot>
1.2734

> <Gold.Chemscore.Internal.Correction>
   9.000000E+99

> <Gold.Chemscore.Hbonds>
donor molecule, donor type, donor heavy atom, donor atom, acceptor molecule, acceptor atom, score
      P1  H  7989  7998       L1    17  0.45
      P1  H  8011  8017       L1     4  0.83

> <Gold.Chemscore.Hbond.Weighted>
-6.2286

> <Gold.Chemscore.Metal.Weighted>
-0.0000

> <Gold.Chemscore.Lipo.Weighted>
-9.6667

> <Gold.Chemscore.Internal_Hbond.Weighted>
0.0000

> <Gold.Chemscore.DEClash.Weighted>
1.3441

> <Gold.Chemscore.DEInternal.Weighted>
0.0574

> <Gold.Chemscore.Rot.Weighted>
3.2598

> <Gold.Chemscore.Internal.Correction.Weighted>
   9.000000E+99

> <Gold.Protein.RotatedTorsions>
[ 6907 6896 6895 6894 ] final   60.72 input  -60.11 | X-H torsion
[ 7974 7965 7964 7962 ] final  -49.10 input  175.53 | X-H torsion
[ 8008 7997 7996 7995 ] final  -93.53 input   59.86 | X-H torsion
[ 10167 10162 10161 10158 ] final -173.85 input  -65.29 | X-H torsion
[ 10718 10713 10712 10709 ] final   33.04 input   66.30 | X-H torsion
[ 10763 10752 10751 10750 ] final   82.46 input  -60.55 | X-H torsion
[ 11005 11000 10999 10996 ] final   13.51 input  -57.11 | X-H torsion

> <Gold.Protein.ActiveResidues>
 VAL166  LYS551  ARG553  GLY616  TRP617  ASP618  TYR619  PRO620  LYS621  CYS622 
 ASP623  PHE694  ASN695  SER759  ASP760  ASP761  ALA762  ILE779  LEU786  VAL792 
 PHE793  MET794  SER795  GLU796  ALA797  LYS798  CYS799  TRP800  GLU811  SER814 

> <Gold.Protein.RotatedAtoms>
  152.4027  134.6258  160.0062 H   0  0  0  0  0  0  0  0  0  0  0  0  # atno 6907 bound_to 6896
  151.6459  133.3318  159.3149 H   0  0  0  0  0  0  0  0  0  0  0  0  # atno 6908 bound_to 6896
  150.7926  134.7003  159.6591 H   0  0  0  0  0  0  0  0  0  0  0  0  # atno 6909 bound_to 6896
  145.9441  140.7634  142.9537 H   0  0  0  0  0  0  0  0  0  0  0  0  # atno 7974 bound_to 7965
  154.7369  140.0498  157.0776 H   0  0  0  0  0  0  0  0  0  0  0  0  # atno 8008 bound_to 7997
  155.0229  140.3149  155.4767 H   0  0  0  0  0  0  0  0  0  0  0  0  # atno 8009 bound_to 7997
  156.2855  140.2164  156.5348 H   0  0  0  0  0  0  0  0  0  0  0  0  # atno 8010 bound_to 7997
  139.5666  144.1741  152.1321 H   0  0  0  0  0  0  0  0  0  0  0  0  # atno 10167 bound_to 10162
  157.2929  130.7312  149.6621 H   0  0  0  0  0  0  0  0  0  0  0  0  # atno 10718 bound_to 10713
  153.1205  135.4727  154.9187 H   0  0  0  0  0  0  0  0  0  0  0  0  # atno 10763 bound_to 10752
  154.7570  135.3121  154.8453 H   0  0  0  0  0  0  0  0  0  0  0  0  # atno 10764 bound_to 10752
  153.9018  135.6874  153.4808 H   0  0  0  0  0  0  0  0  0  0  0  0  # atno 10765 bound_to 10752
  140.4799  134.0946  155.7749 H   0  0  0  0  0  0  0  0  0  0  0  0  # atno 11005 bound_to 11000
  144.6784  140.2328  143.7353 LP  0  0  0  0  0  0  0  0  0  0  0  0  # atno 17320 bound_to 7965
  145.8260  139.2064  143.1910 LP  0  0  0  0  0  0  0  0  0  0  0  0  # atno 17321 bound_to 7965
  140.1266  144.5326  150.6829 LP  0  0  0  0  0  0  0  0  0  0  0  0  # atno 17342 bound_to 10162
  140.6949  143.2398  151.5028 LP  0  0  0  0  0  0  0  0  0  0  0  0  # atno 17343 bound_to 10162
  155.9668  130.4303  150.4872 LP  0  0  0  0  0  0  0  0  0  0  0  0  # atno 17370 bound_to 10713
  157.2838  131.0612  151.2180 LP  0  0  0  0  0  0  0  0  0  0  0  0  # atno 17371 bound_to 10713
  141.1536  133.8923  157.2034 LP  0  0  0  0  0  0  0  0  0  0  0  0  # atno 17394 bound_to 11000
  139.9833  135.0091  156.9802 LP  0  0  0  0  0  0  0  0  0  0  0  0  # atno 17395 bound_to 11000

$$$$
