AV-unprocessed.smi:38|AV-procd|sdf|342|dock4
  -GOLD-   2262016183D 1   1.00000     0.00000
 Structure written by MMmdl.
 28 29  0  0  0  0  0  0  0  0  1 V2000
  145.9948  131.2740  148.4109 O   0  0  0  0  0  0  0  0  0  0  0  0
  145.7212  132.0446  149.3290 C   0  0  0  0  0  0  0  0  0  0  0  0
  146.6301  132.2460  150.3720 N   0  0  0  0  0  0  0  0  0  0  0  0
  146.4360  133.0894  151.4678 C   0  0  0  0  0  0  0  0  0  0  0  0
  147.3057  133.1758  152.3334 O   0  0  0  0  0  0  0  0  0  0  0  0
  145.2173  133.8032  151.5225 N   0  0  0  0  0  0  0  0  0  0  0  0
  144.9405  134.7442  152.6727 C   0  0  2  0  0  0  0  0  0  0  0  0
  143.5733  135.4174  152.5142 C   0  0  0  0  0  0  0  0  0  0  0  0
  143.9493  136.8355  152.1261 C   0  0  1  0  0  0  0  0  0  0  0  0
  142.9816  137.7557  152.5878 O   0  0  0  0  0  0  0  0  0  0  0  0
  145.3052  137.0186  152.8138 C   0  0  2  0  0  0  0  0  0  0  0  0
  146.1863  138.0930  152.1583 C   0  0  0  0  0  0  0  0  0  0  0  0
  146.4188  137.7686  150.8046 O   0  0  0  0  0  0  0  0  0  0  0  0
  145.9172  135.7408  152.6691 O   0  0  0  0  0  0  0  0  0  0  0  0
  144.2844  133.6329  150.5084 C   0  0  0  0  0  0  0  0  0  0  0  0
  144.4840  132.8097  149.4524 C   0  0  0  0  0  0  0  0  0  0  0  0
  143.5330  132.6978  148.5096 F   0  0  0  0  0  0  0  0  0  0  0  0
  147.5007  131.7364  150.3302 H   0  0  0  0  0  0  0  0  0  0  0  0
  145.0284  134.1787  153.6011 H   0  0  0  0  0  0  0  0  0  0  0  0
  144.0509  136.9143  151.0431 H   0  0  0  0  0  0  0  0  0  0  0  0
  145.1529  137.2204  153.8762 H   0  0  0  0  0  0  0  0  0  0  0  0
  142.9440  134.9133  151.7795 H   0  0  0  0  0  0  0  0  0  0  0  0
  143.0698  135.3931  153.4820 H   0  0  0  0  0  0  0  0  0  0  0  0
  143.2335  138.6237  152.3116 H   0  0  0  0  0  0  0  0  0  0  0  0
  145.7343  139.0819  152.2414 H   0  0  0  0  0  0  0  0  0  0  0  0
  147.1566  138.1377  152.6539 H   0  0  0  0  0  0  0  0  0  0  0  0
  145.6084  137.8650  150.3281 H   0  0  0  0  0  0  0  0  0  0  0  0
  143.3533  134.1782  150.5517 H   0  0  0  0  0  0  0  0  0  0  0  0
  1  2  2  0  0  0  0
  2 16  1  0  0  0  0
  2  3  1  0  0  0  0
  3 18  1  0  0  0  0
  3  4  1  0  0  0  0
  4  5  2  0  0  0  0
  4  6  1  0  0  0  0
  6  7  1  0  0  0  0
  6 15  1  0  0  0  0
  7 19  1  0  0  0  0
  7 14  1  0  0  0  0
  7  8  1  0  0  0  0
  8  9  1  0  0  0  0
  8 22  1  0  0  0  0
  8 23  1  0  0  0  0
  9 20  1  0  0  0  0
  9 10  1  0  0  0  0
  9 11  1  0  0  0  0
 10 24  1  0  0  0  0
 11 21  1  0  0  0  0
 11 12  1  0  0  0  0
 11 14  1  0  0  0  0
 12 13  1  0  0  0  0
 12 25  1  0  0  0  0
 12 26  1  0  0  0  0
 13 27  1  0  0  0  0
 15 16  2  0  0  0  0
 15 28  1  0  0  0  0
 16 17  1  0  0  0  0
M  END
> <s_m_source_file>
AV-unprocessed.smi

> <i_m_source_file_index>
38

> <i_lp_mmshare_version>
43012

> <i_f3d_flags>
0

> <s_epik_input>
Tz1jMVtuSF1jKD1PKW4oW2NIXWMxRilbQ0BIXTJbQ0gyXVtDQEhdKFtPSF0pW0NASF0oTzIpW0NIMl1bT0hd

> <s_epik_cmdline>
J2VwaWtfcHl0aG9uJywgJy1waCcsICc3LjAnLCAnLXRuJywgJzgnLCAnLW1hJywgJzIwMCcsICctbWV0YWxfYmluZGluZycsICctaW1hZScsICc8aW5maWxlLm1hZT4nLCAnLW9tYWUnLCAnPG91dGZpbGUubWFlPic=

> <r_lp_tautomer_probability>
0.999537

> <r_epik_Ionization_Penalty>
0.0357432

> <r_epik_Ionization_Penalty_Charging>
0.0357431

> <r_epik_Ionization_Penalty_Neutral>
1.19946e-07

> <r_epik_State_Penalty>
0.0298169

> <r_epik_Charging_Adjusted_Penalty>
0.06556

> <i_epik_Tot_Q>
0

> <i_epik_Tot_abs_Q>
0

> <r_epik_Metal_State_Penalty>
2.348

> <b_epik_Metal_Only>
0

> <s_epik_Chemistry_Notes>
This compound contains an acetal/aminal-like group ( X-CH(R)-Y where X, Y are N, S, or O) that may be acid/base labile, releasing an aldehyde.

> <s_lp_Force_Field>
OPLS_2005

> <r_lp_Energy>
27.0037

> <b_lp_Chiralities_Consistent>
1

> <s_lp_Variant>
AV-unprocessed.smi:38-8

> <Gold.Version>
5.8.1

> <Gold.Id.Protein>
6NUR|6NUR_protein|mol2

> <Gold.PLP.Fitness>
46.2465

> <Gold.PLP.PLP>
-31.3200

> <Gold.PLP.part.hbond>
-7.5406

> <Gold.PLP.part.metal>
0.0000

> <Gold.PLP.part.buried>
-0.2999

> <Gold.PLP.part.nonpolar>
-24.4591

> <Gold.PLP.part.repulsive>
0.6287

> <Gold.PLP.ligand.clash>
0.0000

> <Gold.PLP.ligand.torsion>
0.0053

> <Gold.PLP.Chemscore.Hbond>
4.0000

> <Gold.PLP.Chemscore.CHOScore>
0.9760

> <Gold.PLP.Chemscore.Metal>
0.0000

> <Gold.Chemscore.Hbonds>
donor molecule, donor type, donor heavy atom, donor atom, acceptor molecule, acceptor atom, score
      L1  H     3    18       P1 10747  1.00
      L1  H    10    24       P1 10175  1.00
      L1  H    13    27       P1 10171  1.00
      P1  H  7954  7966       L1    13  1.00
      L1  C    15    28       P1 10186  0.93

> <Gold.PLP.Chemscore.Internal.Correction>
0.0091

> <Gold.Rescore>
     Score         DG    S(hbond)    S(metal)    S(lipo)     H(rot)  DE(clash)    DE(int)     intcor
     13.84     -15.47       3.93        0.00      36.86       2.91       0.47       1.17       ----

> <Gold.Chemscore.Fitness>
13.8375

> <Gold.Chemscore.DG>
-15.4746

> <Gold.Chemscore.ZeroCoef>
-5.4800

> <Gold.Chemscore.Hbond>
3.9348

> <Gold.Chemscore.Metal>
0.0000

> <Gold.Chemscore.Lipo>
36.8592

> <Gold.Chemscore.Internal_Hbond>
0.0000

> <Gold.Chemscore.DEClash>
0.4683

> <Gold.Chemscore.DEInternal>
1.1688

> <Gold.Chemscore.Rot>
2.9141

> <Gold.Chemscore.Internal.Correction>
   9.000000E+99

> <Gold.Chemscore.Hbonds>
donor molecule, donor type, donor heavy atom, donor atom, acceptor molecule, acceptor atom, score
      L1  H     3    18       P1 10747  1.00
      L1  H    10    24       P1 10175  0.99
      L1  H    13    27       P1 10171  0.99
      P1  H  7954  7966       L1    13  0.94

> <Gold.Chemscore.Hbond.Weighted>
-13.1421

> <Gold.Chemscore.Metal.Weighted>
-0.0000

> <Gold.Chemscore.Lipo.Weighted>
-4.3125

> <Gold.Chemscore.Internal_Hbond.Weighted>
0.0000

> <Gold.Chemscore.DEClash.Weighted>
0.4683

> <Gold.Chemscore.DEInternal.Weighted>
1.1688

> <Gold.Chemscore.Rot.Weighted>
7.4601

> <Gold.Chemscore.Internal.Correction.Weighted>
   9.000000E+99

> <Gold.Protein.RotatedTorsions>
[ 6907 6896 6895 6894 ] final  139.71 input  -60.11 | X-H torsion
[ 7974 7965 7964 7962 ] final   89.98 input  175.53 | X-H torsion
[ 8008 7997 7996 7995 ] final  131.35 input   59.86 | X-H torsion
[ 10167 10162 10161 10158 ] final   30.40 input  -65.29 | X-H torsion
[ 10718 10713 10712 10709 ] final  171.27 input   66.30 | X-H torsion
[ 10763 10752 10751 10750 ] final    6.71 input  -60.55 | X-H torsion
[ 11005 11000 10999 10996 ] final  -50.78 input  -57.11 | X-H torsion

> <Gold.Protein.ActiveResidues>
 VAL166  LYS551  ARG553  GLY616  TRP617  ASP618  TYR619  PRO620  LYS621  CYS622 
 ASP623  PHE694  ASN695  SER759  ASP760  ASP761  ALA762  ILE779  LEU786  VAL792 
 PHE793  MET794  SER795  GLU796  ALA797  LYS798  CYS799  TRP800  GLU811  SER814 

> <Gold.Protein.RotatedAtoms>
  152.2517  133.5220  159.5328 H   0  0  0  0  0  0  0  0  0  0  0  0  # atno 6907 bound_to 6896
  150.7096  134.0951  159.3954 H   0  0  0  0  0  0  0  0  0  0  0  0  # atno 6908 bound_to 6896
  151.8871  135.0431  160.0545 H   0  0  0  0  0  0  0  0  0  0  0  0  # atno 6909 bound_to 6896
  145.5252  139.2281  143.2650 H   0  0  0  0  0  0  0  0  0  0  0  0  # atno 7974 bound_to 7965
  156.2968  140.2573  156.2912 H   0  0  0  0  0  0  0  0  0  0  0  0  # atno 8008 bound_to 7997
  154.9508  140.0394  157.2161 H   0  0  0  0  0  0  0  0  0  0  0  0  # atno 8009 bound_to 7997
  154.8038  140.2832  155.5907 H   0  0  0  0  0  0  0  0  0  0  0  0  # atno 8010 bound_to 7997
  140.4681  144.0804  150.6230 H   0  0  0  0  0  0  0  0  0  0  0  0  # atno 10167 bound_to 10162
  156.9960  131.0162  151.2844 H   0  0  0  0  0  0  0  0  0  0  0  0  # atno 10718 bound_to 10713
  153.2446  135.6907  153.7745 H   0  0  0  0  0  0  0  0  0  0  0  0  # atno 10763 bound_to 10752
  153.6862  135.3320  155.3191 H   0  0  0  0  0  0  0  0  0  0  0  0  # atno 10764 bound_to 10752
  154.8370  135.4534  154.1381 H   0  0  0  0  0  0  0  0  0  0  0  0  # atno 10765 bound_to 10752
  141.0835  133.6648  156.3780 H   0  0  0  0  0  0  0  0  0  0  0  0  # atno 11005 bound_to 11000
  146.2080  140.6065  142.9072 LP  0  0  0  0  0  0  0  0  0  0  0  0  # atno 17320 bound_to 7965
  144.7655  140.5520  143.6706 LP  0  0  0  0  0  0  0  0  0  0  0  0  # atno 17321 bound_to 7965
  140.4010  143.2703  151.9947 LP  0  0  0  0  0  0  0  0  0  0  0  0  # atno 17342 bound_to 10162
  139.4815  144.5997  151.7627 LP  0  0  0  0  0  0  0  0  0  0  0  0  # atno 17343 bound_to 10162
  157.5425  130.8129  149.8045 LP  0  0  0  0  0  0  0  0  0  0  0  0  # atno 17370 bound_to 10713
  156.0189  130.3803  150.2023 LP  0  0  0  0  0  0  0  0  0  0  0  0  # atno 17371 bound_to 10713
  140.5416  134.6114  157.5381 LP  0  0  0  0  0  0  0  0  0  0  0  0  # atno 17394 bound_to 11000
  139.9650  134.7388  156.0156 LP  0  0  0  0  0  0  0  0  0  0  0  0  # atno 17395 bound_to 11000

$$$$
