AV-unprocessed.smi:1237|AV-procd|sdf|5183|dock8
  -GOLD-   22720 4263D 1   1.00000     0.00000
 Structure written by MMmdl.
 44 45  0  0  0  0  0  0  0  0  1 V2000
  154.9578  133.7506  158.0128 C   0  0  0  0  0  0  0  0  0  0  0  0
  154.3620  134.0175  159.2697 O   0  0  0  0  0  0  0  0  0  0  0  0
  155.0089  135.0712  159.9653 C   0  0  0  0  0  0  0  0  0  0  0  0
  154.3231  135.2837  161.3249 C   0  0  0  0  0  0  0  0  0  0  0  0
  154.5678  136.6300  161.8542 N   0  0  0  0  0  0  0  0  0  0  0  0
  154.2745  137.6477  160.9618 N   0  0  0  0  0  0  0  0  0  0  0  0
  154.4695  138.8823  161.2958 C   0  0  0  0  0  0  0  0  0  0  0  0
  154.1766  140.0046  160.3617 C   0  0  0  0  0  0  0  0  0  0  0  0
  154.5401  139.9824  159.1845 O   0  0  0  0  0  0  0  0  0  0  0  0
  153.4880  141.0309  160.8945 N   0  0  0  0  0  0  0  0  0  0  0  0
  153.0794  142.2438  160.1887 C   0  0  0  0  0  0  0  0  0  0  0  0
  152.6636  143.2920  161.2431 C   0  0  0  0  0  0  0  0  0  0  0  0
  151.8690  144.5136  160.7459 C   0  0  0  0  0  0  0  0  0  0  0  0
  152.2401  145.0347  159.3486 C   0  0  0  0  0  0  0  0  0  0  0  0
  151.4941  144.2958  158.2248 C   0  0  0  0  0  0  0  0  0  0  0  0
  152.0030  142.8753  157.9404 C   0  0  0  0  0  0  0  0  0  0  0  0
  151.9890  141.9166  159.1448 C   0  0  0  0  0  0  0  0  0  0  0  0
  154.9891  139.2243  162.6094 C   0  0  0  0  0  0  0  0  0  0  0  0
  155.2682  138.2209  163.4701 C   0  0  0  0  0  0  0  0  0  0  0  0
  155.0636  136.8158  163.1146 C   0  0  0  0  0  0  0  0  0  0  0  0
  155.3189  135.8844  163.8778 O   0  0  0  0  0  0  0  0  0  0  0  0
  154.4227  132.9398  157.5185 H   0  0  0  0  0  0  0  0  0  0  0  0
  155.9995  133.4476  158.1265 H   0  0  0  0  0  0  0  0  0  0  0  0
  154.9162  134.6257  157.3631 H   0  0  0  0  0  0  0  0  0  0  0  0
  156.0569  134.8129  160.1229 H   0  0  0  0  0  0  0  0  0  0  0  0
  154.9878  135.9887  159.3749 H   0  0  0  0  0  0  0  0  0  0  0  0
  153.2512  135.1035  161.2254 H   0  0  0  0  0  0  0  0  0  0  0  0
  154.6759  134.5346  162.0360 H   0  0  0  0  0  0  0  0  0  0  0  0
  153.2273  140.9641  161.8680 H   0  0  0  0  0  0  0  0  0  0  0  0
  153.9530  142.6345  159.6634 H   0  0  0  0  0  0  0  0  0  0  0  0
  152.0744  142.8136  162.0270 H   0  0  0  0  0  0  0  0  0  0  0  0
  153.5696  143.6443  161.7383 H   0  0  0  0  0  0  0  0  0  0  0  0
  150.8027  144.2856  160.7723 H   0  0  0  0  0  0  0  0  0  0  0  0
  152.0050  145.3172  161.4705 H   0  0  0  0  0  0  0  0  0  0  0  0
  151.9549  146.0861  159.2963 H   0  0  0  0  0  0  0  0  0  0  0  0
  153.3191  145.0115  159.1919 H   0  0  0  0  0  0  0  0  0  0  0  0
  150.4264  144.2667  158.4459 H   0  0  0  0  0  0  0  0  0  0  0  0
  151.5865  144.8775  157.3069 H   0  0  0  0  0  0  0  0  0  0  0  0
  151.3843  142.4474  157.1509 H   0  0  0  0  0  0  0  0  0  0  0  0
  153.0107  142.9251  157.5265 H   0  0  0  0  0  0  0  0  0  0  0  0
  152.1598  140.9139  158.7502 H   0  0  0  0  0  0  0  0  0  0  0  0
  151.0023  141.8859  159.6090 H   0  0  0  0  0  0  0  0  0  0  0  0
  155.1502  140.2527  162.8984 H   0  0  0  0  0  0  0  0  0  0  0  0
  155.6548  138.4606  164.4497 H   0  0  0  0  0  0  0  0  0  0  0  0
  1  2  1  0  0  0  0
  1 22  1  0  0  0  0
  1 23  1  0  0  0  0
  1 24  1  0  0  0  0
  2  3  1  0  0  0  0
  3  4  1  0  0  0  0
  3 25  1  0  0  0  0
  3 26  1  0  0  0  0
  4  5  1  0  0  0  0
  4 27  1  0  0  0  0
  4 28  1  0  0  0  0
  5 20  1  0  0  0  0
  5  6  1  0  0  0  0
  6  7  2  0  0  0  0
  7  8  1  0  0  0  0
  7 18  1  0  0  0  0
  8  9  2  0  0  0  0
  8 10  1  0  0  0  0
 10 11  1  0  0  0  0
 10 29  1  0  0  0  0
 11 17  1  0  0  0  0
 11 12  1  0  0  0  0
 11 30  1  0  0  0  0
 12 13  1  0  0  0  0
 12 31  1  0  0  0  0
 12 32  1  0  0  0  0
 13 14  1  0  0  0  0
 13 33  1  0  0  0  0
 13 34  1  0  0  0  0
 14 15  1  0  0  0  0
 14 35  1  0  0  0  0
 14 36  1  0  0  0  0
 15 16  1  0  0  0  0
 15 37  1  0  0  0  0
 15 38  1  0  0  0  0
 16 17  1  0  0  0  0
 16 39  1  0  0  0  0
 16 40  1  0  0  0  0
 17 41  1  0  0  0  0
 17 42  1  0  0  0  0
 18 19  2  0  0  0  0
 18 43  1  0  0  0  0
 19 20  1  0  0  0  0
 19 44  1  0  0  0  0
 20 21  2  0  0  0  0
M  END
> <s_m_source_file>
AV-unprocessed.smi

> <i_m_source_file_index>
1237

> <i_lp_mmshare_version>
43012

> <i_f3d_flags>
0

> <s_epik_input>
W0NIM11PW0NIMl1bQ0gyXW4xbmMoW2NIXVtjSF1jMT1PKUMoPU8pW05IXVtDSF0yW0NIMl1bQ0gyXVtDSDJdW0NIMl1bQ0gyXVtDSDJdMg==

> <s_epik_cmdline>
J2VwaWtfcHl0aG9uJywgJy1waCcsICc3LjAnLCAnLXRuJywgJzgnLCAnLW1hJywgJzIwMCcsICctbWV0YWxfYmluZGluZycsICctaW1hZScsICc8aW5maWxlLm1hZT4nLCAnLW9tYWUnLCAnPG91dGZpbGUubWFlPic=

> <r_lp_tautomer_probability>
1

> <r_epik_Ionization_Penalty>
5.81787e-07

> <r_epik_Ionization_Penalty_Charging>
6.75108e-09

> <r_epik_Ionization_Penalty_Neutral>
5.75036e-07

> <r_epik_State_Penalty>
-0

> <r_epik_Charging_Adjusted_Penalty>
6.75108e-09

> <i_epik_Tot_Q>
0

> <i_epik_Tot_abs_Q>
0

> <r_epik_Metal_State_Penalty>
-0

> <b_epik_Metal_Only>
0

> <s_lp_Force_Field>
OPLS_2005

> <r_lp_Energy>
36.1796

> <b_lp_Chiralities_Consistent>
1

> <s_lp_Variant>
AV-unprocessed.smi:1237-1

> <Gold.Version>
5.8.1

> <Gold.Id.Protein>
6NUR|6NUR_protein|mol2

> <Gold.PLP.Fitness>
44.4112

> <Gold.PLP.PLP>
-40.6223

> <Gold.PLP.part.hbond>
-2.0000

> <Gold.PLP.part.metal>
0.0000

> <Gold.PLP.part.buried>
-5.4190

> <Gold.PLP.part.nonpolar>
-31.9646

> <Gold.PLP.part.repulsive>
0.1086

> <Gold.PLP.ligand.clash>
0.0000

> <Gold.PLP.ligand.torsion>
1.0930

> <Gold.PLP.Chemscore.Hbond>
1.9760

> <Gold.PLP.Chemscore.CHOScore>
0.0000

> <Gold.PLP.Chemscore.Metal>
0.0000

> <Gold.Chemscore.Hbonds>
donor molecule, donor type, donor heavy atom, donor atom, acceptor molecule, acceptor atom, score
      P1  H  6896  6908       L1     2  1.00
      P1  H  7997  8009       L1     9  1.00

> <Gold.PLP.Chemscore.Internal.Correction>
0.0469

> <Gold.Rescore>
     Score         DG    S(hbond)    S(metal)    S(lipo)     H(rot)  DE(clash)    DE(int)     intcor
     19.34     -20.61       1.92        0.00     108.28       1.55       0.01       1.27       ----

> <Gold.Chemscore.Fitness>
19.3361

> <Gold.Chemscore.DG>
-20.6065

> <Gold.Chemscore.ZeroCoef>
-5.4800

> <Gold.Chemscore.Hbond>
1.9220

> <Gold.Chemscore.Metal>
0.0000

> <Gold.Chemscore.Lipo>
108.2831

> <Gold.Chemscore.Internal_Hbond>
0.0000

> <Gold.Chemscore.DEClash>
0.0050

> <Gold.Chemscore.DEInternal>
1.2653

> <Gold.Chemscore.Rot>
1.5478

> <Gold.Chemscore.Internal.Correction>
   9.000000E+99

> <Gold.Chemscore.Hbonds>
donor molecule, donor type, donor heavy atom, donor atom, acceptor molecule, acceptor atom, score
      P1  H  6896  6908       L1     2  0.82
      P1  H  7997  8009       L1     9  0.96

> <Gold.Chemscore.Hbond.Weighted>
-6.4196

> <Gold.Chemscore.Metal.Weighted>
-0.0000

> <Gold.Chemscore.Lipo.Weighted>
-12.6691

> <Gold.Chemscore.Internal_Hbond.Weighted>
0.0000

> <Gold.Chemscore.DEClash.Weighted>
0.0050

> <Gold.Chemscore.DEInternal.Weighted>
1.2653

> <Gold.Chemscore.Rot.Weighted>
3.9623

> <Gold.Chemscore.Internal.Correction.Weighted>
   9.000000E+99

> <Gold.Protein.RotatedTorsions>
[ 6907 6896 6895 6894 ] final  -11.02 input  -60.11 | X-H torsion
[ 7974 7965 7964 7962 ] final  -18.83 input  175.53 | X-H torsion
[ 8008 7997 7996 7995 ] final  117.83 input   59.86 | X-H torsion
[ 10167 10162 10161 10158 ] final   49.62 input  -65.29 | X-H torsion
[ 10718 10713 10712 10709 ] final -106.06 input   66.30 | X-H torsion
[ 10763 10752 10751 10750 ] final   26.48 input  -60.55 | X-H torsion
[ 11005 11000 10999 10996 ] final  139.45 input  -57.11 | X-H torsion

> <Gold.Protein.ActiveResidues>
 VAL166  LYS551  ARG553  GLY616  TRP617  ASP618  TYR619  PRO620  LYS621  CYS622 
 ASP623  PHE694  ASN695  SER759  ASP760  ASP761  ALA762  ILE779  LEU786  VAL792 
 PHE793  MET794  SER795  GLU796  ALA797  LYS798  CYS799  TRP800  GLU811  SER814 

> <Gold.Protein.RotatedAtoms>
  151.3929  135.0959  159.9531 H   0  0  0  0  0  0  0  0  0  0  0  0  # atno 6907 bound_to 6896
  152.5074  133.8963  159.7429 H   0  0  0  0  0  0  0  0  0  0  0  0  # atno 6908 bound_to 6896
  150.9420  133.6590  159.2817 H   0  0  0  0  0  0  0  0  0  0  0  0  # atno 6909 bound_to 6896
  146.1872  140.3977  142.8472 H   0  0  0  0  0  0  0  0  0  0  0  0  # atno 7974 bound_to 7965
  156.2515  140.2888  156.0739 H   0  0  0  0  0  0  0  0  0  0  0  0  # atno 8008 bound_to 7997
  155.1640  140.0400  157.2866 H   0  0  0  0  0  0  0  0  0  0  0  0  # atno 8009 bound_to 7997
  154.6372  140.2513  155.7370 H   0  0  0  0  0  0  0  0  0  0  0  0  # atno 8010 bound_to 7997
  140.2810  144.3157  150.6264 H   0  0  0  0  0  0  0  0  0  0  0  0  # atno 10167 bound_to 10162
  156.0373  130.5594  150.7627 H   0  0  0  0  0  0  0  0  0  0  0  0  # atno 10718 bound_to 10713
  153.0620  135.6559  154.0441 H   0  0  0  0  0  0  0  0  0  0  0  0  # atno 10763 bound_to 10752
  154.0107  135.2928  155.3394 H   0  0  0  0  0  0  0  0  0  0  0  0  # atno 10764 bound_to 10752
  154.6962  135.5263  153.8530 H   0  0  0  0  0  0  0  0  0  0  0  0  # atno 10765 bound_to 10752
  140.0256  134.9376  157.0561 H   0  0  0  0  0  0  0  0  0  0  0  0  # atno 11005 bound_to 11000
  144.8419  140.6870  143.6224 LP  0  0  0  0  0  0  0  0  0  0  0  0  # atno 17320 bound_to 7965
  145.3902  139.1618  143.4233 LP  0  0  0  0  0  0  0  0  0  0  0  0  # atno 17321 bound_to 7965
  140.5812  143.2172  151.7425 LP  0  0  0  0  0  0  0  0  0  0  0  0  # atno 17342 bound_to 10162
  139.4963  144.4077  152.0114 LP  0  0  0  0  0  0  0  0  0  0  0  0  # atno 17343 bound_to 10162
  157.5142  131.0927  151.0160 LP  0  0  0  0  0  0  0  0  0  0  0  0  # atno 17370 bound_to 10713
  157.0507  130.5786  149.5370 LP  0  0  0  0  0  0  0  0  0  0  0  0  # atno 17371 bound_to 10713
  140.4313  134.1778  155.7168 LP  0  0  0  0  0  0  0  0  0  0  0  0  # atno 17394 bound_to 11000
  141.1800  133.8433  157.1289 LP  0  0  0  0  0  0  0  0  0  0  0  0  # atno 17395 bound_to 11000

$$$$
