AV-unprocessed.smi:2083|AV-procd|sdf|8490|dock7
  -GOLD-   2272011193D 1   1.00000     0.00000
 Structure written by MMmdl.
 45 46  0  0  0  0  0  0  0  0  2 V2000
  149.2579  124.1444  151.2198 C   0  0  0  0  0  0  0  0  0  0  0  0
  148.6700  125.4843  151.5027 C   0  0  0  0  0  0  0  0  0  0  0  0
  148.6063  126.6431  150.7813 C   0  0  0  0  0  0  0  0  0  0  0  0
  147.9120  127.5239  151.6521 C   0  0  0  0  0  0  0  0  0  0  0  0
  147.6407  128.8618  151.2678 N   0  0  0  0  0  0  0  0  0  0  0  0
  147.0071  129.8064  151.9828 C   0  0  0  0  0  0  0  0  0  0  0  0
  146.5337  129.6493  153.1087 O   0  0  0  0  0  0  0  0  0  0  0  0
  146.9453  130.9660  151.3123 N   0  0  0  0  0  0  0  0  0  0  0  0
  146.3349  132.1923  151.8182 C   0  0  0  0  0  0  0  0  0  0  0  0
  147.3703  133.3124  152.1218 C   0  0  2  0  0  0  0  0  0  0  0  0
  148.2634  132.9052  153.3158 C   0  0  0  0  0  0  0  0  0  0  0  0
  146.7634  134.6612  152.3767 N   0  3  1  0  0  0  0  0  0  0  0  0
  145.9820  135.1518  151.2054 C   0  0  0  0  0  0  0  0  0  0  0  0
  145.5400  136.6105  151.3909 C   0  0  0  0  0  0  0  0  0  0  0  0
  144.7025  136.7621  152.6636 C   0  0  0  0  0  0  0  0  0  0  0  0
  145.4944  136.2430  153.8721 C   0  0  1  0  0  0  0  0  0  0  0  0
  144.6787  136.3607  155.1677 C   0  0  0  0  0  0  0  0  0  0  0  0
  145.9668  134.7935  153.6328 C   0  0  0  0  0  0  0  0  0  0  0  0
  147.5788  126.9544  152.8000 N   0  0  0  0  0  0  0  0  0  0  0  0
  148.0636  125.6441  152.7104 O   0  0  0  0  0  0  0  0  0  0  0  0
  149.5941  124.0775  150.1849 H   0  0  0  0  0  0  0  0  0  0  0  0
  148.5246  123.3556  151.3885 H   0  0  0  0  0  0  0  0  0  0  0  0
  150.1146  123.9551  151.8666 H   0  0  0  0  0  0  0  0  0  0  0  0
  148.9965  126.8274  149.7915 H   0  0  0  0  0  0  0  0  0  0  0  0
  147.9743  129.1301  150.3539 H   0  0  0  0  0  0  0  0  0  0  0  0
  147.3601  131.0081  150.3926 H   0  0  0  0  0  0  0  0  0  0  0  0
  145.6020  132.5170  151.0781 H   0  0  0  0  0  0  0  0  0  0  0  0
  145.7811  131.9377  152.7226 H   0  0  0  0  0  0  0  0  0  0  0  0
  148.0045  133.4064  151.2388 H   0  0  0  0  0  0  0  0  0  0  0  0
  148.7758  131.9605  153.1339 H   0  0  0  0  0  0  0  0  0  0  0  0
  147.6727  132.7880  154.2248 H   0  0  0  0  0  0  0  0  0  0  0  0
  149.0439  133.6345  153.5247 H   0  0  0  0  0  0  0  0  0  0  0  0
  146.5660  135.0854  150.2893 H   0  0  0  0  0  0  0  0  0  0  0  0
  145.1072  134.5153  151.0610 H   0  0  0  0  0  0  0  0  0  0  0  0
  146.4162  137.2582  151.4433 H   0  0  0  0  0  0  0  0  0  0  0  0
  144.9635  136.9386  150.5255 H   0  0  0  0  0  0  0  0  0  0  0  0
  144.4303  137.8084  152.8076 H   0  0  0  0  0  0  0  0  0  0  0  0
  143.7694  136.2062  152.5597 H   0  0  0  0  0  0  0  0  0  0  0  0
  146.3807  136.8695  153.9862 H   0  0  0  0  0  0  0  0  0  0  0  0
  143.7763  135.7498  155.1252 H   0  0  0  0  0  0  0  0  0  0  0  0
  144.3741  137.3920  155.3480 H   0  0  0  0  0  0  0  0  0  0  0  0
  145.2605  136.0351  156.0306 H   0  0  0  0  0  0  0  0  0  0  0  0
  145.1138  134.1137  153.5967 H   0  0  0  0  0  0  0  0  0  0  0  0
  146.5694  134.5157  154.4966 H   0  0  0  0  0  0  0  0  0  0  0  0
  147.5431  135.2931  152.4892 H   0  0  0  0  0  0  0  0  0  0  0  0
  1  2  1  0  0  0  0
  1 21  1  0  0  0  0
  1 22  1  0  0  0  0
  1 23  1  0  0  0  0
  2 20  1  0  0  0  0
  2  3  2  0  0  0  0
  3  4  1  0  0  0  0
  3 24  1  0  0  0  0
  4  5  1  0  0  0  0
  4 19  2  0  0  0  0
  5  6  1  0  0  0  0
  5 25  1  0  0  0  0
  6  7  2  0  0  0  0
  6  8  1  0  0  0  0
  8  9  1  0  0  0  0
  8 26  1  0  0  0  0
  9 10  1  0  0  0  0
  9 27  1  0  0  0  0
  9 28  1  0  0  0  0
 10 11  1  0  0  0  0
 10 12  1  0  0  0  0
 10 29  1  0  0  0  0
 11 30  1  0  0  0  0
 11 31  1  0  0  0  0
 11 32  1  0  0  0  0
 12 18  1  0  0  0  0
 12 13  1  0  0  0  0
 12 45  1  0  0  0  0
 13 14  1  0  0  0  0
 13 33  1  0  0  0  0
 13 34  1  0  0  0  0
 14 15  1  0  0  0  0
 14 35  1  0  0  0  0
 14 36  1  0  0  0  0
 15 16  1  0  0  0  0
 15 37  1  0  0  0  0
 15 38  1  0  0  0  0
 16 17  1  0  0  0  0
 16 18  1  0  0  0  0
 16 39  1  0  0  0  0
 17 40  1  0  0  0  0
 17 41  1  0  0  0  0
 17 42  1  0  0  0  0
 18 43  1  0  0  0  0
 18 44  1  0  0  0  0
 19 20  1  0  0  0  0
M  CHG  1  12   1
M  END
> <s_m_source_file>
AV-unprocessed.smi

> <i_m_source_file_index>
2083

> <i_lp_mmshare_version>
43012

> <i_f3d_flags>
0

> <s_epik_input>
W0NIM11jMVtjSF1jKG5vMSlbTkhdQyg9TylbTkhdW0NIMl1bQ0BIXShbQ0gzXSlOMltDSDJdW0NIMl1bQ0gyXVtDQEBIXShbQ0gzXSlbQ0gyXTI=

> <s_epik_cmdline>
J2VwaWtfcHl0aG9uJywgJy1waCcsICc3LjAnLCAnLXRuJywgJzgnLCAnLW1hJywgJzIwMCcsICctbWV0YWxfYmluZGluZycsICctaW1hZScsICc8aW5maWxlLm1hZT4nLCAnLW9tYWUnLCAnPG91dGZpbGUubWFlPic=

> <r_epik_Ionization_Penalty>
0.00216453

> <r_epik_Ionization_Penalty_Charging>
0.00212879

> <r_epik_Ionization_Penalty_Neutral>
3.57418e-05

> <r_epik_State_Penalty>
0.00146033

> <r_epik_Charging_Adjusted_Penalty>
0.00358912

> <i_epik_Tot_Q>
1

> <i_epik_Tot_abs_Q>
1

> <r_epik_Metal_State_Penalty>
0.0215827

> <b_epik_Metal_Only>
0

> <s_lp_Force_Field>
OPLS_2005

> <r_lp_Energy>
19.0311

> <b_lp_Chiralities_Consistent>
1

> <s_lp_Variant>
AV-unprocessed.smi:2083-1

> <Gold.Version>
5.8.1

> <Gold.Id.Protein>
6NUR|6NUR_protein|mol2

> <Gold.PLP.Fitness>
40.2542

> <Gold.PLP.PLP>
-32.7876

> <Gold.PLP.part.hbond>
-4.0553

> <Gold.PLP.part.metal>
0.0000

> <Gold.PLP.part.buried>
-2.5641

> <Gold.PLP.part.nonpolar>
-26.1528

> <Gold.PLP.part.repulsive>
0.3266

> <Gold.PLP.ligand.clash>
0.0000

> <Gold.PLP.ligand.torsion>
0.1112

> <Gold.PLP.Chemscore.Hbond>
2.5427

> <Gold.PLP.Chemscore.CHOScore>
0.0000

> <Gold.PLP.Chemscore.Metal>
0.0000

> <Gold.Chemscore.Hbonds>
donor molecule, donor type, donor heavy atom, donor atom, acceptor molecule, acceptor atom, score
      L1  H     5    25       P1 10747  0.34
      L1  H     8    26       P1 10747  0.38
      L1  H    12    45       P1  7948  2.00

> <Gold.PLP.Chemscore.Internal.Correction>
0.0609

> <Gold.Rescore>
     Score         DG    S(hbond)    S(metal)    S(lipo)     H(rot)  DE(clash)    DE(int)     intcor
     11.56     -12.95       1.79        0.00      46.63       1.55       0.02       1.38       ----

> <Gold.Chemscore.Fitness>
11.5572

> <Gold.Chemscore.DG>
-12.9520

> <Gold.Chemscore.ZeroCoef>
-5.4800

> <Gold.Chemscore.Hbond>
1.7895

> <Gold.Chemscore.Metal>
0.0000

> <Gold.Chemscore.Lipo>
46.6344

> <Gold.Chemscore.Internal_Hbond>
0.0000

> <Gold.Chemscore.DEClash>
0.0166

> <Gold.Chemscore.DEInternal>
1.3782

> <Gold.Chemscore.Rot>
1.5474

> <Gold.Chemscore.Internal.Correction>
   9.000000E+99

> <Gold.Chemscore.Hbonds>
donor molecule, donor type, donor heavy atom, donor atom, acceptor molecule, acceptor atom, score
      L1  H     5    25       P1 10747  0.09
      L1  H     8    26       P1 10747  0.38
      L1  H    12    45       P1  7948  0.95

> <Gold.Chemscore.Hbond.Weighted>
-5.9770

> <Gold.Chemscore.Metal.Weighted>
-0.0000

> <Gold.Chemscore.Lipo.Weighted>
-5.4562

> <Gold.Chemscore.Internal_Hbond.Weighted>
0.0000

> <Gold.Chemscore.DEClash.Weighted>
0.0166

> <Gold.Chemscore.DEInternal.Weighted>
1.3782

> <Gold.Chemscore.Rot.Weighted>
3.9612

> <Gold.Chemscore.Internal.Correction.Weighted>
   9.000000E+99

> <Gold.Protein.RotatedTorsions>
[ 6907 6896 6895 6894 ] final  -30.72 input  -60.11 | X-H torsion
[ 7974 7965 7964 7962 ] final  137.68 input  175.53 | X-H torsion
[ 8008 7997 7996 7995 ] final  -94.90 input   59.86 | X-H torsion
[ 10167 10162 10161 10158 ] final   86.47 input  -65.29 | X-H torsion
[ 10718 10713 10712 10709 ] final  -79.68 input   66.30 | X-H torsion
[ 10763 10752 10751 10750 ] final  -92.02 input  -60.55 | X-H torsion
[ 11005 11000 10999 10996 ] final   -7.98 input  -57.11 | X-H torsion

> <Gold.Protein.ActiveResidues>
 VAL166  LYS551  ARG553  GLY616  TRP617  ASP618  TYR619  PRO620  LYS621  CYS622 
 ASP623  PHE694  ASN695  SER759  ASP760  ASP761  ALA762  ILE779  LEU786  VAL792 
 PHE793  MET794  SER795  GLU796  ALA797  LYS798  CYS799  TRP800  GLU811  SER814 

> <Gold.Protein.RotatedAtoms>
  151.1017  134.9976  159.8451 H   0  0  0  0  0  0  0  0  0  0  0  0  # atno 6907 bound_to 6896
  152.5437  134.1942  159.8696 H   0  0  0  0  0  0  0  0  0  0  0  0  # atno 6908 bound_to 6896
  151.1985  133.4580  159.2629 H   0  0  0  0  0  0  0  0  0  0  0  0  # atno 6909 bound_to 6896
  144.9444  139.4892  143.5556 H   0  0  0  0  0  0  0  0  0  0  0  0  # atno 7974 bound_to 7965
  154.7543  140.0485  157.0920 H   0  0  0  0  0  0  0  0  0  0  0  0  # atno 8008 bound_to 7997
  155.0017  140.3125  155.4845 H   0  0  0  0  0  0  0  0  0  0  0  0  # atno 8009 bound_to 7997
  156.2891  140.2200  156.5127 H   0  0  0  0  0  0  0  0  0  0  0  0  # atno 8010 bound_to 7997
  139.8872  144.6406  150.8778 H   0  0  0  0  0  0  0  0  0  0  0  0  # atno 10167 bound_to 10162
  156.0087  130.4553  150.3686 H   0  0  0  0  0  0  0  0  0  0  0  0  # atno 10718 bound_to 10713
  154.6819  135.5246  153.8274 H   0  0  0  0  0  0  0  0  0  0  0  0  # atno 10763 bound_to 10752
  153.0570  135.6554  154.0562 H   0  0  0  0  0  0  0  0  0  0  0  0  # atno 10764 bound_to 10752
  154.0448  135.2974  155.3329 H   0  0  0  0  0  0  0  0  0  0  0  0  # atno 10765 bound_to 10752
  140.7186  133.8847  155.8804 H   0  0  0  0  0  0  0  0  0  0  0  0  # atno 11005 bound_to 11000
  146.3298  139.8486  142.8877 LP  0  0  0  0  0  0  0  0  0  0  0  0  # atno 17320 bound_to 7965
  145.2941  141.0175  143.3646 LP  0  0  0  0  0  0  0  0  0  0  0  0  # atno 17321 bound_to 7965
  140.7733  143.3538  151.1961 LP  0  0  0  0  0  0  0  0  0  0  0  0  # atno 17342 bound_to 10162
  139.7142  143.9327  152.2960 LP  0  0  0  0  0  0  0  0  0  0  0  0  # atno 17343 bound_to 10162
  157.1771  131.0383  151.2767 LP  0  0  0  0  0  0  0  0  0  0  0  0  # atno 17370 bound_to 10713
  157.4178  130.7421  149.6889 LP  0  0  0  0  0  0  0  0  0  0  0  0  # atno 17371 bound_to 10713
  141.0023  134.1134  157.4305 LP  0  0  0  0  0  0  0  0  0  0  0  0  # atno 17394 bound_to 11000
  139.8853  135.0071  156.6429 LP  0  0  0  0  0  0  0  0  0  0  0  0  # atno 17395 bound_to 11000

$$$$
