AV-unprocessed.smi:752|AV-procd|sdf|3596|dock6
  -GOLD-   22720 0593D 1   1.00000     0.00000
 Structure written by MMmdl.
 41 42  0  0  0  0  0  0  0  0  1 V2000
  151.6176  145.5920  159.9783 C   0  0  0  0  0  0  0  0  0  0  0  0
  151.8024  144.4718  158.9493 C   0  0  0  0  0  0  0  0  0  0  0  0
  152.3838  143.2346  159.5467 C   0  0  0  0  0  0  0  0  0  0  0  0
  152.5621  142.1013  158.8633 N   0  0  0  0  0  0  0  0  0  0  0  0
  153.0980  141.0754  159.6488 C   0  0  0  0  0  0  0  0  0  0  0  0
  153.3755  139.7318  159.0371 C   0  0  0  0  0  0  0  0  0  0  0  0
  154.8108  139.2807  159.3267 C   0  0  0  0  0  0  0  0  0  0  0  0
  155.7669  139.9064  158.8669 O   0  0  0  0  0  0  0  0  0  0  0  0
  154.9459  138.1794  160.0825 N   0  0  0  0  0  0  0  0  0  0  0  0
  156.2121  137.5715  160.4821 C   0  0  0  0  0  0  0  0  0  0  0  0
  156.1547  136.9585  161.8979 C   0  0  1  0  0  0  0  0  0  0  0  0
  155.2491  137.7558  162.8644 C   0  0  0  0  0  0  0  0  0  0  0  0
  155.1832  137.1084  164.2574 C   0  0  0  0  0  0  0  0  0  0  0  0
  154.7282  135.6444  164.1735 C   0  0  0  0  0  0  0  0  0  0  0  0
  155.6385  134.8438  163.2286 C   0  0  1  0  0  0  0  0  0  0  0  0
  155.1573  133.5208  163.1188 O   0  0  0  0  0  0  0  0  0  0  0  0
  155.6917  135.4883  161.8324 C   0  0  0  0  0  0  0  0  0  0  0  0
  153.3009  141.4464  160.9556 C   0  0  0  0  0  0  0  0  0  0  0  0
  152.8388  143.1015  161.2412 S   0  0  0  0  0  0  0  0  0  0  0  0
  151.1962  146.4823  159.5115 H   0  0  0  0  0  0  0  0  0  0  0  0
  152.5698  145.8710  160.4305 H   0  0  0  0  0  0  0  0  0  0  0  0
  150.9432  145.2844  160.7780 H   0  0  0  0  0  0  0  0  0  0  0  0
  150.8438  144.2253  158.4913 H   0  0  0  0  0  0  0  0  0  0  0  0
  152.4550  144.8106  158.1443 H   0  0  0  0  0  0  0  0  0  0  0  0
  152.6679  138.9940  159.4177 H   0  0  0  0  0  0  0  0  0  0  0  0
  153.2371  139.7605  157.9556 H   0  0  0  0  0  0  0  0  0  0  0  0
  154.1043  137.7284  160.4114 H   0  0  0  0  0  0  0  0  0  0  0  0
  156.5353  136.8235  159.7561 H   0  0  0  0  0  0  0  0  0  0  0  0
  156.9664  138.3584  160.4568 H   0  0  0  0  0  0  0  0  0  0  0  0
  157.1673  136.9675  162.3048 H   0  0  0  0  0  0  0  0  0  0  0  0
  155.6128  138.7772  162.9729 H   0  0  0  0  0  0  0  0  0  0  0  0
  154.2432  137.8297  162.4486 H   0  0  0  0  0  0  0  0  0  0  0  0
  156.1650  137.1595  164.7300 H   0  0  0  0  0  0  0  0  0  0  0  0
  154.5031  137.6723  164.8963 H   0  0  0  0  0  0  0  0  0  0  0  0
  154.7321  135.1983  165.1687 H   0  0  0  0  0  0  0  0  0  0  0  0
  153.6970  135.6058  163.8188 H   0  0  0  0  0  0  0  0  0  0  0  0
  156.6455  134.8008  163.6458 H   0  0  0  0  0  0  0  0  0  0  0  0
  154.2304  133.5216  163.3031 H   0  0  0  0  0  0  0  0  0  0  0  0
  154.7067  135.4372  161.3655 H   0  0  0  0  0  0  0  0  0  0  0  0
  156.3657  134.9169  161.1927 H   0  0  0  0  0  0  0  0  0  0  0  0
  153.6950  140.8484  161.7637 H   0  0  0  0  0  0  0  0  0  0  0  0
  1  2  1  0  0  0  0
  1 20  1  0  0  0  0
  1 21  1  0  0  0  0
  1 22  1  0  0  0  0
  2  3  1  0  0  0  0
  2 23  1  0  0  0  0
  2 24  1  0  0  0  0
  3 19  1  0  0  0  0
  3  4  2  0  0  0  0
  4  5  1  0  0  0  0
  5  6  1  0  0  0  0
  5 18  2  0  0  0  0
  6  7  1  0  0  0  0
  6 25  1  0  0  0  0
  6 26  1  0  0  0  0
  7  8  2  0  0  0  0
  7  9  1  0  0  0  0
  9 10  1  0  0  0  0
  9 27  1  0  0  0  0
 10 11  1  0  0  0  0
 10 28  1  0  0  0  0
 10 29  1  0  0  0  0
 11 17  1  0  0  0  0
 11 12  1  0  0  0  0
 11 30  1  0  0  0  0
 12 13  1  0  0  0  0
 12 31  1  0  0  0  0
 12 32  1  0  0  0  0
 13 14  1  0  0  0  0
 13 33  1  0  0  0  0
 13 34  1  0  0  0  0
 14 15  1  0  0  0  0
 14 35  1  0  0  0  0
 14 36  1  0  0  0  0
 15 16  1  0  0  0  0
 15 17  1  0  0  0  0
 15 37  1  0  0  0  0
 16 38  1  0  0  0  0
 17 39  1  0  0  0  0
 17 40  1  0  0  0  0
 18 19  1  0  0  0  0
 18 41  1  0  0  0  0
M  END
> <s_m_source_file>
AV-unprocessed.smi

> <i_m_source_file_index>
752

> <i_lp_mmshare_version>
43012

> <i_f3d_flags>
0

> <s_epik_input>
W0NIM11bQ0gyXWMxbmMoW2NIXXMxKVtDSDJdQyg9TylbTkhdW0NIMl1bQ0BASF0yW0NIMl1bQ0gyXVtDSDJdW0NAQEhdKFtPSF0pW0NIMl0y

> <s_epik_cmdline>
J2VwaWtfcHl0aG9uJywgJy1waCcsICc3LjAnLCAnLXRuJywgJzgnLCAnLW1hJywgJzIwMCcsICctbWV0YWxfYmluZGluZycsICctaW1hZScsICc8aW5maWxlLm1hZT4nLCAnLW9tYWUnLCAnPG91dGZpbGUubWFlPic=

> <r_lp_tautomer_probability>
1

> <r_epik_Ionization_Penalty>
5.44903e-05

> <r_epik_Ionization_Penalty_Charging>
0

> <r_epik_Ionization_Penalty_Neutral>
5.44903e-05

> <r_epik_State_Penalty>
-0

> <r_epik_Charging_Adjusted_Penalty>
0

> <i_epik_Tot_Q>
0

> <i_epik_Tot_abs_Q>
0

> <r_epik_Metal_State_Penalty>
-0

> <b_epik_Metal_Only>
0

> <s_lp_Force_Field>
OPLS_2005

> <r_lp_Energy>
4.53549

> <b_lp_Chiralities_Consistent>
1

> <s_lp_Variant>
AV-unprocessed.smi:752-2

> <Gold.Version>
5.8.1

> <Gold.Id.Protein>
6NUR|6NUR_protein|mol2

> <Gold.PLP.Fitness>
42.5250

> <Gold.PLP.PLP>
-40.6493

> <Gold.PLP.part.hbond>
-1.0000

> <Gold.PLP.part.metal>
0.0000

> <Gold.PLP.part.buried>
-4.8589

> <Gold.PLP.part.nonpolar>
-35.3147

> <Gold.PLP.part.repulsive>
0.0278

> <Gold.PLP.ligand.clash>
0.0000

> <Gold.PLP.ligand.torsion>
0.5911

> <Gold.PLP.Chemscore.Hbond>
1.0000

> <Gold.PLP.Chemscore.CHOScore>
0.0000

> <Gold.PLP.Chemscore.Metal>
0.0000

> <Gold.Chemscore.Hbonds>
donor molecule, donor type, donor heavy atom, donor atom, acceptor molecule, acceptor atom, score
      P1  H  7997  8008       L1     8  1.00

> <Gold.PLP.Chemscore.Internal.Correction>
0.0580

> <Gold.Rescore>
     Score         DG    S(hbond)    S(metal)    S(lipo)     H(rot)  DE(clash)    DE(int)     intcor
     16.95     -17.46       0.94        0.00     121.12       2.08       0.05       0.47       ----

> <Gold.Chemscore.Fitness>
16.9456

> <Gold.Chemscore.DG>
-17.4648

> <Gold.Chemscore.ZeroCoef>
-5.4800

> <Gold.Chemscore.Hbond>
0.9429

> <Gold.Chemscore.Metal>
0.0000

> <Gold.Chemscore.Lipo>
121.1164

> <Gold.Chemscore.Internal_Hbond>
0.0000

> <Gold.Chemscore.DEClash>
0.0495

> <Gold.Chemscore.DEInternal>
0.4697

> <Gold.Chemscore.Rot>
2.0840

> <Gold.Chemscore.Internal.Correction>
   9.000000E+99

> <Gold.Chemscore.Hbonds>
donor molecule, donor type, donor heavy atom, donor atom, acceptor molecule, acceptor atom, score
      P1  H  7997  8008       L1     8  0.73

> <Gold.Chemscore.Hbond.Weighted>
-3.1492

> <Gold.Chemscore.Metal.Weighted>
-0.0000

> <Gold.Chemscore.Lipo.Weighted>
-14.1706

> <Gold.Chemscore.Internal_Hbond.Weighted>
0.0000

> <Gold.Chemscore.DEClash.Weighted>
0.0495

> <Gold.Chemscore.DEInternal.Weighted>
0.4697

> <Gold.Chemscore.Rot.Weighted>
5.3350

> <Gold.Chemscore.Internal.Correction.Weighted>
   9.000000E+99

> <Gold.Protein.RotatedTorsions>
[ 6907 6896 6895 6894 ] final  145.75 input  -60.11 | X-H torsion
[ 7974 7965 7964 7962 ] final   61.14 input  175.53 | X-H torsion
[ 8008 7997 7996 7995 ] final -152.02 input   59.86 | X-H torsion
[ 10167 10162 10161 10158 ] final   98.44 input  -65.29 | X-H torsion
[ 10718 10713 10712 10709 ] final  -14.70 input   66.30 | X-H torsion
[ 10763 10752 10751 10750 ] final   55.98 input  -60.55 | X-H torsion
[ 11005 11000 10999 10996 ] final  -89.36 input  -57.11 | X-H torsion

> <Gold.Protein.ActiveResidues>
 VAL166  LYS551  ARG553  GLY616  TRP617  ASP618  TYR619  PRO620  LYS621  CYS622 
 ASP623  PHE694  ASN695  SER759  ASP760  ASP761  ALA762  ILE779  LEU786  VAL792 
 PHE793  MET794  SER795  GLU796  ALA797  LYS798  CYS799  TRP800  GLU811  SER814 

> <Gold.Protein.RotatedAtoms>
  152.1769  133.4681  159.4937 H   0  0  0  0  0  0  0  0  0  0  0  0  # atno 6907 bound_to 6896
  150.6928  134.1883  159.4284 H   0  0  0  0  0  0  0  0  0  0  0  0  # atno 6908 bound_to 6896
  151.9792  135.0037  160.0607 H   0  0  0  0  0  0  0  0  0  0  0  0  # atno 6909 bound_to 6896
  145.8881  139.3491  143.0666 H   0  0  0  0  0  0  0  0  0  0  0  0  # atno 7974 bound_to 7965
  155.6486  140.0709  157.2594 H   0  0  0  0  0  0  0  0  0  0  0  0  # atno 8008 bound_to 7997
  154.4167  140.1737  156.1700 H   0  0  0  0  0  0  0  0  0  0  0  0  # atno 8009 bound_to 7997
  155.9796  140.3355  155.6654 H   0  0  0  0  0  0  0  0  0  0  0  0  # atno 8010 bound_to 7997
  139.7709  144.6923  151.0158 H   0  0  0  0  0  0  0  0  0  0  0  0  # atno 10167 bound_to 10162
  156.6123  130.4853  149.6197 H   0  0  0  0  0  0  0  0  0  0  0  0  # atno 10718 bound_to 10713
  152.9825  135.5692  154.5155 H   0  0  0  0  0  0  0  0  0  0  0  0  # atno 10763 bound_to 10752
  154.4651  135.2783  155.1686 H   0  0  0  0  0  0  0  0  0  0  0  0  # atno 10764 bound_to 10752
  154.3257  135.6259  153.5581 H   0  0  0  0  0  0  0  0  0  0  0  0  # atno 10765 bound_to 10752
  141.1586  133.7625  156.9583 H   0  0  0  0  0  0  0  0  0  0  0  0  # atno 11005 bound_to 11000
  145.8942  140.9284  143.0536 LP  0  0  0  0  0  0  0  0  0  0  0  0  # atno 17320 bound_to 7965
  144.6729  140.0946  143.7463 LP  0  0  0  0  0  0  0  0  0  0  0  0  # atno 17321 bound_to 7965
  140.7814  143.4590  151.0305 LP  0  0  0  0  0  0  0  0  0  0  0  0  # atno 17342 bound_to 10162
  139.8273  143.7738  152.3179 LP  0  0  0  0  0  0  0  0  0  0  0  0  # atno 17343 bound_to 10162
  156.2380  130.6834  151.1528 LP  0  0  0  0  0  0  0  0  0  0  0  0  # atno 17370 bound_to 10713
  157.7251  131.0655  150.5968 LP  0  0  0  0  0  0  0  0  0  0  0  0  # atno 17371 bound_to 10713
  140.1210  134.9417  157.2203 LP  0  0  0  0  0  0  0  0  0  0  0  0  # atno 17394 bound_to 11000
  140.3072  134.3065  155.7275 LP  0  0  0  0  0  0  0  0  0  0  0  0  # atno 17395 bound_to 11000

$$$$
