AV-unprocessed.smi:2061|AV-procd|sdf|8391|dock1
  -GOLD-   2272011 73D 1   1.00000     0.00000
 Structure written by MMmdl.
 45 46  0  0  0  0  0  0  0  0  3 V2000
  145.7878  134.9516  162.4858 C   0  0  0  0  0  0  0  0  0  0  0  0
  146.6880  135.3770  161.3773 C   0  0  0  0  0  0  0  0  0  0  0  0
  147.1414  136.5984  160.9647 C   0  0  0  0  0  0  0  0  0  0  0  0
  147.9638  136.2767  159.8522 C   0  0  0  0  0  0  0  0  0  0  0  0
  148.6313  137.2981  159.1257 N   0  0  0  0  0  0  0  0  0  0  0  0
  149.7268  137.2011  158.3508 C   0  0  0  0  0  0  0  0  0  0  0  0
  150.3046  136.1153  158.2183 O   0  0  0  0  0  0  0  0  0  0  0  0
  150.0637  138.3910  157.7804 N   0  5  0  0  0  0  0  0  0  0  0  0
  151.0444  139.3310  158.3269 C   0  0  0  0  0  0  0  0  0  0  0  0
  150.7709  140.7791  157.8325 C   0  0  1  0  0  0  0  0  0  0  0  0
  149.2776  141.0831  157.5529 C   0  0  0  0  0  0  0  0  0  0  0  0
  151.4067  141.7731  158.7515 N   0  3  1  0  0  0  0  0  0  0  0  0
  152.7894  141.4124  159.1508 C   0  0  0  0  0  0  0  0  0  0  0  0
  153.3081  142.3590  160.2511 C   0  0  2  0  0  0  0  0  0  0  0  0
  152.6787  142.0958  161.6306 C   0  0  0  0  0  0  0  0  0  0  0  0
  153.1655  143.7206  159.8447 O   0  0  0  0  0  0  0  0  0  0  0  0
  151.8426  144.1037  159.4761 C   0  0  1  0  0  0  0  0  0  0  0  0
  151.8780  145.5803  159.0669 C   0  0  0  0  0  0  0  0  0  0  0  0
  151.3516  143.1999  158.3325 C   0  0  0  0  0  0  0  0  0  0  0  0
  148.0069  134.9750  159.6085 N   0  0  0  0  0  0  0  0  0  0  0  0
  147.1907  134.3921  160.5849 O   0  0  0  0  0  0  0  0  0  0  0  0
  145.1975  135.7919  162.8514 H   0  0  0  0  0  0  0  0  0  0  0  0
  146.3662  134.5548  163.3202 H   0  0  0  0  0  0  0  0  0  0  0  0
  145.0991  134.1758  162.1507 H   0  0  0  0  0  0  0  0  0  0  0  0
  146.9193  137.5654  161.3906 H   0  0  0  0  0  0  0  0  0  0  0  0
  148.2229  138.2186  159.1927 H   0  0  0  0  0  0  0  0  0  0  0  0
  151.0377  139.3220  159.4171 H   0  0  0  0  0  0  0  0  0  0  0  0
  152.0615  139.0497  158.0486 H   0  0  0  0  0  0  0  0  0  0  0  0
  151.2891  140.8727  156.8767 H   0  0  0  0  0  0  0  0  0  0  0  0
  148.8746  140.4430  156.7660 H   0  0  0  0  0  0  0  0  0  0  0  0
  149.1481  142.1103  157.2115 H   0  0  0  0  0  0  0  0  0  0  0  0
  148.6467  140.9490  158.4334 H   0  0  0  0  0  0  0  0  0  0  0  0
  152.8284  140.3829  159.5098 H   0  0  0  0  0  0  0  0  0  0  0  0
  153.4394  141.4670  158.2765 H   0  0  0  0  0  0  0  0  0  0  0  0
  154.3796  142.1871  160.3578 H   0  0  0  0  0  0  0  0  0  0  0  0
  152.9163  141.0897  161.9771 H   0  0  0  0  0  0  0  0  0  0  0  0
  151.5926  142.1827  161.6149 H   0  0  0  0  0  0  0  0  0  0  0  0
  153.0611  142.7973  162.3722 H   0  0  0  0  0  0  0  0  0  0  0  0
  151.1759  144.0060  160.3332 H   0  0  0  0  0  0  0  0  0  0  0  0
  150.8866  145.9337  158.7826 H   0  0  0  0  0  0  0  0  0  0  0  0
  152.5460  145.7402  158.2199 H   0  0  0  0  0  0  0  0  0  0  0  0
  152.2296  146.2039  159.8893 H   0  0  0  0  0  0  0  0  0  0  0  0
  151.9739  143.3557  157.4502 H   0  0  0  0  0  0  0  0  0  0  0  0
  150.3332  143.4796  158.0607 H   0  0  0  0  0  0  0  0  0  0  0  0
  150.8636  141.7100  159.6010 H   0  0  0  0  0  0  0  0  0  0  0  0
  1  2  1  0  0  0  0
  1 22  1  0  0  0  0
  1 23  1  0  0  0  0
  1 24  1  0  0  0  0
  2 21  1  0  0  0  0
  2  3  2  0  0  0  0
  3  4  1  0  0  0  0
  3 25  1  0  0  0  0
  4  5  1  0  0  0  0
  4 20  2  0  0  0  0
  5  6  1  0  0  0  0
  5 26  1  0  0  0  0
  6  7  2  0  0  0  0
  6  8  1  0  0  0  0
  8  9  1  0  0  0  0
  9 10  1  0  0  0  0
  9 27  1  0  0  0  0
  9 28  1  0  0  0  0
 10 11  1  0  0  0  0
 10 12  1  0  0  0  0
 10 29  1  0  0  0  0
 11 30  1  0  0  0  0
 11 31  1  0  0  0  0
 11 32  1  0  0  0  0
 12 19  1  0  0  0  0
 12 13  1  0  0  0  0
 12 45  1  0  0  0  0
 13 14  1  0  0  0  0
 13 33  1  0  0  0  0
 13 34  1  0  0  0  0
 14 15  1  0  0  0  0
 14 16  1  0  0  0  0
 14 35  1  0  0  0  0
 15 36  1  0  0  0  0
 15 37  1  0  0  0  0
 15 38  1  0  0  0  0
 16 17  1  0  0  0  0
 17 18  1  0  0  0  0
 17 19  1  0  0  0  0
 17 39  1  0  0  0  0
 18 40  1  0  0  0  0
 18 41  1  0  0  0  0
 18 42  1  0  0  0  0
 19 43  1  0  0  0  0
 19 44  1  0  0  0  0
 20 21  1  0  0  0  0
M  CHG  1   8  -1
M  CHG  1  12   1
M  END
> <s_m_source_file>
AV-unprocessed.smi

> <i_m_source_file_index>
2061

> <i_lp_mmshare_version>
43012

> <i_f3d_flags>
0

> <s_epik_input>
W0NIM11jMVtjSF1jKG5vMSlbTkhdQyg9TylbTkhdW0NIMl1bQ0BIXShbQ0gzXSlOMltDSDJdW0NAQEhdKFtDSDNdKU9bQ0BASF0oW0NIM10pW0NIMl0y

> <s_epik_cmdline>
J2VwaWtfcHl0aG9uJywgJy1waCcsICc3LjAnLCAnLXRuJywgJzgnLCAnLW1hJywgJzIwMCcsICctbWV0YWxfYmluZGluZycsICctaW1hZScsICc8aW5maWxlLm1hZT4nLCAnLW9tYWUnLCAnPG91dGZpbGUubWFlPic=

> <r_epik_Ionization_Penalty>
6.8073

> <r_epik_Ionization_Penalty_Charging>
6.80729

> <r_epik_Ionization_Penalty_Neutral>
5.65391e-06

> <r_epik_State_Penalty>
7.47323

> <r_epik_Charging_Adjusted_Penalty>
14.2805

> <i_epik_Tot_Q>
0

> <i_epik_Tot_abs_Q>
2

> <r_epik_Metal_State_Penalty>
3.40035

> <b_epik_Metal_Only>
1

> <s_lp_Force_Field>
OPLS_2005

> <r_lp_Energy>
19.3707

> <b_lp_Chiralities_Consistent>
1

> <s_lp_Variant>
AV-unprocessed.smi:2061-32

> <Gold.Version>
5.8.1

> <Gold.Id.Protein>
6NUR|6NUR_protein|mol2

> <Gold.PLP.Fitness>
38.8734

> <Gold.PLP.PLP>
-38.4495

> <Gold.PLP.part.hbond>
-2.0000

> <Gold.PLP.part.metal>
0.0000

> <Gold.PLP.part.buried>
-4.0809

> <Gold.PLP.part.nonpolar>
-32.2353

> <Gold.PLP.part.repulsive>
0.3047

> <Gold.PLP.ligand.clash>
0.0000

> <Gold.PLP.ligand.torsion>
1.4008

> <Gold.PLP.Chemscore.Hbond>
0.9913

> <Gold.PLP.Chemscore.CHOScore>
0.0000

> <Gold.PLP.Chemscore.Metal>
0.0000

> <Gold.Chemscore.Hbonds>
donor molecule, donor type, donor heavy atom, donor atom, acceptor molecule, acceptor atom, score
      P1  H  6896  6907       L1     7  0.47

> <Gold.PLP.Chemscore.Internal.Correction>
0.2517

> <Gold.Rescore>
     Score         DG    S(hbond)    S(metal)    S(lipo)     H(rot)  DE(clash)    DE(int)     intcor
     12.65     -15.68       0.68        0.00     101.93       1.56       0.28       2.76       ----

> <Gold.Chemscore.Fitness>
12.6477

> <Gold.Chemscore.DG>
-15.6837

> <Gold.Chemscore.ZeroCoef>
-5.4800

> <Gold.Chemscore.Hbond>
0.6763

> <Gold.Chemscore.Metal>
0.0000

> <Gold.Chemscore.Lipo>
101.9281

> <Gold.Chemscore.Internal_Hbond>
0.0000

> <Gold.Chemscore.DEClash>
0.2756

> <Gold.Chemscore.DEInternal>
2.7604

> <Gold.Chemscore.Rot>
1.5550

> <Gold.Chemscore.Internal.Correction>
   9.000000E+99

> <Gold.Chemscore.Hbonds>
donor molecule, donor type, donor heavy atom, donor atom, acceptor molecule, acceptor atom, score
      P1  H  6896  6907       L1     7  0.46

> <Gold.Chemscore.Hbond.Weighted>
-2.2589

> <Gold.Chemscore.Metal.Weighted>
-0.0000

> <Gold.Chemscore.Lipo.Weighted>
-11.9256

> <Gold.Chemscore.Internal_Hbond.Weighted>
0.0000

> <Gold.Chemscore.DEClash.Weighted>
0.2756

> <Gold.Chemscore.DEInternal.Weighted>
2.7604

> <Gold.Chemscore.Rot.Weighted>
3.9809

> <Gold.Chemscore.Internal.Correction.Weighted>
   9.000000E+99

> <Gold.Protein.RotatedTorsions>
[ 6907 6896 6895 6894 ] final  -81.04 input  -60.11 | X-H torsion
[ 7974 7965 7964 7962 ] final  -82.08 input  175.53 | X-H torsion
[ 8008 7997 7996 7995 ] final -108.64 input   59.86 | X-H torsion
[ 10167 10162 10161 10158 ] final   71.48 input  -65.29 | X-H torsion
[ 10718 10713 10712 10709 ] final   -4.44 input   66.30 | X-H torsion
[ 10763 10752 10751 10750 ] final  -70.01 input  -60.55 | X-H torsion
[ 11005 11000 10999 10996 ] final  -45.89 input  -57.11 | X-H torsion

> <Gold.Protein.ActiveResidues>
 VAL166  LYS551  ARG553  GLY616  TRP617  ASP618  TYR619  PRO620  LYS621  CYS622 
 ASP623  PHE694  ASN695  SER759  ASP760  ASP761  ALA762  ILE779  LEU786  VAL792 
 PHE793  MET794  SER795  GLU796  ALA797  LYS798  CYS799  TRP800  GLU811  SER814 

> <Gold.Protein.RotatedAtoms>
  150.6918  134.3877  159.5062 H   0  0  0  0  0  0  0  0  0  0  0  0  # atno 6907 bound_to 6896
  152.1670  134.8863  160.0546 H   0  0  0  0  0  0  0  0  0  0  0  0  # atno 6908 bound_to 6896
  151.9903  133.3754  159.4178 H   0  0  0  0  0  0  0  0  0  0  0  0  # atno 6909 bound_to 6896
  145.5381  140.9513  143.1566 H   0  0  0  0  0  0  0  0  0  0  0  0  # atno 7974 bound_to 7965
  154.9473  140.0401  157.2127 H   0  0  0  0  0  0  0  0  0  0  0  0  # atno 8008 bound_to 7997
  154.8011  140.2852  155.5898 H   0  0  0  0  0  0  0  0  0  0  0  0  # atno 8009 bound_to 7997
  156.2961  140.2555  156.2880 H   0  0  0  0  0  0  0  0  0  0  0  0  # atno 8010 bound_to 7997
  140.0457  144.5353  150.7401 H   0  0  0  0  0  0  0  0  0  0  0  0  # atno 10167 bound_to 10162
  156.7613  130.5270  149.5784 H   0  0  0  0  0  0  0  0  0  0  0  0  # atno 10718 bound_to 10713
  154.4115  135.6008  153.5956 H   0  0  0  0  0  0  0  0  0  0  0  0  # atno 10763 bound_to 10752
  152.9790  135.5930  154.4064 H   0  0  0  0  0  0  0  0  0  0  0  0  # atno 10764 bound_to 10752
  154.3877  135.2841  155.2152 H   0  0  0  0  0  0  0  0  0  0  0  0  # atno 10765 bound_to 10752
  141.0544  133.6731  156.3078 H   0  0  0  0  0  0  0  0  0  0  0  0  # atno 11005 bound_to 11000
  144.7591  139.7000  143.7242 LP  0  0  0  0  0  0  0  0  0  0  0  0  # atno 17320 bound_to 7965
  146.2000  139.5288  142.9750 LP  0  0  0  0  0  0  0  0  0  0  0  0  # atno 17321 bound_to 7965
  140.7240  143.2617  151.4184 LP  0  0  0  0  0  0  0  0  0  0  0  0  # atno 17342 bound_to 10162
  139.5985  144.1346  152.2171 LP  0  0  0  0  0  0  0  0  0  0  0  0  # atno 17343 bound_to 10162
  156.1337  130.6196  151.0370 LP  0  0  0  0  0  0  0  0  0  0  0  0  # atno 17370 bound_to 10713
  157.6733  131.0856  150.7557 LP  0  0  0  0  0  0  0  0  0  0  0  0  # atno 17371 bound_to 10713
  140.5992  134.5572  157.5514 LP  0  0  0  0  0  0  0  0  0  0  0  0  # atno 17394 bound_to 11000
  139.9378  134.7843  156.0757 LP  0  0  0  0  0  0  0  0  0  0  0  0  # atno 17395 bound_to 11000

$$$$
