AV-unprocessed.smi:99|AV-procd|sdf|868|dock6
  -GOLD-   2262017323D 1   1.00000     0.00000
 Structure written by MMmdl.
 53 56  0  0  0  0  0  0  0  0  1 V2000
  147.7779  131.9261  159.2299 O   0  0  0  0  0  0  0  0  0  0  0  0
  148.1430  133.1032  159.2615 C   0  0  0  0  0  0  0  0  0  0  0  0
  148.8399  133.6941  158.2715 O   0  0  0  0  0  0  0  0  0  0  0  0
  149.1881  132.9546  157.1132 C   0  0  0  0  0  0  0  0  0  0  0  0
  150.2999  133.7001  156.3538 C   0  0  1  0  0  0  0  0  0  0  0  0
  151.4938  133.6637  157.1328 O   0  0  0  0  0  0  0  0  0  0  0  0
  152.3082  132.5902  156.7489 C   0  0  2  0  0  0  0  0  0  0  0  0
  153.6979  133.1128  156.4658 N   0  0  0  0  0  0  0  0  0  0  0  0
  153.9904  134.4671  156.5601 C   0  0  0  0  0  0  0  0  0  0  0  0
  155.2173  134.9776  156.3011 C   0  0  0  0  0  0  0  0  0  0  0  0
  156.3123  134.1025  155.8958 C   0  0  0  0  0  0  0  0  0  0  0  0
  157.4577  134.4706  155.6451 O   0  0  0  0  0  0  0  0  0  0  0  0
  155.9697  132.7507  155.7996 N   0  0  0  0  0  0  0  0  0  0  0  0
  154.7077  132.2135  156.0581 C   0  0  0  0  0  0  0  0  0  0  0  0
  154.5138  131.0065  155.9190 O   0  0  0  0  0  0  0  0  0  0  0  0
  151.7116  131.9549  155.4822 C   0  0  1  0  0  0  0  0  0  0  0  0
  151.0682  130.7322  155.7902 O   0  0  0  0  0  0  0  0  0  0  0  0
  150.7328  133.0377  155.0454 C   0  0  1  0  0  0  0  0  0  0  0  0
  149.6617  132.5733  154.2304 O   0  0  0  0  0  0  0  0  0  0  0  0
  148.8169  133.4417  153.6348 C   0  0  0  0  0  0  0  0  0  0  0  0
  148.8372  134.6582  153.8319 O   0  0  0  0  0  0  0  0  0  0  0  0
  147.8608  132.7737  152.7058 C   0  0  0  0  0  0  0  0  0  0  0  0
  147.0769  133.5637  151.8328 C   0  0  0  0  0  0  0  0  0  0  0  0
  146.1658  132.9615  150.9434 C   0  0  0  0  0  0  0  0  0  0  0  0
  146.0269  131.5615  150.9167 C   0  0  0  0  0  0  0  0  0  0  0  0
  146.8006  130.7645  151.7803 C   0  0  0  0  0  0  0  0  0  0  0  0
  147.7130  131.3647  152.6698 C   0  0  0  0  0  0  0  0  0  0  0  0
  147.8616  134.0217  160.4027 C   0  0  0  0  0  0  0  0  0  0  0  0
  147.7827  135.4143  160.1675 C   0  0  0  0  0  0  0  0  0  0  0  0
  147.5145  136.3064  161.2239 C   0  0  0  0  0  0  0  0  0  0  0  0
  147.3233  135.8168  162.5290 C   0  0  0  0  0  0  0  0  0  0  0  0
  147.4010  134.4339  162.7765 C   0  0  0  0  0  0  0  0  0  0  0  0
  147.6682  133.5399  161.7210 C   0  0  0  0  0  0  0  0  0  0  0  0
  156.6953  132.1094  155.5139 H   0  0  0  0  0  0  0  0  0  0  0  0
  149.5059  131.9486  157.3892 H   0  0  0  0  0  0  0  0  0  0  0  0
  148.3025  132.8595  156.4836 H   0  0  0  0  0  0  0  0  0  0  0  0
  149.9941  134.7307  156.1715 H   0  0  0  0  0  0  0  0  0  0  0  0
  152.3920  131.9043  157.5942 H   0  0  0  0  0  0  0  0  0  0  0  0
  153.2137  135.1597  156.8492 H   0  0  0  0  0  0  0  0  0  0  0  0
  155.3898  136.0403  156.3929 H   0  0  0  0  0  0  0  0  0  0  0  0
  152.4801  131.7681  154.7305 H   0  0  0  0  0  0  0  0  0  0  0  0
  151.4076  130.0622  155.2164 H   0  0  0  0  0  0  0  0  0  0  0  0
  151.2933  133.7920  154.4905 H   0  0  0  0  0  0  0  0  0  0  0  0
  147.1658  134.6405  151.8353 H   0  0  0  0  0  0  0  0  0  0  0  0
  145.5733  133.5750  150.2808 H   0  0  0  0  0  0  0  0  0  0  0  0
  145.3281  131.1001  150.2345 H   0  0  0  0  0  0  0  0  0  0  0  0
  146.6948  129.6898  151.7608 H   0  0  0  0  0  0  0  0  0  0  0  0
  148.2912  130.7229  153.3186 H   0  0  0  0  0  0  0  0  0  0  0  0
  147.9250  135.8135  159.1735 H   0  0  0  0  0  0  0  0  0  0  0  0
  147.4551  137.3675  161.0315 H   0  0  0  0  0  0  0  0  0  0  0  0
  147.1173  136.5010  163.3390 H   0  0  0  0  0  0  0  0  0  0  0  0
  147.2555  134.0571  163.7782 H   0  0  0  0  0  0  0  0  0  0  0  0
  147.7210  132.4846  161.9454 H   0  0  0  0  0  0  0  0  0  0  0  0
  1  2  2  0  0  0  0
  2  3  1  0  0  0  0
  2 28  1  0  0  0  0
  3  4  1  0  0  0  0
  4  5  1  0  0  0  0
  4 35  1  0  0  0  0
  4 36  1  0  0  0  0
  5 18  1  0  0  0  0
  5  6  1  0  0  0  0
  5 37  1  0  0  0  0
  6  7  1  0  0  0  0
  7  8  1  0  0  0  0
  7 16  1  0  0  0  0
  7 38  1  0  0  0  0
  8 14  1  0  0  0  0
  8  9  1  0  0  0  0
  9 10  2  0  0  0  0
  9 39  1  0  0  0  0
 10 11  1  0  0  0  0
 10 40  1  0  0  0  0
 11 12  2  0  0  0  0
 11 13  1  0  0  0  0
 13 34  1  0  0  0  0
 13 14  1  0  0  0  0
 14 15  2  0  0  0  0
 16 17  1  0  0  0  0
 16 18  1  0  0  0  0
 16 41  1  0  0  0  0
 17 42  1  0  0  0  0
 18 19  1  0  0  0  0
 18 43  1  0  0  0  0
 19 20  1  0  0  0  0
 20 21  2  0  0  0  0
 20 22  1  0  0  0  0
 22 27  1  0  0  0  0
 22 23  2  0  0  0  0
 23 24  1  0  0  0  0
 23 44  1  0  0  0  0
 24 25  2  0  0  0  0
 24 45  1  0  0  0  0
 25 26  1  0  0  0  0
 25 46  1  0  0  0  0
 26 27  2  0  0  0  0
 26 47  1  0  0  0  0
 27 48  1  0  0  0  0
 28 33  1  0  0  0  0
 28 29  2  0  0  0  0
 29 30  1  0  0  0  0
 29 49  1  0  0  0  0
 30 31  2  0  0  0  0
 30 50  1  0  0  0  0
 31 32  1  0  0  0  0
 31 51  1  0  0  0  0
 32 33  2  0  0  0  0
 32 52  1  0  0  0  0
 33 53  1  0  0  0  0
M  END
> <s_m_source_file>
AV-unprocessed.smi

> <i_m_source_file_index>
99

> <i_lp_mmshare_version>
43012

> <i_f3d_flags>
0

> <s_epik_input>
W2NIXTFbY0hdW2NIXVtjSF1bY0hdYzFDKD1PKU9bQ0gyXVtDQEBIXTJPW0NAQEhdKG4zW2NIXVtjSF1jKD1PKVtuSF1jMz1PKVtDQEBIXShbT0hdKVtDQEhdMk9DKD1PKWM0W2NIXVtjSF1bY0hdW2NIXVtjSF00

> <s_epik_cmdline>
J2VwaWtfcHl0aG9uJywgJy1waCcsICc3LjAnLCAnLXRuJywgJzgnLCAnLW1hJywgJzIwMCcsICctbWV0YWxfYmluZGluZycsICctaW1hZScsICc8aW5maWxlLm1hZT4nLCAnLW9tYWUnLCAnPG91dGZpbGUubWFlPic=

> <r_lp_tautomer_probability>
1

> <r_epik_Ionization_Penalty>
0.00454555

> <r_epik_Ionization_Penalty_Charging>
0.0045191

> <r_epik_Ionization_Penalty_Neutral>
2.64449e-05

> <r_epik_State_Penalty>
-0

> <r_epik_Charging_Adjusted_Penalty>
0.0045191

> <i_epik_Tot_Q>
0

> <i_epik_Tot_abs_Q>
0

> <r_epik_Metal_State_Penalty>
1.27877

> <b_epik_Metal_Only>
0

> <s_epik_Chemistry_Notes>
This compound has an ester and may undergo hydrolysis at high or low pH. This compound contains an acetal/aminal-like group ( X-CH(R)-Y where X, Y are N, S, or O) that may be acid/base labile, releasing an aldehyde.

> <s_lp_Force_Field>
OPLS_2005

> <r_lp_Energy>
39.5306

> <b_lp_Chiralities_Consistent>
1

> <s_lp_Variant>
AV-unprocessed.smi:99-4

> <Gold.Version>
5.8.1

> <Gold.Id.Protein>
6NUR|6NUR_protein|mol2

> <Gold.PLP.Fitness>
50.6532

> <Gold.PLP.PLP>
-48.5313

> <Gold.PLP.part.hbond>
-1.1813

> <Gold.PLP.part.metal>
0.0000

> <Gold.PLP.part.buried>
-5.9465

> <Gold.PLP.part.nonpolar>
-42.4205

> <Gold.PLP.part.repulsive>
0.2936

> <Gold.PLP.ligand.clash>
0.0000

> <Gold.PLP.ligand.torsion>
0.5238

> <Gold.PLP.Chemscore.Hbond>
1.0000

> <Gold.PLP.Chemscore.CHOScore>
0.0000

> <Gold.PLP.Chemscore.Metal>
0.0000

> <Gold.Chemscore.Hbonds>
donor molecule, donor type, donor heavy atom, donor atom, acceptor molecule, acceptor atom, score
      P1  H  6896  6907       L1     6  0.44

> <Gold.PLP.Chemscore.Internal.Correction>
0.1695

> <Gold.Rescore>
     Score         DG    S(hbond)    S(metal)    S(lipo)     H(rot)  DE(clash)    DE(int)     intcor
     12.51     -14.22       0.98        0.00     116.54       3.19       0.09       1.62       ----

> <Gold.Chemscore.Fitness>
12.5070

> <Gold.Chemscore.DG>
-14.2166

> <Gold.Chemscore.ZeroCoef>
-5.4800

> <Gold.Chemscore.Hbond>
0.9784

> <Gold.Chemscore.Metal>
0.0000

> <Gold.Chemscore.Lipo>
116.5448

> <Gold.Chemscore.Internal_Hbond>
0.0000

> <Gold.Chemscore.DEClash>
0.0935

> <Gold.Chemscore.DEInternal>
1.6162

> <Gold.Chemscore.Rot>
3.1903

> <Gold.Chemscore.Internal.Correction>
   9.000000E+99

> <Gold.Chemscore.Hbonds>
donor molecule, donor type, donor heavy atom, donor atom, acceptor molecule, acceptor atom, score
      P1  H  6896  6907       L1     6  0.20

> <Gold.Chemscore.Hbond.Weighted>
-3.2680

> <Gold.Chemscore.Metal.Weighted>
-0.0000

> <Gold.Chemscore.Lipo.Weighted>
-13.6357

> <Gold.Chemscore.Internal_Hbond.Weighted>
0.0000

> <Gold.Chemscore.DEClash.Weighted>
0.0935

> <Gold.Chemscore.DEInternal.Weighted>
1.6162

> <Gold.Chemscore.Rot.Weighted>
8.1671

> <Gold.Chemscore.Internal.Correction.Weighted>
   9.000000E+99

> <Gold.Protein.RotatedTorsions>
[ 6907 6896 6895 6894 ] final -152.32 input  -60.11 | X-H torsion
[ 7974 7965 7964 7962 ] final  171.96 input  175.53 | X-H torsion
[ 8008 7997 7996 7995 ] final  127.26 input   59.86 | X-H torsion
[ 10167 10162 10161 10158 ] final   76.60 input  -65.29 | X-H torsion
[ 10718 10713 10712 10709 ] final -135.52 input   66.30 | X-H torsion
[ 10763 10752 10751 10750 ] final  106.08 input  -60.55 | X-H torsion
[ 11005 11000 10999 10996 ] final -154.56 input  -57.11 | X-H torsion

> <Gold.Protein.ActiveResidues>
 VAL166  LYS551  ARG553  GLY616  TRP617  ASP618  TYR619  PRO620  LYS621  CYS622 
 ASP623  PHE694  ASN695  SER759  ASP760  ASP761  ALA762  ILE779  LEU786  VAL792 
 PHE793  MET794  SER795  GLU796  ALA797  LYS798  CYS799  TRP800  GLU811  SER814 

> <Gold.Protein.RotatedAtoms>
  151.2261  133.4476  159.2601 H   0  0  0  0  0  0  0  0  0  0  0  0  # atno 6907 bound_to 6896
  151.0839  134.9875  159.8379 H   0  0  0  0  0  0  0  0  0  0  0  0  # atno 6908 bound_to 6896
  152.5427  134.2199  159.8836 H   0  0  0  0  0  0  0  0  0  0  0  0  # atno 6909 bound_to 6896
  144.7280  139.9428  143.6429 H   0  0  0  0  0  0  0  0  0  0  0  0  # atno 7974 bound_to 7965
  156.2886  140.2673  156.2244 H   0  0  0  0  0  0  0  0  0  0  0  0  # atno 8008 bound_to 7997
  155.0136  140.0387  157.2427 H   0  0  0  0  0  0  0  0  0  0  0  0  # atno 8009 bound_to 7997
  154.7497  140.2740  155.6308 H   0  0  0  0  0  0  0  0  0  0  0  0  # atno 8010 bound_to 7997
  139.9905  144.5760  150.7822 H   0  0  0  0  0  0  0  0  0  0  0  0  # atno 10167 bound_to 10162
  156.2671  130.7244  151.1198 H   0  0  0  0  0  0  0  0  0  0  0  0  # atno 10718 bound_to 10713
  153.3881  135.3889  155.1904 H   0  0  0  0  0  0  0  0  0  0  0  0  # atno 10763 bound_to 10752
  154.8716  135.3741  154.4772 H   0  0  0  0  0  0  0  0  0  0  0  0  # atno 10764 bound_to 10752
  153.5256  135.7086  153.5770 H   0  0  0  0  0  0  0  0  0  0  0  0  # atno 10765 bound_to 10752
  140.6960  134.3989  157.5214 H   0  0  0  0  0  0  0  0  0  0  0  0  # atno 11005 bound_to 11000
  146.0771  139.3759  143.0487 LP  0  0  0  0  0  0  0  0  0  0  0  0  # atno 17320 bound_to 7965
  145.7890  140.9823  143.1059 LP  0  0  0  0  0  0  0  0  0  0  0  0  # atno 17321 bound_to 7965
  140.7456  143.2878  151.3413 LP  0  0  0  0  0  0  0  0  0  0  0  0  # atno 17342 bound_to 10162
  139.6343  144.0660  152.2503 LP  0  0  0  0  0  0  0  0  0  0  0  0  # atno 17343 bound_to 10162
  157.7271  131.0641  150.5880 LP  0  0  0  0  0  0  0  0  0  0  0  0  # atno 17370 bound_to 10713
  156.5973  130.4345  149.5911 LP  0  0  0  0  0  0  0  0  0  0  0  0  # atno 17371 bound_to 10713
  139.8910  134.8791  156.2342 LP  0  0  0  0  0  0  0  0  0  0  0  0  # atno 17394 bound_to 11000
  141.0203  133.7045  156.1256 LP  0  0  0  0  0  0  0  0  0  0  0  0  # atno 17395 bound_to 11000

$$$$
