AV-unprocessed.smi:306|AV-procd|sdf|2283|dock4
  -GOLD-   2262022183D 1   1.00000     0.00000
 Structure written by MMmdl.
 46 48  0  0  0  0  0  0  0  0  2 V2000
  152.4669  144.6206  158.3101 C   0  0  0  0  0  0  0  0  0  0  0  0
  151.6554  143.7202  159.2487 C   0  0  0  0  0  0  0  0  0  0  0  0
  152.0827  142.2829  159.1567 C   0  0  0  0  0  0  0  0  0  0  0  0
  153.3692  141.7298  159.4097 C   0  0  0  0  0  0  0  0  0  0  0  0
  153.2158  140.3932  159.1697 C   0  0  0  0  0  0  0  0  0  0  0  0
  154.2083  139.2774  159.2662 C   0  0  0  0  0  0  0  0  0  0  0  0
  153.7882  138.1753  160.2451 C   0  0  0  0  0  0  0  0  0  0  0  0
  151.8979  140.2052  158.7934 N   0  0  0  0  0  0  0  0  0  0  0  0
  151.2520  139.0066  158.4319 C   0  0  0  0  0  0  0  0  0  0  0  0
  150.2695  138.4506  159.1414 N   0  0  0  0  0  0  0  0  0  0  0  0
  149.9707  137.3159  158.4003 C   0  0  0  0  0  0  0  0  0  0  0  0
  150.7580  137.2236  157.2933 C   0  0  0  0  0  0  0  0  0  0  0  0
  150.6640  136.1266  156.3048 C   0  0  0  0  0  0  0  0  0  0  0  0
  151.3910  136.0978  155.3141 O   0  0  0  0  0  0  0  0  0  0  0  0
  149.7042  135.2081  156.6431 N   0  5  0  0  0  0  0  0  0  0  0  0
  148.8903  135.2578  157.7545 C   0  0  0  0  0  0  0  0  0  0  0  0
  148.0531  134.3846  157.9864 O   0  0  0  0  0  0  0  0  0  0  0  0
  149.0043  136.3004  158.6365 N   0  0  0  0  0  0  0  0  0  0  0  0
  148.1509  136.3794  159.8256 C   0  0  0  0  0  0  0  0  0  0  0  0
  151.6070  138.3342  157.3094 N   0  0  0  0  0  0  0  0  0  0  0  0
  152.6387  138.7141  156.3475 C   0  0  0  0  0  0  0  0  0  0  0  0
  152.0797  138.8640  154.9250 C   0  0  0  0  0  0  0  0  0  0  0  0
  151.0999  139.8882  154.8902 O   0  0  0  0  0  0  0  0  0  0  0  0
  149.8209  139.4064  154.5202 C   0  0  0  0  0  0  0  0  0  0  0  0
  151.2042  141.3621  158.7957 N   0  0  0  0  0  0  0  0  0  0  0  0
  152.1472  145.6593  158.3955 H   0  0  0  0  0  0  0  0  0  0  0  0
  152.3437  144.3190  157.2695 H   0  0  0  0  0  0  0  0  0  0  0  0
  153.5302  144.5784  158.5474 H   0  0  0  0  0  0  0  0  0  0  0  0
  151.7673  144.0744  160.2739 H   0  0  0  0  0  0  0  0  0  0  0  0
  150.5945  143.8104  159.0131 H   0  0  0  0  0  0  0  0  0  0  0  0
  154.2699  142.2386  159.7194 H   0  0  0  0  0  0  0  0  0  0  0  0
  154.3715  138.8419  158.2799 H   0  0  0  0  0  0  0  0  0  0  0  0
  155.1726  139.6808  159.5765 H   0  0  0  0  0  0  0  0  0  0  0  0
  154.5435  137.3909  160.2936 H   0  0  0  0  0  0  0  0  0  0  0  0
  152.8488  137.7121  159.9431 H   0  0  0  0  0  0  0  0  0  0  0  0
  153.6561  138.5741  161.2513 H   0  0  0  0  0  0  0  0  0  0  0  0
  147.0971  136.3708  159.5433 H   0  0  0  0  0  0  0  0  0  0  0  0
  148.3215  137.2850  160.4074 H   0  0  0  0  0  0  0  0  0  0  0  0
  148.3349  135.5284  160.4824 H   0  0  0  0  0  0  0  0  0  0  0  0
  153.0927  139.6530  156.6635 H   0  0  0  0  0  0  0  0  0  0  0  0
  153.4467  137.9858  156.3686 H   0  0  0  0  0  0  0  0  0  0  0  0
  152.8874  139.1017  154.2315 H   0  0  0  0  0  0  0  0  0  0  0  0
  151.6430  137.9187  154.6004 H   0  0  0  0  0  0  0  0  0  0  0  0
  149.1077  140.2306  154.5142 H   0  0  0  0  0  0  0  0  0  0  0  0
  149.4625  138.6555  155.2254 H   0  0  0  0  0  0  0  0  0  0  0  0
  149.8392  138.9694  153.5211 H   0  0  0  0  0  0  0  0  0  0  0  0
  1  2  1  0  0  0  0
  1 26  1  0  0  0  0
  1 27  1  0  0  0  0
  1 28  1  0  0  0  0
  2  3  1  0  0  0  0
  2 29  1  0  0  0  0
  2 30  1  0  0  0  0
  3 25  2  0  0  0  0
  3  4  1  0  0  0  0
  4  5  2  0  0  0  0
  4 31  1  0  0  0  0
  5  6  1  0  0  0  0
  5  8  1  0  0  0  0
  6  7  1  0  0  0  0
  6 32  1  0  0  0  0
  6 33  1  0  0  0  0
  7 34  1  0  0  0  0
  7 35  1  0  0  0  0
  7 36  1  0  0  0  0
  8  9  1  0  0  0  0
  8 25  1  0  0  0  0
  9 20  1  0  0  0  0
  9 10  2  0  0  0  0
 10 11  1  0  0  0  0
 11 18  1  0  0  0  0
 11 12  2  0  0  0  0
 12 13  1  0  0  0  0
 12 20  1  0  0  0  0
 13 14  2  0  0  0  0
 13 15  1  0  0  0  0
 15 16  1  0  0  0  0
 16 17  2  0  0  0  0
 16 18  1  0  0  0  0
 18 19  1  0  0  0  0
 19 37  1  0  0  0  0
 19 38  1  0  0  0  0
 19 39  1  0  0  0  0
 20 21  1  0  0  0  0
 21 22  1  0  0  0  0
 21 40  1  0  0  0  0
 21 41  1  0  0  0  0
 22 23  1  0  0  0  0
 22 42  1  0  0  0  0
 22 43  1  0  0  0  0
 23 24  1  0  0  0  0
 24 44  1  0  0  0  0
 24 45  1  0  0  0  0
 24 46  1  0  0  0  0
M  CHG  1  15  -1
M  END
> <s_m_source_file>
AV-unprocessed.smi

> <i_m_source_file_index>
306

> <i_lp_mmshare_version>
43012

> <i_f3d_flags>
0

> <s_epik_input>
W0NIM11bQ0gyXWMxW2NIXWMoW0NIMl1bQ0gzXSluKG4xKS1jKG4yKW4oW0NIMl1bQ0gyXU9bQ0gzXSljKGMyMyljKD1PKVtuSF1jKD1PKW4zW0NIM10=

> <s_epik_cmdline>
J2VwaWtfcHl0aG9uJywgJy1waCcsICc3LjAnLCAnLXRuJywgJzgnLCAnLW1hJywgJzIwMCcsICctbWV0YWxfYmluZGluZycsICctaW1hZScsICc8aW5maWxlLm1hZT4nLCAnLW9tYWUnLCAnPG91dGZpbGUubWFlPic=

> <r_lp_tautomer_probability>
1

> <r_epik_Ionization_Penalty>
3.98741

> <r_epik_Ionization_Penalty_Charging>
0.0180637

> <r_epik_Ionization_Penalty_Neutral>
3.96934

> <r_epik_State_Penalty>
3.96767

> <r_epik_Charging_Adjusted_Penalty>
3.98573

> <i_epik_Tot_Q>
-1

> <i_epik_Tot_abs_Q>
1

> <r_epik_Metal_State_Penalty>
0.612217

> <b_epik_Metal_Only>
1

> <s_lp_Force_Field>
OPLS_2005

> <r_lp_Energy>
26.8748

> <b_lp_Chiralities_Consistent>
1

> <s_lp_Variant>
AV-unprocessed.smi:306-2

> <Gold.Version>
5.8.1

> <Gold.Id.Protein>
6NUR|6NUR_protein|mol2

> <Gold.PLP.Fitness>
44.3462

> <Gold.PLP.PLP>
-40.6715

> <Gold.PLP.part.hbond>
-3.0000

> <Gold.PLP.part.metal>
0.0000

> <Gold.PLP.part.buried>
-5.7277

> <Gold.PLP.part.nonpolar>
-32.9816

> <Gold.PLP.part.repulsive>
0.1316

> <Gold.PLP.ligand.clash>
0.0000

> <Gold.PLP.ligand.torsion>
1.6288

> <Gold.PLP.Chemscore.Hbond>
2.0000

> <Gold.PLP.Chemscore.CHOScore>
0.0000

> <Gold.PLP.Chemscore.Metal>
0.0000

> <Gold.Chemscore.Hbonds>
donor molecule, donor type, donor heavy atom, donor atom, acceptor molecule, acceptor atom, score
      P1  H  7989  7998       L1    23  1.00
      P1  H 10752 10763       L1    14  1.00

> <Gold.PLP.Chemscore.Internal.Correction>
0.9323

> <Gold.Rescore>
     Score         DG    S(hbond)    S(metal)    S(lipo)     H(rot)  DE(clash)    DE(int)     intcor
     14.98     -17.98       1.85        0.00      93.74       1.81       0.01       2.99       ----

> <Gold.Chemscore.Fitness>
14.9791

> <Gold.Chemscore.DG>
-17.9781

> <Gold.Chemscore.ZeroCoef>
-5.4800

> <Gold.Chemscore.Hbond>
1.8481

> <Gold.Chemscore.Metal>
0.0000

> <Gold.Chemscore.Lipo>
93.7442

> <Gold.Chemscore.Internal_Hbond>
0.0000

> <Gold.Chemscore.DEClash>
0.0080

> <Gold.Chemscore.DEInternal>
2.9910

> <Gold.Chemscore.Rot>
1.8136

> <Gold.Chemscore.Internal.Correction>
   9.000000E+99

> <Gold.Chemscore.Hbonds>
donor molecule, donor type, donor heavy atom, donor atom, acceptor molecule, acceptor atom, score
      P1  H  7989  7998       L1    23  0.17
      P1  H 10752 10763       L1    14  1.00

> <Gold.Chemscore.Hbond.Weighted>
-6.1728

> <Gold.Chemscore.Metal.Weighted>
-0.0000

> <Gold.Chemscore.Lipo.Weighted>
-10.9681

> <Gold.Chemscore.Internal_Hbond.Weighted>
0.0000

> <Gold.Chemscore.DEClash.Weighted>
0.0080

> <Gold.Chemscore.DEInternal.Weighted>
2.9910

> <Gold.Chemscore.Rot.Weighted>
4.6427

> <Gold.Chemscore.Internal.Correction.Weighted>
   9.000000E+99

> <Gold.Protein.RotatedTorsions>
[ 6907 6896 6895 6894 ] final  115.73 input  -60.11 | X-H torsion
[ 7974 7965 7964 7962 ] final   23.55 input  175.53 | X-H torsion
[ 8008 7997 7996 7995 ] final  -31.70 input   59.86 | X-H torsion
[ 10167 10162 10161 10158 ] final -173.09 input  -65.29 | X-H torsion
[ 10718 10713 10712 10709 ] final  -86.08 input   66.30 | X-H torsion
[ 10763 10752 10751 10750 ] final   72.76 input  -60.55 | X-H torsion
[ 11005 11000 10999 10996 ] final  -38.38 input  -57.11 | X-H torsion

> <Gold.Protein.ActiveResidues>
 VAL166  LYS551  ARG553  GLY616  TRP617  ASP618  TYR619  PRO620  LYS621  CYS622 
 ASP623  PHE694  ASN695  SER759  ASP760  ASP761  ALA762  ILE779  LEU786  VAL792 
 PHE793  MET794  SER795  GLU796  ALA797  LYS798  CYS799  TRP800  GLU811  SER814 

> <Gold.Protein.RotatedAtoms>
  152.4723  133.8058  159.6976 H   0  0  0  0  0  0  0  0  0  0  0  0  # atno 6907 bound_to 6896
  150.8719  133.7484  159.2965 H   0  0  0  0  0  0  0  0  0  0  0  0  # atno 6908 bound_to 6896
  151.5016  135.1065  159.9882 H   0  0  0  0  0  0  0  0  0  0  0  0  # atno 6909 bound_to 6896
  146.1979  139.7728  142.8783 H   0  0  0  0  0  0  0  0  0  0  0  0  # atno 7974 bound_to 7965
  154.4205  140.1757  156.1608 H   0  0  0  0  0  0  0  0  0  0  0  0  # atno 8008 bound_to 7997
  155.9839  140.3375  155.6665 H   0  0  0  0  0  0  0  0  0  0  0  0  # atno 8009 bound_to 7997
  155.6463  140.0685  157.2592 H   0  0  0  0  0  0  0  0  0  0  0  0  # atno 8010 bound_to 7997
  139.5707  144.1648  152.1380 H   0  0  0  0  0  0  0  0  0  0  0  0  # atno 10167 bound_to 10162
  155.9992  130.4753  150.4661 H   0  0  0  0  0  0  0  0  0  0  0  0  # atno 10718 bound_to 10713
  153.0479  135.5088  154.7793 H   0  0  0  0  0  0  0  0  0  0  0  0  # atno 10763 bound_to 10752
  154.6678  135.2948  154.9784 H   0  0  0  0  0  0  0  0  0  0  0  0  # atno 10764 bound_to 10752
  154.0613  135.6690  153.4865 H   0  0  0  0  0  0  0  0  0  0  0  0  # atno 10765 bound_to 10752
  141.0023  133.6949  156.2045 H   0  0  0  0  0  0  0  0  0  0  0  0  # atno 11005 bound_to 11000
  145.3583  141.0321  143.3299 LP  0  0  0  0  0  0  0  0  0  0  0  0  # atno 17320 bound_to 7965
  144.8619  139.5164  143.6808 LP  0  0  0  0  0  0  0  0  0  0  0  0  # atno 17321 bound_to 7965
  140.1180  144.5398  150.6881 LP  0  0  0  0  0  0  0  0  0  0  0  0  # atno 17342 bound_to 10162
  140.6992  143.2423  151.4914 LP  0  0  0  0  0  0  0  0  0  0  0  0  # atno 17343 bound_to 10162
  157.2680  131.0581  151.2278 LP  0  0  0  0  0  0  0  0  0  0  0  0  # atno 17370 bound_to 10713
  157.3368  130.7013  149.6357 LP  0  0  0  0  0  0  0  0  0  0  0  0  # atno 17371 bound_to 10713
  140.6869  134.4707  157.5589 LP  0  0  0  0  0  0  0  0  0  0  0  0  # atno 17394 bound_to 11000
  139.9045  134.8480  156.1761 LP  0  0  0  0  0  0  0  0  0  0  0  0  # atno 17395 bound_to 11000

$$$$
