AV-unprocessed.smi:3093|AV-procd|sdf|11787|dock1
  -GOLD-   2272017163D 1   1.00000     0.00000
 Structure written by MMmdl.
 25 26  0  0  0  0  0  0  0  0  2 V2000
  148.4749  141.3530  154.6143 C   0  0  0  0  0  0  0  0  0  0  0  0
  149.2618  140.2985  154.0724 C   0  0  0  0  0  0  0  0  0  0  0  0
  150.3928  140.1144  154.7346 N   0  0  0  0  0  0  0  0  0  0  0  0
  150.3656  141.0418  155.7161 N   0  0  0  0  0  0  0  0  0  0  0  0
  151.4671  141.1299  156.6572 C   0  0  0  0  0  0  0  0  0  0  0  0
  151.2644  142.2531  157.6902 C   0  0  1  0  0  0  0  0  0  0  0  0
  152.3365  142.3361  158.7819 C   0  0  0  0  0  0  0  0  0  0  0  0
  152.2369  143.7847  159.2436 C   0  0  0  0  0  0  0  0  0  0  0  0
  151.9209  144.5457  157.9538 C   0  0  0  0  0  0  0  0  0  0  0  0
  151.2442  143.5868  157.0567 N   0  3  0  0  0  0  0  0  0  0  0  0
  149.2181  141.8050  155.6668 C   0  0  0  0  0  0  0  0  0  0  0  0
  147.5154  141.7198  154.2809 H   0  0  0  0  0  0  0  0  0  0  0  0
  149.0463  139.6658  153.2240 H   0  0  0  0  0  0  0  0  0  0  0  0
  151.5780  140.1670  157.1589 H   0  0  0  0  0  0  0  0  0  0  0  0
  152.3862  141.2955  156.0937 H   0  0  0  0  0  0  0  0  0  0  0  0
  150.2964  142.1217  158.1763 H   0  0  0  0  0  0  0  0  0  0  0  0
  152.1754  141.6221  159.5905 H   0  0  0  0  0  0  0  0  0  0  0  0
  153.3257  142.1511  158.3600 H   0  0  0  0  0  0  0  0  0  0  0  0
  151.4114  143.8901  159.9491 H   0  0  0  0  0  0  0  0  0  0  0  0
  153.1448  144.1386  159.7331 H   0  0  0  0  0  0  0  0  0  0  0  0
  151.3034  145.4258  158.1350 H   0  0  0  0  0  0  0  0  0  0  0  0
  152.8426  144.8737  157.4721 H   0  0  0  0  0  0  0  0  0  0  0  0
  151.7515  143.5517  156.1840 H   0  0  0  0  0  0  0  0  0  0  0  0
  149.0273  142.5961  156.3770 H   0  0  0  0  0  0  0  0  0  0  0  0
  150.2905  143.8715  156.8833 H   0  0  0  0  0  0  0  0  0  0  0  0
  1 11  2  0  0  0  0
  1  2  1  0  0  0  0
  1 12  1  0  0  0  0
  2  3  2  0  0  0  0
  2 13  1  0  0  0  0
  3  4  1  0  0  0  0
  4  5  1  0  0  0  0
  4 11  1  0  0  0  0
  5  6  1  0  0  0  0
  5 14  1  0  0  0  0
  5 15  1  0  0  0  0
  6 10  1  0  0  0  0
  6  7  1  0  0  0  0
  6 16  1  0  0  0  0
  7  8  1  0  0  0  0
  7 17  1  0  0  0  0
  7 18  1  0  0  0  0
  8  9  1  0  0  0  0
  8 19  1  0  0  0  0
  8 20  1  0  0  0  0
  9 10  1  0  0  0  0
  9 21  1  0  0  0  0
  9 22  1  0  0  0  0
 10 23  1  0  0  0  0
 10 25  1  0  0  0  0
 11 24  1  0  0  0  0
M  CHG  1  10   1
M  END
> <s_m_source_file>
AV-unprocessed.smi

> <i_m_source_file_index>
3093

> <i_lp_mmshare_version>
43012

> <i_f3d_flags>
0

> <s_epik_input>
W2NIXTFbY0hdW2NIXW5uMVtDSDJdW0NAQEhdMltDSDJdW0NIMl1bQ0gyXVtOSF0y

> <s_epik_cmdline>
J2VwaWtfcHl0aG9uJywgJy1waCcsICc3LjAnLCAnLXRuJywgJzgnLCAnLW1hJywgJzIwMCcsICctbWV0YWxfYmluZGluZycsICctaW1hZScsICc8aW5maWxlLm1hZT4nLCAnLW9tYWUnLCAnPG91dGZpbGUubWFlPic=

> <r_lp_tautomer_probability>
1

> <r_epik_Ionization_Penalty>
0.000867737

> <r_epik_Ionization_Penalty_Charging>
0.000863359

> <r_epik_Ionization_Penalty_Neutral>
4.37747e-06

> <r_epik_State_Penalty>
0.000557253

> <r_epik_Charging_Adjusted_Penalty>
0.00142061

> <i_epik_Tot_Q>
1

> <i_epik_Tot_abs_Q>
1

> <r_epik_Metal_State_Penalty>
-0

> <b_epik_Metal_Only>
0

> <s_lp_Force_Field>
OPLS_2005

> <r_lp_Energy>
24.4202

> <b_lp_Chiralities_Consistent>
1

> <s_lp_Variant>
AV-unprocessed.smi:3093-2

> <Gold.Version>
5.8.1

> <Gold.Id.Protein>
6NUR|6NUR_protein|mol2

> <Gold.PLP.Fitness>
40.2647

> <Gold.PLP.PLP>
-26.0343

> <Gold.PLP.part.hbond>
-2.0000

> <Gold.PLP.part.metal>
0.0000

> <Gold.PLP.part.buried>
0.8858

> <Gold.PLP.part.nonpolar>
-24.1477

> <Gold.PLP.part.repulsive>
0.0848

> <Gold.PLP.ligand.clash>
0.0000

> <Gold.PLP.ligand.torsion>
0.0099

> <Gold.PLP.Chemscore.Hbond>
3.0000

> <Gold.PLP.Chemscore.CHOScore>
1.7499

> <Gold.PLP.Chemscore.Metal>
0.0000

> <Gold.Chemscore.Hbonds>
donor molecule, donor type, donor heavy atom, donor atom, acceptor molecule, acceptor atom, score
      L1  H    10    25       P1  8028  1.98
      P1  H  7989  7998       L1     3  1.00
      L1  C     2    13       P1  7957  0.93
      L1  C    11    24       P1  8028  0.80

> <Gold.PLP.Chemscore.Internal.Correction>
0.0005

> <Gold.Rescore>
     Score         DG    S(hbond)    S(metal)    S(lipo)     H(rot)  DE(clash)    DE(int)     intcor
     14.48     -14.90       1.17        0.00      73.35       1.21       0.38       0.04       ----

> <Gold.Chemscore.Fitness>
14.4789

> <Gold.Chemscore.DG>
-14.8982

> <Gold.Chemscore.ZeroCoef>
-5.4800

> <Gold.Chemscore.Hbond>
1.1746

> <Gold.Chemscore.Metal>
0.0000

> <Gold.Chemscore.Lipo>
73.3474

> <Gold.Chemscore.Internal_Hbond>
0.0000

> <Gold.Chemscore.DEClash>
0.3780

> <Gold.Chemscore.DEInternal>
0.0414

> <Gold.Chemscore.Rot>
1.2056

> <Gold.Chemscore.Internal.Correction>
   9.000000E+99

> <Gold.Chemscore.Hbonds>
donor molecule, donor type, donor heavy atom, donor atom, acceptor molecule, acceptor atom, score
      L1  H    10    25       P1  8028  0.88
      P1  H  7989  7998       L1     3  0.09

> <Gold.Chemscore.Hbond.Weighted>
-3.9230

> <Gold.Chemscore.Metal.Weighted>
-0.0000

> <Gold.Chemscore.Lipo.Weighted>
-8.5816

> <Gold.Chemscore.Internal_Hbond.Weighted>
0.0000

> <Gold.Chemscore.DEClash.Weighted>
0.3780

> <Gold.Chemscore.DEInternal.Weighted>
0.0414

> <Gold.Chemscore.Rot.Weighted>
3.0864

> <Gold.Chemscore.Internal.Correction.Weighted>
   9.000000E+99

> <Gold.Protein.RotatedTorsions>
[ 6907 6896 6895 6894 ] final  -98.30 input  -60.11 | X-H torsion
[ 7974 7965 7964 7962 ] final -143.15 input  175.53 | X-H torsion
[ 8008 7997 7996 7995 ] final -128.65 input   59.86 | X-H torsion
[ 10167 10162 10161 10158 ] final   46.97 input  -65.29 | X-H torsion
[ 10718 10713 10712 10709 ] final -105.05 input   66.30 | X-H torsion
[ 10763 10752 10751 10750 ] final -104.93 input  -60.55 | X-H torsion
[ 11005 11000 10999 10996 ] final  103.63 input  -57.11 | X-H torsion

> <Gold.Protein.ActiveResidues>
 VAL166  LYS551  ARG553  GLY616  TRP617  ASP618  TYR619  PRO620  LYS621  CYS622 
 ASP623  PHE694  ASN695  SER759  ASP760  ASP761  ALA762  ILE779  LEU786  VAL792 
 PHE793  MET794  SER795  GLU796  ALA797  LYS798  CYS799  TRP800  GLU811  SER814 

> <Gold.Protein.RotatedAtoms>
  150.7042  134.1215  159.4036 H   0  0  0  0  0  0  0  0  0  0  0  0  # atno 6907 bound_to 6896
  151.9201  135.0299  160.0530 H   0  0  0  0  0  0  0  0  0  0  0  0  # atno 6908 bound_to 6896
  152.2263  133.4987  159.5227 H   0  0  0  0  0  0  0  0  0  0  0  0  # atno 6909 bound_to 6896
  144.8391  140.5870  143.5464 H   0  0  0  0  0  0  0  0  0  0  0  0  # atno 7974 bound_to 7965
  155.2662  140.0438  157.3002 H   0  0  0  0  0  0  0  0  0  0  0  0  # atno 8008 bound_to 7997
  154.5681  140.2365  155.8202 H   0  0  0  0  0  0  0  0  0  0  0  0  # atno 8009 bound_to 7997
  156.2101  140.3001  155.9720 H   0  0  0  0  0  0  0  0  0  0  0  0  # atno 8010 bound_to 7997
  140.3084  144.2850  150.6204 H   0  0  0  0  0  0  0  0  0  0  0  0  # atno 10167 bound_to 10162
  156.0329  130.5545  150.7483 H   0  0  0  0  0  0  0  0  0  0  0  0  # atno 10718 bound_to 10713
  154.7912  135.4768  154.0057 H   0  0  0  0  0  0  0  0  0  0  0  0  # atno 10763 bound_to 10752
  153.1633  135.6812  153.8718 H   0  0  0  0  0  0  0  0  0  0  0  0  # atno 10764 bound_to 10752
  153.8324  135.3190  155.3398 H   0  0  0  0  0  0  0  0  0  0  0  0  # atno 10765 bound_to 10752
  139.8785  134.9270  156.5238 H   0  0  0  0  0  0  0  0  0  0  0  0  # atno 11005 bound_to 11000
  145.4732  139.1501  143.3802 LP  0  0  0  0  0  0  0  0  0  0  0  0  # atno 17320 bound_to 7965
  146.2686  140.4866  142.8824 LP  0  0  0  0  0  0  0  0  0  0  0  0  # atno 17321 bound_to 7965
  140.5590  143.2195  151.7798 LP  0  0  0  0  0  0  0  0  0  0  0  0  # atno 17342 bound_to 10162
  139.4899  144.4375  151.9802 LP  0  0  0  0  0  0  0  0  0  0  0  0  # atno 17343 bound_to 10162
  157.5034  131.0920  151.0286 LP  0  0  0  0  0  0  0  0  0  0  0  0  # atno 17370 bound_to 10713
  157.0661  130.5845  149.5394 LP  0  0  0  0  0  0  0  0  0  0  0  0  # atno 17371 bound_to 10713
  140.8431  133.8190  155.9094 LP  0  0  0  0  0  0  0  0  0  0  0  0  # atno 17394 bound_to 11000
  140.9218  134.2132  157.4921 LP  0  0  0  0  0  0  0  0  0  0  0  0  # atno 17395 bound_to 11000

$$$$
