AV-unprocessed.smi:102|AV-procd|sdf|970|dock3
  -GOLD-   2262017523D 1   1.00000     0.00000
 Structure written by MMmdl.
 43 44  0  0  0  0  0  0  0  0  2 V2000
  147.7013  136.2267  162.6425 C   0  0  0  0  0  0  0  0  0  0  0  0
  147.4502  136.5023  161.1659 C   0  0  0  0  0  0  0  0  0  0  0  0
  146.5575  137.2665  160.7983 O   0  0  0  0  0  0  0  0  0  0  0  0
  148.2994  135.8293  160.3684 O   0  0  0  0  0  0  0  0  0  0  0  0
  148.1143  135.8267  158.9594 C   0  0  0  0  0  0  0  0  0  0  0  0
  148.3929  137.2160  158.3643 C   0  0  1  0  0  0  0  0  0  0  0  0
  149.3406  137.9131  159.1560 O   0  0  0  0  0  0  0  0  0  0  0  0
  149.9052  138.9243  158.3854 C   0  0  1  0  0  0  0  0  0  0  0  0
  151.3060  139.1974  158.8867 N   0  0  0  0  0  0  0  0  0  0  0  0
  151.7505  140.4955  159.0749 C   0  0  0  0  0  0  0  0  0  0  0  0
  152.9906  140.7469  159.5414 C   0  0  0  0  0  0  0  0  0  0  0  0
  153.3955  142.0168  159.7160 F   0  0  0  0  0  0  0  0  0  0  0  0
  153.8832  139.6334  159.8594 C   0  0  0  0  0  0  0  0  0  0  0  0
  155.0167  139.8690  160.2749 O   0  0  0  0  0  0  0  0  0  0  0  0
  153.4104  138.3653  159.6816 N   0  5  0  0  0  0  0  0  0  0  0  0
  152.1531  138.1058  159.2172 C   0  0  0  0  0  0  0  0  0  0  0  0
  151.7068  136.9666  159.0782 O   0  0  0  0  0  0  0  0  0  0  0  0
  149.8630  138.4596  156.9147 C   0  0  1  0  0  0  0  0  0  0  0  0
  151.1629  138.2222  156.3828 O   0  0  0  0  0  0  0  0  0  0  0  0
  151.7114  139.0891  155.5172 C   0  0  0  0  0  0  0  0  0  0  0  0
  152.9338  138.5106  154.8181 C   0  0  0  0  0  0  0  0  0  0  0  0
  151.3097  140.2278  155.2764 O   0  0  0  0  0  0  0  0  0  0  0  0
  149.0680  137.1603  156.9916 C   0  0  2  0  0  0  0  0  0  0  0  0
  148.1099  137.1382  155.9411 O   0  0  0  0  0  0  0  0  0  0  0  0
  147.3477  136.0513  155.7348 C   0  0  0  0  0  0  0  0  0  0  0  0
  146.4356  136.2046  154.5253 C   0  0  0  0  0  0  0  0  0  0  0  0
  147.3464  135.0244  156.4136 O   0  0  0  0  0  0  0  0  0  0  0  0
  148.6649  136.6367  162.9454 H   0  0  0  0  0  0  0  0  0  0  0  0
  147.7051  135.1534  162.8332 H   0  0  0  0  0  0  0  0  0  0  0  0
  146.9235  136.6831  163.2552 H   0  0  0  0  0  0  0  0  0  0  0  0
  148.7164  135.0592  158.4703 H   0  0  0  0  0  0  0  0  0  0  0  0
  147.0726  135.5625  158.7790 H   0  0  0  0  0  0  0  0  0  0  0  0
  147.4773  137.8076  158.3065 H   0  0  0  0  0  0  0  0  0  0  0  0
  149.3291  139.8351  158.5577 H   0  0  0  0  0  0  0  0  0  0  0  0
  151.0989  141.3280  158.8547 H   0  0  0  0  0  0  0  0  0  0  0  0
  149.3339  139.2278  156.3479 H   0  0  0  0  0  0  0  0  0  0  0  0
  153.7234  138.3117  155.5430 H   0  0  0  0  0  0  0  0  0  0  0  0
  153.3158  139.2078  154.0721 H   0  0  0  0  0  0  0  0  0  0  0  0
  152.6778  137.5760  154.3190 H   0  0  0  0  0  0  0  0  0  0  0  0
  149.7595  136.3164  156.9533 H   0  0  0  0  0  0  0  0  0  0  0  0
  146.9968  136.0330  153.6067 H   0  0  0  0  0  0  0  0  0  0  0  0
  146.0111  137.2082  154.4910 H   0  0  0  0  0  0  0  0  0  0  0  0
  145.6173  135.4860  154.5709 H   0  0  0  0  0  0  0  0  0  0  0  0
  1  2  1  0  0  0  0
  1 28  1  0  0  0  0
  1 29  1  0  0  0  0
  1 30  1  0  0  0  0
  2  3  2  0  0  0  0
  2  4  1  0  0  0  0
  4  5  1  0  0  0  0
  5  6  1  0  0  0  0
  5 31  1  0  0  0  0
  5 32  1  0  0  0  0
  6 23  1  0  0  0  0
  6  7  1  0  0  0  0
  6 33  1  0  0  0  0
  7  8  1  0  0  0  0
  8  9  1  0  0  0  0
  8 18  1  0  0  0  0
  8 34  1  0  0  0  0
  9 16  1  0  0  0  0
  9 10  1  0  0  0  0
 10 11  2  0  0  0  0
 10 35  1  0  0  0  0
 11 12  1  0  0  0  0
 11 13  1  0  0  0  0
 13 14  2  0  0  0  0
 13 15  1  0  0  0  0
 15 16  1  0  0  0  0
 16 17  2  0  0  0  0
 18 19  1  0  0  0  0
 18 23  1  0  0  0  0
 18 36  1  0  0  0  0
 19 20  1  0  0  0  0
 20 21  1  0  0  0  0
 20 22  2  0  0  0  0
 21 37  1  0  0  0  0
 21 38  1  0  0  0  0
 21 39  1  0  0  0  0
 23 24  1  0  0  0  0
 23 40  1  0  0  0  0
 24 25  1  0  0  0  0
 25 26  1  0  0  0  0
 25 27  2  0  0  0  0
 26 41  1  0  0  0  0
 26 42  1  0  0  0  0
 26 43  1  0  0  0  0
M  CHG  1  15  -1
M  END
> <s_m_source_file>
AV-unprocessed.smi

> <i_m_source_file_index>
102

> <i_lp_mmshare_version>
43012

> <i_f3d_flags>
0

> <s_epik_input>
W0NIM11DKD1PKU9bQ0gyXVtDQEBIXTFPW0NASF0oW0NAQEhdKE9DKD1PKVtDSDNdKVtDQEhdMU9DKD1PKVtDSDNdKW4yW2NIXWMoRiljKD1PKVtuSF1jMj1P

> <s_epik_cmdline>
J2VwaWtfcHl0aG9uJywgJy1waCcsICc3LjAnLCAnLXRuJywgJzgnLCAnLW1hJywgJzIwMCcsICctbWV0YWxfYmluZGluZycsICctaW1hZScsICc8aW5maWxlLm1hZT4nLCAnLW9tYWUnLCAnPG91dGZpbGUubWFlPic=

> <r_epik_Ionization_Penalty>
1.40304

> <r_epik_Ionization_Penalty_Charging>
1.43915e-08

> <r_epik_Ionization_Penalty_Neutral>
1.40304

> <r_epik_State_Penalty>
1.48536

> <r_epik_Charging_Adjusted_Penalty>
1.48536

> <i_epik_Tot_Q>
-1

> <i_epik_Tot_abs_Q>
1

> <r_epik_Metal_State_Penalty>
0.00663881

> <b_epik_Metal_Only>
0

> <s_epik_Chemistry_Notes>
This compound has an ester and may undergo hydrolysis at high or low pH. This compound contains an acetal/aminal-like group ( X-CH(R)-Y where X, Y are N, S, or O) that may be acid/base labile, releasing an aldehyde.

> <s_lp_Force_Field>
OPLS_2005

> <r_lp_Energy>
20.3433

> <b_lp_Chiralities_Consistent>
1

> <s_lp_Variant>
AV-unprocessed.smi:102-26

> <Gold.Version>
5.8.1

> <Gold.Id.Protein>
6NUR|6NUR_protein|mol2

> <Gold.PLP.Fitness>
42.1429

> <Gold.PLP.PLP>
-36.2429

> <Gold.PLP.part.hbond>
-4.1771

> <Gold.PLP.part.metal>
0.0000

> <Gold.PLP.part.buried>
-7.2260

> <Gold.PLP.part.nonpolar>
-26.1948

> <Gold.PLP.part.repulsive>
0.0606

> <Gold.PLP.ligand.clash>
0.0000

> <Gold.PLP.ligand.torsion>
1.7330

> <Gold.PLP.Chemscore.Hbond>
2.9913

> <Gold.PLP.Chemscore.CHOScore>
0.0000

> <Gold.PLP.Chemscore.Metal>
0.0000

> <Gold.Chemscore.Hbonds>
donor molecule, donor type, donor heavy atom, donor atom, acceptor molecule, acceptor atom, score
      P1  H  6896  6907       L1    17  1.00
      P1  H  6934  6947       L1     3  1.00
      P1  H  7989  7998       L1    22  1.00

> <Gold.PLP.Chemscore.Internal.Correction>
0.3923

> <Gold.Rescore>
     Score         DG    S(hbond)    S(metal)    S(lipo)     H(rot)  DE(clash)    DE(int)     intcor
      4.96     -10.45       2.96        0.00      45.47       4.00       0.03       5.45       ----

> <Gold.Chemscore.Fitness>
4.9627

> <Gold.Chemscore.DG>
-10.4450

> <Gold.Chemscore.ZeroCoef>
-5.4800

> <Gold.Chemscore.Hbond>
2.9559

> <Gold.Chemscore.Metal>
0.0000

> <Gold.Chemscore.Lipo>
45.4675

> <Gold.Chemscore.Internal_Hbond>
0.0000

> <Gold.Chemscore.DEClash>
0.0346

> <Gold.Chemscore.DEInternal>
5.4478

> <Gold.Chemscore.Rot>
3.9951

> <Gold.Chemscore.Internal.Correction>
   9.000000E+99

> <Gold.Chemscore.Hbonds>
donor molecule, donor type, donor heavy atom, donor atom, acceptor molecule, acceptor atom, score
      P1  H  6896  6907       L1    17  0.92
      P1  H  6934  6947       L1     3  0.70
      P1  H  7989  7998       L1    22  0.89

> <Gold.Chemscore.Hbond.Weighted>
-9.8728

> <Gold.Chemscore.Metal.Weighted>
-0.0000

> <Gold.Chemscore.Lipo.Weighted>
-5.3197

> <Gold.Chemscore.Internal_Hbond.Weighted>
0.0000

> <Gold.Chemscore.DEClash.Weighted>
0.0346

> <Gold.Chemscore.DEInternal.Weighted>
5.4478

> <Gold.Chemscore.Rot.Weighted>
10.2274

> <Gold.Chemscore.Internal.Correction.Weighted>
   9.000000E+99

> <Gold.Protein.RotatedTorsions>
[ 6907 6896 6895 6894 ] final   -6.03 input  -60.11 | X-H torsion
[ 7974 7965 7964 7962 ] final -179.91 input  175.53 | X-H torsion
[ 8008 7997 7996 7995 ] final  114.28 input   59.86 | X-H torsion
[ 10167 10162 10161 10158 ] final   76.56 input  -65.29 | X-H torsion
[ 10718 10713 10712 10709 ] final  -92.37 input   66.30 | X-H torsion
[ 10763 10752 10751 10750 ] final -151.20 input  -60.55 | X-H torsion
[ 11005 11000 10999 10996 ] final  144.89 input  -57.11 | X-H torsion

> <Gold.Protein.ActiveResidues>
 VAL166  LYS551  ARG553  GLY616  TRP617  ASP618  TYR619  PRO620  LYS621  CYS622 
 ASP623  PHE694  ASN695  SER759  ASP760  ASP761  ALA762  ILE779  LEU786  VAL792 
 PHE793  MET794  SER795  GLU796  ALA797  LYS798  CYS799  TRP800  GLU811  SER814 

> <Gold.Protein.RotatedAtoms>
  151.4721  135.1046  159.9753 H   0  0  0  0  0  0  0  0  0  0  0  0  # atno 6907 bound_to 6896
  152.4812  133.8256  159.7087 H   0  0  0  0  0  0  0  0  0  0  0  0  # atno 6908 bound_to 6896
  150.8886  133.7213  159.2938 H   0  0  0  0  0  0  0  0  0  0  0  0  # atno 6909 bound_to 6896
  144.7140  140.0646  143.6431 H   0  0  0  0  0  0  0  0  0  0  0  0  # atno 7974 bound_to 7965
  156.2311  140.2962  156.0191 H   0  0  0  0  0  0  0  0  0  0  0  0  # atno 8008 bound_to 7997
  155.2221  140.0416  157.2967 H   0  0  0  0  0  0  0  0  0  0  0  0  # atno 8009 bound_to 7997
  154.5998  140.2424  155.7816 H   0  0  0  0  0  0  0  0  0  0  0  0  # atno 8010 bound_to 7997
  139.9909  144.5757  150.7819 H   0  0  0  0  0  0  0  0  0  0  0  0  # atno 10167 bound_to 10162
  156.0002  130.4984  150.5615 H   0  0  0  0  0  0  0  0  0  0  0  0  # atno 10718 bound_to 10713
  154.8072  135.3266  154.7399 H   0  0  0  0  0  0  0  0  0  0  0  0  # atno 10763 bound_to 10752
  153.8055  135.6900  153.4853 H   0  0  0  0  0  0  0  0  0  0  0  0  # atno 10764 bound_to 10752
  153.1826  135.4581  154.9993 H   0  0  0  0  0  0  0  0  0  0  0  0  # atno 10765 bound_to 10752
  140.0668  134.9174  157.1279 H   0  0  0  0  0  0  0  0  0  0  0  0  # atno 11005 bound_to 11000
  145.9835  139.2959  143.1027 LP  0  0  0  0  0  0  0  0  0  0  0  0  # atno 17320 bound_to 7965
  145.8983  140.9259  143.0516 LP  0  0  0  0  0  0  0  0  0  0  0  0  # atno 17321 bound_to 7965
  140.7455  143.2876  151.3419 LP  0  0  0  0  0  0  0  0  0  0  0  0  # atno 17342 bound_to 10162
  139.6341  144.0665  152.2501 LP  0  0  0  0  0  0  0  0  0  0  0  0  # atno 17343 bound_to 10162
  157.3524  131.0736  151.1703 LP  0  0  0  0  0  0  0  0  0  0  0  0  # atno 17370 bound_to 10713
  157.2515  130.6616  149.5933 LP  0  0  0  0  0  0  0  0  0  0  0  0  # atno 17371 bound_to 10713
  140.3686  134.2415  155.7180 LP  0  0  0  0  0  0  0  0  0  0  0  0  # atno 17394 bound_to 11000
  141.1996  133.8007  157.0528 LP  0  0  0  0  0  0  0  0  0  0  0  0  # atno 17395 bound_to 11000

$$$$
