AV-unprocessed.smi:1758|AV-procd|sdf|7082|dock1
  -GOLD-   22720 8303D 1   1.00000     0.00000
 Structure written by MMmdl.
 44 46  0  0  0  0  0  0  0  0  2 V2000
  151.1123  141.7476  157.2538 C   0  0  0  0  0  0  0  0  0  0  0  0
  150.2859  141.8854  155.9692 C   0  0  0  0  0  0  0  0  0  0  0  0
  150.1375  140.6150  155.2867 N   0  0  0  0  0  0  0  0  0  0  0  0
  148.9710  139.9489  154.9663 C   0  0  0  0  0  0  0  0  0  0  0  0
  149.3625  138.8072  154.3259 C   0  0  0  0  0  0  0  0  0  0  0  0
  148.5714  137.7689  153.7733 N   0  0  0  0  0  0  0  0  0  0  0  0
  147.2878  137.4880  154.0496 C   0  0  0  0  0  0  0  0  0  0  0  0
  146.5907  138.0884  154.8672 O   0  0  0  0  0  0  0  0  0  0  0  0
  146.8518  136.4450  153.3286 N   0  0  0  0  0  0  0  0  0  0  0  0
  145.5066  135.8764  153.3943 C   0  0  1  0  0  0  0  0  0  0  0  0
  144.4524  136.7432  152.6790 C   0  0  0  0  0  0  0  0  0  0  0  0
  143.5495  135.7374  151.9575 C   0  0  0  0  0  0  0  0  0  0  0  0
  144.4810  134.6622  151.5983 N   0  3  2  0  0  0  0  0  0  0  0  0
  143.9311  133.3894  151.0899 C   0  0  0  0  0  0  0  0  0  0  0  0
  145.1057  132.5092  150.6112 C   0  0  0  0  0  0  0  0  0  0  0  0
  146.1950  132.3456  151.6957 C   0  0  0  0  0  0  0  0  0  0  0  0
  146.6327  133.7063  152.2797 C   0  0  0  0  0  0  0  0  0  0  0  0
  145.3843  134.4761  152.7471 C   0  0  1  0  0  0  0  0  0  0  0  0
  150.7807  138.8477  154.2934 C   0  0  0  0  0  0  0  0  0  0  0  0
  151.2419  139.9416  154.8794 N   0  0  0  0  0  0  0  0  0  0  0  0
  151.2245  142.7130  157.7475 H   0  0  0  0  0  0  0  0  0  0  0  0
  152.1107  141.3650  157.0399 H   0  0  0  0  0  0  0  0  0  0  0  0
  150.6364  141.0664  157.9599 H   0  0  0  0  0  0  0  0  0  0  0  0
  149.2947  142.2807  156.1947 H   0  0  0  0  0  0  0  0  0  0  0  0
  150.7632  142.5929  155.2902 H   0  0  0  0  0  0  0  0  0  0  0  0
  147.9974  140.3453  155.2137 H   0  0  0  0  0  0  0  0  0  0  0  0
  149.0344  137.1772  153.0992 H   0  0  0  0  0  0  0  0  0  0  0  0
  147.4975  136.0150  152.6826 H   0  0  0  0  0  0  0  0  0  0  0  0
  145.2097  135.7935  154.4420 H   0  0  0  0  0  0  0  0  0  0  0  0
  143.8981  137.3835  153.3660 H   0  0  0  0  0  0  0  0  0  0  0  0
  144.9304  137.3897  151.9412 H   0  0  0  0  0  0  0  0  0  0  0  0
  142.7843  135.3530  152.6340 H   0  0  0  0  0  0  0  0  0  0  0  0
  143.0581  136.1629  151.0822 H   0  0  0  0  0  0  0  0  0  0  0  0
  143.3595  132.8867  151.8715 H   0  0  0  0  0  0  0  0  0  0  0  0
  143.2475  133.5867  150.2636 H   0  0  0  0  0  0  0  0  0  0  0  0
  144.7378  131.5312  150.2997 H   0  0  0  0  0  0  0  0  0  0  0  0
  145.5529  132.9628  149.7256 H   0  0  0  0  0  0  0  0  0  0  0  0
  145.8080  131.7176  152.4992 H   0  0  0  0  0  0  0  0  0  0  0  0
  147.0572  131.8195  151.2847 H   0  0  0  0  0  0  0  0  0  0  0  0
  147.3180  133.5453  153.1124 H   0  0  0  0  0  0  0  0  0  0  0  0
  147.1738  134.2800  151.5261 H   0  0  0  0  0  0  0  0  0  0  0  0
  144.8620  133.8503  153.4743 H   0  0  0  0  0  0  0  0  0  0  0  0
  151.4762  138.1358  153.8740 H   0  0  0  0  0  0  0  0  0  0  0  0
  145.0516  135.0414  150.8562 H   0  0  0  0  0  0  0  0  0  0  0  0
  1  2  1  0  0  0  0
  1 21  1  0  0  0  0
  1 22  1  0  0  0  0
  1 23  1  0  0  0  0
  2  3  1  0  0  0  0
  2 24  1  0  0  0  0
  2 25  1  0  0  0  0
  3 20  1  0  0  0  0
  3  4  1  0  0  0  0
  4  5  2  0  0  0  0
  4 26  1  0  0  0  0
  5  6  1  0  0  0  0
  5 19  1  0  0  0  0
  6  7  1  0  0  0  0
  6 27  1  0  0  0  0
  7  8  2  0  0  0  0
  7  9  1  0  0  0  0
  9 10  1  0  0  0  0
  9 28  1  0  0  0  0
 10 18  1  0  0  0  0
 10 11  1  0  0  0  0
 10 29  1  0  0  0  0
 11 12  1  0  0  0  0
 11 30  1  0  0  0  0
 11 31  1  0  0  0  0
 12 13  1  0  0  0  0
 12 32  1  0  0  0  0
 12 33  1  0  0  0  0
 13 18  1  0  0  0  0
 13 14  1  0  0  0  0
 13 44  1  0  0  0  0
 14 15  1  0  0  0  0
 14 34  1  0  0  0  0
 14 35  1  0  0  0  0
 15 16  1  0  0  0  0
 15 36  1  0  0  0  0
 15 37  1  0  0  0  0
 16 17  1  0  0  0  0
 16 38  1  0  0  0  0
 16 39  1  0  0  0  0
 17 18  1  0  0  0  0
 17 40  1  0  0  0  0
 17 41  1  0  0  0  0
 18 42  1  0  0  0  0
 19 20  2  0  0  0  0
 19 43  1  0  0  0  0
M  CHG  1  13   1
M  END
> <s_m_source_file>
AV-unprocessed.smi

> <i_m_source_file_index>
1758

> <i_lp_mmshare_version>
43012

> <i_f3d_flags>
0

> <s_epik_input>
W0NIM11bQ0gyXW4xW2NIXWMoW2NIXW4xKVtOSF1DKD1PKVtOSF1bQ0BIXShbQ0gyXVtDSDJdMilbQ0BASF0oTjIzKVtDSDJdW0NIMl1bQ0gyXVtDSDJdMw==

> <s_epik_cmdline>
J2VwaWtfcHl0aG9uJywgJy1waCcsICc3LjAnLCAnLXRuJywgJzgnLCAnLW1hJywgJzIwMCcsICctbWV0YWxfYmluZGluZycsICctaW1hZScsICc8aW5maWxlLm1hZT4nLCAnLW9tYWUnLCAnPG91dGZpbGUubWFlPic=

> <r_lp_tautomer_probability>
1

> <r_epik_Ionization_Penalty>
0.00111541

> <r_epik_Ionization_Penalty_Charging>
0.000974069

> <r_epik_Ionization_Penalty_Neutral>
0.000141346

> <r_epik_State_Penalty>
0.000633842

> <r_epik_Charging_Adjusted_Penalty>
0.00160791

> <i_epik_Tot_Q>
1

> <i_epik_Tot_abs_Q>
1

> <r_epik_Metal_State_Penalty>
-0

> <b_epik_Metal_Only>
0

> <s_lp_Force_Field>
OPLS_2005

> <r_lp_Energy>
45.3498

> <b_lp_Chiralities_Consistent>
1

> <s_lp_Variant>
AV-unprocessed.smi:1758-4

> <Gold.Version>
5.8.1

> <Gold.Id.Protein>
6NUR|6NUR_protein|mol2

> <Gold.PLP.Fitness>
39.1343

> <Gold.PLP.PLP>
-30.9351

> <Gold.PLP.part.hbond>
-2.8342

> <Gold.PLP.part.metal>
0.0000

> <Gold.PLP.part.buried>
-4.5891

> <Gold.PLP.part.nonpolar>
-24.4445

> <Gold.PLP.part.repulsive>
0.1299

> <Gold.PLP.ligand.clash>
0.0000

> <Gold.PLP.ligand.torsion>
0.2701

> <Gold.PLP.Chemscore.Hbond>
2.9120

> <Gold.PLP.Chemscore.CHOScore>
0.0000

> <Gold.PLP.Chemscore.Metal>
0.0000

> <Gold.Chemscore.Hbonds>
donor molecule, donor type, donor heavy atom, donor atom, acceptor molecule, acceptor atom, score
      L1  H     6    27       P1  7948  1.00
      L1  H     9    28       P1  7948  0.90
      P1  H  7989  7998       L1    20  1.00

> <Gold.PLP.Chemscore.Internal.Correction>
0.0033

> <Gold.Rescore>
     Score         DG    S(hbond)    S(metal)    S(lipo)     H(rot)  DE(clash)    DE(int)     intcor
     16.23     -17.46       1.94        0.00      73.09       1.19       0.00       1.23       ----

> <Gold.Chemscore.Fitness>
16.2300

> <Gold.Chemscore.DG>
-17.4641

> <Gold.Chemscore.ZeroCoef>
-5.4800

> <Gold.Chemscore.Hbond>
1.9385

> <Gold.Chemscore.Metal>
0.0000

> <Gold.Chemscore.Lipo>
73.0936

> <Gold.Chemscore.Internal_Hbond>
0.0000

> <Gold.Chemscore.DEClash>
0.0004

> <Gold.Chemscore.DEInternal>
1.2336

> <Gold.Chemscore.Rot>
1.1884

> <Gold.Chemscore.Internal.Correction>
   9.000000E+99

> <Gold.Chemscore.Hbonds>
donor molecule, donor type, donor heavy atom, donor atom, acceptor molecule, acceptor atom, score
      L1  H     6    27       P1  7948  0.90
      L1  H     9    28       P1  7948  0.88
      P1  H  7989  7998       L1    20  0.07

> <Gold.Chemscore.Hbond.Weighted>
-6.4745

> <Gold.Chemscore.Metal.Weighted>
-0.0000

> <Gold.Chemscore.Lipo.Weighted>
-8.5520

> <Gold.Chemscore.Internal_Hbond.Weighted>
0.0000

> <Gold.Chemscore.DEClash.Weighted>
0.0004

> <Gold.Chemscore.DEInternal.Weighted>
1.2336

> <Gold.Chemscore.Rot.Weighted>
3.0423

> <Gold.Chemscore.Internal.Correction.Weighted>
   9.000000E+99

> <Gold.Protein.RotatedTorsions>
[ 6907 6896 6895 6894 ] final  115.27 input  -60.11 | X-H torsion
[ 7974 7965 7964 7962 ] final  -27.88 input  175.53 | X-H torsion
[ 8008 7997 7996 7995 ] final  -17.60 input   59.86 | X-H torsion
[ 10167 10162 10161 10158 ] final   -2.05 input  -65.29 | X-H torsion
[ 10718 10713 10712 10709 ] final    2.88 input   66.30 | X-H torsion
[ 10763 10752 10751 10750 ] final  110.20 input  -60.55 | X-H torsion
[ 11005 11000 10999 10996 ] final  -60.82 input  -57.11 | X-H torsion

> <Gold.Protein.ActiveResidues>
 VAL166  LYS551  ARG553  GLY616  TRP617  ASP618  TYR619  PRO620  LYS621  CYS622 
 ASP623  PHE694  ASN695  SER759  ASP760  ASP761  ALA762  ILE779  LEU786  VAL792 
 PHE793  MET794  SER795  GLU796  ALA797  LYS798  CYS799  TRP800  GLU811  SER814 

> <Gold.Protein.RotatedAtoms>
  152.4752  133.8121  159.7008 H   0  0  0  0  0  0  0  0  0  0  0  0  # atno 6907 bound_to 6896
  150.8764  133.7423  159.2952 H   0  0  0  0  0  0  0  0  0  0  0  0  # atno 6908 bound_to 6896
  151.4942  135.1062  159.9863 H   0  0  0  0  0  0  0  0  0  0  0  0  # atno 6909 bound_to 6896
  146.1327  140.5210  142.8686 H   0  0  0  0  0  0  0  0  0  0  0  0  # atno 7974 bound_to 7965
  154.4966  140.2138  155.9433 H   0  0  0  0  0  0  0  0  0  0  0  0  # atno 8008 bound_to 7997
  156.1379  140.3185  155.8417 H   0  0  0  0  0  0  0  0  0  0  0  0  # atno 8009 bound_to 7997
  155.4176  140.0494  157.3018 H   0  0  0  0  0  0  0  0  0  0  0  0  # atno 8010 bound_to 7997
  140.6835  143.6703  150.8191 H   0  0  0  0  0  0  0  0  0  0  0  0  # atno 10167 bound_to 10162
  156.8695  130.5615  149.5658 H   0  0  0  0  0  0  0  0  0  0  0  0  # atno 10718 bound_to 10713
  153.4456  135.3756  155.2253 H   0  0  0  0  0  0  0  0  0  0  0  0  # atno 10763 bound_to 10752
  154.8755  135.3873  154.4100 H   0  0  0  0  0  0  0  0  0  0  0  0  # atno 10764 bound_to 10752
  153.4652  135.7087  153.6090 H   0  0  0  0  0  0  0  0  0  0  0  0  # atno 10765 bound_to 10752
  141.1301  133.6625  156.5281 H   0  0  0  0  0  0  0  0  0  0  0  0  # atno 11005 bound_to 11000
  144.7707  140.5631  143.6672 LP  0  0  0  0  0  0  0  0  0  0  0  0  # atno 17320 bound_to 7965
  145.5225  139.1476  143.3544 LP  0  0  0  0  0  0  0  0  0  0  0  0  # atno 17321 bound_to 7965
  140.0407  143.5349  152.2719 LP  0  0  0  0  0  0  0  0  0  0  0  0  # atno 17342 bound_to 10162
  139.6175  144.7622  151.2813 LP  0  0  0  0  0  0  0  0  0  0  0  0  # atno 17343 bound_to 10162
  156.0734  130.5761  150.9427 LP  0  0  0  0  0  0  0  0  0  0  0  0  # atno 17370 bound_to 10713
  157.6204  131.0930  150.8633 LP  0  0  0  0  0  0  0  0  0  0  0  0  # atno 17371 bound_to 10713
  140.4238  134.7163  157.4904 LP  0  0  0  0  0  0  0  0  0  0  0  0  # atno 17394 bound_to 11000
  140.0341  134.6363  155.9067 LP  0  0  0  0  0  0  0  0  0  0  0  0  # atno 17395 bound_to 11000

$$$$
