AV-unprocessed.smi:3346|AV-procd|sdf|12909|dock4
  -GOLD-   2272019323D 1   1.00000     0.00000
 Structure written by MMmdl.
 47 48  0  0  0  0  0  0  0  0  1 V2000
  145.4961  142.8092  155.5003 C   0  0  0  0  0  0  0  0  0  0  0  0
  146.8656  142.9339  154.8161 C   0  0  0  0  0  0  0  0  0  0  0  0
  146.7043  143.5228  153.4043 C   0  0  0  0  0  0  0  0  0  0  0  0
  147.5975  141.5729  154.8122 C   0  0  0  0  0  0  0  0  0  0  0  0
  149.1038  141.6347  154.4779 C   0  0  2  0  0  0  0  0  0  0  0  0
  149.6561  140.2269  154.1907 C   0  0  0  0  0  0  0  0  0  0  0  0
  149.8146  142.2174  155.6109 N   0  0  0  0  0  0  0  0  0  0  0  0
  149.6204  141.4531  156.8343 C   0  0  0  0  0  0  0  0  0  0  0  0
  150.8978  141.3341  157.6498 C   0  0  0  0  0  0  0  0  0  0  0  0
  151.1932  142.3222  158.6123 C   0  0  0  0  0  0  0  0  0  0  0  0
  152.3653  142.2041  159.3809 C   0  0  0  0  0  0  0  0  0  0  0  0
  153.2005  141.0949  159.1548 C   0  0  0  0  0  0  0  0  0  0  0  0
  152.9336  140.1437  158.2360 N   0  0  0  0  0  0  0  0  0  0  0  0
  151.8055  140.2538  157.4921 C   0  0  0  0  0  0  0  0  0  0  0  0
  151.5687  139.2620  156.5249 N   0  0  0  0  0  0  0  0  0  0  0  0
  152.5904  139.2246  155.4874 C   0  0  0  0  0  0  0  0  0  0  0  0
  152.1522  138.2778  154.3569 C   0  0  0  0  0  0  0  0  0  0  0  0
  151.8770  136.9867  154.8940 O   0  0  0  0  0  0  0  0  0  0  0  0
  150.8301  137.0205  155.8607 C   0  0  0  0  0  0  0  0  0  0  0  0
  151.2372  137.9344  157.0294 C   0  0  0  0  0  0  0  0  0  0  0  0
  144.8480  142.1130  154.9671 H   0  0  0  0  0  0  0  0  0  0  0  0
  144.9875  143.7729  155.5415 H   0  0  0  0  0  0  0  0  0  0  0  0
  145.5989  142.4510  156.5250 H   0  0  0  0  0  0  0  0  0  0  0  0
  147.4495  143.6385  155.4071 H   0  0  0  0  0  0  0  0  0  0  0  0
  146.1589  142.8421  152.7503 H   0  0  0  0  0  0  0  0  0  0  0  0
  147.6678  143.7326  152.9410 H   0  0  0  0  0  0  0  0  0  0  0  0
  146.1551  144.4641  153.4347 H   0  0  0  0  0  0  0  0  0  0  0  0
  147.4705  141.0887  155.7820 H   0  0  0  0  0  0  0  0  0  0  0  0
  147.0993  140.9204  154.0938 H   0  0  0  0  0  0  0  0  0  0  0  0
  149.2483  142.2545  153.5934 H   0  0  0  0  0  0  0  0  0  0  0  0
  149.1049  139.7529  153.3780 H   0  0  0  0  0  0  0  0  0  0  0  0
  149.5733  139.5802  155.0651 H   0  0  0  0  0  0  0  0  0  0  0  0
  150.7036  140.2509  153.8915 H   0  0  0  0  0  0  0  0  0  0  0  0
  149.5283  143.1768  155.7433 H   0  0  0  0  0  0  0  0  0  0  0  0
  148.8645  141.9310  157.4569 H   0  0  0  0  0  0  0  0  0  0  0  0
  149.2393  140.4602  156.5930 H   0  0  0  0  0  0  0  0  0  0  0  0
  150.5280  143.1597  158.7627 H   0  0  0  0  0  0  0  0  0  0  0  0
  152.6165  142.9440  160.1262 H   0  0  0  0  0  0  0  0  0  0  0  0
  154.1084  140.9685  159.7259 H   0  0  0  0  0  0  0  0  0  0  0  0
  152.7691  140.2248  155.0944 H   0  0  0  0  0  0  0  0  0  0  0  0
  153.5308  138.8797  155.9192 H   0  0  0  0  0  0  0  0  0  0  0  0
  151.2679  138.6644  153.8486 H   0  0  0  0  0  0  0  0  0  0  0  0
  152.9395  138.1936  153.6079 H   0  0  0  0  0  0  0  0  0  0  0  0
  149.9055  137.3693  155.3977 H   0  0  0  0  0  0  0  0  0  0  0  0
  150.6446  136.0087  156.2208 H   0  0  0  0  0  0  0  0  0  0  0  0
  152.0974  137.5071  157.5468 H   0  0  0  0  0  0  0  0  0  0  0  0
  150.4242  138.0060  157.7526 H   0  0  0  0  0  0  0  0  0  0  0  0
  1  2  1  0  0  0  0
  1 21  1  0  0  0  0
  1 22  1  0  0  0  0
  1 23  1  0  0  0  0
  2  3  1  0  0  0  0
  2  4  1  0  0  0  0
  2 24  1  0  0  0  0
  3 25  1  0  0  0  0
  3 26  1  0  0  0  0
  3 27  1  0  0  0  0
  4  5  1  0  0  0  0
  4 28  1  0  0  0  0
  4 29  1  0  0  0  0
  5  6  1  0  0  0  0
  5  7  1  0  0  0  0
  5 30  1  0  0  0  0
  6 31  1  0  0  0  0
  6 32  1  0  0  0  0
  6 33  1  0  0  0  0
  7  8  1  0  0  0  0
  7 34  1  0  0  0  0
  8  9  1  0  0  0  0
  8 35  1  0  0  0  0
  8 36  1  0  0  0  0
  9 14  1  0  0  0  0
  9 10  2  0  0  0  0
 10 11  1  0  0  0  0
 10 37  1  0  0  0  0
 11 12  2  0  0  0  0
 11 38  1  0  0  0  0
 12 13  1  0  0  0  0
 12 39  1  0  0  0  0
 13 14  2  0  0  0  0
 14 15  1  0  0  0  0
 15 20  1  0  0  0  0
 15 16  1  0  0  0  0
 16 17  1  0  0  0  0
 16 40  1  0  0  0  0
 16 41  1  0  0  0  0
 17 18  1  0  0  0  0
 17 42  1  0  0  0  0
 17 43  1  0  0  0  0
 18 19  1  0  0  0  0
 19 20  1  0  0  0  0
 19 44  1  0  0  0  0
 19 45  1  0  0  0  0
 20 46  1  0  0  0  0
 20 47  1  0  0  0  0
M  END
> <s_m_source_file>
AV-unprocessed.smi

> <i_m_source_file_index>
3346

> <i_lp_mmshare_version>
43012

> <i_f3d_flags>
0

> <s_epik_input>
W0NIM11bQ0hdKFtDSDNdKVtDSDJdW0NASF0oW0NIM10pW05IXVtDSDJdYzFbY0hdW2NIXVtjSF1uYzFOMltDSDJdW0NIMl1PW0NIMl1bQ0gyXTI=

> <s_epik_cmdline>
J2VwaWtfcHl0aG9uJywgJy1waCcsICc3LjAnLCAnLXRuJywgJzgnLCAnLW1hJywgJzIwMCcsICctbWV0YWxfYmluZGluZycsICctaW1hZScsICc8aW5maWxlLm1hZT4nLCAnLW9tYWUnLCAnPG91dGZpbGUubWFlPic=

> <r_lp_tautomer_probability>
1

> <r_epik_Ionization_Penalty>
2.09752

> <r_epik_Ionization_Penalty_Charging>
0

> <r_epik_Ionization_Penalty_Neutral>
2.09752

> <r_epik_State_Penalty>
2.22589

> <r_epik_Charging_Adjusted_Penalty>
2.22589

> <i_epik_Tot_Q>
0

> <i_epik_Tot_abs_Q>
0

> <r_epik_Metal_State_Penalty>
2.21996

> <b_epik_Metal_Only>
0

> <s_lp_Force_Field>
OPLS_2005

> <r_lp_Energy>
25.807

> <b_lp_Chiralities_Consistent>
1

> <s_lp_Variant>
AV-unprocessed.smi:3346-3

> <Gold.Version>
5.8.1

> <Gold.Id.Protein>
6NUR|6NUR_protein|mol2

> <Gold.PLP.Fitness>
44.6250

> <Gold.PLP.PLP>
-37.2969

> <Gold.PLP.part.hbond>
-3.0000

> <Gold.PLP.part.metal>
0.0000

> <Gold.PLP.part.buried>
-4.9903

> <Gold.PLP.part.nonpolar>
-28.3195

> <Gold.PLP.part.repulsive>
0.1088

> <Gold.PLP.ligand.clash>
0.0000

> <Gold.PLP.ligand.torsion>
0.9082

> <Gold.PLP.Chemscore.Hbond>
2.9760

> <Gold.PLP.Chemscore.CHOScore>
0.0000

> <Gold.PLP.Chemscore.Metal>
0.0000

> <Gold.Chemscore.Hbonds>
donor molecule, donor type, donor heavy atom, donor atom, acceptor molecule, acceptor atom, score
      L1  H     7    34       P1  8028  1.00
      P1  H  7997  8009       L1    13  0.96
      P1  H 10752 10763       L1    18  1.00

> <Gold.PLP.Chemscore.Internal.Correction>
0.2165

> <Gold.Rescore>
     Score         DG    S(hbond)    S(metal)    S(lipo)     H(rot)  DE(clash)    DE(int)     intcor
     19.74     -20.75       2.50        0.00      92.97       1.55       0.11       0.90       ----

> <Gold.Chemscore.Fitness>
19.7413

> <Gold.Chemscore.DG>
-20.7496

> <Gold.Chemscore.ZeroCoef>
-5.4800

> <Gold.Chemscore.Hbond>
2.5042

> <Gold.Chemscore.Metal>
0.0000

> <Gold.Chemscore.Lipo>
92.9676

> <Gold.Chemscore.Internal_Hbond>
0.0000

> <Gold.Chemscore.DEClash>
0.1122

> <Gold.Chemscore.DEInternal>
0.8962

> <Gold.Chemscore.Rot>
1.5514

> <Gold.Chemscore.Internal.Correction>
   9.000000E+99

> <Gold.Chemscore.Hbonds>
donor molecule, donor type, donor heavy atom, donor atom, acceptor molecule, acceptor atom, score
      L1  H     7    34       P1  8028  1.00
      P1  H  7997  8009       L1    13  0.34
      P1  H 10752 10763       L1    18  0.91

> <Gold.Chemscore.Hbond.Weighted>
-8.3639

> <Gold.Chemscore.Metal.Weighted>
-0.0000

> <Gold.Chemscore.Lipo.Weighted>
-10.8772

> <Gold.Chemscore.Internal_Hbond.Weighted>
0.0000

> <Gold.Chemscore.DEClash.Weighted>
0.1122

> <Gold.Chemscore.DEInternal.Weighted>
0.8962

> <Gold.Chemscore.Rot.Weighted>
3.9715

> <Gold.Chemscore.Internal.Correction.Weighted>
   9.000000E+99

> <Gold.Protein.RotatedTorsions>
[ 6907 6896 6895 6894 ] final -161.47 input  -60.11 | X-H torsion
[ 7974 7965 7964 7962 ] final    0.72 input  175.53 | X-H torsion
[ 8008 7997 7996 7995 ] final  160.02 input   59.86 | X-H torsion
[ 10167 10162 10161 10158 ] final  117.45 input  -65.29 | X-H torsion
[ 10718 10713 10712 10709 ] final  -16.75 input   66.30 | X-H torsion
[ 10763 10752 10751 10750 ] final   49.26 input  -60.55 | X-H torsion
[ 11005 11000 10999 10996 ] final  151.80 input  -57.11 | X-H torsion

> <Gold.Protein.ActiveResidues>
 VAL166  LYS551  ARG553  GLY616  TRP617  ASP618  TYR619  PRO620  LYS621  CYS622 
 ASP623  PHE694  ASN695  SER759  ASP760  ASP761  ALA762  ILE779  LEU786  VAL792 
 PHE793  MET794  SER795  GLU796  ALA797  LYS798  CYS799  TRP800  GLU811  SER814 

> <Gold.Protein.RotatedAtoms>
  151.3651  133.3875  159.2693 H   0  0  0  0  0  0  0  0  0  0  0  0  # atno 6907 bound_to 6896
  150.9695  134.9071  159.7790 H   0  0  0  0  0  0  0  0  0  0  0  0  # atno 6908 bound_to 6896
  152.5179  134.3613  159.9338 H   0  0  0  0  0  0  0  0  0  0  0  0  # atno 6909 bound_to 6896
  146.2436  140.1095  142.8344 H   0  0  0  0  0  0  0  0  0  0  0  0  # atno 7974 bound_to 7965
  156.2200  140.1815  156.7498 H   0  0  0  0  0  0  0  0  0  0  0  0  # atno 8008 bound_to 7997
  154.5851  140.0660  156.9188 H   0  0  0  0  0  0  0  0  0  0  0  0  # atno 8009 bound_to 7997
  155.2434  140.3323  155.4292 H   0  0  0  0  0  0  0  0  0  0  0  0  # atno 8010 bound_to 7997
  139.6178  144.7095  151.2701 H   0  0  0  0  0  0  0  0  0  0  0  0  # atno 10167 bound_to 10162
  156.5832  130.4779  149.6311 H   0  0  0  0  0  0  0  0  0  0  0  0  # atno 10718 bound_to 10713
  152.9787  135.5917  154.4061 H   0  0  0  0  0  0  0  0  0  0  0  0  # atno 10763 bound_to 10752
  154.3701  135.2767  155.2273 H   0  0  0  0  0  0  0  0  0  0  0  0  # atno 10764 bound_to 10752
  154.4232  135.6054  153.6077 H   0  0  0  0  0  0  0  0  0  0  0  0  # atno 10765 bound_to 10752
  140.1251  134.8838  157.2126 H   0  0  0  0  0  0  0  0  0  0  0  0  # atno 11005 bound_to 11000
  145.0499  140.9010  143.5002 LP  0  0  0  0  0  0  0  0  0  0  0  0  # atno 17320 bound_to 7965
  145.1191  139.2705  143.5598 LP  0  0  0  0  0  0  0  0  0  0  0  0  # atno 17321 bound_to 7965
  140.7362  143.6713  150.8079 LP  0  0  0  0  0  0  0  0  0  0  0  0  # atno 17342 bound_to 10162
  140.0319  143.5435  152.2756 LP  0  0  0  0  0  0  0  0  0  0  0  0  # atno 17343 bound_to 10162
  156.2613  130.6964  151.1733 LP  0  0  0  0  0  0  0  0  0  0  0  0  # atno 17370 bound_to 10713
  157.7321  131.0602  150.5643 LP  0  0  0  0  0  0  0  0  0  0  0  0  # atno 17371 bound_to 10713
  140.2914  134.3235  155.7314 LP  0  0  0  0  0  0  0  0  0  0  0  0  # atno 17394 bound_to 11000
  141.2159  133.7537  156.9509 LP  0  0  0  0  0  0  0  0  0  0  0  0  # atno 17395 bound_to 11000

$$$$
