AV-unprocessed.smi:113|AV-procd|sdf|1095|dock2
  -GOLD-   2262018203D 1   1.00000     0.00000
 Structure written by MMmdl.
 52 55  0  0  0  0  0  0  0  0  1 V2000
  151.7062  145.2433  159.1616 C   0  0  0  0  0  0  0  0  0  0  0  0
  151.8291  143.7441  158.9858 C   0  0  0  0  0  0  0  0  0  0  0  0
  150.9242  143.0400  158.1719 C   0  0  0  0  0  0  0  0  0  0  0  0
  151.0675  141.6400  158.0382 C   0  0  0  0  0  0  0  0  0  0  0  0
  150.1084  140.8250  157.1632 C   0  0  0  0  0  0  0  0  0  0  0  0
  148.7821  141.3847  156.9438 N   0  0  0  0  0  0  0  0  0  0  0  0
  148.3707  141.6073  155.6070 C   0  0  0  0  0  0  0  0  0  0  0  0
  149.1098  141.3533  154.6534 O   0  0  0  0  0  0  0  0  0  0  0  0
  147.0116  142.1319  155.4536 C   0  0  0  0  0  0  0  0  0  0  0  0
  146.4956  142.3846  154.0456 C   0  0  0  0  0  0  0  0  0  0  0  0
  146.2534  142.3672  156.5515 C   0  0  0  0  0  0  0  0  0  0  0  0
  146.6834  142.1509  157.8491 N   0  0  0  0  0  0  0  0  0  0  0  0
  145.7315  142.3899  159.0012 C   0  0  2  0  0  0  0  0  0  0  0  0
  144.3616  142.9355  158.5633 C   0  0  0  0  0  0  0  0  0  0  0  0
  144.2745  144.2723  159.2850 C   0  0  1  0  0  0  0  0  0  0  0  0
  142.9618  144.5028  159.7542 O   0  0  0  0  0  0  0  0  0  0  0  0
  145.2810  144.1202  160.4312 C   0  0  2  0  0  0  0  0  0  0  0  0
  145.8882  145.4397  160.9320 C   0  0  0  0  0  0  0  0  0  0  0  0
  146.5588  145.2425  162.1589 O   0  0  0  0  0  0  0  0  0  0  0  0
  146.3082  143.3193  159.8643 O   0  0  0  0  0  0  0  0  0  0  0  0
  147.9697  141.6142  158.0769 C   0  0  0  0  0  0  0  0  0  0  0  0
  148.3563  141.3418  159.2153 O   0  0  0  0  0  0  0  0  0  0  0  0
  152.1305  141.0101  158.7408 C   0  0  0  0  0  0  0  0  0  0  0  0
  152.3451  139.6129  158.6601 C   0  0  0  0  0  0  0  0  0  0  0  0
  153.4034  139.0092  159.3626 C   0  0  0  0  0  0  0  0  0  0  0  0
  154.2578  139.7951  160.1534 C   0  0  0  0  0  0  0  0  0  0  0  0
  154.0510  141.1834  160.2399 C   0  0  0  0  0  0  0  0  0  0  0  0
  152.9961  141.8111  159.5431 C   0  0  0  0  0  0  0  0  0  0  0  0
  152.8357  143.1481  159.6542 N   0  0  0  0  0  0  0  0  0  0  0  0
  151.1637  145.6908  158.3283 H   0  0  0  0  0  0  0  0  0  0  0  0
  152.6900  145.7111  159.2134 H   0  0  0  0  0  0  0  0  0  0  0  0
  151.1682  145.4701  160.0824 H   0  0  0  0  0  0  0  0  0  0  0  0
  150.1378  143.5797  157.6659 H   0  0  0  0  0  0  0  0  0  0  0  0
  150.5519  140.6491  156.1819 H   0  0  0  0  0  0  0  0  0  0  0  0
  149.9749  139.8259  157.5809 H   0  0  0  0  0  0  0  0  0  0  0  0
  145.4798  142.7804  154.0498 H   0  0  0  0  0  0  0  0  0  0  0  0
  146.4901  141.4580  153.4704 H   0  0  0  0  0  0  0  0  0  0  0  0
  147.1315  143.1047  153.5294 H   0  0  0  0  0  0  0  0  0  0  0  0
  145.2529  142.7468  156.4006 H   0  0  0  0  0  0  0  0  0  0  0  0
  145.6346  141.4361  159.5211 H   0  0  0  0  0  0  0  0  0  0  0  0
  144.2744  143.0283  157.4802 H   0  0  0  0  0  0  0  0  0  0  0  0
  143.5964  142.2388  158.9088 H   0  0  0  0  0  0  0  0  0  0  0  0
  144.5719  145.0797  158.6153 H   0  0  0  0  0  0  0  0  0  0  0  0
  142.9945  144.6013  160.6939 H   0  0  0  0  0  0  0  0  0  0  0  0
  144.8410  143.5573  161.2570 H   0  0  0  0  0  0  0  0  0  0  0  0
  146.6083  145.8186  160.2062 H   0  0  0  0  0  0  0  0  0  0  0  0
  145.1191  146.2037  161.0516 H   0  0  0  0  0  0  0  0  0  0  0  0
  146.4260  146.0060  162.6998 H   0  0  0  0  0  0  0  0  0  0  0  0
  151.7071  138.9803  158.0619 H   0  0  0  0  0  0  0  0  0  0  0  0
  153.5593  137.9426  159.2942 H   0  0  0  0  0  0  0  0  0  0  0  0
  155.0717  139.3345  160.6939 H   0  0  0  0  0  0  0  0  0  0  0  0
  154.7147  141.7772  160.8514 H   0  0  0  0  0  0  0  0  0  0  0  0
  1  2  1  0  0  0  0
  1 30  1  0  0  0  0
  1 31  1  0  0  0  0
  1 32  1  0  0  0  0
  2 29  1  0  0  0  0
  2  3  2  0  0  0  0
  3  4  1  0  0  0  0
  3 33  1  0  0  0  0
  4  5  1  0  0  0  0
  4 23  2  0  0  0  0
  5  6  1  0  0  0  0
  5 34  1  0  0  0  0
  5 35  1  0  0  0  0
  6 21  1  0  0  0  0
  6  7  1  0  0  0  0
  7  8  2  0  0  0  0
  7  9  1  0  0  0  0
  9 10  1  0  0  0  0
  9 11  2  0  0  0  0
 10 36  1  0  0  0  0
 10 37  1  0  0  0  0
 10 38  1  0  0  0  0
 11 12  1  0  0  0  0
 11 39  1  0  0  0  0
 12 13  1  0  0  0  0
 12 21  1  0  0  0  0
 13 20  1  0  0  0  0
 13 14  1  0  0  0  0
 13 40  1  0  0  0  0
 14 15  1  0  0  0  0
 14 41  1  0  0  0  0
 14 42  1  0  0  0  0
 15 16  1  0  0  0  0
 15 17  1  0  0  0  0
 15 43  1  0  0  0  0
 16 44  1  0  0  0  0
 17 18  1  0  0  0  0
 17 20  1  0  0  0  0
 17 45  1  0  0  0  0
 18 19  1  0  0  0  0
 18 46  1  0  0  0  0
 18 47  1  0  0  0  0
 19 48  1  0  0  0  0
 21 22  2  0  0  0  0
 23 28  1  0  0  0  0
 23 24  1  0  0  0  0
 24 25  2  0  0  0  0
 24 49  1  0  0  0  0
 25 26  1  0  0  0  0
 25 50  1  0  0  0  0
 26 27  2  0  0  0  0
 26 51  1  0  0  0  0
 27 28  1  0  0  0  0
 27 52  1  0  0  0  0
 28 29  2  0  0  0  0
M  END
> <s_m_source_file>
AV-unprocessed.smi

> <i_m_source_file_index>
113

> <i_lp_mmshare_version>
43012

> <i_f3d_flags>
0

> <s_epik_input>
W2NIXTFbY0hdW2NIXVtjSF1jKGMxMiluYyhbQ0gzXSlbY0hdYzJbQ0gyXW4zYyg9TyljKFtDSDNdKVtjSF1uKGMzPU8pW0NAQEhdNFtDSDJdW0NAQEhdKFtPSF0pW0NASF0oTzQpW0NIMl1bT0hd

> <s_epik_cmdline>
J2VwaWtfcHl0aG9uJywgJy1waCcsICc3LjAnLCAnLXRuJywgJzgnLCAnLW1hJywgJzIwMCcsICctbWV0YWxfYmluZGluZycsICctaW1hZScsICc8aW5maWxlLm1hZT4nLCAnLW9tYWUnLCAnPG91dGZpbGUubWFlPic=

> <r_lp_tautomer_probability>
1

> <r_epik_Ionization_Penalty>
0.214728

> <r_epik_Ionization_Penalty_Charging>
3.04883e-08

> <r_epik_Ionization_Penalty_Neutral>
0.214728

> <r_epik_State_Penalty>
0.204913

> <r_epik_Charging_Adjusted_Penalty>
0.204913

> <i_epik_Tot_Q>
0

> <i_epik_Tot_abs_Q>
0

> <r_epik_Metal_State_Penalty>
0.000244761

> <b_epik_Metal_Only>
0

> <s_epik_Chemistry_Notes>
This compound contains an acetal/aminal-like group ( X-CH(R)-Y where X, Y are N, S, or O) that may be acid/base labile, releasing an aldehyde.

> <s_lp_Force_Field>
OPLS_2005

> <r_lp_Energy>
32.9041

> <b_lp_Chiralities_Consistent>
1

> <s_lp_Variant>
AV-unprocessed.smi:113-5

> <Gold.Version>
5.8.1

> <Gold.Id.Protein>
6NUR|6NUR_protein|mol2

> <Gold.PLP.Fitness>
47.5538

> <Gold.PLP.PLP>
-48.4598

> <Gold.PLP.part.hbond>
-4.6075

> <Gold.PLP.part.metal>
0.0000

> <Gold.PLP.part.buried>
-5.5568

> <Gold.PLP.part.nonpolar>
-38.2450

> <Gold.PLP.part.repulsive>
0.3127

> <Gold.PLP.ligand.clash>
0.0000

> <Gold.PLP.ligand.torsion>
0.4826

> <Gold.PLP.Chemscore.Hbond>
0.0062

> <Gold.PLP.Chemscore.CHOScore>
0.0000

> <Gold.PLP.Chemscore.Metal>
0.0000

> <Gold.PLP.Chemscore.Internal.Correction>
0.0404

> <Gold.Rescore>
     Score         DG    S(hbond)    S(metal)    S(lipo)     H(rot)  DE(clash)    DE(int)     intcor
     10.79     -14.89       0.70        0.00     124.81       2.95       1.46       2.65       ----

> <Gold.Chemscore.Fitness>
10.7850

> <Gold.Chemscore.DG>
-14.8925

> <Gold.Chemscore.ZeroCoef>
-5.4800

> <Gold.Chemscore.Hbond>
0.7047

> <Gold.Chemscore.Metal>
0.0000

> <Gold.Chemscore.Lipo>
124.8107

> <Gold.Chemscore.Internal_Hbond>
0.0000

> <Gold.Chemscore.DEClash>
1.4605

> <Gold.Chemscore.DEInternal>
2.6469

> <Gold.Chemscore.Rot>
2.9469

> <Gold.Chemscore.Internal.Correction>
   9.000000E+99

> <Gold.Chemscore.Hbonds>
donor molecule, donor type, donor heavy atom, donor atom, acceptor molecule, acceptor atom, score
      P1  H  6934  6946       L1    22  0.01

> <Gold.Chemscore.Hbond.Weighted>
-2.3535

> <Gold.Chemscore.Metal.Weighted>
-0.0000

> <Gold.Chemscore.Lipo.Weighted>
-14.6029

> <Gold.Chemscore.Internal_Hbond.Weighted>
0.0000

> <Gold.Chemscore.DEClash.Weighted>
1.4605

> <Gold.Chemscore.DEInternal.Weighted>
2.6469

> <Gold.Chemscore.Rot.Weighted>
7.5439

> <Gold.Chemscore.Internal.Correction.Weighted>
   9.000000E+99

> <Gold.Protein.RotatedTorsions>
[ 6907 6896 6895 6894 ] final   99.47 input  -60.11 | X-H torsion
[ 7974 7965 7964 7962 ] final  152.26 input  175.53 | X-H torsion
[ 8008 7997 7996 7995 ] final   19.60 input   59.86 | X-H torsion
[ 10167 10162 10161 10158 ] final  109.13 input  -65.29 | X-H torsion
[ 10718 10713 10712 10709 ] final   -0.54 input   66.30 | X-H torsion
[ 10763 10752 10751 10750 ] final  -49.07 input  -60.55 | X-H torsion
[ 11005 11000 10999 10996 ] final -156.28 input  -57.11 | X-H torsion

> <Gold.Protein.ActiveResidues>
 VAL166  LYS551  ARG553  GLY616  TRP617  ASP618  TYR619  PRO620  LYS621  CYS622 
 ASP623  PHE694  ASN695  SER759  ASP760  ASP761  ALA762  ILE779  LEU786  VAL792 
 PHE793  MET794  SER795  GLU796  ALA797  LYS798  CYS799  TRP800  GLU811  SER814 

> <Gold.Protein.RotatedAtoms>
  152.5391  134.0423  159.8072 H   0  0  0  0  0  0  0  0  0  0  0  0  # atno 6907 bound_to 6896
  151.0577  133.5563  159.2644 H   0  0  0  0  0  0  0  0  0  0  0  0  # atno 6908 bound_to 6896
  151.2473  135.0618  159.9102 H   0  0  0  0  0  0  0  0  0  0  0  0  # atno 6909 bound_to 6896
  144.8234  139.6646  143.6090 H   0  0  0  0  0  0  0  0  0  0  0  0  # atno 7974 bound_to 7965
  154.9231  140.3030  155.5206 H   0  0  0  0  0  0  0  0  0  0  0  0  # atno 8008 bound_to 7997
  156.3008  140.2368  156.4220 H   0  0  0  0  0  0  0  0  0  0  0  0  # atno 8009 bound_to 7997
  154.8311  140.0418  157.1466 H   0  0  0  0  0  0  0  0  0  0  0  0  # atno 8010 bound_to 7997
  139.6791  144.7120  151.1548 H   0  0  0  0  0  0  0  0  0  0  0  0  # atno 10167 bound_to 10162
  156.8189  130.5450  149.5699 H   0  0  0  0  0  0  0  0  0  0  0  0  # atno 10718 bound_to 10713
  154.0881  135.6581  153.4848 H   0  0  0  0  0  0  0  0  0  0  0  0  # atno 10763 bound_to 10752
  153.0331  135.5196  154.7408 H   0  0  0  0  0  0  0  0  0  0  0  0  # atno 10764 bound_to 10752
  154.6523  135.3003  154.9940 H   0  0  0  0  0  0  0  0  0  0  0  0  # atno 10765 bound_to 10752
  140.6773  134.4183  157.5228 H   0  0  0  0  0  0  0  0  0  0  0  0  # atno 11005 bound_to 11000
  146.2540  139.6261  142.9408 LP  0  0  0  0  0  0  0  0  0  0  0  0  # atno 17320 bound_to 7965
  145.5053  141.0437  143.2518 LP  0  0  0  0  0  0  0  0  0  0  0  0  # atno 17321 bound_to 7965
  140.7646  143.5727  150.8979 LP  0  0  0  0  0  0  0  0  0  0  0  0  # atno 17342 bound_to 10162
  139.9398  143.6396  152.3056 LP  0  0  0  0  0  0  0  0  0  0  0  0  # atno 17343 bound_to 10162
  156.1000  130.5962  150.9878 LP  0  0  0  0  0  0  0  0  0  0  0  0  # atno 17370 bound_to 10713
  157.6467  131.0903  150.8139 LP  0  0  0  0  0  0  0  0  0  0  0  0  # atno 17371 bound_to 10713
  139.8963  134.8663  156.2095 LP  0  0  0  0  0  0  0  0  0  0  0  0  # atno 17394 bound_to 11000
  141.0345  133.6970  156.1489 LP  0  0  0  0  0  0  0  0  0  0  0  0  # atno 17395 bound_to 11000

$$$$
