AV-unprocessed.smi:1222|AV-procd|sdf|5120|dock1
  -GOLD-   22720 4173D 1   1.00000     0.00000
 Structure written by MMmdl.
 37 39  0  0  0  0  0  0  0  0  2 V2000
  146.9174  137.3635  153.0535 O   0  0  0  0  0  0  0  0  0  0  0  0
  146.0981  138.2579  152.8418 C   0  0  0  0  0  0  0  0  0  0  0  0
  146.2701  139.5578  153.1387 N   0  0  0  0  0  0  0  0  0  0  0  0
  147.4012  140.1807  153.7289 C   0  0  0  0  0  0  0  0  0  0  0  0
  148.5213  139.5367  154.0765 N   0  0  0  0  0  0  0  0  0  0  0  0
  149.4708  140.3988  154.6308 C   0  0  0  0  0  0  0  0  0  0  0  0
  149.0541  141.7051  154.6976 C   0  0  0  0  0  0  0  0  0  0  0  0
  147.4426  141.9058  154.0633 S   0  0  0  0  0  0  0  0  0  0  0  0
  144.9021  138.0421  152.2744 N   0  0  0  0  0  0  0  0  0  0  0  0
  144.4021  136.7402  151.8420 C   0  0  2  0  0  0  0  0  0  0  0  0
  143.9271  135.9035  153.0455 C   0  0  0  0  0  0  0  0  0  0  0  0
  143.4976  134.4938  152.6066 C   0  0  0  0  0  0  0  0  0  0  0  0
  144.5951  133.8026  151.8858 N   0  3  1  0  0  0  0  0  0  0  0  0
  144.2492  132.4037  151.5525 C   0  0  0  0  0  0  0  0  0  0  0  0
  145.1021  131.8118  150.4544 C   0  0  0  0  0  0  0  0  0  0  0  0
  143.6786  132.2330  150.1639 C   0  0  0  0  0  0  0  0  0  0  0  0
  145.0380  134.5688  150.6945 C   0  0  0  0  0  0  0  0  0  0  0  0
  145.5060  135.9799  151.0884 C   0  0  0  0  0  0  0  0  0  0  0  0
  145.5050  140.1762  152.9137 H   0  0  0  0  0  0  0  0  0  0  0  0
  150.4203  139.9969  154.9520 H   0  0  0  0  0  0  0  0  0  0  0  0
  149.5956  142.5579  155.0795 H   0  0  0  0  0  0  0  0  0  0  0  0
  144.2924  138.8348  152.1364 H   0  0  0  0  0  0  0  0  0  0  0  0
  143.5636  136.8912  151.1589 H   0  0  0  0  0  0  0  0  0  0  0  0
  144.7275  135.8257  153.7827 H   0  0  0  0  0  0  0  0  0  0  0  0
  143.0939  136.3984  153.5459 H   0  0  0  0  0  0  0  0  0  0  0  0
  143.2119  133.9120  153.4836 H   0  0  0  0  0  0  0  0  0  0  0  0
  142.6171  134.5514  151.9645 H   0  0  0  0  0  0  0  0  0  0  0  0
  143.8970  131.7828  152.3746 H   0  0  0  0  0  0  0  0  0  0  0  0
  145.9010  132.4214  150.0357 H   0  0  0  0  0  0  0  0  0  0  0  0
  145.3063  130.7439  150.4970 H   0  0  0  0  0  0  0  0  0  0  0  0
  142.9460  131.4422  150.0160 H   0  0  0  0  0  0  0  0  0  0  0  0
  143.5337  133.1214  149.5517 H   0  0  0  0  0  0  0  0  0  0  0  0
  145.8541  134.0396  150.2011 H   0  0  0  0  0  0  0  0  0  0  0  0
  144.2201  134.6306  149.9746 H   0  0  0  0  0  0  0  0  0  0  0  0
  145.7996  136.5332  150.1955 H   0  0  0  0  0  0  0  0  0  0  0  0
  146.3981  135.9031  151.7122 H   0  0  0  0  0  0  0  0  0  0  0  0
  145.3818  133.7641  152.5181 H   0  0  0  0  0  0  0  0  0  0  0  0
  1  2  2  0  0  0  0
  2  3  1  0  0  0  0
  2  9  1  0  0  0  0
  3  4  1  0  0  0  0
  3 19  1  0  0  0  0
  4  8  1  0  0  0  0
  4  5  2  0  0  0  0
  5  6  1  0  0  0  0
  6  7  2  0  0  0  0
  6 20  1  0  0  0  0
  7  8  1  0  0  0  0
  7 21  1  0  0  0  0
  9 10  1  0  0  0  0
  9 22  1  0  0  0  0
 10 18  1  0  0  0  0
 10 11  1  0  0  0  0
 10 23  1  0  0  0  0
 11 12  1  0  0  0  0
 11 24  1  0  0  0  0
 11 25  1  0  0  0  0
 12 13  1  0  0  0  0
 12 26  1  0  0  0  0
 12 27  1  0  0  0  0
 13 14  1  0  0  0  0
 13 17  1  0  0  0  0
 13 37  1  0  0  0  0
 14 16  1  0  0  0  0
 14 15  1  0  0  0  0
 14 28  1  0  0  0  0
 15 16  1  0  0  0  0
 15 29  1  0  0  0  0
 15 30  1  0  0  0  0
 16 31  1  0  0  0  0
 16 32  1  0  0  0  0
 17 18  1  0  0  0  0
 17 33  1  0  0  0  0
 17 34  1  0  0  0  0
 18 35  1  0  0  0  0
 18 36  1  0  0  0  0
M  CHG  1  13   1
M  END
> <s_m_source_file>
AV-unprocessed.smi

> <i_m_source_file_index>
1222

> <i_lp_mmshare_version>
43012

> <i_f3d_flags>
0

> <s_epik_input>
czFbY0hdW2NIXW5jMVtOSF1DKD1PKVtOSF1bQ0hdMltDSDJdW0NIMl1OKFtDSDJdW0NIMl0yKVtDSF0zW0NIMl1bQ0gyXTM=

> <s_epik_cmdline>
J2VwaWtfcHl0aG9uJywgJy1waCcsICc3LjAnLCAnLXRuJywgJzgnLCAnLW1hJywgJzIwMCcsICctbWV0YWxfYmluZGluZycsICctaW1hZScsICc8aW5maWxlLm1hZT4nLCAnLW9tYWUnLCAnPG91dGZpbGUubWFlPic=

> <r_lp_tautomer_probability>
0.999

> <r_epik_Ionization_Penalty>
0.124652

> <r_epik_Ionization_Penalty_Charging>
0.124514

> <r_epik_Ionization_Penalty_Neutral>
0.000138693

> <r_epik_State_Penalty>
0.113992

> <r_epik_Charging_Adjusted_Penalty>
0.238505

> <i_epik_Tot_Q>
1

> <i_epik_Tot_abs_Q>
1

> <r_epik_Metal_State_Penalty>
0.160715

> <b_epik_Metal_Only>
0

> <s_lp_Force_Field>
OPLS_2005

> <r_lp_Energy>
23.5858

> <b_lp_Chiralities_Consistent>
1

> <s_lp_Variant>
AV-unprocessed.smi:1222-1

> <Gold.Version>
5.8.1

> <Gold.Id.Protein>
6NUR|6NUR_protein|mol2

> <Gold.PLP.Fitness>
40.7135

> <Gold.PLP.PLP>
-32.1319

> <Gold.PLP.part.hbond>
-3.0000

> <Gold.PLP.part.metal>
0.0000

> <Gold.PLP.part.buried>
-2.6299

> <Gold.PLP.part.nonpolar>
-30.4947

> <Gold.PLP.part.repulsive>
3.4734

> <Gold.PLP.ligand.clash>
0.0000

> <Gold.PLP.ligand.torsion>
0.8425

> <Gold.PLP.Chemscore.Hbond>
2.0000

> <Gold.PLP.Chemscore.CHOScore>
1.0000

> <Gold.PLP.Chemscore.Metal>
0.0000

> <Gold.Chemscore.Hbonds>
donor molecule, donor type, donor heavy atom, donor atom, acceptor molecule, acceptor atom, score
      L1  H     3    19       P1 10175  1.00
      L1  H     9    22       P1 10175  1.00
      L1  C     7    21       P1  8028  1.00

> <Gold.PLP.Chemscore.Internal.Correction>
1.2666

> <Gold.Rescore>
     Score         DG    S(hbond)    S(metal)    S(lipo)     H(rot)  DE(clash)    DE(int)     intcor
     12.89     -16.90       1.94        0.00      69.71       1.26       0.53       3.49       ----

> <Gold.Chemscore.Fitness>
12.8860

> <Gold.Chemscore.DG>
-16.9036

> <Gold.Chemscore.ZeroCoef>
-5.4800

> <Gold.Chemscore.Hbond>
1.9446

> <Gold.Chemscore.Metal>
0.0000

> <Gold.Chemscore.Lipo>
69.7126

> <Gold.Chemscore.Internal_Hbond>
0.0000

> <Gold.Chemscore.DEClash>
0.5320

> <Gold.Chemscore.DEInternal>
3.4856

> <Gold.Chemscore.Rot>
1.2609

> <Gold.Chemscore.Internal.Correction>
   9.000000E+99

> <Gold.Chemscore.Hbonds>
donor molecule, donor type, donor heavy atom, donor atom, acceptor molecule, acceptor atom, score
      L1  H     3    19       P1 10175  0.94
      L1  H     9    22       P1 10175  0.99

> <Gold.Chemscore.Hbond.Weighted>
-6.4951

> <Gold.Chemscore.Metal.Weighted>
-0.0000

> <Gold.Chemscore.Lipo.Weighted>
-8.1564

> <Gold.Chemscore.Internal_Hbond.Weighted>
0.0000

> <Gold.Chemscore.DEClash.Weighted>
0.5320

> <Gold.Chemscore.DEInternal.Weighted>
3.4856

> <Gold.Chemscore.Rot.Weighted>
3.2279

> <Gold.Chemscore.Internal.Correction.Weighted>
   9.000000E+99

> <Gold.Protein.RotatedTorsions>
[ 6907 6896 6895 6894 ] final  146.96 input  -60.11 | X-H torsion
[ 7974 7965 7964 7962 ] final   -2.15 input  175.53 | X-H torsion
[ 8008 7997 7996 7995 ] final  -12.16 input   59.86 | X-H torsion
[ 10167 10162 10161 10158 ] final -161.49 input  -65.29 | X-H torsion
[ 10718 10713 10712 10709 ] final   10.80 input   66.30 | X-H torsion
[ 10763 10752 10751 10750 ] final -175.28 input  -60.55 | X-H torsion
[ 11005 11000 10999 10996 ] final -152.92 input  -57.11 | X-H torsion

> <Gold.Protein.ActiveResidues>
 VAL166  LYS551  ARG553  GLY616  TRP617  ASP618  TYR619  PRO620  LYS621  CYS622 
 ASP623  PHE694  ASN695  SER759  ASP760  ASP761  ALA762  ILE779  LEU786  VAL792 
 PHE793  MET794  SER795  GLU796  ALA797  LYS798  CYS799  TRP800  GLU811  SER814 

> <Gold.Protein.RotatedAtoms>
  152.1611  133.4582  159.4861 H   0  0  0  0  0  0  0  0  0  0  0  0  # atno 6907 bound_to 6896
  150.6907  134.2070  159.4353 H   0  0  0  0  0  0  0  0  0  0  0  0  # atno 6908 bound_to 6896
  151.9972  134.9947  160.0614 H   0  0  0  0  0  0  0  0  0  0  0  0  # atno 6909 bound_to 6896
  146.2408  140.1528  142.8333 H   0  0  0  0  0  0  0  0  0  0  0  0  # atno 7974 bound_to 7965
  154.5402  140.2283  155.8655 H   0  0  0  0  0  0  0  0  0  0  0  0  # atno 8008 bound_to 7997
  156.1850  140.3091  155.9184 H   0  0  0  0  0  0  0  0  0  0  0  0  # atno 8009 bound_to 7997
  155.3274  140.0443  157.3032 H   0  0  0  0  0  0  0  0  0  0  0  0  # atno 8010 bound_to 7997
  139.6461  144.0170  152.2128 H   0  0  0  0  0  0  0  0  0  0  0  0  # atno 10167 bound_to 10162
  156.9863  130.6025  149.5681 H   0  0  0  0  0  0  0  0  0  0  0  0  # atno 10718 bound_to 10713
  154.5863  135.2841  155.0682 H   0  0  0  0  0  0  0  0  0  0  0  0  # atno 10763 bound_to 10752
  154.1999  135.6426  153.5088 H   0  0  0  0  0  0  0  0  0  0  0  0  # atno 10764 bound_to 10752
  153.0105  135.5466  154.6533 H   0  0  0  0  0  0  0  0  0  0  0  0  # atno 10765 bound_to 10752
  140.7137  134.3804  157.5194 H   0  0  0  0  0  0  0  0  0  0  0  0  # atno 11005 bound_to 11000
  145.0153  140.8749  143.5199 LP  0  0  0  0  0  0  0  0  0  0  0  0  # atno 17320 bound_to 7965
  145.1568  139.2482  143.5412 LP  0  0  0  0  0  0  0  0  0  0  0  0  # atno 17321 bound_to 7965
  139.9872  144.6387  150.7847 LP  0  0  0  0  0  0  0  0  0  0  0  0  # atno 17342 bound_to 10162
  140.7515  143.2974  151.3169 LP  0  0  0  0  0  0  0  0  0  0  0  0  # atno 17343 bound_to 10162
  156.0225  130.5319  150.8314 LP  0  0  0  0  0  0  0  0  0  0  0  0  # atno 17370 bound_to 10713
  157.5491  131.0943  150.9721 LP  0  0  0  0  0  0  0  0  0  0  0  0  # atno 17371 bound_to 10713
  139.8865  134.8908  156.2581 LP  0  0  0  0  0  0  0  0  0  0  0  0  # atno 17394 bound_to 11000
  141.0062  133.7122  156.1039 LP  0  0  0  0  0  0  0  0  0  0  0  0  # atno 17395 bound_to 11000

$$$$
