AV-unprocessed.smi:654|AV-procd|sdf|3213|dock2
  -GOLD-   22720 0153D 1   1.00000     0.00000
 Structure written by MMmdl.
 48 50  0  0  0  0  0  0  0  0  2 V2000
  150.5923  136.5522  158.5029 O   0  0  0  0  0  0  0  0  0  0  0  0
  149.5757  136.7367  157.8328 C   0  0  0  0  0  0  0  0  0  0  0  0
  149.4810  137.7425  156.9467 N   0  0  0  0  0  0  0  0  0  0  0  0
  150.5304  138.7140  156.6520 C   0  0  0  0  0  0  0  0  0  0  0  0
  150.5592  139.1406  155.1705 C   0  0  0  0  0  0  0  0  0  0  0  0
  149.4656  140.1279  154.8003 C   0  0  0  0  0  0  0  0  0  0  0  0
  148.3756  139.7259  153.9974 C   0  0  0  0  0  0  0  0  0  0  0  0
  147.3796  140.6669  153.6620 C   0  0  0  0  0  0  0  0  0  0  0  0
  147.4959  141.9888  154.1385 C   0  0  0  0  0  0  0  0  0  0  0  0
  148.5524  142.3366  154.9054 N   0  3  0  0  0  0  0  0  0  0  0  0
  149.5263  141.4656  155.2487 C   0  0  0  0  0  0  0  0  0  0  0  0
  148.4684  135.9566  157.9294 N   0  0  0  0  0  0  0  0  0  0  0  0
  147.1964  136.1634  157.2195 C   0  0  0  0  0  0  0  0  0  0  0  0
  146.1684  136.7423  158.1996 C   0  0  0  0  0  0  0  0  0  0  0  0
  145.8323  135.5703  159.5495 S   0  0  0  0  0  0  0  0  0  0  0  0
  147.5284  135.1496  160.1058 C   0  0  0  0  0  0  0  0  0  0  0  0
  148.1412  136.3187  160.9239 C   0  0  0  0  0  0  0  0  0  0  0  0
  147.4433  136.5515  162.2762 C   0  0  0  0  0  0  0  0  0  0  0  0
  147.4244  135.2726  163.1231 C   0  0  0  0  0  0  0  0  0  0  0  0
  146.7726  134.1177  162.3521 C   0  0  0  0  0  0  0  0  0  0  0  0
  147.4714  133.8855  161.0001 C   0  0  0  0  0  0  0  0  0  0  0  0
  148.3921  134.8187  158.8576 C   0  0  0  0  0  0  0  0  0  0  0  0
  148.6133  137.8422  156.4404 H   0  0  0  0  0  0  0  0  0  0  0  0
  150.3438  139.5878  157.2766 H   0  0  0  0  0  0  0  0  0  0  0  0
  151.5027  138.3223  156.9550 H   0  0  0  0  0  0  0  0  0  0  0  0
  151.5284  139.5815  154.9347 H   0  0  0  0  0  0  0  0  0  0  0  0
  150.4697  138.2602  154.5329 H   0  0  0  0  0  0  0  0  0  0  0  0
  148.3043  138.7091  153.6393 H   0  0  0  0  0  0  0  0  0  0  0  0
  146.5388  140.3784  153.0479 H   0  0  0  0  0  0  0  0  0  0  0  0
  146.7815  142.7722  153.9311 H   0  0  0  0  0  0  0  0  0  0  0  0
  150.3217  141.8639  155.8623 H   0  0  0  0  0  0  0  0  0  0  0  0
  147.2856  136.8129  156.3486 H   0  0  0  0  0  0  0  0  0  0  0  0
  146.8358  135.2137  156.8216 H   0  0  0  0  0  0  0  0  0  0  0  0
  146.5226  137.6856  158.6163 H   0  0  0  0  0  0  0  0  0  0  0  0
  145.2316  136.9550  157.6847 H   0  0  0  0  0  0  0  0  0  0  0  0
  149.1955  136.1097  161.1104 H   0  0  0  0  0  0  0  0  0  0  0  0
  148.1191  137.2467  160.3535 H   0  0  0  0  0  0  0  0  0  0  0  0
  147.9537  137.3458  162.8215 H   0  0  0  0  0  0  0  0  0  0  0  0
  146.4230  136.9005  162.1149 H   0  0  0  0  0  0  0  0  0  0  0  0
  148.4441  135.0002  163.3989 H   0  0  0  0  0  0  0  0  0  0  0  0
  146.8873  135.4497  164.0553 H   0  0  0  0  0  0  0  0  0  0  0  0
  146.8151  133.2065  162.9492 H   0  0  0  0  0  0  0  0  0  0  0  0
  145.7144  134.3299  162.1973 H   0  0  0  0  0  0  0  0  0  0  0  0
  146.9725  133.0739  160.4692 H   0  0  0  0  0  0  0  0  0  0  0  0
  148.4859  133.5352  161.1956 H   0  0  0  0  0  0  0  0  0  0  0  0
  147.9722  133.9586  158.3335 H   0  0  0  0  0  0  0  0  0  0  0  0
  149.3850  134.4915  159.1708 H   0  0  0  0  0  0  0  0  0  0  0  0
  148.6178  143.2983  155.2403 H   0  0  0  0  0  0  0  0  0  0  0  0
  1  2  2  0  0  0  0
  2  3  1  0  0  0  0
  2 12  1  0  0  0  0
  3  4  1  0  0  0  0
  3 23  1  0  0  0  0
  4  5  1  0  0  0  0
  4 24  1  0  0  0  0
  4 25  1  0  0  0  0
  5  6  1  0  0  0  0
  5 26  1  0  0  0  0
  5 27  1  0  0  0  0
  6 11  1  0  0  0  0
  6  7  2  0  0  0  0
  7  8  1  0  0  0  0
  7 28  1  0  0  0  0
  8  9  2  0  0  0  0
  8 29  1  0  0  0  0
  9 10  1  0  0  0  0
  9 30  1  0  0  0  0
 10 11  2  0  0  0  0
 10 48  1  0  0  0  0
 11 31  1  0  0  0  0
 12 22  1  0  0  0  0
 12 13  1  0  0  0  0
 13 14  1  0  0  0  0
 13 32  1  0  0  0  0
 13 33  1  0  0  0  0
 14 15  1  0  0  0  0
 14 34  1  0  0  0  0
 14 35  1  0  0  0  0
 15 16  1  0  0  0  0
 16 21  1  0  0  0  0
 16 17  1  0  0  0  0
 16 22  1  0  0  0  0
 17 18  1  0  0  0  0
 17 36  1  0  0  0  0
 17 37  1  0  0  0  0
 18 19  1  0  0  0  0
 18 38  1  0  0  0  0
 18 39  1  0  0  0  0
 19 20  1  0  0  0  0
 19 40  1  0  0  0  0
 19 41  1  0  0  0  0
 20 21  1  0  0  0  0
 20 42  1  0  0  0  0
 20 43  1  0  0  0  0
 21 44  1  0  0  0  0
 21 45  1  0  0  0  0
 22 46  1  0  0  0  0
 22 47  1  0  0  0  0
M  CHG  1  10   1
M  END
> <s_m_source_file>
AV-unprocessed.smi

> <i_m_source_file_index>
654

> <i_lp_mmshare_version>
43012

> <i_f3d_flags>
0

> <s_epik_input>
W2NIXTFuW2NIXVtjSF1bY0hdYzFbQ0gyXVtDSDJdW05IXUMoPU8pTihbQ0gyXTIpW0NIMl1bQ0gyXVNDMjNbQ0gyXVtDSDJdW0NIMl1bQ0gyXVtDSDJdMw==

> <s_epik_cmdline>
J2VwaWtfcHl0aG9uJywgJy1waCcsICc3LjAnLCAnLXRuJywgJzgnLCAnLW1hJywgJzIwMCcsICctbWV0YWxfYmluZGluZycsICctaW1hZScsICc8aW5maWxlLm1hZT4nLCAnLW9tYWUnLCAnPG91dGZpbGUubWFlPic=

> <r_epik_Ionization_Penalty>
2.2093

> <r_epik_Ionization_Penalty_Charging>
2.20925

> <r_epik_Ionization_Penalty_Neutral>
4.66963e-05

> <r_epik_State_Penalty>
2.35335

> <r_epik_Charging_Adjusted_Penalty>
4.5626

> <i_epik_Tot_Q>
1

> <i_epik_Tot_abs_Q>
1

> <r_epik_Metal_State_Penalty>
2.36748

> <b_epik_Metal_Only>
0

> <s_lp_Force_Field>
OPLS_2005

> <r_lp_Energy>
39.5462

> <b_lp_Chiralities_Consistent>
1

> <s_lp_Variant>
AV-unprocessed.smi:654-2

> <Gold.Version>
5.8.1

> <Gold.Id.Protein>
6NUR|6NUR_protein|mol2

> <Gold.PLP.Fitness>
45.4086

> <Gold.PLP.PLP>
-37.5852

> <Gold.PLP.part.hbond>
-2.0000

> <Gold.PLP.part.metal>
0.0000

> <Gold.PLP.part.buried>
-3.4790

> <Gold.PLP.part.nonpolar>
-32.8530

> <Gold.PLP.part.repulsive>
0.2176

> <Gold.PLP.ligand.clash>
0.0000

> <Gold.PLP.ligand.torsion>
0.3677

> <Gold.PLP.Chemscore.Hbond>
2.8480

> <Gold.PLP.Chemscore.CHOScore>
0.0000

> <Gold.PLP.Chemscore.Metal>
0.0000

> <Gold.Chemscore.Hbonds>
donor molecule, donor type, donor heavy atom, donor atom, acceptor molecule, acceptor atom, score
      L1  H    10    48       P1  8028  1.79
      P1  H  6896  6908       L1     1  0.74

> <Gold.PLP.Chemscore.Internal.Correction>
0.0149

> <Gold.Rescore>
     Score         DG    S(hbond)    S(metal)    S(lipo)     H(rot)  DE(clash)    DE(int)     intcor
     19.61     -19.97       1.86        0.00      99.21       1.30       0.07       0.30       ----

> <Gold.Chemscore.Fitness>
19.6062

> <Gold.Chemscore.DG>
-19.9746

> <Gold.Chemscore.ZeroCoef>
-5.4800

> <Gold.Chemscore.Hbond>
1.8573

> <Gold.Chemscore.Metal>
0.0000

> <Gold.Chemscore.Lipo>
99.2074

> <Gold.Chemscore.Internal_Hbond>
0.0000

> <Gold.Chemscore.DEClash>
0.0713

> <Gold.Chemscore.DEInternal>
0.2971

> <Gold.Chemscore.Rot>
1.2953

> <Gold.Chemscore.Internal.Correction>
   9.000000E+99

> <Gold.Chemscore.Hbonds>
donor molecule, donor type, donor heavy atom, donor atom, acceptor molecule, acceptor atom, score
      L1  H    10    48       P1  8028  0.87
      P1  H  6896  6908       L1     1  0.72

> <Gold.Chemscore.Hbond.Weighted>
-6.2032

> <Gold.Chemscore.Metal.Weighted>
-0.0000

> <Gold.Chemscore.Lipo.Weighted>
-11.6073

> <Gold.Chemscore.Internal_Hbond.Weighted>
0.0000

> <Gold.Chemscore.DEClash.Weighted>
0.0713

> <Gold.Chemscore.DEInternal.Weighted>
0.2971

> <Gold.Chemscore.Rot.Weighted>
3.3159

> <Gold.Chemscore.Internal.Correction.Weighted>
   9.000000E+99

> <Gold.Protein.RotatedTorsions>
[ 6907 6896 6895 6894 ] final -171.64 input  -60.11 | X-H torsion
[ 7974 7965 7964 7962 ] final -157.82 input  175.53 | X-H torsion
[ 8008 7997 7996 7995 ] final   73.27 input   59.86 | X-H torsion
[ 10167 10162 10161 10158 ] final   61.76 input  -65.29 | X-H torsion
[ 10718 10713 10712 10709 ] final -140.35 input   66.30 | X-H torsion
[ 10763 10752 10751 10750 ] final   49.60 input  -60.55 | X-H torsion
[ 11005 11000 10999 10996 ] final  -98.99 input  -57.11 | X-H torsion

> <Gold.Protein.ActiveResidues>
 VAL166  LYS551  ARG553  GLY616  TRP617  ASP618  TYR619  PRO620  LYS621  CYS622 
 ASP623  PHE694  ASN695  SER759  ASP760  ASP761  ALA762  ILE779  LEU786  VAL792 
 PHE793  MET794  SER795  GLU796  ALA797  LYS798  CYS799  TRP800  GLU811  SER814 

> <Gold.Protein.RotatedAtoms>
  151.5271  133.3456  159.2911 H   0  0  0  0  0  0  0  0  0  0  0  0  # atno 6907 bound_to 6896
  150.8616  134.7972  159.7098 H   0  0  0  0  0  0  0  0  0  0  0  0  # atno 6908 bound_to 6896
  152.4634  134.5141  159.9814 H   0  0  0  0  0  0  0  0  0  0  0  0  # atno 6909 bound_to 6896
  144.7532  140.3916  143.6032 H   0  0  0  0  0  0  0  0  0  0  0  0  # atno 7974 bound_to 7965
  155.7811  140.3482  155.5298 H   0  0  0  0  0  0  0  0  0  0  0  0  # atno 8008 bound_to 7997
  155.8727  140.0989  157.1560 H   0  0  0  0  0  0  0  0  0  0  0  0  # atno 8009 bound_to 7997
  154.4018  140.1337  156.4086 H   0  0  0  0  0  0  0  0  0  0  0  0  # atno 8010 bound_to 7997
  140.1512  144.4460  150.6758 H   0  0  0  0  0  0  0  0  0  0  0  0  # atno 10167 bound_to 10162
  156.3213  130.7535  151.1634 H   0  0  0  0  0  0  0  0  0  0  0  0  # atno 10718 bound_to 10713
  152.9786  135.5906  154.4116 H   0  0  0  0  0  0  0  0  0  0  0  0  # atno 10763 bound_to 10752
  154.3750  135.2767  155.2246 H   0  0  0  0  0  0  0  0  0  0  0  0  # atno 10764 bound_to 10752
  154.4185  135.6065  153.6050 H   0  0  0  0  0  0  0  0  0  0  0  0  # atno 10765 bound_to 10752
  141.1325  133.8287  157.0912 H   0  0  0  0  0  0  0  0  0  0  0  0  # atno 11005 bound_to 11000
  145.6871  139.1631  143.2668 LP  0  0  0  0  0  0  0  0  0  0  0  0  # atno 17320 bound_to 7965
  146.1509  140.6926  142.9322 LP  0  0  0  0  0  0  0  0  0  0  0  0  # atno 17321 bound_to 7965
  140.6701  143.2282  151.5646 LP  0  0  0  0  0  0  0  0  0  0  0  0  # atno 17342 bound_to 10162
  139.5425  144.2610  152.1378 LP  0  0  0  0  0  0  0  0  0  0  0  0  # atno 17343 bound_to 10162
  157.7412  131.0507  150.5112 LP  0  0  0  0  0  0  0  0  0  0  0  0  # atno 17370 bound_to 10713
  156.5265  130.4174  149.6224 LP  0  0  0  0  0  0  0  0  0  0  0  0  # atno 17371 bound_to 10713
  140.0391  134.9863  157.0927 LP  0  0  0  0  0  0  0  0  0  0  0  0  # atno 17394 bound_to 11000
  140.4164  134.1927  155.7163 LP  0  0  0  0  0  0  0  0  0  0  0  0  # atno 17395 bound_to 11000

$$$$
