AV-unprocessed.smi:1046|AV-procd|sdf|4554|dock10
  -GOLD-   22720 2583D 1   1.00000     0.00000
 Structure written by MMmdl.
 54 56  0  0  0  0  0  0  0  0  3 V2000
  153.6359  142.3308  160.5207 C   0  0  0  0  0  0  0  0  0  0  0  0
  152.6348  142.0292  159.4192 C   0  0  0  0  0  0  0  0  0  0  0  0
  152.7238  140.8001  158.7275 C   0  0  0  0  0  0  0  0  0  0  0  0
  151.8128  140.4821  157.6966 C   0  0  0  0  0  0  0  0  0  0  0  0
  151.7140  139.3549  156.8989 N   0  0  0  0  0  0  0  0  0  0  0  0
  150.6699  139.6577  156.1333 C   0  0  0  0  0  0  0  0  0  0  0  0
  150.0747  140.8473  156.3460 N   0  0  0  0  0  0  0  0  0  0  0  0
  148.9272  141.3941  155.6446 C   0  0  0  0  0  0  0  0  0  0  0  0
  148.5976  140.6106  154.3596 C   0  0  2  0  0  0  0  0  0  0  0  0
  149.5909  140.8715  153.3866 O   0  0  0  0  0  0  0  0  0  0  0  0
  147.2234  141.0089  153.7859 C   0  0  0  0  0  0  0  0  0  0  0  0
  146.5204  139.8748  153.1318 N   0  3  2  0  0  0  0  0  0  0  0  0
  146.5083  138.6564  153.9788 C   0  0  0  0  0  0  0  0  0  0  0  0
  145.6913  137.5278  153.3250 C   0  0  0  0  0  0  0  0  0  0  0  0
  146.1956  137.2211  151.9623 N   0  3  1  0  0  0  0  0  0  0  0  0
  145.4948  136.0844  151.3110 C   0  0  0  0  0  0  0  0  0  0  0  0
  145.5692  134.7899  152.1393 C   0  0  0  0  0  0  0  0  0  0  0  0
  146.9161  134.4758  152.4237 O   0  0  0  0  0  0  0  0  0  0  0  0
  146.2057  138.4390  151.1150 C   0  0  0  0  0  0  0  0  0  0  0  0
  147.0235  139.5676  151.7682 C   0  0  0  0  0  0  0  0  0  0  0  0
  150.8031  141.4349  157.3742 C   0  0  0  0  0  0  0  0  0  0  0  0
  150.7047  142.6616  158.0541 C   0  0  0  0  0  0  0  0  0  0  0  0
  151.6220  142.9629  159.0825 C   0  0  0  0  0  0  0  0  0  0  0  0
  151.5078  144.2897  159.8118 C   0  0  0  0  0  0  0  0  0  0  0  0
  154.3488  141.5153  160.6461 H   0  0  0  0  0  0  0  0  0  0  0  0
  153.1244  142.4769  161.4723 H   0  0  0  0  0  0  0  0  0  0  0  0
  154.1994  143.2346  160.2875 H   0  0  0  0  0  0  0  0  0  0  0  0
  153.4957  140.0892  158.9834 H   0  0  0  0  0  0  0  0  0  0  0  0
  150.3138  138.9728  155.3775 H   0  0  0  0  0  0  0  0  0  0  0  0
  148.0760  141.3770  156.3264 H   0  0  0  0  0  0  0  0  0  0  0  0
  149.1227  142.4431  155.4158 H   0  0  0  0  0  0  0  0  0  0  0  0
  148.6192  139.5460  154.5897 H   0  0  0  0  0  0  0  0  0  0  0  0
  149.5424  140.2013  152.7206 H   0  0  0  0  0  0  0  0  0  0  0  0
  146.5870  141.4236  154.5693 H   0  0  0  0  0  0  0  0  0  0  0  0
  147.3743  141.8111  153.0613 H   0  0  0  0  0  0  0  0  0  0  0  0
  147.5331  138.3246  154.1538 H   0  0  0  0  0  0  0  0  0  0  0  0
  146.0798  138.8902  154.9542 H   0  0  0  0  0  0  0  0  0  0  0  0
  145.7420  136.6420  153.9572 H   0  0  0  0  0  0  0  0  0  0  0  0
  144.6400  137.8151  153.2683 H   0  0  0  0  0  0  0  0  0  0  0  0
  144.4549  136.3561  151.1241 H   0  0  0  0  0  0  0  0  0  0  0  0
  145.9378  135.8890  150.3331 H   0  0  0  0  0  0  0  0  0  0  0  0
  145.0033  134.8598  153.0676 H   0  0  0  0  0  0  0  0  0  0  0  0
  145.1392  133.9648  151.5710 H   0  0  0  0  0  0  0  0  0  0  0  0
  147.4701  135.1289  152.0220 H   0  0  0  0  0  0  0  0  0  0  0  0
  146.6326  138.2049  150.1388 H   0  0  0  0  0  0  0  0  0  0  0  0
  145.1804  138.7706  150.9421 H   0  0  0  0  0  0  0  0  0  0  0  0
  146.9711  140.4512  151.1334 H   0  0  0  0  0  0  0  0  0  0  0  0
  148.0751  139.2816  151.8235 H   0  0  0  0  0  0  0  0  0  0  0  0
  149.9305  143.3650  157.7865 H   0  0  0  0  0  0  0  0  0  0  0  0
  150.6591  144.8713  159.4507 H   0  0  0  0  0  0  0  0  0  0  0  0
  152.4091  144.8847  159.6623 H   0  0  0  0  0  0  0  0  0  0  0  0
  151.3717  144.1291  160.8815 H   0  0  0  0  0  0  0  0  0  0  0  0
  145.5568  140.1643  153.0365 H   0  0  0  0  0  0  0  0  0  0  0  0
  147.1598  136.9339  152.0577 H   0  0  0  0  0  0  0  0  0  0  0  0
  1  2  1  0  0  0  0
  1 25  1  0  0  0  0
  1 26  1  0  0  0  0
  1 27  1  0  0  0  0
  2 23  1  0  0  0  0
  2  3  2  0  0  0  0
  3  4  1  0  0  0  0
  3 28  1  0  0  0  0
  4 21  2  0  0  0  0
  4  5  1  0  0  0  0
  5  6  2  0  0  0  0
  6  7  1  0  0  0  0
  6 29  1  0  0  0  0
  7  8  1  0  0  0  0
  7 21  1  0  0  0  0
  8  9  1  0  0  0  0
  8 30  1  0  0  0  0
  8 31  1  0  0  0  0
  9 10  1  0  0  0  0
  9 11  1  0  0  0  0
  9 32  1  0  0  0  0
 10 33  1  0  0  0  0
 11 12  1  0  0  0  0
 11 34  1  0  0  0  0
 11 35  1  0  0  0  0
 12 20  1  0  0  0  0
 12 13  1  0  0  0  0
 12 53  1  0  0  0  0
 13 14  1  0  0  0  0
 13 36  1  0  0  0  0
 13 37  1  0  0  0  0
 14 15  1  0  0  0  0
 14 38  1  0  0  0  0
 14 39  1  0  0  0  0
 15 16  1  0  0  0  0
 15 19  1  0  0  0  0
 15 54  1  0  0  0  0
 16 17  1  0  0  0  0
 16 40  1  0  0  0  0
 16 41  1  0  0  0  0
 17 18  1  0  0  0  0
 17 42  1  0  0  0  0
 17 43  1  0  0  0  0
 18 44  1  0  0  0  0
 19 20  1  0  0  0  0
 19 45  1  0  0  0  0
 19 46  1  0  0  0  0
 20 47  1  0  0  0  0
 20 48  1  0  0  0  0
 21 22  1  0  0  0  0
 22 23  2  0  0  0  0
 22 49  1  0  0  0  0
 23 24  1  0  0  0  0
 24 50  1  0  0  0  0
 24 51  1  0  0  0  0
 24 52  1  0  0  0  0
M  CHG  1  12   1
M  CHG  1  15   1
M  END
> <s_m_source_file>
AV-unprocessed.smi

> <i_m_source_file_index>
1046

> <i_lp_mmshare_version>
43012

> <i_f3d_flags>
0

> <s_epik_input>
W0NIM11jKFtjSF0xKWMoW0NIM10pW2NIXWMoYzEyKW4oW2NIXW4yKVtDSDJdW0NASF0oW09IXSlbQ0gyXU4zW0NIMl1bQ0gyXU4oW0NIMl1bQ0gyXTMpW0NIMl1bQ0gyXVtPSF0=

> <s_epik_cmdline>
J2VwaWtfcHl0aG9uJywgJy1waCcsICc3LjAnLCAnLXRuJywgJzgnLCAnLW1hJywgJzIwMCcsICctbWV0YWxfYmluZGluZycsICctaW1hZScsICc8aW5maWxlLm1hZT4nLCAnLW9tYWUnLCAnPG91dGZpbGUubWFlPic=

> <r_epik_Ionization_Penalty>
3.17398

> <r_epik_Ionization_Penalty_Charging>
3.09061

> <r_epik_Ionization_Penalty_Neutral>
0.0833726

> <r_epik_State_Penalty>
2.17606

> <r_epik_Charging_Adjusted_Penalty>
5.26667

> <i_epik_Tot_Q>
2

> <i_epik_Tot_abs_Q>
2

> <r_epik_Metal_State_Penalty>
2.08587

> <b_epik_Metal_Only>
0

> <s_lp_Force_Field>
OPLS_2005

> <r_lp_Energy>
27.9633

> <b_lp_Chiralities_Consistent>
1

> <s_lp_Variant>
AV-unprocessed.smi:1046-7

> <Gold.Version>
5.8.1

> <Gold.Id.Protein>
6NUR|6NUR_protein|mol2

> <Gold.PLP.Fitness>
65.4824

> <Gold.PLP.PLP>
-45.8666

> <Gold.PLP.part.hbond>
-5.4042

> <Gold.PLP.part.metal>
0.0000

> <Gold.PLP.part.buried>
0.5815

> <Gold.PLP.part.nonpolar>
-42.5061

> <Gold.PLP.part.repulsive>
0.0626

> <Gold.PLP.ligand.clash>
0.0000

> <Gold.PLP.ligand.torsion>
0.7865

> <Gold.PLP.Chemscore.Hbond>
7.0244

> <Gold.PLP.Chemscore.CHOScore>
0.0000

> <Gold.PLP.Chemscore.Metal>
0.0000

> <Gold.Chemscore.Hbonds>
donor molecule, donor type, donor heavy atom, donor atom, acceptor molecule, acceptor atom, score
      L1  H    10    33       P1  7957  0.80
      L1  H    12    53       P1 10175  2.00
      L1  H    15    54       P1  7948  2.00
      L1  H    18    44       P1  7948  1.00
      P1  H  7989  7998       L1    10  0.20
      P1  H  8011  8017       L1    10  1.00

> <Gold.PLP.Chemscore.Internal.Correction>
0.1154

> <Gold.Rescore>
     Score         DG    S(hbond)    S(metal)    S(lipo)     H(rot)  DE(clash)    DE(int)     intcor
     23.02     -26.85       4.29        0.00     131.97       3.28       2.97       0.87       ----

> <Gold.Chemscore.Fitness>
23.0157

> <Gold.Chemscore.DG>
-26.8543

> <Gold.Chemscore.ZeroCoef>
-5.4800

> <Gold.Chemscore.Hbond>
4.2927

> <Gold.Chemscore.Metal>
0.0000

> <Gold.Chemscore.Lipo>
131.9721

> <Gold.Chemscore.Internal_Hbond>
0.0000

> <Gold.Chemscore.DEClash>
2.9678

> <Gold.Chemscore.DEInternal>
0.8709

> <Gold.Chemscore.Rot>
3.2828

> <Gold.Chemscore.Internal.Correction>
   9.000000E+99

> <Gold.Chemscore.Hbonds>
donor molecule, donor type, donor heavy atom, donor atom, acceptor molecule, acceptor atom, score
      L1  H    10    33       P1  7957  0.77
      L1  H    12    53       P1 10175  0.96
      L1  H    15    54       P1  7948  1.00
      L1  H    18    44       P1  7948  0.95
      P1  H  7989  7998       L1    10  0.03
      P1  H  8011  8017       L1    10  0.30

> <Gold.Chemscore.Hbond.Weighted>
-14.3375

> <Gold.Chemscore.Metal.Weighted>
-0.0000

> <Gold.Chemscore.Lipo.Weighted>
-15.4407

> <Gold.Chemscore.Internal_Hbond.Weighted>
0.0000

> <Gold.Chemscore.DEClash.Weighted>
2.9678

> <Gold.Chemscore.DEInternal.Weighted>
0.8709

> <Gold.Chemscore.Rot.Weighted>
8.4039

> <Gold.Chemscore.Internal.Correction.Weighted>
   9.000000E+99

> <Gold.Protein.RotatedTorsions>
[ 6907 6896 6895 6894 ] final -130.61 input  -60.11 | X-H torsion
[ 7974 7965 7964 7962 ] final   58.49 input  175.53 | X-H torsion
[ 8008 7997 7996 7995 ] final   90.89 input   59.86 | X-H torsion
[ 10167 10162 10161 10158 ] final   35.88 input  -65.29 | X-H torsion
[ 10718 10713 10712 10709 ] final   22.78 input   66.30 | X-H torsion
[ 10763 10752 10751 10750 ] final  146.09 input  -60.55 | X-H torsion
[ 11005 11000 10999 10996 ] final -123.75 input  -57.11 | X-H torsion

> <Gold.Protein.ActiveResidues>
 VAL166  LYS551  ARG553  GLY616  TRP617  ASP618  TYR619  PRO620  LYS621  CYS622 
 ASP623  PHE694  ASN695  SER759  ASP760  ASP761  ALA762  ILE779  LEU786  VAL792 
 PHE793  MET794  SER795  GLU796  ALA797  LYS798  CYS799  TRP800  GLU811  SER814 

> <Gold.Protein.RotatedAtoms>
  150.9416  133.6649  159.2789 H   0  0  0  0  0  0  0  0  0  0  0  0  # atno 6907 bound_to 6896
  151.4036  135.0973  159.9573 H   0  0  0  0  0  0  0  0  0  0  0  0  # atno 6908 bound_to 6896
  152.5072  133.8905  159.7446 H   0  0  0  0  0  0  0  0  0  0  0  0  # atno 6909 bound_to 6896
  145.9176  139.3703  143.0498 H   0  0  0  0  0  0  0  0  0  0  0  0  # atno 7974 bound_to 7965
  156.0174  140.3344  155.7003 H   0  0  0  0  0  0  0  0  0  0  0  0  # atno 8008 bound_to 7997
  155.6072  140.0661  157.2734 H   0  0  0  0  0  0  0  0  0  0  0  0  # atno 8009 bound_to 7997
  154.4303  140.1800  156.1222 H   0  0  0  0  0  0  0  0  0  0  0  0  # atno 8010 bound_to 7997
  140.4180  144.1500  150.6145 H   0  0  0  0  0  0  0  0  0  0  0  0  # atno 10167 bound_to 10162
  157.1571  130.6700  149.6031 H   0  0  0  0  0  0  0  0  0  0  0  0  # atno 10718 bound_to 10713
  154.0162  135.2910  155.3386 H   0  0  0  0  0  0  0  0  0  0  0  0  # atno 10763 bound_to 10752
  154.7073  135.5164  153.8618 H   0  0  0  0  0  0  0  0  0  0  0  0  # atno 10764 bound_to 10752
  153.0701  135.6644  154.0389 H   0  0  0  0  0  0  0  0  0  0  0  0  # atno 10765 bound_to 10752
  140.9894  134.0560  157.3672 H   0  0  0  0  0  0  0  0  0  0  0  0  # atno 11005 bound_to 11000
  145.8591  140.9485  143.0709 LP  0  0  0  0  0  0  0  0  0  0  0  0  # atno 17320 bound_to 7965
  144.6749  140.0507  143.7479 LP  0  0  0  0  0  0  0  0  0  0  0  0  # atno 17321 bound_to 7965
  140.4565  143.2465  151.9277 LP  0  0  0  0  0  0  0  0  0  0  0  0  # atno 17342 bound_to 10162
  139.4782  144.5510  151.8385 LP  0  0  0  0  0  0  0  0  0  0  0  0  # atno 17343 bound_to 10162
  155.9760  130.4724  150.6500 LP  0  0  0  0  0  0  0  0  0  0  0  0  # atno 17370 bound_to 10713
  157.4167  131.0831  151.1170 LP  0  0  0  0  0  0  0  0  0  0  0  0  # atno 17371 bound_to 10713
  139.8985  135.0155  156.7153 LP  0  0  0  0  0  0  0  0  0  0  0  0  # atno 17394 bound_to 11000
  140.7063  133.9262  155.8056 LP  0  0  0  0  0  0  0  0  0  0  0  0  # atno 17395 bound_to 11000

$$$$
