AV-unprocessed.smi:193|AV-procd|sdf|1501|dock1
  -GOLD-   2262019333D 1   1.00000     0.00000
 Structure written by MMmdl.
 62 66  0  0  0  0  0  0  0  0  2 V2000
  147.9322  141.8187  157.1625 C   0  0  0  0  0  0  0  0  0  0  0  0
  149.3310  141.1833  157.1764 C   0  0  1  0  0  0  0  0  0  0  0  0
  149.4647  140.2279  155.9686 C   0  0  0  0  0  0  0  0  0  0  0  0
  150.6468  139.3684  156.0180 N   0  0  0  0  0  0  0  0  0  0  0  0
  150.5265  138.1267  156.5596 C   0  0  0  0  0  0  0  0  0  0  0  0
  151.5250  137.2203  156.3846 N   0  0  0  0  0  0  0  0  0  0  0  0
  151.4169  135.9875  156.8881 C   0  0  0  0  0  0  0  0  0  0  0  0
  150.4126  135.4585  157.5881 N   0  0  0  0  0  0  0  0  0  0  0  0
  149.4098  136.3630  157.7757 C   0  0  0  0  0  0  0  0  0  0  0  0
  149.3866  137.7063  157.3036 C   0  0  0  0  0  0  0  0  0  0  0  0
  148.2098  138.3264  157.7082 N   0  0  0  0  0  0  0  0  0  0  0  0
  147.5714  137.4016  158.3714 C   0  0  0  0  0  0  0  0  0  0  0  0
  148.2137  136.1868  158.4494 N   0  0  0  0  0  0  0  0  0  0  0  0
  147.7311  134.9869  159.1156 C   0  0  0  0  0  0  0  0  0  0  0  0
  147.1174  135.2471  160.5143 C   0  0  0  0  0  0  0  0  0  0  0  0
  145.8581  135.8694  160.3271 O   0  0  0  0  0  0  0  0  0  0  0  0
  146.8951  133.9146  161.2580 C   0  0  0  0  0  0  0  0  0  0  0  0
  146.4516  134.1295  162.7160 C   0  0  0  0  0  0  0  0  0  0  0  0
  147.3961  134.9478  163.3950 O   0  0  0  0  0  0  0  0  0  0  0  0
  147.4927  136.2528  162.8379 C   0  0  0  0  0  0  0  0  0  0  0  0
  147.9940  136.1745  161.3849 C   0  0  0  0  0  0  0  0  0  0  0  0
  151.9560  140.0065  156.1363 C   0  0  0  0  0  0  0  0  0  0  0  0
  152.2021  140.5400  157.5598 C   0  0  0  0  0  0  0  0  0  0  0  0
  151.7094  141.9235  157.7918 N   0  3  2  0  0  0  0  0  0  0  0  0
  151.7282  142.2745  159.2321 C   0  0  1  0  0  0  0  0  0  0  0  0
  153.1129  142.5220  159.7874 C   0  0  0  0  0  0  0  0  0  0  0  0
  152.1794  143.6892  159.5500 C   0  0  1  0  0  0  0  0  0  0  0  0
  152.5043  144.7240  158.4879 C   0  0  0  0  0  0  0  0  0  0  0  0
  150.4162  142.2860  157.1472 C   0  0  0  0  0  0  0  0  0  0  0  0
  147.7739  142.4131  156.2618 H   0  0  0  0  0  0  0  0  0  0  0  0
  147.7859  142.4719  158.0234 H   0  0  0  0  0  0  0  0  0  0  0  0
  147.1537  141.0560  157.1986 H   0  0  0  0  0  0  0  0  0  0  0  0
  149.4054  140.6200  158.1073 H   0  0  0  0  0  0  0  0  0  0  0  0
  148.5716  139.6070  155.8815 H   0  0  0  0  0  0  0  0  0  0  0  0
  149.5015  140.8040  155.0434 H   0  0  0  0  0  0  0  0  0  0  0  0
  152.2533  135.3303  156.7010 H   0  0  0  0  0  0  0  0  0  0  0  0
  146.6035  137.5782  158.8179 H   0  0  0  0  0  0  0  0  0  0  0  0
  147.0014  134.5030  158.4649 H   0  0  0  0  0  0  0  0  0  0  0  0
  148.5676  134.2918  159.1991 H   0  0  0  0  0  0  0  0  0  0  0  0
  145.2156  135.2008  160.1450 H   0  0  0  0  0  0  0  0  0  0  0  0
  146.1639  133.2994  160.7317 H   0  0  0  0  0  0  0  0  0  0  0  0
  147.8251  133.3444  161.2625 H   0  0  0  0  0  0  0  0  0  0  0  0
  145.4594  134.5809  162.7643 H   0  0  0  0  0  0  0  0  0  0  0  0
  146.3859  133.1707  163.2303 H   0  0  0  0  0  0  0  0  0  0  0  0
  146.5267  136.7567  162.8934 H   0  0  0  0  0  0  0  0  0  0  0  0
  148.1876  136.8394  163.4391 H   0  0  0  0  0  0  0  0  0  0  0  0
  149.0178  135.7982  161.3912 H   0  0  0  0  0  0  0  0  0  0  0  0
  148.0387  137.1790  160.9624 H   0  0  0  0  0  0  0  0  0  0  0  0
  152.7386  139.2907  155.8915 H   0  0  0  0  0  0  0  0  0  0  0  0
  152.0533  140.8022  155.3972 H   0  0  0  0  0  0  0  0  0  0  0  0
  151.7856  139.8585  158.3034 H   0  0  0  0  0  0  0  0  0  0  0  0
  153.2770  140.5506  157.7406 H   0  0  0  0  0  0  0  0  0  0  0  0
  150.9781  141.7823  159.8492 H   0  0  0  0  0  0  0  0  0  0  0  0
  153.2976  142.2369  160.8209 H   0  0  0  0  0  0  0  0  0  0  0  0
  153.9660  142.4161  159.1196 H   0  0  0  0  0  0  0  0  0  0  0  0
  151.7326  144.1247  160.4417 H   0  0  0  0  0  0  0  0  0  0  0  0
  153.0354  144.2791  157.6461 H   0  0  0  0  0  0  0  0  0  0  0  0
  153.1354  145.5047  158.9129 H   0  0  0  0  0  0  0  0  0  0  0  0
  151.5880  145.1859  158.1201 H   0  0  0  0  0  0  0  0  0  0  0  0
  150.6140  142.5817  156.1164 H   0  0  0  0  0  0  0  0  0  0  0  0
  150.0411  143.1913  157.6271 H   0  0  0  0  0  0  0  0  0  0  0  0
  152.3911  142.5310  157.3603 H   0  0  0  0  0  0  0  0  0  0  0  0
  1  2  1  0  0  0  0
  1 30  1  0  0  0  0
  1 31  1  0  0  0  0
  1 32  1  0  0  0  0
  2 29  1  0  0  0  0
  2  3  1  0  0  0  0
  2 33  1  0  0  0  0
  3  4  1  0  0  0  0
  3 34  1  0  0  0  0
  3 35  1  0  0  0  0
  4  5  1  0  0  0  0
  4 22  1  0  0  0  0
  5 10  1  0  0  0  0
  5  6  2  0  0  0  0
  6  7  1  0  0  0  0
  7  8  2  0  0  0  0
  7 36  1  0  0  0  0
  8  9  1  0  0  0  0
  9 13  1  0  0  0  0
  9 10  2  0  0  0  0
 10 11  1  0  0  0  0
 11 12  2  0  0  0  0
 12 13  1  0  0  0  0
 12 37  1  0  0  0  0
 13 14  1  0  0  0  0
 14 15  1  0  0  0  0
 14 38  1  0  0  0  0
 14 39  1  0  0  0  0
 15 21  1  0  0  0  0
 15 16  1  0  0  0  0
 15 17  1  0  0  0  0
 16 40  1  0  0  0  0
 17 18  1  0  0  0  0
 17 41  1  0  0  0  0
 17 42  1  0  0  0  0
 18 19  1  0  0  0  0
 18 43  1  0  0  0  0
 18 44  1  0  0  0  0
 19 20  1  0  0  0  0
 20 21  1  0  0  0  0
 20 45  1  0  0  0  0
 20 46  1  0  0  0  0
 21 47  1  0  0  0  0
 21 48  1  0  0  0  0
 22 23  1  0  0  0  0
 22 49  1  0  0  0  0
 22 50  1  0  0  0  0
 23 24  1  0  0  0  0
 23 51  1  0  0  0  0
 23 52  1  0  0  0  0
 24 25  1  0  0  0  0
 24 29  1  0  0  0  0
 24 62  1  0  0  0  0
 25 27  1  0  0  0  0
 25 26  1  0  0  0  0
 25 53  1  0  0  0  0
 26 27  1  0  0  0  0
 26 54  1  0  0  0  0
 26 55  1  0  0  0  0
 27 28  1  0  0  0  0
 27 56  1  0  0  0  0
 28 57  1  0  0  0  0
 28 58  1  0  0  0  0
 28 59  1  0  0  0  0
 29 60  1  0  0  0  0
 29 61  1  0  0  0  0
M  CHG  1  24   1
M  END
> <s_m_source_file>
AV-unprocessed.smi

> <i_m_source_file_index>
193

> <i_lp_mmshare_version>
43012

> <i_f3d_flags>
0

> <s_epik_input>
W0NIM11bQ0BASF0xW0NIMl1bQ0BIXTFOKFtDSDJdMilbQ0gyXVtDSDJdTihbQ0gyXVtDQEhdMltDSDNdKWMobltjSF1uMyljKGMzNCluW2NIXW40W0NIMl1DNShbT0hdKVtDSDJdW0NIMl1PW0NIMl1bQ0gyXTU=

> <s_epik_cmdline>
J2VwaWtfcHl0aG9uJywgJy1waCcsICc3LjAnLCAnLXRuJywgJzgnLCAnLW1hJywgJzIwMCcsICctbWV0YWxfYmluZGluZycsICctaW1hZScsICc8aW5maWxlLm1hZT4nLCAnLW9tYWUnLCAnPG91dGZpbGUubWFlPic=

> <r_lp_tautomer_probability>
1

> <r_epik_Ionization_Penalty>
0.0540825

> <r_epik_Ionization_Penalty_Charging>
0.0538476

> <r_epik_Ionization_Penalty_Neutral>
0.000234891

> <r_epik_State_Penalty>
0.0200719

> <r_epik_Charging_Adjusted_Penalty>
0.0739194

> <i_epik_Tot_Q>
1

> <i_epik_Tot_abs_Q>
1

> <r_epik_Metal_State_Penalty>
0.0199414

> <b_epik_Metal_Only>
0

> <s_lp_Force_Field>
OPLS_2005

> <r_lp_Energy>
56.4216

> <b_lp_Chiralities_Consistent>
1

> <s_lp_Variant>
AV-unprocessed.smi:193-6

> <Gold.Version>
5.8.1

> <Gold.Id.Protein>
6NUR|6NUR_protein|mol2

> <Gold.PLP.Fitness>
46.8952

> <Gold.PLP.PLP>
-46.6871

> <Gold.PLP.part.hbond>
-2.0835

> <Gold.PLP.part.metal>
0.0000

> <Gold.PLP.part.buried>
-4.9986

> <Gold.PLP.part.nonpolar>
-40.0596

> <Gold.PLP.part.repulsive>
0.0834

> <Gold.PLP.ligand.clash>
0.0000

> <Gold.PLP.ligand.torsion>
1.3204

> <Gold.PLP.Chemscore.Hbond>
0.4425

> <Gold.PLP.Chemscore.CHOScore>
0.0000

> <Gold.PLP.Chemscore.Metal>
0.0000

> <Gold.Chemscore.Hbonds>
donor molecule, donor type, donor heavy atom, donor atom, acceptor molecule, acceptor atom, score
      P1  H  6896  6909       L1     8  0.42

> <Gold.PLP.Chemscore.Internal.Correction>
1.5213

> <Gold.Rescore>
     Score         DG    S(hbond)    S(metal)    S(lipo)     H(rot)  DE(clash)    DE(int)     intcor
     13.69     -16.40       0.45        0.00     122.72       1.93       0.02       2.69       ----

> <Gold.Chemscore.Fitness>
13.6852

> <Gold.Chemscore.DG>
-16.4046

> <Gold.Chemscore.ZeroCoef>
-5.4800

> <Gold.Chemscore.Hbond>
0.4503

> <Gold.Chemscore.Metal>
0.0000

> <Gold.Chemscore.Lipo>
122.7250

> <Gold.Chemscore.Internal_Hbond>
0.0000

> <Gold.Chemscore.DEClash>
0.0247

> <Gold.Chemscore.DEInternal>
2.6947

> <Gold.Chemscore.Rot>
1.9290

> <Gold.Chemscore.Internal.Correction>
   9.000000E+99

> <Gold.Chemscore.Hbonds>
donor molecule, donor type, donor heavy atom, donor atom, acceptor molecule, acceptor atom, score
      P1  H  6896  6909       L1     8  0.23

> <Gold.Chemscore.Hbond.Weighted>
-1.5041

> <Gold.Chemscore.Metal.Weighted>
-0.0000

> <Gold.Chemscore.Lipo.Weighted>
-14.3588

> <Gold.Chemscore.Internal_Hbond.Weighted>
0.0000

> <Gold.Chemscore.DEClash.Weighted>
0.0247

> <Gold.Chemscore.DEInternal.Weighted>
2.6947

> <Gold.Chemscore.Rot.Weighted>
4.9383

> <Gold.Chemscore.Internal.Correction.Weighted>
   9.000000E+99

> <Gold.Protein.RotatedTorsions>
[ 6907 6896 6895 6894 ] final   44.78 input  -60.11 | X-H torsion
[ 7974 7965 7964 7962 ] final  115.70 input  175.53 | X-H torsion
[ 8008 7997 7996 7995 ] final  -83.43 input   59.86 | X-H torsion
[ 10167 10162 10161 10158 ] final   -6.42 input  -65.29 | X-H torsion
[ 10718 10713 10712 10709 ] final  -46.00 input   66.30 | X-H torsion
[ 10763 10752 10751 10750 ] final  -47.02 input  -60.55 | X-H torsion
[ 11005 11000 10999 10996 ] final  -29.84 input  -57.11 | X-H torsion

> <Gold.Protein.ActiveResidues>
 VAL166  LYS551  ARG553  GLY616  TRP617  ASP618  TYR619  PRO620  LYS621  CYS622 
 ASP623  PHE694  ASN695  SER759  ASP760  ASP761  ALA762  ILE779  LEU786  VAL792 
 PHE793  MET794  SER795  GLU796  ALA797  LYS798  CYS799  TRP800  GLU811  SER814 

> <Gold.Protein.RotatedAtoms>
  152.2366  134.8269  160.0465 H   0  0  0  0  0  0  0  0  0  0  0  0  # atno 6907 bound_to 6896
  151.8999  133.3530  159.3835 H   0  0  0  0  0  0  0  0  0  0  0  0  # atno 6908 bound_to 6896
  150.7041  134.4765  159.5494 H   0  0  0  0  0  0  0  0  0  0  0  0  # atno 6909 bound_to 6896
  145.1887  139.3011  143.4379 H   0  0  0  0  0  0  0  0  0  0  0  0  # atno 7974 bound_to 7965
  154.6190  140.0619  156.9591 H   0  0  0  0  0  0  0  0  0  0  0  0  # atno 8008 bound_to 7997
  155.1848  140.3302  155.4350 H   0  0  0  0  0  0  0  0  0  0  0  0  # atno 8009 bound_to 7997
  156.2421  140.1891  156.6942 H   0  0  0  0  0  0  0  0  0  0  0  0  # atno 8010 bound_to 7997
  140.6996  143.6196  150.8625 H   0  0  0  0  0  0  0  0  0  0  0  0  # atno 10167 bound_to 10162
  156.2227  130.4167  149.8973 H   0  0  0  0  0  0  0  0  0  0  0  0  # atno 10718 bound_to 10713
  154.0546  135.6626  153.4804 H   0  0  0  0  0  0  0  0  0  0  0  0  # atno 10763 bound_to 10752
  153.0450  135.5120  154.7718 H   0  0  0  0  0  0  0  0  0  0  0  0  # atno 10764 bound_to 10752
  154.6735  135.3033  154.9676 H   0  0  0  0  0  0  0  0  0  0  0  0  # atno 10765 bound_to 10752
  140.9331  133.7326  156.0965 H   0  0  0  0  0  0  0  0  0  0  0  0  # atno 11005 bound_to 11000
  146.3440  140.2092  142.8590 LP  0  0  0  0  0  0  0  0  0  0  0  0  # atno 17320 bound_to 7965
  145.0063  140.8675  143.5251 LP  0  0  0  0  0  0  0  0  0  0  0  0  # atno 17321 bound_to 7965
  139.9917  143.5840  152.2908 LP  0  0  0  0  0  0  0  0  0  0  0  0  # atno 17342 bound_to 10162
  139.6497  144.7660  151.2172 LP  0  0  0  0  0  0  0  0  0  0  0  0  # atno 17343 bound_to 10162
  156.6614  130.8783  151.3548 LP  0  0  0  0  0  0  0  0  0  0  0  0  # atno 17370 bound_to 10713
  157.7095  130.9424  150.1042 LP  0  0  0  0  0  0  0  0  0  0  0  0  # atno 17371 bound_to 10713
  140.7836  134.3698  157.5481 LP  0  0  0  0  0  0  0  0  0  0  0  0  # atno 17394 bound_to 11000
  139.8801  134.9097  156.2996 LP  0  0  0  0  0  0  0  0  0  0  0  0  # atno 17395 bound_to 11000

$$$$
