AV-unprocessed.smi:869|AV-procd|sdf|4005|dock3
  -GOLD-   22720 1493D 1   1.00000     0.00000
 Structure written by MMmdl.
 47 49  0  0  0  0  0  0  0  0  2 V2000
  152.6759  138.5885  154.9709 C   0  0  0  0  0  0  0  0  0  0  0  0
  152.8673  139.6003  155.9440 O   0  0  0  0  0  0  0  0  0  0  0  0
  151.9946  139.4588  157.0530 C   0  0  0  0  0  0  0  0  0  0  0  0
  151.8019  140.7495  157.7792 C   0  0  0  0  0  0  0  0  0  0  0  0
  152.6938  141.3367  158.6265 N   0  3  0  0  0  0  0  0  0  0  0  0
  152.1659  142.5321  159.1148 C   0  0  0  0  0  0  0  0  0  0  0  0
  152.6974  143.4697  159.9949 C   0  0  0  0  0  0  0  0  0  0  0  0
  151.8935  144.5913  160.2858 C   0  0  0  0  0  0  0  0  0  0  0  0
  150.6165  144.7485  159.7090 C   0  0  0  0  0  0  0  0  0  0  0  0
  150.0880  143.7904  158.8189 C   0  0  0  0  0  0  0  0  0  0  0  0
  150.8883  142.6830  158.5374 C   0  0  0  0  0  0  0  0  0  0  0  0
  150.7062  141.5591  157.7220 N   0  0  0  0  0  0  0  0  0  0  0  0
  149.4558  141.4022  156.9617 C   0  0  0  0  0  0  0  0  0  0  0  0
  149.6780  141.4014  155.4355 C   0  0  2  0  0  0  0  0  0  0  0  0
  150.1165  142.6750  155.0058 O   0  0  0  0  0  0  0  0  0  0  0  0
  148.4035  141.0410  154.6587 C   0  0  0  0  0  0  0  0  0  0  0  0
  147.2771  141.2319  155.5042 O   0  0  0  0  0  0  0  0  0  0  0  0
  146.4190  142.2733  155.2224 C   0  0  0  0  0  0  0  0  0  0  0  0
  146.3651  142.7140  153.8840 C   0  0  0  0  0  0  0  0  0  0  0  0
  145.5184  143.7737  153.5063 C   0  0  0  0  0  0  0  0  0  0  0  0
  144.7113  144.4107  154.4690 C   0  0  0  0  0  0  0  0  0  0  0  0
  143.7987  145.5499  154.0643 C   0  0  0  0  0  0  0  0  0  0  0  0
  144.7549  143.9778  155.8089 C   0  0  0  0  0  0  0  0  0  0  0  0
  145.6019  142.9172  156.1858 C   0  0  0  0  0  0  0  0  0  0  0  0
  153.3747  138.7352  154.1472 H   0  0  0  0  0  0  0  0  0  0  0  0
  151.6644  138.6200  154.5637 H   0  0  0  0  0  0  0  0  0  0  0  0
  152.8541  137.5976  155.3906 H   0  0  0  0  0  0  0  0  0  0  0  0
  151.0218  139.0967  156.7171 H   0  0  0  0  0  0  0  0  0  0  0  0
  152.3967  138.7232  157.7509 H   0  0  0  0  0  0  0  0  0  0  0  0
  153.6762  143.3520  160.4360 H   0  0  0  0  0  0  0  0  0  0  0  0
  152.2643  145.3471  160.9629 H   0  0  0  0  0  0  0  0  0  0  0  0
  150.0305  145.6229  159.9522 H   0  0  0  0  0  0  0  0  0  0  0  0
  149.1116  143.9254  158.3780 H   0  0  0  0  0  0  0  0  0  0  0  0
  149.0079  140.4576  157.2724 H   0  0  0  0  0  0  0  0  0  0  0  0
  148.7520  142.1793  157.2594 H   0  0  0  0  0  0  0  0  0  0  0  0
  150.4614  140.6865  155.1823 H   0  0  0  0  0  0  0  0  0  0  0  0
  149.6722  143.3330  155.5188 H   0  0  0  0  0  0  0  0  0  0  0  0
  148.3238  141.6589  153.7625 H   0  0  0  0  0  0  0  0  0  0  0  0
  148.4479  139.9959  154.3471 H   0  0  0  0  0  0  0  0  0  0  0  0
  146.9801  142.2337  153.1373 H   0  0  0  0  0  0  0  0  0  0  0  0
  145.4916  144.0958  152.4756 H   0  0  0  0  0  0  0  0  0  0  0  0
  143.6287  146.2291  154.9003 H   0  0  0  0  0  0  0  0  0  0  0  0
  142.8350  145.1605  153.7356 H   0  0  0  0  0  0  0  0  0  0  0  0
  144.2353  146.1244  153.2468 H   0  0  0  0  0  0  0  0  0  0  0  0
  144.1382  144.4583  156.5543 H   0  0  0  0  0  0  0  0  0  0  0  0
  145.6066  142.6181  157.2227 H   0  0  0  0  0  0  0  0  0  0  0  0
  153.5989  140.9428  158.8491 H   0  0  0  0  0  0  0  0  0  0  0  0
  1  2  1  0  0  0  0
  1 25  1  0  0  0  0
  1 26  1  0  0  0  0
  1 27  1  0  0  0  0
  2  3  1  0  0  0  0
  3  4  1  0  0  0  0
  3 28  1  0  0  0  0
  3 29  1  0  0  0  0
  4 12  1  0  0  0  0
  4  5  2  0  0  0  0
  5  6  1  0  0  0  0
  5 47  1  0  0  0  0
  6 11  2  0  0  0  0
  6  7  1  0  0  0  0
  7  8  2  0  0  0  0
  7 30  1  0  0  0  0
  8  9  1  0  0  0  0
  8 31  1  0  0  0  0
  9 10  2  0  0  0  0
  9 32  1  0  0  0  0
 10 11  1  0  0  0  0
 10 33  1  0  0  0  0
 11 12  1  0  0  0  0
 12 13  1  0  0  0  0
 13 14  1  0  0  0  0
 13 34  1  0  0  0  0
 13 35  1  0  0  0  0
 14 15  1  0  0  0  0
 14 16  1  0  0  0  0
 14 36  1  0  0  0  0
 15 37  1  0  0  0  0
 16 17  1  0  0  0  0
 16 38  1  0  0  0  0
 16 39  1  0  0  0  0
 17 18  1  0  0  0  0
 18 24  1  0  0  0  0
 18 19  2  0  0  0  0
 19 20  1  0  0  0  0
 19 40  1  0  0  0  0
 20 21  2  0  0  0  0
 20 41  1  0  0  0  0
 21 22  1  0  0  0  0
 21 23  1  0  0  0  0
 22 42  1  0  0  0  0
 22 43  1  0  0  0  0
 22 44  1  0  0  0  0
 23 24  2  0  0  0  0
 23 45  1  0  0  0  0
 24 46  1  0  0  0  0
M  CHG  1   5   1
M  END
> <s_m_source_file>
AV-unprocessed.smi

> <i_m_source_file_index>
869

> <i_lp_mmshare_version>
43012

> <i_f3d_flags>
0

> <s_epik_input>
W2NIXTFbY0hdW2NIXVtjSF1jKGMxMiluKGMobjIpW0NIMl1PW0NIM10pW0NIMl1bQ0BIXShbT0hdKVtDSDJdT2MzW2NIXVtjSF1jKFtDSDNdKVtjSF1bY0hdMw==

> <s_epik_cmdline>
J2VwaWtfcHl0aG9uJywgJy1waCcsICc3LjAnLCAnLXRuJywgJzgnLCAnLW1hJywgJzIwMCcsICctbWV0YWxfYmluZGluZycsICctaW1hZScsICc8aW5maWxlLm1hZT4nLCAnLW9tYWUnLCAnPG91dGZpbGUubWFlPic=

> <r_lp_tautomer_probability>
1

> <r_epik_Ionization_Penalty>
1.5538

> <r_epik_Ionization_Penalty_Charging>
1.5538

> <r_epik_Ionization_Penalty_Neutral>
2.3993e-06

> <r_epik_State_Penalty>
1.64824

> <r_epik_Charging_Adjusted_Penalty>
3.20204

> <i_epik_Tot_Q>
1

> <i_epik_Tot_abs_Q>
1

> <r_epik_Metal_State_Penalty>
5.70315

> <b_epik_Metal_Only>
0

> <s_lp_Force_Field>
OPLS_2005

> <r_lp_Energy>
18.5065

> <b_lp_Chiralities_Consistent>
1

> <s_lp_Variant>
AV-unprocessed.smi:869-3

> <Gold.Version>
5.8.1

> <Gold.Id.Protein>
6NUR|6NUR_protein|mol2

> <Gold.PLP.Fitness>
52.1513

> <Gold.PLP.PLP>
-49.3848

> <Gold.PLP.part.hbond>
-3.6908

> <Gold.PLP.part.metal>
0.0000

> <Gold.PLP.part.buried>
-3.4568

> <Gold.PLP.part.nonpolar>
-42.5264

> <Gold.PLP.part.repulsive>
0.1645

> <Gold.PLP.ligand.clash>
0.0558

> <Gold.PLP.ligand.torsion>
1.6674

> <Gold.PLP.Chemscore.Hbond>
2.0000

> <Gold.PLP.Chemscore.CHOScore>
0.0000

> <Gold.PLP.Chemscore.Metal>
0.0000

> <Gold.Chemscore.Hbonds>
donor molecule, donor type, donor heavy atom, donor atom, acceptor molecule, acceptor atom, score
      L1  H    15    37       P1  8028  1.00
      P1  H  7997  8009       L1     2  1.00

> <Gold.PLP.Chemscore.Internal.Correction>
0.1570

> <Gold.Rescore>
     Score         DG    S(hbond)    S(metal)    S(lipo)     H(rot)  DE(clash)    DE(int)     intcor
     17.14     -20.84       1.85        0.00     131.99       2.45       2.03       1.68       ----

> <Gold.Chemscore.Fitness>
17.1377

> <Gold.Chemscore.DG>
-20.8426

> <Gold.Chemscore.ZeroCoef>
-5.4800

> <Gold.Chemscore.Hbond>
1.8533

> <Gold.Chemscore.Metal>
0.0000

> <Gold.Chemscore.Lipo>
131.9928

> <Gold.Chemscore.Internal_Hbond>
0.0000

> <Gold.Chemscore.DEClash>
2.0281

> <Gold.Chemscore.DEInternal>
1.6768

> <Gold.Chemscore.Rot>
2.4494

> <Gold.Chemscore.Internal.Correction>
   9.000000E+99

> <Gold.Chemscore.Hbonds>
donor molecule, donor type, donor heavy atom, donor atom, acceptor molecule, acceptor atom, score
      L1  H    15    37       P1  8028  0.94
      P1  H  7997  8009       L1     2  0.87

> <Gold.Chemscore.Hbond.Weighted>
-6.1899

> <Gold.Chemscore.Metal.Weighted>
-0.0000

> <Gold.Chemscore.Lipo.Weighted>
-15.4432

> <Gold.Chemscore.Internal_Hbond.Weighted>
0.0000

> <Gold.Chemscore.DEClash.Weighted>
2.0281

> <Gold.Chemscore.DEInternal.Weighted>
1.6768

> <Gold.Chemscore.Rot.Weighted>
6.2704

> <Gold.Chemscore.Internal.Correction.Weighted>
   9.000000E+99

> <Gold.Protein.RotatedTorsions>
[ 6907 6896 6895 6894 ] final   98.71 input  -60.11 | X-H torsion
[ 7974 7965 7964 7962 ] final  -93.14 input  175.53 | X-H torsion
[ 8008 7997 7996 7995 ] final -141.04 input   59.86 | X-H torsion
[ 10167 10162 10161 10158 ] final   17.20 input  -65.29 | X-H torsion
[ 10718 10713 10712 10709 ] final  -60.43 input   66.30 | X-H torsion
[ 10763 10752 10751 10750 ] final  -95.87 input  -60.55 | X-H torsion
[ 11005 11000 10999 10996 ] final   58.14 input  -57.11 | X-H torsion

> <Gold.Protein.ActiveResidues>
 VAL166  LYS551  ARG553  GLY616  TRP617  ASP618  TYR619  PRO620  LYS621  CYS622 
 ASP623  PHE694  ASN695  SER759  ASP760  ASP761  ALA762  ILE779  LEU786  VAL792 
 PHE793  MET794  SER795  GLU796  ALA797  LYS798  CYS799  TRP800  GLU811  SER814 

> <Gold.Protein.RotatedAtoms>
  152.5405  134.0540  159.8122 H   0  0  0  0  0  0  0  0  0  0  0  0  # atno 6907 bound_to 6896
  151.0677  133.5484  159.2636 H   0  0  0  0  0  0  0  0  0  0  0  0  # atno 6908 bound_to 6896
  151.2359  135.0579  159.9060 H   0  0  0  0  0  0  0  0  0  0  0  0  # atno 6909 bound_to 6896
  145.3905  140.9527  143.2343 H   0  0  0  0  0  0  0  0  0  0  0  0  # atno 7974 bound_to 7965
  155.4712  140.0553  157.2979 H   0  0  0  0  0  0  0  0  0  0  0  0  # atno 8008 bound_to 7997
  154.4698  140.2035  155.9978 H   0  0  0  0  0  0  0  0  0  0  0  0  # atno 8009 bound_to 7997
  156.1036  140.3215  155.7980 H   0  0  0  0  0  0  0  0  0  0  0  0  # atno 8010 bound_to 7997
  140.5743  143.9102  150.6737 H   0  0  0  0  0  0  0  0  0  0  0  0  # atno 10167 bound_to 10162
  156.0991  130.4188  150.0853 H   0  0  0  0  0  0  0  0  0  0  0  0  # atno 10718 bound_to 10713
  154.7188  135.5104  153.8779 H   0  0  0  0  0  0  0  0  0  0  0  0  # atno 10763 bound_to 10752
  153.0844  135.6641  153.9988 H   0  0  0  0  0  0  0  0  0  0  0  0  # atno 10764 bound_to 10752
  153.9815  135.3028  155.3399 H   0  0  0  0  0  0  0  0  0  0  0  0  # atno 10765 bound_to 10752
  140.0399  134.5888  155.9395 H   0  0  0  0  0  0  0  0  0  0  0  0  # atno 11005 bound_to 11000
  144.8443  139.5422  143.6886 LP  0  0  0  0  0  0  0  0  0  0  0  0  # atno 17320 bound_to 7965
  146.2799  139.6851  142.9236 LP  0  0  0  0  0  0  0  0  0  0  0  0  # atno 17321 bound_to 7965
  140.2585  143.3541  152.1343 LP  0  0  0  0  0  0  0  0  0  0  0  0  # atno 17342 bound_to 10162
  139.5134  144.6932  151.5703 LP  0  0  0  0  0  0  0  0  0  0  0  0  # atno 17343 bound_to 10162
  156.8845  130.9567  151.3596 LP  0  0  0  0  0  0  0  0  0  0  0  0  # atno 17370 bound_to 10713
  157.6158  130.8617  149.9026 LP  0  0  0  0  0  0  0  0  0  0  0  0  # atno 17371 bound_to 10713
  141.1878  133.6560  156.5295 LP  0  0  0  0  0  0  0  0  0  0  0  0  # atno 17394 bound_to 11000
  140.4085  134.7293  157.4822 LP  0  0  0  0  0  0  0  0  0  0  0  0  # atno 17395 bound_to 11000

$$$$
