AV-unprocessed.smi:1183|AV-procd|sdf|4968|dock9
  -GOLD-   22720 3563D 1   1.00000     0.00000
 Structure written by MMmdl.
 42 43  0  0  0  0  0  0  0  0  1 V2000
  151.8311  144.9014  161.1153 C   0  0  0  0  0  0  0  0  0  0  0  0
  152.0166  143.4244  160.7594 C   0  0  0  0  0  0  0  0  0  0  0  0
  151.7919  142.5862  161.6325 O   0  0  0  0  0  0  0  0  0  0  0  0
  152.4247  143.0898  159.5116 N   0  0  0  0  0  0  0  0  0  0  0  0
  152.5872  141.7204  159.0093 C   0  0  0  0  0  0  0  0  0  0  0  0
  151.4568  141.4230  158.0087 C   0  0  0  0  0  0  0  0  0  0  0  0
  151.4287  142.4631  156.8643 C   0  0  0  0  0  0  0  0  0  0  0  0
  150.2312  142.2939  156.0470 N   0  0  0  0  0  0  0  0  0  0  0  0
  150.0144  141.2895  155.1843 C   0  0  0  0  0  0  0  0  0  0  0  0
  150.8292  140.3873  154.9829 O   0  0  0  0  0  0  0  0  0  0  0  0
  148.6688  141.3278  154.4490 C   0  0  0  0  0  0  0  0  0  0  0  0
  147.5249  141.3043  155.3502 N   0  0  0  0  0  0  0  0  0  0  0  0
  147.5333  140.4573  156.4026 N   0  0  0  0  0  0  0  0  0  0  0  0
  146.3796  140.6657  157.0153 C   0  0  0  0  0  0  0  0  0  0  0  0
  146.0463  139.8780  158.2478 C   0  0  0  0  0  0  0  0  0  0  0  0
  145.5976  141.6625  156.3675 C   0  0  0  0  0  0  0  0  0  0  0  0
  146.3604  142.0501  155.3022 C   0  0  0  0  0  0  0  0  0  0  0  0
  146.0879  143.0623  154.2386 C   0  0  0  0  0  0  0  0  0  0  0  0
  151.4806  143.9069  157.4100 C   0  0  0  0  0  0  0  0  0  0  0  0
  152.6083  144.0792  158.4440 C   0  0  0  0  0  0  0  0  0  0  0  0
  152.7582  145.4556  160.9656 H   0  0  0  0  0  0  0  0  0  0  0  0
  151.5443  145.0109  162.1618 H   0  0  0  0  0  0  0  0  0  0  0  0
  151.0464  145.3505  160.5061 H   0  0  0  0  0  0  0  0  0  0  0  0
  153.5545  141.6335  158.5122 H   0  0  0  0  0  0  0  0  0  0  0  0
  152.5974  140.9656  159.7939 H   0  0  0  0  0  0  0  0  0  0  0  0
  151.5789  140.4185  157.6021 H   0  0  0  0  0  0  0  0  0  0  0  0
  150.5021  141.4280  158.5372 H   0  0  0  0  0  0  0  0  0  0  0  0
  152.3125  142.3142  156.2406 H   0  0  0  0  0  0  0  0  0  0  0  0
  149.5098  142.9930  156.1493 H   0  0  0  0  0  0  0  0  0  0  0  0
  148.6196  142.2271  153.8327 H   0  0  0  0  0  0  0  0  0  0  0  0
  148.6000  140.4763  153.7715 H   0  0  0  0  0  0  0  0  0  0  0  0
  145.0664  140.1536  158.6381 H   0  0  0  0  0  0  0  0  0  0  0  0
  146.7787  140.0535  159.0361 H   0  0  0  0  0  0  0  0  0  0  0  0
  146.0304  138.8082  158.0377 H   0  0  0  0  0  0  0  0  0  0  0  0
  144.6222  142.0354  156.6423 H   0  0  0  0  0  0  0  0  0  0  0  0
  145.1046  143.5132  154.3730 H   0  0  0  0  0  0  0  0  0  0  0  0
  146.1137  142.6040  153.2498 H   0  0  0  0  0  0  0  0  0  0  0  0
  146.8292  143.8613  154.2627 H   0  0  0  0  0  0  0  0  0  0  0  0
  151.6170  144.6121  156.5894 H   0  0  0  0  0  0  0  0  0  0  0  0
  150.5285  144.1597  157.8795 H   0  0  0  0  0  0  0  0  0  0  0  0
  152.6185  145.1049  158.8153 H   0  0  0  0  0  0  0  0  0  0  0  0
  153.5791  143.9261  157.9704 H   0  0  0  0  0  0  0  0  0  0  0  0
  1  2  1  0  0  0  0
  1 21  1  0  0  0  0
  1 22  1  0  0  0  0
  1 23  1  0  0  0  0
  2  3  2  0  0  0  0
  2  4  1  0  0  0  0
  4 20  1  0  0  0  0
  4  5  1  0  0  0  0
  5  6  1  0  0  0  0
  5 24  1  0  0  0  0
  5 25  1  0  0  0  0
  6  7  1  0  0  0  0
  6 26  1  0  0  0  0
  6 27  1  0  0  0  0
  7  8  1  0  0  0  0
  7 19  1  0  0  0  0
  7 28  1  0  0  0  0
  8  9  1  0  0  0  0
  8 29  1  0  0  0  0
  9 10  2  0  0  0  0
  9 11  1  0  0  0  0
 11 12  1  0  0  0  0
 11 30  1  0  0  0  0
 11 31  1  0  0  0  0
 12 17  1  0  0  0  0
 12 13  1  0  0  0  0
 13 14  2  0  0  0  0
 14 15  1  0  0  0  0
 14 16  1  0  0  0  0
 15 32  1  0  0  0  0
 15 33  1  0  0  0  0
 15 34  1  0  0  0  0
 16 17  2  0  0  0  0
 16 35  1  0  0  0  0
 17 18  1  0  0  0  0
 18 36  1  0  0  0  0
 18 37  1  0  0  0  0
 18 38  1  0  0  0  0
 19 20  1  0  0  0  0
 19 39  1  0  0  0  0
 19 40  1  0  0  0  0
 20 41  1  0  0  0  0
 20 42  1  0  0  0  0
M  END
> <s_m_source_file>
AV-unprocessed.smi

> <i_m_source_file_index>
1183

> <i_lp_mmshare_version>
43012

> <i_f3d_flags>
0

> <s_epik_input>
W0NIM11DKD1PKU4xW0NIMl1bQ0gyXVtDSF0oW0NIMl1bQ0gyXTEpW05IXUMoPU8pW0NIMl1uMm5jKFtDSDNdKVtjSF1jMltDSDNd

> <s_epik_cmdline>
J2VwaWtfcHl0aG9uJywgJy1waCcsICc3LjAnLCAnLXRuJywgJzgnLCAnLW1hJywgJzIwMCcsICctbWV0YWxfYmluZGluZycsICctaW1hZScsICc8aW5maWxlLm1hZT4nLCAnLW9tYWUnLCAnPG91dGZpbGUubWFlPic=

> <r_lp_tautomer_probability>
1

> <r_epik_Ionization_Penalty>
0.000413777

> <r_epik_Ionization_Penalty_Charging>
0

> <r_epik_Ionization_Penalty_Neutral>
0.000413777

> <r_epik_State_Penalty>
-0

> <r_epik_Charging_Adjusted_Penalty>
0

> <i_epik_Tot_Q>
0

> <i_epik_Tot_abs_Q>
0

> <r_epik_Metal_State_Penalty>
-0

> <b_epik_Metal_Only>
0

> <s_lp_Force_Field>
OPLS_2005

> <r_lp_Energy>
21.0351

> <b_lp_Chiralities_Consistent>
1

> <s_lp_Variant>
AV-unprocessed.smi:1183-1

> <Gold.Version>
5.8.1

> <Gold.Id.Protein>
6NUR|6NUR_protein|mol2

> <Gold.PLP.Fitness>
47.3783

> <Gold.PLP.PLP>
-40.1928

> <Gold.PLP.part.hbond>
-3.0000

> <Gold.PLP.part.metal>
0.0000

> <Gold.PLP.part.buried>
-2.4487

> <Gold.PLP.part.nonpolar>
-34.9368

> <Gold.PLP.part.repulsive>
0.3426

> <Gold.PLP.ligand.clash>
0.0000

> <Gold.PLP.ligand.torsion>
0.4006

> <Gold.PLP.Chemscore.Hbond>
2.6560

> <Gold.PLP.Chemscore.CHOScore>
0.0000

> <Gold.PLP.Chemscore.Metal>
0.0000

> <Gold.Chemscore.Hbonds>
donor molecule, donor type, donor heavy atom, donor atom, acceptor molecule, acceptor atom, score
      L1  H     8    29       P1  8028  0.94
      P1  H  6933  6945       L1     3  0.69
      P1  H  7989  7998       L1    10  1.00

> <Gold.PLP.Chemscore.Internal.Correction>
0.0188

> <Gold.Rescore>
     Score         DG    S(hbond)    S(metal)    S(lipo)     H(rot)  DE(clash)    DE(int)     intcor
     17.29     -18.68       2.05        0.00      85.01       1.41       1.10       0.28       ----

> <Gold.Chemscore.Fitness>
17.2909

> <Gold.Chemscore.DG>
-18.6760

> <Gold.Chemscore.ZeroCoef>
-5.4800

> <Gold.Chemscore.Hbond>
2.0510

> <Gold.Chemscore.Metal>
0.0000

> <Gold.Chemscore.Lipo>
85.0070

> <Gold.Chemscore.Internal_Hbond>
0.0000

> <Gold.Chemscore.DEClash>
1.1050

> <Gold.Chemscore.DEInternal>
0.2801

> <Gold.Chemscore.Rot>
1.4064

> <Gold.Chemscore.Internal.Correction>
   9.000000E+99

> <Gold.Chemscore.Hbonds>
donor molecule, donor type, donor heavy atom, donor atom, acceptor molecule, acceptor atom, score
      L1  H     8    29       P1  8028  0.91
      P1  H  6933  6945       L1     3  0.64
      P1  H  7989  7998       L1    10  0.39

> <Gold.Chemscore.Hbond.Weighted>
-6.8505

> <Gold.Chemscore.Metal.Weighted>
-0.0000

> <Gold.Chemscore.Lipo.Weighted>
-9.9458

> <Gold.Chemscore.Internal_Hbond.Weighted>
0.0000

> <Gold.Chemscore.DEClash.Weighted>
1.1050

> <Gold.Chemscore.DEInternal.Weighted>
0.2801

> <Gold.Chemscore.Rot.Weighted>
3.6003

> <Gold.Chemscore.Internal.Correction.Weighted>
   9.000000E+99

> <Gold.Protein.RotatedTorsions>
[ 6907 6896 6895 6894 ] final -112.25 input  -60.11 | X-H torsion
[ 7974 7965 7964 7962 ] final -125.31 input  175.53 | X-H torsion
[ 8008 7997 7996 7995 ] final -153.85 input   59.86 | X-H torsion
[ 10167 10162 10161 10158 ] final   41.38 input  -65.29 | X-H torsion
[ 10718 10713 10712 10709 ] final   55.80 input   66.30 | X-H torsion
[ 10763 10752 10751 10750 ] final  -17.98 input  -60.55 | X-H torsion
[ 11005 11000 10999 10996 ] final -164.46 input  -57.11 | X-H torsion

> <Gold.Protein.ActiveResidues>
 VAL166  LYS551  ARG553  GLY616  TRP617  ASP618  TYR619  PRO620  LYS621  CYS622 
 ASP623  PHE694  ASN695  SER759  ASP760  ASP761  ALA762  ILE779  LEU786  VAL792 
 PHE793  MET794  SER795  GLU796  ALA797  LYS798  CYS799  TRP800  GLU811  SER814 

> <Gold.Protein.RotatedAtoms>
  150.7745  133.9117  159.3371 H   0  0  0  0  0  0  0  0  0  0  0  0  # atno 6907 bound_to 6896
  151.6995  135.0930  160.0258 H   0  0  0  0  0  0  0  0  0  0  0  0  # atno 6908 bound_to 6896
  152.3776  133.6464  159.6171 H   0  0  0  0  0  0  0  0  0  0  0  0  # atno 6909 bound_to 6896
  144.9989  140.7802  143.4508 H   0  0  0  0  0  0  0  0  0  0  0  0  # atno 7974 bound_to 7965
  155.6772  140.0740  157.2498 H   0  0  0  0  0  0  0  0  0  0  0  0  # atno 8008 bound_to 7997
  154.4112  140.1688  156.1995 H   0  0  0  0  0  0  0  0  0  0  0  0  # atno 8009 bound_to 7997
  155.9566  140.3373  155.6457 H   0  0  0  0  0  0  0  0  0  0  0  0  # atno 8010 bound_to 7997
  140.3648  144.2181  150.6136 H   0  0  0  0  0  0  0  0  0  0  0  0  # atno 10167 bound_to 10162
  157.5376  130.8674  149.8776 H   0  0  0  0  0  0  0  0  0  0  0  0  # atno 10718 bound_to 10713
  153.5822  135.7005  153.5458 H   0  0  0  0  0  0  0  0  0  0  0  0  # atno 10763 bound_to 10752
  153.3251  135.4063  155.1449 H   0  0  0  0  0  0  0  0  0  0  0  0  # atno 10764 bound_to 10752
  154.8615  135.3705  154.5350 H   0  0  0  0  0  0  0  0  0  0  0  0  # atno 10765 bound_to 10752
  140.5867  134.5086  157.5187 H   0  0  0  0  0  0  0  0  0  0  0  0  # atno 11005 bound_to 11000
  145.2181  139.2172  143.5108 LP  0  0  0  0  0  0  0  0  0  0  0  0  # atno 17320 bound_to 7965
  146.3448  140.2033  142.8589 LP  0  0  0  0  0  0  0  0  0  0  0  0  # atno 17321 bound_to 7965
  140.5091  143.2295  151.8563 LP  0  0  0  0  0  0  0  0  0  0  0  0  # atno 17342 bound_to 10162
  139.4810  144.4971  151.9110 LP  0  0  0  0  0  0  0  0  0  0  0  0  # atno 17343 bound_to 10162
  156.0471  130.3725  150.1291 LP  0  0  0  0  0  0  0  0  0  0  0  0  # atno 17370 bound_to 10713
  156.9473  130.9763  151.3505 LP  0  0  0  0  0  0  0  0  0  0  0  0  # atno 17371 bound_to 10713
  139.9292  134.7996  156.0978 LP  0  0  0  0  0  0  0  0  0  0  0  0  # atno 17394 bound_to 11000
  141.0961  133.6695  156.2649 LP  0  0  0  0  0  0  0  0  0  0  0  0  # atno 17395 bound_to 11000

$$$$
