AV-unprocessed.smi:1033|AV-procd|sdf|4506|dock4
  -GOLD-   22720 2513D 1   1.00000     0.00000
 Structure written by MMmdl.
 57 59  0  0  0  0  0  0  0  0  3 V2000
  153.5320  141.6679  160.4192 C   0  0  0  0  0  0  0  0  0  0  0  0
  152.4627  141.5690  159.3453 C   0  0  0  0  0  0  0  0  0  0  0  0
  152.3126  140.3571  158.6345 C   0  0  0  0  0  0  0  0  0  0  0  0
  151.3316  140.2246  157.6278 C   0  0  0  0  0  0  0  0  0  0  0  0
  151.0099  139.1461  156.8220 N   0  0  0  0  0  0  0  0  0  0  0  0
  150.0142  139.6418  156.0939 C   0  0  0  0  0  0  0  0  0  0  0  0
  149.6444  140.9134  156.3400 N   0  0  0  0  0  0  0  0  0  0  0  0
  148.5815  141.6543  155.6859 C   0  0  0  0  0  0  0  0  0  0  0  0
  148.2585  141.1046  154.2825 C   0  0  2  0  0  0  0  0  0  0  0  0
  149.0983  141.7642  153.3569 O   0  0  0  0  0  0  0  0  0  0  0  0
  146.7888  141.3260  153.8602 C   0  0  0  0  0  0  0  0  0  0  0  0
  146.2792  140.2544  152.9666 N   0  3  2  0  0  0  0  0  0  0  0  0
  146.5223  138.8993  153.5201 C   0  0  0  0  0  0  0  0  0  0  0  0
  145.9104  137.8098  152.6218 C   0  0  0  0  0  0  0  0  0  0  0  0
  146.4200  137.9127  151.2326 N   0  3  1  0  0  0  0  0  0  0  0  0
  145.9277  136.8133  150.3629 C   0  0  0  0  0  0  0  0  0  0  0  0
  144.4688  137.0247  149.9126 C   0  0  2  0  0  0  0  0  0  0  0  0
  143.4679  136.4552  150.9266 C   0  0  0  0  0  0  0  0  0  0  0  0
  144.2704  136.3643  148.6792 O   0  0  0  0  0  0  0  0  0  0  0  0
  146.1717  139.2669  150.6756 C   0  0  0  0  0  0  0  0  0  0  0  0
  146.7837  140.3575  151.5730 C   0  0  0  0  0  0  0  0  0  0  0  0
  150.4981  141.3470  157.3491 C   0  0  0  0  0  0  0  0  0  0  0  0
  150.6378  142.5585  158.0492 C   0  0  0  0  0  0  0  0  0  0  0  0
  151.6233  142.6737  159.0518 C   0  0  0  0  0  0  0  0  0  0  0  0
  151.7678  143.9859  159.8016 C   0  0  0  0  0  0  0  0  0  0  0  0
  154.0611  140.7226  160.5431 H   0  0  0  0  0  0  0  0  0  0  0  0
  153.0877  141.9292  161.3798 H   0  0  0  0  0  0  0  0  0  0  0  0
  154.2659  142.4304  160.1569 H   0  0  0  0  0  0  0  0  0  0  0  0
  152.9531  139.5164  158.8571 H   0  0  0  0  0  0  0  0  0  0  0  0
  149.5190  139.0439  155.3427 H   0  0  0  0  0  0  0  0  0  0  0  0
  147.6957  141.6276  156.3220 H   0  0  0  0  0  0  0  0  0  0  0  0
  148.8860  142.7001  155.6226 H   0  0  0  0  0  0  0  0  0  0  0  0
  148.5059  140.0437  154.2652 H   0  0  0  0  0  0  0  0  0  0  0  0
  149.1915  141.2177  152.5904 H   0  0  0  0  0  0  0  0  0  0  0  0
  146.1339  141.3926  154.7294 H   0  0  0  0  0  0  0  0  0  0  0  0
  146.7199  142.2907  153.3549 H   0  0  0  0  0  0  0  0  0  0  0  0
  147.5965  138.7380  153.6264 H   0  0  0  0  0  0  0  0  0  0  0  0
  146.0900  138.8259  154.5189 H   0  0  0  0  0  0  0  0  0  0  0  0
  146.1539  136.8288  153.0317 H   0  0  0  0  0  0  0  0  0  0  0  0
  144.8221  137.8924  152.6183 H   0  0  0  0  0  0  0  0  0  0  0  0
  146.5543  136.7398  149.4720 H   0  0  0  0  0  0  0  0  0  0  0  0
  146.0344  135.8618  150.8863 H   0  0  0  0  0  0  0  0  0  0  0  0
  144.2543  138.0839  149.7746 H   0  0  0  0  0  0  0  0  0  0  0  0
  143.5692  136.9473  151.8943 H   0  0  0  0  0  0  0  0  0  0  0  0
  143.6193  135.3858  151.0806 H   0  0  0  0  0  0  0  0  0  0  0  0
  142.4403  136.6009  150.5915 H   0  0  0  0  0  0  0  0  0  0  0  0
  144.9583  136.6230  148.0836 H   0  0  0  0  0  0  0  0  0  0  0  0
  146.5966  139.3502  149.6760 H   0  0  0  0  0  0  0  0  0  0  0  0
  145.0970  139.4285  150.5754 H   0  0  0  0  0  0  0  0  0  0  0  0
  146.5468  141.3346  151.1538 H   0  0  0  0  0  0  0  0  0  0  0  0
  147.8715  140.2708  151.5722 H   0  0  0  0  0  0  0  0  0  0  0  0
  149.9926  143.3927  157.8173 H   0  0  0  0  0  0  0  0  0  0  0  0
  151.0552  144.7298  159.4445 H   0  0  0  0  0  0  0  0  0  0  0  0
  152.7705  144.3935  159.6695 H   0  0  0  0  0  0  0  0  0  0  0  0
  151.5917  143.8382  160.8673 H   0  0  0  0  0  0  0  0  0  0  0  0
  147.4216  137.7916  151.2904 H   0  0  0  0  0  0  0  0  0  0  0  0
  145.2761  140.3728  152.9330 H   0  0  0  0  0  0  0  0  0  0  0  0
  1  2  1  0  0  0  0
  1 26  1  0  0  0  0
  1 27  1  0  0  0  0
  1 28  1  0  0  0  0
  2 24  1  0  0  0  0
  2  3  2  0  0  0  0
  3  4  1  0  0  0  0
  3 29  1  0  0  0  0
  4 22  2  0  0  0  0
  4  5  1  0  0  0  0
  5  6  2  0  0  0  0
  6  7  1  0  0  0  0
  6 30  1  0  0  0  0
  7  8  1  0  0  0  0
  7 22  1  0  0  0  0
  8  9  1  0  0  0  0
  8 31  1  0  0  0  0
  8 32  1  0  0  0  0
  9 10  1  0  0  0  0
  9 11  1  0  0  0  0
  9 33  1  0  0  0  0
 10 34  1  0  0  0  0
 11 12  1  0  0  0  0
 11 35  1  0  0  0  0
 11 36  1  0  0  0  0
 12 21  1  0  0  0  0
 12 13  1  0  0  0  0
 12 57  1  0  0  0  0
 13 14  1  0  0  0  0
 13 37  1  0  0  0  0
 13 38  1  0  0  0  0
 14 15  1  0  0  0  0
 14 39  1  0  0  0  0
 14 40  1  0  0  0  0
 15 16  1  0  0  0  0
 15 20  1  0  0  0  0
 15 56  1  0  0  0  0
 16 17  1  0  0  0  0
 16 41  1  0  0  0  0
 16 42  1  0  0  0  0
 17 18  1  0  0  0  0
 17 19  1  0  0  0  0
 17 43  1  0  0  0  0
 18 44  1  0  0  0  0
 18 45  1  0  0  0  0
 18 46  1  0  0  0  0
 19 47  1  0  0  0  0
 20 21  1  0  0  0  0
 20 48  1  0  0  0  0
 20 49  1  0  0  0  0
 21 50  1  0  0  0  0
 21 51  1  0  0  0  0
 22 23  1  0  0  0  0
 23 24  2  0  0  0  0
 23 52  1  0  0  0  0
 24 25  1  0  0  0  0
 25 53  1  0  0  0  0
 25 54  1  0  0  0  0
 25 55  1  0  0  0  0
M  CHG  1  12   1
M  CHG  1  15   1
M  END
> <s_m_source_file>
AV-unprocessed.smi

> <i_m_source_file_index>
1033

> <i_lp_mmshare_version>
43012

> <i_f3d_flags>
0

> <s_epik_input>
W0NIM11jKFtjSF0xKWMoW0NIM10pW2NIXWMoYzEyKW4oW2NIXW4yKVtDSDJdW0NASF0oW09IXSlbQ0gyXU4zW0NIMl1bQ0gyXU4oW0NIMl1bQ0gyXTMpW0NIMl1bQ0BIXShbQ0gzXSlbT0hd

> <s_epik_cmdline>
J2VwaWtfcHl0aG9uJywgJy1waCcsICc3LjAnLCAnLXRuJywgJzgnLCAnLW1hJywgJzIwMCcsICctbWV0YWxfYmluZGluZycsICctaW1hZScsICc8aW5maWxlLm1hZT4nLCAnLW9tYWUnLCAnPG91dGZpbGUubWFlPic=

> <r_epik_Ionization_Penalty>
3.16016

> <r_epik_Ionization_Penalty_Charging>
3.07679

> <r_epik_Ionization_Penalty_Neutral>
0.083365

> <r_epik_State_Penalty>
2.09701

> <r_epik_Charging_Adjusted_Penalty>
5.1738

> <i_epik_Tot_Q>
2

> <i_epik_Tot_abs_Q>
2

> <r_epik_Metal_State_Penalty>
2.02534

> <b_epik_Metal_Only>
0

> <s_lp_Force_Field>
OPLS_2005

> <r_lp_Energy>
27.6073

> <b_lp_Chiralities_Consistent>
1

> <s_lp_Variant>
AV-unprocessed.smi:1033-17

> <Gold.Version>
5.8.1

> <Gold.Id.Protein>
6NUR|6NUR_protein|mol2

> <Gold.PLP.Fitness>
66.4157

> <Gold.PLP.PLP>
-48.9192

> <Gold.PLP.part.hbond>
-5.4946

> <Gold.PLP.part.metal>
0.0000

> <Gold.PLP.part.buried>
0.7054

> <Gold.PLP.part.nonpolar>
-44.0232

> <Gold.PLP.part.repulsive>
0.0578

> <Gold.PLP.ligand.clash>
0.0000

> <Gold.PLP.ligand.torsion>
1.5920

> <Gold.PLP.Chemscore.Hbond>
6.8008

> <Gold.PLP.Chemscore.CHOScore>
0.0000

> <Gold.PLP.Chemscore.Metal>
0.0000

> <Gold.Chemscore.Hbonds>
donor molecule, donor type, donor heavy atom, donor atom, acceptor molecule, acceptor atom, score
      L1  H    10    34       P1  7957  1.00
      L1  H    12    57       P1 10175  2.00
      L1  H    15    56       P1  7948  0.88
      L1  H    19    47       P1  7921  0.12

> <Gold.PLP.Chemscore.Internal.Correction>
0.2781

> <Gold.Rescore>
     Score         DG    S(hbond)    S(metal)    S(lipo)     H(rot)  DE(clash)    DE(int)     intcor
     23.62     -28.10       4.21        0.00     141.74       3.14       2.96       1.51       ----

> <Gold.Chemscore.Fitness>
23.6236

> <Gold.Chemscore.DG>
-28.0981

> <Gold.Chemscore.ZeroCoef>
-5.4800

> <Gold.Chemscore.Hbond>
4.2121

> <Gold.Chemscore.Metal>
0.0000

> <Gold.Chemscore.Lipo>
141.7354

> <Gold.Chemscore.Internal_Hbond>
0.0000

> <Gold.Chemscore.DEClash>
2.9597

> <Gold.Chemscore.DEInternal>
1.5148

> <Gold.Chemscore.Rot>
3.1380

> <Gold.Chemscore.Internal.Correction>
   9.000000E+99

> <Gold.Chemscore.Hbonds>
donor molecule, donor type, donor heavy atom, donor atom, acceptor molecule, acceptor atom, score
      L1  H    10    34       P1  7957  1.00
      L1  H    12    57       P1 10175  0.94
      L1  H    15    56       P1  7948  0.44
      L1  H    19    47       P1  7921  0.13

> <Gold.Chemscore.Hbond.Weighted>
-14.0683

> <Gold.Chemscore.Metal.Weighted>
-0.0000

> <Gold.Chemscore.Lipo.Weighted>
-16.5830

> <Gold.Chemscore.Internal_Hbond.Weighted>
0.0000

> <Gold.Chemscore.DEClash.Weighted>
2.9597

> <Gold.Chemscore.DEInternal.Weighted>
1.5148

> <Gold.Chemscore.Rot.Weighted>
8.0332

> <Gold.Chemscore.Internal.Correction.Weighted>
   9.000000E+99

> <Gold.Protein.RotatedTorsions>
[ 6907 6896 6895 6894 ] final   34.08 input  -60.11 | X-H torsion
[ 7974 7965 7964 7962 ] final  179.69 input  175.53 | X-H torsion
[ 8008 7997 7996 7995 ] final  -38.46 input   59.86 | X-H torsion
[ 10167 10162 10161 10158 ] final  105.34 input  -65.29 | X-H torsion
[ 10718 10713 10712 10709 ] final  -59.08 input   66.30 | X-H torsion
[ 10763 10752 10751 10750 ] final   37.33 input  -60.55 | X-H torsion
[ 11005 11000 10999 10996 ] final  109.90 input  -57.11 | X-H torsion

> <Gold.Protein.ActiveResidues>
 VAL166  LYS551  ARG553  GLY616  TRP617  ASP618  TYR619  PRO620  LYS621  CYS622 
 ASP623  PHE694  ASN695  SER759  ASP760  ASP761  ALA762  ILE779  LEU786  VAL792 
 PHE793  MET794  SER795  GLU796  ALA797  LYS798  CYS799  TRP800  GLU811  SER814 

> <Gold.Protein.RotatedAtoms>
  152.0975  134.9365  160.0570 H   0  0  0  0  0  0  0  0  0  0  0  0  # atno 6907 bound_to 6896
  152.0592  133.4049  159.4419 H   0  0  0  0  0  0  0  0  0  0  0  0  # atno 6908 bound_to 6896
  150.6838  134.3139  159.4801 H   0  0  0  0  0  0  0  0  0  0  0  0  # atno 6909 bound_to 6896
  144.7143  140.0585  143.6433 H   0  0  0  0  0  0  0  0  0  0  0  0  # atno 7974 bound_to 7965
  154.4036  140.1577  156.2704 H   0  0  0  0  0  0  0  0  0  0  0  0  # atno 8008 bound_to 7997
  155.8958  140.3436  155.5967 H   0  0  0  0  0  0  0  0  0  0  0  0  # atno 8009 bound_to 7997
  155.7505  140.0804  157.2194 H   0  0  0  0  0  0  0  0  0  0  0  0  # atno 8010 bound_to 7997
  139.7101  144.7079  151.1041 H   0  0  0  0  0  0  0  0  0  0  0  0  # atno 10167 bound_to 10162
  156.1088  130.4177  150.0665 H   0  0  0  0  0  0  0  0  0  0  0  0  # atno 10718 bound_to 10713
  153.0042  135.6281  154.2127 H   0  0  0  0  0  0  0  0  0  0  0  0  # atno 10763 bound_to 10752
  154.1871  135.2810  155.3035 H   0  0  0  0  0  0  0  0  0  0  0  0  # atno 10764 bound_to 10752
  154.5789  135.5653  153.7226 H   0  0  0  0  0  0  0  0  0  0  0  0  # atno 10765 bound_to 10752
  139.8871  134.9470  156.6197 H   0  0  0  0  0  0  0  0  0  0  0  0  # atno 11005 bound_to 11000
  145.9884  139.2995  143.1000 LP  0  0  0  0  0  0  0  0  0  0  0  0  # atno 17320 bound_to 7965
  145.8931  140.9291  143.0541 LP  0  0  0  0  0  0  0  0  0  0  0  0  # atno 17321 bound_to 7965
  140.7731  143.5305  150.9429 LP  0  0  0  0  0  0  0  0  0  0  0  0  # atno 17342 bound_to 10162
  139.8989  143.6860  152.3134 LP  0  0  0  0  0  0  0  0  0  0  0  0  # atno 17343 bound_to 10162
  156.8634  130.9499  151.3616 LP  0  0  0  0  0  0  0  0  0  0  0  0  # atno 17370 bound_to 10713
  157.6267  130.8697  149.9202 LP  0  0  0  0  0  0  0  0  0  0  0  0  # atno 17371 bound_to 10713
  140.7749  133.8708  155.8521 LP  0  0  0  0  0  0  0  0  0  0  0  0  # atno 17394 bound_to 11000
  140.9810  134.1405  157.4494 LP  0  0  0  0  0  0  0  0  0  0  0  0  # atno 17395 bound_to 11000

$$$$
