AV-unprocessed.smi:189|AV-procd|sdf|1489|dock4
  -GOLD-   2262019303D 1   1.00000     0.00000
 Structure written by MMmdl.
 53 57  0  0  0  0  0  0  0  0  1 V2000
  148.3635  132.4865  160.7234 C   0  0  0  0  0  0  0  0  0  0  0  0
  147.5509  133.3557  161.7030 C   0  0  2  0  0  0  0  0  0  0  0  0
  146.1014  132.9078  161.9262 C   0  0  0  0  0  0  0  0  0  0  0  0
  145.4509  134.1454  162.5617 C   0  0  2  0  0  0  0  0  0  0  0  0
  144.0326  134.4662  162.0583 C   0  0  0  0  0  0  0  0  0  0  0  0
  143.4922  135.7851  162.6529 C   0  0  0  0  0  0  0  0  0  0  0  0
  144.5671  136.8836  162.8246 C   0  0  0  0  0  0  0  0  0  0  0  0
  145.7918  136.6481  161.9286 C   0  0  0  0  0  0  0  0  0  0  0  0
  146.4509  135.2928  162.2909 C   0  0  2  0  0  0  0  0  0  0  0  0
  147.4770  134.7809  161.3772 N   0  0  0  0  0  0  0  0  0  0  0  0
  147.3775  135.1150  160.0656 C   0  0  0  0  0  0  0  0  0  0  0  0
  146.3413  134.6738  159.3031 N   0  0  0  0  0  0  0  0  0  0  0  0
  146.2679  135.0138  158.0129 C   0  0  0  0  0  0  0  0  0  0  0  0
  147.1088  135.7648  157.2983 N   0  0  0  0  0  0  0  0  0  0  0  0
  148.1500  136.2057  158.0616 C   0  0  0  0  0  0  0  0  0  0  0  0
  148.3533  135.9353  159.4432 C   0  0  0  0  0  0  0  0  0  0  0  0
  149.5116  136.5585  159.8882 N   0  0  0  0  0  0  0  0  0  0  0  0
  149.9728  137.1599  158.8256 C   0  0  0  0  0  0  0  0  0  0  0  0
  149.2262  136.9883  157.6809 N   0  0  0  0  0  0  0  0  0  0  0  0
  149.5196  137.5261  156.3618 C   0  0  0  0  0  0  0  0  0  0  0  0
  149.8736  136.4366  155.3221 C   0  0  2  0  0  0  0  0  0  0  0  0
  150.2927  137.0631  154.1220 O   0  0  0  0  0  0  0  0  0  0  0  0
  148.7238  135.4878  154.9933 C   0  0  0  0  0  0  0  0  0  0  0  0
  149.4384  134.1768  154.6980 C   0  0  0  0  0  0  0  0  0  0  0  0
  150.4682  134.1641  155.6714 O   0  0  0  0  0  0  0  0  0  0  0  0
  150.9912  135.4834  155.7906 C   0  0  0  0  0  0  0  0  0  0  0  0
  148.4647  131.4705  161.1051 H   0  0  0  0  0  0  0  0  0  0  0  0
  149.3679  132.8877  160.5848 H   0  0  0  0  0  0  0  0  0  0  0  0
  147.8915  132.4176  159.7431 H   0  0  0  0  0  0  0  0  0  0  0  0
  148.0645  133.3040  162.6645 H   0  0  0  0  0  0  0  0  0  0  0  0
  145.6249  132.6637  160.9763 H   0  0  0  0  0  0  0  0  0  0  0  0
  146.0330  132.0260  162.5637 H   0  0  0  0  0  0  0  0  0  0  0  0
  145.4003  133.9944  163.6411 H   0  0  0  0  0  0  0  0  0  0  0  0
  144.0499  134.5507  160.9712 H   0  0  0  0  0  0  0  0  0  0  0  0
  143.3514  133.6458  162.2857 H   0  0  0  0  0  0  0  0  0  0  0  0
  142.6903  136.1525  162.0117 H   0  0  0  0  0  0  0  0  0  0  0  0
  143.0327  135.5902  163.6225 H   0  0  0  0  0  0  0  0  0  0  0  0
  144.1322  137.8636  162.6259 H   0  0  0  0  0  0  0  0  0  0  0  0
  144.8964  136.9052  163.8644 H   0  0  0  0  0  0  0  0  0  0  0  0
  145.4554  136.6787  160.8926 H   0  0  0  0  0  0  0  0  0  0  0  0
  146.5136  137.4571  162.0430 H   0  0  0  0  0  0  0  0  0  0  0  0
  146.9829  135.4636  163.2282 H   0  0  0  0  0  0  0  0  0  0  0  0
  145.4150  134.6263  157.4758 H   0  0  0  0  0  0  0  0  0  0  0  0
  150.8825  137.7420  158.8464 H   0  0  0  0  0  0  0  0  0  0  0  0
  148.6619  138.1097  156.0249 H   0  0  0  0  0  0  0  0  0  0  0  0
  150.3475  138.2293  156.4626 H   0  0  0  0  0  0  0  0  0  0  0  0
  149.7483  136.7526  153.4149 H   0  0  0  0  0  0  0  0  0  0  0  0
  148.0872  135.3482  155.8678 H   0  0  0  0  0  0  0  0  0  0  0  0
  148.0908  135.8286  154.1726 H   0  0  0  0  0  0  0  0  0  0  0  0
  148.7846  133.3092  154.7894 H   0  0  0  0  0  0  0  0  0  0  0  0
  149.8741  134.1817  153.6975 H   0  0  0  0  0  0  0  0  0  0  0  0
  151.8913  135.5747  155.1803 H   0  0  0  0  0  0  0  0  0  0  0  0
  151.2819  135.6600  156.8267 H   0  0  0  0  0  0  0  0  0  0  0  0
  1  2  1  0  0  0  0
  1 27  1  0  0  0  0
  1 28  1  0  0  0  0
  1 29  1  0  0  0  0
  2 10  1  0  0  0  0
  2  3  1  0  0  0  0
  2 30  1  0  0  0  0
  3  4  1  0  0  0  0
  3 31  1  0  0  0  0
  3 32  1  0  0  0  0
  4  9  1  0  0  0  0
  4  5  1  0  0  0  0
  4 33  1  0  0  0  0
  5  6  1  0  0  0  0
  5 34  1  0  0  0  0
  5 35  1  0  0  0  0
  6  7  1  0  0  0  0
  6 36  1  0  0  0  0
  6 37  1  0  0  0  0
  7  8  1  0  0  0  0
  7 38  1  0  0  0  0
  7 39  1  0  0  0  0
  8  9  1  0  0  0  0
  8 40  1  0  0  0  0
  8 41  1  0  0  0  0
  9 10  1  0  0  0  0
  9 42  1  0  0  0  0
 10 11  1  0  0  0  0
 11 16  1  0  0  0  0
 11 12  2  0  0  0  0
 12 13  1  0  0  0  0
 13 14  2  0  0  0  0
 13 43  1  0  0  0  0
 14 15  1  0  0  0  0
 15 19  1  0  0  0  0
 15 16  2  0  0  0  0
 16 17  1  0  0  0  0
 17 18  2  0  0  0  0
 18 19  1  0  0  0  0
 18 44  1  0  0  0  0
 19 20  1  0  0  0  0
 20 21  1  0  0  0  0
 20 45  1  0  0  0  0
 20 46  1  0  0  0  0
 21 26  1  0  0  0  0
 21 22  1  0  0  0  0
 21 23  1  0  0  0  0
 22 47  1  0  0  0  0
 23 24  1  0  0  0  0
 23 48  1  0  0  0  0
 23 49  1  0  0  0  0
 24 25  1  0  0  0  0
 24 50  1  0  0  0  0
 24 51  1  0  0  0  0
 25 26  1  0  0  0  0
 26 52  1  0  0  0  0
 26 53  1  0  0  0  0
M  END
> <s_m_source_file>
AV-unprocessed.smi

> <i_m_source_file_index>
189

> <i_lp_mmshare_version>
43012

> <i_f3d_flags>
0

> <s_epik_input>
W0NIMl0xW0NIMl1bQ0gyXVtDSDJdW0NASF0oW0NASF0xMilOKFtDQEhdKFtDSDNdKVtDSDJdMiljKG5bY0hdbjMpYyhjMzQpbltjSF1uNFtDSDJdW0NAQF01KFtPSF0pW0NIMl1bQ0gyXU9bQ0gyXTU=

> <s_epik_cmdline>
J2VwaWtfcHl0aG9uJywgJy1waCcsICc3LjAnLCAnLXRuJywgJzgnLCAnLW1hJywgJzIwMCcsICctbWV0YWxfYmluZGluZycsICctaW1hZScsICc8aW5maWxlLm1hZT4nLCAnLW9tYWUnLCAnPG91dGZpbGUubWFlPic=

> <r_lp_tautomer_probability>
1

> <r_epik_Ionization_Penalty>
0.00594261

> <r_epik_Ionization_Penalty_Charging>
0

> <r_epik_Ionization_Penalty_Neutral>
0.00594261

> <r_epik_State_Penalty>
0.00429776

> <r_epik_Charging_Adjusted_Penalty>
0.00429776

> <i_epik_Tot_Q>
0

> <i_epik_Tot_abs_Q>
0

> <r_epik_Metal_State_Penalty>
-0

> <b_epik_Metal_Only>
0

> <s_lp_Force_Field>
OPLS_2005

> <r_lp_Energy>
67.2452

> <b_lp_Chiralities_Consistent>
1

> <s_lp_Variant>
AV-unprocessed.smi:189-15

> <Gold.Version>
5.8.1

> <Gold.Id.Protein>
6NUR|6NUR_protein|mol2

> <Gold.PLP.Fitness>
37.7796

> <Gold.PLP.PLP>
-33.0414

> <Gold.PLP.part.hbond>
-2.9987

> <Gold.PLP.part.metal>
0.0000

> <Gold.PLP.part.buried>
-4.5185

> <Gold.PLP.part.nonpolar>
-24.9312

> <Gold.PLP.part.repulsive>
0.0368

> <Gold.PLP.ligand.clash>
0.0000

> <Gold.PLP.ligand.torsion>
0.1170

> <Gold.PLP.Chemscore.Hbond>
1.6484

> <Gold.PLP.Chemscore.CHOScore>
0.0000

> <Gold.PLP.Chemscore.Metal>
0.0000

> <Gold.Chemscore.Hbonds>
donor molecule, donor type, donor heavy atom, donor atom, acceptor molecule, acceptor atom, score
      L1  H    22    47       P1  7948  1.00
      P1  H  6896  6908       L1    17  0.44

> <Gold.PLP.Chemscore.Internal.Correction>
0.0272

> <Gold.Rescore>
     Score         DG    S(hbond)    S(metal)    S(lipo)     H(rot)  DE(clash)    DE(int)     intcor
     10.92     -12.47       0.93        0.00      77.65       2.03       0.01       1.55       ----

> <Gold.Chemscore.Fitness>
10.9198

> <Gold.Chemscore.DG>
-12.4744

> <Gold.Chemscore.ZeroCoef>
-5.4800

> <Gold.Chemscore.Hbond>
0.9299

> <Gold.Chemscore.Metal>
0.0000

> <Gold.Chemscore.Lipo>
77.6465

> <Gold.Chemscore.Internal_Hbond>
0.0000

> <Gold.Chemscore.DEClash>
0.0060

> <Gold.Chemscore.DEInternal>
1.5486

> <Gold.Chemscore.Rot>
2.0297

> <Gold.Chemscore.Internal.Correction>
   9.000000E+99

> <Gold.Chemscore.Hbonds>
donor molecule, donor type, donor heavy atom, donor atom, acceptor molecule, acceptor atom, score
      L1  H    22    47       P1  7948  0.45
      P1  H  6896  6908       L1    17  0.01

> <Gold.Chemscore.Hbond.Weighted>
-3.1057

> <Gold.Chemscore.Metal.Weighted>
-0.0000

> <Gold.Chemscore.Lipo.Weighted>
-9.0846

> <Gold.Chemscore.Internal_Hbond.Weighted>
0.0000

> <Gold.Chemscore.DEClash.Weighted>
0.0060

> <Gold.Chemscore.DEInternal.Weighted>
1.5486

> <Gold.Chemscore.Rot.Weighted>
5.1960

> <Gold.Chemscore.Internal.Correction.Weighted>
   9.000000E+99

> <Gold.Protein.RotatedTorsions>
[ 6907 6896 6895 6894 ] final -171.06 input  -60.11 | X-H torsion
[ 7974 7965 7964 7962 ] final  -73.09 input  175.53 | X-H torsion
[ 8008 7997 7996 7995 ] final -140.96 input   59.86 | X-H torsion
[ 10167 10162 10161 10158 ] final -178.77 input  -65.29 | X-H torsion
[ 10718 10713 10712 10709 ] final -147.69 input   66.30 | X-H torsion
[ 10763 10752 10751 10750 ] final  -26.39 input  -60.55 | X-H torsion
[ 11005 11000 10999 10996 ] final  138.21 input  -57.11 | X-H torsion

> <Gold.Protein.ActiveResidues>
 VAL166  LYS551  ARG553  GLY616  TRP617  ASP618  TYR619  PRO620  LYS621  CYS622 
 ASP623  PHE694  ASN695  SER759  ASP760  ASP761  ALA762  ILE779  LEU786  VAL792 
 PHE793  MET794  SER795  GLU796  ALA797  LYS798  CYS799  TRP800  GLU811  SER814 

> <Gold.Protein.RotatedAtoms>
  151.5178  133.3472  159.2895 H   0  0  0  0  0  0  0  0  0  0  0  0  # atno 6907 bound_to 6896
  150.8671  134.8039  159.7138 H   0  0  0  0  0  0  0  0  0  0  0  0  # atno 6908 bound_to 6896
  152.4672  134.5056  159.9790 H   0  0  0  0  0  0  0  0  0  0  0  0  # atno 6909 bound_to 6896
  145.6566  140.9266  143.0956 H   0  0  0  0  0  0  0  0  0  0  0  0  # atno 7974 bound_to 7965
  155.4700  140.0552  157.2981 H   0  0  0  0  0  0  0  0  0  0  0  0  # atno 8008 bound_to 7997
  154.4702  140.2037  155.9967 H   0  0  0  0  0  0  0  0  0  0  0  0  # atno 8009 bound_to 7997
  156.1043  140.3214  155.7989 H   0  0  0  0  0  0  0  0  0  0  0  0  # atno 8010 bound_to 7997
  139.5417  144.2345  152.0908 H   0  0  0  0  0  0  0  0  0  0  0  0  # atno 10167 bound_to 10162
  156.4107  130.7980  151.2197 H   0  0  0  0  0  0  0  0  0  0  0  0  # atno 10718 bound_to 10713
  153.7152  135.6948  153.5027 H   0  0  0  0  0  0  0  0  0  0  0  0  # atno 10763 bound_to 10752
  153.2243  135.4359  155.0523 H   0  0  0  0  0  0  0  0  0  0  0  0  # atno 10764 bound_to 10752
  154.8302  135.3468  154.6688 H   0  0  0  0  0  0  0  0  0  0  0  0  # atno 10765 bound_to 10752
  140.0168  134.9415  157.0392 H   0  0  0  0  0  0  0  0  0  0  0  0  # atno 11005 bound_to 11000
  144.7104  139.8395  143.7416 LP  0  0  0  0  0  0  0  0  0  0  0  0  # atno 17320 bound_to 7965
  146.1160  139.4171  143.0258 LP  0  0  0  0  0  0  0  0  0  0  0  0  # atno 17321 bound_to 7965
  140.1825  144.4831  150.6521 LP  0  0  0  0  0  0  0  0  0  0  0  0  # atno 17342 bound_to 10162
  140.6649  143.2264  151.5766 LP  0  0  0  0  0  0  0  0  0  0  0  0  # atno 17343 bound_to 10162
  157.7507  131.0258  150.3937 LP  0  0  0  0  0  0  0  0  0  0  0  0  # atno 17370 bound_to 10713
  156.4234  130.3957  149.6809 LP  0  0  0  0  0  0  0  0  0  0  0  0  # atno 17371 bound_to 10713
  140.4457  134.1634  155.7177 LP  0  0  0  0  0  0  0  0  0  0  0  0  # atno 17394 bound_to 11000
  141.1748  133.8537  157.1457 LP  0  0  0  0  0  0  0  0  0  0  0  0  # atno 17395 bound_to 11000

$$$$
