AV-unprocessed.smi:1701|AV-procd|sdf|6835|dock3
  -GOLD-   22720 8 13D 1   1.00000     0.00000
 Structure written by MMmdl.
 54 56  0  0  0  0  0  0  0  0  2 V2000
  152.2896  139.6885  158.8659 C   0  0  0  0  0  0  0  0  0  0  0  0
  151.3067  140.8677  158.8929 C   0  0  0  0  0  0  0  0  0  0  0  0
  150.8193  141.2407  157.5649 N   0  0  0  0  0  0  0  0  0  0  0  0
  151.0613  142.6001  157.0750 C   0  0  0  0  0  0  0  0  0  0  0  0
  151.7885  143.4884  158.0963 C   0  0  0  0  0  0  0  0  0  0  0  0
  150.2647  140.2653  156.6987 C   0  0  0  0  0  0  0  0  0  0  0  0
  150.3396  140.3874  155.2878 C   0  0  0  0  0  0  0  0  0  0  0  0
  149.7745  139.3877  154.4732 C   0  0  0  0  0  0  0  0  0  0  0  0
  149.1368  138.2844  155.0840 C   0  0  0  0  0  0  0  0  0  0  0  0
  148.5465  137.2033  154.3768 N   0  0  0  0  0  0  0  0  0  0  0  0
  147.7396  136.2302  154.8436 C   0  0  0  0  0  0  0  0  0  0  0  0
  147.3784  136.1184  156.0124 O   0  0  0  0  0  0  0  0  0  0  0  0
  147.3667  135.3324  153.9134 N   0  0  0  0  0  0  0  0  0  0  0  0
  146.5030  134.1612  154.0818 C   0  0  2  0  0  0  0  0  0  0  0  0
  147.2572  132.8429  153.9612 C   0  0  0  0  0  0  0  0  0  0  0  0
  146.1438  131.8273  153.6869 C   0  0  0  0  0  0  0  0  0  0  0  0
  145.0380  132.5690  153.0332 N   0  3  2  0  0  0  0  0  0  0  0  0
  144.6250  132.0059  151.7197 C   0  0  0  0  0  0  0  0  0  0  0  0
  143.7774  133.0156  150.9319 C   0  0  0  0  0  0  0  0  0  0  0  0
  144.5735  134.2964  150.6178 C   0  0  0  0  0  0  0  0  0  0  0  0
  145.7322  134.5282  151.6065 C   0  0  0  0  0  0  0  0  0  0  0  0
  145.3866  134.0186  153.0273 C   0  0  2  0  0  0  0  0  0  0  0  0
  149.1217  138.2396  156.4909 C   0  0  0  0  0  0  0  0  0  0  0  0
  149.6609  139.1959  157.2739 N   0  0  0  0  0  0  0  0  0  0  0  0
  152.5838  139.4131  159.8785 H   0  0  0  0  0  0  0  0  0  0  0  0
  153.1992  139.9397  158.3219 H   0  0  0  0  0  0  0  0  0  0  0  0
  151.8498  138.8074  158.3983 H   0  0  0  0  0  0  0  0  0  0  0  0
  150.4707  140.6557  159.5588 H   0  0  0  0  0  0  0  0  0  0  0  0
  151.8046  141.7312  159.3351 H   0  0  0  0  0  0  0  0  0  0  0  0
  151.6193  142.5682  156.1387 H   0  0  0  0  0  0  0  0  0  0  0  0
  150.1052  143.0612  156.8262 H   0  0  0  0  0  0  0  0  0  0  0  0
  151.9444  144.4877  157.6904 H   0  0  0  0  0  0  0  0  0  0  0  0
  152.7668  143.0836  158.3555 H   0  0  0  0  0  0  0  0  0  0  0  0
  151.2174  143.5949  159.0175 H   0  0  0  0  0  0  0  0  0  0  0  0
  150.8142  141.2284  154.8073 H   0  0  0  0  0  0  0  0  0  0  0  0
  149.8544  139.4844  153.4017 H   0  0  0  0  0  0  0  0  0  0  0  0
  148.8188  137.1246  153.4085 H   0  0  0  0  0  0  0  0  0  0  0  0
  147.7471  135.4672  152.9873 H   0  0  0  0  0  0  0  0  0  0  0  0
  146.0519  134.1883  155.0760 H   0  0  0  0  0  0  0  0  0  0  0  0
  147.9431  132.8753  153.1132 H   0  0  0  0  0  0  0  0  0  0  0  0
  147.8371  132.6019  154.8526 H   0  0  0  0  0  0  0  0  0  0  0  0
  146.5063  130.9854  153.0952 H   0  0  0  0  0  0  0  0  0  0  0  0
  145.7658  131.4234  154.6267 H   0  0  0  0  0  0  0  0  0  0  0  0
  145.5042  131.7399  151.1302 H   0  0  0  0  0  0  0  0  0  0  0  0
  144.0675  131.0841  151.8882 H   0  0  0  0  0  0  0  0  0  0  0  0
  143.4103  132.5691  150.0072 H   0  0  0  0  0  0  0  0  0  0  0  0
  142.8936  133.2697  151.5187 H   0  0  0  0  0  0  0  0  0  0  0  0
  144.9774  134.2477  149.6060 H   0  0  0  0  0  0  0  0  0  0  0  0
  143.8936  135.1489  150.6317 H   0  0  0  0  0  0  0  0  0  0  0  0
  146.6234  134.0126  151.2462 H   0  0  0  0  0  0  0  0  0  0  0  0
  145.9803  135.5897  151.6164 H   0  0  0  0  0  0  0  0  0  0  0  0
  144.5095  134.5714  153.3670 H   0  0  0  0  0  0  0  0  0  0  0  0
  148.6580  137.4123  157.0085 H   0  0  0  0  0  0  0  0  0  0  0  0
  144.2400  132.4819  153.6463 H   0  0  0  0  0  0  0  0  0  0  0  0
  1  2  1  0  0  0  0
  1 25  1  0  0  0  0
  1 26  1  0  0  0  0
  1 27  1  0  0  0  0
  2  3  1  0  0  0  0
  2 28  1  0  0  0  0
  2 29  1  0  0  0  0
  3  4  1  0  0  0  0
  3  6  1  0  0  0  0
  4  5  1  0  0  0  0
  4 30  1  0  0  0  0
  4 31  1  0  0  0  0
  5 32  1  0  0  0  0
  5 33  1  0  0  0  0
  5 34  1  0  0  0  0
  6 24  1  0  0  0  0
  6  7  2  0  0  0  0
  7  8  1  0  0  0  0
  7 35  1  0  0  0  0
  8  9  2  0  0  0  0
  8 36  1  0  0  0  0
  9 10  1  0  0  0  0
  9 23  1  0  0  0  0
 10 11  1  0  0  0  0
 10 37  1  0  0  0  0
 11 12  2  0  0  0  0
 11 13  1  0  0  0  0
 13 14  1  0  0  0  0
 13 38  1  0  0  0  0
 14 22  1  0  0  0  0
 14 15  1  0  0  0  0
 14 39  1  0  0  0  0
 15 16  1  0  0  0  0
 15 40  1  0  0  0  0
 15 41  1  0  0  0  0
 16 17  1  0  0  0  0
 16 42  1  0  0  0  0
 16 43  1  0  0  0  0
 17 22  1  0  0  0  0
 17 18  1  0  0  0  0
 17 54  1  0  0  0  0
 18 19  1  0  0  0  0
 18 44  1  0  0  0  0
 18 45  1  0  0  0  0
 19 20  1  0  0  0  0
 19 46  1  0  0  0  0
 19 47  1  0  0  0  0
 20 21  1  0  0  0  0
 20 48  1  0  0  0  0
 20 49  1  0  0  0  0
 21 22  1  0  0  0  0
 21 50  1  0  0  0  0
 21 51  1  0  0  0  0
 22 52  1  0  0  0  0
 23 24  2  0  0  0  0
 23 53  1  0  0  0  0
M  CHG  1  17   1
M  END
> <s_m_source_file>
AV-unprocessed.smi

> <i_m_source_file_index>
1701

> <i_lp_mmshare_version>
43012

> <i_f3d_flags>
0

> <s_epik_input>
W0NIM11bQ0gyXU4oW0NIMl1bQ0gzXSljMVtjSF1bY0hdYyhbY0hdbjEpW05IXUMoPU8pW05IXVtDQEhdKFtDSDJdW0NIMl0yKVtDQEBIXShOMjMpW0NIMl1bQ0gyXVtDSDJdW0NIMl0z

> <s_epik_cmdline>
J2VwaWtfcHl0aG9uJywgJy1waCcsICc3LjAnLCAnLXRuJywgJzgnLCAnLW1hJywgJzIwMCcsICctbWV0YWxfYmluZGluZycsICctaW1hZScsICc8aW5maWxlLm1hZT4nLCAnLW9tYWUnLCAnPG91dGZpbGUubWFlPic=

> <r_lp_tautomer_probability>
1

> <r_epik_Ionization_Penalty>
0.56662

> <r_epik_Ionization_Penalty_Charging>
0.000974069

> <r_epik_Ionization_Penalty_Neutral>
0.565646

> <r_epik_State_Penalty>
2.0247

> <r_epik_Charging_Adjusted_Penalty>
2.02568

> <i_epik_Tot_Q>
1

> <i_epik_Tot_abs_Q>
1

> <r_epik_Metal_State_Penalty>
1.51504

> <b_epik_Metal_Only>
0

> <s_lp_Force_Field>
OPLS_2005

> <r_lp_Energy>
59.1107

> <b_lp_Chiralities_Consistent>
1

> <s_lp_Variant>
AV-unprocessed.smi:1701-15

> <Gold.Version>
5.8.1

> <Gold.Id.Protein>
6NUR|6NUR_protein|mol2

> <Gold.PLP.Fitness>
44.7431

> <Gold.PLP.PLP>
-34.0354

> <Gold.PLP.part.hbond>
-2.9533

> <Gold.PLP.part.metal>
0.0000

> <Gold.PLP.part.buried>
-5.1802

> <Gold.PLP.part.nonpolar>
-27.8086

> <Gold.PLP.part.repulsive>
0.0277

> <Gold.PLP.ligand.clash>
0.0000

> <Gold.PLP.ligand.torsion>
0.4668

> <Gold.PLP.Chemscore.Hbond>
3.8525

> <Gold.PLP.Chemscore.CHOScore>
0.0000

> <Gold.PLP.Chemscore.Metal>
0.0000

> <Gold.Chemscore.Hbonds>
donor molecule, donor type, donor heavy atom, donor atom, acceptor molecule, acceptor atom, score
      L1  H    10    37       P1  7948  1.00
      L1  H    13    38       P1  7948  1.00
      L1  H    17    54       P1 10957  1.89

> <Gold.PLP.Chemscore.Internal.Correction>
0.0837

> <Gold.Rescore>
     Score         DG    S(hbond)    S(metal)    S(lipo)     H(rot)  DE(clash)    DE(int)     intcor
     19.51     -21.38       2.72        0.00      86.25       1.28       0.02       1.85       ----

> <Gold.Chemscore.Fitness>
19.5060

> <Gold.Chemscore.DG>
-21.3792

> <Gold.Chemscore.ZeroCoef>
-5.4800

> <Gold.Chemscore.Hbond>
2.7229

> <Gold.Chemscore.Metal>
0.0000

> <Gold.Chemscore.Lipo>
86.2498

> <Gold.Chemscore.Internal_Hbond>
0.0000

> <Gold.Chemscore.DEClash>
0.0234

> <Gold.Chemscore.DEInternal>
1.8497

> <Gold.Chemscore.Rot>
1.2838

> <Gold.Chemscore.Internal.Correction>
   9.000000E+99

> <Gold.Chemscore.Hbonds>
donor molecule, donor type, donor heavy atom, donor atom, acceptor molecule, acceptor atom, score
      L1  H    10    37       P1  7948  0.97
      L1  H    13    38       P1  7948  0.96
      L1  H    17    54       P1 10957  0.31

> <Gold.Chemscore.Hbond.Weighted>
-9.0945

> <Gold.Chemscore.Metal.Weighted>
-0.0000

> <Gold.Chemscore.Lipo.Weighted>
-10.0912

> <Gold.Chemscore.Internal_Hbond.Weighted>
0.0000

> <Gold.Chemscore.DEClash.Weighted>
0.0234

> <Gold.Chemscore.DEInternal.Weighted>
1.8497

> <Gold.Chemscore.Rot.Weighted>
3.2865

> <Gold.Chemscore.Internal.Correction.Weighted>
   9.000000E+99

> <Gold.Protein.RotatedTorsions>
[ 6907 6896 6895 6894 ] final  144.32 input  -60.11 | X-H torsion
[ 7974 7965 7964 7962 ] final    6.81 input  175.53 | X-H torsion
[ 8008 7997 7996 7995 ] final -105.50 input   59.86 | X-H torsion
[ 10167 10162 10161 10158 ] final  148.19 input  -65.29 | X-H torsion
[ 10718 10713 10712 10709 ] final  165.26 input   66.30 | X-H torsion
[ 10763 10752 10751 10750 ] final  124.78 input  -60.55 | X-H torsion
[ 11005 11000 10999 10996 ] final   90.27 input  -57.11 | X-H torsion

> <Gold.Protein.ActiveResidues>
 VAL166  LYS551  ARG553  GLY616  TRP617  ASP618  TYR619  PRO620  LYS621  CYS622 
 ASP623  PHE694  ASN695  SER759  ASP760  ASP761  ALA762  ILE779  LEU786  VAL792 
 PHE793  MET794  SER795  GLU796  ALA797  LYS798  CYS799  TRP800  GLU811  SER814 

> <Gold.Protein.RotatedAtoms>
  152.1951  133.4801  159.5028 H   0  0  0  0  0  0  0  0  0  0  0  0  # atno 6907 bound_to 6896
  150.6958  134.1662  159.4204 H   0  0  0  0  0  0  0  0  0  0  0  0  # atno 6908 bound_to 6896
  151.9578  135.0138  160.0596 H   0  0  0  0  0  0  0  0  0  0  0  0  # atno 6909 bound_to 6896
  146.2432  140.0177  142.8401 H   0  0  0  0  0  0  0  0  0  0  0  0  # atno 7974 bound_to 7965
  154.9007  140.0413  157.1891 H   0  0  0  0  0  0  0  0  0  0  0  0  # atno 8008 bound_to 7997
  154.8446  140.2920  155.5616 H   0  0  0  0  0  0  0  0  0  0  0  0  # atno 8009 bound_to 7997
  156.2993  140.2476  156.3395 H   0  0  0  0  0  0  0  0  0  0  0  0  # atno 8010 bound_to 7997
  139.4878  144.5698  151.7076 H   0  0  0  0  0  0  0  0  0  0  0  0  # atno 10167 bound_to 10162
  157.0827  131.0396  151.2569 H   0  0  0  0  0  0  0  0  0  0  0  0  # atno 10718 bound_to 10713
  153.6669  135.3337  155.3142 H   0  0  0  0  0  0  0  0  0  0  0  0  # atno 10763 bound_to 10752
  154.8501  135.4377  154.1746 H   0  0  0  0  0  0  0  0  0  0  0  0  # atno 10764 bound_to 10752
  153.2727  135.7002  153.7540 H   0  0  0  0  0  0  0  0  0  0  0  0  # atno 10765 bound_to 10752
  139.8859  134.8603  156.3261 H   0  0  0  0  0  0  0  0  0  0  0  0  # atno 11005 bound_to 11000
  145.1269  140.9495  143.4567 LP  0  0  0  0  0  0  0  0  0  0  0  0  # atno 17320 bound_to 7965
  145.0426  139.3248  143.5969 LP  0  0  0  0  0  0  0  0  0  0  0  0  # atno 17321 bound_to 7965
  140.5283  144.0770  150.6045 LP  0  0  0  0  0  0  0  0  0  0  0  0  # atno 17342 bound_to 10162
  140.3752  143.2833  152.0233 LP  0  0  0  0  0  0  0  0  0  0  0  0  # atno 17343 bound_to 10162
  157.4787  130.7752  149.7393 LP  0  0  0  0  0  0  0  0  0  0  0  0  # atno 17370 bound_to 10713
  155.9919  130.3934  150.2964 LP  0  0  0  0  0  0  0  0  0  0  0  0  # atno 17371 bound_to 10713
  140.9754  133.7300  156.0595 LP  0  0  0  0  0  0  0  0  0  0  0  0  # atno 17394 bound_to 11000
  140.7817  134.3718  157.5486 LP  0  0  0  0  0  0  0  0  0  0  0  0  # atno 17395 bound_to 11000

$$$$
