AV-unprocessed.smi:2526|AV-procd|sdf|9936|dock5
  -GOLD-   2272013583D 1   1.00000     0.00000
 Structure written by MMmdl.
 29 30  0  0  0  0  0  0  0  0  2 V2000
  141.1120  137.0827  154.5645 C   0  0  0  0  0  0  0  0  0  0  0  0
  142.0449  136.4564  153.6524 N   0  0  0  0  0  0  0  0  0  0  0  0
  142.2438  135.1147  153.4114 C   0  0  0  0  0  0  0  0  0  0  0  0
  143.2354  135.0035  152.4741 C   0  0  0  0  0  0  0  0  0  0  0  0
  143.8508  133.7621  151.8594 C   0  0  2  0  0  0  0  0  0  0  0  0
  144.6376  133.0250  152.8518 N   0  0  0  0  0  0  0  0  0  0  0  0
  145.9721  133.0815  153.0207 C   0  0  0  0  0  0  0  0  0  0  0  0
  146.5223  132.5130  153.9602 O   0  0  0  0  0  0  0  0  0  0  0  0
  146.8302  133.8304  151.9868 C   0  0  0  0  0  0  0  0  0  0  0  0
  146.0317  134.7402  151.0355 C   0  0  0  0  0  0  0  0  0  0  0  0
  144.7132  134.0784  150.6131 C   0  0  2  0  0  0  0  0  0  0  0  0
  143.9903  134.8868  149.6134 N   0  3  0  0  0  0  0  0  0  0  0  0
  143.5675  136.3613  152.1953 C   0  0  0  0  0  0  0  0  0  0  0  0
  142.8617  137.2250  152.9049 N   0  0  0  0  0  0  0  0  0  0  0  0
  140.5486  136.3216  155.1048 H   0  0  0  0  0  0  0  0  0  0  0  0
  140.4155  137.7099  154.0073 H   0  0  0  0  0  0  0  0  0  0  0  0
  141.6540  137.6984  155.2830 H   0  0  0  0  0  0  0  0  0  0  0  0
  141.6728  134.3559  153.9267 H   0  0  0  0  0  0  0  0  0  0  0  0
  143.0530  133.0869  151.5473 H   0  0  0  0  0  0  0  0  0  0  0  0
  144.1133  132.4843  153.5250 H   0  0  0  0  0  0  0  0  0  0  0  0
  147.5984  134.4094  152.5003 H   0  0  0  0  0  0  0  0  0  0  0  0
  147.3548  133.0747  151.4012 H   0  0  0  0  0  0  0  0  0  0  0  0
  145.8375  135.6987  151.5191 H   0  0  0  0  0  0  0  0  0  0  0  0
  146.6380  134.9615  150.1566 H   0  0  0  0  0  0  0  0  0  0  0  0
  144.9578  133.1363  150.1199 H   0  0  0  0  0  0  0  0  0  0  0  0
  144.0532  135.8635  149.8637 H   0  0  0  0  0  0  0  0  0  0  0  0
  143.0200  134.6075  149.5897 H   0  0  0  0  0  0  0  0  0  0  0  0
  144.3048  136.7424  151.5040 H   0  0  0  0  0  0  0  0  0  0  0  0
  144.4033  134.7458  148.7025 H   0  0  0  0  0  0  0  0  0  0  0  0
  1  2  1  0  0  0  0
  1 15  1  0  0  0  0
  1 16  1  0  0  0  0
  1 17  1  0  0  0  0
  2 14  1  0  0  0  0
  2  3  1  0  0  0  0
  3  4  2  0  0  0  0
  3 18  1  0  0  0  0
  4  5  1  0  0  0  0
  4 13  1  0  0  0  0
  5 11  1  0  0  0  0
  5  6  1  0  0  0  0
  5 19  1  0  0  0  0
  6  7  1  0  0  0  0
  6 20  1  0  0  0  0
  7  8  2  0  0  0  0
  7  9  1  0  0  0  0
  9 10  1  0  0  0  0
  9 21  1  0  0  0  0
  9 22  1  0  0  0  0
 10 11  1  0  0  0  0
 10 23  1  0  0  0  0
 10 24  1  0  0  0  0
 11 12  1  0  0  0  0
 11 25  1  0  0  0  0
 12 26  1  0  0  0  0
 12 27  1  0  0  0  0
 12 29  1  0  0  0  0
 13 14  2  0  0  0  0
 13 28  1  0  0  0  0
M  CHG  1  12   1
M  END
> <s_m_source_file>
AV-unprocessed.smi

> <i_m_source_file_index>
2526

> <i_lp_mmshare_version>
43012

> <i_f3d_flags>
0

> <s_epik_input>
W0NIM11uMVtjSF1jKFtjSF1uMSlbQ0BASF0yW05IXUMoPU8pW0NIMl1bQ0gyXVtDQEhdMltOSDJd

> <s_epik_cmdline>
J2VwaWtfcHl0aG9uJywgJy1waCcsICc3LjAnLCAnLXRuJywgJzgnLCAnLW1hJywgJzIwMCcsICctbWV0YWxfYmluZGluZycsICctaW1hZScsICc8aW5maWxlLm1hZT4nLCAnLW9tYWUnLCAnPG91dGZpbGUubWFlPic=

> <r_lp_tautomer_probability>
1

> <r_epik_Ionization_Penalty>
0.00878543

> <r_epik_Ionization_Penalty_Charging>
0.00874185

> <r_epik_Ionization_Penalty_Neutral>
4.35793e-05

> <r_epik_State_Penalty>
0.00660351

> <r_epik_Charging_Adjusted_Penalty>
0.0153454

> <i_epik_Tot_Q>
1

> <i_epik_Tot_abs_Q>
1

> <r_epik_Metal_State_Penalty>
0.00660727

> <b_epik_Metal_Only>
0

> <s_lp_Force_Field>
OPLS_2005

> <r_lp_Energy>
11.1602

> <b_lp_Chiralities_Consistent>
1

> <s_lp_Variant>
AV-unprocessed.smi:2526-3

> <Gold.Version>
5.8.1

> <Gold.Id.Protein>
6NUR|6NUR_protein|mol2

> <Gold.PLP.Fitness>
38.0863

> <Gold.PLP.PLP>
-22.5459

> <Gold.PLP.part.hbond>
-3.0000

> <Gold.PLP.part.metal>
0.0000

> <Gold.PLP.part.buried>
-3.8101

> <Gold.PLP.part.nonpolar>
-16.0590

> <Gold.PLP.part.repulsive>
0.4260

> <Gold.PLP.ligand.clash>
0.0000

> <Gold.PLP.ligand.torsion>
0.2193

> <Gold.PLP.Chemscore.Hbond>
4.0000

> <Gold.PLP.Chemscore.CHOScore>
1.3200

> <Gold.PLP.Chemscore.Metal>
0.0000

> <Gold.Chemscore.Hbonds>
donor molecule, donor type, donor heavy atom, donor atom, acceptor molecule, acceptor atom, score
      L1  H     6    20       P1 10957  0.99
      L1  H    12    27       P1 10186  2.00
      L1  H    12    29       P1  7921  0.91
      L1  C     3    18       P1 10957  0.11
      L1  C    13    28       P1 10171  0.87

> <Gold.PLP.Chemscore.Internal.Correction>
0.0189

> <Gold.Rescore>
     Score         DG    S(hbond)    S(metal)    S(lipo)     H(rot)  DE(clash)    DE(int)     intcor
     16.33     -16.95       2.76        0.00      41.27       1.00       0.06       0.56       ----

> <Gold.Chemscore.Fitness>
16.3316

> <Gold.Chemscore.DG>
-16.9512

> <Gold.Chemscore.ZeroCoef>
-5.4800

> <Gold.Chemscore.Hbond>
2.7551

> <Gold.Chemscore.Metal>
0.0000

> <Gold.Chemscore.Lipo>
41.2739

> <Gold.Chemscore.Internal_Hbond>
0.0000

> <Gold.Chemscore.DEClash>
0.0619

> <Gold.Chemscore.DEInternal>
0.5578

> <Gold.Chemscore.Rot>
1.0000

> <Gold.Chemscore.Internal.Correction>
   9.000000E+99

> <Gold.Chemscore.Hbonds>
donor molecule, donor type, donor heavy atom, donor atom, acceptor molecule, acceptor atom, score
      L1  H     6    20       P1 10957  0.24
      L1  H    12    27       P1 10186  0.90
      L1  H    12    29       P1  7921  0.84

> <Gold.Chemscore.Hbond.Weighted>
-9.2022

> <Gold.Chemscore.Metal.Weighted>
-0.0000

> <Gold.Chemscore.Lipo.Weighted>
-4.8290

> <Gold.Chemscore.Internal_Hbond.Weighted>
0.0000

> <Gold.Chemscore.DEClash.Weighted>
0.0619

> <Gold.Chemscore.DEInternal.Weighted>
0.5578

> <Gold.Chemscore.Rot.Weighted>
2.5600

> <Gold.Chemscore.Internal.Correction.Weighted>
   9.000000E+99

> <Gold.Protein.RotatedTorsions>
[ 6907 6896 6895 6894 ] final  131.88 input  -60.11 | X-H torsion
[ 7974 7965 7964 7962 ] final -121.31 input  175.53 | X-H torsion
[ 8008 7997 7996 7995 ] final -118.07 input   59.86 | X-H torsion
[ 10167 10162 10161 10158 ] final  -82.22 input  -65.29 | X-H torsion
[ 10718 10713 10712 10709 ] final   38.37 input   66.30 | X-H torsion
[ 10763 10752 10751 10750 ] final   -7.59 input  -60.55 | X-H torsion
[ 11005 11000 10999 10996 ] final -173.33 input  -57.11 | X-H torsion

> <Gold.Protein.ActiveResidues>
 VAL166  LYS551  ARG553  GLY616  TRP617  ASP618  TYR619  PRO620  LYS621  CYS622 
 ASP623  PHE694  ASN695  SER759  ASP760  ASP761  ALA762  ILE779  LEU786  VAL792 
 PHE793  MET794  SER795  GLU796  ALA797  LYS798  CYS799  TRP800  GLU811  SER814 

> <Gold.Protein.RotatedAtoms>
  152.3381  133.6035  159.5856 H   0  0  0  0  0  0  0  0  0  0  0  0  # atno 6907 bound_to 6896
  150.7462  133.9765  159.3571 H   0  0  0  0  0  0  0  0  0  0  0  0  # atno 6908 bound_to 6896
  151.7632  135.0805  160.0400 H   0  0  0  0  0  0  0  0  0  0  0  0  # atno 6909 bound_to 6896
  145.0417  140.8150  143.4262 H   0  0  0  0  0  0  0  0  0  0  0  0  # atno 7974 bound_to 7965
  155.0937  140.0395  157.2676 H   0  0  0  0  0  0  0  0  0  0  0  0  # atno 8008 bound_to 7997
  154.6812  140.2633  155.6882 H   0  0  0  0  0  0  0  0  0  0  0  0  # atno 8009 bound_to 7997
  156.2695  140.2778  156.1356 H   0  0  0  0  0  0  0  0  0  0  0  0  # atno 8010 bound_to 7997
  140.4340  143.2538  151.8719 H   0  0  0  0  0  0  0  0  0  0  0  0  # atno 10167 bound_to 10162
  157.3581  130.7634  149.7027 H   0  0  0  0  0  0  0  0  0  0  0  0  # atno 10718 bound_to 10713
  153.4286  135.7011  153.6246 H   0  0  0  0  0  0  0  0  0  0  0  0  # atno 10763 bound_to 10752
  153.4670  135.3723  155.2370 H   0  0  0  0  0  0  0  0  0  0  0  0  # atno 10764 bound_to 10752
  154.8725  135.4034  154.3666 H   0  0  0  0  0  0  0  0  0  0  0  0  # atno 10765 bound_to 10752
  140.4870  134.6021  157.4940 H   0  0  0  0  0  0  0  0  0  0  0  0  # atno 11005 bound_to 11000
  145.1639  139.2443  143.5377 LP  0  0  0  0  0  0  0  0  0  0  0  0  # atno 17320 bound_to 7965
  146.3510  140.1373  142.8595 LP  0  0  0  0  0  0  0  0  0  0  0  0  # atno 17321 bound_to 7965
  139.4786  144.5303  151.8676 LP  0  0  0  0  0  0  0  0  0  0  0  0  # atno 17342 bound_to 10162
  140.4394  144.2006  150.5890 LP  0  0  0  0  0  0  0  0  0  0  0  0  # atno 17343 bound_to 10162
  155.9732  130.4121  150.4018 LP  0  0  0  0  0  0  0  0  0  0  0  0  # atno 17370 bound_to 10713
  157.2091  131.0456  151.2609 LP  0  0  0  0  0  0  0  0  0  0  0  0  # atno 17371 bound_to 10713
  139.9792  134.7165  155.9891 LP  0  0  0  0  0  0  0  0  0  0  0  0  # atno 17394 bound_to 11000
  141.1503  133.6549  156.3993 LP  0  0  0  0  0  0  0  0  0  0  0  0  # atno 17395 bound_to 11000

$$$$
