AV-unprocessed.smi:3321|AV-procd|sdf|12770|dock7
  -GOLD-   2272019113D 1   1.00000     0.00000
 Structure written by MMmdl.
 41 42  0  0  0  0  0  0  0  0  2 V2000
  147.1813  140.5131  153.9486 C   0  0  0  0  0  0  0  0  0  0  0  0
  148.0638  139.2553  153.8876 C   0  0  1  0  0  0  0  0  0  0  0  0
  147.9457  138.6412  152.5439 N   0  3  0  0  0  0  0  0  0  0  0  0
  146.5840  138.6459  151.9677 C   0  0  0  0  0  0  0  0  0  0  0  0
  145.6372  137.7637  152.7939 C   0  0  0  0  0  0  0  0  0  0  0  0
  145.1545  136.6278  152.0328 N   0  0  0  0  0  0  0  0  0  0  0  0
  145.8366  135.8560  151.1158 C   0  0  0  0  0  0  0  0  0  0  0  0
  144.9661  134.9116  150.6527 C   0  0  0  0  0  0  0  0  0  0  0  0
  143.7590  135.1924  151.3520 C   0  0  0  0  0  0  0  0  0  0  0  0
  143.8744  136.2218  152.1758 N   0  0  0  0  0  0  0  0  0  0  0  0
  149.5268  139.6138  154.2271 C   0  0  0  0  0  0  0  0  0  0  0  0
  149.8215  140.8066  154.3263 O   0  0  0  0  0  0  0  0  0  0  0  0
  150.4444  138.6307  154.4086 N   0  0  0  0  0  0  0  0  0  0  0  0
  151.8623  138.8166  154.7474 C   0  0  0  0  0  0  0  0  0  0  0  0
  152.0804  138.3818  156.2075 C   0  0  0  0  0  0  0  0  0  0  0  0
  151.6301  136.9227  156.4142 C   0  0  0  0  0  0  0  0  0  0  0  0
  150.2124  136.6782  155.8617 C   0  0  0  0  0  0  0  0  0  0  0  0
  150.0802  137.2071  154.4209 C   0  0  0  0  0  0  0  0  0  0  0  0
  147.2219  140.9904  154.9282 H   0  0  0  0  0  0  0  0  0  0  0  0
  146.1374  140.2668  153.7524 H   0  0  0  0  0  0  0  0  0  0  0  0
  147.4903  141.2536  153.2095 H   0  0  0  0  0  0  0  0  0  0  0  0
  147.6809  138.5186  154.5934 H   0  0  0  0  0  0  0  0  0  0  0  0
  148.5439  139.1543  151.9127 H   0  0  0  0  0  0  0  0  0  0  0  0
  146.1990  139.6657  151.9341 H   0  0  0  0  0  0  0  0  0  0  0  0
  146.6321  138.2864  150.9389 H   0  0  0  0  0  0  0  0  0  0  0  0
  146.1405  137.3913  153.6873 H   0  0  0  0  0  0  0  0  0  0  0  0
  144.7779  138.3443  153.1320 H   0  0  0  0  0  0  0  0  0  0  0  0
  146.8725  136.0401  150.8706 H   0  0  0  0  0  0  0  0  0  0  0  0
  145.1607  134.1392  149.9236 H   0  0  0  0  0  0  0  0  0  0  0  0
  142.8085  134.6841  151.2844 H   0  0  0  0  0  0  0  0  0  0  0  0
  152.4704  138.1984  154.0851 H   0  0  0  0  0  0  0  0  0  0  0  0
  152.2277  139.8299  154.5955 H   0  0  0  0  0  0  0  0  0  0  0  0
  153.1309  138.4891  156.4792 H   0  0  0  0  0  0  0  0  0  0  0  0
  151.5182  139.0384  156.8730 H   0  0  0  0  0  0  0  0  0  0  0  0
  152.3290  136.2599  155.9026 H   0  0  0  0  0  0  0  0  0  0  0  0
  151.6747  136.6592  157.4715 H   0  0  0  0  0  0  0  0  0  0  0  0
  149.9776  135.6140  155.8947 H   0  0  0  0  0  0  0  0  0  0  0  0
  149.4813  137.1765  156.4999 H   0  0  0  0  0  0  0  0  0  0  0  0
  149.0715  137.0202  154.0501 H   0  0  0  0  0  0  0  0  0  0  0  0
  150.7451  136.6551  153.7549 H   0  0  0  0  0  0  0  0  0  0  0  0
  148.2770  137.6883  152.6002 H   0  0  0  0  0  0  0  0  0  0  0  0
  1  2  1  0  0  0  0
  1 19  1  0  0  0  0
  1 20  1  0  0  0  0
  1 21  1  0  0  0  0
  2  3  1  0  0  0  0
  2 11  1  0  0  0  0
  2 22  1  0  0  0  0
  3  4  1  0  0  0  0
  3 23  1  0  0  0  0
  3 41  1  0  0  0  0
  4  5  1  0  0  0  0
  4 24  1  0  0  0  0
  4 25  1  0  0  0  0
  5  6  1  0  0  0  0
  5 26  1  0  0  0  0
  5 27  1  0  0  0  0
  6 10  1  0  0  0  0
  6  7  1  0  0  0  0
  7  8  2  0  0  0  0
  7 28  1  0  0  0  0
  8  9  1  0  0  0  0
  8 29  1  0  0  0  0
  9 10  2  0  0  0  0
  9 30  1  0  0  0  0
 11 12  2  0  0  0  0
 11 13  1  0  0  0  0
 13 18  1  0  0  0  0
 13 14  1  0  0  0  0
 14 15  1  0  0  0  0
 14 31  1  0  0  0  0
 14 32  1  0  0  0  0
 15 16  1  0  0  0  0
 15 33  1  0  0  0  0
 15 34  1  0  0  0  0
 16 17  1  0  0  0  0
 16 35  1  0  0  0  0
 16 36  1  0  0  0  0
 17 18  1  0  0  0  0
 17 37  1  0  0  0  0
 17 38  1  0  0  0  0
 18 39  1  0  0  0  0
 18 40  1  0  0  0  0
M  CHG  1   3   1
M  END
> <s_m_source_file>
AV-unprocessed.smi

> <i_m_source_file_index>
3321

> <i_lp_mmshare_version>
43012

> <i_f3d_flags>
0

> <s_epik_input>
W0NIMl0xW0NIMl1bQ0gyXVtDSDJdW0NIMl1OMUMoPU8pW0NASF0oW0NIM10pW05IXVtDSDJdW0NIMl1uMltjSF1bY0hdW2NIXW4y

> <s_epik_cmdline>
J2VwaWtfcHl0aG9uJywgJy1waCcsICc3LjAnLCAnLXRuJywgJzgnLCAnLW1hJywgJzIwMCcsICctbWV0YWxfYmluZGluZycsICctaW1hZScsICc8aW5maWxlLm1hZT4nLCAnLW9tYWUnLCAnPG91dGZpbGUubWFlPic=

> <r_lp_tautomer_probability>
1

> <r_epik_Ionization_Penalty>
0.202061

> <r_epik_Ionization_Penalty_Charging>
0.202058

> <r_epik_Ionization_Penalty_Neutral>
2.46932e-06

> <r_epik_State_Penalty>
0.191938

> <r_epik_Charging_Adjusted_Penalty>
0.393996

> <i_epik_Tot_Q>
1

> <i_epik_Tot_abs_Q>
1

> <r_epik_Metal_State_Penalty>
0.192188

> <b_epik_Metal_Only>
0

> <s_lp_Force_Field>
OPLS_2005

> <r_lp_Energy>
26.1916

> <b_lp_Chiralities_Consistent>
1

> <s_lp_Variant>
AV-unprocessed.smi:3321-2

> <Gold.Version>
5.8.1

> <Gold.Id.Protein>
6NUR|6NUR_protein|mol2

> <Gold.PLP.Fitness>
46.6585

> <Gold.PLP.PLP>
-32.5513

> <Gold.PLP.part.hbond>
-3.0000

> <Gold.PLP.part.metal>
0.0000

> <Gold.PLP.part.buried>
-0.1681

> <Gold.PLP.part.nonpolar>
-30.1324

> <Gold.PLP.part.repulsive>
0.3723

> <Gold.PLP.ligand.clash>
0.0000

> <Gold.PLP.ligand.torsion>
0.9928

> <Gold.PLP.Chemscore.Hbond>
3.6400

> <Gold.PLP.Chemscore.CHOScore>
1.6998

> <Gold.PLP.Chemscore.Metal>
0.0000

> <Gold.Chemscore.Hbonds>
donor molecule, donor type, donor heavy atom, donor atom, acceptor molecule, acceptor atom, score
      L1  H     3    23       P1  7957  1.00
      L1  H     3    41       P1  7948  2.00
      P1  H  7989  7998       L1    12  0.64
      L1  C     7    28       P1  7948  1.00
      L1  C     9    30       P1 10186  0.56

> <Gold.PLP.Chemscore.Internal.Correction>
0.0735

> <Gold.Rescore>
     Score         DG    S(hbond)    S(metal)    S(lipo)     H(rot)  DE(clash)    DE(int)     intcor
     16.90     -18.23       2.82        0.00      67.65       1.79       0.08       1.25       ----

> <Gold.Chemscore.Fitness>
16.9046

> <Gold.Chemscore.DG>
-18.2338

> <Gold.Chemscore.ZeroCoef>
-5.4800

> <Gold.Chemscore.Hbond>
2.8228

> <Gold.Chemscore.Metal>
0.0000

> <Gold.Chemscore.Lipo>
67.6499

> <Gold.Chemscore.Internal_Hbond>
0.0000

> <Gold.Chemscore.DEClash>
0.0821

> <Gold.Chemscore.DEInternal>
1.2471

> <Gold.Chemscore.Rot>
1.7928

> <Gold.Chemscore.Internal.Correction>
   9.000000E+99

> <Gold.Chemscore.Hbonds>
donor molecule, donor type, donor heavy atom, donor atom, acceptor molecule, acceptor atom, score
      L1  H     3    23       P1  7957  0.94
      L1  H     3    41       P1  7948  0.94
      P1  H  7989  7998       L1    12  0.25

> <Gold.Chemscore.Hbond.Weighted>
-9.4282

> <Gold.Chemscore.Metal.Weighted>
-0.0000

> <Gold.Chemscore.Lipo.Weighted>
-7.9150

> <Gold.Chemscore.Internal_Hbond.Weighted>
0.0000

> <Gold.Chemscore.DEClash.Weighted>
0.0821

> <Gold.Chemscore.DEInternal.Weighted>
1.2471

> <Gold.Chemscore.Rot.Weighted>
4.5895

> <Gold.Chemscore.Internal.Correction.Weighted>
   9.000000E+99

> <Gold.Protein.RotatedTorsions>
[ 6907 6896 6895 6894 ] final  -62.99 input  -60.11 | X-H torsion
[ 7974 7965 7964 7962 ] final   39.78 input  175.53 | X-H torsion
[ 8008 7997 7996 7995 ] final  -55.97 input   59.86 | X-H torsion
[ 10167 10162 10161 10158 ] final -120.89 input  -65.29 | X-H torsion
[ 10718 10713 10712 10709 ] final -128.49 input   66.30 | X-H torsion
[ 10763 10752 10751 10750 ] final  121.59 input  -60.55 | X-H torsion
[ 11005 11000 10999 10996 ] final   11.69 input  -57.11 | X-H torsion

> <Gold.Protein.ActiveResidues>
 VAL166  LYS551  ARG553  GLY616  TRP617  ASP618  TYR619  PRO620  LYS621  CYS622 
 ASP623  PHE694  ASN695  SER759  ASP760  ASP761  ALA762  ILE779  LEU786  VAL792 
 PHE793  MET794  SER795  GLU796  ALA797  LYS798  CYS799  TRP800  GLU811  SER814 

> <Gold.Protein.RotatedAtoms>
  150.7679  134.6496  159.6280 H   0  0  0  0  0  0  0  0  0  0  0  0  # atno 6907 bound_to 6896
  152.3718  134.6719  160.0182 H   0  0  0  0  0  0  0  0  0  0  0  0  # atno 6908 bound_to 6896
  151.7076  133.3275  159.3319 H   0  0  0  0  0  0  0  0  0  0  0  0  # atno 6909 bound_to 6896
  146.0957  139.5611  142.9446 H   0  0  0  0  0  0  0  0  0  0  0  0  # atno 7974 bound_to 7965
  154.4213  140.1140  156.5562 H   0  0  0  0  0  0  0  0  0  0  0  0  # atno 8008 bound_to 7997
  155.6359  140.3496  155.4679 H   0  0  0  0  0  0  0  0  0  0  0  0  # atno 8009 bound_to 7997
  155.9910  140.1179  157.0627 H   0  0  0  0  0  0  0  0  0  0  0  0  # atno 8010 bound_to 7997
  140.0310  143.5248  152.2176 H   0  0  0  0  0  0  0  0  0  0  0  0  # atno 10167 bound_to 10162
  156.1956  130.6824  151.0477 H   0  0  0  0  0  0  0  0  0  0  0  0  # atno 10718 bound_to 10713
  153.6165  135.3421  155.2996 H   0  0  0  0  0  0  0  0  0  0  0  0  # atno 10763 bound_to 10752
  154.8608  135.4262  154.2253 H   0  0  0  0  0  0  0  0  0  0  0  0  # atno 10764 bound_to 10752
  153.3116  135.7032  153.7183 H   0  0  0  0  0  0  0  0  0  0  0  0  # atno 10765 bound_to 10752
  140.5004  134.0751  155.7792 H   0  0  0  0  0  0  0  0  0  0  0  0  # atno 11005 bound_to 11000
  145.5952  141.0363  143.2048 LP  0  0  0  0  0  0  0  0  0  0  0  0  # atno 17320 bound_to 7965
  144.7394  139.7493  143.7317 LP  0  0  0  0  0  0  0  0  0  0  0  0  # atno 17321 bound_to 7965
  139.6076  144.7600  151.3026 LP  0  0  0  0  0  0  0  0  0  0  0  0  # atno 17342 bound_to 10162
  140.7302  143.6886  150.7940 LP  0  0  0  0  0  0  0  0  0  0  0  0  # atno 17343 bound_to 10162
  157.6955  131.0795  150.6981 LP  0  0  0  0  0  0  0  0  0  0  0  0  # atno 17370 bound_to 10713
  156.7037  130.4631  149.5566 LP  0  0  0  0  0  0  0  0  0  0  0  0  # atno 17371 bound_to 10713
  141.1438  133.9091  157.2263 LP  0  0  0  0  0  0  0  0  0  0  0  0  # atno 17394 bound_to 11000
  139.9716  135.0126  156.9527 LP  0  0  0  0  0  0  0  0  0  0  0  0  # atno 17395 bound_to 11000

$$$$
