AV-unprocessed.smi:44|AV-procd|sdf|397|dock2
  -GOLD-   2262016253D 1   1.00000     0.00000
 Structure written by MMmdl.
 29 31  0  0  0  0  0  0  0  0  1 V2000
  152.1159  138.9293  155.4763 O   0  0  0  0  0  0  0  0  0  0  0  0
  151.6882  139.9600  155.9915 C   0  0  0  0  0  0  0  0  0  0  0  0
  150.7274  140.7365  155.4342 N   0  0  0  0  0  0  0  0  0  0  0  0
  150.2329  141.9281  156.0212 C   0  0  0  0  0  0  0  0  0  0  0  0
  150.6328  142.4234  157.1637 N   0  0  0  0  0  0  0  0  0  0  0  0
  151.6092  141.6488  157.7574 C   0  0  0  0  0  0  0  0  0  0  0  0
  152.1660  140.4877  157.2913 C   0  0  0  0  0  0  0  0  0  0  0  0
  153.1202  139.9932  158.1713 N   0  0  0  0  0  0  0  0  0  0  0  0
  153.0940  140.8943  159.1511 C   0  0  0  0  0  0  0  0  0  0  0  0
  152.2253  141.9096  158.9801 N   0  0  0  0  0  0  0  0  0  0  0  0
  151.9902  143.0410  159.9276 C   0  0  1  0  0  0  0  0  0  0  0  0
  152.5586  144.3523  159.3765 C   0  0  0  0  0  0  0  0  0  0  0  0
  151.5801  145.3525  159.9501 C   0  0  0  0  0  0  0  0  0  0  0  0
  150.2713  144.5690  159.8265 C   0  0  2  0  0  0  0  0  0  0  0  0
  149.0934  145.0317  160.7009 C   0  0  0  0  0  0  0  0  0  0  0  0
  148.0523  144.0777  160.7333 O   0  0  0  0  0  0  0  0  0  0  0  0
  150.6127  143.2112  160.0918 O   0  0  0  0  0  0  0  0  0  0  0  0
  150.3453  140.4415  154.5476 H   0  0  0  0  0  0  0  0  0  0  0  0
  152.4433  142.7362  160.8722 H   0  0  0  0  0  0  0  0  0  0  0  0
  149.9499  144.6051  158.7845 H   0  0  0  0  0  0  0  0  0  0  0  0
  149.4647  142.4124  155.4168 H   0  0  0  0  0  0  0  0  0  0  0  0
  153.7269  140.8127  160.0225 H   0  0  0  0  0  0  0  0  0  0  0  0
  153.5887  144.5041  159.6995 H   0  0  0  0  0  0  0  0  0  0  0  0
  152.5182  144.3585  158.2863 H   0  0  0  0  0  0  0  0  0  0  0  0
  151.8326  145.5566  160.9911 H   0  0  0  0  0  0  0  0  0  0  0  0
  151.5650  146.2974  159.4066 H   0  0  0  0  0  0  0  0  0  0  0  0
  149.4349  145.1868  161.7245 H   0  0  0  0  0  0  0  0  0  0  0  0
  148.7049  145.9864  160.3456 H   0  0  0  0  0  0  0  0  0  0  0  0
  147.2606  144.4874  160.4202 H   0  0  0  0  0  0  0  0  0  0  0  0
  1  2  2  0  0  0  0
  2  7  1  0  0  0  0
  2  3  1  0  0  0  0
  3 18  1  0  0  0  0
  3  4  1  0  0  0  0
  4  5  2  0  0  0  0
  4 21  1  0  0  0  0
  5  6  1  0  0  0  0
  6 10  1  0  0  0  0
  6  7  2  0  0  0  0
  7  8  1  0  0  0  0
  8  9  2  0  0  0  0
  9 10  1  0  0  0  0
  9 22  1  0  0  0  0
 10 11  1  0  0  0  0
 11 19  1  0  0  0  0
 11 17  1  0  0  0  0
 11 12  1  0  0  0  0
 12 13  1  0  0  0  0
 12 23  1  0  0  0  0
 12 24  1  0  0  0  0
 13 14  1  0  0  0  0
 13 25  1  0  0  0  0
 13 26  1  0  0  0  0
 14 20  1  0  0  0  0
 14 15  1  0  0  0  0
 14 17  1  0  0  0  0
 15 16  1  0  0  0  0
 15 27  1  0  0  0  0
 15 28  1  0  0  0  0
 16 29  1  0  0  0  0
M  END
> <s_m_source_file>
AV-unprocessed.smi

> <i_m_source_file_index>
44

> <i_lp_mmshare_version>
43012

> <i_f3d_flags>
0

> <s_epik_input>
bjFbY0hdW25IXWMoPU8pYyhjMTIpbltjSF1uMltDQEhdM1tDSDJdW0NIMl1bQ0BIXShPMylbQ0gyXVtPSF0=

> <s_epik_cmdline>
J2VwaWtfcHl0aG9uJywgJy1waCcsICc3LjAnLCAnLXRuJywgJzgnLCAnLW1hJywgJzIwMCcsICctbWV0YWxfYmluZGluZycsICctaW1hZScsICc8aW5maWxlLm1hZT4nLCAnLW9tYWUnLCAnPG91dGZpbGUubWFlPic=

> <r_lp_tautomer_probability>
0.85571

> <r_epik_Ionization_Penalty>
0.00801444

> <r_epik_Ionization_Penalty_Charging>
0.00794574

> <r_epik_Ionization_Penalty_Neutral>
6.87072e-05

> <r_epik_State_Penalty>
0.0826172

> <r_epik_Charging_Adjusted_Penalty>
0.090563

> <i_epik_Tot_Q>
0

> <i_epik_Tot_abs_Q>
0

> <r_epik_Metal_State_Penalty>
0.440697

> <b_epik_Metal_Only>
0

> <s_epik_Chemistry_Notes>
This compound contains an acetal/aminal-like group ( X-CH(R)-Y where X, Y are N, S, or O) that may be acid/base labile, releasing an aldehyde.

> <s_lp_Force_Field>
OPLS_2005

> <r_lp_Energy>
42.4933

> <b_lp_Chiralities_Consistent>
1

> <s_lp_Variant>
AV-unprocessed.smi:44-3

> <Gold.Version>
5.8.1

> <Gold.Id.Protein>
6NUR|6NUR_protein|mol2

> <Gold.PLP.Fitness>
42.5188

> <Gold.PLP.PLP>
-34.7256

> <Gold.PLP.part.hbond>
-3.0000

> <Gold.PLP.part.metal>
0.0000

> <Gold.PLP.part.buried>
-5.7052

> <Gold.PLP.part.nonpolar>
-26.0794

> <Gold.PLP.part.repulsive>
0.4117

> <Gold.PLP.ligand.clash>
0.0000

> <Gold.PLP.ligand.torsion>
0.3836

> <Gold.PLP.Chemscore.Hbond>
2.0000

> <Gold.PLP.Chemscore.CHOScore>
0.8519

> <Gold.PLP.Chemscore.Metal>
0.0000

> <Gold.Chemscore.Hbonds>
donor molecule, donor type, donor heavy atom, donor atom, acceptor molecule, acceptor atom, score
      P1  H  6933  6944       L1    16  1.00
      P1  H  7997  8008       L1     8  0.98
      L1  C     4    21       P1  8028  0.87

> <Gold.PLP.Chemscore.Internal.Correction>
0.0048

> <Gold.Rescore>
     Score         DG    S(hbond)    S(metal)    S(lipo)     H(rot)  DE(clash)    DE(int)     intcor
      8.55     -10.45       1.61        0.00      46.14       2.27       0.03       1.87       ----

> <Gold.Chemscore.Fitness>
8.5490

> <Gold.Chemscore.DG>
-10.4456

> <Gold.Chemscore.ZeroCoef>
-5.4800

> <Gold.Chemscore.Hbond>
1.6119

> <Gold.Chemscore.Metal>
0.0000

> <Gold.Chemscore.Lipo>
46.1384

> <Gold.Chemscore.Internal_Hbond>
0.0000

> <Gold.Chemscore.DEClash>
0.0305

> <Gold.Chemscore.DEInternal>
1.8660

> <Gold.Chemscore.Rot>
2.2720

> <Gold.Chemscore.Internal.Correction>
   9.000000E+99

> <Gold.Chemscore.Hbonds>
donor molecule, donor type, donor heavy atom, donor atom, acceptor molecule, acceptor atom, score
      P1  H  6933  6944       L1    16  0.92
      P1  H  7997  8008       L1     8  0.31

> <Gold.Chemscore.Hbond.Weighted>
-5.3838

> <Gold.Chemscore.Metal.Weighted>
-0.0000

> <Gold.Chemscore.Lipo.Weighted>
-5.3982

> <Gold.Chemscore.Internal_Hbond.Weighted>
0.0000

> <Gold.Chemscore.DEClash.Weighted>
0.0305

> <Gold.Chemscore.DEInternal.Weighted>
1.8660

> <Gold.Chemscore.Rot.Weighted>
5.8164

> <Gold.Chemscore.Internal.Correction.Weighted>
   9.000000E+99

> <Gold.Protein.RotatedTorsions>
[ 6907 6896 6895 6894 ] final -176.64 input  -60.11 | X-H torsion
[ 7974 7965 7964 7962 ] final -179.55 input  175.53 | X-H torsion
[ 8008 7997 7996 7995 ] final  -95.89 input   59.86 | X-H torsion
[ 10167 10162 10161 10158 ] final  -15.85 input  -65.29 | X-H torsion
[ 10718 10713 10712 10709 ] final  -86.80 input   66.30 | X-H torsion
[ 10763 10752 10751 10750 ] final -160.36 input  -60.55 | X-H torsion
[ 11005 11000 10999 10996 ] final  -85.70 input  -57.11 | X-H torsion

> <Gold.Protein.ActiveResidues>
 VAL166  LYS551  ARG553  GLY616  TRP617  ASP618  TYR619  PRO620  LYS621  CYS622 
 ASP623  PHE694  ASN695  SER759  ASP760  ASP761  ALA762  ILE779  LEU786  VAL792 
 PHE793  MET794  SER795  GLU796  ALA797  LYS798  CYS799  TRP800  GLU811  SER814 

> <Gold.Protein.RotatedAtoms>
  151.6081  133.3350  159.3061 H   0  0  0  0  0  0  0  0  0  0  0  0  # atno 6907 bound_to 6896
  150.8171  134.7362  159.6751 H   0  0  0  0  0  0  0  0  0  0  0  0  # atno 6908 bound_to 6896
  152.4266  134.5861  160.0013 H   0  0  0  0  0  0  0  0  0  0  0  0  # atno 6909 bound_to 6896
  144.7137  140.0701  143.6429 H   0  0  0  0  0  0  0  0  0  0  0  0  # atno 7974 bound_to 7965
  154.7672  140.0476  157.1022 H   0  0  0  0  0  0  0  0  0  0  0  0  # atno 8008 bound_to 7997
  154.9864  140.3108  155.4905 H   0  0  0  0  0  0  0  0  0  0  0  0  # atno 8009 bound_to 7997
  156.2915  140.2226  156.4967 H   0  0  0  0  0  0  0  0  0  0  0  0  # atno 8010 bound_to 7997
  140.7225  143.5176  150.9673 H   0  0  0  0  0  0  0  0  0  0  0  0  # atno 10167 bound_to 10162
  155.9988  130.4778  150.4770 H   0  0  0  0  0  0  0  0  0  0  0  0  # atno 10718 bound_to 10713
  154.7397  135.3065  154.8750 H   0  0  0  0  0  0  0  0  0  0  0  0  # atno 10763 bound_to 10752
  153.9568  135.6757  153.4749 H   0  0  0  0  0  0  0  0  0  0  0  0  # atno 10764 bound_to 10752
  153.0996  135.4918  154.8767 H   0  0  0  0  0  0  0  0  0  0  0  0  # atno 10765 bound_to 10752
  141.1638  133.7414  156.9053 H   0  0  0  0  0  0  0  0  0  0  0  0  # atno 11005 bound_to 11000
  145.9791  139.2927  143.1053 LP  0  0  0  0  0  0  0  0  0  0  0  0  # atno 17320 bound_to 7965
  145.9031  140.9230  143.0493 LP  0  0  0  0  0  0  0  0  0  0  0  0  # atno 17321 bound_to 7965
  139.8892  143.6974  152.3147 LP  0  0  0  0  0  0  0  0  0  0  0  0  # atno 17342 bound_to 10162
  139.7284  144.7588  151.0842 LP  0  0  0  0  0  0  0  0  0  0  0  0  # atno 17343 bound_to 10162
  157.2779  131.0601  151.2217 LP  0  0  0  0  0  0  0  0  0  0  0  0  # atno 17370 bound_to 10713
  157.3274  130.6967  149.6304 LP  0  0  0  0  0  0  0  0  0  0  0  0  # atno 17371 bound_to 10713
  140.1554  134.9202  157.2647 LP  0  0  0  0  0  0  0  0  0  0  0  0  # atno 17394 bound_to 11000
  140.2673  134.3501  155.7385 LP  0  0  0  0  0  0  0  0  0  0  0  0  # atno 17395 bound_to 11000

$$$$
