AV-unprocessed.smi:1709|AV-procd|sdf|6895|dock8
  -GOLD-   22720 8103D 1   1.00000     0.00000
 Structure written by MMmdl.
 43 45  0  0  0  0  0  0  0  0  2 V2000
  147.7816  133.0509  152.4359 C   0  0  0  0  0  0  0  0  0  0  0  0
  146.4726  133.1004  151.6641 C   0  0  0  0  0  0  0  0  0  0  0  0
  145.8688  131.8915  151.2574 C   0  0  0  0  0  0  0  0  0  0  0  0
  144.6604  131.9349  150.5420 C   0  0  0  0  0  0  0  0  0  0  0  0
  144.1048  133.1937  150.2599 C   0  0  0  0  0  0  0  0  0  0  0  0
  144.6758  134.3537  150.6441 N   0  0  0  0  0  0  0  0  0  0  0  0
  145.8409  134.3320  151.3421 C   0  0  0  0  0  0  0  0  0  0  0  0
  146.5201  135.5129  151.7755 N   0  0  0  0  0  0  0  0  0  0  0  0
  146.0895  136.5936  152.4604 C   0  0  0  0  0  0  0  0  0  0  0  0
  144.9206  136.6873  152.8306 O   0  0  0  0  0  0  0  0  0  0  0  0
  147.0068  137.5433  152.7072 N   0  0  0  0  0  0  0  0  0  0  0  0
  146.7814  138.7791  153.4530 C   0  0  2  0  0  0  0  0  0  0  0  0
  146.5956  140.0024  152.5343 C   0  0  0  0  0  0  0  0  0  0  0  0
  147.4031  141.1196  153.2026 C   0  0  0  0  0  0  0  0  0  0  0  0
  148.5133  140.3935  153.8296 N   0  3  1  0  0  0  0  0  0  0  0  0
  149.3780  141.1161  154.7845 C   0  0  0  0  0  0  0  0  0  0  0  0
  150.5636  140.2010  155.1592 C   0  0  0  0  0  0  0  0  0  0  0  0
  150.0977  138.8106  155.6468 C   0  0  0  0  0  0  0  0  0  0  0  0
  149.0970  138.1645  154.6647 C   0  0  0  0  0  0  0  0  0  0  0  0
  147.9499  139.1553  154.3942 C   0  0  2  0  0  0  0  0  0  0  0  0
  148.0932  132.0231  152.6244 H   0  0  0  0  0  0  0  0  0  0  0  0
  147.6774  133.5500  153.3997 H   0  0  0  0  0  0  0  0  0  0  0  0
  148.5747  133.5442  151.8734 H   0  0  0  0  0  0  0  0  0  0  0  0
  146.3242  130.9397  151.4893 H   0  0  0  0  0  0  0  0  0  0  0  0
  144.1734  131.0272  150.2174 H   0  0  0  0  0  0  0  0  0  0  0  0
  143.1783  133.2734  149.7113 H   0  0  0  0  0  0  0  0  0  0  0  0
  147.4810  135.5710  151.4705 H   0  0  0  0  0  0  0  0  0  0  0  0
  147.9433  137.3820  152.3632 H   0  0  0  0  0  0  0  0  0  0  0  0
  145.8768  138.6713  154.0550 H   0  0  0  0  0  0  0  0  0  0  0  0
  147.0132  139.8011  151.5463 H   0  0  0  0  0  0  0  0  0  0  0  0
  145.5475  140.2711  152.3987 H   0  0  0  0  0  0  0  0  0  0  0  0
  147.7543  141.8690  152.4925 H   0  0  0  0  0  0  0  0  0  0  0  0
  146.8083  141.6186  153.9694 H   0  0  0  0  0  0  0  0  0  0  0  0
  149.7431  142.0367  154.3279 H   0  0  0  0  0  0  0  0  0  0  0  0
  148.8070  141.3972  155.6707 H   0  0  0  0  0  0  0  0  0  0  0  0
  151.2049  140.0734  154.2860 H   0  0  0  0  0  0  0  0  0  0  0  0
  151.1786  140.6784  155.9227 H   0  0  0  0  0  0  0  0  0  0  0  0
  150.9580  138.1562  155.7891 H   0  0  0  0  0  0  0  0  0  0  0  0
  149.6258  138.9135  156.6247 H   0  0  0  0  0  0  0  0  0  0  0  0
  149.6027  137.9033  153.7340 H   0  0  0  0  0  0  0  0  0  0  0  0
  148.7113  137.2372  155.0889 H   0  0  0  0  0  0  0  0  0  0  0  0
  147.4969  139.4108  155.3547 H   0  0  0  0  0  0  0  0  0  0  0  0
  149.1088  140.1046  153.0668 H   0  0  0  0  0  0  0  0  0  0  0  0
  1  2  1  0  0  0  0
  1 21  1  0  0  0  0
  1 22  1  0  0  0  0
  1 23  1  0  0  0  0
  2  7  1  0  0  0  0
  2  3  2  0  0  0  0
  3  4  1  0  0  0  0
  3 24  1  0  0  0  0
  4  5  2  0  0  0  0
  4 25  1  0  0  0  0
  5  6  1  0  0  0  0
  5 26  1  0  0  0  0
  6  7  2  0  0  0  0
  7  8  1  0  0  0  0
  8  9  1  0  0  0  0
  8 27  1  0  0  0  0
  9 10  2  0  0  0  0
  9 11  1  0  0  0  0
 11 12  1  0  0  0  0
 11 28  1  0  0  0  0
 12 20  1  0  0  0  0
 12 13  1  0  0  0  0
 12 29  1  0  0  0  0
 13 14  1  0  0  0  0
 13 30  1  0  0  0  0
 13 31  1  0  0  0  0
 14 15  1  0  0  0  0
 14 32  1  0  0  0  0
 14 33  1  0  0  0  0
 15 20  1  0  0  0  0
 15 16  1  0  0  0  0
 15 43  1  0  0  0  0
 16 17  1  0  0  0  0
 16 34  1  0  0  0  0
 16 35  1  0  0  0  0
 17 18  1  0  0  0  0
 17 36  1  0  0  0  0
 17 37  1  0  0  0  0
 18 19  1  0  0  0  0
 18 38  1  0  0  0  0
 18 39  1  0  0  0  0
 19 20  1  0  0  0  0
 19 40  1  0  0  0  0
 19 41  1  0  0  0  0
 20 42  1  0  0  0  0
M  CHG  1  15   1
M  END
> <s_m_source_file>
AV-unprocessed.smi

> <i_m_source_file_index>
1709

> <i_lp_mmshare_version>
43012

> <i_f3d_flags>
0

> <s_epik_input>
W0NIM11jMVtjSF1bY0hdW2NIXW5jMVtOSF1DKD1PKVtOSF1bQ0BIXShbQ0gyXVtDSDJdMilbQ0BASF0oTjIzKVtDSDJdW0NIMl1bQ0gyXVtDSDJdMw==

> <s_epik_cmdline>
J2VwaWtfcHl0aG9uJywgJy1waCcsICc3LjAnLCAnLXRuJywgJzgnLCAnLW1hJywgJzIwMCcsICctbWV0YWxfYmluZGluZycsICctaW1hZScsICc8aW5maWxlLm1hZT4nLCAnLW9tYWUnLCAnPG91dGZpbGUubWFlPic=

> <r_epik_Ionization_Penalty>
0.00101524

> <r_epik_Ionization_Penalty_Charging>
0.000974069

> <r_epik_Ionization_Penalty_Neutral>
4.11757e-05

> <r_epik_State_Penalty>
0.000633842

> <r_epik_Charging_Adjusted_Penalty>
0.00160791

> <i_epik_Tot_Q>
1

> <i_epik_Tot_abs_Q>
1

> <r_epik_Metal_State_Penalty>
-0

> <b_epik_Metal_Only>
0

> <s_lp_Force_Field>
OPLS_2005

> <r_lp_Energy>
46.0593

> <b_lp_Chiralities_Consistent>
1

> <s_lp_Variant>
AV-unprocessed.smi:1709-5

> <Gold.Version>
5.8.1

> <Gold.Id.Protein>
6NUR|6NUR_protein|mol2

> <Gold.PLP.Fitness>
41.8481

> <Gold.PLP.PLP>
-31.7671

> <Gold.PLP.part.hbond>
-2.9123

> <Gold.PLP.part.metal>
0.0000

> <Gold.PLP.part.buried>
-1.7917

> <Gold.PLP.part.nonpolar>
-28.5762

> <Gold.PLP.part.repulsive>
0.6141

> <Gold.PLP.ligand.clash>
0.0000

> <Gold.PLP.ligand.torsion>
0.7198

> <Gold.PLP.Chemscore.Hbond>
2.8400

> <Gold.PLP.Chemscore.CHOScore>
1.0000

> <Gold.PLP.Chemscore.Metal>
0.0000

> <Gold.Chemscore.Hbonds>
donor molecule, donor type, donor heavy atom, donor atom, acceptor molecule, acceptor atom, score
      L1  H     8    27       P1  7948  0.90
      L1  H    11    28       P1  7948  0.88
      L1  H    15    43       P1  7957  1.00
      L1  C     5    26       P1 10186  1.00

> <Gold.PLP.Chemscore.Internal.Correction>
0.0006

> <Gold.Rescore>
     Score         DG    S(hbond)    S(metal)    S(lipo)     H(rot)  DE(clash)    DE(int)     intcor
     20.25     -21.53       2.73        0.00      81.30       1.00       0.75       0.53       ----

> <Gold.Chemscore.Fitness>
20.2510

> <Gold.Chemscore.DG>
-21.5346

> <Gold.Chemscore.ZeroCoef>
-5.4800

> <Gold.Chemscore.Hbond>
2.7254

> <Gold.Chemscore.Metal>
0.0000

> <Gold.Chemscore.Lipo>
81.2977

> <Gold.Chemscore.Internal_Hbond>
0.0000

> <Gold.Chemscore.DEClash>
0.7501

> <Gold.Chemscore.DEInternal>
0.5335

> <Gold.Chemscore.Rot>
1.0000

> <Gold.Chemscore.Internal.Correction>
   9.000000E+99

> <Gold.Chemscore.Hbonds>
donor molecule, donor type, donor heavy atom, donor atom, acceptor molecule, acceptor atom, score
      L1  H     8    27       P1  7948  0.82
      L1  H    11    28       P1  7948  0.85
      L1  H    15    43       P1  7957  0.95

> <Gold.Chemscore.Hbond.Weighted>
-9.1028

> <Gold.Chemscore.Metal.Weighted>
-0.0000

> <Gold.Chemscore.Lipo.Weighted>
-9.5118

> <Gold.Chemscore.Internal_Hbond.Weighted>
0.0000

> <Gold.Chemscore.DEClash.Weighted>
0.7501

> <Gold.Chemscore.DEInternal.Weighted>
0.5335

> <Gold.Chemscore.Rot.Weighted>
2.5600

> <Gold.Chemscore.Internal.Correction.Weighted>
   9.000000E+99

> <Gold.Protein.RotatedTorsions>
[ 6907 6896 6895 6894 ] final   62.41 input  -60.11 | X-H torsion
[ 7974 7965 7964 7962 ] final  -51.96 input  175.53 | X-H torsion
[ 8008 7997 7996 7995 ] final   -0.03 input   59.86 | X-H torsion
[ 10167 10162 10161 10158 ] final  159.71 input  -65.29 | X-H torsion
[ 10718 10713 10712 10709 ] final  120.80 input   66.30 | X-H torsion
[ 10763 10752 10751 10750 ] final  154.23 input  -60.55 | X-H torsion
[ 11005 11000 10999 10996 ] final   82.37 input  -57.11 | X-H torsion

> <Gold.Protein.ActiveResidues>
 VAL166  LYS551  ARG553  GLY616  TRP617  ASP618  TYR619  PRO620  LYS621  CYS622 
 ASP623  PHE694  ASN695  SER759  ASP760  ASP761  ALA762  ILE779  LEU786  VAL792 
 PHE793  MET794  SER795  GLU796  ALA797  LYS798  CYS799  TRP800  GLU811  SER814 

> <Gold.Protein.RotatedAtoms>
  152.4170  134.6024  160.0003 H   0  0  0  0  0  0  0  0  0  0  0  0  # atno 6907 bound_to 6896
  151.6185  133.3335  159.3091 H   0  0  0  0  0  0  0  0  0  0  0  0  # atno 6908 bound_to 6896
  150.8058  134.7221  159.6709 H   0  0  0  0  0  0  0  0  0  0  0  0  # atno 6909 bound_to 6896
  145.9132  140.7897  142.9684 H   0  0  0  0  0  0  0  0  0  0  0  0  # atno 7974 bound_to 7965
  154.6627  140.2594  155.7091 H   0  0  0  0  0  0  0  0  0  0  0  0  # atno 8008 bound_to 7997
  156.2625  140.2845  156.1027 H   0  0  0  0  0  0  0  0  0  0  0  0  # atno 8009 bound_to 7997
  155.1284  140.0378  157.2758 H   0  0  0  0  0  0  0  0  0  0  0  0  # atno 8010 bound_to 7997
  139.4834  144.4704  151.8584 H   0  0  0  0  0  0  0  0  0  0  0  0  # atno 10167 bound_to 10162
  157.5864  131.1069  150.8086 H   0  0  0  0  0  0  0  0  0  0  0  0  # atno 10718 bound_to 10713
  154.1489  135.2816  155.3141 H   0  0  0  0  0  0  0  0  0  0  0  0  # atno 10763 bound_to 10752
  154.6232  135.5460  153.7601 H   0  0  0  0  0  0  0  0  0  0  0  0  # atno 10764 bound_to 10752
  153.0227  135.6444  154.1634 H   0  0  0  0  0  0  0  0  0  0  0  0  # atno 10765 bound_to 10752
  139.9066  134.8066  156.2166 H   0  0  0  0  0  0  0  0  0  0  0  0  # atno 11005 bound_to 11000
  144.6745  140.1859  143.7401 LP  0  0  0  0  0  0  0  0  0  0  0  0  # atno 17320 bound_to 7965
  145.8644  139.2239  143.1697 LP  0  0  0  0  0  0  0  0  0  0  0  0  # atno 17321 bound_to 7965
  140.4172  144.2291  150.5887 LP  0  0  0  0  0  0  0  0  0  0  0  0  # atno 17342 bound_to 10162
  140.4909  143.2348  151.8820 LP  0  0  0  0  0  0  0  0  0  0  0  0  # atno 17343 bound_to 10162
  156.8519  130.5083  149.5311 LP  0  0  0  0  0  0  0  0  0  0  0  0  # atno 17370 bound_to 10713
  156.0914  130.5898  150.9739 LP  0  0  0  0  0  0  0  0  0  0  0  0  # atno 17371 bound_to 10713
  141.0432  133.6927  156.1636 LP  0  0  0  0  0  0  0  0  0  0  0  0  # atno 17394 bound_to 11000
  140.6924  134.4652  157.5588 LP  0  0  0  0  0  0  0  0  0  0  0  0  # atno 17395 bound_to 11000

$$$$
