AV-unprocessed.smi:212|AV-procd|sdf|1622|dock4
  -GOLD-   2262019563D 1   1.00000     0.00000
 Structure written by MMmdl.
 65 68  0  0  0  0  0  0  0  0  2 V2000
  146.9260  142.2165  153.9747 C   0  0  0  0  0  0  0  0  0  0  0  0
  147.7357  141.4063  155.0012 C   0  0  1  0  0  0  0  0  0  0  0  0
  146.8309  140.7199  156.0472 C   0  0  0  0  0  0  0  0  0  0  0  0
  146.0926  139.5676  155.4669 N   0  3  2  0  0  0  0  0  0  0  0  0
  145.1247  138.9554  156.4153 C   0  0  0  0  0  0  0  0  0  0  0  0
  143.6537  139.1546  155.9796 C   0  0  0  0  0  0  0  0  0  0  0  0
  142.7262  138.2821  156.8417 C   0  0  0  0  0  0  0  0  0  0  0  0
  143.2176  140.6298  156.0522 C   0  0  0  0  0  0  0  0  0  0  0  0
  143.4974  138.7099  154.6468 O   0  0  0  0  0  0  0  0  0  0  0  0
  147.0051  138.5779  154.8383 C   0  0  0  0  0  0  0  0  0  0  0  0
  147.9109  139.2495  153.7903 C   0  0  0  0  0  0  0  0  0  0  0  0
  148.5958  140.4162  154.3490 N   0  0  0  0  0  0  0  0  0  0  0  0
  149.8309  140.2517  154.8915 C   0  0  0  0  0  0  0  0  0  0  0  0
  150.6666  139.2977  154.4010 N   0  0  0  0  0  0  0  0  0  0  0  0
  151.8788  139.1214  154.9342 C   0  0  0  0  0  0  0  0  0  0  0  0
  152.4498  139.7818  155.9426 N   0  0  0  0  0  0  0  0  0  0  0  0
  151.6225  140.7482  156.4331 C   0  0  0  0  0  0  0  0  0  0  0  0
  150.3082  141.0448  155.9735 C   0  0  0  0  0  0  0  0  0  0  0  0
  149.7751  142.0949  156.7122 N   0  0  0  0  0  0  0  0  0  0  0  0
  150.7189  142.4003  157.5606 C   0  0  0  0  0  0  0  0  0  0  0  0
  151.8674  141.6492  157.4545 N   0  0  0  0  0  0  0  0  0  0  0  0
  153.0698  141.7852  158.2592 C   0  0  0  0  0  0  0  0  0  0  0  0
  152.8741  141.3574  159.7351 C   0  0  1  0  0  0  0  0  0  0  0  0
  153.4769  139.9527  159.9757 C   0  0  0  0  0  0  0  0  0  0  0  0
  154.6910  139.8047  159.2689 O   0  0  0  0  0  0  0  0  0  0  0  0
  153.3732  142.4293  160.7462 C   0  0  2  0  0  0  0  0  0  0  0  0
  153.1889  142.0865  162.2228 C   0  0  0  0  0  0  0  0  0  0  0  0
  152.9519  143.4491  162.8585 C   0  0  0  0  0  0  0  0  0  0  0  0
  152.1619  144.1085  161.8842 O   0  0  0  0  0  0  0  0  0  0  0  0
  152.7193  143.8163  160.6090 C   0  0  0  0  0  0  0  0  0  0  0  0
  146.3375  142.9908  154.4672 H   0  0  0  0  0  0  0  0  0  0  0  0
  146.2355  141.5907  153.4092 H   0  0  0  0  0  0  0  0  0  0  0  0
  147.5869  142.7118  153.2626 H   0  0  0  0  0  0  0  0  0  0  0  0
  148.3501  142.1248  155.5436 H   0  0  0  0  0  0  0  0  0  0  0  0
  147.4384  140.3635  156.8808 H   0  0  0  0  0  0  0  0  0  0  0  0
  146.1277  141.4453  156.4586 H   0  0  0  0  0  0  0  0  0  0  0  0
  145.3474  137.8955  156.5503 H   0  0  0  0  0  0  0  0  0  0  0  0
  145.2481  139.4022  157.4031 H   0  0  0  0  0  0  0  0  0  0  0  0
  142.7809  138.5671  157.8929 H   0  0  0  0  0  0  0  0  0  0  0  0
  142.9934  137.2266  156.7740 H   0  0  0  0  0  0  0  0  0  0  0  0
  141.6850  138.3770  156.5311 H   0  0  0  0  0  0  0  0  0  0  0  0
  143.3353  141.0249  157.0619 H   0  0  0  0  0  0  0  0  0  0  0  0
  142.1694  140.7469  155.7745 H   0  0  0  0  0  0  0  0  0  0  0  0
  143.8013  141.2609  155.3809 H   0  0  0  0  0  0  0  0  0  0  0  0
  143.7481  139.4104  154.0630 H   0  0  0  0  0  0  0  0  0  0  0  0
  147.6108  138.1051  155.6126 H   0  0  0  0  0  0  0  0  0  0  0  0
  146.4304  137.7835  154.3629 H   0  0  0  0  0  0  0  0  0  0  0  0
  148.6258  138.5323  153.3850 H   0  0  0  0  0  0  0  0  0  0  0  0
  147.3095  139.5770  152.9423 H   0  0  0  0  0  0  0  0  0  0  0  0
  152.4774  138.3403  154.4890 H   0  0  0  0  0  0  0  0  0  0  0  0
  150.6074  143.1936  158.2858 H   0  0  0  0  0  0  0  0  0  0  0  0
  153.8513  141.1869  157.7894 H   0  0  0  0  0  0  0  0  0  0  0  0
  153.4076  142.8210  158.2109 H   0  0  0  0  0  0  0  0  0  0  0  0
  151.7990  141.2739  159.9030 H   0  0  0  0  0  0  0  0  0  0  0  0
  153.6690  139.7808  161.0348 H   0  0  0  0  0  0  0  0  0  0  0  0
  152.8043  139.1631  159.6436 H   0  0  0  0  0  0  0  0  0  0  0  0
  155.0724  138.9709  159.4986 H   0  0  0  0  0  0  0  0  0  0  0  0
  154.4387  142.5930  160.5817 H   0  0  0  0  0  0  0  0  0  0  0  0
  152.3125  141.4607  162.3850 H   0  0  0  0  0  0  0  0  0  0  0  0
  154.0493  141.5717  162.6500 H   0  0  0  0  0  0  0  0  0  0  0  0
  152.4405  143.3848  163.8190 H   0  0  0  0  0  0  0  0  0  0  0  0
  153.8912  143.9867  162.9993 H   0  0  0  0  0  0  0  0  0  0  0  0
  153.4738  144.5679  160.3716 H   0  0  0  0  0  0  0  0  0  0  0  0
  151.9555  143.8699  159.8338 H   0  0  0  0  0  0  0  0  0  0  0  0
  145.5344  139.9523  154.7181 H   0  0  0  0  0  0  0  0  0  0  0  0
  1  2  1  0  0  0  0
  1 31  1  0  0  0  0
  1 32  1  0  0  0  0
  1 33  1  0  0  0  0
  2 12  1  0  0  0  0
  2  3  1  0  0  0  0
  2 34  1  0  0  0  0
  3  4  1  0  0  0  0
  3 35  1  0  0  0  0
  3 36  1  0  0  0  0
  4  5  1  0  0  0  0
  4 10  1  0  0  0  0
  4 65  1  0  0  0  0
  5  6  1  0  0  0  0
  5 37  1  0  0  0  0
  5 38  1  0  0  0  0
  6  7  1  0  0  0  0
  6  8  1  0  0  0  0
  6  9  1  0  0  0  0
  7 39  1  0  0  0  0
  7 40  1  0  0  0  0
  7 41  1  0  0  0  0
  8 42  1  0  0  0  0
  8 43  1  0  0  0  0
  8 44  1  0  0  0  0
  9 45  1  0  0  0  0
 10 11  1  0  0  0  0
 10 46  1  0  0  0  0
 10 47  1  0  0  0  0
 11 12  1  0  0  0  0
 11 48  1  0  0  0  0
 11 49  1  0  0  0  0
 12 13  1  0  0  0  0
 13 18  1  0  0  0  0
 13 14  2  0  0  0  0
 14 15  1  0  0  0  0
 15 16  2  0  0  0  0
 15 50  1  0  0  0  0
 16 17  1  0  0  0  0
 17 21  1  0  0  0  0
 17 18  2  0  0  0  0
 18 19  1  0  0  0  0
 19 20  2  0  0  0  0
 20 21  1  0  0  0  0
 20 51  1  0  0  0  0
 21 22  1  0  0  0  0
 22 23  1  0  0  0  0
 22 52  1  0  0  0  0
 22 53  1  0  0  0  0
 23 24  1  0  0  0  0
 23 26  1  0  0  0  0
 23 54  1  0  0  0  0
 24 25  1  0  0  0  0
 24 55  1  0  0  0  0
 24 56  1  0  0  0  0
 25 57  1  0  0  0  0
 26 30  1  0  0  0  0
 26 27  1  0  0  0  0
 26 58  1  0  0  0  0
 27 28  1  0  0  0  0
 27 59  1  0  0  0  0
 27 60  1  0  0  0  0
 28 29  1  0  0  0  0
 28 61  1  0  0  0  0
 28 62  1  0  0  0  0
 29 30  1  0  0  0  0
 30 63  1  0  0  0  0
 30 64  1  0  0  0  0
M  CHG  1   4   1
M  END
> <s_m_source_file>
AV-unprocessed.smi

> <i_m_source_file_index>
212

> <i_lp_mmshare_version>
43012

> <i_f3d_flags>
0

> <s_epik_input>
W0NIM11bQ0BASF0xW0NIMl1OKFtDSDJdQyhbQ0gzXSkoW0NIM10pW09IXSlbQ0gyXVtDSDJdTjFjKG5bY0hdbjIpYyhjMjMpbltjSF1uM1tDSDJdW0NASF0oW0NIMl1bT0hdKVtDQEBIXTRbQ0gyXVtDSDJdT1tDSDJdNA==

> <s_epik_cmdline>
J2VwaWtfcHl0aG9uJywgJy1waCcsICc3LjAnLCAnLXRuJywgJzgnLCAnLW1hJywgJzIwMCcsICctbWV0YWxfYmluZGluZycsICctaW1hZScsICc8aW5maWxlLm1hZT4nLCAnLW9tYWUnLCAnPG91dGZpbGUubWFlPic=

> <r_lp_tautomer_probability>
1

> <r_epik_Ionization_Penalty>
0.00182193

> <r_epik_Ionization_Penalty_Charging>
0.00173996

> <r_epik_Ionization_Penalty_Neutral>
8.19718e-05

> <r_epik_State_Penalty>
-0

> <r_epik_Charging_Adjusted_Penalty>
0.00173996

> <i_epik_Tot_Q>
1

> <i_epik_Tot_abs_Q>
1

> <r_epik_Metal_State_Penalty>
-0

> <b_epik_Metal_Only>
0

> <s_lp_Force_Field>
OPLS_2005

> <r_lp_Energy>
60.7413

> <b_lp_Chiralities_Consistent>
1

> <s_lp_Variant>
AV-unprocessed.smi:212-6

> <Gold.Version>
5.8.1

> <Gold.Id.Protein>
6NUR|6NUR_protein|mol2

> <Gold.PLP.Fitness>
48.9964

> <Gold.PLP.PLP>
-42.9630

> <Gold.PLP.part.hbond>
-3.9132

> <Gold.PLP.part.metal>
0.0000

> <Gold.PLP.part.buried>
-6.7399

> <Gold.PLP.part.nonpolar>
-31.1428

> <Gold.PLP.part.repulsive>
1.2099

> <Gold.PLP.ligand.clash>
0.0128

> <Gold.PLP.ligand.torsion>
2.0199

> <Gold.PLP.Chemscore.Hbond>
3.0148

> <Gold.PLP.Chemscore.CHOScore>
0.0000

> <Gold.PLP.Chemscore.Metal>
0.0000

> <Gold.Chemscore.Hbonds>
donor molecule, donor type, donor heavy atom, donor atom, acceptor molecule, acceptor atom, score
      L1  H     9    45       P1 10175  1.00
      P1  H  7989  7998       L1    14  0.02
      P1  H  7997  8009       L1    25  0.95
      P1  H  7997  8010       L1    16  1.00

> <Gold.PLP.Chemscore.Internal.Correction>
1.0418

> <Gold.Rescore>
     Score         DG    S(hbond)    S(metal)    S(lipo)     H(rot)  DE(clash)    DE(int)     intcor
     10.30     -16.37       2.24        0.00     103.56       3.40       2.63       3.44       ----

> <Gold.Chemscore.Fitness>
10.2968

> <Gold.Chemscore.DG>
-16.3694

> <Gold.Chemscore.ZeroCoef>
-5.4800

> <Gold.Chemscore.Hbond>
2.2376

> <Gold.Chemscore.Metal>
0.0000

> <Gold.Chemscore.Lipo>
103.5576

> <Gold.Chemscore.Internal_Hbond>
0.0000

> <Gold.Chemscore.DEClash>
2.6323

> <Gold.Chemscore.DEInternal>
3.4402

> <Gold.Chemscore.Rot>
3.3986

> <Gold.Chemscore.Internal.Correction>
   9.000000E+99

> <Gold.Chemscore.Hbonds>
donor molecule, donor type, donor heavy atom, donor atom, acceptor molecule, acceptor atom, score
      L1  H     9    45       P1 10175  0.98
      P1  H  7997  8009       L1    25  0.26
      P1  H  7997  8010       L1    16  0.82

> <Gold.Chemscore.Hbond.Weighted>
-7.4736

> <Gold.Chemscore.Metal.Weighted>
-0.0000

> <Gold.Chemscore.Lipo.Weighted>
-12.1162

> <Gold.Chemscore.Internal_Hbond.Weighted>
0.0000

> <Gold.Chemscore.DEClash.Weighted>
2.6323

> <Gold.Chemscore.DEInternal.Weighted>
3.4402

> <Gold.Chemscore.Rot.Weighted>
8.7005

> <Gold.Chemscore.Internal.Correction.Weighted>
   9.000000E+99

> <Gold.Protein.RotatedTorsions>
[ 6907 6896 6895 6894 ] final  145.06 input  -60.11 | X-H torsion
[ 7974 7965 7964 7962 ] final  -57.76 input  175.53 | X-H torsion
[ 8008 7997 7996 7995 ] final  103.09 input   59.86 | X-H torsion
[ 10167 10162 10161 10158 ] final   28.77 input  -65.29 | X-H torsion
[ 10718 10713 10712 10709 ] final  154.84 input   66.30 | X-H torsion
[ 10763 10752 10751 10750 ] final   46.63 input  -60.55 | X-H torsion
[ 11005 11000 10999 10996 ] final  -42.47 input  -57.11 | X-H torsion

> <Gold.Protein.ActiveResidues>
 VAL166  LYS551  ARG553  GLY616  TRP617  ASP618  TYR619  PRO620  LYS621  CYS622 
 ASP623  PHE694  ASN695  SER759  ASP760  ASP761  ALA762  ILE779  LEU786  VAL792 
 PHE793  MET794  SER795  GLU796  ALA797  LYS798  CYS799  TRP800  GLU811  SER814 

> <Gold.Protein.RotatedAtoms>
  152.1858  133.4738  159.4981 H   0  0  0  0  0  0  0  0  0  0  0  0  # atno 6907 bound_to 6896
  150.6942  134.1776  159.4245 H   0  0  0  0  0  0  0  0  0  0  0  0  # atno 6908 bound_to 6896
  151.9689  135.0086  160.0602 H   0  0  0  0  0  0  0  0  0  0  0  0  # atno 6909 bound_to 6896
  145.8473  140.8376  143.0003 H   0  0  0  0  0  0  0  0  0  0  0  0  # atno 7974 bound_to 7965
  156.1453  140.3170  155.8560 H   0  0  0  0  0  0  0  0  0  0  0  0  # atno 8008 bound_to 7997
  155.4077  140.0504  157.3050 H   0  0  0  0  0  0  0  0  0  0  0  0  # atno 8009 bound_to 7997
  154.5010  140.2129  155.9358 H   0  0  0  0  0  0  0  0  0  0  0  0  # atno 8010 bound_to 7997
  140.4824  144.0595  150.6269 H   0  0  0  0  0  0  0  0  0  0  0  0  # atno 10167 bound_to 10162
  157.2263  131.0729  151.1881 H   0  0  0  0  0  0  0  0  0  0  0  0  # atno 10718 bound_to 10713
  152.9808  135.6002  154.3632 H   0  0  0  0  0  0  0  0  0  0  0  0  # atno 10763 bound_to 10752
  154.3312  135.2768  155.2473 H   0  0  0  0  0  0  0  0  0  0  0  0  # atno 10764 bound_to 10752
  154.4596  135.5969  153.6302 H   0  0  0  0  0  0  0  0  0  0  0  0  # atno 10765 bound_to 10752
  141.0318  133.6817  156.2599 H   0  0  0  0  0  0  0  0  0  0  0  0  # atno 11005 bound_to 11000
  144.6730  140.0901  143.7465 LP  0  0  0  0  0  0  0  0  0  0  0  0  # atno 17320 bound_to 7965
  145.9397  139.2661  143.1276 LP  0  0  0  0  0  0  0  0  0  0  0  0  # atno 17321 bound_to 7965
  140.3841  143.2787  152.0137 LP  0  0  0  0  0  0  0  0  0  0  0  0  # atno 17342 bound_to 10162
  139.4836  144.6131  151.7397 LP  0  0  0  0  0  0  0  0  0  0  0  0  # atno 17343 bound_to 10162
  157.3524  130.7089  149.6449 LP  0  0  0  0  0  0  0  0  0  0  0  0  # atno 17370 bound_to 10713
  155.9678  130.4249  150.4627 LP  0  0  0  0  0  0  0  0  0  0  0  0  # atno 17371 bound_to 10713
  140.6394  134.5182  157.5568 LP  0  0  0  0  0  0  0  0  0  0  0  0  # atno 17394 bound_to 11000
  139.9213  134.8144  156.1204 LP  0  0  0  0  0  0  0  0  0  0  0  0  # atno 17395 bound_to 11000

$$$$
