AV-unprocessed.smi:1392|AV-procd|sdf|5662|dock3
  -GOLD-   22720 5283D 1   1.00000     0.00000
 Structure written by MMmdl.
 39 40  0  0  0  0  0  0  0  0  1 V2000
  150.6339  145.3882  159.5360 C   0  0  0  0  0  0  0  0  0  0  0  0
  151.5671  144.3538  159.1078 N   0  0  0  0  0  0  0  0  0  0  0  0
  151.8170  144.1440  157.6853 C   0  0  0  0  0  0  0  0  0  0  0  0
  152.2821  143.5995  160.0663 C   0  0  0  0  0  0  0  0  0  0  0  0
  152.2944  143.9645  161.4353 C   0  0  0  0  0  0  0  0  0  0  0  0
  153.0250  143.1813  162.3487 C   0  0  0  0  0  0  0  0  0  0  0  0
  153.7343  142.0577  161.8836 C   0  0  0  0  0  0  0  0  0  0  0  0
  154.4495  141.2797  162.8342 N   0  0  0  0  0  0  0  0  0  0  0  0
  155.2043  140.1870  162.6269 C   0  0  0  0  0  0  0  0  0  0  0  0
  155.4325  139.6740  161.5318 O   0  0  0  0  0  0  0  0  0  0  0  0
  155.7057  139.7204  163.7791 N   0  0  0  0  0  0  0  0  0  0  0  0
  156.5672  138.5494  163.9049 C   0  0  0  0  0  0  0  0  0  0  0  0
  155.7615  137.2365  163.9106 C   0  0  1  0  0  0  0  0  0  0  0  0
  154.5213  137.2792  164.7789 C   0  0  0  0  0  0  0  0  0  0  0  0
  153.7248  136.0967  164.2386 C   0  0  0  0  0  0  0  0  0  0  0  0
  154.0275  136.0342  162.8483 O   0  0  0  0  0  0  0  0  0  0  0  0
  155.1646  136.8428  162.5576 C   0  0  0  0  0  0  0  0  0  0  0  0
  153.6545  141.7605  160.5029 C   0  0  0  0  0  0  0  0  0  0  0  0
  152.9535  142.5080  159.6246 N   0  0  0  0  0  0  0  0  0  0  0  0
  149.8079  144.9497  160.0966 H   0  0  0  0  0  0  0  0  0  0  0  0
  150.2116  145.9192  158.6827 H   0  0  0  0  0  0  0  0  0  0  0  0
  151.1359  146.1221  160.1674 H   0  0  0  0  0  0  0  0  0  0  0  0
  151.6366  143.1036  157.4129 H   0  0  0  0  0  0  0  0  0  0  0  0
  152.8492  144.3932  157.4373 H   0  0  0  0  0  0  0  0  0  0  0  0
  151.1653  144.7650  157.0708 H   0  0  0  0  0  0  0  0  0  0  0  0
  151.7582  144.8260  161.8034 H   0  0  0  0  0  0  0  0  0  0  0  0
  153.0408  143.4470  163.3958 H   0  0  0  0  0  0  0  0  0  0  0  0
  154.4216  141.6249  163.7823 H   0  0  0  0  0  0  0  0  0  0  0  0
  155.4730  140.2077  164.6321 H   0  0  0  0  0  0  0  0  0  0  0  0
  157.3004  138.5388  163.0968 H   0  0  0  0  0  0  0  0  0  0  0  0
  157.1336  138.6463  164.8315 H   0  0  0  0  0  0  0  0  0  0  0  0
  156.3944  136.4199  164.2630 H   0  0  0  0  0  0  0  0  0  0  0  0
  154.7392  137.1930  165.8438 H   0  0  0  0  0  0  0  0  0  0  0  0
  153.9703  138.2066  164.6157 H   0  0  0  0  0  0  0  0  0  0  0  0
  154.0561  135.1696  164.7085 H   0  0  0  0  0  0  0  0  0  0  0  0
  152.6535  136.2005  164.4112 H   0  0  0  0  0  0  0  0  0  0  0  0
  154.8254  137.7244  162.0122 H   0  0  0  0  0  0  0  0  0  0  0  0
  155.8786  136.3112  161.9278 H   0  0  0  0  0  0  0  0  0  0  0  0
  154.1381  140.8983  160.0720 H   0  0  0  0  0  0  0  0  0  0  0  0
  1  2  1  0  0  0  0
  1 20  1  0  0  0  0
  1 21  1  0  0  0  0
  1 22  1  0  0  0  0
  2  3  1  0  0  0  0
  2  4  1  0  0  0  0
  3 23  1  0  0  0  0
  3 24  1  0  0  0  0
  3 25  1  0  0  0  0
  4 19  1  0  0  0  0
  4  5  2  0  0  0  0
  5  6  1  0  0  0  0
  5 26  1  0  0  0  0
  6  7  2  0  0  0  0
  6 27  1  0  0  0  0
  7  8  1  0  0  0  0
  7 18  1  0  0  0  0
  8  9  1  0  0  0  0
  8 28  1  0  0  0  0
  9 10  2  0  0  0  0
  9 11  1  0  0  0  0
 11 12  1  0  0  0  0
 11 29  1  0  0  0  0
 12 13  1  0  0  0  0
 12 30  1  0  0  0  0
 12 31  1  0  0  0  0
 13 17  1  0  0  0  0
 13 14  1  0  0  0  0
 13 32  1  0  0  0  0
 14 15  1  0  0  0  0
 14 33  1  0  0  0  0
 14 34  1  0  0  0  0
 15 16  1  0  0  0  0
 15 35  1  0  0  0  0
 15 36  1  0  0  0  0
 16 17  1  0  0  0  0
 17 37  1  0  0  0  0
 17 38  1  0  0  0  0
 18 19  2  0  0  0  0
 18 39  1  0  0  0  0
M  END
> <s_m_source_file>
AV-unprocessed.smi

> <i_m_source_file_index>
1392

> <i_lp_mmshare_version>
43012

> <i_f3d_flags>
0

> <s_epik_input>
W0NIM11OKFtDSDNdKWMxW2NIXVtjSF1jKFtjSF1uMSlbTkhdQyg9TylbTkhdW0NIMl1bQ0BASF0yW0NIMl1bQ0gyXU9bQ0gyXTI=

> <s_epik_cmdline>
J2VwaWtfcHl0aG9uJywgJy1waCcsICc3LjAnLCAnLXRuJywgJzgnLCAnLW1hJywgJzIwMCcsICctbWV0YWxfYmluZGluZycsICctaW1hZScsICc8aW5maWxlLm1hZT4nLCAnLW9tYWUnLCAnPG91dGZpbGUubWFlPic=

> <r_lp_tautomer_probability>
1

> <r_epik_Ionization_Penalty>
0.612298

> <r_epik_Ionization_Penalty_Charging>
0

> <r_epik_Ionization_Penalty_Neutral>
0.612298

> <r_epik_State_Penalty>
0.626495

> <r_epik_Charging_Adjusted_Penalty>
0.626495

> <i_epik_Tot_Q>
0

> <i_epik_Tot_abs_Q>
0

> <r_epik_Metal_State_Penalty>
0.304101

> <b_epik_Metal_Only>
0

> <s_lp_Force_Field>
OPLS_2005

> <r_lp_Energy>
23.0629

> <b_lp_Chiralities_Consistent>
1

> <s_lp_Variant>
AV-unprocessed.smi:1392-4

> <Gold.Version>
5.8.1

> <Gold.Id.Protein>
6NUR|6NUR_protein|mol2

> <Gold.PLP.Fitness>
44.5347

> <Gold.PLP.PLP>
-45.1693

> <Gold.PLP.part.hbond>
-1.0000

> <Gold.PLP.part.metal>
0.0000

> <Gold.PLP.part.buried>
-5.1354

> <Gold.PLP.part.nonpolar>
-38.4824

> <Gold.PLP.part.repulsive>
0.0141

> <Gold.PLP.ligand.clash>
0.0000

> <Gold.PLP.ligand.torsion>
0.3248

> <Gold.PLP.Chemscore.Hbond>
0.0000

> <Gold.PLP.Chemscore.CHOScore>
0.0000

> <Gold.PLP.Chemscore.Metal>
0.0000

> <Gold.PLP.Chemscore.Internal.Correction>
0.0150

> <Gold.Rescore>
     Score         DG    S(hbond)    S(metal)    S(lipo)     H(rot)  DE(clash)    DE(int)     intcor
     12.69     -14.63       0.00        0.00     104.75       1.21       0.28       1.65       ----

> <Gold.Chemscore.Fitness>
12.6893

> <Gold.Chemscore.DG>
-14.6262

> <Gold.Chemscore.ZeroCoef>
-5.4800

> <Gold.Chemscore.Hbond>
0.0000

> <Gold.Chemscore.Metal>
0.0000

> <Gold.Chemscore.Lipo>
104.7479

> <Gold.Chemscore.Internal_Hbond>
0.0000

> <Gold.Chemscore.DEClash>
0.2838

> <Gold.Chemscore.DEInternal>
1.6531

> <Gold.Chemscore.Rot>
1.2146

> <Gold.Chemscore.Internal.Correction>
   9.000000E+99

> <Gold.Chemscore.Hbond.Weighted>
-0.0000

> <Gold.Chemscore.Metal.Weighted>
-0.0000

> <Gold.Chemscore.Lipo.Weighted>
-12.2555

> <Gold.Chemscore.Internal_Hbond.Weighted>
0.0000

> <Gold.Chemscore.DEClash.Weighted>
0.2838

> <Gold.Chemscore.DEInternal.Weighted>
1.6531

> <Gold.Chemscore.Rot.Weighted>
3.1093

> <Gold.Chemscore.Internal.Correction.Weighted>
   9.000000E+99

> <Gold.Protein.RotatedTorsions>
[ 6907 6896 6895 6894 ] final   48.52 input  -60.11 | X-H torsion
[ 7974 7965 7964 7962 ] final  169.09 input  175.53 | X-H torsion
[ 8008 7997 7996 7995 ] final    8.93 input   59.86 | X-H torsion
[ 10167 10162 10161 10158 ] final  120.15 input  -65.29 | X-H torsion
[ 10718 10713 10712 10709 ] final   60.47 input   66.30 | X-H torsion
[ 10763 10752 10751 10750 ] final -155.38 input  -60.55 | X-H torsion
[ 11005 11000 10999 10996 ] final   25.79 input  -57.11 | X-H torsion

> <Gold.Protein.ActiveResidues>
 VAL166  LYS551  ARG553  GLY616  TRP617  ASP618  TYR619  PRO620  LYS621  CYS622 
 ASP623  PHE694  ASN695  SER759  ASP760  ASP761  ALA762  ILE779  LEU786  VAL792 
 PHE793  MET794  SER795  GLU796  ALA797  LYS798  CYS799  TRP800  GLU811  SER814 

> <Gold.Protein.RotatedAtoms>
  152.2804  134.7835  160.0397 H   0  0  0  0  0  0  0  0  0  0  0  0  # atno 6907 bound_to 6896
  151.8416  133.3419  159.3653 H   0  0  0  0  0  0  0  0  0  0  0  0  # atno 6908 bound_to 6896
  150.7187  134.5314  159.5746 H   0  0  0  0  0  0  0  0  0  0  0  0  # atno 6909 bound_to 6896
  144.7366  139.9004  143.6409 H   0  0  0  0  0  0  0  0  0  0  0  0  # atno 7974 bound_to 7965
  154.7734  140.2806  155.6120 H   0  0  0  0  0  0  0  0  0  0  0  0  # atno 8008 bound_to 7997
  156.2937  140.2637  156.2469 H   0  0  0  0  0  0  0  0  0  0  0  0  # atno 8009 bound_to 7997
  154.9873  140.0374  157.2293 H   0  0  0  0  0  0  0  0  0  0  0  0  # atno 8010 bound_to 7997
  139.6000  144.7054  151.3084 H   0  0  0  0  0  0  0  0  0  0  0  0  # atno 10167 bound_to 10162
  157.5755  130.8940  149.9339 H   0  0  0  0  0  0  0  0  0  0  0  0  # atno 10718 bound_to 10713
  154.7791  135.3169  154.8028 H   0  0  0  0  0  0  0  0  0  0  0  0  # atno 10763 bound_to 10752
  153.8743  135.6841  153.4776 H   0  0  0  0  0  0  0  0  0  0  0  0  # atno 10764 bound_to 10752
  153.1423  135.4734  154.9451 H   0  0  0  0  0  0  0  0  0  0  0  0  # atno 10765 bound_to 10752
  140.3440  134.2301  155.7687 H   0  0  0  0  0  0  0  0  0  0  0  0  # atno 11005 bound_to 11000
  146.1076  139.4077  143.0308 LP  0  0  0  0  0  0  0  0  0  0  0  0  # atno 17320 bound_to 7965
  145.7489  140.9980  143.1261 LP  0  0  0  0  0  0  0  0  0  0  0  0  # atno 17321 bound_to 7965
  140.7242  143.7050  150.7815 LP  0  0  0  0  0  0  0  0  0  0  0  0  # atno 17342 bound_to 10162
  140.0624  143.5142  152.2621 LP  0  0  0  0  0  0  0  0  0  0  0  0  # atno 17343 bound_to 10162
  156.0800  130.3674  150.0600 LP  0  0  0  0  0  0  0  0  0  0  0  0  # atno 17370 bound_to 10713
  156.8747  130.9536  151.3605 LP  0  0  0  0  0  0  0  0  0  0  0  0  # atno 17371 bound_to 10713
  141.2030  133.7922  157.0359 LP  0  0  0  0  0  0  0  0  0  0  0  0  # atno 17394 bound_to 11000
  140.0757  134.9677  157.1542 LP  0  0  0  0  0  0  0  0  0  0  0  0  # atno 17395 bound_to 11000

$$$$
