AV-unprocessed.smi:1426|AV-procd|sdf|5806|dock3
  -GOLD-   22720 5463D 1   1.00000     0.00000
 Structure written by MMmdl.
 43 45  0  0  0  0  0  0  0  0  1 V2000
  145.4496  138.2088  153.6442 O   0  0  0  0  0  0  0  0  0  0  0  0
  146.4393  137.6077  153.2261 C   0  0  0  0  0  0  0  0  0  0  0  0
  146.4011  136.3559  152.7485 N   0  0  0  0  0  0  0  0  0  0  0  0
  145.2123  135.5118  152.6793 C   0  0  0  0  0  0  0  0  0  0  0  0
  145.1701  134.6950  151.3741 C   0  0  1  0  0  0  0  0  0  0  0  0
  146.3119  133.7142  151.1867 C   0  0  0  0  0  0  0  0  0  0  0  0
  145.7495  132.7716  150.1273 C   0  0  0  0  0  0  0  0  0  0  0  0
  144.3385  132.7579  150.3255 O   0  0  0  0  0  0  0  0  0  0  0  0
  143.9675  133.7583  151.2690 C   0  0  0  0  0  0  0  0  0  0  0  0
  147.6917  138.0931  153.2099 N   0  0  0  0  0  0  0  0  0  0  0  0
  148.1549  139.3483  153.6973 C   0  0  0  0  0  0  0  0  0  0  0  0
  147.3778  140.5291  153.6138 C   0  0  0  0  0  0  0  0  0  0  0  0
  147.9067  141.7352  154.1067 C   0  0  0  0  0  0  0  0  0  0  0  0
  149.1998  141.7208  154.6581 C   0  0  0  0  0  0  0  0  0  0  0  0
  149.9595  140.6091  154.7279 N   0  0  0  0  0  0  0  0  0  0  0  0
  149.4563  139.4407  154.2594 C   0  0  0  0  0  0  0  0  0  0  0  0
  150.2867  138.3023  154.3121 N   0  0  0  0  0  0  0  0  0  0  0  0
  151.6658  138.6110  154.6802 C   0  0  0  0  0  0  0  0  0  0  0  0
  152.1455  137.4618  155.5692 C   0  0  0  0  0  0  0  0  0  0  0  0
  150.8554  136.9576  156.2038 C   0  0  0  0  0  0  0  0  0  0  0  0
  149.8420  137.1369  155.0748 C   0  0  0  0  0  0  0  0  0  0  0  0
  147.2663  135.9452  152.4294 H   0  0  0  0  0  0  0  0  0  0  0  0
  145.1486  134.8546  153.5484 H   0  0  0  0  0  0  0  0  0  0  0  0
  144.3398  136.1638  152.7277 H   0  0  0  0  0  0  0  0  0  0  0  0
  145.1527  135.3761  150.5213 H   0  0  0  0  0  0  0  0  0  0  0  0
  147.2431  134.1893  150.8767 H   0  0  0  0  0  0  0  0  0  0  0  0
  146.4992  133.1674  152.1121 H   0  0  0  0  0  0  0  0  0  0  0  0
  145.9547  133.1578  149.1281 H   0  0  0  0  0  0  0  0  0  0  0  0
  146.1723  131.7691  150.1961 H   0  0  0  0  0  0  0  0  0  0  0  0
  143.7713  133.2719  152.2255 H   0  0  0  0  0  0  0  0  0  0  0  0
  143.0593  134.2772  150.9617 H   0  0  0  0  0  0  0  0  0  0  0  0
  148.4144  137.4488  152.9245 H   0  0  0  0  0  0  0  0  0  0  0  0
  146.3945  140.5333  153.1690 H   0  0  0  0  0  0  0  0  0  0  0  0
  147.3357  142.6505  154.0582 H   0  0  0  0  0  0  0  0  0  0  0  0
  149.6403  142.6280  155.0444 H   0  0  0  0  0  0  0  0  0  0  0  0
  152.2935  138.7173  153.7949 H   0  0  0  0  0  0  0  0  0  0  0  0
  151.7079  139.5512  155.2333 H   0  0  0  0  0  0  0  0  0  0  0  0
  152.5855  136.6752  154.9545 H   0  0  0  0  0  0  0  0  0  0  0  0
  152.8894  137.7748  156.3025 H   0  0  0  0  0  0  0  0  0  0  0  0
  150.9233  135.9274  156.5544 H   0  0  0  0  0  0  0  0  0  0  0  0
  150.5852  137.5897  157.0510 H   0  0  0  0  0  0  0  0  0  0  0  0
  148.8213  137.2084  155.4515 H   0  0  0  0  0  0  0  0  0  0  0  0
  149.8728  136.2744  154.4083 H   0  0  0  0  0  0  0  0  0  0  0  0
  1  2  2  0  0  0  0
  2  3  1  0  0  0  0
  2 10  1  0  0  0  0
  3  4  1  0  0  0  0
  3 22  1  0  0  0  0
  4  5  1  0  0  0  0
  4 23  1  0  0  0  0
  4 24  1  0  0  0  0
  5  9  1  0  0  0  0
  5  6  1  0  0  0  0
  5 25  1  0  0  0  0
  6  7  1  0  0  0  0
  6 26  1  0  0  0  0
  6 27  1  0  0  0  0
  7  8  1  0  0  0  0
  7 28  1  0  0  0  0
  7 29  1  0  0  0  0
  8  9  1  0  0  0  0
  9 30  1  0  0  0  0
  9 31  1  0  0  0  0
 10 11  1  0  0  0  0
 10 32  1  0  0  0  0
 11 16  1  0  0  0  0
 11 12  2  0  0  0  0
 12 13  1  0  0  0  0
 12 33  1  0  0  0  0
 13 14  2  0  0  0  0
 13 34  1  0  0  0  0
 14 15  1  0  0  0  0
 14 35  1  0  0  0  0
 15 16  2  0  0  0  0
 16 17  1  0  0  0  0
 17 21  1  0  0  0  0
 17 18  1  0  0  0  0
 18 19  1  0  0  0  0
 18 36  1  0  0  0  0
 18 37  1  0  0  0  0
 19 20  1  0  0  0  0
 19 38  1  0  0  0  0
 19 39  1  0  0  0  0
 20 21  1  0  0  0  0
 20 40  1  0  0  0  0
 20 41  1  0  0  0  0
 21 42  1  0  0  0  0
 21 43  1  0  0  0  0
M  END
> <s_m_source_file>
AV-unprocessed.smi

> <i_m_source_file_index>
1426

> <i_lp_mmshare_version>
43012

> <i_f3d_flags>
0

> <s_epik_input>
W0NIMl0xT1tDSDJdW0NIMl1bQ0BIXTFbQ0gyXVtOSF1DKD1PKVtOSF1jMltjSF1bY0hdW2NIXW5jMk4zW0NIMl1bQ0gyXVtDSDJdW0NIMl0z

> <s_epik_cmdline>
J2VwaWtfcHl0aG9uJywgJy1waCcsICc3LjAnLCAnLXRuJywgJzgnLCAnLW1hJywgJzIwMCcsICctbWV0YWxfYmluZGluZycsICctaW1hZScsICc8aW5maWxlLm1hZT4nLCAnLW9tYWUnLCAnPG91dGZpbGUubWFlPic=

> <r_lp_tautomer_probability>
1

> <r_epik_Ionization_Penalty>
0.0999657

> <r_epik_Ionization_Penalty_Charging>
0

> <r_epik_Ionization_Penalty_Neutral>
0.0999657

> <r_epik_State_Penalty>
0.0894442

> <r_epik_Charging_Adjusted_Penalty>
0.0894442

> <i_epik_Tot_Q>
0

> <i_epik_Tot_abs_Q>
0

> <r_epik_Metal_State_Penalty>
0.076486

> <b_epik_Metal_Only>
0

> <s_lp_Force_Field>
OPLS_2005

> <r_lp_Energy>
46.9111

> <b_lp_Chiralities_Consistent>
1

> <s_lp_Variant>
AV-unprocessed.smi:1426-2

> <Gold.Version>
5.8.1

> <Gold.Id.Protein>
6NUR|6NUR_protein|mol2

> <Gold.PLP.Fitness>
42.4922

> <Gold.PLP.PLP>
-32.0074

> <Gold.PLP.part.hbond>
-3.0000

> <Gold.PLP.part.metal>
0.0000

> <Gold.PLP.part.buried>
-0.2189

> <Gold.PLP.part.nonpolar>
-28.9256

> <Gold.PLP.part.repulsive>
0.7122

> <Gold.PLP.ligand.clash>
0.0000

> <Gold.PLP.ligand.torsion>
0.4855

> <Gold.PLP.Chemscore.Hbond>
2.7767

> <Gold.PLP.Chemscore.CHOScore>
1.0000

> <Gold.PLP.Chemscore.Metal>
0.0000

> <Gold.Chemscore.Hbonds>
donor molecule, donor type, donor heavy atom, donor atom, acceptor molecule, acceptor atom, score
      L1  H     3    22       P1  7948  0.96
      L1  H    10    32       P1  7948  0.99
      P1  H  7989  7998       L1    15  0.73
      L1  C    14    35       P1  8028  1.00

> <Gold.PLP.Chemscore.Internal.Correction>
0.1255

> <Gold.Rescore>
     Score         DG    S(hbond)    S(metal)    S(lipo)     H(rot)  DE(clash)    DE(int)     intcor
     15.26     -18.36       2.06        0.00      81.51       1.38       0.71       2.39       ----

> <Gold.Chemscore.Fitness>
15.2588

> <Gold.Chemscore.DG>
-18.3571

> <Gold.Chemscore.ZeroCoef>
-5.4800

> <Gold.Chemscore.Hbond>
2.0574

> <Gold.Chemscore.Metal>
0.0000

> <Gold.Chemscore.Lipo>
81.5121

> <Gold.Chemscore.Internal_Hbond>
0.0000

> <Gold.Chemscore.DEClash>
0.7072

> <Gold.Chemscore.DEInternal>
2.3911

> <Gold.Chemscore.Rot>
1.3796

> <Gold.Chemscore.Internal.Correction>
   9.000000E+99

> <Gold.Chemscore.Hbonds>
donor molecule, donor type, donor heavy atom, donor atom, acceptor molecule, acceptor atom, score
      L1  H     3    22       P1  7948  0.92
      L1  H    10    32       P1  7948  0.94
      P1  H  7989  7998       L1    15  0.16

> <Gold.Chemscore.Hbond.Weighted>
-6.8718

> <Gold.Chemscore.Metal.Weighted>
-0.0000

> <Gold.Chemscore.Lipo.Weighted>
-9.5369

> <Gold.Chemscore.Internal_Hbond.Weighted>
0.0000

> <Gold.Chemscore.DEClash.Weighted>
0.7072

> <Gold.Chemscore.DEInternal.Weighted>
2.3911

> <Gold.Chemscore.Rot.Weighted>
3.5317

> <Gold.Chemscore.Internal.Correction.Weighted>
   9.000000E+99

> <Gold.Protein.RotatedTorsions>
[ 6907 6896 6895 6894 ] final   38.69 input  -60.11 | X-H torsion
[ 7974 7965 7964 7962 ] final   -9.48 input  175.53 | X-H torsion
[ 8008 7997 7996 7995 ] final -128.94 input   59.86 | X-H torsion
[ 10167 10162 10161 10158 ] final   18.44 input  -65.29 | X-H torsion
[ 10718 10713 10712 10709 ] final  -33.55 input   66.30 | X-H torsion
[ 10763 10752 10751 10750 ] final  -45.32 input  -60.55 | X-H torsion
[ 11005 11000 10999 10996 ] final  165.39 input  -57.11 | X-H torsion

> <Gold.Protein.ActiveResidues>
 VAL166  LYS551  ARG553  GLY616  TRP617  ASP618  TYR619  PRO620  LYS621  CYS622 
 ASP623  PHE694  ASN695  SER759  ASP760  ASP761  ALA762  ILE779  LEU786  VAL792 
 PHE793  MET794  SER795  GLU796  ALA797  LYS798  CYS799  TRP800  GLU811  SER814 

> <Gold.Protein.RotatedAtoms>
  152.1597  134.8922  160.0542 H   0  0  0  0  0  0  0  0  0  0  0  0  # atno 6907 bound_to 6896
  151.9922  133.3790  159.4157 H   0  0  0  0  0  0  0  0  0  0  0  0  # atno 6908 bound_to 6896
  150.6886  134.3847  159.5093 H   0  0  0  0  0  0  0  0  0  0  0  0  # atno 6909 bound_to 6896
  146.2250  140.2622  142.8352 H   0  0  0  0  0  0  0  0  0  0  0  0  # atno 7974 bound_to 7965
  155.2711  140.0440  157.3007 H   0  0  0  0  0  0  0  0  0  0  0  0  # atno 8008 bound_to 7997
  154.5653  140.2358  155.8242 H   0  0  0  0  0  0  0  0  0  0  0  0  # atno 8009 bound_to 7997
  156.2080  140.3007  155.9677 H   0  0  0  0  0  0  0  0  0  0  0  0  # atno 8010 bound_to 7997
  140.5653  143.9262  150.6672 H   0  0  0  0  0  0  0  0  0  0  0  0  # atno 10167 bound_to 10162
  156.3613  130.4324  149.7621 H   0  0  0  0  0  0  0  0  0  0  0  0  # atno 10718 bound_to 10713
  154.0265  135.6662  153.4777 H   0  0  0  0  0  0  0  0  0  0  0  0  # atno 10763 bound_to 10752
  153.0558  135.5057  154.7973 H   0  0  0  0  0  0  0  0  0  0  0  0  # atno 10764 bound_to 10752
  154.6905  135.3060  154.9452 H   0  0  0  0  0  0  0  0  0  0  0  0  # atno 10765 bound_to 10752
  140.2556  134.7942  157.3543 H   0  0  0  0  0  0  0  0  0  0  0  0  # atno 11005 bound_to 11000
  144.9331  140.7997  143.5677 LP  0  0  0  0  0  0  0  0  0  0  0  0  # atno 17320 bound_to 7965
  145.2567  139.2009  143.4913 LP  0  0  0  0  0  0  0  0  0  0  0  0  # atno 17321 bound_to 7965
  140.2724  143.3447  152.1226 LP  0  0  0  0  0  0  0  0  0  0  0  0  # atno 17342 bound_to 10162
  139.5090  144.6859  151.5888 LP  0  0  0  0  0  0  0  0  0  0  0  0  # atno 17343 bound_to 10162
  156.4784  130.8029  151.3045 LP  0  0  0  0  0  0  0  0  0  0  0  0  # atno 17370 bound_to 10713
  157.7474  131.0013  150.2960 LP  0  0  0  0  0  0  0  0  0  0  0  0  # atno 17371 bound_to 10713
  140.1514  134.4844  155.7958 LP  0  0  0  0  0  0  0  0  0  0  0  0  # atno 17394 bound_to 11000
  141.2196  133.6864  156.7386 LP  0  0  0  0  0  0  0  0  0  0  0  0  # atno 17395 bound_to 11000

$$$$
