AV-unprocessed.smi:1029|AV-procd|sdf|4477|dock1
  -GOLD-   22720 2453D 1   1.00000     0.00000
 Structure written by MMmdl.
 46 47  0  0  0  0  0  0  0  0  2 V2000
  153.3146  142.1032  160.2428 C   0  0  0  0  0  0  0  0  0  0  0  0
  152.4535  141.5709  159.1360 C   0  0  0  0  0  0  0  0  0  0  0  0
  151.2487  142.1182  158.6135 C   0  0  0  0  0  0  0  0  0  0  0  0
  150.9086  141.2224  157.6351 C   0  0  0  0  0  0  0  0  0  0  0  0
  149.8310  141.2435  156.8080 N   0  0  0  0  0  0  0  0  0  0  0  0
  149.7385  140.8309  155.5315 C   0  0  0  0  0  0  0  0  0  0  0  0
  150.6499  140.3286  154.8734 O   0  0  0  0  0  0  0  0  0  0  0  0
  148.5048  141.0311  155.0463 N   0  0  0  0  0  0  0  0  0  0  0  0
  148.0703  140.6919  153.6953 C   0  0  0  0  0  0  0  0  0  0  0  0
  147.0871  139.5034  153.6860 C   0  0  1  0  0  0  0  0  0  0  0  0
  145.8490  139.9386  154.2140 O   0  0  0  0  0  0  0  0  0  0  0  0
  146.8235  138.9989  152.2519 C   0  0  0  0  0  0  0  0  0  0  0  0
  146.5866  137.5329  152.1935 N   0  3  2  0  0  0  0  0  0  0  0  0
  145.9797  137.0827  150.9124 C   0  0  0  0  0  0  0  0  0  0  0  0
  145.8767  135.5480  150.8533 C   0  0  0  0  0  0  0  0  0  0  0  0
  145.1039  134.9680  152.0518 C   0  0  2  0  0  0  0  0  0  0  0  0
  143.5873  135.2113  151.9578 C   0  0  0  0  0  0  0  0  0  0  0  0
  145.7127  135.5046  153.3596 C   0  0  0  0  0  0  0  0  0  0  0  0
  145.8188  137.0402  153.3659 C   0  0  0  0  0  0  0  0  0  0  0  0
  151.8102  140.2137  157.5574 O   0  0  0  0  0  0  0  0  0  0  0  0
  152.7972  140.4483  158.5219 N   0  0  0  0  0  0  0  0  0  0  0  0
  152.9328  143.0538  160.6157 H   0  0  0  0  0  0  0  0  0  0  0  0
  154.3370  142.2674  159.9017 H   0  0  0  0  0  0  0  0  0  0  0  0
  153.3494  141.4079  161.0817 H   0  0  0  0  0  0  0  0  0  0  0  0
  150.7364  143.0171  158.9212 H   0  0  0  0  0  0  0  0  0  0  0  0
  148.9875  141.6189  157.2159 H   0  0  0  0  0  0  0  0  0  0  0  0
  147.8152  141.4449  155.6566 H   0  0  0  0  0  0  0  0  0  0  0  0
  147.6592  141.5587  153.1738 H   0  0  0  0  0  0  0  0  0  0  0  0
  148.9747  140.4168  153.1519 H   0  0  0  0  0  0  0  0  0  0  0  0
  147.4809  138.6985  154.3061 H   0  0  0  0  0  0  0  0  0  0  0  0
  145.1895  139.8680  153.5404 H   0  0  0  0  0  0  0  0  0  0  0  0
  145.9563  139.5295  151.8548 H   0  0  0  0  0  0  0  0  0  0  0  0
  147.6577  139.2514  151.5955 H   0  0  0  0  0  0  0  0  0  0  0  0
  144.9946  137.5356  150.7936 H   0  0  0  0  0  0  0  0  0  0  0  0
  146.5799  137.4220  150.0694 H   0  0  0  0  0  0  0  0  0  0  0  0
  145.4094  135.2397  149.9173 H   0  0  0  0  0  0  0  0  0  0  0  0
  146.8832  135.1271  150.8403 H   0  0  0  0  0  0  0  0  0  0  0  0
  145.2436  133.8862  152.0418 H   0  0  0  0  0  0  0  0  0  0  0  0
  143.3381  136.2720  151.9622 H   0  0  0  0  0  0  0  0  0  0  0  0
  143.0660  134.7478  152.7959 H   0  0  0  0  0  0  0  0  0  0  0  0
  143.1794  134.7813  151.0427 H   0  0  0  0  0  0  0  0  0  0  0  0
  145.1283  135.1653  154.2157 H   0  0  0  0  0  0  0  0  0  0  0  0
  146.7095  135.0810  153.4890 H   0  0  0  0  0  0  0  0  0  0  0  0
  146.3134  137.3544  154.2859 H   0  0  0  0  0  0  0  0  0  0  0  0
  144.8270  137.4944  153.3726 H   0  0  0  0  0  0  0  0  0  0  0  0
  147.4979  137.1008  152.2549 H   0  0  0  0  0  0  0  0  0  0  0  0
  1  2  1  0  0  0  0
  1 22  1  0  0  0  0
  1 23  1  0  0  0  0
  1 24  1  0  0  0  0
  2 21  2  0  0  0  0
  2  3  1  0  0  0  0
  3  4  2  0  0  0  0
  3 25  1  0  0  0  0
  4  5  1  0  0  0  0
  4 20  1  0  0  0  0
  5  6  1  0  0  0  0
  5 26  1  0  0  0  0
  6  7  2  0  0  0  0
  6  8  1  0  0  0  0
  8  9  1  0  0  0  0
  8 27  1  0  0  0  0
  9 10  1  0  0  0  0
  9 28  1  0  0  0  0
  9 29  1  0  0  0  0
 10 11  1  0  0  0  0
 10 12  1  0  0  0  0
 10 30  1  0  0  0  0
 11 31  1  0  0  0  0
 12 13  1  0  0  0  0
 12 32  1  0  0  0  0
 12 33  1  0  0  0  0
 13 19  1  0  0  0  0
 13 14  1  0  0  0  0
 13 46  1  0  0  0  0
 14 15  1  0  0  0  0
 14 34  1  0  0  0  0
 14 35  1  0  0  0  0
 15 16  1  0  0  0  0
 15 36  1  0  0  0  0
 15 37  1  0  0  0  0
 16 17  1  0  0  0  0
 16 18  1  0  0  0  0
 16 38  1  0  0  0  0
 17 39  1  0  0  0  0
 17 40  1  0  0  0  0
 17 41  1  0  0  0  0
 18 19  1  0  0  0  0
 18 42  1  0  0  0  0
 18 43  1  0  0  0  0
 19 44  1  0  0  0  0
 19 45  1  0  0  0  0
 20 21  1  0  0  0  0
M  CHG  1  13   1
M  END
> <s_m_source_file>
AV-unprocessed.smi

> <i_m_source_file_index>
1029

> <i_lp_mmshare_version>
43012

> <i_f3d_flags>
0

> <s_epik_input>
W0NIM11jMVtjSF1jKG9uMSlbTkhdQyg9TylbTkhdW0NIMl1bQ0BIXShbT0hdKVtDSDJdTjJbQ0gyXVtDSDJdW0NIXShbQ0gzXSlbQ0gyXVtDSDJdMg==

> <s_epik_cmdline>
J2VwaWtfcHl0aG9uJywgJy1waCcsICc3LjAnLCAnLXRuJywgJzgnLCAnLW1hJywgJzIwMCcsICctbWV0YWxfYmluZGluZycsICctaW1hZScsICc8aW5maWxlLm1hZT4nLCAnLW9tYWUnLCAnPG91dGZpbGUubWFlPic=

> <r_lp_tautomer_probability>
1

> <r_epik_Ionization_Penalty>
0.00211787

> <r_epik_Ionization_Penalty_Charging>
0.00153238

> <r_epik_Ionization_Penalty_Neutral>
0.000585488

> <r_epik_State_Penalty>
-0

> <r_epik_Charging_Adjusted_Penalty>
0.00153238

> <i_epik_Tot_Q>
1

> <i_epik_Tot_abs_Q>
1

> <r_epik_Metal_State_Penalty>
-0

> <b_epik_Metal_Only>
0

> <s_lp_Force_Field>
OPLS_2005

> <r_lp_Energy>
22.6481

> <b_lp_Chiralities_Consistent>
1

> <s_lp_Variant>
AV-unprocessed.smi:1029-4

> <Gold.Version>
5.8.1

> <Gold.Id.Protein>
6NUR|6NUR_protein|mol2

> <Gold.PLP.Fitness>
46.8950

> <Gold.PLP.PLP>
-33.7219

> <Gold.PLP.part.hbond>
-4.0000

> <Gold.PLP.part.metal>
0.0000

> <Gold.PLP.part.buried>
-0.4548

> <Gold.PLP.part.nonpolar>
-29.0180

> <Gold.PLP.part.repulsive>
0.2616

> <Gold.PLP.ligand.clash>
0.0000

> <Gold.PLP.ligand.torsion>
0.9662

> <Gold.PLP.Chemscore.Hbond>
4.9600

> <Gold.PLP.Chemscore.CHOScore>
0.0000

> <Gold.PLP.Chemscore.Metal>
0.0000

> <Gold.Chemscore.Hbonds>
donor molecule, donor type, donor heavy atom, donor atom, acceptor molecule, acceptor atom, score
      L1  H    11    31       P1 10175  1.00
      L1  H    13    46       P1  7948  2.00
      P1  H  7989  7998       L1     7  1.00
      P1  H  7997  8009       L1    21  0.10

> <Gold.PLP.Chemscore.Internal.Correction>
0.2256

> <Gold.Rescore>
     Score         DG    S(hbond)    S(metal)    S(lipo)     H(rot)  DE(clash)    DE(int)     intcor
     15.00     -19.22       3.18        0.00      80.44       2.46       1.47       2.76       ----

> <Gold.Chemscore.Fitness>
14.9990

> <Gold.Chemscore.DG>
-19.2239

> <Gold.Chemscore.ZeroCoef>
-5.4800

> <Gold.Chemscore.Hbond>
3.1843

> <Gold.Chemscore.Metal>
0.0000

> <Gold.Chemscore.Lipo>
80.4449

> <Gold.Chemscore.Internal_Hbond>
0.0000

> <Gold.Chemscore.DEClash>
1.4675

> <Gold.Chemscore.DEInternal>
2.7574

> <Gold.Chemscore.Rot>
2.4624

> <Gold.Chemscore.Internal.Correction>
   9.000000E+99

> <Gold.Chemscore.Hbonds>
donor molecule, donor type, donor heavy atom, donor atom, acceptor molecule, acceptor atom, score
      L1  H    11    31       P1 10175  0.97
      L1  H    13    46       P1  7948  1.00
      P1  H  7989  7998       L1     7  0.99
      P1  H  7997  8009       L1    21  0.02

> <Gold.Chemscore.Hbond.Weighted>
-10.6356

> <Gold.Chemscore.Metal.Weighted>
-0.0000

> <Gold.Chemscore.Lipo.Weighted>
-9.4121

> <Gold.Chemscore.Internal_Hbond.Weighted>
0.0000

> <Gold.Chemscore.DEClash.Weighted>
1.4675

> <Gold.Chemscore.DEInternal.Weighted>
2.7574

> <Gold.Chemscore.Rot.Weighted>
6.3037

> <Gold.Chemscore.Internal.Correction.Weighted>
   9.000000E+99

> <Gold.Protein.RotatedTorsions>
[ 6907 6896 6895 6894 ] final -116.78 input  -60.11 | X-H torsion
[ 7974 7965 7964 7962 ] final   77.69 input  175.53 | X-H torsion
[ 8008 7997 7996 7995 ] final  150.08 input   59.86 | X-H torsion
[ 10167 10162 10161 10158 ] final   -8.98 input  -65.29 | X-H torsion
[ 10718 10713 10712 10709 ] final  178.55 input   66.30 | X-H torsion
[ 10763 10752 10751 10750 ] final -121.91 input  -60.55 | X-H torsion
[ 11005 11000 10999 10996 ] final   37.46 input  -57.11 | X-H torsion

> <Gold.Protein.ActiveResidues>
 VAL166  LYS551  ARG553  GLY616  TRP617  ASP618  TYR619  PRO620  LYS621  CYS622 
 ASP623  PHE694  ASN695  SER759  ASP760  ASP761  ALA762  ILE779  LEU786  VAL792 
 PHE793  MET794  SER795  GLU796  ALA797  LYS798  CYS799  TRP800  GLU811  SER814 

> <Gold.Protein.RotatedAtoms>
  150.8083  133.8468  159.3194 H   0  0  0  0  0  0  0  0  0  0  0  0  # atno 6907 bound_to 6896
  151.6261  135.1026  160.0121 H   0  0  0  0  0  0  0  0  0  0  0  0  # atno 6908 bound_to 6896
  152.4175  133.7021  159.6487 H   0  0  0  0  0  0  0  0  0  0  0  0  # atno 6909 bound_to 6896
  145.6868  139.2540  143.1782 H   0  0  0  0  0  0  0  0  0  0  0  0  # atno 7974 bound_to 7965
  156.2730  140.2084  156.5961 H   0  0  0  0  0  0  0  0  0  0  0  0  # atno 8008 bound_to 7997
  154.6944  140.0527  157.0419 H   0  0  0  0  0  0  0  0  0  0  0  0  # atno 8009 bound_to 7997
  155.0822  140.3188  155.4601 H   0  0  0  0  0  0  0  0  0  0  0  0  # atno 8010 bound_to 7997
  140.7074  143.5908  150.8895 H   0  0  0  0  0  0  0  0  0  0  0  0  # atno 10167 bound_to 10162
  156.8889  130.9841  151.3052 H   0  0  0  0  0  0  0  0  0  0  0  0  # atno 10718 bound_to 10713
  154.8678  135.4151  154.2696 H   0  0  0  0  0  0  0  0  0  0  0  0  # atno 10763 bound_to 10752
  153.3609  135.7003  153.6719 H   0  0  0  0  0  0  0  0  0  0  0  0  # atno 10764 bound_to 10752
  153.5620  135.3608  155.2775 H   0  0  0  0  0  0  0  0  0  0  0  0  # atno 10765 bound_to 10752
  140.2223  134.3626  155.7999 H   0  0  0  0  0  0  0  0  0  0  0  0  # atno 11005 bound_to 11000
  146.0916  140.7649  142.9592 LP  0  0  0  0  0  0  0  0  0  0  0  0  # atno 17320 bound_to 7965
  144.7009  140.3647  143.7157 LP  0  0  0  0  0  0  0  0  0  0  0  0  # atno 17321 bound_to 7965
  139.9634  143.6138  152.2995 LP  0  0  0  0  0  0  0  0  0  0  0  0  # atno 17342 bound_to 10162
  139.6699  144.7661  151.1803 LP  0  0  0  0  0  0  0  0  0  0  0  0  # atno 17343 bound_to 10162
  157.6095  130.8572  149.8929 LP  0  0  0  0  0  0  0  0  0  0  0  0  # atno 17370 bound_to 10713
  156.0639  130.3695  150.0921 LP  0  0  0  0  0  0  0  0  0  0  0  0  # atno 17371 bound_to 10713
  141.2222  133.7200  156.8596 LP  0  0  0  0  0  0  0  0  0  0  0  0  # atno 17394 bound_to 11000
  140.1837  134.9015  157.2978 LP  0  0  0  0  0  0  0  0  0  0  0  0  # atno 17395 bound_to 11000

$$$$
