AV-unprocessed.smi:1809|AV-procd|sdf|7322|dock9
  -GOLD-   22720 8583D 1   1.00000     0.00000
 Structure written by MMmdl.
 39 41  0  0  0  0  0  0  0  0  3 V2000
  145.8717  134.6197  162.5080 C   0  0  0  0  0  0  0  0  0  0  0  0
  146.8458  135.3363  161.6370 C   0  0  0  0  0  0  0  0  0  0  0  0
  146.9506  136.6672  161.6118 N   0  0  0  0  0  0  0  0  0  0  0  0
  147.9259  137.0981  160.7241 N   0  0  0  0  0  0  0  0  0  0  0  0
  148.5360  136.0904  160.0839 C   0  0  0  0  0  0  0  0  0  0  0  0
  149.5137  136.2947  159.1855 N   0  5  0  0  0  0  0  0  0  0  0  0
  149.4570  137.3603  158.3561 C   0  0  0  0  0  0  0  0  0  0  0  0
  148.9370  137.3931  157.2383 O   0  0  0  0  0  0  0  0  0  0  0  0
  150.0385  138.4592  158.8521 N   0  0  0  0  0  0  0  0  0  0  0  0
  150.1027  139.7464  158.1753 C   0  0  0  0  0  0  0  0  0  0  0  0
  151.5443  140.0589  157.7301 C   0  0  1  0  0  0  0  0  0  0  0  0
  151.6753  141.4528  157.0705 C   0  0  0  0  0  0  0  0  0  0  0  0
  151.6039  142.4870  158.1196 N   0  3  2  0  0  0  0  0  0  0  0  0
  151.6955  143.8993  157.7118 C   0  0  0  0  0  0  0  0  0  0  0  0
  152.1944  144.6423  158.9671 C   0  0  0  0  0  0  0  0  0  0  0  0
  152.5305  143.5469  159.9953 C   0  0  0  0  0  0  0  0  0  0  0  0
  152.6359  142.2883  159.1395 C   0  0  1  0  0  0  0  0  0  0  0  0
  152.4128  140.9332  159.8210 C   0  0  0  0  0  0  0  0  0  0  0  0
  152.4787  139.9210  158.8129 O   0  0  0  0  0  0  0  0  0  0  0  0
  147.9462  134.4974  160.5568 S   0  0  0  0  0  0  0  0  0  0  0  0
  144.8883  134.6111  162.0380 H   0  0  0  0  0  0  0  0  0  0  0  0
  145.7949  135.1141  163.4767 H   0  0  0  0  0  0  0  0  0  0  0  0
  146.1936  133.5904  162.6675 H   0  0  0  0  0  0  0  0  0  0  0  0
  150.4531  138.3965  159.7707 H   0  0  0  0  0  0  0  0  0  0  0  0
  149.4455  139.7177  157.3049 H   0  0  0  0  0  0  0  0  0  0  0  0
  149.7159  140.5257  158.8329 H   0  0  0  0  0  0  0  0  0  0  0  0
  151.8214  139.3120  156.9853 H   0  0  0  0  0  0  0  0  0  0  0  0
  152.6284  141.5313  156.5454 H   0  0  0  0  0  0  0  0  0  0  0  0
  150.8877  141.6109  156.3328 H   0  0  0  0  0  0  0  0  0  0  0  0
  152.4174  144.0071  156.9007 H   0  0  0  0  0  0  0  0  0  0  0  0
  150.7313  144.2680  157.3610 H   0  0  0  0  0  0  0  0  0  0  0  0
  153.0783  145.2348  158.7270 H   0  0  0  0  0  0  0  0  0  0  0  0
  151.4390  145.3241  159.3589 H   0  0  0  0  0  0  0  0  0  0  0  0
  153.4443  143.7548  160.5528 H   0  0  0  0  0  0  0  0  0  0  0  0
  151.7136  143.4483  160.7118 H   0  0  0  0  0  0  0  0  0  0  0  0
  153.6133  142.2856  158.6515 H   0  0  0  0  0  0  0  0  0  0  0  0
  153.1914  140.7472  160.5610 H   0  0  0  0  0  0  0  0  0  0  0  0
  151.4586  140.8994  160.3474 H   0  0  0  0  0  0  0  0  0  0  0  0
  150.7154  142.3798  158.5883 H   0  0  0  0  0  0  0  0  0  0  0  0
  1  2  1  0  0  0  0
  1 21  1  0  0  0  0
  1 22  1  0  0  0  0
  1 23  1  0  0  0  0
  2 20  1  0  0  0  0
  2  3  2  0  0  0  0
  3  4  1  0  0  0  0
  4  5  2  0  0  0  0
  5  6  1  0  0  0  0
  5 20  1  0  0  0  0
  6  7  1  0  0  0  0
  7  8  2  0  0  0  0
  7  9  1  0  0  0  0
  9 10  1  0  0  0  0
  9 24  1  0  0  0  0
 10 11  1  0  0  0  0
 10 25  1  0  0  0  0
 10 26  1  0  0  0  0
 11 19  1  0  0  0  0
 11 12  1  0  0  0  0
 11 27  1  0  0  0  0
 12 13  1  0  0  0  0
 12 28  1  0  0  0  0
 12 29  1  0  0  0  0
 13 17  1  0  0  0  0
 13 14  1  0  0  0  0
 13 39  1  0  0  0  0
 14 15  1  0  0  0  0
 14 30  1  0  0  0  0
 14 31  1  0  0  0  0
 15 16  1  0  0  0  0
 15 32  1  0  0  0  0
 15 33  1  0  0  0  0
 16 17  1  0  0  0  0
 16 34  1  0  0  0  0
 16 35  1  0  0  0  0
 17 18  1  0  0  0  0
 17 36  1  0  0  0  0
 18 19  1  0  0  0  0
 18 37  1  0  0  0  0
 18 38  1  0  0  0  0
M  CHG  1   6  -1
M  CHG  1  13   1
M  END
> <s_m_source_file>
AV-unprocessed.smi

> <i_m_source_file_index>
1809

> <i_lp_mmshare_version>
43012

> <i_f3d_flags>
0

> <s_epik_input>
W0NIM11jMW5uYyhzMSlbTkhdQyg9TylbTkhdW0NIMl1bQ0BIXShbQ0gyXTIpT1tDSDJdW0NAQEhdKE4yMylbQ0gyXVtDSDJdW0NIMl0z

> <s_epik_cmdline>
J2VwaWtfcHl0aG9uJywgJy1waCcsICc3LjAnLCAnLXRuJywgJzgnLCAnLW1hJywgJzIwMCcsICctbWV0YWxfYmluZGluZycsICctaW1hZScsICc8aW5maWxlLm1hZT4nLCAnLW9tYWUnLCAnPG91dGZpbGUubWFlPic=

> <r_lp_tautomer_probability>
1

> <r_epik_Ionization_Penalty>
3.2601

> <r_epik_Ionization_Penalty_Charging>
3.1406

> <r_epik_Ionization_Penalty_Neutral>
0.119497

> <r_epik_State_Penalty>
3.08894

> <r_epik_Charging_Adjusted_Penalty>
6.22954

> <i_epik_Tot_Q>
0

> <i_epik_Tot_abs_Q>
2

> <r_epik_Metal_State_Penalty>
0.510807

> <b_epik_Metal_Only>
1

> <s_lp_Force_Field>
OPLS_2005

> <r_lp_Energy>
31.1034

> <b_lp_Chiralities_Consistent>
1

> <s_lp_Variant>
AV-unprocessed.smi:1809-14

> <Gold.Version>
5.8.1

> <Gold.Id.Protein>
6NUR|6NUR_protein|mol2

> <Gold.PLP.Fitness>
44.8329

> <Gold.PLP.PLP>
-36.9872

> <Gold.PLP.part.hbond>
-2.9538

> <Gold.PLP.part.metal>
0.0000

> <Gold.PLP.part.buried>
-5.9086

> <Gold.PLP.part.nonpolar>
-29.7884

> <Gold.PLP.part.repulsive>
0.2743

> <Gold.PLP.ligand.clash>
0.0000

> <Gold.PLP.ligand.torsion>
1.0778

> <Gold.PLP.Chemscore.Hbond>
3.3298

> <Gold.PLP.Chemscore.CHOScore>
0.0000

> <Gold.PLP.Chemscore.Metal>
0.0000

> <Gold.Chemscore.Hbonds>
donor molecule, donor type, donor heavy atom, donor atom, acceptor molecule, acceptor atom, score
      P1  H  6896  6907       L1     6  2.00
      P1  H  6931  6943       L1     4  0.88
      P1  H  6934  6947       L1     4  0.33

> <Gold.PLP.Chemscore.Internal.Correction>
0.0120

> <Gold.Rescore>
     Score         DG    S(hbond)    S(metal)    S(lipo)     H(rot)  DE(clash)    DE(int)     intcor
     17.36     -18.58       1.72        0.00      91.77       1.32       0.02       1.20       ----

> <Gold.Chemscore.Fitness>
17.3604

> <Gold.Chemscore.DG>
-18.5798

> <Gold.Chemscore.ZeroCoef>
-5.4800

> <Gold.Chemscore.Hbond>
1.7225

> <Gold.Chemscore.Metal>
0.0000

> <Gold.Chemscore.Lipo>
91.7746

> <Gold.Chemscore.Internal_Hbond>
0.0000

> <Gold.Chemscore.DEClash>
0.0202

> <Gold.Chemscore.DEInternal>
1.1991

> <Gold.Chemscore.Rot>
1.3246

> <Gold.Chemscore.Internal.Correction>
   9.000000E+99

> <Gold.Chemscore.Hbonds>
donor molecule, donor type, donor heavy atom, donor atom, acceptor molecule, acceptor atom, score
      P1  H  6896  6907       L1     6  0.29
      P1  H  6931  6943       L1     4  0.28
      P1  H  6934  6947       L1     4  0.01

> <Gold.Chemscore.Hbond.Weighted>
-5.7532

> <Gold.Chemscore.Metal.Weighted>
-0.0000

> <Gold.Chemscore.Lipo.Weighted>
-10.7376

> <Gold.Chemscore.Internal_Hbond.Weighted>
0.0000

> <Gold.Chemscore.DEClash.Weighted>
0.0202

> <Gold.Chemscore.DEInternal.Weighted>
1.1991

> <Gold.Chemscore.Rot.Weighted>
3.3910

> <Gold.Chemscore.Internal.Correction.Weighted>
   9.000000E+99

> <Gold.Protein.RotatedTorsions>
[ 6907 6896 6895 6894 ] final  -51.34 input  -60.11 | X-H torsion
[ 7974 7965 7964 7962 ] final  -10.45 input  175.53 | X-H torsion
[ 8008 7997 7996 7995 ] final  171.77 input   59.86 | X-H torsion
[ 10167 10162 10161 10158 ] final   35.33 input  -65.29 | X-H torsion
[ 10718 10713 10712 10709 ] final  151.58 input   66.30 | X-H torsion
[ 10763 10752 10751 10750 ] final  -42.69 input  -60.55 | X-H torsion
[ 11005 11000 10999 10996 ] final  -84.84 input  -57.11 | X-H torsion

> <Gold.Protein.ActiveResidues>
 VAL166  LYS551  ARG553  GLY616  TRP617  ASP618  TYR619  PRO620  LYS621  CYS622 
 ASP623  PHE694  ASN695  SER759  ASP760  ASP761  ALA762  ILE779  LEU786  VAL792 
 PHE793  MET794  SER795  GLU796  ALA797  LYS798  CYS799  TRP800  GLU811  SER814 

> <Gold.Protein.RotatedAtoms>
  150.8620  134.7975  159.7090 H   0  0  0  0  0  0  0  0  0  0  0  0  # atno 6907 bound_to 6896
  152.4654  134.5084  159.9756 H   0  0  0  0  0  0  0  0  0  0  0  0  # atno 6908 bound_to 6896
  151.5186  133.3432  159.2933 H   0  0  0  0  0  0  0  0  0  0  0  0  # atno 6909 bound_to 6896
  146.2220  140.2765  142.8360 H   0  0  0  0  0  0  0  0  0  0  0  0  # atno 7974 bound_to 7965
  156.1239  140.1503  156.9165 H   0  0  0  0  0  0  0  0  0  0  0  0  # atno 8008 bound_to 7997
  154.4856  140.0866  156.7521 H   0  0  0  0  0  0  0  0  0  0  0  0  # atno 8009 bound_to 7997
  155.4379  140.3430  155.4289 H   0  0  0  0  0  0  0  0  0  0  0  0  # atno 8010 bound_to 7997
  140.4232  144.1430  150.6150 H   0  0  0  0  0  0  0  0  0  0  0  0  # atno 10167 bound_to 10162
  157.2688  131.0813  151.1614 H   0  0  0  0  0  0  0  0  0  0  0  0  # atno 10718 bound_to 10713
  153.9831  135.6714  153.4751 H   0  0  0  0  0  0  0  0  0  0  0  0  # atno 10763 bound_to 10752
  153.0739  135.4959  154.8360 H   0  0  0  0  0  0  0  0  0  0  0  0  # atno 10764 bound_to 10752
  154.7153  135.3105  154.9096 H   0  0  0  0  0  0  0  0  0  0  0  0  # atno 10765 bound_to 10752
  141.1647  133.7367  156.8927 H   0  0  0  0  0  0  0  0  0  0  0  0  # atno 11005 bound_to 11000
  144.9229  140.7888  143.5737 LP  0  0  0  0  0  0  0  0  0  0  0  0  # atno 17320 bound_to 7965
  145.2703  139.1957  143.4845 LP  0  0  0  0  0  0  0  0  0  0  0  0  # atno 17321 bound_to 7965
  140.4510  143.2486  151.9347 LP  0  0  0  0  0  0  0  0  0  0  0  0  # atno 17342 bound_to 10162
  139.4783  144.5562  151.8310 LP  0  0  0  0  0  0  0  0  0  0  0  0  # atno 17343 bound_to 10162
  157.3094  130.6882  149.6207 LP  0  0  0  0  0  0  0  0  0  0  0  0  # atno 17370 bound_to 10713
  155.9663  130.4368  150.5149 LP  0  0  0  0  0  0  0  0  0  0  0  0  # atno 17371 bound_to 10713
  140.1637  134.9147  157.2747 LP  0  0  0  0  0  0  0  0  0  0  0  0  # atno 17394 bound_to 11000
  140.2581  134.3603  155.7417 LP  0  0  0  0  0  0  0  0  0  0  0  0  # atno 17395 bound_to 11000

$$$$
