AV-unprocessed.smi:1041|AV-procd|sdf|4535|dock4
  -GOLD-   22720 2563D 1   1.00000     0.00000
 Structure written by MMmdl.
 51 52  0  0  0  0  0  0  0  0  2 V2000
  152.8091  142.4112  160.4274 C   0  0  0  0  0  0  0  0  0  0  0  0
  152.6511  142.2082  159.0345 O   0  0  0  0  0  0  0  0  0  0  0  0
  151.3004  142.3260  158.6172 C   0  0  0  0  0  0  0  0  0  0  0  0
  151.1766  142.0195  157.1149 C   0  0  0  0  0  0  0  0  0  0  0  0
  151.0492  140.6037  156.7635 N   0  0  0  0  0  0  0  0  0  0  0  0
  150.8201  140.3956  155.3314 C   0  0  0  0  0  0  0  0  0  0  0  0
  150.7239  138.9068  154.9561 C   0  0  0  0  0  0  0  0  0  0  0  0
  149.6141  138.2045  155.7585 C   0  0  0  0  0  0  0  0  0  0  0  0
  149.5417  136.7029  155.4255 C   0  0  0  0  0  0  0  0  0  0  0  0
  148.5984  136.0166  156.2971 N   0  0  0  0  0  0  0  0  0  0  0  0
  148.9257  135.3893  157.4352 C   0  0  0  0  0  0  0  0  0  0  0  0
  150.0799  135.3051  157.8540 O   0  0  0  0  0  0  0  0  0  0  0  0
  147.7702  134.7730  158.2257 C   0  0  0  0  0  0  0  0  0  0  0  0
  147.5939  135.2998  159.6493 C   0  0  0  0  0  0  0  0  0  0  0  0
  147.4502  134.4845  160.7339 C   0  0  0  0  0  0  0  0  0  0  0  0
  147.4389  132.9682  160.6352 C   0  0  0  0  0  0  0  0  0  0  0  0
  147.3014  135.0141  162.0270 N   0  0  0  0  0  0  0  0  0  0  0  0
  147.3041  136.2819  162.1924 C   0  0  0  0  0  0  0  0  0  0  0  0
  147.1474  136.8464  163.5881 C   0  0  0  0  0  0  0  0  0  0  0  0
  147.4458  137.1899  161.1675 N   0  5  0  0  0  0  0  0  0  0  0  0
  147.5847  136.7557  159.8824 C   0  0  0  0  0  0  0  0  0  0  0  0
  147.6967  137.5377  158.9392 O   0  0  0  0  0  0  0  0  0  0  0  0
  149.8369  138.4746  157.2609 C   0  0  0  0  0  0  0  0  0  0  0  0
  149.9683  139.9830  157.5295 C   0  0  0  0  0  0  0  0  0  0  0  0
  153.8624  142.3240  160.6933 H   0  0  0  0  0  0  0  0  0  0  0  0
  152.2555  141.6651  160.9988 H   0  0  0  0  0  0  0  0  0  0  0  0
  152.4679  143.4039  160.7236 H   0  0  0  0  0  0  0  0  0  0  0  0
  150.6513  141.6662  159.1956 H   0  0  0  0  0  0  0  0  0  0  0  0
  150.9679  143.3486  158.8021 H   0  0  0  0  0  0  0  0  0  0  0  0
  150.2816  142.5349  156.7638 H   0  0  0  0  0  0  0  0  0  0  0  0
  152.0088  142.4727  156.5740 H   0  0  0  0  0  0  0  0  0  0  0  0
  149.9097  140.9117  155.0223 H   0  0  0  0  0  0  0  0  0  0  0  0
  151.6354  140.8296  154.7548 H   0  0  0  0  0  0  0  0  0  0  0  0
  150.5343  138.8089  153.8868 H   0  0  0  0  0  0  0  0  0  0  0  0
  151.6827  138.4226  155.1466 H   0  0  0  0  0  0  0  0  0  0  0  0
  148.6627  138.6565  155.4725 H   0  0  0  0  0  0  0  0  0  0  0  0
  149.2303  136.5645  154.3889 H   0  0  0  0  0  0  0  0  0  0  0  0
  150.5281  136.2466  155.5269 H   0  0  0  0  0  0  0  0  0  0  0  0
  147.6256  136.0386  156.0283 H   0  0  0  0  0  0  0  0  0  0  0  0
  146.8370  134.9368  157.6853 H   0  0  0  0  0  0  0  0  0  0  0  0
  147.8981  133.6904  158.2213 H   0  0  0  0  0  0  0  0  0  0  0  0
  146.5988  132.6296  160.0291 H   0  0  0  0  0  0  0  0  0  0  0  0
  147.3426  132.5103  161.6202 H   0  0  0  0  0  0  0  0  0  0  0  0
  148.3623  132.6023  160.1871 H   0  0  0  0  0  0  0  0  0  0  0  0
  146.4286  137.6664  163.5906 H   0  0  0  0  0  0  0  0  0  0  0  0
  148.1042  137.2234  163.9504 H   0  0  0  0  0  0  0  0  0  0  0  0
  146.7934  136.0830  164.2821 H   0  0  0  0  0  0  0  0  0  0  0  0
  149.0118  138.0736  157.8502 H   0  0  0  0  0  0  0  0  0  0  0  0
  150.7382  137.9631  157.6019 H   0  0  0  0  0  0  0  0  0  0  0  0
  150.1415  140.1326  158.5959 H   0  0  0  0  0  0  0  0  0  0  0  0
  149.0222  140.4762  157.3002 H   0  0  0  0  0  0  0  0  0  0  0  0
  1  2  1  0  0  0  0
  1 25  1  0  0  0  0
  1 26  1  0  0  0  0
  1 27  1  0  0  0  0
  2  3  1  0  0  0  0
  3  4  1  0  0  0  0
  3 28  1  0  0  0  0
  3 29  1  0  0  0  0
  4  5  1  0  0  0  0
  4 30  1  0  0  0  0
  4 31  1  0  0  0  0
  5 24  1  0  0  0  0
  5  6  1  0  0  0  0
  6  7  1  0  0  0  0
  6 32  1  0  0  0  0
  6 33  1  0  0  0  0
  7  8  1  0  0  0  0
  7 34  1  0  0  0  0
  7 35  1  0  0  0  0
  8  9  1  0  0  0  0
  8 23  1  0  0  0  0
  8 36  1  0  0  0  0
  9 10  1  0  0  0  0
  9 37  1  0  0  0  0
  9 38  1  0  0  0  0
 10 11  1  0  0  0  0
 10 39  1  0  0  0  0
 11 12  2  0  0  0  0
 11 13  1  0  0  0  0
 13 14  1  0  0  0  0
 13 40  1  0  0  0  0
 13 41  1  0  0  0  0
 14 21  1  0  0  0  0
 14 15  2  0  0  0  0
 15 16  1  0  0  0  0
 15 17  1  0  0  0  0
 16 42  1  0  0  0  0
 16 43  1  0  0  0  0
 16 44  1  0  0  0  0
 17 18  2  0  0  0  0
 18 19  1  0  0  0  0
 18 20  1  0  0  0  0
 19 45  1  0  0  0  0
 19 46  1  0  0  0  0
 19 47  1  0  0  0  0
 20 21  1  0  0  0  0
 21 22  2  0  0  0  0
 23 24  1  0  0  0  0
 23 48  1  0  0  0  0
 23 49  1  0  0  0  0
 24 50  1  0  0  0  0
 24 51  1  0  0  0  0
M  CHG  1  20  -1
M  END
> <s_m_source_file>
AV-unprocessed.smi

> <i_m_source_file_index>
1041

> <i_lp_mmshare_version>
43012

> <i_f3d_flags>
0

> <s_epik_input>
W0NIM11PW0NIMl1bQ0gyXU4xW0NIMl1bQ0gyXVtDSF0oW0NIMl1bQ0gyXTEpW0NIMl1bTkhdQyg9TylbQ0gyXWMyYyhbQ0gzXSluYyhbQ0gzXSlbbkhdYzI9Tw==

> <s_epik_cmdline>
J2VwaWtfcHl0aG9uJywgJy1waCcsICc3LjAnLCAnLXRuJywgJzgnLCAnLW1hJywgJzIwMCcsICctbWV0YWxfYmluZGluZycsICctaW1hZScsICc8aW5maWxlLm1hZT4nLCAnLW9tYWUnLCAnPG91dGZpbGUubWFlPic=

> <r_lp_tautomer_probability>
0.839158

> <r_epik_Ionization_Penalty>
9.04559

> <r_epik_Ionization_Penalty_Charging>
6.70107e-08

> <r_epik_Ionization_Penalty_Neutral>
9.04559

> <r_epik_State_Penalty>
7.10582

> <r_epik_Charging_Adjusted_Penalty>
7.10582

> <i_epik_Tot_Q>
-1

> <i_epik_Tot_abs_Q>
1

> <r_epik_Metal_State_Penalty>
3.46994

> <b_epik_Metal_Only>
1

> <s_lp_Force_Field>
OPLS_2005

> <r_lp_Energy>
32.0623

> <b_lp_Chiralities_Consistent>
1

> <s_lp_Variant>
AV-unprocessed.smi:1041-8

> <Gold.Version>
5.8.1

> <Gold.Id.Protein>
6NUR|6NUR_protein|mol2

> <Gold.PLP.Fitness>
46.5078

> <Gold.PLP.PLP>
-34.0841

> <Gold.PLP.part.hbond>
-3.2650

> <Gold.PLP.part.metal>
0.0000

> <Gold.PLP.part.buried>
-5.5704

> <Gold.PLP.part.nonpolar>
-26.1904

> <Gold.PLP.part.repulsive>
0.0080

> <Gold.PLP.ligand.clash>
0.0000

> <Gold.PLP.ligand.torsion>
0.4888

> <Gold.PLP.Chemscore.Hbond>
4.4480

> <Gold.PLP.Chemscore.CHOScore>
0.0000

> <Gold.PLP.Chemscore.Metal>
0.0000

> <Gold.Chemscore.Hbonds>
donor molecule, donor type, donor heavy atom, donor atom, acceptor molecule, acceptor atom, score
      P1  H  6896  6907       L1    12  0.74
      P1  H  6931  6943       L1    20  1.63
      P1  H  6934  6947       L1    20  1.98

> <Gold.PLP.Chemscore.Internal.Correction>
0.0573

> <Gold.Rescore>
     Score         DG    S(hbond)    S(metal)    S(lipo)     H(rot)  DE(clash)    DE(int)     intcor
     10.92     -13.50       1.27        0.00      82.31       2.28       1.33       1.25       ----

> <Gold.Chemscore.Fitness>
10.9219

> <Gold.Chemscore.DG>
-13.4968

> <Gold.Chemscore.ZeroCoef>
-5.4800

> <Gold.Chemscore.Hbond>
1.2658

> <Gold.Chemscore.Metal>
0.0000

> <Gold.Chemscore.Lipo>
82.3080

> <Gold.Chemscore.Internal_Hbond>
0.0000

> <Gold.Chemscore.DEClash>
1.3290

> <Gold.Chemscore.DEInternal>
1.2458

> <Gold.Chemscore.Rot>
2.2816

> <Gold.Chemscore.Internal.Correction>
   9.000000E+99

> <Gold.Chemscore.Hbonds>
donor molecule, donor type, donor heavy atom, donor atom, acceptor molecule, acceptor atom, score
      P1  H  6896  6907       L1    12  0.73
      P1  H  6931  6943       L1    20  0.15
      P1  H  6934  6947       L1    20  0.32

> <Gold.Chemscore.Hbond.Weighted>
-4.2277

> <Gold.Chemscore.Metal.Weighted>
-0.0000

> <Gold.Chemscore.Lipo.Weighted>
-9.6300

> <Gold.Chemscore.Internal_Hbond.Weighted>
0.0000

> <Gold.Chemscore.DEClash.Weighted>
1.3290

> <Gold.Chemscore.DEInternal.Weighted>
1.2458

> <Gold.Chemscore.Rot.Weighted>
5.8409

> <Gold.Chemscore.Internal.Correction.Weighted>
   9.000000E+99

> <Gold.Protein.RotatedTorsions>
[ 6907 6896 6895 6894 ] final  -92.82 input  -60.11 | X-H torsion
[ 7974 7965 7964 7962 ] final   58.78 input  175.53 | X-H torsion
[ 8008 7997 7996 7995 ] final   43.14 input   59.86 | X-H torsion
[ 10167 10162 10161 10158 ] final -161.78 input  -65.29 | X-H torsion
[ 10718 10713 10712 10709 ] final -106.76 input   66.30 | X-H torsion
[ 10763 10752 10751 10750 ] final   37.49 input  -60.55 | X-H torsion
[ 11005 11000 10999 10996 ] final   29.89 input  -57.11 | X-H torsion

> <Gold.Protein.ActiveResidues>
 VAL166  LYS551  ARG553  GLY616  TRP617  ASP618  TYR619  PRO620  LYS621  CYS622 
 ASP623  PHE694  ASN695  SER759  ASP760  ASP761  ALA762  ILE779  LEU786  VAL792 
 PHE793  MET794  SER795  GLU796  ALA797  LYS798  CYS799  TRP800  GLU811  SER814 

> <Gold.Protein.RotatedAtoms>
  150.6912  134.2063  159.4341 H   0  0  0  0  0  0  0  0  0  0  0  0  # atno 6907 bound_to 6896
  152.0027  134.9917  160.0575 H   0  0  0  0  0  0  0  0  0  0  0  0  # atno 6908 bound_to 6896
  152.1564  133.4519  159.4876 H   0  0  0  0  0  0  0  0  0  0  0  0  # atno 6909 bound_to 6896
  145.9144  139.3680  143.0516 H   0  0  0  0  0  0  0  0  0  0  0  0  # atno 7974 bound_to 7965
  155.2978  140.3383  155.4249 H   0  0  0  0  0  0  0  0  0  0  0  0  # atno 8008 bound_to 7997
  156.2015  140.1735  156.7928 H   0  0  0  0  0  0  0  0  0  0  0  0  # atno 8009 bound_to 7997
  154.5566  140.0695  156.8736 H   0  0  0  0  0  0  0  0  0  0  0  0  # atno 8010 bound_to 7997
  139.6440  144.0207  152.2113 H   0  0  0  0  0  0  0  0  0  0  0  0  # atno 10167 bound_to 10162
  156.0405  130.5629  150.7726 H   0  0  0  0  0  0  0  0  0  0  0  0  # atno 10718 bound_to 10713
  153.0035  135.6276  154.2153 H   0  0  0  0  0  0  0  0  0  0  0  0  # atno 10763 bound_to 10752
  154.1896  135.2809  155.3028 H   0  0  0  0  0  0  0  0  0  0  0  0  # atno 10764 bound_to 10752
  154.5770  135.5659  153.7208 H   0  0  0  0  0  0  0  0  0  0  0  0  # atno 10765 bound_to 10752
  140.3001  134.2766  155.7756 H   0  0  0  0  0  0  0  0  0  0  0  0  # atno 11005 bound_to 11000
  145.8630  140.9464  143.0690 LP  0  0  0  0  0  0  0  0  0  0  0  0  # atno 17320 bound_to 7965
  144.6746  140.0555  143.7477 LP  0  0  0  0  0  0  0  0  0  0  0  0  # atno 17321 bound_to 7965
  139.9904  144.6365  150.7819 LP  0  0  0  0  0  0  0  0  0  0  0  0  # atno 17342 bound_to 10162
  140.7505  143.2956  151.3213 LP  0  0  0  0  0  0  0  0  0  0  0  0  # atno 17343 bound_to 10162
  157.5216  131.0932  151.0072 LP  0  0  0  0  0  0  0  0  0  0  0  0  # atno 17370 bound_to 10713
  157.0401  130.5745  149.5355 LP  0  0  0  0  0  0  0  0  0  0  0  0  # atno 17371 bound_to 10713
  141.2129  133.7641  156.9754 LP  0  0  0  0  0  0  0  0  0  0  0  0  # atno 17394 bound_to 11000
  140.1117  134.9473  157.2075 LP  0  0  0  0  0  0  0  0  0  0  0  0  # atno 17395 bound_to 11000

$$$$
