AV-unprocessed.smi:2131|AV-procd|sdf|8687|dock2
  -GOLD-   2272011443D 1   1.00000     0.00000
 Structure written by MMmdl.
 40 42  0  0  0  0  0  0  0  0  1 V2000
  143.0599  147.4924  155.3295 N   0  0  0  0  0  0  0  0  0  0  0  0
  143.0458  146.5023  154.7310 C   0  0  0  0  0  0  0  0  0  0  0  0
  143.0283  145.2437  153.9700 C   0  0  0  0  0  0  0  0  0  0  0  0
  144.1777  144.3332  154.3491 C   0  0  0  0  0  0  0  0  0  0  0  0
  144.2336  143.7578  155.6334 C   0  0  0  0  0  0  0  0  0  0  0  0
  145.3028  142.9098  155.9811 C   0  0  0  0  0  0  0  0  0  0  0  0
  146.3293  142.6242  155.0573 C   0  0  0  0  0  0  0  0  0  0  0  0
  147.3355  141.7816  155.4797 O   0  0  0  0  0  0  0  0  0  0  0  0
  148.4345  141.5557  154.6062 C   0  0  0  0  0  0  0  0  0  0  0  0
  149.7113  141.3673  155.4386 C   0  0  2  0  0  0  0  0  0  0  0  0
  150.6303  140.6069  154.6789 O   0  0  0  0  0  0  0  0  0  0  0  0
  149.4407  140.6657  156.7840 C   0  0  0  0  0  0  0  0  0  0  0  0
  150.5473  140.8032  157.7148 N   0  0  0  0  0  0  0  0  0  0  0  0
  151.2047  139.8087  158.3413 C   0  0  0  0  0  0  0  0  0  0  0  0
  152.1957  140.1528  159.1586 N   0  0  0  0  0  0  0  0  0  0  0  0
  152.1814  141.5328  159.0495 C   0  0  0  0  0  0  0  0  0  0  0  0
  152.9922  142.5105  159.6697 C   0  0  0  0  0  0  0  0  0  0  0  0
  152.7890  143.8806  159.4036 C   0  0  0  0  0  0  0  0  0  0  0  0
  151.7739  144.2940  158.5164 C   0  0  0  0  0  0  0  0  0  0  0  0
  150.9533  143.3385  157.8866 C   0  0  0  0  0  0  0  0  0  0  0  0
  151.1604  141.9722  158.1534 C   0  0  0  0  0  0  0  0  0  0  0  0
  146.2687  143.2113  153.7679 C   0  0  0  0  0  0  0  0  0  0  0  0
  145.1989  144.0584  153.4187 C   0  0  0  0  0  0  0  0  0  0  0  0
  142.0764  144.7436  154.1508 H   0  0  0  0  0  0  0  0  0  0  0  0
  143.0763  145.4824  152.9071 H   0  0  0  0  0  0  0  0  0  0  0  0
  143.4571  143.9647  156.3551 H   0  0  0  0  0  0  0  0  0  0  0  0
  145.3349  142.4724  156.9681 H   0  0  0  0  0  0  0  0  0  0  0  0
  148.2608  140.6751  153.9852 H   0  0  0  0  0  0  0  0  0  0  0  0
  148.5523  142.4178  153.9469 H   0  0  0  0  0  0  0  0  0  0  0  0
  150.1641  142.3430  155.6196 H   0  0  0  0  0  0  0  0  0  0  0  0
  150.1450  139.9922  154.1499 H   0  0  0  0  0  0  0  0  0  0  0  0
  148.5492  141.0826  157.2545 H   0  0  0  0  0  0  0  0  0  0  0  0
  149.2415  139.6044  156.6305 H   0  0  0  0  0  0  0  0  0  0  0  0
  150.9387  138.7727  158.1891 H   0  0  0  0  0  0  0  0  0  0  0  0
  153.7722  142.2060  160.3518 H   0  0  0  0  0  0  0  0  0  0  0  0
  153.4149  144.6188  159.8833 H   0  0  0  0  0  0  0  0  0  0  0  0
  151.6252  145.3457  158.3200 H   0  0  0  0  0  0  0  0  0  0  0  0
  150.1734  143.6519  157.2085 H   0  0  0  0  0  0  0  0  0  0  0  0
  147.0316  143.0279  153.0268 H   0  0  0  0  0  0  0  0  0  0  0  0
  145.1644  144.4981  152.4327 H   0  0  0  0  0  0  0  0  0  0  0  0
  1  2  3  0  0  0  0
  2  3  1  0  0  0  0
  3  4  1  0  0  0  0
  3 24  1  0  0  0  0
  3 25  1  0  0  0  0
  4 23  1  0  0  0  0
  4  5  2  0  0  0  0
  5  6  1  0  0  0  0
  5 26  1  0  0  0  0
  6  7  2  0  0  0  0
  6 27  1  0  0  0  0
  7  8  1  0  0  0  0
  7 22  1  0  0  0  0
  8  9  1  0  0  0  0
  9 10  1  0  0  0  0
  9 28  1  0  0  0  0
  9 29  1  0  0  0  0
 10 11  1  0  0  0  0
 10 12  1  0  0  0  0
 10 30  1  0  0  0  0
 11 31  1  0  0  0  0
 12 13  1  0  0  0  0
 12 32  1  0  0  0  0
 12 33  1  0  0  0  0
 13 21  1  0  0  0  0
 13 14  1  0  0  0  0
 14 15  2  0  0  0  0
 14 34  1  0  0  0  0
 15 16  1  0  0  0  0
 16 21  2  0  0  0  0
 16 17  1  0  0  0  0
 17 18  2  0  0  0  0
 17 35  1  0  0  0  0
 18 19  1  0  0  0  0
 18 36  1  0  0  0  0
 19 20  2  0  0  0  0
 19 37  1  0  0  0  0
 20 21  1  0  0  0  0
 20 38  1  0  0  0  0
 22 23  2  0  0  0  0
 22 39  1  0  0  0  0
 23 40  1  0  0  0  0
M  END
> <s_m_source_file>
AV-unprocessed.smi

> <i_m_source_file_index>
2131

> <i_lp_mmshare_version>
43012

> <i_f3d_flags>
0

> <s_epik_input>
TiNDW0NIMl1jMVtjSF1bY0hdYyhbY0hdW2NIXTEpT1tDSDJdW0NASF0oW09IXSlbQ0gyXW4oW2NIXW4yKWMoYzIzKVtjSF1bY0hdW2NIXVtjSF0z

> <s_epik_cmdline>
J2VwaWtfcHl0aG9uJywgJy1waCcsICc3LjAnLCAnLXRuJywgJzgnLCAnLW1hJywgJzIwMCcsICctbWV0YWxfYmluZGluZycsICctaW1hZScsICc8aW5maWxlLm1hZT4nLCAnLW9tYWUnLCAnPG91dGZpbGUubWFlPic=

> <r_lp_tautomer_probability>
1

> <r_epik_Ionization_Penalty>
0.0609831

> <r_epik_Ionization_Penalty_Charging>
0

> <r_epik_Ionization_Penalty_Neutral>
0.0609831

> <r_epik_State_Penalty>
0.0529032

> <r_epik_Charging_Adjusted_Penalty>
0.0529032

> <i_epik_Tot_Q>
0

> <i_epik_Tot_abs_Q>
0

> <r_epik_Metal_State_Penalty>
5.53344e-05

> <b_epik_Metal_Only>
0

> <s_lp_Force_Field>
OPLS_2005

> <r_lp_Energy>
15.4123

> <b_lp_Chiralities_Consistent>
1

> <s_lp_Variant>
AV-unprocessed.smi:2131-1

> <Gold.Version>
5.8.1

> <Gold.Id.Protein>
6NUR|6NUR_protein|mol2

> <Gold.PLP.Fitness>
52.6068

> <Gold.PLP.PLP>
-50.9688

> <Gold.PLP.part.hbond>
-2.0000

> <Gold.PLP.part.metal>
0.0000

> <Gold.PLP.part.buried>
-6.0461

> <Gold.PLP.part.nonpolar>
-43.3602

> <Gold.PLP.part.repulsive>
0.1345

> <Gold.PLP.ligand.clash>
0.0000

> <Gold.PLP.ligand.torsion>
0.7208

> <Gold.PLP.Chemscore.Hbond>
1.0000

> <Gold.PLP.Chemscore.CHOScore>
0.0000

> <Gold.PLP.Chemscore.Metal>
0.0000

> <Gold.Chemscore.Hbonds>
donor molecule, donor type, donor heavy atom, donor atom, acceptor molecule, acceptor atom, score
      P1  H  7989  7998       L1    11  0.54

> <Gold.PLP.Chemscore.Internal.Correction>
0.0796

> <Gold.Rescore>
     Score         DG    S(hbond)    S(metal)    S(lipo)     H(rot)  DE(clash)    DE(int)     intcor
     14.34     -15.27       0.83        0.00     119.47       2.72       0.17       0.77       ----

> <Gold.Chemscore.Fitness>
14.3359

> <Gold.Chemscore.DG>
-15.2693

> <Gold.Chemscore.ZeroCoef>
-5.4800

> <Gold.Chemscore.Hbond>
0.8293

> <Gold.Chemscore.Metal>
0.0000

> <Gold.Chemscore.Lipo>
119.4729

> <Gold.Chemscore.Internal_Hbond>
0.0000

> <Gold.Chemscore.DEClash>
0.1675

> <Gold.Chemscore.DEInternal>
0.7658

> <Gold.Chemscore.Rot>
2.7183

> <Gold.Chemscore.Internal.Correction>
   9.000000E+99

> <Gold.Chemscore.Hbonds>
donor molecule, donor type, donor heavy atom, donor atom, acceptor molecule, acceptor atom, score
      P1  H  7989  7998       L1    11  0.03

> <Gold.Chemscore.Hbond.Weighted>
-2.7698

> <Gold.Chemscore.Metal.Weighted>
-0.0000

> <Gold.Chemscore.Lipo.Weighted>
-13.9783

> <Gold.Chemscore.Internal_Hbond.Weighted>
0.0000

> <Gold.Chemscore.DEClash.Weighted>
0.1675

> <Gold.Chemscore.DEInternal.Weighted>
0.7658

> <Gold.Chemscore.Rot.Weighted>
6.9588

> <Gold.Chemscore.Internal.Correction.Weighted>
   9.000000E+99

> <Gold.Protein.RotatedTorsions>
[ 6907 6896 6895 6894 ] final -169.56 input  -60.11 | X-H torsion
[ 7974 7965 7964 7962 ] final   -4.36 input  175.53 | X-H torsion
[ 8008 7997 7996 7995 ] final   62.67 input   59.86 | X-H torsion
[ 10167 10162 10161 10158 ] final   -2.77 input  -65.29 | X-H torsion
[ 10718 10713 10712 10709 ] final   37.99 input   66.30 | X-H torsion
[ 10763 10752 10751 10750 ] final  -30.94 input  -60.55 | X-H torsion
[ 11005 11000 10999 10996 ] final   74.45 input  -57.11 | X-H torsion

> <Gold.Protein.ActiveResidues>
 VAL166  LYS551  ARG553  GLY616  TRP617  ASP618  TYR619  PRO620  LYS621  CYS622 
 ASP623  PHE694  ASN695  SER759  ASP760  ASP761  ALA762  ILE779  LEU786  VAL792 
 PHE793  MET794  SER795  GLU796  ALA797  LYS798  CYS799  TRP800  GLU811  SER814 

> <Gold.Protein.RotatedAtoms>
  151.4935  133.3519  159.2857 H   0  0  0  0  0  0  0  0  0  0  0  0  # atno 6907 bound_to 6896
  150.8819  134.8213  159.7242 H   0  0  0  0  0  0  0  0  0  0  0  0  # atno 6908 bound_to 6896
  152.4768  134.4834  159.9724 H   0  0  0  0  0  0  0  0  0  0  0  0  # atno 6909 bound_to 6896
  146.2373  140.1860  142.8332 H   0  0  0  0  0  0  0  0  0  0  0  0  # atno 7974 bound_to 7965
  155.6181  140.3495  155.4643 H   0  0  0  0  0  0  0  0  0  0  0  0  # atno 8008 bound_to 7997
  156.0101  140.1231  157.0486 H   0  0  0  0  0  0  0  0  0  0  0  0  # atno 8009 bound_to 7997
  154.4278  140.1083  156.5804 H   0  0  0  0  0  0  0  0  0  0  0  0  # atno 8010 bound_to 7997
  140.6864  143.6618  150.8260 H   0  0  0  0  0  0  0  0  0  0  0  0  # atno 10167 bound_to 10162
  157.3536  130.7611  149.6996 H   0  0  0  0  0  0  0  0  0  0  0  0  # atno 10718 bound_to 10713
  153.7891  135.6899  153.4874 H   0  0  0  0  0  0  0  0  0  0  0  0  # atno 10763 bound_to 10752
  153.1761  135.4524  154.9965 H   0  0  0  0  0  0  0  0  0  0  0  0  # atno 10764 bound_to 10752
  154.8051  135.3354  154.7389 H   0  0  0  0  0  0  0  0  0  0  0  0  # atno 10765 bound_to 10752
  139.9390  134.7434  156.1150 H   0  0  0  0  0  0  0  0  0  0  0  0  # atno 11005 bound_to 11000
  144.9896  140.8534  143.5347 LP  0  0  0  0  0  0  0  0  0  0  0  0  # atno 17320 bound_to 7965
  145.1864  139.2324  143.5265 LP  0  0  0  0  0  0  0  0  0  0  0  0  # atno 17321 bound_to 7965
  140.0325  143.5429  152.2754 LP  0  0  0  0  0  0  0  0  0  0  0  0  # atno 17342 bound_to 10162
  139.6227  144.7632  151.2706 LP  0  0  0  0  0  0  0  0  0  0  0  0  # atno 17343 bound_to 10162
  155.9725  130.4134  150.4079 LP  0  0  0  0  0  0  0  0  0  0  0  0  # atno 17370 bound_to 10713
  157.2145  131.0468  151.2581 LP  0  0  0  0  0  0  0  0  0  0  0  0  # atno 17371 bound_to 10713
  141.1017  133.6675  156.2769 LP  0  0  0  0  0  0  0  0  0  0  0  0  # atno 17394 bound_to 11000
  140.6000  134.5564  157.5516 LP  0  0  0  0  0  0  0  0  0  0  0  0  # atno 17395 bound_to 11000

$$$$
