AV-unprocessed.smi:3256|AV-procd|sdf|12465|dock3
  -GOLD-   2272018363D 1   1.00000     0.00000
 Structure written by MMmdl.
 36 37  0  0  0  0  0  0  0  0  1 V2000
  145.4812  138.2567  153.3038 O   0  0  0  0  0  0  0  0  0  0  0  0
  146.5027  137.6859  152.9240 C   0  0  0  0  0  0  0  0  0  0  0  0
  146.5006  136.4883  152.3213 N   0  0  0  0  0  0  0  0  0  0  0  0
  145.3159  135.6846  152.0377 C   0  0  0  0  0  0  0  0  0  0  0  0
  145.4361  134.2672  152.6309 C   0  0  0  0  0  0  0  0  0  0  0  0
  145.1518  133.1680  151.7083 N   0  0  0  0  0  0  0  0  0  0  0  0
  146.1198  133.1338  150.6178 C   0  0  0  0  0  0  0  0  0  0  0  0
  145.8420  131.9793  149.6396 C   0  0  0  0  0  0  0  0  0  0  0  0
  144.5165  132.0931  149.1329 O   0  0  0  0  0  0  0  0  0  0  0  0
  143.5332  132.0879  150.1626 C   0  0  0  0  0  0  0  0  0  0  0  0
  143.8057  133.2410  151.1438 C   0  0  0  0  0  0  0  0  0  0  0  0
  147.7564  138.1530  153.0567 N   0  0  0  0  0  0  0  0  0  0  0  0
  148.2119  139.3773  153.6197 C   0  0  0  0  0  0  0  0  0  0  0  0
  147.4395  140.5605  153.7238 C   0  0  0  0  0  0  0  0  0  0  0  0
  148.0249  141.7065  154.2962 C   0  0  0  0  0  0  0  0  0  0  0  0
  149.3595  141.6320  154.7387 C   0  0  0  0  0  0  0  0  0  0  0  0
  150.1092  140.5146  154.6409 N   0  0  0  0  0  0  0  0  0  0  0  0
  149.5411  139.4199  154.0922 C   0  0  0  0  0  0  0  0  0  0  0  0
  147.3889  136.0947  152.0478 H   0  0  0  0  0  0  0  0  0  0  0  0
  144.4036  136.1873  152.3595 H   0  0  0  0  0  0  0  0  0  0  0  0
  145.2376  135.6039  150.9533 H   0  0  0  0  0  0  0  0  0  0  0  0
  146.4370  134.1394  153.0456 H   0  0  0  0  0  0  0  0  0  0  0  0
  144.7557  134.2050  153.4814 H   0  0  0  0  0  0  0  0  0  0  0  0
  146.0993  134.0798  150.0745 H   0  0  0  0  0  0  0  0  0  0  0  0
  147.1276  133.0274  151.0211 H   0  0  0  0  0  0  0  0  0  0  0  0
  146.5460  132.0092  148.8078 H   0  0  0  0  0  0  0  0  0  0  0  0
  145.9687  131.0148  150.1339 H   0  0  0  0  0  0  0  0  0  0  0  0
  142.5462  132.1975  149.7133 H   0  0  0  0  0  0  0  0  0  0  0  0
  143.5449  131.1285  150.6822 H   0  0  0  0  0  0  0  0  0  0  0  0
  143.0577  133.2069  151.9349 H   0  0  0  0  0  0  0  0  0  0  0  0
  143.6717  134.1929  150.6278 H   0  0  0  0  0  0  0  0  0  0  0  0
  148.4873  137.5389  152.7287 H   0  0  0  0  0  0  0  0  0  0  0  0
  146.4218  140.6242  153.3745 H   0  0  0  0  0  0  0  0  0  0  0  0
  147.4632  142.6241  154.3906 H   0  0  0  0  0  0  0  0  0  0  0  0
  149.8386  142.4934  155.1797 H   0  0  0  0  0  0  0  0  0  0  0  0
  150.1724  138.5454  154.0291 H   0  0  0  0  0  0  0  0  0  0  0  0
  1  2  2  0  0  0  0
  2  3  1  0  0  0  0
  2 12  1  0  0  0  0
  3  4  1  0  0  0  0
  3 19  1  0  0  0  0
  4  5  1  0  0  0  0
  4 20  1  0  0  0  0
  4 21  1  0  0  0  0
  5  6  1  0  0  0  0
  5 22  1  0  0  0  0
  5 23  1  0  0  0  0
  6 11  1  0  0  0  0
  6  7  1  0  0  0  0
  7  8  1  0  0  0  0
  7 24  1  0  0  0  0
  7 25  1  0  0  0  0
  8  9  1  0  0  0  0
  8 26  1  0  0  0  0
  8 27  1  0  0  0  0
  9 10  1  0  0  0  0
 10 11  1  0  0  0  0
 10 28  1  0  0  0  0
 10 29  1  0  0  0  0
 11 30  1  0  0  0  0
 11 31  1  0  0  0  0
 12 13  1  0  0  0  0
 12 32  1  0  0  0  0
 13 18  1  0  0  0  0
 13 14  2  0  0  0  0
 14 15  1  0  0  0  0
 14 33  1  0  0  0  0
 15 16  2  0  0  0  0
 15 34  1  0  0  0  0
 16 17  1  0  0  0  0
 16 35  1  0  0  0  0
 17 18  2  0  0  0  0
 18 36  1  0  0  0  0
M  END
> <s_m_source_file>
AV-unprocessed.smi

> <i_m_source_file_index>
3256

> <i_lp_mmshare_version>
43012

> <i_f3d_flags>
0

> <s_epik_input>
W2NIXTFuW2NIXVtjSF1bY0hdYzFbTkhdQyg9TylbTkhdW0NIMl1bQ0gyXU4yW0NIMl1bQ0gyXU9bQ0gyXVtDSDJdMg==

> <s_epik_cmdline>
J2VwaWtfcHl0aG9uJywgJy1waCcsICc3LjAnLCAnLXRuJywgJzgnLCAnLW1hJywgJzIwMCcsICctbWV0YWxfYmluZGluZycsICctaW1hZScsICc8aW5maWxlLm1hZT4nLCAnLW9tYWUnLCAnPG91dGZpbGUubWFlPic=

> <r_epik_Ionization_Penalty>
0.270703

> <r_epik_Ionization_Penalty_Charging>
0

> <r_epik_Ionization_Penalty_Neutral>
0.270703

> <r_epik_State_Penalty>
0.268226

> <r_epik_Charging_Adjusted_Penalty>
0.268226

> <i_epik_Tot_Q>
0

> <i_epik_Tot_abs_Q>
0

> <r_epik_Metal_State_Penalty>
0.26483

> <b_epik_Metal_Only>
0

> <s_lp_Force_Field>
OPLS_2005

> <r_lp_Energy>
28.1533

> <b_lp_Chiralities_Consistent>
1

> <s_lp_Variant>
AV-unprocessed.smi:3256-1

> <Gold.Version>
5.8.1

> <Gold.Id.Protein>
6NUR|6NUR_protein|mol2

> <Gold.PLP.Fitness>
42.1950

> <Gold.PLP.PLP>
-31.4790

> <Gold.PLP.part.hbond>
-3.9541

> <Gold.PLP.part.metal>
0.0000

> <Gold.PLP.part.buried>
-1.0901

> <Gold.PLP.part.nonpolar>
-29.0357

> <Gold.PLP.part.repulsive>
1.6199

> <Gold.PLP.ligand.clash>
0.0000

> <Gold.PLP.ligand.torsion>
0.4909

> <Gold.PLP.Chemscore.Hbond>
2.9200

> <Gold.PLP.Chemscore.CHOScore>
0.9732

> <Gold.PLP.Chemscore.Metal>
0.0000

> <Gold.Chemscore.Hbonds>
donor molecule, donor type, donor heavy atom, donor atom, acceptor molecule, acceptor atom, score
      L1  H     3    19       P1  7948  1.00
      L1  H    12    32       P1  7948  1.00
      P1  H  7989  7998       L1    17  0.91
      L1  C    16    35       P1  8028  0.97

> <Gold.PLP.Chemscore.Internal.Correction>
0.0180

> <Gold.Rescore>
     Score         DG    S(hbond)    S(metal)    S(lipo)     H(rot)  DE(clash)    DE(int)     intcor
     16.89     -18.58       2.32        0.00      78.57       1.49       0.21       1.48       ----

> <Gold.Chemscore.Fitness>
16.8918

> <Gold.Chemscore.DG>
-18.5810

> <Gold.Chemscore.ZeroCoef>
-5.4800

> <Gold.Chemscore.Hbond>
2.3158

> <Gold.Chemscore.Metal>
0.0000

> <Gold.Chemscore.Lipo>
78.5732

> <Gold.Chemscore.Internal_Hbond>
0.0000

> <Gold.Chemscore.DEClash>
0.2076

> <Gold.Chemscore.DEInternal>
1.4816

> <Gold.Chemscore.Rot>
1.4949

> <Gold.Chemscore.Internal.Correction>
   9.000000E+99

> <Gold.Chemscore.Hbonds>
donor molecule, donor type, donor heavy atom, donor atom, acceptor molecule, acceptor atom, score
      L1  H     3    19       P1  7948  0.92
      L1  H    12    32       P1  7948  0.95
      P1  H  7989  7998       L1    17  0.26

> <Gold.Chemscore.Hbond.Weighted>
-7.7348

> <Gold.Chemscore.Metal.Weighted>
-0.0000

> <Gold.Chemscore.Lipo.Weighted>
-9.1931

> <Gold.Chemscore.Internal_Hbond.Weighted>
0.0000

> <Gold.Chemscore.DEClash.Weighted>
0.2076

> <Gold.Chemscore.DEInternal.Weighted>
1.4816

> <Gold.Chemscore.Rot.Weighted>
3.8269

> <Gold.Chemscore.Internal.Correction.Weighted>
   9.000000E+99

> <Gold.Protein.RotatedTorsions>
[ 6907 6896 6895 6894 ] final  170.10 input  -60.11 | X-H torsion
[ 7974 7965 7964 7962 ] final  -50.47 input  175.53 | X-H torsion
[ 8008 7997 7996 7995 ] final  140.20 input   59.86 | X-H torsion
[ 10167 10162 10161 10158 ] final   57.30 input  -65.29 | X-H torsion
[ 10718 10713 10712 10709 ] final -136.41 input   66.30 | X-H torsion
[ 10763 10752 10751 10750 ] final  108.01 input  -60.55 | X-H torsion
[ 11005 11000 10999 10996 ] final  133.56 input  -57.11 | X-H torsion

> <Gold.Protein.ActiveResidues>
 VAL166  LYS551  ARG553  GLY616  TRP617  ASP618  TYR619  PRO620  LYS621  CYS622 
 ASP623  PHE694  ASN695  SER759  ASP760  ASP761  ALA762  ILE779  LEU786  VAL792 
 PHE793  MET794  SER795  GLU796  ALA797  LYS798  CYS799  TRP800  GLU811  SER814 

> <Gold.Protein.RotatedAtoms>
  151.8214  133.3395  159.3584 H   0  0  0  0  0  0  0  0  0  0  0  0  # atno 6907 bound_to 6896
  150.7293  134.5570  159.5833 H   0  0  0  0  0  0  0  0  0  0  0  0  # atno 6908 bound_to 6896
  152.3003  134.7619  160.0410 H   0  0  0  0  0  0  0  0  0  0  0  0  # atno 6909 bound_to 6896
  145.9295  140.7762  142.9607 H   0  0  0  0  0  0  0  0  0  0  0  0  # atno 7974 bound_to 7965
  156.2982  140.2348  156.4362 H   0  0  0  0  0  0  0  0  0  0  0  0  # atno 8008 bound_to 7997
  154.8227  140.0437  157.1442 H   0  0  0  0  0  0  0  0  0  0  0  0  # atno 8009 bound_to 7997
  154.9297  140.3015  155.5177 H   0  0  0  0  0  0  0  0  0  0  0  0  # atno 8010 bound_to 7997
  140.1994  144.4003  150.6535 H   0  0  0  0  0  0  0  0  0  0  0  0  # atno 10167 bound_to 10162
  156.2767  130.7297  151.1281 H   0  0  0  0  0  0  0  0  0  0  0  0  # atno 10718 bound_to 10713
  153.4146  135.3826  155.2072 H   0  0  0  0  0  0  0  0  0  0  0  0  # atno 10763 bound_to 10752
  154.8740  135.3802  154.4458 H   0  0  0  0  0  0  0  0  0  0  0  0  # atno 10764 bound_to 10752
  153.4971  135.7088  153.5914 H   0  0  0  0  0  0  0  0  0  0  0  0  # atno 10765 bound_to 10752
  139.9859  134.9532  156.9741 H   0  0  0  0  0  0  0  0  0  0  0  0  # atno 11005 bound_to 11000
  144.6763  140.2104  143.7377 LP  0  0  0  0  0  0  0  0  0  0  0  0  # atno 17320 bound_to 7965
  145.8445  139.2145  143.1808 LP  0  0  0  0  0  0  0  0  0  0  0  0  # atno 17321 bound_to 7965
  140.6401  143.2202  151.6310 LP  0  0  0  0  0  0  0  0  0  0  0  0  # atno 17342 bound_to 10162
  139.5223  144.3166  152.0946 LP  0  0  0  0  0  0  0  0  0  0  0  0  # atno 17343 bound_to 10162
  157.7301  131.0618  150.5740 LP  0  0  0  0  0  0  0  0  0  0  0  0  # atno 17370 bound_to 10713
  156.5842  130.4312  149.5964 LP  0  0  0  0  0  0  0  0  0  0  0  0  # atno 17371 bound_to 10713
  140.5003  134.1104  155.7249 LP  0  0  0  0  0  0  0  0  0  0  0  0  # atno 17394 bound_to 11000
  141.1524  133.8944  157.2064 LP  0  0  0  0  0  0  0  0  0  0  0  0  # atno 17395 bound_to 11000

$$$$
