AV-unprocessed.smi:1259|AV-procd|sdf|5292|dock7
  -GOLD-   22720 4413D 1   1.00000     0.00000
 Structure written by MMmdl.
 34 35  0  0  0  0  0  0  0  0  1 V2000
  147.1332  138.7668  153.2612 C   0  0  0  0  0  0  0  0  0  0  0  0
  148.2143  139.5414  153.9553 C   0  0  0  0  0  0  0  0  0  0  0  0
  148.1250  140.8343  154.5484 C   0  0  0  0  0  0  0  0  0  0  0  0
  149.3917  141.0351  155.0252 C   0  0  0  0  0  0  0  0  0  0  0  0
  149.8935  142.1066  155.6949 N   0  0  0  0  0  0  0  0  0  0  0  0
  150.7145  142.1241  156.7592 C   0  0  0  0  0  0  0  0  0  0  0  0
  151.1745  141.1306  157.3223 O   0  0  0  0  0  0  0  0  0  0  0  0
  150.9779  143.3815  157.1439 N   0  0  0  0  0  0  0  0  0  0  0  0
  151.8209  143.7625  158.2727 C   0  0  1  0  0  0  0  0  0  0  0  0
  152.9799  144.6233  157.7513 C   0  0  0  0  0  0  0  0  0  0  0  0
  151.0640  144.4847  159.3750 C   0  0  0  0  0  0  0  0  0  0  0  0
  151.6744  145.6657  160.0919 C   0  0  0  0  0  0  0  0  0  0  0  0
  151.4726  144.3591  160.8240 C   0  0  0  0  0  0  0  0  0  0  0  0
  150.1598  139.9315  154.7260 N   0  0  0  0  0  0  0  0  0  0  0  0
  151.5540  139.6682  155.0246 C   0  0  0  0  0  0  0  0  0  0  0  0
  149.4266  139.0096  154.0654 N   0  0  0  0  0  0  0  0  0  0  0  0
  146.2110  139.3451  153.2005 H   0  0  0  0  0  0  0  0  0  0  0  0
  146.9102  137.8419  153.7935 H   0  0  0  0  0  0  0  0  0  0  0  0
  147.4278  138.5051  152.2446 H   0  0  0  0  0  0  0  0  0  0  0  0
  147.2657  141.4855  154.6046 H   0  0  0  0  0  0  0  0  0  0  0  0
  149.5984  143.0069  155.3469 H   0  0  0  0  0  0  0  0  0  0  0  0
  150.5570  144.1351  156.6204 H   0  0  0  0  0  0  0  0  0  0  0  0
  152.2578  142.8578  158.6997 H   0  0  0  0  0  0  0  0  0  0  0  0
  153.6665  144.8865  158.5565 H   0  0  0  0  0  0  0  0  0  0  0  0
  152.6178  145.5512  157.3074 H   0  0  0  0  0  0  0  0  0  0  0  0
  153.5549  144.0917  156.9923 H   0  0  0  0  0  0  0  0  0  0  0  0
  149.9937  144.5569  159.1893 H   0  0  0  0  0  0  0  0  0  0  0  0
  152.6946  145.9434  159.8354 H   0  0  0  0  0  0  0  0  0  0  0  0
  151.0155  146.4931  160.3472 H   0  0  0  0  0  0  0  0  0  0  0  0
  150.6784  144.3137  161.5663 H   0  0  0  0  0  0  0  0  0  0  0  0
  152.3602  143.7733  161.0549 H   0  0  0  0  0  0  0  0  0  0  0  0
  151.6551  139.3834  156.0720 H   0  0  0  0  0  0  0  0  0  0  0  0
  152.1484  140.5627  154.8380 H   0  0  0  0  0  0  0  0  0  0  0  0
  151.9328  138.8602  154.3973 H   0  0  0  0  0  0  0  0  0  0  0  0
  1  2  1  0  0  0  0
  1 17  1  0  0  0  0
  1 18  1  0  0  0  0
  1 19  1  0  0  0  0
  2 16  2  0  0  0  0
  2  3  1  0  0  0  0
  3  4  2  0  0  0  0
  3 20  1  0  0  0  0
  4  5  1  0  0  0  0
  4 14  1  0  0  0  0
  5  6  1  0  0  0  0
  5 21  1  0  0  0  0
  6  7  2  0  0  0  0
  6  8  1  0  0  0  0
  8  9  1  0  0  0  0
  8 22  1  0  0  0  0
  9 10  1  0  0  0  0
  9 11  1  0  0  0  0
  9 23  1  0  0  0  0
 10 24  1  0  0  0  0
 10 25  1  0  0  0  0
 10 26  1  0  0  0  0
 11 13  1  0  0  0  0
 11 12  1  0  0  0  0
 11 27  1  0  0  0  0
 12 13  1  0  0  0  0
 12 28  1  0  0  0  0
 12 29  1  0  0  0  0
 13 30  1  0  0  0  0
 13 31  1  0  0  0  0
 14 15  1  0  0  0  0
 14 16  1  0  0  0  0
 15 32  1  0  0  0  0
 15 33  1  0  0  0  0
 15 34  1  0  0  0  0
M  END
> <s_m_source_file>
AV-unprocessed.smi

> <i_m_source_file_index>
1259

> <i_lp_mmshare_version>
43012

> <i_f3d_flags>
0

> <s_epik_input>
W0NIM11jMVtjSF1jKG4objEpW0NIM10pW05IXUMoPU8pW05IXVtDQEhdKFtDSDNdKVtDSF0yW0NIMl1bQ0gyXTI=

> <s_epik_cmdline>
J2VwaWtfcHl0aG9uJywgJy1waCcsICc3LjAnLCAnLXRuJywgJzgnLCAnLW1hJywgJzIwMCcsICctbWV0YWxfYmluZGluZycsICctaW1hZScsICc8aW5maWxlLm1hZT4nLCAnLW9tYWUnLCAnPG91dGZpbGUubWFlPic=

> <r_lp_tautomer_probability>
1

> <r_epik_Ionization_Penalty>
0.000100032

> <r_epik_Ionization_Penalty_Charging>
0

> <r_epik_Ionization_Penalty_Neutral>
0.000100032

> <r_epik_State_Penalty>
-0

> <r_epik_Charging_Adjusted_Penalty>
0

> <i_epik_Tot_Q>
0

> <i_epik_Tot_abs_Q>
0

> <r_epik_Metal_State_Penalty>
-0

> <b_epik_Metal_Only>
0

> <s_lp_Force_Field>
OPLS_2005

> <r_lp_Energy>
14.2964

> <b_lp_Chiralities_Consistent>
1

> <s_lp_Variant>
AV-unprocessed.smi:1259-2

> <Gold.Version>
5.8.1

> <Gold.Id.Protein>
6NUR|6NUR_protein|mol2

> <Gold.PLP.Fitness>
40.8630

> <Gold.PLP.PLP>
-36.8013

> <Gold.PLP.part.hbond>
-2.0000

> <Gold.PLP.part.metal>
0.0000

> <Gold.PLP.part.buried>
-3.7364

> <Gold.PLP.part.nonpolar>
-33.2426

> <Gold.PLP.part.repulsive>
0.3897

> <Gold.PLP.ligand.clash>
0.0000

> <Gold.PLP.ligand.torsion>
1.3075

> <Gold.PLP.Chemscore.Hbond>
1.8720

> <Gold.PLP.Chemscore.CHOScore>
0.0000

> <Gold.PLP.Chemscore.Metal>
0.0000

> <Gold.Chemscore.Hbonds>
donor molecule, donor type, donor heavy atom, donor atom, acceptor molecule, acceptor atom, score
      L1  H     5    21       P1  8028  1.00
      L1  H     8    22       P1  8028  0.91

> <Gold.PLP.Chemscore.Internal.Correction>
1.0607

> <Gold.Rescore>
     Score         DG    S(hbond)    S(metal)    S(lipo)     H(rot)  DE(clash)    DE(int)     intcor
     14.85     -18.52       1.82        0.00      85.64       1.20       0.32       3.35       ----

> <Gold.Chemscore.Fitness>
14.8489

> <Gold.Chemscore.DG>
-18.5187

> <Gold.Chemscore.ZeroCoef>
-5.4800

> <Gold.Chemscore.Hbond>
1.8229

> <Gold.Chemscore.Metal>
0.0000

> <Gold.Chemscore.Lipo>
85.6384

> <Gold.Chemscore.Internal_Hbond>
0.0000

> <Gold.Chemscore.DEClash>
0.3191

> <Gold.Chemscore.DEInternal>
3.3507

> <Gold.Chemscore.Rot>
1.1990

> <Gold.Chemscore.Internal.Correction>
   9.000000E+99

> <Gold.Chemscore.Hbonds>
donor molecule, donor type, donor heavy atom, donor atom, acceptor molecule, acceptor atom, score
      L1  H     5    21       P1  8028  0.95
      L1  H     8    22       P1  8028  0.85

> <Gold.Chemscore.Hbond.Weighted>
-6.0886

> <Gold.Chemscore.Metal.Weighted>
-0.0000

> <Gold.Chemscore.Lipo.Weighted>
-10.0197

> <Gold.Chemscore.Internal_Hbond.Weighted>
0.0000

> <Gold.Chemscore.DEClash.Weighted>
0.3191

> <Gold.Chemscore.DEInternal.Weighted>
3.3507

> <Gold.Chemscore.Rot.Weighted>
3.0695

> <Gold.Chemscore.Internal.Correction.Weighted>
   9.000000E+99

> <Gold.Protein.RotatedTorsions>
[ 6907 6896 6895 6894 ] final  -42.53 input  -60.11 | X-H torsion
[ 7974 7965 7964 7962 ] final   97.65 input  175.53 | X-H torsion
[ 8008 7997 7996 7995 ] final   81.19 input   59.86 | X-H torsion
[ 10167 10162 10161 10158 ] final   75.90 input  -65.29 | X-H torsion
[ 10718 10713 10712 10709 ] final  -35.92 input   66.30 | X-H torsion
[ 10763 10752 10751 10750 ] final  -45.33 input  -60.55 | X-H torsion
[ 11005 11000 10999 10996 ] final   -1.10 input  -57.11 | X-H torsion

> <Gold.Protein.ActiveResidues>
 VAL166  LYS551  ARG553  GLY616  TRP617  ASP618  TYR619  PRO620  LYS621  CYS622 
 ASP623  PHE694  ASN695  SER759  ASP760  ASP761  ALA762  ILE779  LEU786  VAL792 
 PHE793  MET794  SER795  GLU796  ALA797  LYS798  CYS799  TRP800  GLU811  SER814 

> <Gold.Protein.RotatedAtoms>
  150.9542  134.8939  159.7690 H   0  0  0  0  0  0  0  0  0  0  0  0  # atno 6907 bound_to 6896
  152.5131  134.3763  159.9345 H   0  0  0  0  0  0  0  0  0  0  0  0  # atno 6908 bound_to 6896
  151.3778  133.3791  159.2741 H   0  0  0  0  0  0  0  0  0  0  0  0  # atno 6909 bound_to 6896
  145.4227  139.2319  143.3187 H   0  0  0  0  0  0  0  0  0  0  0  0  # atno 7974 bound_to 7965
  155.8938  140.3437  155.5975 H   0  0  0  0  0  0  0  0  0  0  0  0  # atno 8008 bound_to 7997
  155.7580  140.0829  157.2188 H   0  0  0  0  0  0  0  0  0  0  0  0  # atno 8009 bound_to 7997
  154.4036  140.1541  156.2787 H   0  0  0  0  0  0  0  0  0  0  0  0  # atno 8010 bound_to 7997
  139.9979  144.5708  150.7762 H   0  0  0  0  0  0  0  0  0  0  0  0  # atno 10167 bound_to 10162
  156.3329  130.4282  149.7856 H   0  0  0  0  0  0  0  0  0  0  0  0  # atno 10718 bound_to 10713
  154.0268  135.6662  153.4777 H   0  0  0  0  0  0  0  0  0  0  0  0  # atno 10763 bound_to 10752
  153.0557  135.5057  154.7971 H   0  0  0  0  0  0  0  0  0  0  0  0  # atno 10764 bound_to 10752
  154.6903  135.3060  154.9453 H   0  0  0  0  0  0  0  0  0  0  0  0  # atno 10765 bound_to 10752
  140.6436  133.9467  155.8340 H   0  0  0  0  0  0  0  0  0  0  0  0  # atno 11005 bound_to 11000
  146.2648  140.4954  142.8838 LP  0  0  0  0  0  0  0  0  0  0  0  0  # atno 17320 bound_to 7965
  144.8234  140.6588  143.6338 LP  0  0  0  0  0  0  0  0  0  0  0  0  # atno 17321 bound_to 7965
  140.7430  143.2840  151.3518 LP  0  0  0  0  0  0  0  0  0  0  0  0  # atno 17342 bound_to 10162
  139.6292  144.0753  152.2461 LP  0  0  0  0  0  0  0  0  0  0  0  0  # atno 17343 bound_to 10162
  156.5122  130.8177  151.3173 LP  0  0  0  0  0  0  0  0  0  0  0  0  # atno 17370 bound_to 10713
  157.7433  130.9910  150.2586 LP  0  0  0  0  0  0  0  0  0  0  0  0  # atno 17371 bound_to 10713
  141.0588  134.0376  157.3686 LP  0  0  0  0  0  0  0  0  0  0  0  0  # atno 17394 bound_to 11000
  139.9071  135.0182  156.7532 LP  0  0  0  0  0  0  0  0  0  0  0  0  # atno 17395 bound_to 11000

$$$$
