AV-unprocessed.smi:175|AV-procd|sdf|1430|dock2
  -GOLD-   2262019203D 1   1.00000     0.00000
 Structure written by MMmdl.
 47 50  0  0  0  0  0  0  0  0  1 V2000
  146.8313  137.7182  156.3236 C   0  0  0  0  0  0  0  0  0  0  0  0
  146.8080  137.3009  154.8444 C   0  0  1  0  0  0  0  0  0  0  0  0
  145.9802  136.1618  154.6598 O   0  0  0  0  0  0  0  0  0  0  0  0
  145.6934  136.0793  153.2758 C   0  0  0  0  0  0  0  0  0  0  0  0
  145.3704  137.5239  152.9139 C   0  0  0  0  0  0  0  0  0  0  0  0
  146.2890  138.3473  153.8220 C   0  0  1  0  0  0  0  0  0  0  0  0
  145.5053  139.3507  154.4473 O   0  0  0  0  0  0  0  0  0  0  0  0
  147.4229  139.0424  153.0281 C   0  0  0  0  0  0  0  0  0  0  0  0
  148.4200  139.6789  153.8763 N   0  0  0  0  0  0  0  0  0  0  0  0
  148.3863  140.9662  154.3650 C   0  0  0  0  0  0  0  0  0  0  0  0
  149.3991  141.3046  155.1147 N   0  0  0  0  0  0  0  0  0  0  0  0
  150.1964  140.1673  155.1375 C   0  0  0  0  0  0  0  0  0  0  0  0
  151.4352  139.8349  155.7555 C   0  0  0  0  0  0  0  0  0  0  0  0
  152.1542  140.6740  156.5338 N   0  0  0  0  0  0  0  0  0  0  0  0
  152.4411  140.1556  157.8726 C   0  0  0  0  0  0  0  0  0  0  0  0
  151.9005  141.2399  158.7833 C   0  0  0  0  0  0  0  0  0  0  0  0
  151.9139  141.1613  160.0106 O   0  0  0  0  0  0  0  0  0  0  0  0
  151.4190  142.2479  158.0549 N   0  0  0  0  0  0  0  0  0  0  0  0
  150.7995  143.4726  158.5546 C   0  0  0  0  0  0  0  0  0  0  0  0
  151.8274  144.4335  159.1787 C   0  0  0  0  0  0  0  0  0  0  0  0
  152.3658  143.8546  160.2510 F   0  0  0  0  0  0  0  0  0  0  0  0
  152.8004  144.7013  158.3076 F   0  0  0  0  0  0  0  0  0  0  0  0
  151.2532  145.5750  159.5580 F   0  0  0  0  0  0  0  0  0  0  0  0
  151.6018  142.0267  156.6304 C   0  0  0  0  0  0  0  0  0  0  0  0
  151.9363  138.5927  155.5524 N   0  0  0  0  0  0  0  0  0  0  0  0
  151.2688  137.7223  154.7884 C   0  0  0  0  0  0  0  0  0  0  0  0
  150.1081  137.8889  154.1499 N   0  0  0  0  0  0  0  0  0  0  0  0
  149.6006  139.1382  154.3569 C   0  0  0  0  0  0  0  0  0  0  0  0
  147.4496  138.6035  156.4733 H   0  0  0  0  0  0  0  0  0  0  0  0
  147.2423  136.9202  156.9418 H   0  0  0  0  0  0  0  0  0  0  0  0
  145.8298  137.9370  156.6943 H   0  0  0  0  0  0  0  0  0  0  0  0
  147.8124  136.9860  154.5598 H   0  0  0  0  0  0  0  0  0  0  0  0
  146.5739  135.7261  152.7364 H   0  0  0  0  0  0  0  0  0  0  0  0
  144.8668  135.3981  153.0739 H   0  0  0  0  0  0  0  0  0  0  0  0
  145.5130  137.7252  151.8516 H   0  0  0  0  0  0  0  0  0  0  0  0
  144.3203  137.7145  153.1420 H   0  0  0  0  0  0  0  0  0  0  0  0
  144.9414  139.7403  153.7968 H   0  0  0  0  0  0  0  0  0  0  0  0
  147.9296  138.3180  152.3893 H   0  0  0  0  0  0  0  0  0  0  0  0
  147.0107  139.7993  152.3592 H   0  0  0  0  0  0  0  0  0  0  0  0
  147.5770  141.6498  154.1531 H   0  0  0  0  0  0  0  0  0  0  0  0
  151.9638  139.1979  158.0891 H   0  0  0  0  0  0  0  0  0  0  0  0
  153.5169  140.0470  158.0115 H   0  0  0  0  0  0  0  0  0  0  0  0
  150.2691  143.9700  157.7412 H   0  0  0  0  0  0  0  0  0  0  0  0
  150.0430  143.2114  159.2957 H   0  0  0  0  0  0  0  0  0  0  0  0
  152.3167  142.7444  156.2265 H   0  0  0  0  0  0  0  0  0  0  0  0
  150.6581  142.1528  156.0964 H   0  0  0  0  0  0  0  0  0  0  0  0
  151.7303  136.7526  154.6729 H   0  0  0  0  0  0  0  0  0  0  0  0
  1  2  1  0  0  0  0
  1 29  1  0  0  0  0
  1 30  1  0  0  0  0
  1 31  1  0  0  0  0
  2  6  1  0  0  0  0
  2  3  1  0  0  0  0
  2 32  1  0  0  0  0
  3  4  1  0  0  0  0
  4  5  1  0  0  0  0
  4 33  1  0  0  0  0
  4 34  1  0  0  0  0
  5  6  1  0  0  0  0
  5 35  1  0  0  0  0
  5 36  1  0  0  0  0
  6  7  1  0  0  0  0
  6  8  1  0  0  0  0
  7 37  1  0  0  0  0
  8  9  1  0  0  0  0
  8 38  1  0  0  0  0
  8 39  1  0  0  0  0
  9 28  1  0  0  0  0
  9 10  1  0  0  0  0
 10 11  2  0  0  0  0
 10 40  1  0  0  0  0
 11 12  1  0  0  0  0
 12 28  2  0  0  0  0
 12 13  1  0  0  0  0
 13 14  1  0  0  0  0
 13 25  2  0  0  0  0
 14 24  1  0  0  0  0
 14 15  1  0  0  0  0
 15 16  1  0  0  0  0
 15 41  1  0  0  0  0
 15 42  1  0  0  0  0
 16 17  2  0  0  0  0
 16 18  1  0  0  0  0
 18 19  1  0  0  0  0
 18 24  1  0  0  0  0
 19 20  1  0  0  0  0
 19 43  1  0  0  0  0
 19 44  1  0  0  0  0
 20 21  1  0  0  0  0
 20 22  1  0  0  0  0
 20 23  1  0  0  0  0
 24 45  1  0  0  0  0
 24 46  1  0  0  0  0
 25 26  1  0  0  0  0
 26 27  2  0  0  0  0
 26 47  1  0  0  0  0
 27 28  1  0  0  0  0
M  END
> <s_m_source_file>
AV-unprocessed.smi

> <i_m_source_file_index>
175

> <i_lp_mmshare_version>
43012

> <i_f3d_flags>
0

> <s_epik_input>
W0NIMl0xW0NIMl1PW0NAQEhdKFtDSDNdKVtDQEBdMShbT0hdKVtDSDJdbihbY0hdbjIpYyhjMjMpbltjSF1uYzNONFtDSDJdQyg9TylOKFtDSDJdNClbQ0gyXUMoRikoRilG

> <s_epik_cmdline>
J2VwaWtfcHl0aG9uJywgJy1waCcsICc3LjAnLCAnLXRuJywgJzgnLCAnLW1hJywgJzIwMCcsICctbWV0YWxfYmluZGluZycsICctaW1hZScsICc8aW5maWxlLm1hZT4nLCAnLW9tYWUnLCAnPG91dGZpbGUubWFlPic=

> <r_lp_tautomer_probability>
1

> <r_epik_Ionization_Penalty>
0.000307802

> <r_epik_Ionization_Penalty_Charging>
0

> <r_epik_Ionization_Penalty_Neutral>
0.000307802

> <r_epik_State_Penalty>
-0

> <r_epik_Charging_Adjusted_Penalty>
0

> <i_epik_Tot_Q>
0

> <i_epik_Tot_abs_Q>
0

> <r_epik_Metal_State_Penalty>
-0

> <b_epik_Metal_Only>
0

> <s_epik_Chemistry_Notes>
This compound contains an acetal/aminal-like group ( X-CH(R)-Y where X, Y are N, S, or O) that may be acid/base labile, releasing an aldehyde.

> <s_lp_Force_Field>
OPLS_2005

> <r_lp_Energy>
36.8699

> <b_lp_Chiralities_Consistent>
1

> <s_lp_Variant>
AV-unprocessed.smi:175-2

> <Gold.Version>
5.8.1

> <Gold.Id.Protein>
6NUR|6NUR_protein|mol2

> <Gold.PLP.Fitness>
44.5637

> <Gold.PLP.PLP>
-42.4424

> <Gold.PLP.part.hbond>
-1.8528

> <Gold.PLP.part.metal>
0.0000

> <Gold.PLP.part.buried>
-1.1041

> <Gold.PLP.part.nonpolar>
-39.4598

> <Gold.PLP.part.repulsive>
1.1023

> <Gold.PLP.ligand.clash>
0.0000

> <Gold.PLP.ligand.torsion>
0.6184

> <Gold.PLP.Chemscore.Hbond>
1.0318

> <Gold.PLP.Chemscore.CHOScore>
0.0000

> <Gold.PLP.Chemscore.Metal>
0.0000

> <Gold.Chemscore.Hbonds>
donor molecule, donor type, donor heavy atom, donor atom, acceptor molecule, acceptor atom, score
      L1  H     7    37       P1 10175  1.00
      P1  H  7997  8010       L1    14  0.03

> <Gold.PLP.Chemscore.Internal.Correction>
0.2627

> <Gold.Rescore>
     Score         DG    S(hbond)    S(metal)    S(lipo)     H(rot)  DE(clash)    DE(int)     intcor
      2.01      -6.74       1.00        0.00      49.03       3.05       1.58       3.15       ----

> <Gold.Chemscore.Fitness>
2.0099

> <Gold.Chemscore.DG>
-6.7431

> <Gold.Chemscore.ZeroCoef>
-5.4800

> <Gold.Chemscore.Hbond>
0.9972

> <Gold.Chemscore.Metal>
0.0000

> <Gold.Chemscore.Lipo>
49.0347

> <Gold.Chemscore.Internal_Hbond>
0.0000

> <Gold.Chemscore.DEClash>
1.5793

> <Gold.Chemscore.DEInternal>
3.1539

> <Gold.Chemscore.Rot>
3.0487

> <Gold.Chemscore.Internal.Correction>
   9.000000E+99

> <Gold.Chemscore.Hbonds>
donor molecule, donor type, donor heavy atom, donor atom, acceptor molecule, acceptor atom, score
      L1  H     7    37       P1 10175  0.98

> <Gold.Chemscore.Hbond.Weighted>
-3.3306

> <Gold.Chemscore.Metal.Weighted>
-0.0000

> <Gold.Chemscore.Lipo.Weighted>
-5.7371

> <Gold.Chemscore.Internal_Hbond.Weighted>
0.0000

> <Gold.Chemscore.DEClash.Weighted>
1.5793

> <Gold.Chemscore.DEInternal.Weighted>
3.1539

> <Gold.Chemscore.Rot.Weighted>
7.8046

> <Gold.Chemscore.Internal.Correction.Weighted>
   9.000000E+99

> <Gold.Protein.RotatedTorsions>
[ 6907 6896 6895 6894 ] final  133.07 input  -60.11 | X-H torsion
[ 7974 7965 7964 7962 ] final  -18.25 input  175.53 | X-H torsion
[ 8008 7997 7996 7995 ] final   86.01 input   59.86 | X-H torsion
[ 10167 10162 10161 10158 ] final  129.57 input  -65.29 | X-H torsion
[ 10718 10713 10712 10709 ] final  -96.38 input   66.30 | X-H torsion
[ 10763 10752 10751 10750 ] final  141.42 input  -60.55 | X-H torsion
[ 11005 11000 10999 10996 ] final  150.03 input  -57.11 | X-H torsion

> <Gold.Protein.ActiveResidues>
 VAL166  LYS551  ARG553  GLY616  TRP617  ASP618  TYR619  PRO620  LYS621  CYS622 
 ASP623  PHE694  ASN695  SER759  ASP760  ASP761  ALA762  ILE779  LEU786  VAL792 
 PHE793  MET794  SER795  GLU796  ALA797  LYS798  CYS799  TRP800  GLU811  SER814 

> <Gold.Protein.RotatedAtoms>
  152.3257  133.5903  159.5775 H   0  0  0  0  0  0  0  0  0  0  0  0  # atno 6907 bound_to 6896
  150.7395  133.9943  159.3626 H   0  0  0  0  0  0  0  0  0  0  0  0  # atno 6908 bound_to 6896
  151.7823  135.0759  160.0426 H   0  0  0  0  0  0  0  0  0  0  0  0  # atno 6909 bound_to 6896
  146.1901  140.3894  142.8461 H   0  0  0  0  0  0  0  0  0  0  0  0  # atno 7974 bound_to 7965
  155.9574  140.3396  155.6460 H   0  0  0  0  0  0  0  0  0  0  0  0  # atno 8008 bound_to 7997
  155.6843  140.0741  157.2491 H   0  0  0  0  0  0  0  0  0  0  0  0  # atno 8009 bound_to 7997
  154.4135  140.1669  156.2004 H   0  0  0  0  0  0  0  0  0  0  0  0  # atno 8010 bound_to 7997
  139.5471  144.6782  151.4439 H   0  0  0  0  0  0  0  0  0  0  0  0  # atno 10167 bound_to 10162
  156.0061  130.5149  150.6217 H   0  0  0  0  0  0  0  0  0  0  0  0  # atno 10718 bound_to 10713
  153.9389  135.2982  155.3443 H   0  0  0  0  0  0  0  0  0  0  0  0  # atno 10763 bound_to 10752
  154.7487  135.4990  153.9254 H   0  0  0  0  0  0  0  0  0  0  0  0  # atno 10764 bound_to 10752
  153.1053  135.6745  153.9705 H   0  0  0  0  0  0  0  0  0  0  0  0  # atno 10765 bound_to 10752
  140.1096  134.8932  157.1916 H   0  0  0  0  0  0  0  0  0  0  0  0  # atno 11005 bound_to 11000
  144.8471  140.6946  143.6192 LP  0  0  0  0  0  0  0  0  0  0  0  0  # atno 17320 bound_to 7965
  145.3817  139.1635  143.4277 LP  0  0  0  0  0  0  0  0  0  0  0  0  # atno 17321 bound_to 7965
  140.6723  143.8267  150.7014 LP  0  0  0  0  0  0  0  0  0  0  0  0  # atno 17342 bound_to 10162
  140.1695  143.4206  152.2011 LP  0  0  0  0  0  0  0  0  0  0  0  0  # atno 17343 bound_to 10162
  157.4031  131.0813  151.1290 LP  0  0  0  0  0  0  0  0  0  0  0  0  # atno 17370 bound_to 10713
  157.1945  130.6367  149.5716 LP  0  0  0  0  0  0  0  0  0  0  0  0  # atno 17371 bound_to 10713
  140.3109  134.3024  155.7267 LP  0  0  0  0  0  0  0  0  0  0  0  0  # atno 17394 bound_to 11000
  141.2127  133.7650  156.9775 LP  0  0  0  0  0  0  0  0  0  0  0  0  # atno 17395 bound_to 11000

$$$$
