AV-unprocessed.smi:3311|AV-procd|sdf|12722|dock4
  -GOLD-   2272019 63D 1   1.00000     0.00000
 Structure written by MMmdl.
 44 45  0  0  0  0  0  0  0  0  2 V2000
  143.9291  136.6837  152.3109 C   0  0  0  0  0  0  0  0  0  0  0  0
  145.3313  136.1291  152.0101 C   0  0  1  0  0  0  0  0  0  0  0  0
  146.3315  136.9574  152.7215 N   0  3  0  0  0  0  0  0  0  0  0  0
  146.3283  138.3936  152.3674 C   0  0  0  0  0  0  0  0  0  0  0  0
  147.4215  139.1795  153.1235 C   0  0  0  0  0  0  0  0  0  0  0  0
  148.6740  138.6616  152.7115 O   0  0  0  0  0  0  0  0  0  0  0  0
  147.3568  140.6953  152.8080 C   0  0  0  0  0  0  0  0  0  0  0  0
  148.3432  141.5258  153.6473 C   0  0  0  0  0  0  0  0  0  0  0  0
  148.1485  141.2769  155.1491 C   0  0  0  0  0  0  0  0  0  0  0  0
  148.2699  139.7824  155.4778 C   0  0  0  0  0  0  0  0  0  0  0  0
  147.2837  138.9424  154.6460 C   0  0  0  0  0  0  0  0  0  0  0  0
  145.4893  134.6387  152.4153 C   0  0  1  0  0  0  0  0  0  0  0  0
  145.0874  134.3599  153.8761 C   0  0  0  0  0  0  0  0  0  0  0  0
  144.7450  133.7588  151.5201 N   0  0  0  0  0  0  0  0  0  0  0  0
  144.9661  133.5214  150.1788 C   0  0  0  0  0  0  0  0  0  0  0  0
  144.0134  132.6389  149.7572 C   0  0  0  0  0  0  0  0  0  0  0  0
  143.2451  132.3857  150.9270 C   0  0  0  0  0  0  0  0  0  0  0  0
  143.6834  133.0576  151.9788 N   0  0  0  0  0  0  0  0  0  0  0  0
  143.1609  136.1772  151.7270 H   0  0  0  0  0  0  0  0  0  0  0  0
  143.8672  137.7437  152.0627 H   0  0  0  0  0  0  0  0  0  0  0  0
  143.6752  136.5750  153.3659 H   0  0  0  0  0  0  0  0  0  0  0  0
  145.4926  136.2179  150.9342 H   0  0  0  0  0  0  0  0  0  0  0  0
  146.1797  136.8761  153.7169 H   0  0  0  0  0  0  0  0  0  0  0  0
  146.4887  138.4984  151.2938 H   0  0  0  0  0  0  0  0  0  0  0  0
  145.3403  138.8050  152.5791 H   0  0  0  0  0  0  0  0  0  0  0  0
  148.5302  137.8242  152.2967 H   0  0  0  0  0  0  0  0  0  0  0  0
  147.5463  140.8785  151.7497 H   0  0  0  0  0  0  0  0  0  0  0  0
  146.3459  141.0581  152.9997 H   0  0  0  0  0  0  0  0  0  0  0  0
  149.3678  141.2807  153.3651 H   0  0  0  0  0  0  0  0  0  0  0  0
  148.2117  142.5858  153.4285 H   0  0  0  0  0  0  0  0  0  0  0  0
  148.8850  141.8447  155.7188 H   0  0  0  0  0  0  0  0  0  0  0  0
  147.1684  141.6433  155.4580 H   0  0  0  0  0  0  0  0  0  0  0  0
  149.2911  139.4486  155.2910 H   0  0  0  0  0  0  0  0  0  0  0  0
  148.0860  139.6227  156.5408 H   0  0  0  0  0  0  0  0  0  0  0  0
  146.2685  139.1925  154.9580 H   0  0  0  0  0  0  0  0  0  0  0  0
  147.4170  137.8849  154.8788 H   0  0  0  0  0  0  0  0  0  0  0  0
  146.5426  134.3717  152.3125 H   0  0  0  0  0  0  0  0  0  0  0  0
  145.7497  134.8631  154.5798 H   0  0  0  0  0  0  0  0  0  0  0  0
  145.1400  133.2934  154.0974 H   0  0  0  0  0  0  0  0  0  0  0  0
  144.0686  134.6903  154.0815 H   0  0  0  0  0  0  0  0  0  0  0  0
  145.7724  133.9966  149.6396 H   0  0  0  0  0  0  0  0  0  0  0  0
  143.8856  132.2336  148.7643 H   0  0  0  0  0  0  0  0  0  0  0  0
  142.3874  131.7393  151.0426 H   0  0  0  0  0  0  0  0  0  0  0  0
  147.2467  136.5879  152.5084 H   0  0  0  0  0  0  0  0  0  0  0  0
  1  2  1  0  0  0  0
  1 19  1  0  0  0  0
  1 20  1  0  0  0  0
  1 21  1  0  0  0  0
  2  3  1  0  0  0  0
  2 12  1  0  0  0  0
  2 22  1  0  0  0  0
  3  4  1  0  0  0  0
  3 23  1  0  0  0  0
  3 44  1  0  0  0  0
  4  5  1  0  0  0  0
  4 24  1  0  0  0  0
  4 25  1  0  0  0  0
  5 11  1  0  0  0  0
  5  6  1  0  0  0  0
  5  7  1  0  0  0  0
  6 26  1  0  0  0  0
  7  8  1  0  0  0  0
  7 27  1  0  0  0  0
  7 28  1  0  0  0  0
  8  9  1  0  0  0  0
  8 29  1  0  0  0  0
  8 30  1  0  0  0  0
  9 10  1  0  0  0  0
  9 31  1  0  0  0  0
  9 32  1  0  0  0  0
 10 11  1  0  0  0  0
 10 33  1  0  0  0  0
 10 34  1  0  0  0  0
 11 35  1  0  0  0  0
 11 36  1  0  0  0  0
 12 13  1  0  0  0  0
 12 14  1  0  0  0  0
 12 37  1  0  0  0  0
 13 38  1  0  0  0  0
 13 39  1  0  0  0  0
 13 40  1  0  0  0  0
 14 18  1  0  0  0  0
 14 15  1  0  0  0  0
 15 16  2  0  0  0  0
 15 41  1  0  0  0  0
 16 17  1  0  0  0  0
 16 42  1  0  0  0  0
 17 18  2  0  0  0  0
 17 43  1  0  0  0  0
M  CHG  1   3   1
M  END
> <s_m_source_file>
AV-unprocessed.smi

> <i_m_source_file_index>
3311

> <i_lp_mmshare_version>
43012

> <i_f3d_flags>
0

> <s_epik_input>
bjFbY0hdW2NIXVtjSF1uMVtDQEBIXShbQ0gzXSlbQ0BIXShbQ0gzXSlbTkhdW0NIMl1DMihbT0hdKVtDSDJdW0NIMl1bQ0gyXVtDSDJdW0NIMl0y

> <s_epik_cmdline>
J2VwaWtfcHl0aG9uJywgJy1waCcsICc3LjAnLCAnLXRuJywgJzgnLCAnLW1hJywgJzIwMCcsICctbWV0YWxfYmluZGluZycsICctaW1hZScsICc8aW5maWxlLm1hZT4nLCAnLW9tYWUnLCAnPG91dGZpbGUubWFlPic=

> <r_lp_tautomer_probability>
1

> <r_epik_Ionization_Penalty>
0.0141403

> <r_epik_Ionization_Penalty_Charging>
0.0141276

> <r_epik_Ionization_Penalty_Neutral>
1.27139e-05

> <r_epik_State_Penalty>
0.0110334

> <r_epik_Charging_Adjusted_Penalty>
0.025161

> <i_epik_Tot_Q>
1

> <i_epik_Tot_abs_Q>
1

> <r_epik_Metal_State_Penalty>
0.0110573

> <b_epik_Metal_Only>
0

> <s_lp_Force_Field>
OPLS_2005

> <r_lp_Energy>
21.4013

> <b_lp_Chiralities_Consistent>
1

> <s_lp_Variant>
AV-unprocessed.smi:3311-4

> <Gold.Version>
5.8.1

> <Gold.Id.Protein>
6NUR|6NUR_protein|mol2

> <Gold.PLP.Fitness>
45.5007

> <Gold.PLP.PLP>
-31.0078

> <Gold.PLP.part.hbond>
-2.6290

> <Gold.PLP.part.metal>
0.0000

> <Gold.PLP.part.buried>
-2.7567

> <Gold.PLP.part.nonpolar>
-25.4597

> <Gold.PLP.part.repulsive>
0.2062

> <Gold.PLP.ligand.clash>
0.0000

> <Gold.PLP.ligand.torsion>
0.3009

> <Gold.PLP.Chemscore.Hbond>
3.0000

> <Gold.PLP.Chemscore.CHOScore>
2.0000

> <Gold.PLP.Chemscore.Metal>
0.0000

> <Gold.Chemscore.Hbonds>
donor molecule, donor type, donor heavy atom, donor atom, acceptor molecule, acceptor atom, score
      L1  H     3    44       P1  7948  2.00
      L1  H     6    26       P1  7948  1.00
      L1  C    15    41       P1  7921  1.00
      L1  C    17    43       P1 10952  0.66

> <Gold.PLP.Chemscore.Internal.Correction>
0.0946

> <Gold.Rescore>
     Score         DG    S(hbond)    S(metal)    S(lipo)     H(rot)  DE(clash)    DE(int)     intcor
     15.47     -15.86       1.96        0.00      79.75       2.14       0.07       0.33       ----

> <Gold.Chemscore.Fitness>
15.4726

> <Gold.Chemscore.DG>
-15.8646

> <Gold.Chemscore.ZeroCoef>
-5.4800

> <Gold.Chemscore.Hbond>
1.9577

> <Gold.Chemscore.Metal>
0.0000

> <Gold.Chemscore.Lipo>
79.7466

> <Gold.Chemscore.Internal_Hbond>
0.0000

> <Gold.Chemscore.DEClash>
0.0669

> <Gold.Chemscore.DEInternal>
0.3251

> <Gold.Chemscore.Rot>
2.1424

> <Gold.Chemscore.Internal.Correction>
   9.000000E+99

> <Gold.Chemscore.Hbonds>
donor molecule, donor type, donor heavy atom, donor atom, acceptor molecule, acceptor atom, score
      L1  H     3    44       P1  7948  1.00
      L1  H     6    26       P1  7948  0.97

> <Gold.Chemscore.Hbond.Weighted>
-6.5389

> <Gold.Chemscore.Metal.Weighted>
-0.0000

> <Gold.Chemscore.Lipo.Weighted>
-9.3303

> <Gold.Chemscore.Internal_Hbond.Weighted>
0.0000

> <Gold.Chemscore.DEClash.Weighted>
0.0669

> <Gold.Chemscore.DEInternal.Weighted>
0.3251

> <Gold.Chemscore.Rot.Weighted>
5.4846

> <Gold.Chemscore.Internal.Correction.Weighted>
   9.000000E+99

> <Gold.Protein.RotatedTorsions>
[ 6907 6896 6895 6894 ] final   78.43 input  -60.11 | X-H torsion
[ 7974 7965 7964 7962 ] final  -54.61 input  175.53 | X-H torsion
[ 8008 7997 7996 7995 ] final  176.95 input   59.86 | X-H torsion
[ 10167 10162 10161 10158 ] final  -92.11 input  -65.29 | X-H torsion
[ 10718 10713 10712 10709 ] final  -93.54 input   66.30 | X-H torsion
[ 10763 10752 10751 10750 ] final  118.86 input  -60.55 | X-H torsion
[ 11005 11000 10999 10996 ] final -118.60 input  -57.11 | X-H torsion

> <Gold.Protein.ActiveResidues>
 VAL166  LYS551  ARG553  GLY616  TRP617  ASP618  TYR619  PRO620  LYS621  CYS622 
 ASP623  PHE694  ASN695  SER759  ASP760  ASP761  ALA762  ILE779  LEU786  VAL792 
 PHE793  MET794  SER795  GLU796  ALA797  LYS798  CYS799  TRP800  GLU811  SER814 

> <Gold.Protein.RotatedAtoms>
  152.5159  134.3666  159.9303 H   0  0  0  0  0  0  0  0  0  0  0  0  # atno 6907 bound_to 6896
  151.3619  133.3880  159.2698 H   0  0  0  0  0  0  0  0  0  0  0  0  # atno 6908 bound_to 6896
  150.9645  134.9047  159.7809 H   0  0  0  0  0  0  0  0  0  0  0  0  # atno 6909 bound_to 6896
  145.8836  140.8125  142.9827 H   0  0  0  0  0  0  0  0  0  0  0  0  # atno 7974 bound_to 7965
  156.0709  140.1370  156.9829 H   0  0  0  0  0  0  0  0  0  0  0  0  # atno 8008 bound_to 7997
  154.4531  140.0972  156.6729 H   0  0  0  0  0  0  0  0  0  0  0  0  # atno 8009 bound_to 7997
  155.5229  140.3456  155.4412 H   0  0  0  0  0  0  0  0  0  0  0  0  # atno 8010 bound_to 7997
  140.3381  143.2957  151.9866 H   0  0  0  0  0  0  0  0  0  0  0  0  # atno 10167 bound_to 10162
  156.0015  130.5031  150.5792 H   0  0  0  0  0  0  0  0  0  0  0  0  # atno 10718 bound_to 10713
  153.5742  135.3496  155.2849 H   0  0  0  0  0  0  0  0  0  0  0  0  # atno 10763 bound_to 10752
  154.8677  135.4166  154.2692 H   0  0  0  0  0  0  0  0  0  0  0  0  # atno 10764 bound_to 10752
  153.3464  135.7053  153.6894 H   0  0  0  0  0  0  0  0  0  0  0  0  # atno 10765 bound_to 10752
  141.0274  134.0033  157.3194 H   0  0  0  0  0  0  0  0  0  0  0  0  # atno 11005 bound_to 11000
  144.6728  140.1421  143.7436 LP  0  0  0  0  0  0  0  0  0  0  0  0  # atno 17320 bound_to 7965
  145.8994  139.2421  143.1503 LP  0  0  0  0  0  0  0  0  0  0  0  0  # atno 17321 bound_to 7965
  139.4845  144.6179  151.7311 LP  0  0  0  0  0  0  0  0  0  0  0  0  # atno 17342 bound_to 10162
  140.5334  144.0694  150.6062 LP  0  0  0  0  0  0  0  0  0  0  0  0  # atno 17343 bound_to 10162
  157.3675  131.0760  151.1586 LP  0  0  0  0  0  0  0  0  0  0  0  0  # atno 17370 bound_to 10713
  157.2350  130.6543  149.5865 LP  0  0  0  0  0  0  0  0  0  0  0  0  # atno 17371 bound_to 10713
  139.9185  135.0199  156.7974 LP  0  0  0  0  0  0  0  0  0  0  0  0  # atno 17394 bound_to 11000
  140.6467  133.9769  155.7734 LP  0  0  0  0  0  0  0  0  0  0  0  0  # atno 17395 bound_to 11000

$$$$
