AV-unprocessed.smi:39|AV-procd|sdf|360|dock9
  -GOLD-   2262016203D 1   1.00000     0.00000
 Structure written by MMmdl.
 31 32  0  0  0  0  0  0  0  0  4 V2000
  149.1154  135.8315  157.4857 C   0  0  0  0  0  0  0  0  0  0  0  0
  150.3406  136.5628  156.9650 C   0  0  0  0  0  0  0  0  0  0  0  0
  150.3225  137.8820  156.6709 C   0  0  0  0  0  0  0  0  0  0  0  0
  151.4430  138.5451  156.1979 N   0  0  0  0  0  0  0  0  0  0  0  0
  151.4201  140.0258  155.8727 C   0  0  2  0  0  0  0  0  0  0  0  0
  150.9083  140.8349  157.0758 C   0  0  0  0  0  0  0  0  0  0  0  0
  149.8323  141.7098  156.4532 C   0  0  2  0  0  0  0  0  0  0  0  0
  148.7759  142.0770  157.3992 N   0  0  0  0  0  0  0  0  0  0  0  0
  148.1467  141.1425  157.9123 N   0  3  0  0  0  0  0  0  0  0  0  0
  147.4835  140.2991  158.2920 N   0  5  0  0  0  0  0  0  0  0  0  0
  149.3217  140.8125  155.3257 C   0  0  1  0  0  0  0  0  0  0  0  0
  148.5878  141.5741  154.2121 C   0  0  0  0  0  0  0  0  0  0  0  0
  148.1922  140.6766  153.1974 O   0  0  0  0  0  0  0  0  0  0  0  0
  150.5359  140.2710  154.8166 O   0  0  0  0  0  0  0  0  0  0  0  0
  152.6502  137.8245  156.0006 C   0  0  0  0  0  0  0  0  0  0  0  0
  153.6264  138.4400  155.5712 O   0  0  0  0  0  0  0  0  0  0  0  0
  152.6779  136.4938  156.2948 N   0  5  0  0  0  0  0  0  0  0  0  0
  151.5915  135.8202  156.7699 C   0  0  0  0  0  0  0  0  0  0  0  0
  151.6318  134.6195  157.0359 O   0  0  0  0  0  0  0  0  0  0  0  0
  152.4349  140.2773  155.5599 H   0  0  0  0  0  0  0  0  0  0  0  0
  150.2978  142.5970  156.0184 H   0  0  0  0  0  0  0  0  0  0  0  0
  148.6967  140.0187  155.7399 H   0  0  0  0  0  0  0  0  0  0  0  0
  148.2642  136.5051  157.5868 H   0  0  0  0  0  0  0  0  0  0  0  0
  149.3194  135.3959  158.4643 H   0  0  0  0  0  0  0  0  0  0  0  0
  148.8322  135.0292  156.8039 H   0  0  0  0  0  0  0  0  0  0  0  0
  149.3985  138.4203  156.8142 H   0  0  0  0  0  0  0  0  0  0  0  0
  150.4827  140.1631  157.8237 H   0  0  0  0  0  0  0  0  0  0  0  0
  151.7161  141.4064  157.5337 H   0  0  0  0  0  0  0  0  0  0  0  0
  147.6852  142.0418  154.6064 H   0  0  0  0  0  0  0  0  0  0  0  0
  149.2097  142.3676  153.7970 H   0  0  0  0  0  0  0  0  0  0  0  0
  148.8380  140.7048  152.5076 H   0  0  0  0  0  0  0  0  0  0  0  0
  1  2  1  0  0  0  0
  1 23  1  0  0  0  0
  1 24  1  0  0  0  0
  1 25  1  0  0  0  0
  2 18  1  0  0  0  0
  2  3  2  0  0  0  0
  3  4  1  0  0  0  0
  3 26  1  0  0  0  0
  4  5  1  0  0  0  0
  4 15  1  0  0  0  0
  5 20  1  0  0  0  0
  5 14  1  0  0  0  0
  5  6  1  0  0  0  0
  6  7  1  0  0  0  0
  6 27  1  0  0  0  0
  6 28  1  0  0  0  0
  7 21  1  0  0  0  0
  7  8  1  0  0  0  0
  7 11  1  0  0  0  0
  8  9  2  0  0  0  0
  9 10  2  0  0  0  0
 11 22  1  0  0  0  0
 11 12  1  0  0  0  0
 11 14  1  0  0  0  0
 12 13  1  0  0  0  0
 12 29  1  0  0  0  0
 12 30  1  0  0  0  0
 13 31  1  0  0  0  0
 15 16  2  0  0  0  0
 15 17  1  0  0  0  0
 17 18  1  0  0  0  0
 18 19  2  0  0  0  0
M  CHG  1   9   1
M  CHG  1  10  -1
M  CHG  1  17  -1
M  END
> <s_m_source_file>
AV-unprocessed.smi

> <i_m_source_file_index>
39

> <i_lp_mmshare_version>
43012

> <i_f3d_flags>
0

> <s_epik_input>
Tz1jMVtuSF1jKD1PKW4oW2NIXWMxW0NIM10pW0NASF0yW0NIMl1bQ0BIXShOPVtOK109W04tXSlbQ0BIXShPMilbQ0gyXVtPSF0=

> <s_epik_cmdline>
J2VwaWtfcHl0aG9uJywgJy1waCcsICc3LjAnLCAnLXRuJywgJzgnLCAnLW1hJywgJzIwMCcsICctbWV0YWxfYmluZGluZycsICctaW1hZScsICc8aW5maWxlLm1hZT4nLCAnLW9tYWUnLCAnPG91dGZpbGUubWFlPic=

> <r_lp_tautomer_probability>
0.999537

> <r_epik_Ionization_Penalty>
3.6393

> <r_epik_Ionization_Penalty_Charging>
9.76484e-08

> <r_epik_Ionization_Penalty_Neutral>
3.6393

> <r_epik_State_Penalty>
3.63887

> <r_epik_Charging_Adjusted_Penalty>
3.63887

> <i_epik_Tot_Q>
-1

> <i_epik_Tot_abs_Q>
3

> <r_epik_Metal_State_Penalty>
0.225911

> <b_epik_Metal_Only>
1

> <s_epik_Chemistry_Notes>
This compound contains an acetal/aminal-like group ( X-CH(R)-Y where X, Y are N, S, or O) that may be acid/base labile, releasing an aldehyde.

> <s_lp_Force_Field>
OPLS_2005

> <r_lp_Energy>
32.3737

> <b_lp_Chiralities_Consistent>
1

> <s_lp_Variant>
AV-unprocessed.smi:39-10

> <Gold.Version>
5.8.1

> <Gold.Id.Protein>
6NUR|6NUR_protein|mol2

> <Gold.PLP.Fitness>
38.1142

> <Gold.PLP.PLP>
-23.9813

> <Gold.PLP.part.hbond>
-6.0000

> <Gold.PLP.part.metal>
0.0000

> <Gold.PLP.part.buried>
-4.2287

> <Gold.PLP.part.nonpolar>
-14.6133

> <Gold.PLP.part.repulsive>
0.2658

> <Gold.PLP.ligand.clash>
0.0000

> <Gold.PLP.ligand.torsion>
0.0791

> <Gold.PLP.Chemscore.Hbond>
4.7520

> <Gold.PLP.Chemscore.CHOScore>
0.0000

> <Gold.PLP.Chemscore.Metal>
0.0000

> <Gold.Chemscore.Hbonds>
donor molecule, donor type, donor heavy atom, donor atom, acceptor molecule, acceptor atom, score
      L1  H    13    31       P1  7957  1.00
      P1  H  7989  7998       L1    14  1.00
      P1  H  7997  8008       L1    16  0.75
      P1  H 10752 10765       L1    17  2.00

> <Gold.PLP.Chemscore.Internal.Correction>
0.0351

> <Gold.Rescore>
     Score         DG    S(hbond)    S(metal)    S(lipo)     H(rot)  DE(clash)    DE(int)     intcor
     11.77     -11.88       2.87        0.00      32.20       2.72       0.05       0.06       ----

> <Gold.Chemscore.Fitness>
11.7744

> <Gold.Chemscore.DG>
-11.8849

> <Gold.Chemscore.ZeroCoef>
-5.4800

> <Gold.Chemscore.Hbond>
2.8709

> <Gold.Chemscore.Metal>
0.0000

> <Gold.Chemscore.Lipo>
32.1981

> <Gold.Chemscore.Internal_Hbond>
0.0000

> <Gold.Chemscore.DEClash>
0.0502

> <Gold.Chemscore.DEInternal>
0.0603

> <Gold.Chemscore.Rot>
2.7153

> <Gold.Chemscore.Internal.Correction>
   9.000000E+99

> <Gold.Chemscore.Hbonds>
donor molecule, donor type, donor heavy atom, donor atom, acceptor molecule, acceptor atom, score
      L1  H    13    31       P1  7957  0.96
      P1  H  6896  6907       L1    19  0.01
      P1  H  7989  7998       L1    14  0.39
      P1  H  7997  8008       L1    16  0.75
      P1  H 10752 10765       L1    17  0.37

> <Gold.Chemscore.Hbond.Weighted>
-9.5890

> <Gold.Chemscore.Metal.Weighted>
-0.0000

> <Gold.Chemscore.Lipo.Weighted>
-3.7672

> <Gold.Chemscore.Internal_Hbond.Weighted>
0.0000

> <Gold.Chemscore.DEClash.Weighted>
0.0502

> <Gold.Chemscore.DEInternal.Weighted>
0.0603

> <Gold.Chemscore.Rot.Weighted>
6.9512

> <Gold.Chemscore.Internal.Correction.Weighted>
   9.000000E+99

> <Gold.Protein.RotatedTorsions>
[ 6907 6896 6895 6894 ] final -138.28 input  -60.11 | X-H torsion
[ 7974 7965 7964 7962 ] final -179.66 input  175.53 | X-H torsion
[ 8008 7997 7996 7995 ] final  -27.74 input   59.86 | X-H torsion
[ 10167 10162 10161 10158 ] final  -69.30 input  -65.29 | X-H torsion
[ 10718 10713 10712 10709 ] final   36.94 input   66.30 | X-H torsion
[ 10763 10752 10751 10750 ] final -139.93 input  -60.55 | X-H torsion
[ 11005 11000 10999 10996 ] final  -66.30 input  -57.11 | X-H torsion

> <Gold.Protein.ActiveResidues>
 VAL166  LYS551  ARG553  GLY616  TRP617  ASP618  TYR619  PRO620  LYS621  CYS622 
 ASP623  PHE694  ASN695  SER759  ASP760  ASP761  ALA762  ILE779  LEU786  VAL792 
 PHE793  MET794  SER795  GLU796  ALA797  LYS798  CYS799  TRP800  GLU811  SER814 

> <Gold.Protein.RotatedAtoms>
  151.0330  133.5773  159.2658 H   0  0  0  0  0  0  0  0  0  0  0  0  # atno 6907 bound_to 6896
  151.2848  135.0723  159.9192 H   0  0  0  0  0  0  0  0  0  0  0  0  # atno 6908 bound_to 6896
  152.5349  134.0039  159.7961 H   0  0  0  0  0  0  0  0  0  0  0  0  # atno 6909 bound_to 6896
  144.7138  140.0684  143.6430 H   0  0  0  0  0  0  0  0  0  0  0  0  # atno 7974 bound_to 7965
  154.4363  140.1864  156.0979 H   0  0  0  0  0  0  0  0  0  0  0  0  # atno 8008 bound_to 7997
  156.0315  140.3330  155.7118 H   0  0  0  0  0  0  0  0  0  0  0  0  # atno 8009 bound_to 7997
  155.5833  140.0624  157.2768 H   0  0  0  0  0  0  0  0  0  0  0  0  # atno 8010 bound_to 7997
  140.5441  143.2313  151.7035 H   0  0  0  0  0  0  0  0  0  0  0  0  # atno 10167 bound_to 10162
  157.3409  130.7547  149.6911 H   0  0  0  0  0  0  0  0  0  0  0  0  # atno 10718 bound_to 10713
  154.8594  135.3568  154.5625 H   0  0  0  0  0  0  0  0  0  0  0  0  # atno 10763 bound_to 10752
  153.6240  135.7005  153.5304 H   0  0  0  0  0  0  0  0  0  0  0  0  # atno 10764 bound_to 10752
  153.3105  135.4180  155.1291 H   0  0  0  0  0  0  0  0  0  0  0  0  # atno 10765 bound_to 10752
  141.1478  133.6697  156.6118 H   0  0  0  0  0  0  0  0  0  0  0  0  # atno 11005 bound_to 11000
  145.9804  139.2937  143.1045 LP  0  0  0  0  0  0  0  0  0  0  0  0  # atno 17320 bound_to 7965
  145.9017  140.9238  143.0499 LP  0  0  0  0  0  0  0  0  0  0  0  0  # atno 17321 bound_to 7965
  139.5000  144.3923  152.0267 LP  0  0  0  0  0  0  0  0  0  0  0  0  # atno 17342 bound_to 10162
  140.3034  144.3620  150.6054 LP  0  0  0  0  0  0  0  0  0  0  0  0  # atno 17343 bound_to 10162
  155.9707  130.4168  150.4248 LP  0  0  0  0  0  0  0  0  0  0  0  0  # atno 17370 bound_to 10713
  157.2295  131.0501  151.2500 LP  0  0  0  0  0  0  0  0  0  0  0  0  # atno 17371 bound_to 10713
  140.3608  134.7689  157.4533 LP  0  0  0  0  0  0  0  0  0  0  0  0  # atno 17394 bound_to 11000
  140.0786  134.5762  155.8564 LP  0  0  0  0  0  0  0  0  0  0  0  0  # atno 17395 bound_to 11000

$$$$
