AV-unprocessed.smi:1856|AV-procd|sdf|7535|dock1
  -GOLD-   22720 9253D 1   1.00000     0.00000
 Structure written by MMmdl.
 44 45  0  0  0  0  0  0  0  0  1 V2000
  149.8733  133.2085  156.1386 C   0  0  0  0  0  0  0  0  0  0  0  0
  150.8753  134.3467  155.8921 C   0  0  0  0  0  0  0  0  0  0  0  0
  150.4686  135.7063  156.4937 C   0  0  0  0  0  0  0  0  0  0  0  0
  151.4238  136.8471  156.1304 C   0  0  0  0  0  0  0  0  0  0  0  0
  152.6152  136.7771  156.4324 O   0  0  0  0  0  0  0  0  0  0  0  0
  150.8897  137.8819  155.4635 N   0  0  0  0  0  0  0  0  0  0  0  0
  151.6151  139.0587  154.9914 C   0  0  2  0  0  0  0  0  0  0  0  0
  152.9757  138.6610  154.4016 C   0  0  0  0  0  0  0  0  0  0  0  0
  151.7491  140.0054  156.1559 C   0  0  0  0  0  0  0  0  0  0  0  0
  152.5189  139.7213  157.2103 N   0  0  0  0  0  0  0  0  0  0  0  0
  152.3570  140.8281  158.0186 C   0  0  0  0  0  0  0  0  0  0  0  0
  152.9148  141.1315  159.2812 C   0  0  0  0  0  0  0  0  0  0  0  0
  152.5974  142.3432  159.9291 C   0  0  0  0  0  0  0  0  0  0  0  0
  151.7191  143.2660  159.3253 C   0  0  0  0  0  0  0  0  0  0  0  0
  151.1523  142.9825  158.0678 C   0  0  0  0  0  0  0  0  0  0  0  0
  151.4736  141.7719  157.4239 C   0  0  0  0  0  0  0  0  0  0  0  0
  151.0972  141.1966  156.2131 N   0  0  0  0  0  0  0  0  0  0  0  0
  150.1898  141.7818  155.2347 C   0  0  0  0  0  0  0  0  0  0  0  0
  149.1551  140.7716  154.6977 C   0  0  1  0  0  0  0  0  0  0  0  0
  147.7951  140.8352  155.4096 C   0  0  0  0  0  0  0  0  0  0  0  0
  148.9574  141.0267  153.3236 O   0  0  0  0  0  0  0  0  0  0  0  0
  150.2678  132.2625  155.7675 H   0  0  0  0  0  0  0  0  0  0  0  0
  148.9253  133.3858  155.6306 H   0  0  0  0  0  0  0  0  0  0  0  0
  149.6689  133.0878  157.2027 H   0  0  0  0  0  0  0  0  0  0  0  0
  151.8366  134.0572  156.3177 H   0  0  0  0  0  0  0  0  0  0  0  0
  151.0461  134.4533  154.8199 H   0  0  0  0  0  0  0  0  0  0  0  0
  149.4634  135.9729  156.1652 H   0  0  0  0  0  0  0  0  0  0  0  0
  150.4157  135.6162  157.5796 H   0  0  0  0  0  0  0  0  0  0  0  0
  149.9031  137.8486  155.2499 H   0  0  0  0  0  0  0  0  0  0  0  0
  151.0403  139.5342  154.1991 H   0  0  0  0  0  0  0  0  0  0  0  0
  153.5188  139.5389  154.0508 H   0  0  0  0  0  0  0  0  0  0  0  0
  152.8538  137.9876  153.5526 H   0  0  0  0  0  0  0  0  0  0  0  0
  153.5998  138.1565  155.1401 H   0  0  0  0  0  0  0  0  0  0  0  0
  153.5881  140.4307  159.7522 H   0  0  0  0  0  0  0  0  0  0  0  0
  153.0290  142.5654  160.8939 H   0  0  0  0  0  0  0  0  0  0  0  0
  151.4800  144.1917  159.8283 H   0  0  0  0  0  0  0  0  0  0  0  0
  150.4773  143.6874  157.6060 H   0  0  0  0  0  0  0  0  0  0  0  0
  149.6774  142.6240  155.7009 H   0  0  0  0  0  0  0  0  0  0  0  0
  150.7759  142.2096  154.4207 H   0  0  0  0  0  0  0  0  0  0  0  0
  149.5482  139.7589  154.7889 H   0  0  0  0  0  0  0  0  0  0  0  0
  147.8865  140.5794  156.4653 H   0  0  0  0  0  0  0  0  0  0  0  0
  147.0876  140.1333  154.9674 H   0  0  0  0  0  0  0  0  0  0  0  0
  147.3599  141.8332  155.3448 H   0  0  0  0  0  0  0  0  0  0  0  0
  149.2729  140.2839  152.8317 H   0  0  0  0  0  0  0  0  0  0  0  0
  1  2  1  0  0  0  0
  1 22  1  0  0  0  0
  1 23  1  0  0  0  0
  1 24  1  0  0  0  0
  2  3  1  0  0  0  0
  2 25  1  0  0  0  0
  2 26  1  0  0  0  0
  3  4  1  0  0  0  0
  3 27  1  0  0  0  0
  3 28  1  0  0  0  0
  4  5  2  0  0  0  0
  4  6  1  0  0  0  0
  6  7  1  0  0  0  0
  6 29  1  0  0  0  0
  7  8  1  0  0  0  0
  7  9  1  0  0  0  0
  7 30  1  0  0  0  0
  8 31  1  0  0  0  0
  8 32  1  0  0  0  0
  8 33  1  0  0  0  0
  9 17  1  0  0  0  0
  9 10  2  0  0  0  0
 10 11  1  0  0  0  0
 11 16  2  0  0  0  0
 11 12  1  0  0  0  0
 12 13  2  0  0  0  0
 12 34  1  0  0  0  0
 13 14  1  0  0  0  0
 13 35  1  0  0  0  0
 14 15  2  0  0  0  0
 14 36  1  0  0  0  0
 15 16  1  0  0  0  0
 15 37  1  0  0  0  0
 16 17  1  0  0  0  0
 17 18  1  0  0  0  0
 18 19  1  0  0  0  0
 18 38  1  0  0  0  0
 18 39  1  0  0  0  0
 19 20  1  0  0  0  0
 19 21  1  0  0  0  0
 19 40  1  0  0  0  0
 20 41  1  0  0  0  0
 20 42  1  0  0  0  0
 20 43  1  0  0  0  0
 21 44  1  0  0  0  0
M  END
> <s_m_source_file>
AV-unprocessed.smi

> <i_m_source_file_index>
1856

> <i_lp_mmshare_version>
43012

> <i_f3d_flags>
0

> <s_epik_input>
W0NIM11bQ0gyXVtDSDJdQyg9TylbTkhdW0NASF0oW0NIM10pYyhuMSluKFtDSDJdW0NASF0oW0NIM10pW09IXSljKGMxMilbY0hdW2NIXVtjSF1bY0hdMg==

> <s_epik_cmdline>
J2VwaWtfcHl0aG9uJywgJy1waCcsICc3LjAnLCAnLXRuJywgJzgnLCAnLW1hJywgJzIwMCcsICctbWV0YWxfYmluZGluZycsICctaW1hZScsICc8aW5maWxlLm1hZT4nLCAnLW9tYWUnLCAnPG91dGZpbGUubWFlPic=

> <r_epik_Ionization_Penalty>
0.134222

> <r_epik_Ionization_Penalty_Charging>
0

> <r_epik_Ionization_Penalty_Neutral>
0.134222

> <r_epik_State_Penalty>
0.123585

> <r_epik_Charging_Adjusted_Penalty>
0.123585

> <i_epik_Tot_Q>
0

> <i_epik_Tot_abs_Q>
0

> <r_epik_Metal_State_Penalty>
0.100548

> <b_epik_Metal_Only>
0

> <s_lp_Force_Field>
OPLS_2005

> <r_lp_Energy>
3.90486

> <b_lp_Chiralities_Consistent>
1

> <s_lp_Variant>
AV-unprocessed.smi:1856-3

> <Gold.Version>
5.8.1

> <Gold.Id.Protein>
6NUR|6NUR_protein|mol2

> <Gold.PLP.Fitness>
48.3477

> <Gold.PLP.PLP>
-39.6829

> <Gold.PLP.part.hbond>
-4.4247

> <Gold.PLP.part.metal>
0.0000

> <Gold.PLP.part.buried>
-4.3204

> <Gold.PLP.part.nonpolar>
-30.4192

> <Gold.PLP.part.repulsive>
0.0616

> <Gold.PLP.ligand.clash>
0.0000

> <Gold.PLP.ligand.torsion>
1.0990

> <Gold.PLP.Chemscore.Hbond>
3.5900

> <Gold.PLP.Chemscore.CHOScore>
0.0000

> <Gold.PLP.Chemscore.Metal>
0.0000

> <Gold.Chemscore.Hbonds>
donor molecule, donor type, donor heavy atom, donor atom, acceptor molecule, acceptor atom, score
      L1  H    21    44       P1  7957  0.66
      P1  H  7997  8008       L1    10  0.95
      P1  H  8011  8017       L1    21  0.95
      P1  H 10752 10763       L1     5  1.00

> <Gold.PLP.Chemscore.Internal.Correction>
0.0927

> <Gold.Rescore>
     Score         DG    S(hbond)    S(metal)    S(lipo)     H(rot)  DE(clash)    DE(int)     intcor
     13.97     -17.51       2.01        0.00      98.94       2.45       0.20       3.33       ----

> <Gold.Chemscore.Fitness>
13.9741

> <Gold.Chemscore.DG>
-17.5058

> <Gold.Chemscore.ZeroCoef>
-5.4800

> <Gold.Chemscore.Hbond>
2.0094

> <Gold.Chemscore.Metal>
0.0000

> <Gold.Chemscore.Lipo>
98.9386

> <Gold.Chemscore.Internal_Hbond>
0.0000

> <Gold.Chemscore.DEClash>
0.2032

> <Gold.Chemscore.DEInternal>
3.3284

> <Gold.Chemscore.Rot>
2.4459

> <Gold.Chemscore.Internal.Correction>
   9.000000E+99

> <Gold.Chemscore.Hbonds>
donor molecule, donor type, donor heavy atom, donor atom, acceptor molecule, acceptor atom, score
      L1  H    21    44       P1  7957  0.66
      P1  H  7997  8008       L1    10  0.05
      P1  H  8011  8017       L1    21  0.21
      P1  H 10752 10763       L1     5  0.42

> <Gold.Chemscore.Hbond.Weighted>
-6.7114

> <Gold.Chemscore.Metal.Weighted>
-0.0000

> <Gold.Chemscore.Lipo.Weighted>
-11.5758

> <Gold.Chemscore.Internal_Hbond.Weighted>
0.0000

> <Gold.Chemscore.DEClash.Weighted>
0.2032

> <Gold.Chemscore.DEInternal.Weighted>
3.3284

> <Gold.Chemscore.Rot.Weighted>
6.2614

> <Gold.Chemscore.Internal.Correction.Weighted>
   9.000000E+99

> <Gold.Protein.RotatedTorsions>
[ 6907 6896 6895 6894 ] final   31.97 input  -60.11 | X-H torsion
[ 7974 7965 7964 7962 ] final  150.82 input  175.53 | X-H torsion
[ 8008 7997 7996 7995 ] final  -44.94 input   59.86 | X-H torsion
[ 10167 10162 10161 10158 ] final -109.20 input  -65.29 | X-H torsion
[ 10718 10713 10712 10709 ] final  -38.21 input   66.30 | X-H torsion
[ 10763 10752 10751 10750 ] final  103.09 input  -60.55 | X-H torsion
[ 11005 11000 10999 10996 ] final   54.64 input  -57.11 | X-H torsion

> <Gold.Protein.ActiveResidues>
 VAL166  LYS551  ARG553  GLY616  TRP617  ASP618  TYR619  PRO620  LYS621  CYS622 
 ASP623  PHE694  ASN695  SER759  ASP760  ASP761  ALA762  ILE779  LEU786  VAL792 
 PHE793  MET794  SER795  GLU796  ALA797  LYS798  CYS799  TRP800  GLU811  SER814 

> <Gold.Protein.RotatedAtoms>
  152.0679  134.9552  160.0574 H   0  0  0  0  0  0  0  0  0  0  0  0  # atno 6907 bound_to 6896
  152.0890  133.4186  159.4543 H   0  0  0  0  0  0  0  0  0  0  0  0  # atno 6908 bound_to 6896
  150.6836  134.2813  159.4672 H   0  0  0  0  0  0  0  0  0  0  0  0  # atno 6909 bound_to 6896
  144.8336  139.6458  143.6048 H   0  0  0  0  0  0  0  0  0  0  0  0  # atno 7974 bound_to 7965
  154.3999  140.1409  156.3765 H   0  0  0  0  0  0  0  0  0  0  0  0  # atno 8008 bound_to 7997
  155.8044  140.3475  155.5400 H   0  0  0  0  0  0  0  0  0  0  0  0  # atno 8009 bound_to 7997
  155.8451  140.0932  157.1701 H   0  0  0  0  0  0  0  0  0  0  0  0  # atno 8010 bound_to 7997
  140.1579  143.4144  152.1447 H   0  0  0  0  0  0  0  0  0  0  0  0  # atno 10167 bound_to 10162
  156.3064  130.4247  149.8093 H   0  0  0  0  0  0  0  0  0  0  0  0  # atno 10718 bound_to 10713
  153.3481  135.3988  155.1625 H   0  0  0  0  0  0  0  0  0  0  0  0  # atno 10763 bound_to 10752
  154.8657  135.3650  154.5258 H   0  0  0  0  0  0  0  0  0  0  0  0  # atno 10764 bound_to 10752
  153.5707  135.7079  153.5566 H   0  0  0  0  0  0  0  0  0  0  0  0  # atno 10765 bound_to 10752
  140.0670  134.5522  155.9088 H   0  0  0  0  0  0  0  0  0  0  0  0  # atno 11005 bound_to 11000
  146.2637  139.6470  142.9344 LP  0  0  0  0  0  0  0  0  0  0  0  0  # atno 17320 bound_to 7965
  145.4842  141.0438  143.2629 LP  0  0  0  0  0  0  0  0  0  0  0  0  # atno 17321 bound_to 7965
  139.5395  144.7242  151.4782 LP  0  0  0  0  0  0  0  0  0  0  0  0  # atno 17342 bound_to 10162
  140.6661  143.8394  150.6944 LP  0  0  0  0  0  0  0  0  0  0  0  0  # atno 17343 bound_to 10162
  156.5452  130.8317  151.3282 LP  0  0  0  0  0  0  0  0  0  0  0  0  # atno 17370 bound_to 10713
  157.7380  130.9806  150.2229 LP  0  0  0  0  0  0  0  0  0  0  0  0  # atno 17371 bound_to 10713
  141.1997  133.6608  156.5856 LP  0  0  0  0  0  0  0  0  0  0  0  0  # atno 17394 bound_to 11000
  140.3684  134.7627  157.4581 LP  0  0  0  0  0  0  0  0  0  0  0  0  # atno 17395 bound_to 11000

$$$$
