AV-unprocessed.smi:1329|AV-procd|sdf|5483|dock8
  -GOLD-   22720 5 53D 1   1.00000     0.00000
 Structure written by MMmdl.
 42 43  0  0  0  0  0  0  0  0  1 V2000
  146.1913  137.1737  155.7294 C   0  0  0  0  0  0  0  0  0  0  0  0
  147.6059  136.6608  155.6985 C   0  0  0  0  0  0  0  0  0  0  0  0
  148.4881  137.4239  155.1416 N   0  0  0  0  0  0  0  0  0  0  0  0
  149.8140  137.0489  155.0607 N   0  0  0  0  0  0  0  0  0  0  0  0
  150.6728  138.0362  154.3967 C   0  0  0  0  0  0  0  0  0  0  0  0
  150.4489  139.4613  154.9498 C   0  0  2  0  0  0  0  0  0  0  0  0
  150.1803  140.3307  153.8681 O   0  0  0  0  0  0  0  0  0  0  0  0
  151.6894  140.0026  155.6755 C   0  0  0  0  0  0  0  0  0  0  0  0
  151.2829  141.0354  156.5580 O   0  0  0  0  0  0  0  0  0  0  0  0
  151.8435  140.9140  157.8549 C   0  0  0  0  0  0  0  0  0  0  0  0
  151.8656  142.2390  158.5948 C   0  0  0  0  0  0  0  0  0  0  0  0
  151.3947  143.4166  157.9742 C   0  0  0  0  0  0  0  0  0  0  0  0
  151.4344  144.6448  158.6624 C   0  0  0  0  0  0  0  0  0  0  0  0
  151.9513  144.7039  159.9709 C   0  0  0  0  0  0  0  0  0  0  0  0
  152.4311  143.5337  160.5903 C   0  0  0  0  0  0  0  0  0  0  0  0
  152.3908  142.3048  159.9026 C   0  0  0  0  0  0  0  0  0  0  0  0
  150.3239  135.8818  155.5491 C   0  0  0  0  0  0  0  0  0  0  0  0
  151.5193  135.5950  155.4682 O   0  0  0  0  0  0  0  0  0  0  0  0
  149.3186  135.0203  156.1757 C   0  0  0  0  0  0  0  0  0  0  0  0
  149.8086  133.7855  156.6980 C   0  0  0  0  0  0  0  0  0  0  0  0
  150.2244  132.7934  157.1255 N   0  0  0  0  0  0  0  0  0  0  0  0
  148.0112  135.3739  156.2551 C   0  0  0  0  0  0  0  0  0  0  0  0
  146.9291  134.5160  156.8966 C   0  0  0  0  0  0  0  0  0  0  0  0
  145.8091  137.1994  156.7501 H   0  0  0  0  0  0  0  0  0  0  0  0
  145.5360  136.5336  155.1385 H   0  0  0  0  0  0  0  0  0  0  0  0
  146.1158  138.1845  155.3256 H   0  0  0  0  0  0  0  0  0  0  0  0
  151.7130  137.7385  154.5412 H   0  0  0  0  0  0  0  0  0  0  0  0
  150.5316  138.0172  153.3139 H   0  0  0  0  0  0  0  0  0  0  0  0
  149.6017  139.4911  155.6360 H   0  0  0  0  0  0  0  0  0  0  0  0
  149.5464  139.9167  153.3027 H   0  0  0  0  0  0  0  0  0  0  0  0
  152.1943  139.2045  156.2228 H   0  0  0  0  0  0  0  0  0  0  0  0
  152.4001  140.4080  154.9530 H   0  0  0  0  0  0  0  0  0  0  0  0
  151.2690  140.1890  158.4338 H   0  0  0  0  0  0  0  0  0  0  0  0
  152.8663  140.5410  157.7858 H   0  0  0  0  0  0  0  0  0  0  0  0
  151.0009  143.3845  156.9687 H   0  0  0  0  0  0  0  0  0  0  0  0
  151.0699  145.5425  158.1851 H   0  0  0  0  0  0  0  0  0  0  0  0
  151.9825  145.6462  160.4979 H   0  0  0  0  0  0  0  0  0  0  0  0
  152.8315  143.5787  161.5924 H   0  0  0  0  0  0  0  0  0  0  0  0
  152.7639  141.4123  160.3834 H   0  0  0  0  0  0  0  0  0  0  0  0
  147.3033  133.5383  157.1985 H   0  0  0  0  0  0  0  0  0  0  0  0
  146.1070  134.3469  156.2004 H   0  0  0  0  0  0  0  0  0  0  0  0
  146.5320  135.0073  157.7856 H   0  0  0  0  0  0  0  0  0  0  0  0
  1  2  1  0  0  0  0
  1 24  1  0  0  0  0
  1 25  1  0  0  0  0
  1 26  1  0  0  0  0
  2 22  1  0  0  0  0
  2  3  2  0  0  0  0
  3  4  1  0  0  0  0
  4  5  1  0  0  0  0
  4 17  1  0  0  0  0
  5  6  1  0  0  0  0
  5 27  1  0  0  0  0
  5 28  1  0  0  0  0
  6  7  1  0  0  0  0
  6  8  1  0  0  0  0
  6 29  1  0  0  0  0
  7 30  1  0  0  0  0
  8  9  1  0  0  0  0
  8 31  1  0  0  0  0
  8 32  1  0  0  0  0
  9 10  1  0  0  0  0
 10 11  1  0  0  0  0
 10 33  1  0  0  0  0
 10 34  1  0  0  0  0
 11 16  1  0  0  0  0
 11 12  2  0  0  0  0
 12 13  1  0  0  0  0
 12 35  1  0  0  0  0
 13 14  2  0  0  0  0
 13 36  1  0  0  0  0
 14 15  1  0  0  0  0
 14 37  1  0  0  0  0
 15 16  2  0  0  0  0
 15 38  1  0  0  0  0
 16 39  1  0  0  0  0
 17 18  2  0  0  0  0
 17 19  1  0  0  0  0
 19 20  1  0  0  0  0
 19 22  2  0  0  0  0
 20 21  3  0  0  0  0
 22 23  1  0  0  0  0
 23 40  1  0  0  0  0
 23 41  1  0  0  0  0
 23 42  1  0  0  0  0
M  END
> <s_m_source_file>
AV-unprocessed.smi

> <i_m_source_file_index>
1329

> <i_lp_mmshare_version>
43012

> <i_f3d_flags>
0

> <s_epik_input>
TiNDYyhjMVtDSDNdKWMoPU8pbihuYzFbQ0gzXSlbQ0gyXVtDQEhdKFtPSF0pW0NIMl1PW0NIMl1jMltjSF1bY0hdW2NIXVtjSF1bY0hdMg==

> <s_epik_cmdline>
J2VwaWtfcHl0aG9uJywgJy1waCcsICc3LjAnLCAnLXRuJywgJzgnLCAnLW1hJywgJzIwMCcsICctbWV0YWxfYmluZGluZycsICctaW1hZScsICc8aW5maWxlLm1hZT4nLCAnLW9tYWUnLCAnPG91dGZpbGUubWFlPic=

> <r_lp_tautomer_probability>
1

> <r_epik_Ionization_Penalty>
6.13319e-08

> <r_epik_Ionization_Penalty_Charging>
2.19172e-10

> <r_epik_Ionization_Penalty_Neutral>
6.11128e-08

> <r_epik_State_Penalty>
-0

> <r_epik_Charging_Adjusted_Penalty>
2.19172e-10

> <i_epik_Tot_Q>
0

> <i_epik_Tot_abs_Q>
0

> <r_epik_Metal_State_Penalty>
-0

> <b_epik_Metal_Only>
0

> <s_lp_Force_Field>
OPLS_2005

> <r_lp_Energy>
29.8656

> <b_lp_Chiralities_Consistent>
1

> <s_lp_Variant>
AV-unprocessed.smi:1329-1

> <Gold.Version>
5.8.1

> <Gold.Id.Protein>
6NUR|6NUR_protein|mol2

> <Gold.PLP.Fitness>
45.7996

> <Gold.PLP.PLP>
-39.6159

> <Gold.PLP.part.hbond>
-3.7107

> <Gold.PLP.part.metal>
0.0000

> <Gold.PLP.part.buried>
-3.2950

> <Gold.PLP.part.nonpolar>
-32.0773

> <Gold.PLP.part.repulsive>
0.1769

> <Gold.PLP.ligand.clash>
0.0000

> <Gold.PLP.ligand.torsion>
1.5168

> <Gold.PLP.Chemscore.Hbond>
3.0613

> <Gold.PLP.Chemscore.CHOScore>
0.0000

> <Gold.PLP.Chemscore.Metal>
0.0000

> <Gold.Chemscore.Hbonds>
donor molecule, donor type, donor heavy atom, donor atom, acceptor molecule, acceptor atom, score
      L1  H     7    30       P1  7957  0.33
      P1  H  6896  6908       L1    21  0.19
      P1  H  7989  7998       L1     7  0.78
      P1  H 10752 10763       L1    18  1.00

> <Gold.PLP.Chemscore.Internal.Correction>
0.0333

> <Gold.Rescore>
     Score         DG    S(hbond)    S(metal)    S(lipo)     H(rot)  DE(clash)    DE(int)     intcor
     18.12     -20.12       2.64        0.00     103.96       2.48       0.50       1.50       ----

> <Gold.Chemscore.Fitness>
18.1170

> <Gold.Chemscore.DG>
-20.1176

> <Gold.Chemscore.ZeroCoef>
-5.4800

> <Gold.Chemscore.Hbond>
2.6399

> <Gold.Chemscore.Metal>
0.0000

> <Gold.Chemscore.Lipo>
103.9593

> <Gold.Chemscore.Internal_Hbond>
0.0000

> <Gold.Chemscore.DEClash>
0.4984

> <Gold.Chemscore.DEInternal>
1.5021

> <Gold.Chemscore.Rot>
2.4777

> <Gold.Chemscore.Internal.Correction>
   9.000000E+99

> <Gold.Chemscore.Hbonds>
donor molecule, donor type, donor heavy atom, donor atom, acceptor molecule, acceptor atom, score
      L1  H     7    30       P1  7957  0.33
      P1  H  6896  6908       L1    21  0.07
      P1  H  7989  7998       L1     7  0.34
      P1  H 10752 10763       L1    18  0.99

> <Gold.Chemscore.Hbond.Weighted>
-8.8172

> <Gold.Chemscore.Metal.Weighted>
-0.0000

> <Gold.Chemscore.Lipo.Weighted>
-12.1632

> <Gold.Chemscore.Internal_Hbond.Weighted>
0.0000

> <Gold.Chemscore.DEClash.Weighted>
0.4984

> <Gold.Chemscore.DEInternal.Weighted>
1.5021

> <Gold.Chemscore.Rot.Weighted>
6.3428

> <Gold.Chemscore.Internal.Correction.Weighted>
   9.000000E+99

> <Gold.Protein.RotatedTorsions>
[ 6907 6896 6895 6894 ] final   94.74 input  -60.11 | X-H torsion
[ 7974 7965 7964 7962 ] final -124.09 input  175.53 | X-H torsion
[ 8008 7997 7996 7995 ] final  138.09 input   59.86 | X-H torsion
[ 10167 10162 10161 10158 ] final  -70.04 input  -65.29 | X-H torsion
[ 10718 10713 10712 10709 ] final   45.67 input   66.30 | X-H torsion
[ 10763 10752 10751 10750 ] final   72.75 input  -60.55 | X-H torsion
[ 11005 11000 10999 10996 ] final -136.03 input  -57.11 | X-H torsion

> <Gold.Protein.ActiveResidues>
 VAL166  LYS551  ARG553  GLY616  TRP617  ASP618  TYR619  PRO620  LYS621  CYS622 
 ASP623  PHE694  ASN695  SER759  ASP760  ASP761  ALA762  ILE779  LEU786  VAL792 
 PHE793  MET794  SER795  GLU796  ALA797  LYS798  CYS799  TRP800  GLU811  SER814 

> <Gold.Protein.RotatedAtoms>
  152.5448  134.1147  159.8373 H   0  0  0  0  0  0  0  0  0  0  0  0  # atno 6907 bound_to 6896
  151.1209  133.5097  159.2609 H   0  0  0  0  0  0  0  0  0  0  0  0  # atno 6908 bound_to 6896
  151.1780  135.0357  159.8834 H   0  0  0  0  0  0  0  0  0  0  0  0  # atno 6909 bound_to 6896
  145.0117  140.7911  143.4434 H   0  0  0  0  0  0  0  0  0  0  0  0  # atno 7974 bound_to 7965
  156.2999  140.2402  156.4016 H   0  0  0  0  0  0  0  0  0  0  0  0  # atno 8008 bound_to 7997
  154.8521  140.0423  157.1631 H   0  0  0  0  0  0  0  0  0  0  0  0  # atno 8009 bound_to 7997
  154.8987  140.2974  155.5333 H   0  0  0  0  0  0  0  0  0  0  0  0  # atno 8010 bound_to 7997
  140.5384  143.2316  151.7135 H   0  0  0  0  0  0  0  0  0  0  0  0  # atno 10167 bound_to 10162
  157.4400  130.8075  149.7685 H   0  0  0  0  0  0  0  0  0  0  0  0  # atno 10718 bound_to 10713
  153.0478  135.5088  154.7791 H   0  0  0  0  0  0  0  0  0  0  0  0  # atno 10763 bound_to 10752
  154.6677  135.2948  154.9786 H   0  0  0  0  0  0  0  0  0  0  0  0  # atno 10764 bound_to 10752
  154.0615  135.6690  153.4865 H   0  0  0  0  0  0  0  0  0  0  0  0  # atno 10765 bound_to 10752
  140.8843  134.1892  157.4570 H   0  0  0  0  0  0  0  0  0  0  0  0  # atno 11005 bound_to 11000
  145.2014  139.2250  143.5191 LP  0  0  0  0  0  0  0  0  0  0  0  0  # atno 17320 bound_to 7965
  146.3471  140.1832  142.8589 LP  0  0  0  0  0  0  0  0  0  0  0  0  # atno 17321 bound_to 7965
  139.4979  144.4007  152.0184 LP  0  0  0  0  0  0  0  0  0  0  0  0  # atno 17342 bound_to 10162
  140.3114  144.3533  150.6033 LP  0  0  0  0  0  0  0  0  0  0  0  0  # atno 17343 bound_to 10162
  155.9945  130.3917  150.2856 LP  0  0  0  0  0  0  0  0  0  0  0  0  # atno 17370 bound_to 10713
  157.1020  131.0198  151.3082 LP  0  0  0  0  0  0  0  0  0  0  0  0  # atno 17371 bound_to 10713
  139.8723  134.9831  156.5183 LP  0  0  0  0  0  0  0  0  0  0  0  0  # atno 17394 bound_to 11000
  140.8424  133.8195  155.9088 LP  0  0  0  0  0  0  0  0  0  0  0  0  # atno 17395 bound_to 11000

$$$$
