AV-unprocessed.smi:1604|AV-procd|sdf|6449|dock1
  -GOLD-   22720 7103D 1   1.00000     0.00000
 Structure written by MMmdl.
 47 49  0  0  0  0  0  0  0  0  2 V2000
  150.0507  137.8766  159.4830 O   0  0  0  0  0  0  0  0  0  0  0  0
  149.1768  137.9462  158.6186 C   0  0  0  0  0  0  0  0  0  0  0  0
  149.0291  138.9632  157.7548 N   0  0  0  0  0  0  0  0  0  0  0  0
  149.7604  140.1820  157.7326 C   0  0  0  0  0  0  0  0  0  0  0  0
  150.8979  140.3587  158.5605 C   0  0  0  0  0  0  0  0  0  0  0  0
  151.6531  141.5430  158.4713 C   0  0  0  0  0  0  0  0  0  0  0  0
  151.2679  142.5265  157.5441 C   0  0  0  0  0  0  0  0  0  0  0  0
  150.1863  142.3237  156.7635 N   0  3  0  0  0  0  0  0  0  0  0  0
  149.4096  141.2123  156.8129 C   0  0  0  0  0  0  0  0  0  0  0  0
  148.2951  141.1447  155.9455 N   0  0  0  0  0  0  0  0  0  0  0  0
  148.4870  141.0495  154.5032 C   0  0  0  0  0  0  0  0  0  0  0  0
  147.1175  141.3513  153.9011 C   0  0  0  0  0  0  0  0  0  0  0  0
  146.5593  142.3947  154.8642 C   0  0  0  0  0  0  0  0  0  0  0  0
  147.1270  141.9755  156.2245 C   0  0  0  0  0  0  0  0  0  0  0  0
  148.2261  137.0168  158.4418 N   0  0  0  0  0  0  0  0  0  0  0  0
  148.0331  135.8312  159.2799 C   0  0  2  0  0  0  0  0  0  0  0  0
  146.8819  135.0047  158.6622 C   0  0  0  0  0  0  0  0  0  0  0  0
  146.8934  133.5218  159.0722 C   0  0  0  0  0  0  0  0  0  0  0  0
  146.6494  133.2589  160.5660 C   0  0  0  0  0  0  0  0  0  0  0  0
  147.7265  133.8613  161.4844 C   0  0  0  0  0  0  0  0  0  0  0  0
  147.5533  135.2967  161.6647 N   0  0  0  0  0  0  0  0  0  0  0  0
  147.6465  136.2444  160.7196 C   0  0  0  0  0  0  0  0  0  0  0  0
  147.4223  137.4234  160.9962 O   0  0  0  0  0  0  0  0  0  0  0  0
  148.2129  138.9296  157.1616 H   0  0  0  0  0  0  0  0  0  0  0  0
  151.2131  139.5893  159.2499 H   0  0  0  0  0  0  0  0  0  0  0  0
  152.5218  141.6881  159.0968 H   0  0  0  0  0  0  0  0  0  0  0  0
  151.7894  143.4619  157.4012 H   0  0  0  0  0  0  0  0  0  0  0  0
  149.2070  141.7960  154.1657 H   0  0  0  0  0  0  0  0  0  0  0  0
  148.8491  140.0632  154.2115 H   0  0  0  0  0  0  0  0  0  0  0  0
  147.1740  141.7058  152.8717 H   0  0  0  0  0  0  0  0  0  0  0  0
  146.4942  140.4561  153.9195 H   0  0  0  0  0  0  0  0  0  0  0  0
  146.9410  143.3806  154.5951 H   0  0  0  0  0  0  0  0  0  0  0  0
  145.4699  142.4433  154.8564 H   0  0  0  0  0  0  0  0  0  0  0  0
  146.3922  141.3785  156.7653 H   0  0  0  0  0  0  0  0  0  0  0  0
  147.3755  142.8452  156.8347 H   0  0  0  0  0  0  0  0  0  0  0  0
  147.5490  137.1623  157.7077 H   0  0  0  0  0  0  0  0  0  0  0  0
  148.9544  135.2459  159.2903 H   0  0  0  0  0  0  0  0  0  0  0  0
  145.9124  135.4514  158.8904 H   0  0  0  0  0  0  0  0  0  0  0  0
  146.9665  135.0345  157.5747 H   0  0  0  0  0  0  0  0  0  0  0  0
  146.1266  132.9987  158.4999 H   0  0  0  0  0  0  0  0  0  0  0  0
  147.8417  133.0719  158.7755 H   0  0  0  0  0  0  0  0  0  0  0  0
  145.6617  133.6194  160.8566 H   0  0  0  0  0  0  0  0  0  0  0  0
  146.6298  132.1794  160.7204 H   0  0  0  0  0  0  0  0  0  0  0  0
  147.6532  133.4033  162.4710 H   0  0  0  0  0  0  0  0  0  0  0  0
  148.7294  133.6392  161.1172 H   0  0  0  0  0  0  0  0  0  0  0  0
  147.3096  135.6011  162.5962 H   0  0  0  0  0  0  0  0  0  0  0  0
  149.9322  143.0569  156.1014 H   0  0  0  0  0  0  0  0  0  0  0  0
  1  2  2  0  0  0  0
  2  3  1  0  0  0  0
  2 15  1  0  0  0  0
  3  4  1  0  0  0  0
  3 24  1  0  0  0  0
  4  9  1  0  0  0  0
  4  5  2  0  0  0  0
  5  6  1  0  0  0  0
  5 25  1  0  0  0  0
  6  7  2  0  0  0  0
  6 26  1  0  0  0  0
  7  8  1  0  0  0  0
  7 27  1  0  0  0  0
  8  9  2  0  0  0  0
  8 47  1  0  0  0  0
  9 10  1  0  0  0  0
 10 14  1  0  0  0  0
 10 11  1  0  0  0  0
 11 12  1  0  0  0  0
 11 28  1  0  0  0  0
 11 29  1  0  0  0  0
 12 13  1  0  0  0  0
 12 30  1  0  0  0  0
 12 31  1  0  0  0  0
 13 14  1  0  0  0  0
 13 32  1  0  0  0  0
 13 33  1  0  0  0  0
 14 34  1  0  0  0  0
 14 35  1  0  0  0  0
 15 16  1  0  0  0  0
 15 36  1  0  0  0  0
 16 22  1  0  0  0  0
 16 17  1  0  0  0  0
 16 37  1  0  0  0  0
 17 18  1  0  0  0  0
 17 38  1  0  0  0  0
 17 39  1  0  0  0  0
 18 19  1  0  0  0  0
 18 40  1  0  0  0  0
 18 41  1  0  0  0  0
 19 20  1  0  0  0  0
 19 42  1  0  0  0  0
 19 43  1  0  0  0  0
 20 21  1  0  0  0  0
 20 44  1  0  0  0  0
 20 45  1  0  0  0  0
 21 22  1  0  0  0  0
 21 46  1  0  0  0  0
 22 23  2  0  0  0  0
M  CHG  1   8   1
M  END
> <s_m_source_file>
AV-unprocessed.smi

> <i_m_source_file_index>
1604

> <i_lp_mmshare_version>
43012

> <i_f3d_flags>
0

> <s_epik_input>
Tz1DMVtOSF1bQ0gyXVtDSDJdW0NIMl1bQ0gyXVtDQEhdMVtOSF1DKD1PKVtOSF1jMltjSF1bY0hdW2NIXW5jMk4zW0NIMl1bQ0gyXVtDSDJdW0NIMl0z

> <s_epik_cmdline>
J2VwaWtfcHl0aG9uJywgJy1waCcsICc3LjAnLCAnLXRuJywgJzgnLCAnLW1hJywgJzIwMCcsICctbWV0YWxfYmluZGluZycsICctaW1hZScsICc8aW5maWxlLm1hZT4nLCAnLW9tYWUnLCAnPG91dGZpbGUubWFlPic=

> <r_lp_tautomer_probability>
0.999994

> <r_epik_Ionization_Penalty>
1.20452

> <r_epik_Ionization_Penalty_Charging>
1.2045

> <r_epik_Ionization_Penalty_Neutral>
1.88134e-05

> <r_epik_State_Penalty>
1.2704

> <r_epik_Charging_Adjusted_Penalty>
2.4749

> <i_epik_Tot_Q>
1

> <i_epik_Tot_abs_Q>
1

> <r_epik_Metal_State_Penalty>
1.34433

> <b_epik_Metal_Only>
0

> <s_lp_Force_Field>
OPLS_2005

> <r_lp_Energy>
45.117

> <b_lp_Chiralities_Consistent>
1

> <s_lp_Variant>
AV-unprocessed.smi:1604-3

> <Gold.Version>
5.8.1

> <Gold.Id.Protein>
6NUR|6NUR_protein|mol2

> <Gold.PLP.Fitness>
41.6859

> <Gold.PLP.PLP>
-30.5901

> <Gold.PLP.part.hbond>
-4.0000

> <Gold.PLP.part.metal>
0.0000

> <Gold.PLP.part.buried>
-5.6698

> <Gold.PLP.part.nonpolar>
-22.1801

> <Gold.PLP.part.repulsive>
0.4217

> <Gold.PLP.ligand.clash>
0.0000

> <Gold.PLP.ligand.torsion>
0.2218

> <Gold.PLP.Chemscore.Hbond>
3.7200

> <Gold.PLP.Chemscore.CHOScore>
0.0000

> <Gold.PLP.Chemscore.Metal>
0.0000

> <Gold.Chemscore.Hbonds>
donor molecule, donor type, donor heavy atom, donor atom, acceptor molecule, acceptor atom, score
      L1  H     8    47       P1  8028  2.00
      P1  H  6931  6943       L1    23  0.74
      P1  H  6934  6947       L1    23  1.00

> <Gold.PLP.Chemscore.Internal.Correction>
0.3793

> <Gold.Rescore>
     Score         DG    S(hbond)    S(metal)    S(lipo)     H(rot)  DE(clash)    DE(int)     intcor
     16.04     -18.59       2.67        0.00      63.29       1.26       0.02       2.53       ----

> <Gold.Chemscore.Fitness>
16.0376

> <Gold.Chemscore.DG>
-18.5927

> <Gold.Chemscore.ZeroCoef>
-5.4800

> <Gold.Chemscore.Hbond>
2.6720

> <Gold.Chemscore.Metal>
0.0000

> <Gold.Chemscore.Lipo>
63.2918

> <Gold.Chemscore.Internal_Hbond>
0.0000

> <Gold.Chemscore.DEClash>
0.0211

> <Gold.Chemscore.DEInternal>
2.5340

> <Gold.Chemscore.Rot>
1.2566

> <Gold.Chemscore.Internal.Correction>
   9.000000E+99

> <Gold.Chemscore.Hbonds>
donor molecule, donor type, donor heavy atom, donor atom, acceptor molecule, acceptor atom, score
      L1  H     8    47       P1  8028  0.90
      P1  H  6931  6943       L1    23  0.55
      P1  H  6934  6947       L1    23  0.95

> <Gold.Chemscore.Hbond.Weighted>
-8.9244

> <Gold.Chemscore.Metal.Weighted>
-0.0000

> <Gold.Chemscore.Lipo.Weighted>
-7.4051

> <Gold.Chemscore.Internal_Hbond.Weighted>
0.0000

> <Gold.Chemscore.DEClash.Weighted>
0.0211

> <Gold.Chemscore.DEInternal.Weighted>
2.5340

> <Gold.Chemscore.Rot.Weighted>
3.2168

> <Gold.Chemscore.Internal.Correction.Weighted>
   9.000000E+99

> <Gold.Protein.RotatedTorsions>
[ 6907 6896 6895 6894 ] final  150.87 input  -60.11 | X-H torsion
[ 7974 7965 7964 7962 ] final -176.07 input  175.53 | X-H torsion
[ 8008 7997 7996 7995 ] final   68.04 input   59.86 | X-H torsion
[ 10167 10162 10161 10158 ] final  -78.09 input  -65.29 | X-H torsion
[ 10718 10713 10712 10709 ] final -105.62 input   66.30 | X-H torsion
[ 10763 10752 10751 10750 ] final -179.99 input  -60.55 | X-H torsion
[ 11005 11000 10999 10996 ] final   56.91 input  -57.11 | X-H torsion

> <Gold.Protein.ActiveResidues>
 VAL166  LYS551  ARG553  GLY616  TRP617  ASP618  TYR619  PRO620  LYS621  CYS622 
 ASP623  PHE694  ASN695  SER759  ASP760  ASP761  ALA762  ILE779  LEU786  VAL792 
 PHE793  MET794  SER795  GLU796  ALA797  LYS798  CYS799  TRP800  GLU811  SER814 

> <Gold.Protein.RotatedAtoms>
  152.1084  133.4287  159.4619 H   0  0  0  0  0  0  0  0  0  0  0  0  # atno 6907 bound_to 6896
  150.6866  134.2677  159.4584 H   0  0  0  0  0  0  0  0  0  0  0  0  # atno 6908 bound_to 6896
  152.0543  134.9633  160.0625 H   0  0  0  0  0  0  0  0  0  0  0  0  # atno 6909 bound_to 6896
  144.7127  140.1226  143.6404 H   0  0  0  0  0  0  0  0  0  0  0  0  # atno 7974 bound_to 7965
  155.7021  140.3495  155.4937 H   0  0  0  0  0  0  0  0  0  0  0  0  # atno 8008 bound_to 7997
  155.9431  140.1105  157.1061 H   0  0  0  0  0  0  0  0  0  0  0  0  # atno 8009 bound_to 7997
  154.4106  140.1209  156.4939 H   0  0  0  0  0  0  0  0  0  0  0  0  # atno 8010 bound_to 7997
  140.4712  143.2426  151.8201 H   0  0  0  0  0  0  0  0  0  0  0  0  # atno 10167 bound_to 10162
  156.0354  130.5572  150.7565 H   0  0  0  0  0  0  0  0  0  0  0  0  # atno 10718 bound_to 10713
  154.5280  135.2798  155.1205 H   0  0  0  0  0  0  0  0  0  0  0  0  # atno 10763 bound_to 10752
  154.2737  135.6299  153.5323 H   0  0  0  0  0  0  0  0  0  0  0  0  # atno 10764 bound_to 10752
  152.9950  135.5634  154.5786 H   0  0  0  0  0  0  0  0  0  0  0  0  # atno 10765 bound_to 10752
  140.0493  134.5761  155.9284 H   0  0  0  0  0  0  0  0  0  0  0  0  # atno 11005 bound_to 11000
  145.9358  139.2636  143.1298 LP  0  0  0  0  0  0  0  0  0  0  0  0  # atno 17320 bound_to 7965
  145.9475  140.8933  143.0276 LP  0  0  0  0  0  0  0  0  0  0  0  0  # atno 17321 bound_to 7965
  139.4819  144.4889  151.9211 LP  0  0  0  0  0  0  0  0  0  0  0  0  # atno 17342 bound_to 10162
  140.3974  144.2537  150.5895 LP  0  0  0  0  0  0  0  0  0  0  0  0  # atno 17343 bound_to 10162
  157.5096  131.0924  151.0215 LP  0  0  0  0  0  0  0  0  0  0  0  0  # atno 17370 bound_to 10713
  157.0574  130.5811  149.5380 LP  0  0  0  0  0  0  0  0  0  0  0  0  # atno 17371 bound_to 10713
  141.1922  133.6574  156.5492 LP  0  0  0  0  0  0  0  0  0  0  0  0  # atno 17394 bound_to 11000
  140.3944  134.7412  157.4741 LP  0  0  0  0  0  0  0  0  0  0  0  0  # atno 17395 bound_to 11000

$$$$
