AV-unprocessed.smi:2149|AV-procd|sdf|8754|dock4
  -GOLD-   2272011533D 1   1.00000     0.00000
 Structure written by MMmdl.
 43 44  0  0  0  0  0  0  0  0  2 V2000
  151.1717  138.4236  157.7585 C   0  0  0  0  0  0  0  0  0  0  0  0
  152.2345  137.8146  156.3865 S   0  0  0  0  0  0  0  0  0  0  0  0
  153.2298  138.8538  156.0824 O   0  0  0  0  0  0  0  0  0  0  0  0
  152.6796  136.4529  156.7221 O   0  0  0  0  0  0  0  0  0  0  0  0
  151.1532  137.7020  155.0276 N   0  0  0  0  0  0  0  0  0  0  0  0
  150.6885  138.9265  154.3435 C   0  0  0  0  0  0  0  0  0  0  0  0
  149.2472  139.2934  154.7440 C   0  0  0  0  0  0  0  0  0  0  0  0
  148.2918  138.1079  154.5543 C   0  0  0  0  0  0  0  0  0  0  0  0
  148.8100  136.9017  155.3551 C   0  0  1  0  0  0  0  0  0  0  0  0
  147.8940  135.6803  155.2130 C   0  0  0  0  0  0  0  0  0  0  0  0
  147.4074  135.1434  156.2083 O   0  0  0  0  0  0  0  0  0  0  0  0
  147.6324  135.2805  153.9595 N   0  0  0  0  0  0  0  0  0  0  0  0
  146.6677  134.2505  153.5857 C   0  0  0  0  0  0  0  0  0  0  0  0
  147.2219  133.2595  152.5389 C   0  0  0  0  0  0  0  0  0  0  0  0
  146.2321  132.9161  151.4369 C   0  0  0  0  0  0  0  0  0  0  0  0
  144.9650  133.5336  151.3494 C   0  0  0  0  0  0  0  0  0  0  0  0
  144.1061  133.2006  150.2816 C   0  0  0  0  0  0  0  0  0  0  0  0
  144.5282  132.2508  149.3289 C   0  0  0  0  0  0  0  0  0  0  0  0
  145.7991  131.6566  149.4697 C   0  0  0  0  0  0  0  0  0  0  0  0
  146.5951  132.0056  150.5048 N   0  3  0  0  0  0  0  0  0  0  0  0
  150.2437  136.5471  154.9066 C   0  0  0  0  0  0  0  0  0  0  0  0
  151.7837  138.5534  158.6507 H   0  0  0  0  0  0  0  0  0  0  0  0
  150.3874  137.7001  157.9719 H   0  0  0  0  0  0  0  0  0  0  0  0
  150.7331  139.3832  157.4897 H   0  0  0  0  0  0  0  0  0  0  0  0
  151.3632  139.7567  154.5508 H   0  0  0  0  0  0  0  0  0  0  0  0
  150.7338  138.7548  153.2674 H   0  0  0  0  0  0  0  0  0  0  0  0
  149.2199  139.6220  155.7823 H   0  0  0  0  0  0  0  0  0  0  0  0
  148.9057  140.1411  154.1494 H   0  0  0  0  0  0  0  0  0  0  0  0
  147.2888  138.3838  154.8829 H   0  0  0  0  0  0  0  0  0  0  0  0
  148.2196  137.8622  153.4936 H   0  0  0  0  0  0  0  0  0  0  0  0
  148.8297  137.1830  156.4079 H   0  0  0  0  0  0  0  0  0  0  0  0
  148.0897  135.7701  153.2040 H   0  0  0  0  0  0  0  0  0  0  0  0
  146.4188  133.7066  154.4970 H   0  0  0  0  0  0  0  0  0  0  0  0
  145.7392  134.7032  153.2342 H   0  0  0  0  0  0  0  0  0  0  0  0
  148.1317  133.6628  152.0923 H   0  0  0  0  0  0  0  0  0  0  0  0
  147.5189  132.3357  153.0370 H   0  0  0  0  0  0  0  0  0  0  0  0
  144.6595  134.2666  152.0821 H   0  0  0  0  0  0  0  0  0  0  0  0
  143.1381  133.6718  150.1924 H   0  0  0  0  0  0  0  0  0  0  0  0
  143.8860  131.9833  148.5023 H   0  0  0  0  0  0  0  0  0  0  0  0
  146.2016  130.9216  148.7880 H   0  0  0  0  0  0  0  0  0  0  0  0
  150.2431  136.2231  153.8646 H   0  0  0  0  0  0  0  0  0  0  0  0
  150.6300  135.7093  155.4852 H   0  0  0  0  0  0  0  0  0  0  0  0
  147.5134  131.5680  150.5820 H   0  0  0  0  0  0  0  0  0  0  0  0
  1  2  1  0  0  0  0
  1 22  1  0  0  0  0
  1 23  1  0  0  0  0
  1 24  1  0  0  0  0
  2  3  2  0  0  0  0
  2  4  2  0  0  0  0
  2  5  1  0  0  0  0
  5 21  1  0  0  0  0
  5  6  1  0  0  0  0
  6  7  1  0  0  0  0
  6 25  1  0  0  0  0
  6 26  1  0  0  0  0
  7  8  1  0  0  0  0
  7 27  1  0  0  0  0
  7 28  1  0  0  0  0
  8  9  1  0  0  0  0
  8 29  1  0  0  0  0
  8 30  1  0  0  0  0
  9 10  1  0  0  0  0
  9 21  1  0  0  0  0
  9 31  1  0  0  0  0
 10 11  2  0  0  0  0
 10 12  1  0  0  0  0
 12 13  1  0  0  0  0
 12 32  1  0  0  0  0
 13 14  1  0  0  0  0
 13 33  1  0  0  0  0
 13 34  1  0  0  0  0
 14 15  1  0  0  0  0
 14 35  1  0  0  0  0
 14 36  1  0  0  0  0
 15 20  1  0  0  0  0
 15 16  2  0  0  0  0
 16 17  1  0  0  0  0
 16 37  1  0  0  0  0
 17 18  2  0  0  0  0
 17 38  1  0  0  0  0
 18 19  1  0  0  0  0
 18 39  1  0  0  0  0
 19 20  2  0  0  0  0
 19 40  1  0  0  0  0
 20 43  1  0  0  0  0
 21 41  1  0  0  0  0
 21 42  1  0  0  0  0
M  CHG  1  20   1
M  END
> <s_m_source_file>
AV-unprocessed.smi

> <i_m_source_file_index>
2149

> <i_lp_mmshare_version>
43012

> <i_f3d_flags>
0

> <s_epik_input>
W0NIM11TKD1PKSg9TylOMVtDSDJdW0NIMl1bQ0gyXVtDQEhdKFtDSDJdMSlDKD1PKVtOSF1bQ0gyXVtDSDJdYzJbY0hdW2NIXVtjSF1bY0hdbjI=

> <s_epik_cmdline>
J2VwaWtfcHl0aG9uJywgJy1waCcsICc3LjAnLCAnLXRuJywgJzgnLCAnLW1hJywgJzIwMCcsICctbWV0YWxfYmluZGluZycsICctaW1hZScsICc8aW5maWxlLm1hZT4nLCAnLW9tYWUnLCAnPG91dGZpbGUubWFlPic=

> <r_epik_Ionization_Penalty>
1.83523

> <r_epik_Ionization_Penalty_Charging>
1.83523

> <r_epik_Ionization_Penalty_Neutral>
2.62835e-08

> <r_epik_State_Penalty>
1.95153

> <r_epik_Charging_Adjusted_Penalty>
3.78676

> <i_epik_Tot_Q>
1

> <i_epik_Tot_abs_Q>
1

> <r_epik_Metal_State_Penalty>
1.97791

> <b_epik_Metal_Only>
0

> <s_lp_Force_Field>
OPLS_2005

> <r_lp_Energy>
6.48015

> <b_lp_Chiralities_Consistent>
1

> <s_lp_Variant>
AV-unprocessed.smi:2149-3

> <Gold.Version>
5.8.1

> <Gold.Id.Protein>
6NUR|6NUR_protein|mol2

> <Gold.PLP.Fitness>
46.4946

> <Gold.PLP.PLP>
-35.4197

> <Gold.PLP.part.hbond>
-3.8075

> <Gold.PLP.part.metal>
0.0000

> <Gold.PLP.part.buried>
-6.0017

> <Gold.PLP.part.nonpolar>
-26.3107

> <Gold.PLP.part.repulsive>
0.1367

> <Gold.PLP.ligand.clash>
0.0000

> <Gold.PLP.ligand.torsion>
1.5078

> <Gold.PLP.Chemscore.Hbond>
3.9920

> <Gold.PLP.Chemscore.CHOScore>
0.0000

> <Gold.PLP.Chemscore.Metal>
0.0000

> <Gold.Chemscore.Hbonds>
donor molecule, donor type, donor heavy atom, donor atom, acceptor molecule, acceptor atom, score
      L1  H    12    32       P1  7948  1.00
      L1  H    20    43       P1 10747  1.00
      P1  H  7997  8008       L1     3  1.00
      P1  H 10752 10763       L1     4  1.00

> <Gold.PLP.Chemscore.Internal.Correction>
2.1145

> <Gold.Rescore>
     Score         DG    S(hbond)    S(metal)    S(lipo)     H(rot)  DE(clash)    DE(int)     intcor
     22.08     -23.72       3.91        0.00      80.36       1.65       0.00       1.64       ----

> <Gold.Chemscore.Fitness>
22.0830

> <Gold.Chemscore.DG>
-23.7246

> <Gold.Chemscore.ZeroCoef>
-5.4800

> <Gold.Chemscore.Hbond>
3.9149

> <Gold.Chemscore.Metal>
0.0000

> <Gold.Chemscore.Lipo>
80.3640

> <Gold.Chemscore.Internal_Hbond>
0.0000

> <Gold.Chemscore.DEClash>
0.0009

> <Gold.Chemscore.DEInternal>
1.6407

> <Gold.Chemscore.Rot>
1.6538

> <Gold.Chemscore.Internal.Correction>
   9.000000E+99

> <Gold.Chemscore.Hbonds>
donor molecule, donor type, donor heavy atom, donor atom, acceptor molecule, acceptor atom, score
      L1  H    12    32       P1  7948  1.00
      L1  H    20    43       P1 10747  1.00
      P1  H  7997  8008       L1     3  0.98
      P1  H 10752 10763       L1     4  0.94

> <Gold.Chemscore.Hbond.Weighted>
-13.0757

> <Gold.Chemscore.Metal.Weighted>
-0.0000

> <Gold.Chemscore.Lipo.Weighted>
-9.4026

> <Gold.Chemscore.Internal_Hbond.Weighted>
0.0000

> <Gold.Chemscore.DEClash.Weighted>
0.0009

> <Gold.Chemscore.DEInternal.Weighted>
1.6407

> <Gold.Chemscore.Rot.Weighted>
4.2337

> <Gold.Chemscore.Internal.Correction.Weighted>
   9.000000E+99

> <Gold.Protein.RotatedTorsions>
[ 6907 6896 6895 6894 ] final   99.34 input  -60.11 | X-H torsion
[ 7974 7965 7964 7962 ] final  165.82 input  175.53 | X-H torsion
[ 8008 7997 7996 7995 ] final  -43.70 input   59.86 | X-H torsion
[ 10167 10162 10161 10158 ] final   16.85 input  -65.29 | X-H torsion
[ 10718 10713 10712 10709 ] final   10.34 input   66.30 | X-H torsion
[ 10763 10752 10751 10750 ] final  117.32 input  -60.55 | X-H torsion
[ 11005 11000 10999 10996 ] final  -63.22 input  -57.11 | X-H torsion

> <Gold.Protein.ActiveResidues>
 VAL166  LYS551  ARG553  GLY616  TRP617  ASP618  TYR619  PRO620  LYS621  CYS622 
 ASP623  PHE694  ASN695  SER759  ASP760  ASP761  ALA762  ILE779  LEU786  VAL792 
 PHE793  MET794  SER795  GLU796  ALA797  LYS798  CYS799  TRP800  GLU811  SER814 

> <Gold.Protein.RotatedAtoms>
  152.5394  134.0444  159.8081 H   0  0  0  0  0  0  0  0  0  0  0  0  # atno 6907 bound_to 6896
  151.0595  133.5548  159.2642 H   0  0  0  0  0  0  0  0  0  0  0  0  # atno 6908 bound_to 6896
  151.2452  135.0611  159.9094 H   0  0  0  0  0  0  0  0  0  0  0  0  # atno 6909 bound_to 6896
  144.7487  139.8526  143.6373 H   0  0  0  0  0  0  0  0  0  0  0  0  # atno 7974 bound_to 7965
  154.3997  140.1441  156.3562 H   0  0  0  0  0  0  0  0  0  0  0  0  # atno 8008 bound_to 7997
  155.8223  140.3469  155.5500 H   0  0  0  0  0  0  0  0  0  0  0  0  # atno 8009 bound_to 7997
  155.8275  140.0907  157.1803 H   0  0  0  0  0  0  0  0  0  0  0  0  # atno 8010 bound_to 7997
  140.5768  143.9057  150.6756 H   0  0  0  0  0  0  0  0  0  0  0  0  # atno 10167 bound_to 10162
  156.9796  130.6000  149.5675 H   0  0  0  0  0  0  0  0  0  0  0  0  # atno 10718 bound_to 10713
  153.5506  135.3540  155.2758 H   0  0  0  0  0  0  0  0  0  0  0  0  # atno 10763 bound_to 10752
  154.8707  135.4113  154.2941 H   0  0  0  0  0  0  0  0  0  0  0  0  # atno 10764 bound_to 10752
  153.3667  135.7062  153.6738 H   0  0  0  0  0  0  0  0  0  0  0  0  # atno 10765 bound_to 10752
  141.1386  133.6649  156.5647 H   0  0  0  0  0  0  0  0  0  0  0  0  # atno 11005 bound_to 11000
  146.1405  139.4461  143.0112 LP  0  0  0  0  0  0  0  0  0  0  0  0  # atno 17320 bound_to 7965
  145.7025  141.0131  143.1496 LP  0  0  0  0  0  0  0  0  0  0  0  0  # atno 17321 bound_to 7965
  140.2546  143.3568  152.1376 LP  0  0  0  0  0  0  0  0  0  0  0  0  # atno 17342 bound_to 10162
  139.5147  144.6952  151.5650 LP  0  0  0  0  0  0  0  0  0  0  0  0  # atno 17343 bound_to 10162
  156.0250  130.5344  150.8381 LP  0  0  0  0  0  0  0  0  0  0  0  0  # atno 17370 bound_to 10713
  157.5536  131.0944  150.9661 LP  0  0  0  0  0  0  0  0  0  0  0  0  # atno 17371 bound_to 10713
  140.3960  134.7398  157.4751 LP  0  0  0  0  0  0  0  0  0  0  0  0  # atno 17394 bound_to 11000
  140.0531  134.6102  155.8838 LP  0  0  0  0  0  0  0  0  0  0  0  0  # atno 17395 bound_to 11000

$$$$
