AV-unprocessed.smi:2044|AV-procd|sdf|8301|dock8
  -GOLD-   2272010563D 1   1.00000     0.00000
 Structure written by MMmdl.
 40 41  0  0  0  0  0  0  0  0  2 V2000
  150.9074  141.8072  156.3985 C   0  0  0  0  0  0  0  0  0  0  0  0
  150.9273  140.4574  155.7671 C   0  0  0  0  0  0  0  0  0  0  0  0
  149.9509  139.5364  155.5112 C   0  0  0  0  0  0  0  0  0  0  0  0
  150.6687  138.4759  154.8853 C   0  0  0  0  0  0  0  0  0  0  0  0
  150.1214  137.2574  154.4070 N   0  0  0  0  0  0  0  0  0  0  0  0
  149.8061  136.1534  155.1047 C   0  0  0  0  0  0  0  0  0  0  0  0
  149.9679  136.0017  156.3156 O   0  0  0  0  0  0  0  0  0  0  0  0
  149.2752  135.2115  154.3115 N   0  0  0  0  0  0  0  0  0  0  0  0
  148.8079  133.9055  154.7678 C   0  0  0  0  0  0  0  0  0  0  0  0
  148.1716  133.0560  153.6346 C   0  0  1  0  0  0  0  0  0  0  0  0
  147.4190  131.8442  154.2372 C   0  0  0  0  0  0  0  0  0  0  0  0
  147.3122  133.9161  152.7563 N   0  3  0  0  0  0  0  0  0  0  0  0
  146.5481  133.1236  151.7537 C   0  0  0  0  0  0  0  0  0  0  0  0
  145.7431  134.0395  150.8177 C   0  0  0  0  0  0  0  0  0  0  0  0
  144.8594  134.8407  151.5868 O   0  0  0  0  0  0  0  0  0  0  0  0
  145.5691  135.6856  152.4799 C   0  0  0  0  0  0  0  0  0  0  0  0
  146.3845  134.8367  153.4709 C   0  0  0  0  0  0  0  0  0  0  0  0
  151.9592  138.7314  154.7741 N   0  0  0  0  0  0  0  0  0  0  0  0
  152.1341  140.0007  155.3376 O   0  0  0  0  0  0  0  0  0  0  0  0
  149.9765  141.9684  156.9424 H   0  0  0  0  0  0  0  0  0  0  0  0
  150.9968  142.5874  155.6426 H   0  0  0  0  0  0  0  0  0  0  0  0
  151.7330  141.9195  157.1014 H   0  0  0  0  0  0  0  0  0  0  0  0
  148.8998  139.6257  155.7401 H   0  0  0  0  0  0  0  0  0  0  0  0
  149.9359  137.2307  153.4151 H   0  0  0  0  0  0  0  0  0  0  0  0
  149.1800  135.4137  153.3266 H   0  0  0  0  0  0  0  0  0  0  0  0
  149.6618  133.3745  155.1897 H   0  0  0  0  0  0  0  0  0  0  0  0
  148.1184  134.0695  155.5950 H   0  0  0  0  0  0  0  0  0  0  0  0
  148.9674  132.6484  153.0088 H   0  0  0  0  0  0  0  0  0  0  0  0
  148.0597  131.2554  154.8934 H   0  0  0  0  0  0  0  0  0  0  0  0
  147.0751  131.1521  153.4684 H   0  0  0  0  0  0  0  0  0  0  0  0
  146.5561  132.1619  154.8237 H   0  0  0  0  0  0  0  0  0  0  0  0
  147.2102  132.5097  151.1465 H   0  0  0  0  0  0  0  0  0  0  0  0
  145.8711  132.4403  152.2688 H   0  0  0  0  0  0  0  0  0  0  0  0
  146.4047  134.6688  150.2198 H   0  0  0  0  0  0  0  0  0  0  0  0
  145.1570  133.4407  150.1202 H   0  0  0  0  0  0  0  0  0  0  0  0
  146.2180  136.3622  151.9214 H   0  0  0  0  0  0  0  0  0  0  0  0
  144.8540  136.3066  153.0196 H   0  0  0  0  0  0  0  0  0  0  0  0
  145.7140  134.2596  154.1098 H   0  0  0  0  0  0  0  0  0  0  0  0
  146.9360  135.5252  154.1103 H   0  0  0  0  0  0  0  0  0  0  0  0
  147.9441  134.5114  152.2401 H   0  0  0  0  0  0  0  0  0  0  0  0
  1  2  1  0  0  0  0
  1 20  1  0  0  0  0
  1 21  1  0  0  0  0
  1 22  1  0  0  0  0
  2 19  1  0  0  0  0
  2  3  2  0  0  0  0
  3  4  1  0  0  0  0
  3 23  1  0  0  0  0
  4  5  1  0  0  0  0
  4 18  2  0  0  0  0
  5  6  1  0  0  0  0
  5 24  1  0  0  0  0
  6  7  2  0  0  0  0
  6  8  1  0  0  0  0
  8  9  1  0  0  0  0
  8 25  1  0  0  0  0
  9 10  1  0  0  0  0
  9 26  1  0  0  0  0
  9 27  1  0  0  0  0
 10 11  1  0  0  0  0
 10 12  1  0  0  0  0
 10 28  1  0  0  0  0
 11 29  1  0  0  0  0
 11 30  1  0  0  0  0
 11 31  1  0  0  0  0
 12 17  1  0  0  0  0
 12 13  1  0  0  0  0
 12 40  1  0  0  0  0
 13 14  1  0  0  0  0
 13 32  1  0  0  0  0
 13 33  1  0  0  0  0
 14 15  1  0  0  0  0
 14 34  1  0  0  0  0
 14 35  1  0  0  0  0
 15 16  1  0  0  0  0
 16 17  1  0  0  0  0
 16 36  1  0  0  0  0
 16 37  1  0  0  0  0
 17 38  1  0  0  0  0
 17 39  1  0  0  0  0
 18 19  1  0  0  0  0
M  CHG  1  12   1
M  END
> <s_m_source_file>
AV-unprocessed.smi

> <i_m_source_file_index>
2044

> <i_lp_mmshare_version>
43012

> <i_f3d_flags>
0

> <s_epik_input>
W0NIM11jMVtjSF1jKG5vMSlbTkhdQyg9TylbTkhdW0NIMl1bQ0BIXShbQ0gzXSlOMltDSDJdW0NIMl1PW0NIMl1bQ0gyXTI=

> <s_epik_cmdline>
J2VwaWtfcHl0aG9uJywgJy1waCcsICc3LjAnLCAnLXRuJywgJzgnLCAnLW1hJywgJzIwMCcsICctbWV0YWxfYmluZGluZycsICctaW1hZScsICc8aW5maWxlLm1hZT4nLCAnLW9tYWUnLCAnPG91dGZpbGUubWFlPic=

> <r_epik_Ionization_Penalty>
0.707076

> <r_epik_Ionization_Penalty_Charging>
0.707039

> <r_epik_Ionization_Penalty_Neutral>
3.67886e-05

> <r_epik_State_Penalty>
0.730276

> <r_epik_Charging_Adjusted_Penalty>
1.43732

> <i_epik_Tot_Q>
1

> <i_epik_Tot_abs_Q>
1

> <r_epik_Metal_State_Penalty>
0.743216

> <b_epik_Metal_Only>
0

> <s_lp_Force_Field>
OPLS_2005

> <r_lp_Energy>
19.4768

> <b_lp_Chiralities_Consistent>
1

> <s_lp_Variant>
AV-unprocessed.smi:2044-4

> <Gold.Version>
5.8.1

> <Gold.Id.Protein>
6NUR|6NUR_protein|mol2

> <Gold.PLP.Fitness>
39.7840

> <Gold.PLP.PLP>
-28.6569

> <Gold.PLP.part.hbond>
-4.5745

> <Gold.PLP.part.metal>
0.0000

> <Gold.PLP.part.buried>
-3.9703

> <Gold.PLP.part.nonpolar>
-20.5820

> <Gold.PLP.part.repulsive>
0.3221

> <Gold.PLP.ligand.clash>
0.0000

> <Gold.PLP.ligand.torsion>
1.0188

> <Gold.PLP.Chemscore.Hbond>
4.3747

> <Gold.PLP.Chemscore.CHOScore>
0.0000

> <Gold.PLP.Chemscore.Metal>
0.0000

> <Gold.Chemscore.Hbonds>
donor molecule, donor type, donor heavy atom, donor atom, acceptor molecule, acceptor atom, score
      L1  H     5    24       P1  7948  0.91
      L1  H     8    25       P1  7948  1.00
      L1  H    12    40       P1  7948  2.00
      P1  H  7989  7998       L1    19  0.12
      P1  H  7997  8009       L1    19  0.16

> <Gold.PLP.Chemscore.Internal.Correction>
0.0408

> <Gold.Rescore>
     Score         DG    S(hbond)    S(metal)    S(lipo)     H(rot)  DE(clash)    DE(int)     intcor
     15.44     -16.48       2.87        0.00      47.48       1.62       0.06       0.97       ----

> <Gold.Chemscore.Fitness>
15.4423

> <Gold.Chemscore.DG>
-16.4785

> <Gold.Chemscore.ZeroCoef>
-5.4800

> <Gold.Chemscore.Hbond>
2.8726

> <Gold.Chemscore.Metal>
0.0000

> <Gold.Chemscore.Lipo>
47.4761

> <Gold.Chemscore.Internal_Hbond>
0.0000

> <Gold.Chemscore.DEClash>
0.0637

> <Gold.Chemscore.DEInternal>
0.9726

> <Gold.Chemscore.Rot>
1.6213

> <Gold.Chemscore.Internal.Correction>
   9.000000E+99

> <Gold.Chemscore.Hbonds>
donor molecule, donor type, donor heavy atom, donor atom, acceptor molecule, acceptor atom, score
      L1  H     5    24       P1  7948  0.32
      L1  H     8    25       P1  7948  0.35
      L1  H    12    40       P1  7948  0.34
      P1  H  7997  8009       L1    19  0.13

> <Gold.Chemscore.Hbond.Weighted>
-9.5945

> <Gold.Chemscore.Metal.Weighted>
-0.0000

> <Gold.Chemscore.Lipo.Weighted>
-5.5547

> <Gold.Chemscore.Internal_Hbond.Weighted>
0.0000

> <Gold.Chemscore.DEClash.Weighted>
0.0637

> <Gold.Chemscore.DEInternal.Weighted>
0.9726

> <Gold.Chemscore.Rot.Weighted>
4.1506

> <Gold.Chemscore.Internal.Correction.Weighted>
   9.000000E+99

> <Gold.Protein.RotatedTorsions>
[ 6907 6896 6895 6894 ] final -176.70 input  -60.11 | X-H torsion
[ 7974 7965 7964 7962 ] final   89.09 input  175.53 | X-H torsion
[ 8008 7997 7996 7995 ] final -142.95 input   59.86 | X-H torsion
[ 10167 10162 10161 10158 ] final -107.80 input  -65.29 | X-H torsion
[ 10718 10713 10712 10709 ] final  -62.99 input   66.30 | X-H torsion
[ 10763 10752 10751 10750 ] final  102.32 input  -60.55 | X-H torsion
[ 11005 11000 10999 10996 ] final   13.10 input  -57.11 | X-H torsion

> <Gold.Protein.ActiveResidues>
 VAL166  LYS551  ARG553  GLY616  TRP617  ASP618  TYR619  PRO620  LYS621  CYS622 
 ASP623  PHE694  ASN695  SER759  ASP760  ASP761  ALA762  ILE779  LEU786  VAL792 
 PHE793  MET794  SER795  GLU796  ALA797  LYS798  CYS799  TRP800  GLU811  SER814 

> <Gold.Protein.RotatedAtoms>
  151.6090  133.3349  159.3063 H   0  0  0  0  0  0  0  0  0  0  0  0  # atno 6907 bound_to 6896
  150.8167  134.7356  159.6747 H   0  0  0  0  0  0  0  0  0  0  0  0  # atno 6908 bound_to 6896
  152.4262  134.5869  160.0015 H   0  0  0  0  0  0  0  0  0  0  0  0  # atno 6909 bound_to 6896
  145.5370  139.2286  143.2587 H   0  0  0  0  0  0  0  0  0  0  0  0  # atno 7974 bound_to 7965
  155.5026  140.0577  157.2936 H   0  0  0  0  0  0  0  0  0  0  0  0  # atno 8008 bound_to 7997
  154.4581  140.1983  156.0271 H   0  0  0  0  0  0  0  0  0  0  0  0  # atno 8009 bound_to 7997
  156.0838  140.3243  155.7732 H   0  0  0  0  0  0  0  0  0  0  0  0  # atno 8010 bound_to 7997
  140.1731  143.4027  152.1339 H   0  0  0  0  0  0  0  0  0  0  0  0  # atno 10167 bound_to 10162
  156.0819  130.4215  150.1213 H   0  0  0  0  0  0  0  0  0  0  0  0  # atno 10718 bound_to 10713
  153.3380  135.4014  155.1549 H   0  0  0  0  0  0  0  0  0  0  0  0  # atno 10763 bound_to 10752
  154.8637  135.3626  154.5383 H   0  0  0  0  0  0  0  0  0  0  0  0  # atno 10764 bound_to 10752
  153.5826  135.7076  153.5516 H   0  0  0  0  0  0  0  0  0  0  0  0  # atno 10765 bound_to 10752
  140.4845  134.0902  155.7758 H   0  0  0  0  0  0  0  0  0  0  0  0  # atno 11005 bound_to 11000
  146.2006  140.6189  142.9104 LP  0  0  0  0  0  0  0  0  0  0  0  0  # atno 17320 bound_to 7965
  144.7596  140.5391  143.6744 LP  0  0  0  0  0  0  0  0  0  0  0  0  # atno 17321 bound_to 7965
  139.5329  144.7179  151.4993 LP  0  0  0  0  0  0  0  0  0  0  0  0  # atno 17342 bound_to 10162
  140.6569  143.8580  150.6845 LP  0  0  0  0  0  0  0  0  0  0  0  0  # atno 17343 bound_to 10162
  156.9243  130.9693  151.3543 LP  0  0  0  0  0  0  0  0  0  0  0  0  # atno 17370 bound_to 10713
  157.5940  130.8464  149.8701 LP  0  0  0  0  0  0  0  0  0  0  0  0  # atno 17371 bound_to 10713
  141.1515  133.8961  157.2087 LP  0  0  0  0  0  0  0  0  0  0  0  0  # atno 17394 bound_to 11000
  139.9806  135.0099  156.9740 LP  0  0  0  0  0  0  0  0  0  0  0  0  # atno 17395 bound_to 11000

$$$$
