AV-unprocessed.smi:2405|AV-procd|sdf|9515|dock2
  -GOLD-   2272013143D 1   1.00000     0.00000
 Structure written by MMmdl.
 36 37  0  0  0  0  0  0  0  0  2 V2000
  145.4151  132.9419  151.1207 C   0  0  0  0  0  0  0  0  0  0  0  0
  144.9232  134.2567  150.5063 C   0  0  0  0  0  0  0  0  0  0  0  0
  145.1186  135.4208  151.4185 C   0  0  0  0  0  0  0  0  0  0  0  0
  145.8755  136.4777  151.1121 N   0  0  0  0  0  0  0  0  0  0  0  0
  145.8596  137.4597  152.1089 C   0  0  0  0  0  0  0  0  0  0  0  0
  146.6503  138.7228  151.9318 C   0  0  0  0  0  0  0  0  0  0  0  0
  147.4376  139.0288  153.2063 C   0  0  0  0  0  0  0  0  0  0  0  0
  147.1881  140.0444  153.8554 O   0  0  0  0  0  0  0  0  0  0  0  0
  148.3880  138.1445  153.5461 N   0  0  0  0  0  0  0  0  0  0  0  0
  149.2742  138.2621  154.6997 C   0  0  1  0  0  0  0  0  0  0  0  0
  150.2735  137.0906  154.7345 C   0  0  0  0  0  0  0  0  0  0  0  0
  151.6490  137.6977  154.4394 C   0  0  0  0  0  0  0  0  0  0  0  0
  151.5696  139.1359  154.9667 C   0  0  2  0  0  0  0  0  0  0  0  0
  151.8860  139.1771  156.4761 C   0  0  0  0  0  0  0  0  0  0  0  0
  150.9908  139.5379  157.2727 O   0  0  0  0  0  0  0  0  0  0  0  0
  153.0407  138.8313  156.8097 O   0  5  0  0  0  0  0  0  0  0  0  0
  150.1244  139.5483  154.6290 C   0  0  0  0  0  0  0  0  0  0  0  0
  145.0744  137.1246  153.1843 C   0  0  0  0  0  0  0  0  0  0  0  0
  144.3133  135.5718  152.9757 S   0  0  0  0  0  0  0  0  0  0  0  0
  145.2612  132.1097  150.4336 H   0  0  0  0  0  0  0  0  0  0  0  0
  144.8814  132.7154  152.0444 H   0  0  0  0  0  0  0  0  0  0  0  0
  146.4795  132.9907  151.3526 H   0  0  0  0  0  0  0  0  0  0  0  0
  145.4520  134.4520  149.5729 H   0  0  0  0  0  0  0  0  0  0  0  0
  143.8647  134.1783  150.2550 H   0  0  0  0  0  0  0  0  0  0  0  0
  147.3443  138.6274  151.0958 H   0  0  0  0  0  0  0  0  0  0  0  0
  145.9970  139.5638  151.6945 H   0  0  0  0  0  0  0  0  0  0  0  0
  148.5258  137.3431  152.9472 H   0  0  0  0  0  0  0  0  0  0  0  0
  148.6892  138.2497  155.6215 H   0  0  0  0  0  0  0  0  0  0  0  0
  150.2786  136.6530  155.7338 H   0  0  0  0  0  0  0  0  0  0  0  0
  150.0265  136.2884  154.0377 H   0  0  0  0  0  0  0  0  0  0  0  0
  152.4579  137.1138  154.8813 H   0  0  0  0  0  0  0  0  0  0  0  0
  151.8185  137.7178  153.3623 H   0  0  0  0  0  0  0  0  0  0  0  0
  152.2856  139.7812  154.4564 H   0  0  0  0  0  0  0  0  0  0  0  0
  150.1137  139.9544  153.6161 H   0  0  0  0  0  0  0  0  0  0  0  0
  149.7303  140.3363  155.2724 H   0  0  0  0  0  0  0  0  0  0  0  0
  144.8904  137.7014  154.0787 H   0  0  0  0  0  0  0  0  0  0  0  0
  1  2  1  0  0  0  0
  1 20  1  0  0  0  0
  1 21  1  0  0  0  0
  1 22  1  0  0  0  0
  2  3  1  0  0  0  0
  2 23  1  0  0  0  0
  2 24  1  0  0  0  0
  3 19  1  0  0  0  0
  3  4  2  0  0  0  0
  4  5  1  0  0  0  0
  5  6  1  0  0  0  0
  5 18  2  0  0  0  0
  6  7  1  0  0  0  0
  6 25  1  0  0  0  0
  6 26  1  0  0  0  0
  7  8  2  0  0  0  0
  7  9  1  0  0  0  0
  9 10  1  0  0  0  0
  9 27  1  0  0  0  0
 10 17  1  0  0  0  0
 10 11  1  0  0  0  0
 10 28  1  0  0  0  0
 11 12  1  0  0  0  0
 11 29  1  0  0  0  0
 11 30  1  0  0  0  0
 12 13  1  0  0  0  0
 12 31  1  0  0  0  0
 12 32  1  0  0  0  0
 13 14  1  0  0  0  0
 13 17  1  0  0  0  0
 13 33  1  0  0  0  0
 14 15  2  0  0  0  0
 14 16  1  0  0  0  0
 17 34  1  0  0  0  0
 17 35  1  0  0  0  0
 18 19  1  0  0  0  0
 18 36  1  0  0  0  0
M  CHG  1  16  -1
M  END
> <s_m_source_file>
AV-unprocessed.smi

> <i_m_source_file_index>
2405

> <i_lp_mmshare_version>
43012

> <i_f3d_flags>
0

> <s_epik_input>
W0NIM11bQ0gyXWMxbmMoW2NIXXMxKVtDSDJdQyg9TylbTkhdW0NAQEhdMltDSDJdW0NIMl1bQ0BIXShbQ0gyXTIpQyg9TylbT0hd

> <s_epik_cmdline>
J2VwaWtfcHl0aG9uJywgJy1waCcsICc3LjAnLCAnLXRuJywgJzgnLCAnLW1hJywgJzIwMCcsICctbWV0YWxfYmluZGluZycsICctaW1hZScsICc8aW5maWxlLm1hZT4nLCAnLW9tYWUnLCAnPG91dGZpbGUubWFlPic=

> <r_epik_Ionization_Penalty>
0.000544611

> <r_epik_Ionization_Penalty_Charging>
0.000481685

> <r_epik_Ionization_Penalty_Neutral>
6.29266e-05

> <r_epik_State_Penalty>
0.00029893

> <r_epik_Charging_Adjusted_Penalty>
0.000780614

> <i_epik_Tot_Q>
-1

> <i_epik_Tot_abs_Q>
1

> <r_epik_Metal_State_Penalty>
-0

> <b_epik_Metal_Only>
0

> <s_lp_Force_Field>
OPLS_2005

> <r_lp_Energy>
7.82971

> <b_lp_Chiralities_Consistent>
1

> <s_lp_Variant>
AV-unprocessed.smi:2405-4

> <Gold.Version>
5.8.1

> <Gold.Id.Protein>
6NUR|6NUR_protein|mol2

> <Gold.PLP.Fitness>
42.4132

> <Gold.PLP.PLP>
-33.7314

> <Gold.PLP.part.hbond>
-2.3417

> <Gold.PLP.part.metal>
0.0000

> <Gold.PLP.part.buried>
-2.1536

> <Gold.PLP.part.nonpolar>
-30.5885

> <Gold.PLP.part.repulsive>
0.5573

> <Gold.PLP.ligand.clash>
0.0000

> <Gold.PLP.ligand.torsion>
0.1958

> <Gold.PLP.Chemscore.Hbond>
3.0000

> <Gold.PLP.Chemscore.CHOScore>
0.0000

> <Gold.PLP.Chemscore.Metal>
0.0000

> <Gold.Chemscore.Hbonds>
donor molecule, donor type, donor heavy atom, donor atom, acceptor molecule, acceptor atom, score
      L1  H     9    27       P1  7948  1.00
      P1  H  7997  8010       L1    16  1.98

> <Gold.PLP.Chemscore.Internal.Correction>
0.0734

> <Gold.Rescore>
     Score         DG    S(hbond)    S(metal)    S(lipo)     H(rot)  DE(clash)    DE(int)     intcor
     15.25     -15.48       2.00        0.00      73.62       2.06       0.01       0.22       ----

> <Gold.Chemscore.Fitness>
15.2523

> <Gold.Chemscore.DG>
-15.4824

> <Gold.Chemscore.ZeroCoef>
-5.4800

> <Gold.Chemscore.Hbond>
1.9974

> <Gold.Chemscore.Metal>
0.0000

> <Gold.Chemscore.Lipo>
73.6211

> <Gold.Chemscore.Internal_Hbond>
0.0000

> <Gold.Chemscore.DEClash>
0.0097

> <Gold.Chemscore.DEInternal>
0.2204

> <Gold.Chemscore.Rot>
2.0635

> <Gold.Chemscore.Internal.Correction>
   9.000000E+99

> <Gold.Chemscore.Hbonds>
donor molecule, donor type, donor heavy atom, donor atom, acceptor molecule, acceptor atom, score
      L1  H     9    27       P1  7948  0.99
      P1  H  7997  8010       L1    16  0.80

> <Gold.Chemscore.Hbond.Weighted>
-6.6712

> <Gold.Chemscore.Metal.Weighted>
-0.0000

> <Gold.Chemscore.Lipo.Weighted>
-8.6137

> <Gold.Chemscore.Internal_Hbond.Weighted>
0.0000

> <Gold.Chemscore.DEClash.Weighted>
0.0097

> <Gold.Chemscore.DEInternal.Weighted>
0.2204

> <Gold.Chemscore.Rot.Weighted>
5.2825

> <Gold.Chemscore.Internal.Correction.Weighted>
   9.000000E+99

> <Gold.Protein.RotatedTorsions>
[ 6907 6896 6895 6894 ] final -126.01 input  -60.11 | X-H torsion
[ 7974 7965 7964 7962 ] final  -93.71 input  175.53 | X-H torsion
[ 8008 7997 7996 7995 ] final   79.70 input   59.86 | X-H torsion
[ 10167 10162 10161 10158 ] final  139.83 input  -65.29 | X-H torsion
[ 10718 10713 10712 10709 ] final  115.99 input   66.30 | X-H torsion
[ 10763 10752 10751 10750 ] final -105.93 input  -60.55 | X-H torsion
[ 11005 11000 10999 10996 ] final  -47.48 input  -57.11 | X-H torsion

> <Gold.Protein.ActiveResidues>
 VAL166  LYS551  ARG553  GLY616  TRP617  ASP618  TYR619  PRO620  LYS621  CYS622 
 ASP623  PHE694  ASN695  SER759  ASP760  ASP761  ALA762  ILE779  LEU786  VAL792 
 PHE793  MET794  SER795  GLU796  ALA797  LYS798  CYS799  TRP800  GLU811  SER814 

> <Gold.Protein.RotatedAtoms>
  150.8925  133.7224  159.2900 H   0  0  0  0  0  0  0  0  0  0  0  0  # atno 6907 bound_to 6896
  151.4770  135.1048  159.9777 H   0  0  0  0  0  0  0  0  0  0  0  0  # atno 6908 bound_to 6896
  152.4829  133.8251  159.7129 H   0  0  0  0  0  0  0  0  0  0  0  0  # atno 6909 bound_to 6896
  145.3829  140.9519  143.2383 H   0  0  0  0  0  0  0  0  0  0  0  0  # atno 7974 bound_to 7965
  155.8733  140.3448  155.5836 H   0  0  0  0  0  0  0  0  0  0  0  0  # atno 8008 bound_to 7997
  155.7803  140.0857  157.2082 H   0  0  0  0  0  0  0  0  0  0  0  0  # atno 8009 bound_to 7997
  154.4019  140.1502  156.3032 H   0  0  0  0  0  0  0  0  0  0  0  0  # atno 8010 bound_to 7997
  139.5067  144.6271  151.5910 H   0  0  0  0  0  0  0  0  0  0  0  0  # atno 10167 bound_to 10162
  157.6188  131.1019  150.7408 H   0  0  0  0  0  0  0  0  0  0  0  0  # atno 10718 bound_to 10713
  154.7979  135.4731  154.0205 H   0  0  0  0  0  0  0  0  0  0  0  0  # atno 10763 bound_to 10752
  153.1733  135.6828  153.8584 H   0  0  0  0  0  0  0  0  0  0  0  0  # atno 10764 bound_to 10752
  153.8159  135.3210  155.3383 H   0  0  0  0  0  0  0  0  0  0  0  0  # atno 10765 bound_to 10752
  141.0643  133.6699  156.3304 H   0  0  0  0  0  0  0  0  0  0  0  0  # atno 11005 bound_to 11000
  144.8494  139.5345  143.6863 LP  0  0  0  0  0  0  0  0  0  0  0  0  # atno 17320 bound_to 7965
  146.2833  139.6937  142.9213 LP  0  0  0  0  0  0  0  0  0  0  0  0  # atno 17321 bound_to 7965
  140.5991  143.9641  150.6374 LP  0  0  0  0  0  0  0  0  0  0  0  0  # atno 17342 bound_to 10162
  140.2847  143.3365  152.1118 LP  0  0  0  0  0  0  0  0  0  0  0  0  # atno 17343 bound_to 10162
  156.7770  130.4847  149.5408 LP  0  0  0  0  0  0  0  0  0  0  0  0  # atno 17370 bound_to 10713
  156.1323  130.6187  151.0351 LP  0  0  0  0  0  0  0  0  0  0  0  0  # atno 17371 bound_to 10713
  140.5805  134.5750  157.5478 LP  0  0  0  0  0  0  0  0  0  0  0  0  # atno 17394 bound_to 11000
  139.9462  134.7698  156.0557 LP  0  0  0  0  0  0  0  0  0  0  0  0  # atno 17395 bound_to 11000

$$$$
