AV-unprocessed.smi:1283|AV-procd|sdf|5361|dock2
  -GOLD-   22720 4503D 1   1.00000     0.00000
 Structure written by MMmdl.
 30 31  0  0  0  0  0  0  0  0  1 V2000
  152.5943  137.9260  155.6674 C   0  0  0  0  0  0  0  0  0  0  0  0
  151.6362  139.0233  155.5393 N   0  0  0  0  0  0  0  0  0  0  0  0
  150.6965  138.8512  154.5449 N   0  0  0  0  0  0  0  0  0  0  0  0
  149.8062  139.7620  154.3507 C   0  0  0  0  0  0  0  0  0  0  0  0
  149.7449  140.9859  155.1363 C   0  0  0  0  0  0  0  0  0  0  0  0
  148.7861  141.9700  154.9285 N   0  0  0  0  0  0  0  0  0  0  0  0
  147.7063  142.0010  153.9533 C   0  0  0  0  0  0  0  0  0  0  0  0
  146.3494  142.2114  154.6371 C   0  0  2  0  0  0  0  0  0  0  0  0
  145.5507  143.3843  154.0708 C   0  0  0  0  0  0  0  0  0  0  0  0
  144.6663  143.8117  155.2328 C   0  0  0  0  0  0  0  0  0  0  0  0
  145.2751  143.1033  156.4463 C   0  0  0  0  0  0  0  0  0  0  0  0
  146.5222  142.5992  155.9907 O   0  0  0  0  0  0  0  0  0  0  0  0
  150.6792  141.1231  156.1161 C   0  0  0  0  0  0  0  0  0  0  0  0
  150.6957  142.5370  157.1171 Cl  0  0  0  0  0  0  0  0  0  0  0  0
  151.7086  140.1040  156.3681 C   0  0  0  0  0  0  0  0  0  0  0  0
  152.5670  140.2032  157.2459 O   0  0  0  0  0  0  0  0  0  0  0  0
  152.5252  137.4697  156.6559 H   0  0  0  0  0  0  0  0  0  0  0  0
  153.6140  138.2871  155.5274 H   0  0  0  0  0  0  0  0  0  0  0  0
  152.4204  137.1409  154.9297 H   0  0  0  0  0  0  0  0  0  0  0  0
  149.0464  139.6452  153.5793 H   0  0  0  0  0  0  0  0  0  0  0  0
  148.9574  142.8564  155.3819 H   0  0  0  0  0  0  0  0  0  0  0  0
  147.8597  142.7841  153.2117 H   0  0  0  0  0  0  0  0  0  0  0  0
  147.7090  141.0504  153.4194 H   0  0  0  0  0  0  0  0  0  0  0  0
  145.7489  141.3005  154.5936 H   0  0  0  0  0  0  0  0  0  0  0  0
  146.2205  144.2030  153.8039 H   0  0  0  0  0  0  0  0  0  0  0  0
  144.9819  143.1134  153.1811 H   0  0  0  0  0  0  0  0  0  0  0  0
  144.6803  144.8957  155.3513 H   0  0  0  0  0  0  0  0  0  0  0  0
  143.6308  143.5034  155.0853 H   0  0  0  0  0  0  0  0  0  0  0  0
  145.4071  143.7691  157.2992 H   0  0  0  0  0  0  0  0  0  0  0  0
  144.6452  142.2696  156.7597 H   0  0  0  0  0  0  0  0  0  0  0  0
  1  2  1  0  0  0  0
  1 17  1  0  0  0  0
  1 18  1  0  0  0  0
  1 19  1  0  0  0  0
  2 15  1  0  0  0  0
  2  3  1  0  0  0  0
  3  4  2  0  0  0  0
  4  5  1  0  0  0  0
  4 20  1  0  0  0  0
  5  6  1  0  0  0  0
  5 13  2  0  0  0  0
  6  7  1  0  0  0  0
  6 21  1  0  0  0  0
  7  8  1  0  0  0  0
  7 22  1  0  0  0  0
  7 23  1  0  0  0  0
  8 12  1  0  0  0  0
  8  9  1  0  0  0  0
  8 24  1  0  0  0  0
  9 10  1  0  0  0  0
  9 25  1  0  0  0  0
  9 26  1  0  0  0  0
 10 11  1  0  0  0  0
 10 27  1  0  0  0  0
 10 28  1  0  0  0  0
 11 12  1  0  0  0  0
 11 29  1  0  0  0  0
 11 30  1  0  0  0  0
 13 14  1  0  0  0  0
 13 15  1  0  0  0  0
 15 16  2  0  0  0  0
M  END
> <s_m_source_file>
AV-unprocessed.smi

> <i_m_source_file_index>
1283

> <i_lp_mmshare_version>
43012

> <i_f3d_flags>
0

> <s_epik_input>
W0NIM11uMW5bY0hdYyhjKENsKWMxPU8pW05IXVtDSDJdW0NAQEhdMltDSDJdW0NIMl1bQ0gyXU8y

> <s_epik_cmdline>
J2VwaWtfcHl0aG9uJywgJy1waCcsICc3LjAnLCAnLXRuJywgJzgnLCAnLW1hJywgJzIwMCcsICctbWV0YWxfYmluZGluZycsICctaW1hZScsICc8aW5maWxlLm1hZT4nLCAnLW9tYWUnLCAnPG91dGZpbGUubWFlPic=

> <r_lp_tautomer_probability>
1

> <r_epik_Ionization_Penalty>
2.40876e-05

> <r_epik_Ionization_Penalty_Charging>
4.17655e-09

> <r_epik_Ionization_Penalty_Neutral>
2.40834e-05

> <r_epik_State_Penalty>
-0

> <r_epik_Charging_Adjusted_Penalty>
4.17655e-09

> <i_epik_Tot_Q>
0

> <i_epik_Tot_abs_Q>
0

> <r_epik_Metal_State_Penalty>
-0

> <b_epik_Metal_Only>
0

> <s_lp_Force_Field>
OPLS_2005

> <r_lp_Energy>
38.2243

> <b_lp_Chiralities_Consistent>
1

> <s_lp_Variant>
AV-unprocessed.smi:1283-1

> <Gold.Version>
5.8.1

> <Gold.Id.Protein>
6NUR|6NUR_protein|mol2

> <Gold.PLP.Fitness>
38.7204

> <Gold.PLP.PLP>
-31.5577

> <Gold.PLP.part.hbond>
-2.0000

> <Gold.PLP.part.metal>
0.0000

> <Gold.PLP.part.buried>
-2.6582

> <Gold.PLP.part.nonpolar>
-27.6905

> <Gold.PLP.part.repulsive>
0.4994

> <Gold.PLP.ligand.clash>
0.0000

> <Gold.PLP.ligand.torsion>
0.7137

> <Gold.PLP.Chemscore.Hbond>
2.0000

> <Gold.PLP.Chemscore.CHOScore>
0.8605

> <Gold.PLP.Chemscore.Metal>
0.0000

> <Gold.Chemscore.Hbonds>
donor molecule, donor type, donor heavy atom, donor atom, acceptor molecule, acceptor atom, score
      L1  H     6    21       P1  8028  1.00
      P1  H  7997  8008       L1    16  1.00
      L1  C     4    20       P1  7957  0.81

> <Gold.PLP.Chemscore.Internal.Correction>
0.0088

> <Gold.Rescore>
     Score         DG    S(hbond)    S(metal)    S(lipo)     H(rot)  DE(clash)    DE(int)     intcor
     15.30     -16.04       1.92        0.00      62.08       1.22       0.02       0.72       ----

> <Gold.Chemscore.Fitness>
15.2968

> <Gold.Chemscore.DG>
-16.0360

> <Gold.Chemscore.ZeroCoef>
-5.4800

> <Gold.Chemscore.Hbond>
1.9217

> <Gold.Chemscore.Metal>
0.0000

> <Gold.Chemscore.Lipo>
62.0768

> <Gold.Chemscore.Internal_Hbond>
0.0000

> <Gold.Chemscore.DEClash>
0.0164

> <Gold.Chemscore.DEInternal>
0.7228

> <Gold.Chemscore.Rot>
1.2208

> <Gold.Chemscore.Internal.Correction>
   9.000000E+99

> <Gold.Chemscore.Hbonds>
donor molecule, donor type, donor heavy atom, donor atom, acceptor molecule, acceptor atom, score
      L1  H     6    21       P1  8028  0.99
      P1  H  7997  8008       L1    16  0.91

> <Gold.Chemscore.Hbond.Weighted>
-6.4183

> <Gold.Chemscore.Metal.Weighted>
-0.0000

> <Gold.Chemscore.Lipo.Weighted>
-7.2630

> <Gold.Chemscore.Internal_Hbond.Weighted>
0.0000

> <Gold.Chemscore.DEClash.Weighted>
0.0164

> <Gold.Chemscore.DEInternal.Weighted>
0.7228

> <Gold.Chemscore.Rot.Weighted>
3.1253

> <Gold.Chemscore.Internal.Correction.Weighted>
   9.000000E+99

> <Gold.Protein.RotatedTorsions>
[ 6907 6896 6895 6894 ] final -163.58 input  -60.11 | X-H torsion
[ 7974 7965 7964 7962 ] final   78.08 input  175.53 | X-H torsion
[ 8008 7997 7996 7995 ] final  -65.68 input   59.86 | X-H torsion
[ 10167 10162 10161 10158 ] final -123.99 input  -65.29 | X-H torsion
[ 10718 10713 10712 10709 ] final   82.79 input   66.30 | X-H torsion
[ 10763 10752 10751 10750 ] final   49.99 input  -60.55 | X-H torsion
[ 11005 11000 10999 10996 ] final -162.69 input  -57.11 | X-H torsion

> <Gold.Protein.ActiveResidues>
 VAL166  LYS551  ARG553  GLY616  TRP617  ASP618  TYR619  PRO620  LYS621  CYS622 
 ASP623  PHE694  ASN695  SER759  ASP760  ASP761  ALA762  ILE779  LEU786  VAL792 
 PHE793  MET794  SER795  GLU796  ALA797  LYS798  CYS799  TRP800  GLU811  SER814 

> <Gold.Protein.RotatedAtoms>
  151.3983  133.3766  159.2728 H   0  0  0  0  0  0  0  0  0  0  0  0  # atno 6907 bound_to 6896
  150.9453  134.8859  159.7648 H   0  0  0  0  0  0  0  0  0  0  0  0  # atno 6908 bound_to 6896
  152.5089  134.3936  159.9444 H   0  0  0  0  0  0  0  0  0  0  0  0  # atno 6909 bound_to 6896
  145.6818  139.2526  143.1810 H   0  0  0  0  0  0  0  0  0  0  0  0  # atno 7974 bound_to 7965
  154.4687  140.0928  156.7088 H   0  0  0  0  0  0  0  0  0  0  0  0  # atno 8008 bound_to 7997
  155.4785  140.3467  155.4318 H   0  0  0  0  0  0  0  0  0  0  0  0  # atno 8009 bound_to 7997
  156.1001  140.1420  156.9467 H   0  0  0  0  0  0  0  0  0  0  0  0  # atno 8010 bound_to 7997
  139.9976  143.5575  152.2317 H   0  0  0  0  0  0  0  0  0  0  0  0  # atno 10167 bound_to 10162
  157.6865  131.0063  150.2427 H   0  0  0  0  0  0  0  0  0  0  0  0  # atno 10718 bound_to 10713
  152.9785  135.5894  154.4179 H   0  0  0  0  0  0  0  0  0  0  0  0  # atno 10763 bound_to 10752
  154.3807  135.2767  155.2215 H   0  0  0  0  0  0  0  0  0  0  0  0  # atno 10764 bound_to 10752
  154.4130  135.6077  153.6018 H   0  0  0  0  0  0  0  0  0  0  0  0  # atno 10765 bound_to 10752
  140.6064  134.4894  157.5211 H   0  0  0  0  0  0  0  0  0  0  0  0  # atno 11005 bound_to 11000
  146.0957  140.7603  142.9573 LP  0  0  0  0  0  0  0  0  0  0  0  0  # atno 17320 bound_to 7965
  144.7024  140.3708  143.7145 LP  0  0  0  0  0  0  0  0  0  0  0  0  # atno 17321 bound_to 7965
  139.6295  144.7642  151.2566 LP  0  0  0  0  0  0  0  0  0  0  0  0  # atno 17342 bound_to 10162
  140.7431  143.6504  150.8253 LP  0  0  0  0  0  0  0  0  0  0  0  0  # atno 17343 bound_to 10162
  156.3038  130.3762  149.7725 LP  0  0  0  0  0  0  0  0  0  0  0  0  # atno 17370 bound_to 10713
  156.5346  130.8273  151.3249 LP  0  0  0  0  0  0  0  0  0  0  0  0  # atno 17371 bound_to 10713
  139.9210  134.8148  156.1211 LP  0  0  0  0  0  0  0  0  0  0  0  0  # atno 17394 bound_to 11000
  141.0838  133.6743  156.2391 LP  0  0  0  0  0  0  0  0  0  0  0  0  # atno 17395 bound_to 11000

$$$$
