AV-unprocessed.smi:2510|AV-procd|sdf|9875|dock9
  -GOLD-   2272013503D 1   1.00000     0.00000
 Structure written by MMmdl.
 48 49  0  0  0  0  0  0  0  0  1 V2000
  150.7617  138.8846  158.3030 C   0  0  0  0  0  0  0  0  0  0  0  0
  149.5947  138.2951  157.4925 C   0  0  0  0  0  0  0  0  0  0  0  0
  149.6860  138.4041  155.9509 C   0  0  0  0  0  0  0  0  0  0  0  0
  151.0515  137.7861  155.5337 C   0  0  0  0  0  0  0  0  0  0  0  0
  151.4844  138.0044  154.0714 C   0  0  0  0  0  0  0  0  0  0  0  0
  148.4540  137.9165  155.1312 C   0  0  2  0  0  0  0  0  0  0  0  0
  148.6253  136.6050  154.5134 N   0  0  0  0  0  0  0  0  0  0  0  0
  148.2670  135.4414  155.0744 C   0  0  0  0  0  0  0  0  0  0  0  0
  147.7620  135.3649  156.1958 O   0  0  0  0  0  0  0  0  0  0  0  0
  148.5226  134.1903  154.2240 C   0  0  0  0  0  0  0  0  0  0  0  0
  147.2510  133.6108  153.6595 C   0  0  0  0  0  0  0  0  0  0  0  0
  146.9352  133.3563  152.2918 C   0  0  0  0  0  0  0  0  0  0  0  0
  145.6725  132.8358  152.3275 C   0  0  0  0  0  0  0  0  0  0  0  0
  144.7706  132.3603  151.2403 C   0  0  0  0  0  0  0  0  0  0  0  0
  145.3056  132.8079  153.6531 N   0  0  0  0  0  0  0  0  0  0  0  0
  146.2586  133.2830  154.4760 N   0  0  0  0  0  0  0  0  0  0  0  0
  148.6601  139.0761  154.1478 C   0  0  1  0  0  0  0  0  0  0  0  0
  147.4395  139.6961  153.4784 C   0  0  0  0  0  0  0  0  0  0  0  0
  149.3281  139.7878  155.3357 C   0  0  2  0  0  0  0  0  0  0  0  0
  150.4621  140.5707  154.9959 O   0  0  0  0  0  0  0  0  0  0  0  0
  151.0108  141.2786  156.0937 C   0  0  0  0  0  0  0  0  0  0  0  0
  144.4201  132.4730  154.0055 H   0  0  0  0  0  0  0  0  0  0  0  0
  150.6376  138.6582  159.3621 H   0  0  0  0  0  0  0  0  0  0  0  0
  150.8051  139.9702  158.2155 H   0  0  0  0  0  0  0  0  0  0  0  0
  151.7241  138.4765  157.9967 H   0  0  0  0  0  0  0  0  0  0  0  0
  149.5115  137.2446  157.7724 H   0  0  0  0  0  0  0  0  0  0  0  0
  148.6789  138.7683  157.8493 H   0  0  0  0  0  0  0  0  0  0  0  0
  151.8437  138.1787  156.1723 H   0  0  0  0  0  0  0  0  0  0  0  0
  151.0504  136.7113  155.7156 H   0  0  0  0  0  0  0  0  0  0  0  0
  152.4074  137.4616  153.8671 H   0  0  0  0  0  0  0  0  0  0  0  0
  151.6822  139.0545  153.8580 H   0  0  0  0  0  0  0  0  0  0  0  0
  150.7400  137.6527  153.3591 H   0  0  0  0  0  0  0  0  0  0  0  0
  147.5032  138.0283  155.6539 H   0  0  0  0  0  0  0  0  0  0  0  0
  149.0350  136.5841  153.5906 H   0  0  0  0  0  0  0  0  0  0  0  0
  149.2160  134.4468  153.4218 H   0  0  0  0  0  0  0  0  0  0  0  0
  149.0262  133.4452  154.8408 H   0  0  0  0  0  0  0  0  0  0  0  0
  147.5471  133.5279  151.4186 H   0  0  0  0  0  0  0  0  0  0  0  0
  145.2276  132.5097  150.2618 H   0  0  0  0  0  0  0  0  0  0  0  0
  143.8250  132.9024  151.2566 H   0  0  0  0  0  0  0  0  0  0  0  0
  144.5555  131.2976  151.3531 H   0  0  0  0  0  0  0  0  0  0  0  0
  149.4141  138.8135  153.4034 H   0  0  0  0  0  0  0  0  0  0  0  0
  146.7080  140.0309  154.2142 H   0  0  0  0  0  0  0  0  0  0  0  0
  146.9431  138.9779  152.8259 H   0  0  0  0  0  0  0  0  0  0  0  0
  147.7109  140.5558  152.8671 H   0  0  0  0  0  0  0  0  0  0  0  0
  148.6109  140.3415  155.9443 H   0  0  0  0  0  0  0  0  0  0  0  0
  151.9101  141.8043  155.7733 H   0  0  0  0  0  0  0  0  0  0  0  0
  151.2877  140.6027  156.9038 H   0  0  0  0  0  0  0  0  0  0  0  0
  150.3124  142.0215  156.4774 H   0  0  0  0  0  0  0  0  0  0  0  0
  1  2  1  0  0  0  0
  1 23  1  0  0  0  0
  1 24  1  0  0  0  0
  1 25  1  0  0  0  0
  2  3  1  0  0  0  0
  2 26  1  0  0  0  0
  2 27  1  0  0  0  0
  3 19  1  0  0  0  0
  3  4  1  0  0  0  0
  3  6  1  0  0  0  0
  4  5  1  0  0  0  0
  4 28  1  0  0  0  0
  4 29  1  0  0  0  0
  5 30  1  0  0  0  0
  5 31  1  0  0  0  0
  5 32  1  0  0  0  0
  6  7  1  0  0  0  0
  6 17  1  0  0  0  0
  6 33  1  0  0  0  0
  7  8  1  0  0  0  0
  7 34  1  0  0  0  0
  8  9  2  0  0  0  0
  8 10  1  0  0  0  0
 10 11  1  0  0  0  0
 10 35  1  0  0  0  0
 10 36  1  0  0  0  0
 11 16  2  0  0  0  0
 11 12  1  0  0  0  0
 12 13  2  0  0  0  0
 12 37  1  0  0  0  0
 13 14  1  0  0  0  0
 13 15  1  0  0  0  0
 14 38  1  0  0  0  0
 14 39  1  0  0  0  0
 14 40  1  0  0  0  0
 15 22  1  0  0  0  0
 15 16  1  0  0  0  0
 17 18  1  0  0  0  0
 17 19  1  0  0  0  0
 17 41  1  0  0  0  0
 18 42  1  0  0  0  0
 18 43  1  0  0  0  0
 18 44  1  0  0  0  0
 19 20  1  0  0  0  0
 19 45  1  0  0  0  0
 20 21  1  0  0  0  0
 21 46  1  0  0  0  0
 21 47  1  0  0  0  0
 21 48  1  0  0  0  0
M  END
> <s_m_source_file>
AV-unprocessed.smi

> <i_m_source_file_index>
2510

> <i_lp_mmshare_version>
43012

> <i_f3d_flags>
0

> <s_epik_input>
W0NIM11PW0NAQEhdMVtDQEhdKFtDSDNdKVtDQEBIXShDMShbQ0gyXVtDSDNdKVtDSDJdW0NIM10pW05IXUMoPU8pW0NIMl1jMltjSF1jKFtDSDNdKVtuSF1uMg==

> <s_epik_cmdline>
J2VwaWtfcHl0aG9uJywgJy1waCcsICc3LjAnLCAnLXRuJywgJzgnLCAnLW1hJywgJzIwMCcsICctbWV0YWxfYmluZGluZycsICctaW1hZScsICc8aW5maWxlLm1hZT4nLCAnLW9tYWUnLCAnPG91dGZpbGUubWFlPic=

> <r_lp_tautomer_probability>
0.5

> <r_epik_Ionization_Penalty>
9.73156e-05

> <r_epik_Ionization_Penalty_Charging>
0

> <r_epik_Ionization_Penalty_Neutral>
9.73156e-05

> <r_epik_State_Penalty>
0.41068

> <r_epik_Charging_Adjusted_Penalty>
0.41068

> <i_epik_Tot_Q>
0

> <i_epik_Tot_abs_Q>
0

> <r_epik_Metal_State_Penalty>
0.410699

> <b_epik_Metal_Only>
0

> <s_lp_Force_Field>
OPLS_2005

> <r_lp_Energy>
28.5674

> <b_lp_Chiralities_Consistent>
1

> <s_lp_Variant>
AV-unprocessed.smi:2510-6

> <Gold.Version>
5.8.1

> <Gold.Id.Protein>
6NUR|6NUR_protein|mol2

> <Gold.PLP.Fitness>
34.5246

> <Gold.PLP.PLP>
-26.6444

> <Gold.PLP.part.hbond>
-2.9744

> <Gold.PLP.part.metal>
0.0000

> <Gold.PLP.part.buried>
-3.8166

> <Gold.PLP.part.nonpolar>
-19.6949

> <Gold.PLP.part.repulsive>
0.1756

> <Gold.PLP.ligand.clash>
0.0000

> <Gold.PLP.ligand.torsion>
0.7890

> <Gold.PLP.Chemscore.Hbond>
2.9600

> <Gold.PLP.Chemscore.CHOScore>
0.0000

> <Gold.PLP.Chemscore.Metal>
0.0000

> <Gold.Chemscore.Hbonds>
donor molecule, donor type, donor heavy atom, donor atom, acceptor molecule, acceptor atom, score
      L1  H     7    34       P1  7948  1.00
      L1  H    15    22       P1 10957  0.99
      P1  H  7989  7998       L1    20  0.96

> <Gold.PLP.Chemscore.Internal.Correction>
0.5782

> <Gold.Rescore>
     Score         DG    S(hbond)    S(metal)    S(lipo)     H(rot)  DE(clash)    DE(int)     intcor
     15.37     -18.31       2.73        0.00      71.49       1.81       0.03       2.92       ----

> <Gold.Chemscore.Fitness>
15.3700

> <Gold.Chemscore.DG>
-18.3125

> <Gold.Chemscore.ZeroCoef>
-5.4800

> <Gold.Chemscore.Hbond>
2.7252

> <Gold.Chemscore.Metal>
0.0000

> <Gold.Chemscore.Lipo>
71.4902

> <Gold.Chemscore.Internal_Hbond>
0.0000

> <Gold.Chemscore.DEClash>
0.0270

> <Gold.Chemscore.DEInternal>
2.9155

> <Gold.Chemscore.Rot>
1.8102

> <Gold.Chemscore.Internal.Correction>
   9.000000E+99

> <Gold.Chemscore.Hbonds>
donor molecule, donor type, donor heavy atom, donor atom, acceptor molecule, acceptor atom, score
      L1  H     7    34       P1  7948  0.96
      L1  H    15    22       P1 10957  0.47
      P1  H  7989  7998       L1    20  0.55

> <Gold.Chemscore.Hbond.Weighted>
-9.1023

> <Gold.Chemscore.Metal.Weighted>
-0.0000

> <Gold.Chemscore.Lipo.Weighted>
-8.3644

> <Gold.Chemscore.Internal_Hbond.Weighted>
0.0000

> <Gold.Chemscore.DEClash.Weighted>
0.0270

> <Gold.Chemscore.DEInternal.Weighted>
2.9155

> <Gold.Chemscore.Rot.Weighted>
4.6341

> <Gold.Chemscore.Internal.Correction.Weighted>
   9.000000E+99

> <Gold.Protein.RotatedTorsions>
[ 6907 6896 6895 6894 ] final -160.14 input  -60.11 | X-H torsion
[ 7974 7965 7964 7962 ] final  179.52 input  175.53 | X-H torsion
[ 8008 7997 7996 7995 ] final   58.80 input   59.86 | X-H torsion
[ 10167 10162 10161 10158 ] final -153.45 input  -65.29 | X-H torsion
[ 10718 10713 10712 10709 ] final  -96.19 input   66.30 | X-H torsion
[ 10763 10752 10751 10750 ] final  -67.32 input  -60.55 | X-H torsion
[ 11005 11000 10999 10996 ] final    0.87 input  -57.11 | X-H torsion

> <Gold.Protein.ActiveResidues>
 VAL166  LYS551  ARG553  GLY616  TRP617  ASP618  TYR619  PRO620  LYS621  CYS622 
 ASP623  PHE694  ASN695  SER759  ASP760  ASP761  ALA762  ILE779  LEU786  VAL792 
 PHE793  MET794  SER795  GLU796  ALA797  LYS798  CYS799  TRP800  GLU811  SER814 

> <Gold.Protein.RotatedAtoms>
  151.3445  133.3949  159.2674 H   0  0  0  0  0  0  0  0  0  0  0  0  # atno 6907 bound_to 6896
  150.9851  134.9199  159.7877 H   0  0  0  0  0  0  0  0  0  0  0  0  # atno 6908 bound_to 6896
  152.5229  134.3409  159.9269 H   0  0  0  0  0  0  0  0  0  0  0  0  # atno 6909 bound_to 6896
  144.7145  140.0560  143.6434 H   0  0  0  0  0  0  0  0  0  0  0  0  # atno 7974 bound_to 7965
  155.5559  140.3487  155.4479 H   0  0  0  0  0  0  0  0  0  0  0  0  # atno 8008 bound_to 7997
  156.0549  140.1326  157.0033 H   0  0  0  0  0  0  0  0  0  0  0  0  # atno 8009 bound_to 7997
  154.4452  140.0997  156.6416 H   0  0  0  0  0  0  0  0  0  0  0  0  # atno 8010 bound_to 7997
  139.7096  143.9131  152.2462 H   0  0  0  0  0  0  0  0  0  0  0  0  # atno 10167 bound_to 10162
  156.0057  130.5141  150.6188 H   0  0  0  0  0  0  0  0  0  0  0  0  # atno 10718 bound_to 10713
  154.3727  135.6091  153.5749 H   0  0  0  0  0  0  0  0  0  0  0  0  # atno 10763 bound_to 10752
  152.9790  135.5842  154.4502 H   0  0  0  0  0  0  0  0  0  0  0  0  # atno 10764 bound_to 10752
  154.4259  135.2847  155.1922 H   0  0  0  0  0  0  0  0  0  0  0  0  # atno 10765 bound_to 10752
  140.6217  133.9655  155.8228 H   0  0  0  0  0  0  0  0  0  0  0  0  # atno 11005 bound_to 11000
  145.9904  139.3010  143.0988 LP  0  0  0  0  0  0  0  0  0  0  0  0  # atno 17320 bound_to 7965
  145.8909  140.9304  143.0552 LP  0  0  0  0  0  0  0  0  0  0  0  0  # atno 17321 bound_to 7965
  139.8996  144.6919  150.8680 LP  0  0  0  0  0  0  0  0  0  0  0  0  # atno 17342 bound_to 10162
  140.7730  143.3524  151.1988 LP  0  0  0  0  0  0  0  0  0  0  0  0  # atno 17343 bound_to 10162
  157.4007  131.0809  151.1311 LP  0  0  0  0  0  0  0  0  0  0  0  0  # atno 17370 bound_to 10713
  157.1973  130.6379  149.5726 LP  0  0  0  0  0  0  0  0  0  0  0  0  # atno 17371 bound_to 10713
  141.0738  134.0166  157.3488 LP  0  0  0  0  0  0  0  0  0  0  0  0  # atno 17394 bound_to 11000
  139.9151  135.0195  156.7847 LP  0  0  0  0  0  0  0  0  0  0  0  0  # atno 17395 bound_to 11000

$$$$
