AV-unprocessed.smi:1751|AV-procd|sdf|7056|dock5
  -GOLD-   22720 8273D 1   1.00000     0.00000
 Structure written by MMmdl.
 35 36  0  0  0  0  0  0  0  0  1 V2000
  154.5274  140.7018  161.0640 C   0  0  0  0  0  0  0  0  0  0  0  0
  153.9387  141.9806  160.8537 O   0  0  0  0  0  0  0  0  0  0  0  0
  153.0401  142.1253  159.8164 C   0  0  0  0  0  0  0  0  0  0  0  0
  152.4434  143.3851  159.6125 C   0  0  0  0  0  0  0  0  0  0  0  0
  151.5239  143.5368  158.5576 C   0  0  0  0  0  0  0  0  0  0  0  0
  151.2198  142.4262  157.7452 C   0  0  0  0  0  0  0  0  0  0  0  0
  150.2993  142.6109  156.6788 N   0  0  0  0  0  0  0  0  0  0  0  0
  149.7512  141.6789  155.8806 C   0  0  0  0  0  0  0  0  0  0  0  0
  149.9574  140.4676  155.9536 O   0  0  0  0  0  0  0  0  0  0  0  0
  148.9153  142.2333  154.9920 N   0  0  0  0  0  0  0  0  0  0  0  0
  148.1230  141.4946  154.0154 C   0  0  0  0  0  0  0  0  0  0  0  0
  146.6268  141.8286  154.1348 C   0  0  2  0  0  0  0  0  0  0  0  0
  146.2731  143.2424  153.6773 C   0  0  0  0  0  0  0  0  0  0  0  0
  144.9942  143.4960  154.4413 C   0  0  0  0  0  0  0  0  0  0  0  0
  145.2954  142.8291  155.7802 C   0  0  0  0  0  0  0  0  0  0  0  0
  146.2049  141.7686  155.4958 O   0  0  0  0  0  0  0  0  0  0  0  0
  151.8827  141.2058  158.0217 C   0  0  0  0  0  0  0  0  0  0  0  0
  152.7674  141.0545  159.0304 N   0  0  0  0  0  0  0  0  0  0  0  0
  155.2070  140.7530  161.9144 H   0  0  0  0  0  0  0  0  0  0  0  0
  155.1070  140.3818  160.1968 H   0  0  0  0  0  0  0  0  0  0  0  0
  153.7726  139.9470  161.2891 H   0  0  0  0  0  0  0  0  0  0  0  0
  152.6863  144.2194  160.2537 H   0  0  0  0  0  0  0  0  0  0  0  0
  151.0553  144.4940  158.3809 H   0  0  0  0  0  0  0  0  0  0  0  0
  149.9668  143.5556  156.5516 H   0  0  0  0  0  0  0  0  0  0  0  0
  148.7986  143.2359  155.0066 H   0  0  0  0  0  0  0  0  0  0  0  0
  148.4844  141.7452  153.0177 H   0  0  0  0  0  0  0  0  0  0  0  0
  148.2828  140.4226  154.1427 H   0  0  0  0  0  0  0  0  0  0  0  0
  146.0273  141.1162  153.5658 H   0  0  0  0  0  0  0  0  0  0  0  0
  147.0400  143.9534  153.9880 H   0  0  0  0  0  0  0  0  0  0  0  0
  146.1494  143.3211  152.5968 H   0  0  0  0  0  0  0  0  0  0  0  0
  144.7508  144.5544  154.5362 H   0  0  0  0  0  0  0  0  0  0  0  0
  144.1594  142.9944  153.9499 H   0  0  0  0  0  0  0  0  0  0  0  0
  145.7867  143.5320  156.4541 H   0  0  0  0  0  0  0  0  0  0  0  0
  144.3947  142.4612  156.2720 H   0  0  0  0  0  0  0  0  0  0  0  0
  151.7304  140.3235  157.4199 H   0  0  0  0  0  0  0  0  0  0  0  0
  1  2  1  0  0  0  0
  1 19  1  0  0  0  0
  1 20  1  0  0  0  0
  1 21  1  0  0  0  0
  2  3  1  0  0  0  0
  3 18  1  0  0  0  0
  3  4  2  0  0  0  0
  4  5  1  0  0  0  0
  4 22  1  0  0  0  0
  5  6  2  0  0  0  0
  5 23  1  0  0  0  0
  6  7  1  0  0  0  0
  6 17  1  0  0  0  0
  7  8  1  0  0  0  0
  7 24  1  0  0  0  0
  8  9  2  0  0  0  0
  8 10  1  0  0  0  0
 10 11  1  0  0  0  0
 10 25  1  0  0  0  0
 11 12  1  0  0  0  0
 11 26  1  0  0  0  0
 11 27  1  0  0  0  0
 12 16  1  0  0  0  0
 12 13  1  0  0  0  0
 12 28  1  0  0  0  0
 13 14  1  0  0  0  0
 13 29  1  0  0  0  0
 13 30  1  0  0  0  0
 14 15  1  0  0  0  0
 14 31  1  0  0  0  0
 14 32  1  0  0  0  0
 15 16  1  0  0  0  0
 15 33  1  0  0  0  0
 15 34  1  0  0  0  0
 17 18  2  0  0  0  0
 17 35  1  0  0  0  0
M  END
> <s_m_source_file>
AV-unprocessed.smi

> <i_m_source_file_index>
1751

> <i_lp_mmshare_version>
43012

> <i_f3d_flags>
0

> <s_epik_input>
W0NIM11PYzFbY0hdW2NIXWMoW2NIXW4xKVtOSF1DKD1PKVtOSF1bQ0gyXVtDQEBIXTJbQ0gyXVtDSDJdW0NIMl1PMg==

> <s_epik_cmdline>
J2VwaWtfcHl0aG9uJywgJy1waCcsICc3LjAnLCAnLXRuJywgJzgnLCAnLW1hJywgJzIwMCcsICctbWV0YWxfYmluZGluZycsICctaW1hZScsICc8aW5maWxlLm1hZT4nLCAnLW9tYWUnLCAnPG91dGZpbGUubWFlPic=

> <r_lp_tautomer_probability>
1

> <r_epik_Ionization_Penalty>
9.01694e-05

> <r_epik_Ionization_Penalty_Charging>
0

> <r_epik_Ionization_Penalty_Neutral>
9.01694e-05

> <r_epik_State_Penalty>
-0

> <r_epik_Charging_Adjusted_Penalty>
0

> <i_epik_Tot_Q>
0

> <i_epik_Tot_abs_Q>
0

> <r_epik_Metal_State_Penalty>
-0

> <b_epik_Metal_Only>
0

> <s_lp_Force_Field>
OPLS_2005

> <r_lp_Energy>
19.4373

> <b_lp_Chiralities_Consistent>
1

> <s_lp_Variant>
AV-unprocessed.smi:1751-1

> <Gold.Version>
5.8.1

> <Gold.Id.Protein>
6NUR|6NUR_protein|mol2

> <Gold.PLP.Fitness>
43.2771

> <Gold.PLP.PLP>
-37.4796

> <Gold.PLP.part.hbond>
-2.2458

> <Gold.PLP.part.metal>
0.0000

> <Gold.PLP.part.buried>
-4.8792

> <Gold.PLP.part.nonpolar>
-30.3954

> <Gold.PLP.part.repulsive>
0.4056

> <Gold.PLP.ligand.clash>
0.0000

> <Gold.PLP.ligand.torsion>
0.0945

> <Gold.PLP.Chemscore.Hbond>
1.9920

> <Gold.PLP.Chemscore.CHOScore>
0.0000

> <Gold.PLP.Chemscore.Metal>
0.0000

> <Gold.Chemscore.Hbonds>
donor molecule, donor type, donor heavy atom, donor atom, acceptor molecule, acceptor atom, score
      L1  H     7    24       P1  8028  0.99
      L1  H    10    25       P1  8028  1.00

> <Gold.PLP.Chemscore.Internal.Correction>
0.0105

> <Gold.Rescore>
     Score         DG    S(hbond)    S(metal)    S(lipo)     H(rot)  DE(clash)    DE(int)     intcor
     15.63     -17.00       1.93        0.00      76.10       1.50       0.06       1.32       ----

> <Gold.Chemscore.Fitness>
15.6301

> <Gold.Chemscore.DG>
-17.0047

> <Gold.Chemscore.ZeroCoef>
-5.4800

> <Gold.Chemscore.Hbond>
1.9323

> <Gold.Chemscore.Metal>
0.0000

> <Gold.Chemscore.Lipo>
76.0962

> <Gold.Chemscore.Internal_Hbond>
0.0000

> <Gold.Chemscore.DEClash>
0.0567

> <Gold.Chemscore.DEInternal>
1.3179

> <Gold.Chemscore.Rot>
1.4971

> <Gold.Chemscore.Internal.Correction>
   9.000000E+99

> <Gold.Chemscore.Hbonds>
donor molecule, donor type, donor heavy atom, donor atom, acceptor molecule, acceptor atom, score
      L1  H     7    24       P1  8028  0.94
      L1  H    10    25       P1  8028  0.98

> <Gold.Chemscore.Hbond.Weighted>
-6.4540

> <Gold.Chemscore.Metal.Weighted>
-0.0000

> <Gold.Chemscore.Lipo.Weighted>
-8.9033

> <Gold.Chemscore.Internal_Hbond.Weighted>
0.0000

> <Gold.Chemscore.DEClash.Weighted>
0.0567

> <Gold.Chemscore.DEInternal.Weighted>
1.3179

> <Gold.Chemscore.Rot.Weighted>
3.8326

> <Gold.Chemscore.Internal.Correction.Weighted>
   9.000000E+99

> <Gold.Protein.RotatedTorsions>
[ 6907 6896 6895 6894 ] final  -79.36 input  -60.11 | X-H torsion
[ 7974 7965 7964 7962 ] final  125.56 input  175.53 | X-H torsion
[ 8008 7997 7996 7995 ] final -120.58 input   59.86 | X-H torsion
[ 10167 10162 10161 10158 ] final  -31.68 input  -65.29 | X-H torsion
[ 10718 10713 10712 10709 ] final  159.31 input   66.30 | X-H torsion
[ 10763 10752 10751 10750 ] final -123.65 input  -60.55 | X-H torsion
[ 11005 11000 10999 10996 ] final   69.35 input  -57.11 | X-H torsion

> <Gold.Protein.ActiveResidues>
 VAL166  LYS551  ARG553  GLY616  TRP617  ASP618  TYR619  PRO620  LYS621  CYS622 
 ASP623  PHE694  ASN695  SER759  ASP760  ASP761  ALA762  ILE779  LEU786  VAL792 
 PHE793  MET794  SER795  GLU796  ALA797  LYS798  CYS799  TRP800  GLU811  SER814 

> <Gold.Protein.RotatedAtoms>
  150.6951  134.4132  159.5171 H   0  0  0  0  0  0  0  0  0  0  0  0  # atno 6907 bound_to 6896
  152.1887  134.8688  160.0529 H   0  0  0  0  0  0  0  0  0  0  0  0  # atno 6908 bound_to 6896
  151.9651  133.3673  159.4087 H   0  0  0  0  0  0  0  0  0  0  0  0  # atno 6909 bound_to 6896
  145.0716  139.3725  143.4954 H   0  0  0  0  0  0  0  0  0  0  0  0  # atno 7974 bound_to 7965
  155.1341  140.0400  157.2782 H   0  0  0  0  0  0  0  0  0  0  0  0  # atno 8008 bound_to 7997
  154.6521  140.2571  155.7176 H   0  0  0  0  0  0  0  0  0  0  0  0  # atno 8009 bound_to 7997
  156.2582  140.2834  156.0959 H   0  0  0  0  0  0  0  0  0  0  0  0  # atno 8010 bound_to 7997
  140.7233  143.3752  151.1702 H   0  0  0  0  0  0  0  0  0  0  0  0  # atno 10167 bound_to 10162
  157.1659  131.0598  151.2208 H   0  0  0  0  0  0  0  0  0  0  0  0  # atno 10718 bound_to 10713
  154.8711  135.4091  154.2978 H   0  0  0  0  0  0  0  0  0  0  0  0  # atno 10763 bound_to 10752
  153.3843  135.7012  153.6547 H   0  0  0  0  0  0  0  0  0  0  0  0  # atno 10764 bound_to 10752
  153.5356  135.3658  155.2667 H   0  0  0  0  0  0  0  0  0  0  0  0  # atno 10765 bound_to 10752
  139.9658  134.6983  156.0548 H   0  0  0  0  0  0  0  0  0  0  0  0  # atno 11005 bound_to 11000
  146.3529  140.0464  142.8639 LP  0  0  0  0  0  0  0  0  0  0  0  0  # atno 17320 bound_to 7965
  145.1285  140.9504  143.4558 LP  0  0  0  0  0  0  0  0  0  0  0  0  # atno 17321 bound_to 7965
  139.7331  143.9041  152.3026 LP  0  0  0  0  0  0  0  0  0  0  0  0  # atno 17342 bound_to 10162
  139.8837  144.7004  150.8849 LP  0  0  0  0  0  0  0  0  0  0  0  0  # atno 17343 bound_to 10162
  157.4089  130.7374  149.6824 LP  0  0  0  0  0  0  0  0  0  0  0  0  # atno 17370 bound_to 10713
  155.9746  130.4101  150.3911 LP  0  0  0  0  0  0  0  0  0  0  0  0  # atno 17371 bound_to 10713
  141.1338  133.6580  156.3537 LP  0  0  0  0  0  0  0  0  0  0  0  0  # atno 17394 bound_to 11000
  140.5399  134.6131  157.5376 LP  0  0  0  0  0  0  0  0  0  0  0  0  # atno 17395 bound_to 11000

$$$$
